
     RDKit          3D

 39 40  0  0  0  0  0  0  0  0999 V2000
   -8.5290   -0.2620    0.1610 C   0  0  0  0  0  0  0  0  0  0  0  0
   -7.6850    0.1920   -0.9650 C   0  0  0  0  0  0  0  0  0  0  0  0
   -6.2270    0.3590   -0.7350 C   0  0  2  0  0  0  0  0  0  0  0  0
   -5.4590   -0.7090   -0.3400 O   0  0  0  0  0  0  0  0  0  0  0  0
   -4.5420   -1.4340   -1.1180 C   0  0  0  0  0  0  0  0  0  0  0  0
   -3.2300   -1.0420   -1.2600 C   0  0  0  0  0  0  0  0  0  0  0  0
   -2.7580    0.0980   -0.6160 O   0  0  0  0  0  0  0  0  0  0  0  0
   -1.4210    0.5240   -0.7390 C   0  0  0  0  0  0  0  0  0  0  0  0
   -1.2180    1.7720    0.0730 C   0  0  0  0  0  0  0  0  0  0  0  0
    0.1920    2.1860   -0.0820 N   0  0  0  0  0  0  0  0  0  0  0  0
    0.6970    3.0140   -1.0020 C   0  0  0  0  0  0  0  0  0  0  0  0
   -0.1360    3.7030   -2.0420 C   0  0  0  0  0  0  0  0  0  0  0  0
    2.0420    3.0880   -0.7950 C   0  0  0  0  0  0  0  0  0  0  0  0
    2.3470    2.2800    0.2820 C   0  0  0  0  0  0  0  0  0  0  0  0
    3.6520    2.0310    0.8730 C   0  0  0  0  0  0  0  0  0  0  0  0
    4.6650    2.5300    0.3430 O   0  0  0  0  0  0  0  0  0  0  0  0
    3.7790    1.2580    1.9970 O   0  0  0  0  0  0  0  0  0  0  0  0
    5.0040    0.9540    2.6330 C   0  0  0  0  0  0  0  0  0  0  0  0
    5.8390    0.1980    1.6750 C   0  0  0  0  0  0  0  0  0  0  0  0
    5.4180   -0.0640    0.5220 O   0  0  0  0  0  0  0  0  0  0  0  0
    7.1300   -0.2360    2.0680 N   0  0  0  0  0  0  0  0  0  0  0  0
    8.0030   -0.9870    1.1940 C   0  0  0  0  0  0  0  0  0  0  0  0
    9.3160   -1.3400    1.8110 C   0  0  2  0  0  0  0  0  0  0  0  0
   10.1900   -0.1690    2.1090 C   0  0  0  0  0  0  0  0  0  0  0  0
   10.0190   -2.2770    0.8160 C   0  0  0  0  0  0  0  0  0  0  0  0
    9.0650   -2.1120    2.9610 O   0  0  0  0  0  0  0  0  0  0  0  0
    1.1590    1.7230    0.7130 C   0  0  0  0  0  0  0  0  0  0  0  0
    1.0680    0.7780    1.8740 C   0  0  0  0  0  0  0  0  0  0  0  0
   -2.3090   -1.7300   -2.0260 C   0  0  0  0  0  0  0  0  0  0  0  0
   -2.7160   -2.8570   -2.6760 C   0  0  0  0  0  0  0  0  0  0  0  0
   -1.8330   -3.5930   -3.4660 O   0  0  0  0  0  0  0  0  0  0  0  0
   -4.0090   -3.2890   -2.5640 C   0  0  0  0  0  0  0  0  0  0  0  0
   -4.9120   -2.5770   -1.7850 C   0  0  0  0  0  0  0  0  0  0  0  0
   -6.2150   -3.1670   -1.6280 C   0  0  0  0  0  0  0  0  0  0  0  0
   -6.6410   -4.1460   -2.6020 N   0  0  0  0  0  0  0  0  0  0  0  0
   -6.9770   -2.8590   -0.6870 O   0  0  0  0  0  0  0  0  0  0  0  0
   -6.0330    1.5590    0.1500 C   0  0  1  0  0  0  0  0  0  0  0  0
   -6.3700    1.2660    1.6210 C   0  0  0  0  0  0  0  0  0  0  0  0
   -4.7490    2.0960    0.0990 O   0  0  0  0  0  0  0  0  0  0  0  0
  1  2  1  0
  3  2  1  1
  3  4  1  0
  3 37  1  0
  4  5  1  0
  5  6  2  0
  5 33  1  0
  6  7  1  0
  6 29  1  0
  7  8  1  0
  8  9  1  0
  9 10  1  0
 10 11  1  0
 10 27  1  0
 11 12  1  0
 11 13  2  0
 13 14  1  0
 14 15  1  0
 14 27  2  0
 15 16  2  0
 15 17  1  0
 17 18  1  0
 18 19  1  0
 19 20  2  0
 19 21  1  0
 21 22  1  0
 22 23  1  0
 23 24  1  1
 23 25  1  0
 23 26  1  0
 27 28  1  0
 29 30  2  0
 30 31  1  0
 30 32  1  0
 32 33  2  0
 33 34  1  0
 34 35  1  0
 34 36  2  0
 37 38  1  1
 37 39  1  0
M  END
