
     RDKit          3D

 39 40  0  0  0  0  0  0  0  0999 V2000
    9.9770   -0.9970   -2.7690 C   0  0  0  0  0  0  0  0  0  0  0  0
   10.4690    0.3640   -3.2560 C   0  0  0  0  0  0  0  0  0  0  0  0
   10.2690    1.3050   -2.2540 O   0  0  0  0  0  0  0  0  0  0  0  0
    8.8830    1.3490   -1.9720 C   0  0  0  0  0  0  0  0  0  0  0  0
    8.7170    2.3380   -0.8700 C   0  0  0  0  0  0  0  0  0  0  0  0
    7.3530    2.5350   -0.4230 N   0  0  0  0  0  0  0  0  0  0  0  0
    6.5560    1.4840    0.0900 C   0  0  0  0  0  0  0  0  0  0  0  0
    7.0690    0.3110    0.1440 O   0  0  0  0  0  0  0  0  0  0  0  0
    5.1870    1.6990    0.5520 C   0  0  0  0  0  0  0  0  0  0  0  0
    4.7490    2.8620    0.5340 O   0  0  0  0  0  0  0  0  0  0  0  0
    4.3800    0.6450    1.0040 N   0  0  0  0  0  0  0  0  0  0  0  0
    3.0520    0.7210    1.4920 C   0  0  0  0  0  0  0  0  0  0  0  0
    2.3800    1.8760    1.7760 C   0  0  0  0  0  0  0  0  0  0  0  0
    1.1070    1.8570    2.2900 C   0  0  0  0  0  0  0  0  0  0  0  0
    0.4270    0.6560    2.5520 C   0  0  0  0  0  0  0  0  0  0  0  0
   -0.7700    0.5780    3.0390 O   0  0  0  0  0  0  0  0  0  0  0  0
   -1.9630    0.5340    3.5260 C   0  0  0  0  0  0  0  0  0  0  0  0
   -2.5510   -0.8730    3.7140 C   0  0  0  0  0  0  0  0  0  0  0  0
   -2.6720   -1.6160    2.5760 O   0  0  0  0  0  0  0  0  0  0  0  0
   -3.4000   -1.4960    1.4450 C   0  0  0  0  0  0  0  0  0  0  0  0
   -4.2990   -0.5030    1.1660 C   0  0  0  0  0  0  0  0  0  0  0  0
   -5.0140   -0.4590   -0.0400 C   0  0  0  0  0  0  0  0  0  0  0  0
   -5.9750    0.6960   -0.2520 C   0  0  2  0  0  0  0  0  0  0  0  0
   -7.1410    0.3520    0.6700 C   0  0  0  0  0  0  0  0  0  0  0  0
   -6.3440    0.7940   -1.6620 C   0  0  0  0  0  0  0  0  0  0  0  0
   -7.2450    1.8820   -2.1180 C   0  0  1  0  0  0  0  0  0  0  0  0
   -7.3970    1.7920   -3.5500 O   0  0  0  0  0  0  0  0  0  0  0  0
   -8.6770    1.7200   -1.6460 C   0  0  0  0  0  0  0  0  0  0  0  0
   -9.1570    0.4380   -2.1410 N   0  0  0  0  0  0  0  0  0  0  0  0
   -4.8250   -1.4220   -0.9770 C   0  0  0  0  0  0  0  0  0  0  0  0
   -3.9150   -2.4410   -0.7150 C   0  0  0  0  0  0  0  0  0  0  0  0
   -3.2200   -2.4820    0.4610 C   0  0  0  0  0  0  0  0  0  0  0  0
   -2.3230   -3.5100    0.6830 O   0  0  0  0  0  0  0  0  0  0  0  0
   -2.1270   -4.5000   -0.2950 C   0  0  0  0  0  0  0  0  0  0  0  0
    1.1370   -0.5420    2.2500 C   0  0  0  0  0  0  0  0  0  0  0  0
    0.4770   -1.7330    2.5020 O   0  0  0  0  0  0  0  0  0  0  0  0
    2.3860   -0.4810    1.7450 C   0  0  0  0  0  0  0  0  0  0  0  0
    3.0550   -1.6950    1.4570 O   0  0  0  0  0  0  0  0  0  0  0  0
    2.8700   -2.2030    0.1500 C   0  0  0  0  0  0  0  0  0  0  0  0
  1  2  1  0
  2  3  1  0
  3  4  1  0
  4  5  1  0
  5  6  1  0
  6  7  1  0
  7  8  2  0
  7  9  1  0
  9 10  2  0
  9 11  1  0
 11 12  1  0
 12 13  2  0
 12 37  1  0
 13 14  1  0
 14 15  2  0
 15 16  1  0
 15 35  1  0
 16 17  1  0
 17 18  1  0
 18 19  1  0
 19 20  1  0
 20 21  2  0
 20 32  1  0
 21 22  1  0
 22 23  1  0
 22 30  2  0
 23 24  1  1
 23 25  1  0
 25 26  1  0
 26 27  1  6
 26 28  1  0
 28 29  1  0
 30 31  1  0
 31 32  2  0
 32 33  1  0
 33 34  1  0
 35 36  1  0
 35 37  2  0
 37 38  1  0
 38 39  1  0
M  END
