
     RDKit          3D

 39 40  0  0  0  0  0  0  0  0999 V2000
   -3.9050   -4.2180   -2.2500 C   0  0  0  0  0  0  0  0  0  0  0  0
   -3.9380   -2.9040   -1.5590 C   0  0  0  0  0  0  0  0  0  0  0  0
   -5.0890   -2.2760   -1.1920 C   0  0  0  0  0  0  0  0  0  0  0  0
   -5.1130   -1.0310   -0.5340 C   0  0  0  0  0  0  0  0  0  0  0  0
   -6.3840   -0.4930   -0.2500 N   0  0  0  0  0  0  0  0  0  0  0  0
   -6.6530    0.4470    0.7650 C   0  0  0  0  0  0  0  0  0  0  0  0
   -5.7400    0.8630    1.5040 O   0  0  0  0  0  0  0  0  0  0  0  0
   -8.0370    0.9790    0.9920 C   0  0  1  0  0  0  0  0  0  0  0  0
   -8.9250   -0.2590    1.2230 C   0  0  0  0  0  0  0  0  0  0  0  0
   -8.0250    1.7980    2.0790 O   0  0  0  0  0  0  0  0  0  0  0  0
   -8.5080    3.0460    1.8440 C   0  0  0  0  0  0  0  0  0  0  0  0
   -9.9760    3.0340    1.5460 C   0  0  0  0  0  0  0  0  0  0  0  0
  -10.2690    2.2850    0.4330 O   0  0  0  0  0  0  0  0  0  0  0  0
   -3.8930   -0.4740   -0.2780 C   0  0  0  0  0  0  0  0  0  0  0  0
   -2.7020   -1.0630   -0.6270 C   0  0  0  0  0  0  0  0  0  0  0  0
   -1.4030   -0.4540   -0.3810 C   0  0  0  0  0  0  0  0  0  0  0  0
   -1.4030    0.7770   -0.1520 O   0  0  0  0  0  0  0  0  0  0  0  0
   -0.1860   -1.1420   -0.3890 N   0  0  0  0  0  0  0  0  0  0  0  0
    1.1130   -0.6560   -0.1790 C   0  0  0  0  0  0  0  0  0  0  0  0
    1.4140    0.6100    0.2310 C   0  0  0  0  0  0  0  0  0  0  0  0
    2.7430    1.0690    0.3960 C   0  0  0  0  0  0  0  0  0  0  0  0
    3.7930    0.1940    0.1290 C   0  0  0  0  0  0  0  0  0  0  0  0
    5.1120    0.5710    0.2680 O   0  0  0  0  0  0  0  0  0  0  0  0
    5.5730    1.8030    0.7520 C   0  0  2  0  0  0  0  0  0  0  0  0
    5.6980    2.7620   -0.4300 C   0  0  0  0  0  0  0  0  0  0  0  0
    6.2060    4.0960    0.0620 C   0  0  0  0  0  0  0  0  0  0  0  0
    5.3430    4.6560    1.0050 O   0  0  0  0  0  0  0  0  0  0  0  0
    6.7760    1.7740    1.6050 C   0  0  0  0  0  0  0  0  0  0  0  0
    8.0470    1.2810    1.0650 C   0  0  0  0  0  0  0  0  0  0  0  0
    8.1040   -0.1130    0.5860 C   0  0  0  0  0  0  0  0  0  0  0  0
    9.2900   -0.5550   -0.0890 N   0  0  0  0  0  0  0  0  0  0  0  0
    7.1760   -0.9280    0.7380 O   0  0  0  0  0  0  0  0  0  0  0  0
    3.5050   -1.0770   -0.2810 C   0  0  0  0  0  0  0  0  0  0  0  0
    4.5150   -1.9720   -0.5500 O   0  0  0  0  0  0  0  0  0  0  0  0
    4.2650   -3.3020   -0.9590 C   0  0  0  0  0  0  0  0  0  0  0  0
    5.5820   -3.9970   -1.1590 C   0  0  0  0  0  0  0  0  0  0  0  0
    6.3590   -3.3670   -2.1380 O   0  0  0  0  0  0  0  0  0  0  0  0
    2.1980   -1.4820   -0.4290 C   0  0  0  0  0  0  0  0  0  0  0  0
   -2.7390   -2.2810   -1.2680 C   0  0  0  0  0  0  0  0  0  0  0  0
  1  2  1  0
  2  3  2  0
  2 39  1  0
  3  4  1  0
  4  5  1  0
  4 14  2  0
  5  6  1  0
  6  7  2  0
  6  8  1  0
  8  9  1  1
  8 10  1  0
 10 11  1  0
 11 12  1  0
 12 13  1  0
 14 15  1  0
 15 16  1  0
 15 39  2  0
 16 17  2  0
 16 18  1  0
 18 19  1  0
 19 20  2  0
 19 38  1  0
 20 21  1  0
 21 22  2  0
 22 23  1  0
 22 33  1  0
 23 24  1  0
 24 25  1  6
 24 28  1  0
 25 26  1  0
 26 27  1  0
 28 29  1  0
 29 30  1  0
 30 31  1  0
 30 32  2  0
 33 34  1  0
 33 38  2  0
 34 35  1  0
 35 36  1  0
 36 37  1  0
M  END
