
     RDKit          3D

 39 40  0  0  0  0  0  0  0  0999 V2000
   -5.3100   -4.4690   -0.7260 C   0  0  0  0  0  0  0  0  0  0  0  0
   -4.7500   -3.2760   -0.2840 O   0  0  0  0  0  0  0  0  0  0  0  0
   -5.4240   -2.2470   -0.8500 C   0  0  0  0  0  0  0  0  0  0  0  0
   -5.0290   -0.8780   -0.5440 C   0  0  0  0  0  0  0  0  0  0  0  0
   -4.0750   -0.5040    0.2350 C   0  0  0  0  0  0  0  0  0  0  0  0
   -3.1200   -1.2920    1.0260 C   0  0  2  0  0  0  0  0  0  0  0  0
   -3.4360   -1.4180    2.4740 C   0  0  0  0  0  0  0  0  0  0  0  0
   -4.7390   -2.0940    2.7780 C   0  0  0  0  0  0  0  0  0  0  0  0
   -5.8520   -1.4870    2.2520 O   0  0  0  0  0  0  0  0  0  0  0  0
   -1.8120   -0.6010    0.8560 N   0  0  0  0  0  0  0  0  0  0  0  0
   -0.7260   -1.2040    0.1810 C   0  0  0  0  0  0  0  0  0  0  0  0
   -0.9160   -2.3470   -0.2710 O   0  0  0  0  0  0  0  0  0  0  0  0
    0.5240   -0.5720    0.0100 N   0  0  0  0  0  0  0  0  0  0  0  0
    1.6570   -1.0850   -0.6570 C   0  0  0  0  0  0  0  0  0  0  0  0
    1.6500   -2.1870   -1.4610 C   0  0  0  0  0  0  0  0  0  0  0  0
    2.7830   -2.6930   -2.1010 C   0  0  0  0  0  0  0  0  0  0  0  0
    2.7110   -3.8200   -2.9090 O   0  0  0  0  0  0  0  0  0  0  0  0
    3.9960   -2.0680   -1.9330 C   0  0  0  0  0  0  0  0  0  0  0  0
    5.1690   -2.4850   -2.5190 O   0  0  0  0  0  0  0  0  0  0  0  0
    5.9930   -3.3970   -1.8540 C   0  0  0  0  0  0  0  0  0  0  0  0
    4.0200   -0.9450   -1.1170 C   0  0  0  0  0  0  0  0  0  0  0  0
    5.2390   -0.2910   -0.9290 O   0  0  0  0  0  0  0  0  0  0  0  0
    5.3100    0.8560   -0.1050 C   0  0  0  0  0  0  0  0  0  0  0  0
    6.7170    1.3360   -0.0810 C   0  0  0  0  0  0  0  0  0  0  0  0
    7.6890    0.7020   -0.8420 C   0  0  0  0  0  0  0  0  0  0  0  0
    8.9990    1.1130   -0.8430 C   0  0  0  0  0  0  0  0  0  0  0  0
    9.3520    2.1850   -0.0650 C   0  0  0  0  0  0  0  0  0  0  0  0
   10.7470    2.7060    0.0010 C   0  0  0  0  0  0  0  0  0  0  0  0
    8.3970    2.8440    0.7110 C   0  0  0  0  0  0  0  0  0  0  0  0
    8.7670    3.9430    1.5070 N   0  0  0  0  0  0  0  0  0  0  0  0
    7.0830    2.4200    0.7040 C   0  0  0  0  0  0  0  0  0  0  0  0
    2.9040   -0.4600   -0.4970 C   0  0  0  0  0  0  0  0  0  0  0  0
   -5.8010    0.1090   -1.1950 O   0  0  0  0  0  0  0  0  0  0  0  0
   -6.0000    1.4080   -0.7700 C   0  0  0  0  0  0  0  0  0  0  0  0
   -6.6680    1.5140    0.5600 C   0  0  0  0  0  0  0  0  0  0  0  0
   -6.8730    2.8170    0.9920 O   0  0  0  0  0  0  0  0  0  0  0  0
   -7.6650    3.5860    0.1750 C   0  0  0  0  0  0  0  0  0  0  0  0
   -7.7550    4.9620    0.8480 C   0  0  0  0  0  0  0  0  0  0  0  0
   -8.5500    5.8130    0.0750 O   0  0  0  0  0  0  0  0  0  0  0  0
  1  2  1  0
  2  3  1  0
  3  4  1  0
  4  5  2  3
  4 33  1  0
  5  6  1  0
  6  7  1  1
  6 10  1  0
  7  8  1  0
  8  9  1  0
 10 11  1  0
 11 12  2  0
 11 13  1  0
 13 14  1  0
 14 15  2  0
 14 32  1  0
 15 16  1  0
 16 17  1  0
 16 18  2  0
 18 19  1  0
 18 21  1  0
 19 20  1  0
 21 22  1  0
 21 32  2  0
 22 23  1  0
 23 24  1  0
 24 25  2  0
 24 31  1  0
 25 26  1  0
 26 27  2  0
 27 28  1  0
 27 29  1  0
 29 30  1  0
 29 31  2  0
 33 34  1  0
 34 35  1  0
 35 36  1  0
 36 37  1  0
 37 38  1  0
 38 39  1  0
M  END
