
     RDKit          3D

 39 40  0  0  0  0  0  0  0  0999 V2000
   -7.2700    3.1200   -2.0220 C   0  0  0  0  0  0  0  0  0  0  0  0
   -7.4950    2.6050   -0.7250 O   0  0  0  0  0  0  0  0  0  0  0  0
   -6.5810    1.7600   -0.1130 C   0  0  0  0  0  0  0  0  0  0  0  0
   -5.4140    1.4050   -0.7550 C   0  0  0  0  0  0  0  0  0  0  0  0
   -4.4490    0.5890   -0.2290 C   0  0  0  0  0  0  0  0  0  0  0  0
   -3.2750    0.2290   -0.8680 O   0  0  0  0  0  0  0  0  0  0  0  0
   -2.9800    0.7010   -2.1710 C   0  0  0  0  0  0  0  0  0  0  0  0
   -1.6310    0.1720   -2.6380 C   0  0  0  0  0  0  0  0  0  0  0  0
   -0.6790    0.6410   -1.7160 O   0  0  0  0  0  0  0  0  0  0  0  0
    0.6800    0.3850   -1.7670 C   0  0  0  0  0  0  0  0  0  0  0  0
    1.2830   -0.3780   -2.7490 C   0  0  0  0  0  0  0  0  0  0  0  0
    2.6270   -0.6300   -2.7940 C   0  0  0  0  0  0  0  0  0  0  0  0
    3.1990   -1.4690   -3.8990 C   0  0  0  0  0  0  0  0  0  0  0  0
    3.4400   -0.0860   -1.7920 C   0  0  0  0  0  0  0  0  0  0  0  0
    4.8230   -0.3740   -1.8640 N   0  0  0  0  0  0  0  0  0  0  0  0
    5.8230    0.0820   -0.9650 C   0  0  0  0  0  0  0  0  0  0  0  0
    5.5300    0.8060   -0.0090 O   0  0  0  0  0  0  0  0  0  0  0  0
    7.1950   -0.2720   -1.1220 N   0  0  0  0  0  0  0  0  0  0  0  0
    8.2780    0.1030   -0.2970 C   0  0  0  0  0  0  0  0  0  0  0  0
    8.2480   -0.3630    1.1260 C   0  0  1  0  0  0  0  0  0  0  0  0
    7.1550    0.0790    1.8550 O   0  0  0  0  0  0  0  0  0  0  0  0
    8.3690   -1.8670    1.2260 C   0  0  0  0  0  0  0  0  0  0  0  0
    8.3490   -2.2860    2.6590 C   0  0  1  0  0  0  0  0  0  0  0  0
    8.4770   -3.8150    2.6870 C   0  0  0  0  0  0  0  0  0  0  0  0
    9.4080   -1.7260    3.3850 O   0  0  0  0  0  0  0  0  0  0  0  0
    2.8300    0.6710   -0.8200 C   0  0  0  0  0  0  0  0  0  0  0  0
    1.4690    0.9300   -0.7670 C   0  0  0  0  0  0  0  0  0  0  0  0
    0.8990    1.6990    0.2330 O   0  0  0  0  0  0  0  0  0  0  0  0
    1.7620    2.2340    1.2370 C   0  0  0  0  0  0  0  0  0  0  0  0
   -4.6850    0.0950    1.0460 C   0  0  0  0  0  0  0  0  0  0  0  0
   -3.7550   -0.7360    1.6450 O   0  0  0  0  0  0  0  0  0  0  0  0
   -3.9650   -1.2500    2.9280 C   0  0  0  0  0  0  0  0  0  0  0  0
   -5.8360    0.4220    1.7200 C   0  0  0  0  0  0  0  0  0  0  0  0
   -6.8140    1.2680    1.1460 C   0  0  0  0  0  0  0  0  0  0  0  0
   -8.0510    1.5000    1.9080 C   0  0  0  0  0  0  0  0  0  0  0  0
   -9.1200    0.4880    1.8410 C   0  0  0  0  0  0  0  0  0  0  0  0
   -9.6780    0.1330    0.5590 C   0  0  0  0  0  0  0  0  0  0  0  0
  -10.9990   -0.4780    0.5360 N   0  0  0  0  0  0  0  0  0  0  0  0
   -9.1130    0.3060   -0.5340 O   0  0  0  0  0  0  0  0  0  0  0  0
  1  2  1  0
  2  3  1  0
  3  4  2  0
  3 34  1  0
  4  5  1  0
  5  6  1  0
  5 30  2  0
  6  7  1  0
  7  8  1  0
  8  9  1  0
  9 10  1  0
 10 11  2  0
 10 27  1  0
 11 12  1  0
 12 13  1  0
 12 14  2  0
 14 15  1  0
 14 26  1  0
 15 16  1  0
 16 17  2  0
 16 18  1  0
 18 19  1  0
 19 20  1  0
 20 21  1  6
 20 22  1  0
 22 23  1  0
 23 24  1  6
 23 25  1  0
 26 27  2  0
 27 28  1  0
 28 29  1  0
 30 31  1  0
 30 33  1  0
 31 32  1  0
 33 34  2  0
 34 35  1  0
 35 36  1  0
 36 37  1  0
 37 38  1  0
 37 39  2  0
M  END
