
     RDKit          3D

 39 39  0  0  0  0  0  0  0  0999 V2000
   -7.0650    4.3600   -6.5060 C   0  0  0  0  0  0  0  0  0  0  0  0
   -7.1190    3.8420   -5.1750 O   0  0  0  0  0  0  0  0  0  0  0  0
   -6.0160    3.4250   -4.5390 C   0  0  0  0  0  0  0  0  0  0  0  0
   -4.8220    3.4310   -5.0370 O   0  0  0  0  0  0  0  0  0  0  0  0
   -6.0590    2.9230   -3.1800 N   0  0  0  0  0  0  0  0  0  0  0  0
   -4.8750    2.4720   -2.5180 C   0  0  0  0  0  0  0  0  0  0  0  0
   -3.8660    2.4520   -3.2000 O   0  0  0  0  0  0  0  0  0  0  0  0
   -4.8710    2.0600   -1.1070 C   0  0  0  0  0  0  0  0  0  0  0  0
   -6.0800    2.1780   -0.5140 C   0  0  0  0  0  0  0  0  0  0  0  0
   -6.2170    1.8310    0.8120 O   0  0  0  0  0  0  0  0  0  0  0  0
   -3.8020    1.4490   -0.3800 C   0  0  0  0  0  0  0  0  0  0  0  0
   -2.5820    1.1590   -0.5050 C   0  0  0  0  0  0  0  0  0  0  0  0
   -1.3370    1.1230   -1.2060 C   0  0  0  0  0  0  0  0  0  0  0  0
   -1.0800    1.8390   -2.4530 C   0  0  0  0  0  0  0  0  0  0  0  0
   -0.3280    0.4740   -0.5760 C   0  0  0  0  0  0  0  0  0  0  0  0
    0.9990    0.2880   -1.0840 C   0  0  0  0  0  0  0  0  0  0  0  0
    1.4410    0.6680   -2.1890 O   0  0  0  0  0  0  0  0  0  0  0  0
    1.9790   -0.4300   -0.2540 N   0  0  0  0  0  0  0  0  0  0  0  0
    3.2610   -0.6480   -0.8260 C   0  0  0  0  0  0  0  0  0  0  0  0
    4.2290   -1.3950    0.0530 C   0  0  2  0  0  0  0  0  0  0  0  0
    4.4920   -0.5880    1.2770 C   0  0  0  0  0  0  0  0  0  0  0  0
    5.0580    0.7700    1.0960 C   0  0  1  0  0  0  0  0  0  0  0  0
    5.2400    1.4340    2.4790 C   0  0  0  0  0  0  0  0  0  0  0  0
    6.3880    0.8570    0.4290 C   0  0  0  0  0  0  0  0  0  0  0  0
    5.4170   -1.8910   -0.6920 C   0  0  0  0  0  0  0  0  0  0  0  0
    6.1240   -3.0120    0.0510 C   0  0  0  0  0  0  0  0  0  0  0  0
    5.3090   -4.2610   -0.0770 C   0  0  2  0  0  0  0  0  0  0  0  0
    5.7760   -5.0430   -1.2720 C   0  0  0  0  0  0  0  0  0  0  0  0
    7.1250   -5.3940   -1.1340 O   0  0  0  0  0  0  0  0  0  0  0  0
    3.8520   -3.8820   -0.2190 C   0  0  0  0  0  0  0  0  0  0  0  0
    3.5240   -2.6620    0.6040 C   0  0  0  0  0  0  0  0  0  0  0  0
   -4.2640    1.0100    0.9640 O   0  0  0  0  0  0  0  0  0  0  0  0
   -3.8210    1.6570    2.1090 C   0  0  0  0  0  0  0  0  0  0  0  0
   -4.4330    1.0080    3.3270 C   0  0  0  0  0  0  0  0  0  0  0  0
   -4.1120    1.4770    4.4390 O   0  0  0  0  0  0  0  0  0  0  0  0
   -5.3090   -0.0680    3.1740 N   0  0  0  0  0  0  0  0  0  0  0  0
   -5.9230   -0.7640    4.2680 C   0  0  0  0  0  0  0  0  0  0  0  0
   -4.9430   -1.4710    5.1570 C   0  0  0  0  0  0  0  0  0  0  0  0
   -4.0320   -0.6420    5.7540 O   0  0  0  0  0  0  0  0  0  0  0  0
  1  2  1  0
  2  3  1  0
  3  4  2  0
  3  5  1  0
  5  6  1  0
  6  7  2  0
  6  8  1  0
  8  9  2  3
  8 11  1  0
  9 10  1  0
 11 12  2  3
 11 32  1  0
 12 13  1  0
 13 14  1  0
 13 15  2  3
 15 16  1  0
 16 17  2  0
 16 18  1  0
 18 19  1  0
 20 19  1  6
 20 21  1  0
 20 25  1  0
 20 31  1  0
 21 22  1  0
 22 23  1  1
 22 24  1  0
 25 26  1  0
 26 27  1  0
 27 28  1  6
 27 30  1  0
 28 29  1  0
 30 31  1  0
 32 33  1  0
 33 34  1  0
 34 35  2  0
 34 36  1  0
 36 37  1  0
 37 38  1  0
 38 39  1  0
M  END
