
     RDKit          3D

 39 40  0  0  0  0  0  0  0  0999 V2000
    5.0150   -4.8320    2.5310 C   0  0  0  0  0  0  0  0  0  0  0  0
    4.4210   -3.6210    1.9240 C   0  0  0  0  0  0  0  0  0  0  0  0
    5.2450   -2.5840    1.4460 C   0  0  0  0  0  0  0  0  0  0  0  0
    4.7580   -1.4570    0.8830 C   0  0  0  0  0  0  0  0  0  0  0  0
    5.5190   -0.3810    0.3980 N   0  0  0  0  0  0  0  0  0  0  0  0
    6.9060   -0.1980    0.5730 C   0  0  0  0  0  0  0  0  0  0  0  0
    7.5760   -1.0340    1.2100 O   0  0  0  0  0  0  0  0  0  0  0  0
    7.5740    1.0130   -0.0170 C   0  0  1  0  0  0  0  0  0  0  0  0
    8.7230    0.5910   -0.9360 C   0  0  0  0  0  0  0  0  0  0  0  0
    6.6630    1.7960   -0.6720 O   0  0  0  0  0  0  0  0  0  0  0  0
    6.5230    3.0650   -0.1480 C   0  0  0  0  0  0  0  0  0  0  0  0
    7.8110    3.8300   -0.2180 C   0  0  0  0  0  0  0  0  0  0  0  0
    8.2100    3.9380   -1.5650 O   0  0  0  0  0  0  0  0  0  0  0  0
    3.3600   -1.3500    0.7870 C   0  0  0  0  0  0  0  0  0  0  0  0
    2.5200   -2.3100    1.2260 C   0  0  0  0  0  0  0  0  0  0  0  0
    1.0570   -2.1730    1.1100 C   0  0  0  0  0  0  0  0  0  0  0  0
    0.3440   -3.0820    1.6510 O   0  0  0  0  0  0  0  0  0  0  0  0
    0.4200   -1.1180    0.4500 N   0  0  0  0  0  0  0  0  0  0  0  0
   -0.9820   -0.9500    0.3070 C   0  0  0  0  0  0  0  0  0  0  0  0
   -1.9210   -1.9360    0.4980 C   0  0  0  0  0  0  0  0  0  0  0  0
   -3.2960   -1.6900    0.3600 C   0  0  0  0  0  0  0  0  0  0  0  0
   -3.7610   -0.4640    0.0300 C   0  0  0  0  0  0  0  0  0  0  0  0
   -5.0750   -0.1900   -0.1110 O   0  0  0  0  0  0  0  0  0  0  0  0
   -6.1810   -1.0230    0.0330 C   0  0  2  0  0  0  0  0  0  0  0  0
   -6.9260   -1.0890   -1.2890 C   0  0  0  0  0  0  0  0  0  0  0  0
   -6.0040   -1.6580   -2.3780 C   0  0  0  0  0  0  0  0  0  0  0  0
   -5.5940   -2.9340   -2.0190 O   0  0  0  0  0  0  0  0  0  0  0  0
   -7.0920   -0.4450    1.0820 C   0  0  0  0  0  0  0  0  0  0  0  0
   -7.5780    0.9360    0.7250 C   0  0  0  0  0  0  0  0  0  0  0  0
   -8.4620    1.4910    1.7910 C   0  0  0  0  0  0  0  0  0  0  0  0
   -9.0170    2.7820    1.6420 N   0  0  0  0  0  0  0  0  0  0  0  0
   -8.6840    0.7870    2.7910 O   0  0  0  0  0  0  0  0  0  0  0  0
   -2.8320    0.5720   -0.1740 C   0  0  0  0  0  0  0  0  0  0  0  0
   -3.3040    1.8180   -0.5120 O   0  0  0  0  0  0  0  0  0  0  0  0
   -2.7270    3.0090   -0.8030 C   0  0  0  0  0  0  0  0  0  0  0  0
   -1.8510    3.1070   -2.0070 C   0  0  0  0  0  0  0  0  0  0  0  0
   -2.5270    2.7910   -3.1890 O   0  0  0  0  0  0  0  0  0  0  0  0
   -1.4930    0.3180   -0.0350 C   0  0  0  0  0  0  0  0  0  0  0  0
    3.0650   -3.4400    1.7930 C   0  0  0  0  0  0  0  0  0  0  0  0
  1  2  1  0
  2  3  2  0
  2 39  1  0
  3  4  1  0
  4  5  1  0
  4 14  2  0
  5  6  1  0
  6  7  2  0
  6  8  1  0
  8  9  1  6
  8 10  1  0
 10 11  1  0
 11 12  1  0
 12 13  1  0
 14 15  1  0
 15 16  1  0
 15 39  2  0
 16 17  2  0
 16 18  1  0
 18 19  1  0
 19 20  2  0
 19 38  1  0
 20 21  1  0
 21 22  2  0
 22 23  1  0
 22 33  1  0
 23 24  1  0
 24 25  1  6
 24 28  1  0
 25 26  1  0
 26 27  1  0
 28 29  1  0
 29 30  1  0
 30 31  1  0
 30 32  2  0
 33 34  1  0
 33 38  2  0
 34 35  1  0
 35 36  1  0
 36 37  1  0
M  END
