
     RDKit          3D

 39 40  0  0  0  0  0  0  0  0999 V2000
   -1.8910    1.2710    3.5060 C   0  0  0  0  0  0  0  0  0  0  0  0
   -1.5180   -0.1750    3.5980 C   0  0  0  0  0  0  0  0  0  0  0  0
   -1.0010   -0.6930    2.4070 O   0  0  0  0  0  0  0  0  0  0  0  0
   -1.6900   -0.7380    1.2040 C   0  0  0  0  0  0  0  0  0  0  0  0
   -2.9540   -0.2850    1.0270 C   0  0  0  0  0  0  0  0  0  0  0  0
   -3.6480   -0.3370   -0.2040 C   0  0  0  0  0  0  0  0  0  0  0  0
   -4.9620    0.2780   -0.1890 C   0  0  0  0  0  0  0  0  0  0  0  0
   -5.7080    0.0250    0.8310 O   0  0  0  0  0  0  0  0  0  0  0  0
   -5.5460    1.1260   -1.1310 N   0  0  0  0  0  0  0  0  0  0  0  0
   -6.8990    1.6660   -0.9790 C   0  0  1  0  0  0  0  0  0  0  0  0
   -6.8410    3.1730   -0.9930 C   0  0  0  0  0  0  0  0  0  0  0  0
   -7.8330    1.2070   -2.0450 C   0  0  0  0  0  0  0  0  0  0  0  0
   -9.0790    1.8130   -1.7600 O   0  0  0  0  0  0  0  0  0  0  0  0
   -2.9850   -0.8790   -1.2450 C   0  0  0  0  0  0  0  0  0  0  0  0
   -3.5800   -1.0450   -2.5710 C   0  0  0  0  0  0  0  0  0  0  0  0
   -4.6000   -2.1440   -2.6900 C   0  0  0  0  0  0  0  0  0  0  0  0
   -5.6520   -1.9030   -1.8440 O   0  0  0  0  0  0  0  0  0  0  0  0
   -1.6660   -1.3540   -1.0710 C   0  0  0  0  0  0  0  0  0  0  0  0
   -0.9980   -1.3030    0.1080 C   0  0  0  0  0  0  0  0  0  0  0  0
    0.2910   -1.7500    0.3340 O   0  0  0  0  0  0  0  0  0  0  0  0
    1.1340   -2.3510   -0.6070 C   0  0  0  0  0  0  0  0  0  0  0  0
    2.4690   -2.5820    0.1270 C   0  0  0  0  0  0  0  0  0  0  0  0
    3.0200   -1.2370    0.5590 C   0  0  2  0  0  0  0  0  0  0  0  0
    3.2730   -0.3570   -0.6010 C   0  0  0  0  0  0  0  0  0  0  0  0
    2.6430    0.7730   -0.7930 C   0  0  0  0  0  0  0  0  0  0  0  0
    2.8600    1.6660   -1.9150 C   0  0  0  0  0  0  0  0  0  0  0  0
    2.1660    2.7880   -2.0120 C   0  0  0  0  0  0  0  0  0  0  0  0
    2.4620    3.6370   -3.2000 C   0  0  0  0  0  0  0  0  0  0  0  0
    3.8740    3.6180   -3.3010 O   0  0  0  0  0  0  0  0  0  0  0  0
    4.3060    2.4600   -3.6720 O   0  0  0  0  0  0  0  0  0  0  0  0
    3.8430    1.3750   -2.9850 C   0  0  0  0  0  0  0  0  0  0  0  0
    4.2450   -1.4680    1.4160 C   0  0  1  0  0  0  0  0  0  0  0  0
    5.2360   -2.1430    0.7550 O   0  0  0  0  0  0  0  0  0  0  0  0
    4.6660   -0.1860    2.0670 C   0  0  0  0  0  0  0  0  0  0  0  0
    5.6600   -0.3750    3.0650 N   0  0  0  0  0  0  0  0  0  0  0  0
    6.9430   -0.8710    2.8890 C   0  0  0  0  0  0  0  0  0  0  0  0
    7.3450   -1.2100    1.7450 O   0  0  0  0  0  0  0  0  0  0  0  0
    7.8670   -1.0230    3.9730 N   0  0  0  0  0  0  0  0  0  0  0  0
    9.1850   -1.5340    3.7560 C   0  0  0  0  0  0  0  0  0  0  0  0
  1  2  1  0
  2  3  1  0
  3  4  1  0
  4  5  2  0
  4 19  1  0
  5  6  1  0
  6  7  1  0
  6 14  2  0
  7  8  2  0
  7  9  1  0
  9 10  1  0
 10 11  1  6
 10 12  1  0
 12 13  1  0
 14 15  1  0
 14 18  1  0
 15 16  1  0
 16 17  1  0
 18 19  2  0
 19 20  1  0
 20 21  1  0
 21 22  1  0
 23 22  1  6
 23 24  1  0
 23 32  1  0
 24 25  2  3
 25 26  1  0
 26 27  2  0
 26 31  1  0
 27 28  1  0
 28 29  1  0
 29 30  1  0
 30 31  1  0
 32 33  1  6
 32 34  1  0
 34 35  1  0
 35 36  1  0
 36 37  2  0
 36 38  1  0
 38 39  1  0
M  END
