
     RDKit          3D

 39 40  0  0  0  0  0  0  0  0999 V2000
   13.3290    0.1600    0.1690 C   0  0  0  0  0  0  0  0  0  0  0  0
   11.8540    0.4700    0.4400 C   0  0  0  0  0  0  0  0  0  0  0  0
   11.1620   -0.6960    0.7370 O   0  0  0  0  0  0  0  0  0  0  0  0
    9.8430   -0.3980    0.9750 C   0  0  0  0  0  0  0  0  0  0  0  0
    9.0200   -1.6230    1.3060 C   0  0  0  0  0  0  0  0  0  0  0  0
    7.6280   -1.3070    1.5560 N   0  0  0  0  0  0  0  0  0  0  0  0
    6.7740   -0.6970    0.6000 C   0  0  0  0  0  0  0  0  0  0  0  0
    7.2440   -0.4120   -0.5300 O   0  0  0  0  0  0  0  0  0  0  0  0
    5.3590   -0.4010    0.9160 C   0  0  0  0  0  0  0  0  0  0  0  0
    4.9420   -0.7040    2.0450 O   0  0  0  0  0  0  0  0  0  0  0  0
    4.5020    0.2020   -0.0150 N   0  0  0  0  0  0  0  0  0  0  0  0
    3.1370    0.5390    0.1500 C   0  0  0  0  0  0  0  0  0  0  0  0
    2.3840    0.3220    1.2720 C   0  0  0  0  0  0  0  0  0  0  0  0
    1.0340    0.6690    1.3900 C   0  0  0  0  0  0  0  0  0  0  0  0
    0.3770    1.2640    0.3480 C   0  0  0  0  0  0  0  0  0  0  0  0
   -0.9350    1.6480    0.3250 O   0  0  0  0  0  0  0  0  0  0  0  0
   -1.8550    1.4620    1.3410 C   0  0  0  0  0  0  0  0  0  0  0  0
   -2.2020    0.0310    1.6670 C   0  0  0  0  0  0  0  0  0  0  0  0
   -2.7390   -0.7090    0.6330 O   0  0  0  0  0  0  0  0  0  0  0  0
   -3.8980   -0.5910   -0.0730 C   0  0  0  0  0  0  0  0  0  0  0  0
   -4.8860    0.3530    0.1320 C   0  0  0  0  0  0  0  0  0  0  0  0
   -6.0460    0.4200   -0.6320 C   0  0  0  0  0  0  0  0  0  0  0  0
   -7.0800    1.4490   -0.3730 C   0  0  2  0  0  0  0  0  0  0  0  0
   -6.4460    2.8120   -0.4930 C   0  0  0  0  0  0  0  0  0  0  0  0
   -7.7200    1.2620    0.9890 C   0  0  0  0  0  0  0  0  0  0  0  0
   -8.3810   -0.0990    1.0820 C   0  0  1  0  0  0  0  0  0  0  0  0
   -8.9600   -0.2240    2.3660 O   0  0  0  0  0  0  0  0  0  0  0  0
   -9.4990   -0.2560    0.0890 C   0  0  0  0  0  0  0  0  0  0  0  0
  -10.0730   -1.5790    0.3070 N   0  0  0  0  0  0  0  0  0  0  0  0
   -6.1960   -0.5100   -1.6350 C   0  0  0  0  0  0  0  0  0  0  0  0
   -5.2180   -1.4660   -1.8580 C   0  0  0  0  0  0  0  0  0  0  0  0
   -4.0780   -1.5350   -1.1100 C   0  0  0  0  0  0  0  0  0  0  0  0
   -3.0980   -2.4960   -1.3350 O   0  0  0  0  0  0  0  0  0  0  0  0
   -3.2070   -3.4640   -2.3450 C   0  0  0  0  0  0  0  0  0  0  0  0
    1.1560    1.4870   -0.8080 C   0  0  0  0  0  0  0  0  0  0  0  0
    0.4860    2.0990   -1.8800 O   0  0  0  0  0  0  0  0  0  0  0  0
    2.4660    1.1500   -0.9190 C   0  0  0  0  0  0  0  0  0  0  0  0
    3.1680    1.4000   -2.0870 O   0  0  0  0  0  0  0  0  0  0  0  0
    3.1510    0.3570   -3.0630 C   0  0  0  0  0  0  0  0  0  0  0  0
  1  2  1  0
  2  3  1  0
  3  4  1  0
  4  5  1  0
  5  6  1  0
  6  7  1  0
  7  8  2  0
  7  9  1  0
  9 10  2  0
  9 11  1  0
 11 12  1  0
 12 13  2  0
 12 37  1  0
 13 14  1  0
 14 15  2  0
 15 16  1  0
 15 35  1  0
 16 17  1  0
 17 18  1  0
 18 19  1  0
 19 20  1  0
 20 21  2  0
 20 32  1  0
 21 22  1  0
 22 23  1  0
 22 30  2  0
 23 24  1  1
 23 25  1  0
 25 26  1  0
 26 27  1  1
 26 28  1  0
 28 29  1  0
 30 31  1  0
 31 32  2  0
 32 33  1  0
 33 34  1  0
 35 36  1  0
 35 37  2  0
 37 38  1  0
 38 39  1  0
M  END
