
     RDKit          3D

 39 40  0  0  0  0  0  0  0  0999 V2000
   -6.2970    3.6890    0.9620 C   0  0  0  0  0  0  0  0  0  0  0  0
   -6.0110    2.2700    1.4530 C   0  0  0  0  0  0  0  0  0  0  0  0
   -5.3390    1.4470    0.3980 C   0  0  2  0  0  0  0  0  0  0  0  0
   -5.0480    0.1390    0.7650 O   0  0  0  0  0  0  0  0  0  0  0  0
   -4.8960   -0.9560   -0.0440 C   0  0  0  0  0  0  0  0  0  0  0  0
   -3.6150   -1.3870   -0.4510 C   0  0  0  0  0  0  0  0  0  0  0  0
   -2.5760   -0.6570    0.0340 O   0  0  0  0  0  0  0  0  0  0  0  0
   -1.2150   -0.7600   -0.0950 C   0  0  0  0  0  0  0  0  0  0  0  0
   -0.5540   -1.9820    0.4350 C   0  0  0  0  0  0  0  0  0  0  0  0
    0.8940   -1.9450    0.2140 N   0  0  0  0  0  0  0  0  0  0  0  0
    1.5230   -2.4230   -0.8830 C   0  0  0  0  0  0  0  0  0  0  0  0
    0.8800   -3.0620   -2.0490 C   0  0  0  0  0  0  0  0  0  0  0  0
    2.8820   -2.2280   -0.7650 C   0  0  0  0  0  0  0  0  0  0  0  0
    3.0720   -1.6060    0.4590 C   0  0  0  0  0  0  0  0  0  0  0  0
    4.3880   -1.2270    0.9600 C   0  0  0  0  0  0  0  0  0  0  0  0
    5.4470   -1.4400    0.3230 O   0  0  0  0  0  0  0  0  0  0  0  0
    4.4830   -0.6050    2.1920 O   0  0  0  0  0  0  0  0  0  0  0  0
    5.6830   -0.1880    2.7850 C   0  0  0  0  0  0  0  0  0  0  0  0
    6.3150    0.8670    1.9640 C   0  0  0  0  0  0  0  0  0  0  0  0
    7.4660    1.2180    2.2800 O   0  0  0  0  0  0  0  0  0  0  0  0
    5.6520    1.4420    0.8900 N   0  0  0  0  0  0  0  0  0  0  0  0
    6.1460    2.4510    0.0020 C   0  0  0  0  0  0  0  0  0  0  0  0
    7.2990    2.0820   -0.8350 C   0  0  2  0  0  0  0  0  0  0  0  0
    8.6360    2.1010   -0.2010 C   0  0  0  0  0  0  0  0  0  0  0  0
    7.3590    3.2060   -1.9290 C   0  0  0  0  0  0  0  0  0  0  0  0
    7.0480    0.9400   -1.6140 O   0  0  0  0  0  0  0  0  0  0  0  0
    1.8410   -1.4520    1.0210 C   0  0  0  0  0  0  0  0  0  0  0  0
    1.6310   -0.8140    2.3580 C   0  0  0  0  0  0  0  0  0  0  0  0
   -3.4490   -2.4760   -1.2710 C   0  0  0  0  0  0  0  0  0  0  0  0
   -4.5570   -3.1570   -1.6990 C   0  0  0  0  0  0  0  0  0  0  0  0
   -4.4000   -4.2600   -2.5290 O   0  0  0  0  0  0  0  0  0  0  0  0
   -5.8150   -2.7850   -1.3350 C   0  0  0  0  0  0  0  0  0  0  0  0
   -5.9710   -1.6730   -0.4990 C   0  0  0  0  0  0  0  0  0  0  0  0
   -7.3360   -1.3620   -0.1310 C   0  0  0  0  0  0  0  0  0  0  0  0
   -8.4340   -2.0730   -0.6870 N   0  0  0  0  0  0  0  0  0  0  0  0
   -7.5640   -0.4540    0.6900 O   0  0  0  0  0  0  0  0  0  0  0  0
   -4.1290    2.2140   -0.1550 C   0  0  1  0  0  0  0  0  0  0  0  0
   -3.1010    2.3860    0.9090 C   0  0  0  0  0  0  0  0  0  0  0  0
   -3.6240    1.6980   -1.3100 O   0  0  0  0  0  0  0  0  0  0  0  0
  1  2  1  0
  3  2  1  1
  3  4  1  0
  3 37  1  0
  4  5  1  0
  5  6  2  0
  5 33  1  0
  6  7  1  0
  6 29  1  0
  7  8  1  0
  8  9  1  0
  9 10  1  0
 10 11  1  0
 10 27  1  0
 11 12  1  0
 11 13  2  0
 13 14  1  0
 14 15  1  0
 14 27  2  0
 15 16  2  0
 15 17  1  0
 17 18  1  0
 18 19  1  0
 19 20  2  0
 19 21  1  0
 21 22  1  0
 22 23  1  0
 23 24  1  1
 23 25  1  0
 23 26  1  0
 27 28  1  0
 29 30  2  0
 30 31  1  0
 30 32  1  0
 32 33  2  0
 33 34  1  0
 34 35  1  0
 34 36  2  0
 37 38  1  1
 37 39  1  0
M  END
