
     RDKit          3D

 39 40  0  0  0  0  0  0  0  0999 V2000
   12.1150    0.0590   -0.5430 C   0  0  0  0  0  0  0  0  0  0  0  0
   11.2570    1.0190   -1.1280 O   0  0  0  0  0  0  0  0  0  0  0  0
    9.9190    1.0120   -0.8070 C   0  0  0  0  0  0  0  0  0  0  0  0
    9.1270    2.0040   -1.4290 C   0  0  0  0  0  0  0  0  0  0  0  0
    7.7920    2.0080   -1.1170 C   0  0  0  0  0  0  0  0  0  0  0  0
    7.1400    1.1860   -0.2930 C   0  0  0  0  0  0  0  0  0  0  0  0
    5.7030    1.2000    0.0120 C   0  0  0  0  0  0  0  0  0  0  0  0
    5.4410    1.6800    1.4190 C   0  0  0  0  0  0  0  0  0  0  0  0
    3.9830    1.7480    1.7750 C   0  0  0  0  0  0  0  0  0  0  0  0
    3.1540    2.5270    1.2100 O   0  0  0  0  0  0  0  0  0  0  0  0
    2.6230    2.8760    0.1090 C   0  0  0  0  0  0  0  0  0  0  0  0
    1.8570    1.8200   -0.6450 C   0  0  1  0  0  0  0  0  0  0  0  0
    2.6960    0.7790   -0.9680 O   0  0  0  0  0  0  0  0  0  0  0  0
    0.6870    1.2520    0.1330 C   0  0  0  0  0  0  0  0  0  0  0  0
    0.0570    0.2350   -0.7850 C   0  0  0  0  0  0  0  0  0  0  0  0
    0.6160   -0.1460   -1.8480 O   0  0  0  0  0  0  0  0  0  0  0  0
   -1.1740   -0.3350   -0.5080 O   0  0  0  0  0  0  0  0  0  0  0  0
   -1.7720   -1.2960   -1.3550 C   0  0  0  0  0  0  0  0  0  0  0  0
   -3.1030   -1.5970   -0.7190 C   0  0  0  0  0  0  0  0  0  0  0  0
   -3.2010   -2.4960    0.2460 C   0  0  0  0  0  0  0  0  0  0  0  0
   -4.4440   -2.7970    0.8460 C   0  0  0  0  0  0  0  0  0  0  0  0
   -4.5660   -3.7600    1.8650 N   0  0  0  0  0  0  0  0  0  0  0  0
   -5.5270   -2.0680    0.3330 C   0  0  0  0  0  0  0  0  0  0  0  0
   -6.8710   -2.4120    0.9170 C   0  0  0  0  0  0  0  0  0  0  0  0
   -5.4280   -1.1400   -0.6600 C   0  0  0  0  0  0  0  0  0  0  0  0
   -6.5970   -0.3940   -1.0900 C   0  0  0  0  0  0  0  0  0  0  0  0
   -6.6010    0.2080   -2.2180 O   0  0  0  0  0  0  0  0  0  0  0  0
   -7.7370   -0.2780   -0.3560 O   0  0  0  0  0  0  0  0  0  0  0  0
   -8.9210    0.4200   -0.7320 C   0  0  2  0  0  0  0  0  0  0  0  0
   -9.1860    1.5650    0.1240 C   0  0  0  0  0  0  0  0  0  0  0  0
   -9.3900    2.4800    0.7830 N   0  0  0  0  0  0  0  0  0  0  0  0
  -10.0020   -0.6430   -0.7110 C   0  0  0  0  0  0  0  0  0  0  0  0
  -10.0830   -1.1930    0.6720 C   0  0  0  0  0  0  0  0  0  0  0  0
  -10.4890   -2.4800    1.0090 N   0  0  0  0  0  0  0  0  0  0  0  0
   -9.7310   -0.3940    1.6010 O   0  0  0  0  0  0  0  0  0  0  0  0
   -4.1660   -0.8670   -1.2370 C   0  0  0  0  0  0  0  0  0  0  0  0
    7.9320    0.1800    0.3400 C   0  0  0  0  0  0  0  0  0  0  0  0
    7.3320   -0.6900    1.1940 O   0  0  0  0  0  0  0  0  0  0  0  0
    9.2760    0.1560    0.0430 C   0  0  0  0  0  0  0  0  0  0  0  0
  1  2  1  0
  2  3  1  0
  3  4  2  0
  3 39  1  0
  4  5  1  0
  5  6  2  0
  6  7  1  0
  6 37  1  0
  7  8  1  0
  8  9  1  0
  9 10  1  0
 10 11  1  0
 11 12  1  0
 12 13  1  1
 12 14  1  0
 14 15  1  0
 15 16  2  0
 15 17  1  0
 17 18  1  0
 18 19  1  0
 19 20  2  0
 19 36  1  0
 20 21  1  0
 21 22  1  0
 21 23  2  0
 23 24  1  0
 23 25  1  0
 25 26  1  0
 25 36  2  0
 26 27  2  0
 26 28  1  0
 28 29  1  0
 29 30  1  1
 29 32  1  0
 30 31  3  0
 32 33  1  0
 33 34  1  0
 33 35  2  0
 37 38  1  0
 37 39  2  0
M  END
