
     RDKit          3D

 39 40  0  0  0  0  0  0  0  0999 V2000
    6.8400   -2.7100   -3.1670 C   0  0  0  0  0  0  0  0  0  0  0  0
    5.8370   -2.7080   -2.1890 O   0  0  0  0  0  0  0  0  0  0  0  0
    6.2270   -1.7260   -1.2500 C   0  0  0  0  0  0  0  0  0  0  0  0
    5.2450   -1.6100   -0.1410 C   0  0  0  0  0  0  0  0  0  0  0  0
    4.1790   -2.4470   -0.2500 C   0  0  0  0  0  0  0  0  0  0  0  0
    3.1590   -2.4070    0.7930 C   0  0  2  0  0  0  0  0  0  0  0  0
    3.1880   -3.7430    1.5270 C   0  0  0  0  0  0  0  0  0  0  0  0
    2.1160   -3.6950    2.6200 C   0  0  0  0  0  0  0  0  0  0  0  0
    2.1090   -4.9010    3.3180 O   0  0  0  0  0  0  0  0  0  0  0  0
    1.8300   -2.2070    0.3140 N   0  0  0  0  0  0  0  0  0  0  0  0
    1.0070   -1.1280    0.7970 C   0  0  0  0  0  0  0  0  0  0  0  0
    1.5320   -0.3980    1.6480 O   0  0  0  0  0  0  0  0  0  0  0  0
   -0.3120   -0.9370    0.3150 N   0  0  0  0  0  0  0  0  0  0  0  0
   -1.1690    0.1000    0.7380 C   0  0  0  0  0  0  0  0  0  0  0  0
   -0.8540    1.1570    1.5320 C   0  0  0  0  0  0  0  0  0  0  0  0
   -1.7730    2.1370    1.9160 C   0  0  0  0  0  0  0  0  0  0  0  0
   -1.3870    3.1820    2.7230 O   0  0  0  0  0  0  0  0  0  0  0  0
   -3.0670    2.0150    1.4590 C   0  0  0  0  0  0  0  0  0  0  0  0
   -4.0360    2.9520    1.8000 O   0  0  0  0  0  0  0  0  0  0  0  0
   -4.2280    4.0850    0.9680 C   0  0  0  0  0  0  0  0  0  0  0  0
   -3.4500    0.9640    0.6490 C   0  0  0  0  0  0  0  0  0  0  0  0
   -4.7460    0.8540    0.1980 O   0  0  0  0  0  0  0  0  0  0  0  0
   -5.0980   -0.2340   -0.6280 C   0  0  0  0  0  0  0  0  0  0  0  0
   -6.5480   -0.0940   -0.9560 C   0  0  0  0  0  0  0  0  0  0  0  0
   -7.1210   -1.0640   -1.7710 C   0  0  0  0  0  0  0  0  0  0  0  0
   -8.4520   -0.9590   -2.0890 C   0  0  0  0  0  0  0  0  0  0  0  0
   -9.2150    0.0750   -1.6210 C   0  0  0  0  0  0  0  0  0  0  0  0
  -10.6590    0.1570   -1.9880 C   0  0  0  0  0  0  0  0  0  0  0  0
   -8.6370    1.0350   -0.8120 C   0  0  0  0  0  0  0  0  0  0  0  0
   -9.4630    2.0970   -0.3440 N   0  0  0  0  0  0  0  0  0  0  0  0
   -7.3080    0.9520   -0.4800 C   0  0  0  0  0  0  0  0  0  0  0  0
   -2.4990    0.0350    0.3080 C   0  0  0  0  0  0  0  0  0  0  0  0
    5.3760   -0.7850    0.8650 O   0  0  0  0  0  0  0  0  0  0  0  0
    5.6790    0.4570    1.2280 C   0  0  0  0  0  0  0  0  0  0  0  0
    7.0370    1.0270    0.9430 C   0  0  0  0  0  0  0  0  0  0  0  0
    7.4210    1.1280   -0.3530 O   0  0  0  0  0  0  0  0  0  0  0  0
    6.6110    1.9720   -1.1150 C   0  0  0  0  0  0  0  0  0  0  0  0
    6.5990    3.3910   -0.5760 C   0  0  0  0  0  0  0  0  0  0  0  0
    5.7590    4.1500   -1.4120 O   0  0  0  0  0  0  0  0  0  0  0  0
  1  2  1  0
  2  3  1  0
  3  4  1  0
  4  5  2  3
  4 33  1  0
  5  6  1  0
  6  7  1  6
  6 10  1  0
  7  8  1  0
  8  9  1  0
 10 11  1  0
 11 12  2  0
 11 13  1  0
 13 14  1  0
 14 15  2  0
 14 32  1  0
 15 16  1  0
 16 17  1  0
 16 18  2  0
 18 19  1  0
 18 21  1  0
 19 20  1  0
 21 22  1  0
 21 32  2  0
 22 23  1  0
 23 24  1  0
 24 25  2  0
 24 31  1  0
 25 26  1  0
 26 27  2  0
 27 28  1  0
 27 29  1  0
 29 30  1  0
 29 31  2  0
 33 34  1  0
 34 35  1  0
 35 36  1  0
 36 37  1  0
 37 38  1  0
 38 39  1  0
M  END
