
     RDKit          3D

 45 49  0  0  0  0  0  0  0  0999 V2000
   -5.9080   -2.8670    0.1870 C   0  0  0  0  0  0  0  0  0  0  0  0
   -4.7520   -3.5180    0.9650 C   0  0  2  0  0  0  0  0  0  0  0  0
   -4.5100   -4.8440    0.2360 C   0  0  0  0  0  0  0  0  0  0  0  0
   -5.0150   -3.6740    2.4050 C   0  0  0  0  0  0  0  0  0  0  0  0
   -3.5230   -2.7480    0.7620 N   0  0  0  0  0  0  0  0  0  0  0  0
   -3.6970   -1.3200    0.8530 C   0  0  0  0  0  0  0  0  0  0  0  0
   -4.8630   -0.9140    1.0810 O   0  0  0  0  0  0  0  0  0  0  0  0
   -2.5530   -0.4110    0.6560 C   0  0  2  0  0  0  0  0  0  0  0  0
   -3.0020    0.9210    1.3820 C   0  0  0  0  0  0  0  0  0  0  0  0
   -3.8040    1.8130    0.6460 N   0  0  2  0  0  0  0  0  0  0  0  0
   -5.2230    1.7130    0.7160 C   0  0  0  0  0  0  0  0  0  0  0  0
   -5.9710    2.9200    0.3230 C   0  0  0  0  0  0  0  0  0  0  0  0
   -7.0180    2.8130   -0.6110 C   0  0  0  0  0  0  0  0  0  0  0  0
   -7.7640    3.8820   -0.9830 C   0  0  0  0  0  0  0  0  0  0  0  0
   -7.4950    5.0980   -0.4410 C   0  0  0  0  0  0  0  0  0  0  0  0
   -6.5070    5.2200    0.4400 N   0  0  0  0  0  0  0  0  0  0  0  0
   -5.7450    4.1520    0.8260 C   0  0  0  0  0  0  0  0  0  0  0  0
   -3.4470    2.0470   -0.7420 C   0  0  0  0  0  0  0  0  0  0  0  0
   -2.0600    1.3800   -0.8640 C   0  0  0  0  0  0  0  0  0  0  0  0
   -2.3670   -0.0070   -0.7060 N   0  0  1  0  0  0  0  0  0  0  0  0
   -1.4470   -0.8520   -1.4250 C   0  0  0  0  0  0  0  0  0  0  0  0
   -0.1160   -1.1240   -0.8650 C   0  0  1  0  0  0  0  0  0  0  0  0
    0.4650   -2.0350   -1.8630 O   0  0  0  0  0  0  0  0  0  0  0  0
    0.9190   -0.0140   -0.8600 C   0  0  0  0  0  0  0  0  0  0  0  0
    2.1730   -0.5090   -0.1710 C   0  0  1  0  0  0  0  0  0  0  0  0
    2.8240   -1.6830   -0.8340 C   0  0  0  0  0  0  0  0  0  0  0  0
    4.1000   -2.0470   -0.1110 C   0  0  0  0  0  0  0  0  0  0  0  0
    3.9620   -2.6460    1.1180 C   0  0  0  0  0  0  0  0  0  0  0  0
    5.0880   -3.0550    1.7850 C   0  0  0  0  0  0  0  0  0  0  0  0
    6.3670   -2.8710    1.2340 C   0  0  0  0  0  0  0  0  0  0  0  0
    6.4750   -2.2730    0.0070 C   0  0  0  0  0  0  0  0  0  0  0  0
    5.3350   -1.8520   -0.6820 C   0  0  0  0  0  0  0  0  0  0  0  0
    3.0500    0.4950    0.3910 C   0  0  0  0  0  0  0  0  0  0  0  0
    2.8090    0.9160    1.5940 O   0  0  0  0  0  0  0  0  0  0  0  0
    4.1580    1.0830   -0.2190 N   0  0  0  0  0  0  0  0  0  0  0  0
    5.0120    2.0870    0.4590 C   0  0  1  0  0  0  0  0  0  0  0  0
    6.3950    1.5300    0.4030 C   0  0  0  0  0  0  0  0  0  0  0  0
    7.1920    0.7220    1.1890 C   0  0  0  0  0  0  0  0  0  0  0  0
    8.4670    0.3570    0.8310 C   0  0  0  0  0  0  0  0  0  0  0  0
    9.0430    0.7860   -0.3580 C   0  0  0  0  0  0  0  0  0  0  0  0
    8.2350    1.5960   -1.1370 C   0  0  0  0  0  0  0  0  0  0  0  0
    6.9650    1.9580   -0.7760 C   0  0  0  0  0  0  0  0  0  0  0  0
    5.9890    2.8430   -1.5120 C   0  0  0  0  0  0  0  0  0  0  0  0
    5.0560    3.3080   -0.4190 C   0  0  1  0  0  0  0  0  0  0  0  0
    3.8020    3.5090   -0.9460 O   0  0  0  0  0  0  0  0  0  0  0  0
  2  1  1  6
  2  3  1  0
  2  4  1  0
  2  5  1  0
  5  6  1  0
  6  7  2  0
  8  6  1  6
  8  9  1  0
  8 20  1  0
  9 10  1  0
 10 11  1  6
 10 18  1  0
 11 12  1  0
 12 13  2  0
 12 17  1  0
 13 14  1  0
 14 15  2  0
 15 16  1  0
 16 17  2  0
 18 19  1  0
 19 20  1  0
 20 21  1  1
 21 22  1  0
 22 23  1  6
 22 24  1  0
 25 24  1  6
 25 26  1  0
 25 33  1  0
 26 27  1  0
 27 28  2  0
 27 32  1  0
 28 29  1  0
 29 30  2  0
 30 31  1  0
 31 32  2  0
 33 34  2  0
 33 35  1  0
 36 35  1  6
 36 37  1  0
 36 44  1  0
 37 38  2  0
 37 42  1  0
 38 39  1  0
 39 40  2  0
 40 41  1  0
 41 42  2  0
 42 43  1  0
 43 44  1  0
 44 45  1  6
M  CHG  2  10   1  20   1
M  END
