
     RDKit          3D

 39 40  0  0  0  0  0  0  0  0999 V2000
   -2.4920    3.3780   -1.9040 C   0  0  0  0  0  0  0  0  0  0  0  0
   -3.9040    2.9240   -2.1180 C   0  0  0  0  0  0  0  0  0  0  0  0
   -4.3960    2.1450   -1.0460 O   0  0  0  0  0  0  0  0  0  0  0  0
   -3.8040    0.9460   -0.6630 C   0  0  0  0  0  0  0  0  0  0  0  0
   -2.8170    0.5450   -1.2780 O   0  0  0  0  0  0  0  0  0  0  0  0
   -4.3220    0.1590    0.4520 C   0  0  0  0  0  0  0  0  0  0  0  0
   -3.7450   -0.9980    0.8800 C   0  0  0  0  0  0  0  0  0  0  0  0
   -4.2360   -1.7070    1.9580 C   0  0  0  0  0  0  0  0  0  0  0  0
   -3.5620   -2.9670    2.3890 C   0  0  2  0  0  0  0  0  0  0  0  0
   -4.5280   -3.9250    2.7220 O   0  0  0  0  0  0  0  0  0  0  0  0
   -2.6560   -2.6310    3.5400 C   0  0  0  0  0  0  0  0  0  0  0  0
   -1.6900   -1.6470    3.1280 N   0  0  0  0  0  0  0  0  0  0  0  0
   -0.7610   -1.9710    2.0750 C   0  0  0  0  0  0  0  0  0  0  0  0
   -0.7770   -3.1000    1.5440 O   0  0  0  0  0  0  0  0  0  0  0  0
    0.1920   -1.0250    1.6120 N   0  0  0  0  0  0  0  0  0  0  0  0
    1.1910   -1.1640    0.6240 C   0  0  0  0  0  0  0  0  0  0  0  0
    2.3160   -2.0630    0.9250 C   0  0  2  0  0  0  0  0  0  0  0  0
    1.9480   -3.4740    1.2920 C   0  0  0  0  0  0  0  0  0  0  0  0
    3.0360   -1.5760    2.0590 O   0  0  0  0  0  0  0  0  0  0  0  0
    3.2680   -2.2160   -0.2680 C   0  0  0  0  0  0  0  0  0  0  0  0
    3.9190   -1.2170   -0.7660 O   0  0  0  0  0  0  0  0  0  0  0  0
    4.1330   -0.0680   -1.3450 C   0  0  0  0  0  0  0  0  0  0  0  0
    3.1660    0.7680   -1.8110 C   0  0  0  0  0  0  0  0  0  0  0  0
    3.4080    1.9840   -2.4270 C   0  0  0  0  0  0  0  0  0  0  0  0
    4.7190    2.4030   -2.5960 C   0  0  0  0  0  0  0  0  0  0  0  0
    4.9900    3.6810   -3.2390 C   0  0  0  0  0  0  0  0  0  0  0  0
    6.3220    4.0880   -3.4070 N   0  0  0  0  0  0  0  0  0  0  0  0
    4.0500    4.4060   -3.6330 O   0  0  0  0  0  0  0  0  0  0  0  0
    5.7110    1.5740   -2.1320 C   0  0  0  0  0  0  0  0  0  0  0  0
    5.4910    0.3660   -1.5180 C   0  0  0  0  0  0  0  0  0  0  0  0
    6.4710   -0.4120   -1.0800 O   0  0  0  0  0  0  0  0  0  0  0  0
    7.7890   -0.5770   -0.9740 C   0  0  0  0  0  0  0  0  0  0  0  0
    8.5630   -0.6690   -2.2820 C   0  0  0  0  0  0  0  0  0  0  0  0
   -5.3370   -1.2470    2.6330 C   0  0  0  0  0  0  0  0  0  0  0  0
   -5.9350   -0.0620    2.2010 C   0  0  0  0  0  0  0  0  0  0  0  0
   -5.4370    0.6410    1.1170 C   0  0  0  0  0  0  0  0  0  0  0  0
   -6.0310    1.7960    0.7030 O   0  0  0  0  0  0  0  0  0  0  0  0
   -7.1740    2.3970    1.2720 C   0  0  0  0  0  0  0  0  0  0  0  0
   -8.3460    1.4310    1.1650 C   0  0  0  0  0  0  0  0  0  0  0  0
  1  2  1  0
  2  3  1  0
  3  4  1  0
  4  5  2  0
  4  6  1  0
  6  7  2  0
  6 36  1  0
  7  8  1  0
  8  9  1  0
  8 34  2  0
  9 10  1  1
  9 11  1  0
 11 12  1  0
 12 13  1  0
 13 14  2  0
 13 15  1  0
 15 16  1  0
 16 17  1  0
 17 18  1  1
 17 19  1  0
 17 20  1  0
 20 21  1  0
 21 22  1  0
 22 23  2  0
 22 30  1  0
 23 24  1  0
 24 25  2  0
 25 26  1  0
 25 29  1  0
 26 27  1  0
 26 28  2  0
 29 30  2  0
 30 31  1  0
 31 32  1  0
 32 33  1  0
 34 35  1  0
 35 36  2  0
 36 37  1  0
 37 38  1  0
 38 39  1  0
M  END
