
     RDKit          3D

 39 40  0  0  0  0  0  0  0  0999 V2000
    7.3400   -0.5230   -2.6900 C   0  0  0  0  0  0  0  0  0  0  0  0
    6.2190    0.0860   -3.1840 O   0  0  0  0  0  0  0  0  0  0  0  0
    5.0160   -0.3240   -2.6620 C   0  0  0  0  0  0  0  0  0  0  0  0
    4.8590   -0.1080   -1.1950 C   0  0  0  0  0  0  0  0  0  0  0  0
    3.9120    0.6460   -0.6880 C   0  0  0  0  0  0  0  0  0  0  0  0
    2.8740    1.3880   -1.4090 C   0  0  2  0  0  0  0  0  0  0  0  0
    3.1470    2.8970   -1.3250 C   0  0  0  0  0  0  0  0  0  0  0  0
    4.4640    3.2840   -1.9170 C   0  0  0  0  0  0  0  0  0  0  0  0
    4.4910    2.9280   -3.2620 O   0  0  0  0  0  0  0  0  0  0  0  0
    1.5820    1.2000   -0.7240 N   0  0  0  0  0  0  0  0  0  0  0  0
    0.4590    0.6170   -1.4260 C   0  0  0  0  0  0  0  0  0  0  0  0
    0.5950    0.2750   -2.6070 O   0  0  0  0  0  0  0  0  0  0  0  0
   -0.7830    0.4360   -0.7790 N   0  0  0  0  0  0  0  0  0  0  0  0
   -1.9490   -0.1350   -1.3530 C   0  0  0  0  0  0  0  0  0  0  0  0
   -2.0180   -0.8050   -2.5290 C   0  0  0  0  0  0  0  0  0  0  0  0
   -3.2350   -1.3150   -3.0030 C   0  0  0  0  0  0  0  0  0  0  0  0
   -3.2590   -1.9940   -4.2100 O   0  0  0  0  0  0  0  0  0  0  0  0
   -4.4160   -1.1700   -2.3160 C   0  0  0  0  0  0  0  0  0  0  0  0
   -5.6230   -1.6700   -2.7750 O   0  0  0  0  0  0  0  0  0  0  0  0
   -5.9280   -3.0100   -2.3580 C   0  0  0  0  0  0  0  0  0  0  0  0
   -4.3390   -0.4870   -1.1210 C   0  0  0  0  0  0  0  0  0  0  0  0
   -5.4900   -0.2960   -0.3660 O   0  0  0  0  0  0  0  0  0  0  0  0
   -5.4410    0.4020    0.8630 C   0  0  0  0  0  0  0  0  0  0  0  0
   -6.8320    0.4330    1.4100 C   0  0  0  0  0  0  0  0  0  0  0  0
   -7.6800    1.4930    1.0870 C   0  0  0  0  0  0  0  0  0  0  0  0
   -8.9660    1.5670    1.5630 C   0  0  0  0  0  0  0  0  0  0  0  0
   -9.4070    0.5540    2.3800 C   0  0  0  0  0  0  0  0  0  0  0  0
  -10.7910    0.6190    2.9020 C   0  0  0  0  0  0  0  0  0  0  0  0
   -8.6040   -0.5080    2.7220 C   0  0  0  0  0  0  0  0  0  0  0  0
   -9.0770   -1.5340    3.5590 N   0  0  0  0  0  0  0  0  0  0  0  0
   -7.3060   -0.5670    2.2320 C   0  0  0  0  0  0  0  0  0  0  0  0
   -3.1540    0.0170   -0.6440 C   0  0  0  0  0  0  0  0  0  0  0  0
    5.7560   -0.7360   -0.3080 O   0  0  0  0  0  0  0  0  0  0  0  0
    5.8080   -0.3310    1.0140 C   0  0  0  0  0  0  0  0  0  0  0  0
    6.8760   -1.1520    1.7920 C   0  0  0  0  0  0  0  0  0  0  0  0
    6.8390   -0.6700    3.0680 O   0  0  0  0  0  0  0  0  0  0  0  0
    7.6300   -1.2770    3.9780 C   0  0  0  0  0  0  0  0  0  0  0  0
    9.0850   -1.2170    3.6570 C   0  0  0  0  0  0  0  0  0  0  0  0
    9.4710   -1.8170    2.4750 O   0  0  0  0  0  0  0  0  0  0  0  0
  1  2  1  0
  2  3  1  0
  3  4  1  0
  4  5  2  3
  4 33  1  0
  5  6  1  0
  6  7  1  1
  6 10  1  0
  7  8  1  0
  8  9  1  0
 10 11  1  0
 11 12  2  0
 11 13  1  0
 13 14  1  0
 14 15  2  0
 14 32  1  0
 15 16  1  0
 16 17  1  0
 16 18  2  0
 18 19  1  0
 18 21  1  0
 19 20  1  0
 21 22  1  0
 21 32  2  0
 22 23  1  0
 23 24  1  0
 24 25  2  0
 24 31  1  0
 25 26  1  0
 26 27  2  0
 27 28  1  0
 27 29  1  0
 29 30  1  0
 29 31  2  0
 33 34  1  0
 34 35  1  0
 35 36  1  0
 36 37  1  0
 37 38  1  0
 38 39  1  0
M  END
