
     RDKit          3D

 39 39  0  0  0  0  0  0  0  0999 V2000
    7.8820    5.8710   -0.7420 C   0  0  0  0  0  0  0  0  0  0  0  0
    6.5920    5.4960   -1.2070 O   0  0  0  0  0  0  0  0  0  0  0  0
    6.2960    4.2290   -1.5860 C   0  0  0  0  0  0  0  0  0  0  0  0
    7.0320    3.2850   -1.6070 O   0  0  0  0  0  0  0  0  0  0  0  0
    4.8340    3.9950   -2.0200 N   0  0  0  0  0  0  0  0  0  0  0  0
    4.5320    2.7430   -2.2140 C   0  0  0  0  0  0  0  0  0  0  0  0
    5.3000    1.8110   -2.2850 O   0  0  0  0  0  0  0  0  0  0  0  0
    2.8600    2.1450   -2.4030 C   0  0  0  0  0  0  0  0  0  0  0  0
    2.4570    3.2940   -2.4120 C   0  0  0  0  0  0  0  0  0  0  0  0
    2.6910    4.5840   -2.3370 O   0  0  0  0  0  0  0  0  0  0  0  0
    3.3600    0.9070   -2.4270 C   0  0  0  0  0  0  0  0  0  0  0  0
    2.3150    0.4610   -1.3090 C   0  0  0  0  0  0  0  0  0  0  0  0
    1.3500    1.0070   -0.5840 C   0  0  0  0  0  0  0  0  0  0  0  0
    0.9370    2.3850   -0.1720 C   0  0  0  0  0  0  0  0  0  0  0  0
    0.6530    0.0500    0.1710 C   0  0  0  0  0  0  0  0  0  0  0  0
   -0.4380    0.3400    1.0290 C   0  0  0  0  0  0  0  0  0  0  0  0
   -0.8910    1.5070    1.1320 O   0  0  0  0  0  0  0  0  0  0  0  0
   -1.0310   -0.6950    1.7840 N   0  0  0  0  0  0  0  0  0  0  0  0
   -2.0950   -0.7530    2.6330 C   0  0  0  0  0  0  0  0  0  0  0  0
   -3.5570   -0.6890    2.0940 C   0  0  2  0  0  0  0  0  0  0  0  0
   -3.6630    0.5770    1.4060 C   0  0  0  0  0  0  0  0  0  0  0  0
   -4.8050    1.1660    0.7150 C   0  0  1  0  0  0  0  0  0  0  0  0
   -5.4130    0.5250   -0.4620 C   0  0  0  0  0  0  0  0  0  0  0  0
   -5.8820    1.7640    1.6510 C   0  0  0  0  0  0  0  0  0  0  0  0
   -4.3250   -0.7950    3.3990 C   0  0  0  0  0  0  0  0  0  0  0  0
   -5.5540   -1.5950    3.3510 C   0  0  0  0  0  0  0  0  0  0  0  0
   -6.0100   -2.0090    1.9940 C   0  0  2  0  0  0  0  0  0  0  0  0
   -7.2350   -2.9490    2.1330 C   0  0  0  0  0  0  0  0  0  0  0  0
   -7.6200   -3.2930    0.8360 O   0  0  0  0  0  0  0  0  0  0  0  0
   -4.9290   -2.6930    1.2640 C   0  0  0  0  0  0  0  0  0  0  0  0
   -3.6470   -1.9540    1.2850 C   0  0  0  0  0  0  0  0  0  0  0  0
    3.7840   -0.3830   -2.3320 O   0  0  0  0  0  0  0  0  0  0  0  0
    4.6210   -0.9040   -1.3530 C   0  0  0  0  0  0  0  0  0  0  0  0
    4.9660   -2.3170   -1.4760 C   0  0  0  0  0  0  0  0  0  0  0  0
    5.8730   -2.7090   -0.6180 O   0  0  0  0  0  0  0  0  0  0  0  0
    4.4600   -3.2750   -2.3690 N   0  0  0  0  0  0  0  0  0  0  0  0
    4.8670   -4.6570   -2.4790 C   0  0  0  0  0  0  0  0  0  0  0  0
    6.3160   -4.7820   -2.8930 C   0  0  0  0  0  0  0  0  0  0  0  0
    7.1470   -4.1750   -1.9830 O   0  0  0  0  0  0  0  0  0  0  0  0
  1  2  1  0
  2  3  1  0
  3  4  2  0
  3  5  1  0
  5  6  1  0
  6  7  2  0
  6  8  1  0
  8  9  2  3
  8 11  1  0
  9 10  1  0
 11 12  2  3
 11 32  1  0
 12 13  1  0
 13 14  1  0
 13 15  2  3
 15 16  1  0
 16 17  2  0
 16 18  1  0
 18 19  1  0
 20 19  1  1
 20 21  1  0
 20 25  1  0
 20 31  1  0
 21 22  1  0
 22 23  1  1
 22 24  1  0
 25 26  1  0
 26 27  1  0
 27 28  1  1
 27 30  1  0
 28 29  1  0
 30 31  1  0
 32 33  1  0
 33 34  1  0
 34 35  2  0
 34 36  1  0
 36 37  1  0
 37 38  1  0
 38 39  1  0
M  END
