
     RDKit          3D

 39 40  0  0  0  0  0  0  0  0999 V2000
    6.9350   -2.8080    1.3400 C   0  0  0  0  0  0  0  0  0  0  0  0
    6.9800   -1.6530    0.5530 O   0  0  0  0  0  0  0  0  0  0  0  0
    5.9510   -0.7230    0.4910 C   0  0  0  0  0  0  0  0  0  0  0  0
    4.7780   -0.8970    1.2330 C   0  0  0  0  0  0  0  0  0  0  0  0
    3.7600    0.0130    1.1770 C   0  0  0  0  0  0  0  0  0  0  0  0
    2.6140   -0.0970    1.8540 O   0  0  0  0  0  0  0  0  0  0  0  0
    2.1960   -1.1330    2.6730 C   0  0  0  0  0  0  0  0  0  0  0  0
    1.9480   -2.4270    1.9210 C   0  0  0  0  0  0  0  0  0  0  0  0
    0.9730   -2.2660    0.9720 O   0  0  0  0  0  0  0  0  0  0  0  0
   -0.3400   -1.9790    0.9530 C   0  0  0  0  0  0  0  0  0  0  0  0
   -1.1440   -1.7790    2.0530 C   0  0  0  0  0  0  0  0  0  0  0  0
   -2.4880   -1.4820    1.9930 C   0  0  0  0  0  0  0  0  0  0  0  0
   -3.2670   -1.2830    3.2490 C   0  0  0  0  0  0  0  0  0  0  0  0
   -3.0940   -1.3730    0.7330 C   0  0  0  0  0  0  0  0  0  0  0  0
   -4.4710   -1.0730    0.6840 N   0  0  0  0  0  0  0  0  0  0  0  0
   -5.2840   -0.8970   -0.4440 C   0  0  0  0  0  0  0  0  0  0  0  0
   -4.8180   -0.9970   -1.5700 O   0  0  0  0  0  0  0  0  0  0  0  0
   -6.6910   -0.5920   -0.3230 N   0  0  0  0  0  0  0  0  0  0  0  0
   -7.5130   -0.4070   -1.4970 C   0  0  0  0  0  0  0  0  0  0  0  0
   -7.0320    0.7420   -2.3260 C   0  0  1  0  0  0  0  0  0  0  0  0
   -7.8500    0.8620   -3.4890 O   0  0  0  0  0  0  0  0  0  0  0  0
   -6.9390    2.0660   -1.6680 C   0  0  0  0  0  0  0  0  0  0  0  0
   -8.1540    2.7120   -1.1480 C   0  0  1  0  0  0  0  0  0  0  0  0
   -8.9550    2.0450   -0.0990 C   0  0  0  0  0  0  0  0  0  0  0  0
   -7.7270    3.9560   -0.5870 O   0  0  0  0  0  0  0  0  0  0  0  0
   -2.2960   -1.5720   -0.3560 C   0  0  0  0  0  0  0  0  0  0  0  0
   -0.9400   -1.8710   -0.3070 C   0  0  0  0  0  0  0  0  0  0  0  0
   -0.2380   -2.0510   -1.4680 O   0  0  0  0  0  0  0  0  0  0  0  0
   -0.7660   -1.9620   -2.7560 C   0  0  0  0  0  0  0  0  0  0  0  0
    3.8980    1.1490    0.3550 C   0  0  0  0  0  0  0  0  0  0  0  0
    2.8560    2.0790    0.2990 O   0  0  0  0  0  0  0  0  0  0  0  0
    3.0110    3.1970   -0.5230 C   0  0  0  0  0  0  0  0  0  0  0  0
    5.0350    1.3150   -0.3630 C   0  0  0  0  0  0  0  0  0  0  0  0
    6.0530    0.3920   -0.3000 C   0  0  0  0  0  0  0  0  0  0  0  0
    7.2720    0.6300   -1.1050 C   0  0  0  0  0  0  0  0  0  0  0  0
    8.3400    1.1330   -0.1250 C   0  0  0  0  0  0  0  0  0  0  0  0
    9.6060    1.4000   -0.8470 C   0  0  0  0  0  0  0  0  0  0  0  0
   10.6880    1.9130   -0.0840 N   0  0  0  0  0  0  0  0  0  0  0  0
    9.6680    1.1680   -2.0670 O   0  0  0  0  0  0  0  0  0  0  0  0
  1  2  1  0
  2  3  1  0
  3  4  2  0
  3 34  1  0
  4  5  1  0
  5  6  1  0
  5 30  2  0
  6  7  1  0
  7  8  1  0
  8  9  1  0
  9 10  1  0
 10 11  2  0
 10 27  1  0
 11 12  1  0
 12 13  1  0
 12 14  2  0
 14 15  1  0
 14 26  1  0
 15 16  1  0
 16 17  2  0
 16 18  1  0
 18 19  1  0
 19 20  1  0
 20 21  1  6
 20 22  1  0
 22 23  1  0
 23 24  1  1
 23 25  1  0
 26 27  2  0
 27 28  1  0
 28 29  1  0
 30 31  1  0
 30 33  1  0
 31 32  1  0
 33 34  2  0
 34 35  1  0
 35 36  1  0
 36 37  1  0
 37 38  1  0
 37 39  2  0
M  END
