
     RDKit          3D

 39 40  0  0  0  0  0  0  0  0999 V2000
    9.9750    3.4670    0.0860 C   0  0  0  0  0  0  0  0  0  0  0  0
    9.3610    2.6590   -0.8600 O   0  0  0  0  0  0  0  0  0  0  0  0
    8.4140    1.7220   -0.6050 C   0  0  0  0  0  0  0  0  0  0  0  0
    7.8940    0.9730   -1.6660 C   0  0  0  0  0  0  0  0  0  0  0  0
    6.9560    0.0320   -1.4610 C   0  0  0  0  0  0  0  0  0  0  0  0
    6.4340   -0.2640   -0.1970 C   0  0  0  0  0  0  0  0  0  0  0  0
    5.3060   -1.2070   -0.1120 C   0  0  0  0  0  0  0  0  0  0  0  0
    5.5080   -2.3850    0.7810 C   0  0  0  0  0  0  0  0  0  0  0  0
    4.4140   -3.3750    0.7590 C   0  0  0  0  0  0  0  0  0  0  0  0
    3.1720   -3.1200    1.1410 O   0  0  0  0  0  0  0  0  0  0  0  0
    2.3570   -2.1990    0.6050 C   0  0  0  0  0  0  0  0  0  0  0  0
    2.1380   -2.3620   -0.9040 C   0  0  1  0  0  0  0  0  0  0  0  0
    1.5880   -3.6220   -1.1560 O   0  0  0  0  0  0  0  0  0  0  0  0
    1.1280   -1.2770   -1.2940 C   0  0  0  0  0  0  0  0  0  0  0  0
   -0.1250   -1.5750   -0.5210 C   0  0  0  0  0  0  0  0  0  0  0  0
   -0.8350   -2.5210   -0.9730 O   0  0  0  0  0  0  0  0  0  0  0  0
   -0.5120   -0.9090    0.5980 O   0  0  0  0  0  0  0  0  0  0  0  0
   -1.5950   -1.1050    1.4220 C   0  0  0  0  0  0  0  0  0  0  0  0
   -2.8860   -1.0250    0.7240 C   0  0  0  0  0  0  0  0  0  0  0  0
   -3.4910   -2.0910    0.1470 C   0  0  0  0  0  0  0  0  0  0  0  0
   -4.7270   -1.9820   -0.4620 C   0  0  0  0  0  0  0  0  0  0  0  0
   -5.2870   -3.1280   -1.0570 N   0  0  0  0  0  0  0  0  0  0  0  0
   -5.3290   -0.7160   -0.4530 C   0  0  0  0  0  0  0  0  0  0  0  0
   -6.6330   -0.5880   -1.1460 C   0  0  0  0  0  0  0  0  0  0  0  0
   -4.7640    0.3820    0.1150 C   0  0  0  0  0  0  0  0  0  0  0  0
   -5.4640    1.6730    0.2690 C   0  0  0  0  0  0  0  0  0  0  0  0
   -5.0390    2.7680   -0.1290 O   0  0  0  0  0  0  0  0  0  0  0  0
   -6.6750    1.6000    0.9310 O   0  0  0  0  0  0  0  0  0  0  0  0
   -7.4870    2.7490    1.2120 C   0  0  2  0  0  0  0  0  0  0  0  0
   -7.3990    2.9700    2.5870 C   0  0  0  0  0  0  0  0  0  0  0  0
   -7.3280    3.2000    3.8920 N   0  0  0  0  0  0  0  0  0  0  0  0
   -8.8870    2.4820    0.7310 C   0  0  0  0  0  0  0  0  0  0  0  0
   -8.9930    2.2180   -0.6860 C   0  0  0  0  0  0  0  0  0  0  0  0
   -8.6540    3.2180   -1.6810 N   0  0  0  0  0  0  0  0  0  0  0  0
   -9.3670    1.1260   -1.1640 O   0  0  0  0  0  0  0  0  0  0  0  0
   -3.5050    0.2370    0.7190 C   0  0  0  0  0  0  0  0  0  0  0  0
    6.9310    0.4560    0.8550 C   0  0  0  0  0  0  0  0  0  0  0  0
    6.4390    0.1910    2.1690 O   0  0  0  0  0  0  0  0  0  0  0  0
    7.8840    1.4080    0.6590 C   0  0  0  0  0  0  0  0  0  0  0  0
  1  2  1  0
  2  3  1  0
  3  4  2  0
  3 39  1  0
  4  5  1  0
  5  6  2  0
  6  7  1  0
  6 37  1  0
  7  8  1  0
  8  9  1  0
  9 10  1  0
 10 11  1  0
 11 12  1  0
 12 13  1  1
 12 14  1  0
 14 15  1  0
 15 16  2  0
 15 17  1  0
 17 18  1  0
 18 19  1  0
 19 20  2  0
 19 36  1  0
 20 21  1  0
 21 22  1  0
 21 23  2  0
 23 24  1  0
 23 25  1  0
 25 26  1  0
 25 36  2  0
 26 27  2  0
 26 28  1  0
 28 29  1  0
 29 30  1  1
 29 32  1  0
 30 31  3  0
 32 33  1  0
 33 34  1  0
 33 35  2  0
 37 38  1  0
 37 39  2  0
M  END
