
     RDKit          3D

 39 40  0  0  0  0  0  0  0  0999 V2000
   -4.2610    1.7570    2.4620 C   0  0  0  0  0  0  0  0  0  0  0  0
   -4.0190    1.9300    0.9690 C   0  0  0  0  0  0  0  0  0  0  0  0
   -4.8700    0.8880    0.2460 C   0  0  2  0  0  0  0  0  0  0  0  0
   -4.7350    0.9450   -1.1400 O   0  0  0  0  0  0  0  0  0  0  0  0
   -4.5090   -0.1750   -1.8930 C   0  0  0  0  0  0  0  0  0  0  0  0
   -3.1640   -0.6430   -1.8500 C   0  0  0  0  0  0  0  0  0  0  0  0
   -2.2430    0.0280   -1.0970 O   0  0  0  0  0  0  0  0  0  0  0  0
   -0.9290   -0.3630   -0.9300 C   0  0  0  0  0  0  0  0  0  0  0  0
   -0.6920   -1.6430   -0.1960 C   0  0  0  0  0  0  0  0  0  0  0  0
    0.7370   -1.9520   -0.1180 N   0  0  0  0  0  0  0  0  0  0  0  0
    1.4050   -2.6680   -1.0320 C   0  0  0  0  0  0  0  0  0  0  0  0
    0.8740   -3.2750   -2.2610 C   0  0  0  0  0  0  0  0  0  0  0  0
    2.7260   -2.7600   -0.6380 C   0  0  0  0  0  0  0  0  0  0  0  0
    2.8270   -2.0790    0.5360 C   0  0  0  0  0  0  0  0  0  0  0  0
    4.0620   -1.9190    1.3160 C   0  0  0  0  0  0  0  0  0  0  0  0
    5.1450   -2.4190    0.8980 O   0  0  0  0  0  0  0  0  0  0  0  0
    4.0840   -1.2290    2.5140 O   0  0  0  0  0  0  0  0  0  0  0  0
    5.2500   -1.0600    3.2690 C   0  0  0  0  0  0  0  0  0  0  0  0
    6.2880   -0.2370    2.5400 C   0  0  0  0  0  0  0  0  0  0  0  0
    7.4340   -0.1300    3.0340 O   0  0  0  0  0  0  0  0  0  0  0  0
    6.0130    0.4160    1.3270 N   0  0  0  0  0  0  0  0  0  0  0  0
    6.8460    1.2340    0.5150 C   0  0  0  0  0  0  0  0  0  0  0  0
    7.2810    2.5220    1.1000 C   0  0  1  0  0  0  0  0  0  0  0  0
    8.2540    2.4660    2.2120 C   0  0  0  0  0  0  0  0  0  0  0  0
    7.8870    3.4060   -0.0500 C   0  0  0  0  0  0  0  0  0  0  0  0
    6.1690    3.3030    1.4960 O   0  0  0  0  0  0  0  0  0  0  0  0
    1.5830   -1.5800    0.8520 C   0  0  0  0  0  0  0  0  0  0  0  0
    1.2620   -0.7800    2.0490 C   0  0  0  0  0  0  0  0  0  0  0  0
   -2.8490   -1.7660   -2.5750 C   0  0  0  0  0  0  0  0  0  0  0  0
   -3.8250   -2.4280   -3.3300 C   0  0  0  0  0  0  0  0  0  0  0  0
   -3.4820   -3.5530   -4.0440 O   0  0  0  0  0  0  0  0  0  0  0  0
   -5.1090   -1.9430   -3.3470 C   0  0  0  0  0  0  0  0  0  0  0  0
   -5.4610   -0.7900   -2.6160 C   0  0  0  0  0  0  0  0  0  0  0  0
   -6.8000   -0.2510   -2.8050 C   0  0  0  0  0  0  0  0  0  0  0  0
   -7.2230    1.0490   -2.5270 N   0  0  0  0  0  0  0  0  0  0  0  0
   -7.6770   -1.0600   -3.2830 O   0  0  0  0  0  0  0  0  0  0  0  0
   -6.2850    0.9600    0.7130 C   0  0  1  0  0  0  0  0  0  0  0  0
   -6.8510    2.3150    0.3880 C   0  0  0  0  0  0  0  0  0  0  0  0
   -7.0340   -0.1050    0.2830 O   0  0  0  0  0  0  0  0  0  0  0  0
  1  2  1  0
  3  2  1  1
  3  4  1  0
  3 37  1  0
  4  5  1  0
  5  6  2  0
  5 33  1  0
  6  7  1  0
  6 29  1  0
  7  8  1  0
  8  9  1  0
  9 10  1  0
 10 11  1  0
 10 27  1  0
 11 12  1  0
 11 13  2  0
 13 14  1  0
 14 15  1  0
 14 27  2  0
 15 16  2  0
 15 17  1  0
 17 18  1  0
 18 19  1  0
 19 20  2  0
 19 21  1  0
 21 22  1  0
 22 23  1  0
 23 24  1  1
 23 25  1  0
 23 26  1  0
 27 28  1  0
 29 30  2  0
 30 31  1  0
 30 32  1  0
 32 33  2  0
 33 34  1  0
 34 35  1  0
 34 36  2  0
 37 38  1  6
 37 39  1  0
M  END
