
     RDKit          3D

 39 40  0  0  0  0  0  0  0  0999 V2000
    3.6390    2.4820   -3.8420 C   0  0  0  0  0  0  0  0  0  0  0  0
    2.4520    1.6310   -4.1410 C   0  0  0  0  0  0  0  0  0  0  0  0
    1.5350    1.4760   -3.1040 O   0  0  0  0  0  0  0  0  0  0  0  0
    1.9320    0.8940   -1.9020 C   0  0  0  0  0  0  0  0  0  0  0  0
    3.1710    0.4440   -1.6480 C   0  0  0  0  0  0  0  0  0  0  0  0
    3.6130   -0.1500   -0.4420 C   0  0  0  0  0  0  0  0  0  0  0  0
    4.9830   -0.5930   -0.3590 C   0  0  0  0  0  0  0  0  0  0  0  0
    5.4620   -1.0040   -1.5080 O   0  0  0  0  0  0  0  0  0  0  0  0
    5.8960   -0.6690    0.6700 N   0  0  0  0  0  0  0  0  0  0  0  0
    7.2630   -1.1700    0.5110 C   0  0  1  0  0  0  0  0  0  0  0  0
    8.1750    0.0380    0.2640 C   0  0  0  0  0  0  0  0  0  0  0  0
    7.7460   -1.9990    1.6410 C   0  0  0  0  0  0  0  0  0  0  0  0
    9.0560   -2.4000    1.3390 O   0  0  0  0  0  0  0  0  0  0  0  0
    2.6560   -0.2540    0.5280 C   0  0  0  0  0  0  0  0  0  0  0  0
    2.9060   -0.7580    1.8990 C   0  0  0  0  0  0  0  0  0  0  0  0
    3.1150    0.2950    2.9300 C   0  0  0  0  0  0  0  0  0  0  0  0
    4.0910    1.2110    2.7550 O   0  0  0  0  0  0  0  0  0  0  0  0
    1.3400    0.2050    0.3060 C   0  0  0  0  0  0  0  0  0  0  0  0
    0.9540    0.7720   -0.8750 C   0  0  0  0  0  0  0  0  0  0  0  0
   -0.2710    1.2420   -1.2060 O   0  0  0  0  0  0  0  0  0  0  0  0
   -1.5010    1.3000   -0.5740 C   0  0  0  0  0  0  0  0  0  0  0  0
   -2.0810   -0.0370   -0.2600 C   0  0  0  0  0  0  0  0  0  0  0  0
   -3.3660   -0.1320    0.4470 C   0  0  2  0  0  0  0  0  0  0  0  0
   -3.7810   -1.5700    0.6650 C   0  0  0  0  0  0  0  0  0  0  0  0
   -3.2130   -2.5900    0.0910 C   0  0  0  0  0  0  0  0  0  0  0  0
   -3.6770   -3.9410    0.3500 C   0  0  0  0  0  0  0  0  0  0  0  0
   -3.0750   -4.9930   -0.2390 C   0  0  0  0  0  0  0  0  0  0  0  0
   -3.6350   -6.3340    0.0960 C   0  0  0  0  0  0  0  0  0  0  0  0
   -5.0170   -6.1660    0.0500 O   0  0  0  0  0  0  0  0  0  0  0  0
   -5.4710   -5.4160    0.9920 O   0  0  0  0  0  0  0  0  0  0  0  0
   -4.8120   -4.2300    1.2160 C   0  0  0  0  0  0  0  0  0  0  0  0
   -4.5480    0.6240   -0.0670 C   0  0  1  0  0  0  0  0  0  0  0  0
   -5.6510    0.2230    0.8150 O   0  0  0  0  0  0  0  0  0  0  0  0
   -4.4720    2.1090    0.2570 C   0  0  0  0  0  0  0  0  0  0  0  0
   -5.7880    2.7090   -0.0380 N   0  0  0  0  0  0  0  0  0  0  0  0
   -5.9740    4.0790    0.1740 C   0  0  0  0  0  0  0  0  0  0  0  0
   -5.0750    4.8490    0.6090 O   0  0  0  0  0  0  0  0  0  0  0  0
   -7.2470    4.7110   -0.1030 N   0  0  0  0  0  0  0  0  0  0  0  0
   -7.4890    6.1160    0.0920 C   0  0  0  0  0  0  0  0  0  0  0  0
  1  2  1  0
  2  3  1  0
  3  4  1  0
  4  5  2  0
  4 19  1  0
  5  6  1  0
  6  7  1  0
  6 14  2  0
  7  8  2  0
  7  9  1  0
  9 10  1  0
 10 11  1  1
 10 12  1  0
 12 13  1  0
 14 15  1  0
 14 18  1  0
 15 16  1  0
 16 17  1  0
 18 19  2  0
 19 20  1  0
 20 21  1  0
 21 22  1  0
 23 22  1  6
 23 24  1  0
 23 32  1  0
 24 25  2  3
 25 26  1  0
 26 27  2  0
 26 31  1  0
 27 28  1  0
 28 29  1  0
 29 30  1  0
 30 31  1  0
 32 33  1  1
 32 34  1  0
 34 35  1  0
 35 36  1  0
 36 37  2  0
 36 38  1  0
 38 39  1  0
M  END
