
     RDKit          3D

 41 44  0  0  0  0  0  0  0  0999 V2000
   -3.3190    3.3090   -3.0840 C   0  0  0  0  0  0  0  0  0  0  0  0
   -3.2900    3.9310   -1.6890 C   0  0  0  0  0  0  0  0  0  0  0  0
   -2.1560    3.3910   -0.8730 C   0  0  0  0  0  0  0  0  0  0  0  0
   -2.2240    1.9470   -0.6840 N   0  0  0  0  0  0  0  0  0  0  0  0
   -3.2980    1.3250   -0.0360 C   0  0  0  0  0  0  0  0  0  0  0  0
   -4.2180    2.1630    0.3520 O   0  0  0  0  0  0  0  0  0  0  0  0
   -3.5470   -0.0530    0.2560 C   0  0  0  0  0  0  0  0  0  0  0  0
   -4.8740   -0.4830    0.1940 C   0  0  0  0  0  0  0  0  0  0  0  0
   -5.9310    0.4490   -0.1810 C   0  0  0  0  0  0  0  0  0  0  0  0
   -5.1520   -1.7800    0.4910 C   0  0  0  0  0  0  0  0  0  0  0  0
   -4.1490   -2.6170    0.8380 C   0  0  0  0  0  0  0  0  0  0  0  0
   -4.4400   -3.8130    1.1060 O   0  0  0  0  0  0  0  0  0  0  0  0
   -2.8330   -2.1680    0.8970 N   0  0  0  0  0  0  0  0  0  0  0  0
   -1.9530   -3.1840    1.4150 C   0  0  0  0  0  0  0  0  0  0  0  0
   -1.5200   -4.2050    0.4120 C   0  0  0  0  0  0  0  0  0  0  0  0
   -2.5130   -0.9440    0.6230 C   0  0  0  0  0  0  0  0  0  0  0  0
   -1.2160   -0.2770    0.8370 C   0  0  0  0  0  0  0  0  0  0  0  0
   -1.3420    0.8000    1.6950 C   0  0  0  0  0  0  0  0  0  0  0  0
   -0.3100    1.6800    2.1010 C   0  0  0  0  0  0  0  0  0  0  0  0
    0.8970    1.5040    1.6280 C   0  0  0  0  0  0  0  0  0  0  0  0
    1.1490    0.4510    0.7160 C   0  0  0  0  0  0  0  0  0  0  0  0
    2.3770    0.2130    0.2180 C   0  0  0  0  0  0  0  0  0  0  0  0
    3.5360    0.9910    0.5630 C   0  0  0  0  0  0  0  0  0  0  0  0
    3.9320    1.2460    1.8430 C   0  0  0  0  0  0  0  0  0  0  0  0
    5.0510    2.0260    2.1330 C   0  0  0  0  0  0  0  0  0  0  0  0
    5.7980    2.5680    1.1100 C   0  0  0  0  0  0  0  0  0  0  0  0
    7.0090    3.4110    1.3920 C   0  0  0  0  0  0  0  0  0  0  0  0
    5.4040    2.3130   -0.1870 C   0  0  0  0  0  0  0  0  0  0  0  0
    4.2960    1.5410   -0.4510 C   0  0  0  0  0  0  0  0  0  0  0  0
    3.8960    1.2860   -1.8610 C   0  0  0  0  0  0  0  0  0  0  0  0
    0.0590   -0.5070    0.2420 C   0  0  1  0  0  0  0  0  0  0  0  0
    0.8160   -1.8050    0.4250 C   0  0  0  0  0  0  0  0  0  0  0  0
    1.3160   -2.1200    1.7390 C   0  0  0  0  0  0  0  0  0  0  0  0
    1.0500   -1.3560    2.7000 O   0  0  0  0  0  0  0  0  0  0  0  0
    2.0730   -3.2190    2.0020 O   0  0  0  0  0  0  0  0  0  0  0  0
    1.0720   -2.5810   -0.6270 C   0  0  0  0  0  0  0  0  0  0  0  0
    0.6430   -2.2360   -1.9790 C   0  0  0  0  0  0  0  0  0  0  0  0
    1.0040   -3.2490   -2.9890 C   0  0  0  0  0  0  0  0  0  0  0  0
    1.2540   -4.7270   -1.9530 S   0  0  0  0  0  0  0  0  0  0  0  0
    2.3770   -5.5800   -2.4700 O   0  0  0  0  0  0  0  0  0  0  0  0
    1.7930   -3.7940   -0.5260 N   0  0  0  0  0  0  0  0  0  0  0  0
  1  2  1  0
  2  3  1  0
  3  4  1  0
  4  5  1  0
  5  6  2  0
  5  7  1  0
  7  8  1  0
  7 16  2  0
  8  9  1  0
  8 10  2  0
 10 11  1  0
 11 12  2  0
 11 13  1  0
 13 14  1  0
 13 16  1  0
 14 15  1  0
 16 17  1  0
 17 18  2  0
 17 31  1  0
 18 19  1  0
 19 20  2  0
 20 21  1  0
 21 22  2  3
 21 31  1  0
 22 23  1  0
 23 24  2  0
 23 29  1  0
 24 25  1  0
 25 26  2  0
 26 27  1  0
 26 28  1  0
 28 29  2  0
 29 30  1  0
 31 32  1  1
 32 33  1  0
 32 36  2  3
 33 34  2  0
 33 35  1  0
 36 37  1  0
 36 41  1  0
 37 38  1  0
 39 38  1  6
 39 40  2  0
 39 41  1  0
M  END
