
     RDKit          3D

 41 44  0  0  0  0  0  0  0  0999 V2000
    0.7200    7.4440    0.5110 C   0  0  0  0  0  0  0  0  0  0  0  0
   -0.2710    6.8810    1.4720 C   0  0  0  0  0  0  0  0  0  0  0  0
   -0.2820    5.0940    1.5990 S   0  0  0  0  0  0  0  0  0  0  0  0
   -0.8430    4.3030    0.0650 C   0  0  2  0  0  0  0  0  0  0  0  0
   -2.2920    4.6380   -0.2130 C   0  0  0  0  0  0  0  0  0  0  0  0
   -0.5970    2.8320    0.1440 C   0  0  0  0  0  0  0  0  0  0  0  0
    0.6950    2.4070    0.1460 C   0  0  0  0  0  0  0  0  0  0  0  0
    1.8400    3.3560    0.0710 C   0  0  0  0  0  0  0  0  0  0  0  0
    1.0040    1.0230    0.2190 C   0  0  0  0  0  0  0  0  0  0  0  0
    2.3920    0.6320    0.1960 C   0  0  0  0  0  0  0  0  0  0  0  0
    3.0290   -0.4670    0.3460 C   0  0  0  0  0  0  0  0  0  0  0  0
    4.5350   -0.4920    0.2450 C   0  0  0  0  0  0  0  0  0  0  0  0
    5.1490    0.5780    0.0210 O   0  0  0  0  0  0  0  0  0  0  0  0
    5.2440   -1.6520    0.3910 O   0  0  0  0  0  0  0  0  0  0  0  0
    6.5970   -1.7860    0.3180 C   0  0  0  0  0  0  0  0  0  0  0  0
    7.2980   -1.9330   -0.8590 C   0  0  0  0  0  0  0  0  0  0  0  0
    8.6820   -2.0680   -0.8770 C   0  0  0  0  0  0  0  0  0  0  0  0
    9.4210   -2.0600    0.2890 C   0  0  0  0  0  0  0  0  0  0  0  0
   10.9020   -2.2080    0.2410 C   0  0  0  0  0  0  0  0  0  0  0  0
    8.7290   -1.9140    1.4720 C   0  0  0  0  0  0  0  0  0  0  0  0
    7.3560   -1.7790    1.4940 C   0  0  0  0  0  0  0  0  0  0  0  0
   -0.0730    0.1790    0.2830 C   0  0  0  0  0  0  0  0  0  0  0  0
    0.1600   -1.2920    0.3260 C   0  0  0  0  0  0  0  0  0  0  0  0
   -1.3760    0.5860    0.2830 N   0  0  0  0  0  0  0  0  0  0  0  0
   -2.4990   -0.3390    0.3450 C   0  0  0  0  0  0  0  0  0  0  0  0
   -3.0080   -0.7480   -0.9960 C   0  0  2  0  0  0  0  0  0  0  0  0
   -3.4650    0.3850   -1.7140 O   0  0  0  0  0  0  0  0  0  0  0  0
   -4.1270   -1.7120   -0.9500 C   0  0  0  0  0  0  0  0  0  0  0  0
   -4.6250   -2.2540    0.2170 C   0  0  0  0  0  0  0  0  0  0  0  0
   -5.6720   -3.1660    0.2240 C   0  0  0  0  0  0  0  0  0  0  0  0
   -6.2430   -3.5520   -0.9790 C   0  0  0  0  0  0  0  0  0  0  0  0
   -5.7370   -3.0000   -2.1620 C   0  0  0  0  0  0  0  0  0  0  0  0
   -4.6930   -2.0930   -2.1480 C   0  0  0  0  0  0  0  0  0  0  0  0
   -4.2390   -1.5790   -3.3940 N   0  0  0  0  0  0  0  0  0  0  0  0
   -7.3160   -4.4890   -1.0550 N   0  0  0  0  0  0  0  0  0  0  0  0
   -7.7930   -5.0320    0.1810 C   0  0  0  0  0  0  0  0  0  0  0  0
   -8.9820   -5.3990    0.3080 O   0  0  0  0  0  0  0  0  0  0  0  0
   -6.7890   -5.1230    1.2770 C   0  0  0  0  0  0  0  0  0  0  0  0
   -6.1990   -3.7440    1.4900 C   0  0  0  0  0  0  0  0  0  0  0  0
   -1.5880    1.9140    0.2120 C   0  0  0  0  0  0  0  0  0  0  0  0
   -2.8070    2.2960    0.2120 O   0  0  0  0  0  0  0  0  0  0  0  0
  1  2  1  0
  2  3  1  0
  3  4  1  0
  4  5  1  1
  4  6  1  0
  6  7  2  0
  6 40  1  0
  7  8  1  0
  7  9  1  0
  9 10  1  0
  9 22  2  0
 10 11  2  3
 11 12  1  0
 12 13  2  0
 12 14  1  0
 14 15  1  0
 15 16  2  0
 15 21  1  0
 16 17  1  0
 17 18  2  0
 18 19  1  0
 18 20  1  0
 20 21  2  0
 22 23  1  0
 22 24  1  0
 24 25  1  0
 24 40  1  0
 25 26  1  0
 26 27  1  1
 26 28  1  0
 28 29  2  0
 28 33  1  0
 29 30  1  0
 30 31  2  0
 30 39  1  0
 31 32  1  0
 31 35  1  0
 32 33  2  0
 33 34  1  0
 35 36  1  0
 36 37  2  0
 36 38  1  0
 38 39  1  0
 40 41  2  0
M  END
