
     RDKit          3D

 41 45  0  0  0  0  0  0  0  0999 V2000
   -1.9410   -6.6490   -3.0260 C   0  0  0  0  0  0  0  0  0  0  0  0
   -2.4970   -5.5470   -2.1780 C   0  0  0  0  0  0  0  0  0  0  0  0
   -3.7300   -5.4050   -2.1420 O   0  0  0  0  0  0  0  0  0  0  0  0
   -1.6770   -4.6800   -1.4310 N   0  0  0  0  0  0  0  0  0  0  0  0
   -2.0810   -3.6150   -0.5960 C   0  0  0  0  0  0  0  0  0  0  0  0
   -3.3700   -3.3870   -0.1860 C   0  0  0  0  0  0  0  0  0  0  0  0
   -3.7490   -2.3720    0.6850 C   0  0  0  0  0  0  0  0  0  0  0  0
   -2.8140   -1.5120    1.1990 C   0  0  0  0  0  0  0  0  0  0  0  0
   -3.1280   -0.4230    2.1290 C   0  0  0  0  0  0  0  0  0  0  0  0
   -3.7910    0.7120    1.6100 N   0  0  0  0  0  0  0  0  0  0  0  0
   -4.1810    1.8660    2.4220 C   0  0  0  0  0  0  0  0  0  0  0  0
   -5.5070    2.2750    1.7930 C   0  0  1  0  0  0  0  0  0  0  0  0
   -5.7860    3.7360    1.8810 C   0  0  0  0  0  0  0  0  0  0  0  0
   -5.2450    1.9070    0.3740 C   0  0  0  0  0  0  0  0  0  0  0  0
   -5.8820    2.3720   -0.7670 C   0  0  0  0  0  0  0  0  0  0  0  0
   -5.4710    1.9060   -2.0000 C   0  0  0  0  0  0  0  0  0  0  0  0
   -6.2980    2.4950   -3.4190 Cl  0  0  0  0  0  0  0  0  0  0  0  0
   -4.4420    0.9930   -2.1040 C   0  0  0  0  0  0  0  0  0  0  0  0
   -3.8180    0.5410   -0.9630 C   0  0  0  0  0  0  0  0  0  0  0  0
   -4.2190    0.9990    0.2930 C   0  0  0  0  0  0  0  0  0  0  0  0
   -1.4910   -1.7260    0.7950 C   0  0  0  0  0  0  0  0  0  0  0  0
   -1.1120   -2.7290   -0.0680 C   0  0  0  0  0  0  0  0  0  0  0  0
    0.2140   -2.8540   -0.5150 N   0  0  0  0  0  0  0  0  0  0  0  0
    1.3680   -2.2850    0.0920 C   0  0  0  0  0  0  0  0  0  0  0  0
    1.2710   -1.6130    1.1190 O   0  0  0  0  0  0  0  0  0  0  0  0
    2.6650   -2.5590   -0.5920 C   0  0  0  0  0  0  0  0  0  0  0  0
    3.7830   -2.0650    0.0170 O   0  0  0  0  0  0  0  0  0  0  0  0
    4.1770   -0.8080    0.3390 C   0  0  0  0  0  0  0  0  0  0  0  0
    5.4100   -0.6670    0.9790 C   0  0  0  0  0  0  0  0  0  0  0  0
    5.9140    0.5580    1.3550 C   0  0  0  0  0  0  0  0  0  0  0  0
    5.2030    1.7200    1.1080 C   0  0  0  0  0  0  0  0  0  0  0  0
    5.7020    2.9660    1.4840 O   0  0  0  0  0  0  0  0  0  0  0  0
    6.5000    3.6930    0.6170 C   0  0  0  0  0  0  0  0  0  0  0  0
    6.9990    4.9030    1.0420 C   0  0  0  0  0  0  0  0  0  0  0  0
    7.8000    5.6840    0.2350 C   0  0  0  0  0  0  0  0  0  0  0  0
    8.1300    5.2730   -1.0370 C   0  0  0  0  0  0  0  0  0  0  0  0
    7.6370    4.0510   -1.4920 C   0  0  0  0  0  0  0  0  0  0  0  0
    7.9910    3.4330   -3.0850 Cl  0  0  0  0  0  0  0  0  0  0  0  0
    6.8330    3.2880   -0.6560 C   0  0  0  0  0  0  0  0  0  0  0  0
    3.9870    1.6020    0.4790 C   0  0  0  0  0  0  0  0  0  0  0  0
    3.4770    0.3550    0.0980 C   0  0  0  0  0  0  0  0  0  0  0  0
  1  2  1  0
  2  3  2  0
  2  4  1  0
  4  5  1  0
  5  6  2  0
  5 22  1  0
  6  7  1  0
  7  8  2  0
  8  9  1  0
  8 21  1  0
  9 10  1  0
 10 11  1  0
 10 20  1  0
 11 12  1  0
 12 13  1  6
 12 14  1  0
 14 15  2  0
 14 20  1  0
 15 16  1  0
 16 17  1  0
 16 18  2  0
 18 19  1  0
 19 20  2  0
 21 22  2  0
 22 23  1  0
 23 24  1  0
 24 25  2  0
 24 26  1  0
 26 27  1  0
 27 28  1  0
 28 29  2  0
 28 41  1  0
 29 30  1  0
 30 31  2  0
 31 32  1  0
 31 40  1  0
 32 33  1  0
 33 34  2  0
 33 39  1  0
 34 35  1  0
 35 36  2  0
 36 37  1  0
 37 38  1  0
 37 39  2  0
 40 41  2  0
M  END
