
     RDKit          3D

 41 45  0  0  0  0  0  0  0  0999 V2000
    8.7880   -2.6330   -1.4060 C   0  0  0  0  0  0  0  0  0  0  0  0
    7.4190   -2.7930   -0.7450 C   0  0  0  0  0  0  0  0  0  0  0  0
    7.5270   -2.4700    0.7250 C   0  0  0  0  0  0  0  0  0  0  0  0
    7.9650   -1.0920    1.0330 C   0  0  0  0  0  0  0  0  0  0  0  0
    7.1030    0.0350    0.6100 C   0  0  2  0  0  0  0  0  0  0  0  0
    7.7880    1.2200    1.0110 O   0  0  0  0  0  0  0  0  0  0  0  0
    5.7260    0.0700    1.1900 C   0  0  0  0  0  0  0  0  0  0  0  0
    4.6210   -1.2520    0.7960 S   0  0  0  0  0  0  0  0  0  0  0  0
    3.9320   -1.1960   -0.8760 C   0  0  0  0  0  0  0  0  0  0  0  0
    2.9900   -0.0180   -0.9360 C   0  0  0  0  0  0  0  0  0  0  0  0
    3.4190    1.2380   -1.2760 C   0  0  0  0  0  0  0  0  0  0  0  0
    2.5020    2.2810   -1.3110 C   0  0  0  0  0  0  0  0  0  0  0  0
    1.1600    2.0970   -1.0140 C   0  0  0  0  0  0  0  0  0  0  0  0
    0.7530    0.8400   -0.6790 C   0  0  0  0  0  0  0  0  0  0  0  0
   -0.6200    0.6570   -0.3710 O   0  0  0  0  0  0  0  0  0  0  0  0
   -1.0360   -0.5770    0.0250 C   0  0  0  0  0  0  0  0  0  0  0  0
   -2.3660   -0.9960    0.3740 C   0  0  0  0  0  0  0  0  0  0  0  0
   -2.5720   -2.2810    0.9770 C   0  0  0  0  0  0  0  0  0  0  0  0
   -1.5050   -3.2960    1.0910 C   0  0  0  0  0  0  0  0  0  0  0  0
   -3.8210   -2.3720    1.3710 N   0  0  0  0  0  0  0  0  0  0  0  0
   -4.5150   -1.2590    1.0900 C   0  0  0  0  0  0  0  0  0  0  0  0
   -3.5680   -0.3940    0.4410 C   0  0  0  0  0  0  0  0  0  0  0  0
   -3.9390    0.6230   -0.3450 C   0  0  0  0  0  0  0  0  0  0  0  0
   -2.9500    0.9500   -1.2870 N   0  0  0  0  0  0  0  0  0  0  0  0
   -2.9700    2.2670   -1.8250 C   0  0  0  0  0  0  0  0  0  0  0  0
   -2.1020    2.5990   -2.6700 O   0  0  0  0  0  0  0  0  0  0  0  0
   -3.9850    3.1970   -1.3930 N   0  0  0  0  0  0  0  0  0  0  0  0
   -5.2880    2.5750   -1.1480 C   0  0  0  0  0  0  0  0  0  0  0  0
   -5.1820    1.4290   -0.2060 C   0  0  2  0  0  0  0  0  0  0  0  0
   -5.0960    1.9870    1.1080 O   0  0  0  0  0  0  0  0  0  0  0  0
   -6.4060    0.5950   -0.2110 C   0  0  0  0  0  0  0  0  0  0  0  0
   -6.6660    0.0370    1.1740 C   0  0  1  0  0  0  0  0  0  0  0  0
   -8.1280   -0.2050    1.3440 C   0  0  0  0  0  0  0  0  0  0  0  0
   -5.7800   -1.0990    1.4110 C   0  0  0  0  0  0  0  0  0  0  0  0
   -6.3990   -2.2580    2.1490 C   0  0  0  0  0  0  0  0  0  0  0  0
   -7.4030   -3.0170    1.3700 C   0  0  0  0  0  0  0  0  0  0  0  0
    1.6450   -0.1970   -0.6400 C   0  0  0  0  0  0  0  0  0  0  0  0
    0.2880    3.1760   -1.0590 O   0  0  0  0  0  0  0  0  0  0  0  0
    0.7200    4.4140   -1.5500 C   0  0  0  0  0  0  0  0  0  0  0  0
    2.1350    4.7060   -1.1500 C   0  0  0  0  0  0  0  0  0  0  0  0
    3.0210    3.6150   -1.6840 C   0  0  0  0  0  0  0  0  0  0  0  0
  1  2  1  0
  2  3  1  0
  3  4  1  0
  4  5  1  0
  5  6  1  1
  5  7  1  0
  7  8  1  0
  8  9  1  0
  9 10  1  0
 10 11  2  0
 10 37  1  0
 11 12  1  0
 12 13  2  0
 12 41  1  0
 13 14  1  0
 13 38  1  0
 14 15  1  0
 14 37  2  0
 15 16  1  0
 16 17  1  0
 17 18  2  0
 17 22  1  0
 18 19  1  0
 18 20  1  0
 20 21  1  0
 21 22  1  0
 21 34  2  0
 22 23  2  0
 23 24  1  0
 23 29  1  0
 24 25  1  0
 25 26  2  0
 25 27  1  0
 27 28  1  0
 28 29  1  0
 29 30  1  1
 29 31  1  0
 31 32  1  0
 32 33  1  6
 32 34  1  0
 34 35  1  0
 35 36  1  0
 38 39  1  0
 39 40  1  0
 40 41  1  0
M  END
