
     RDKit          3D

 41 44  0  0  0  0  0  0  0  0999 V2000
    8.8770    2.4740   -1.0500 C   0  0  0  0  0  0  0  0  0  0  0  0
    8.5060    1.2810   -0.2390 C   0  0  0  0  0  0  0  0  0  0  0  0
    9.4830    0.4950    0.3030 C   0  0  0  0  0  0  0  0  0  0  0  0
    9.1380   -0.6080    1.0540 C   0  0  0  0  0  0  0  0  0  0  0  0
   10.2280   -1.4260    1.6180 C   0  0  0  0  0  0  0  0  0  0  0  0
    7.8110   -0.8880    1.2390 C   0  0  0  0  0  0  0  0  0  0  0  0
    7.4490   -2.0780    2.0480 C   0  0  0  0  0  0  0  0  0  0  0  0
    6.7860   -0.1130    0.7040 C   0  0  0  0  0  0  0  0  0  0  0  0
    5.4540   -0.4810    0.9540 N   0  0  0  0  0  0  0  0  0  0  0  0
    4.2830    0.1480    0.5000 C   0  0  0  0  0  0  0  0  0  0  0  0
    4.3770    1.1680   -0.2260 O   0  0  0  0  0  0  0  0  0  0  0  0
    2.9800   -0.3910    0.8770 C   0  0  0  0  0  0  0  0  0  0  0  0
    2.8560   -1.1150    2.0220 C   0  0  0  0  0  0  0  0  0  0  0  0
    1.5870   -1.6140    2.3360 C   0  0  0  0  0  0  0  0  0  0  0  0
    0.5400   -1.3580    1.4930 C   0  0  0  0  0  0  0  0  0  0  0  0
    0.6510   -0.6160    0.3140 C   0  0  0  0  0  0  0  0  0  0  0  0
   -0.5310   -0.3990   -0.4640 N   0  0  0  0  0  0  0  0  0  0  0  0
   -0.5900   -0.1090   -1.8250 C   0  0  0  0  0  0  0  0  0  0  0  0
    0.5960   -0.0670   -2.3520 O   0  0  0  0  0  0  0  0  0  0  0  0
   -1.6620    0.1460   -2.7350 C   0  0  0  0  0  0  0  0  0  0  0  0
   -1.3180    0.4030   -4.0790 C   0  0  0  0  0  0  0  0  0  0  0  0
    0.0400    0.3750   -4.4140 O   0  0  0  0  0  0  0  0  0  0  0  0
   -2.2580    0.6730   -5.0430 C   0  0  0  0  0  0  0  0  0  0  0  0
   -3.5810    0.7070   -4.7490 C   0  0  0  0  0  0  0  0  0  0  0  0
   -3.9720    0.4630   -3.4520 C   0  0  0  0  0  0  0  0  0  0  0  0
   -3.0210    0.1900   -2.4810 C   0  0  0  0  0  0  0  0  0  0  0  0
   -3.4910   -0.0420   -1.1190 C   0  0  0  0  0  0  0  0  0  0  0  0
   -4.9460   -0.0090   -0.9450 N   0  0  0  0  0  0  0  0  0  0  0  0
   -5.5810   -1.0450   -1.5910 C   0  0  0  0  0  0  0  0  0  0  0  0
   -5.4310    1.2450   -0.6890 C   0  0  0  0  0  0  0  0  0  0  0  0
   -6.8300    1.5670   -0.4230 C   0  0  0  0  0  0  0  0  0  0  0  0
   -7.5130    0.9930    0.7660 C   0  0  2  0  0  0  0  0  0  0  0  0
   -6.8830    1.3250    2.0660 C   0  0  0  0  0  0  0  0  0  0  0  0
   -7.7220    0.7490    3.2170 C   0  0  0  0  0  0  0  0  0  0  0  0
   -7.6140   -1.0590    3.1700 S   0  0  0  0  0  0  0  0  0  0  0  0
   -8.9620   -1.6250    3.5910 O   0  0  0  0  0  0  0  0  0  0  0  0
   -7.4340   -1.4490    1.4380 N   0  0  0  0  0  0  0  0  0  0  0  0
   -7.8580   -0.4140    0.5570 C   0  0  0  0  0  0  0  0  0  0  0  0
   -8.5750   -0.7800   -0.4510 O   0  0  0  0  0  0  0  0  0  0  0  0
    1.8920   -0.1340    0.0170 C   0  0  0  0  0  0  0  0  0  0  0  0
    7.1590    0.9670   -0.0320 C   0  0  0  0  0  0  0  0  0  0  0  0
  1  2  1  0
  2  3  2  0
  2 41  1  0
  3  4  1  0
  4  5  1  0
  4  6  2  0
  6  7  1  0
  6  8  1  0
  8  9  1  0
  8 41  2  0
  9 10  1  0
 10 11  2  0
 10 12  1  0
 12 13  2  0
 12 40  1  0
 13 14  1  0
 14 15  2  0
 15 16  1  0
 16 17  1  0
 16 40  2  0
 17 18  1  0
 18 19  2  0
 18 20  1  0
 20 21  2  0
 20 26  1  0
 21 22  1  0
 21 23  1  0
 23 24  2  0
 24 25  1  0
 25 26  2  0
 26 27  1  0
 27 28  1  0
 28 29  1  0
 28 30  1  0
 30 31  1  0
 32 31  1  6
 32 33  1  0
 32 38  1  0
 33 34  1  0
 35 34  1  6
 35 36  2  0
 35 37  1  0
 37 38  1  0
 38 39  2  0
M  END
