
     RDKit          3D

 41 44  0  0  0  0  0  0  0  0999 V2000
    8.5530   -2.4290    0.1460 C   0  0  0  0  0  0  0  0  0  0  0  0
    7.3810   -2.5000   -0.7500 C   0  0  0  0  0  0  0  0  0  0  0  0
    7.3440   -3.3850   -1.6280 O   0  0  0  0  0  0  0  0  0  0  0  0
    6.2870   -1.5560   -0.6150 C   0  0  0  0  0  0  0  0  0  0  0  0
    5.1740   -1.5840   -1.4280 C   0  0  0  0  0  0  0  0  0  0  0  0
    4.1760   -0.6580   -1.2400 C   0  0  0  0  0  0  0  0  0  0  0  0
    4.2210    0.3420   -0.2450 C   0  0  0  0  0  0  0  0  0  0  0  0
    3.0870    1.2230   -0.1560 C   0  0  2  0  0  0  0  0  0  0  0  0
    3.3570    2.7020   -0.1730 C   0  0  0  0  0  0  0  0  0  0  0  0
    2.4340    0.9730    1.1850 C   0  0  0  0  0  0  0  0  0  0  0  0
    1.9710   -0.3450    1.5770 C   0  0  2  0  0  0  0  0  0  0  0  0
    0.9290   -1.0750    0.8260 C   0  0  0  0  0  0  0  0  0  0  0  0
    1.3510   -0.1250    2.9910 C   0  0  0  0  0  0  0  0  0  0  0  0
    2.1200    0.9100   -1.2020 N   0  0  0  0  0  0  0  0  0  0  0  0
    2.4320    1.2820   -2.5470 C   0  0  0  0  0  0  0  0  0  0  0  0
    3.5460    1.8570   -2.7300 O   0  0  0  0  0  0  0  0  0  0  0  0
    1.5560    1.0340   -3.6740 C   0  0  0  0  0  0  0  0  0  0  0  0
    0.3160    0.4400   -3.3160 N   0  0  0  0  0  0  0  0  0  0  0  0
   -0.6690    1.0760   -2.4840 C   0  0  0  0  0  0  0  0  0  0  0  0
   -0.4450    2.2150   -2.0520 O   0  0  0  0  0  0  0  0  0  0  0  0
   -1.8790    0.4230   -2.1580 N   0  0  0  0  0  0  0  0  0  0  0  0
   -2.9200    0.9320   -1.3380 C   0  0  0  0  0  0  0  0  0  0  0  0
   -2.7790    1.9990   -0.5020 C   0  0  0  0  0  0  0  0  0  0  0  0
   -3.8450    2.4430    0.2490 C   0  0  0  0  0  0  0  0  0  0  0  0
   -5.0640    1.8170    0.1680 C   0  0  0  0  0  0  0  0  0  0  0  0
   -5.2550    0.7230   -0.6710 C   0  0  0  0  0  0  0  0  0  0  0  0
   -4.1780    0.3100   -1.4010 C   0  0  0  0  0  0  0  0  0  0  0  0
   -6.6580    0.2750   -0.5490 C   0  0  1  0  0  0  0  0  0  0  0  0
   -6.7850   -0.9710    0.3060 C   0  0  0  0  0  0  0  0  0  0  0  0
   -5.6850   -1.4470    0.8190 C   0  0  0  0  0  0  0  0  0  0  0  0
   -5.4990   -2.6320    1.6810 C   0  0  0  0  0  0  0  0  0  0  0  0
   -7.0430   -3.4450    2.0300 S   0  0  0  0  0  0  0  0  0  0  0  0
   -7.0040   -4.8560    1.4640 O   0  0  0  0  0  0  0  0  0  0  0  0
   -8.3290   -2.5710    1.2040 C   0  0  0  0  0  0  0  0  0  0  0  0
   -8.0960   -1.5130    0.4870 C   0  0  0  0  0  0  0  0  0  0  0  0
   -7.4000    1.4000    0.1480 C   0  0  0  0  0  0  0  0  0  0  0  0
   -6.3200    2.1000    0.8520 C   0  0  0  0  0  0  0  0  0  0  0  0
   -6.4770    2.8180    1.8710 O   0  0  0  0  0  0  0  0  0  0  0  0
    5.3210    0.3710    0.5610 C   0  0  0  0  0  0  0  0  0  0  0  0
    5.4460    1.3590    1.6180 C   0  0  0  0  0  0  0  0  0  0  0  0
    6.3420   -0.5890    0.3580 C   0  0  0  0  0  0  0  0  0  0  0  0
  1  2  1  0
  2  3  2  0
  2  4  1  0
  4  5  2  0
  4 41  1  0
  5  6  1  0
  6  7  2  0
  7  8  1  0
  7 39  1  0
  8  9  1  1
  8 10  1  0
  8 14  1  0
 10 11  1  0
 11 12  1  6
 11 13  1  0
 14 15  1  0
 15 16  2  0
 15 17  1  0
 17 18  1  0
 18 19  1  0
 19 20  2  0
 19 21  1  0
 21 22  1  0
 22 23  2  0
 22 27  1  0
 23 24  1  0
 24 25  2  0
 25 26  1  0
 25 37  1  0
 26 27  2  0
 26 28  1  0
 28 29  1  1
 28 36  1  0
 29 30  2  0
 29 35  1  0
 30 31  1  0
 32 31  1  6
 32 33  2  0
 32 34  1  0
 34 35  2  0
 36 37  1  0
 37 38  2  0
 39 40  1  0
 39 41  2  0
M  END
