
     RDKit          3D

 41 41  0  0  0  0  0  0  0  0999 V2000
  -10.1140    1.6410    1.2400 C   0  0  0  0  0  0  0  0  0  0  0  0
   -8.8410    1.9420    0.7170 O   0  0  0  0  0  0  0  0  0  0  0  0
   -7.8240    1.0130    0.6410 C   0  0  0  0  0  0  0  0  0  0  0  0
   -8.0850   -0.1430    1.0720 O   0  0  0  0  0  0  0  0  0  0  0  0
   -6.5090    1.3920    0.0780 C   0  0  1  0  0  0  0  0  0  0  0  0
   -5.6540    0.1940    0.1340 N   0  0  0  0  0  0  0  0  0  0  0  0
   -4.4330    0.2320    0.8420 C   0  0  0  0  0  0  0  0  0  0  0  0
   -4.1570    1.3670    1.3970 O   0  0  0  0  0  0  0  0  0  0  0  0
   -3.4810   -0.8780    0.9910 C   0  0  1  0  0  0  0  0  0  0  0  0
   -2.2660   -0.3390    1.6450 N   0  0  0  0  0  0  0  0  0  0  0  0
   -1.0450   -0.3470    0.9120 C   0  0  0  0  0  0  0  0  0  0  0  0
   -1.1050   -0.8130   -0.2580 O   0  0  0  0  0  0  0  0  0  0  0  0
    0.1700    0.1720    1.5480 C   0  0  0  0  0  0  0  0  0  0  0  0
    1.4320   -0.0700    0.7510 C   0  0  0  0  0  0  0  0  0  0  0  0
    1.7340   -1.5260    0.5340 C   0  0  2  0  0  0  0  0  0  0  0  0
    1.9280   -2.2720    1.6540 O   0  0  0  0  0  0  0  0  0  0  0  0
    2.8340   -1.6610   -0.5260 C   0  0  2  0  0  0  0  0  0  0  0  0
    2.7740   -3.0090   -1.1790 C   0  0  0  0  0  0  0  0  0  0  0  0
    3.8180   -3.1700   -2.2190 C   0  0  0  0  0  0  0  0  0  0  0  0
    3.4890   -2.8160   -3.5320 C   0  0  0  0  0  0  0  0  0  0  0  0
    4.3760   -2.9180   -4.5780 C   0  0  0  0  0  0  0  0  0  0  0  0
    5.6440   -3.3910   -4.3090 C   0  0  0  0  0  0  0  0  0  0  0  0
    5.9790   -3.7430   -3.0200 C   0  0  0  0  0  0  0  0  0  0  0  0
    5.0710   -3.6320   -1.9860 C   0  0  0  0  0  0  0  0  0  0  0  0
    4.1080   -1.3180    0.0360 N   0  0  0  0  0  0  0  0  0  0  0  0
    4.7500   -0.0740   -0.0670 C   0  0  0  0  0  0  0  0  0  0  0  0
    4.1590    0.8460   -0.6880 O   0  0  0  0  0  0  0  0  0  0  0  0
    6.1060    0.1820    0.5350 C   0  0  2  0  0  0  0  0  0  0  0  0
    6.4160   -0.8140    1.5970 C   0  0  0  0  0  0  0  0  0  0  0  0
    6.3450    1.5490    0.8510 N   0  0  0  0  0  0  0  0  0  0  0  0
    7.2050    2.3930    0.0960 C   0  0  0  0  0  0  0  0  0  0  0  0
    7.7690    1.8870   -0.9030 O   0  0  0  0  0  0  0  0  0  0  0  0
    7.4060    3.8330    0.5100 C   0  0  2  0  0  0  0  0  0  0  0  0
    6.0460    4.4600    0.5910 C   0  0  0  0  0  0  0  0  0  0  0  0
    8.2010    4.4820   -0.4970 N   0  0  0  0  0  0  0  0  0  0  0  0
   -4.0510   -1.9850    1.8080 C   0  0  2  0  0  0  0  0  0  0  0  0
   -5.2650   -2.6190    1.2010 C   0  0  0  0  0  0  0  0  0  0  0  0
   -4.5170   -1.4440    3.1780 C   0  0  0  0  0  0  0  0  0  0  0  0
   -6.6800    1.8630   -1.3500 C   0  0  2  0  0  0  0  0  0  0  0  0
   -7.5940    3.0700   -1.3600 C   0  0  0  0  0  0  0  0  0  0  0  0
   -7.4000    0.8080   -2.1920 C   0  0  0  0  0  0  0  0  0  0  0  0
  1  2  1  0
  2  3  1  0
  3  4  2  0
  3  5  1  0
  5  6  1  6
  5 39  1  0
  6  7  1  0
  7  8  2  0
  7  9  1  0
  9 10  1  1
  9 36  1  0
 10 11  1  0
 11 12  2  0
 11 13  1  0
 13 14  1  0
 14 15  1  0
 15 16  1  1
 15 17  1  0
 17 18  1  1
 17 25  1  0
 18 19  1  0
 19 20  2  0
 19 24  1  0
 20 21  1  0
 21 22  2  0
 22 23  1  0
 23 24  2  0
 25 26  1  0
 26 27  2  0
 26 28  1  0
 28 29  1  1
 28 30  1  0
 30 31  1  0
 31 32  2  0
 31 33  1  0
 33 34  1  6
 33 35  1  0
 36 37  1  6
 36 38  1  0
 39 40  1  1
 39 41  1  0
M  CHG  1  35   1
M  END
