
     RDKit          3D

 41 45  0  0  0  0  0  0  0  0999 V2000
   12.6440   -0.5070   -0.9890 C   0  0  0  0  0  0  0  0  0  0  0  0
   11.1690   -0.3110   -0.8880 C   0  0  0  0  0  0  0  0  0  0  0  0
   10.4020    0.5090   -1.5600 O   0  0  0  0  0  0  0  0  0  0  0  0
    9.1360    0.3770   -1.1700 C   0  0  0  0  0  0  0  0  0  0  0  0
    7.9820    1.0110   -1.5770 C   0  0  0  0  0  0  0  0  0  0  0  0
    6.7960    0.6740   -0.9960 C   0  0  0  0  0  0  0  0  0  0  0  0
    6.6780   -0.2850   -0.0020 C   0  0  0  0  0  0  0  0  0  0  0  0
    5.4520   -0.6010    0.5670 O   0  0  0  0  0  0  0  0  0  0  0  0
    4.3070    0.0900    0.1000 C   0  0  0  0  0  0  0  0  0  0  0  0
    3.0770   -0.3620    0.8140 C   0  0  0  0  0  0  0  0  0  0  0  0
    3.1050   -1.2480    1.7090 O   0  0  0  0  0  0  0  0  0  0  0  0
    1.8230    0.2040    0.5000 N   0  0  0  0  0  0  0  0  0  0  0  0
    0.5710   -0.1920    1.1660 C   0  0  1  0  0  0  0  0  0  0  0  0
    0.0670    1.0260    1.8070 C   0  0  0  0  0  0  0  0  0  0  0  0
   -0.8370    1.6070    1.0710 C   0  0  0  0  0  0  0  0  0  0  0  0
   -1.0350    0.8170   -0.1680 C   0  0  2  0  0  0  0  0  0  0  0  0
   -2.4770    0.7980   -0.4840 C   0  0  0  0  0  0  0  0  0  0  0  0
   -2.8810    1.2490   -1.5760 O   0  0  0  0  0  0  0  0  0  0  0  0
   -3.4320    0.2750    0.4290 N   0  0  0  0  0  0  0  0  0  0  0  0
   -4.8470    0.2600    0.1220 C   0  0  0  0  0  0  0  0  0  0  0  0
   -5.4200   -0.5420   -0.9090 C   0  0  0  0  0  0  0  0  0  0  0  0
   -4.9050   -1.4850   -1.6410 C   0  0  0  0  0  0  0  0  0  0  0  0
   -3.5830   -2.0850   -1.6870 C   0  0  0  0  0  0  0  0  0  0  0  0
   -3.7400   -3.8900   -1.4360 Cl  0  0  0  0  0  0  0  0  0  0  0  0
   -5.5530    1.1550    0.8330 C   0  0  0  0  0  0  0  0  0  0  0  0
   -6.9780    1.2550    0.6460 C   0  0  0  0  0  0  0  0  0  0  0  0
   -7.8790    0.2350    0.7020 C   0  0  0  0  0  0  0  0  0  0  0  0
   -9.2310    0.4020    0.4940 C   0  0  0  0  0  0  0  0  0  0  0  0
  -10.1540   -0.6140    0.5460 C   0  0  0  0  0  0  0  0  0  0  0  0
   -9.6210   -2.2360    0.8950 Cl  0  0  0  0  0  0  0  0  0  0  0  0
  -11.5030   -0.3960    0.3310 C   0  0  0  0  0  0  0  0  0  0  0  0
  -11.9350    0.8920    0.0540 C   0  0  0  0  0  0  0  0  0  0  0  0
  -11.0240    1.9350   -0.0040 C   0  0  0  0  0  0  0  0  0  0  0  0
   -9.6830    1.6740    0.2170 C   0  0  0  0  0  0  0  0  0  0  0  0
   -8.7860    2.7190    0.1570 C   0  0  0  0  0  0  0  0  0  0  0  0
   -7.4710    2.4980    0.3680 N   0  0  0  0  0  0  0  0  0  0  0  0
   -0.4870   -0.5620    0.1850 C   0  0  0  0  0  0  0  0  0  0  0  0
    7.8300   -0.9100    0.3970 C   0  0  0  0  0  0  0  0  0  0  0  0
    9.0550   -0.5820   -0.1840 C   0  0  0  0  0  0  0  0  0  0  0  0
   10.3560   -1.0190   -0.0060 C   0  0  0  0  0  0  0  0  0  0  0  0
   10.7520   -2.0600    0.9660 C   0  0  0  0  0  0  0  0  0  0  0  0
  1  2  1  0
  2  3  1  0
  2 40  2  0
  3  4  1  0
  4  5  2  0
  4 39  1  0
  5  6  1  0
  6  7  2  0
  7  8  1  0
  7 38  1  0
  8  9  1  0
  9 10  1  0
 10 11  2  0
 10 12  1  0
 13 12  1  6
 13 14  1  0
 13 37  1  0
 14 15  2  0
 15 16  1  0
 16 17  1  1
 16 37  1  0
 17 18  2  0
 17 19  1  0
 19 20  1  0
 20 21  1  0
 20 25  2  3
 21 22  2  3
 22 23  1  0
 23 24  1  0
 25 26  1  0
 26 27  2  0
 26 36  1  0
 27 28  1  0
 28 29  2  0
 28 34  1  0
 29 30  1  0
 29 31  1  0
 31 32  2  0
 32 33  1  0
 33 34  2  0
 34 35  1  0
 35 36  2  0
 38 39  2  0
 39 40  1  0
 40 41  1  0
M  END
