
     RDKit          3D

 37 39  0  0  0  0  0  0  0  0999 V2000
   -5.9640    1.2400   -1.2700 C   0  0  0  0  0  0  0  0  0  0  0  0
   -5.7930   -0.0580   -1.0960 C   0  0  0  0  0  0  0  0  0  0  0  0
   -5.8800   -0.5680    0.1720 O   0  0  0  0  0  0  0  0  0  0  0  0
   -5.5080   -0.9350   -2.2900 C   0  0  0  0  0  0  0  0  0  0  0  0
   -4.1970   -1.5710   -2.0470 N   0  0  0  0  0  0  0  0  0  0  0  0
   -3.0280   -0.8070   -1.8760 C   0  0  0  0  0  0  0  0  0  0  0  0
   -3.1580    0.4620   -1.9420 O   0  0  0  0  0  0  0  0  0  0  0  0
   -1.7400   -1.3140   -1.6400 N   0  0  0  0  0  0  0  0  0  0  0  0
   -1.5980   -2.7540   -1.5740 C   0  0  0  0  0  0  0  0  0  0  0  0
   -1.9160   -3.0960   -0.1090 C   0  0  0  0  0  0  0  0  0  0  0  0
   -0.7510   -2.4450    0.6560 C   0  0  0  0  0  0  0  0  0  0  0  0
   -0.9540   -1.0200    0.9610 C   0  0  0  0  0  0  0  0  0  0  0  0
   -0.5100   -0.0050   -0.0280 C   0  0  1  0  0  0  0  0  0  0  0  0
    0.7700    0.6250    0.3010 N   0  0  1  0  0  0  0  0  0  0  0  0
    0.6060    1.4400    1.4630 C   0  0  0  0  0  0  0  0  0  0  0  0
   -0.6990    2.1910    1.4690 C   0  0  0  0  0  0  0  0  0  0  0  0
   -1.7230    1.8120    2.3020 C   0  0  0  0  0  0  0  0  0  0  0  0
   -2.9140    2.5140    2.2860 C   0  0  0  0  0  0  0  0  0  0  0  0
   -3.0980    3.5830    1.4540 C   0  0  0  0  0  0  0  0  0  0  0  0
   -2.0910    3.9990    0.5980 C   0  0  0  0  0  0  0  0  0  0  0  0
   -2.2540    5.1290   -0.3010 C   0  0  0  0  0  0  0  0  0  0  0  0
   -1.3050    5.4500   -1.0440 O   0  0  0  0  0  0  0  0  0  0  0  0
   -3.4270    5.8450   -0.3470 O   0  0  0  0  0  0  0  0  0  0  0  0
   -3.6100    6.9610   -1.2270 C   0  0  0  0  0  0  0  0  0  0  0  0
   -0.9050    3.2700    0.6410 C   0  0  0  0  0  0  0  0  0  0  0  0
    1.7480   -0.3820    0.4130 C   0  0  0  0  0  0  0  0  0  0  0  0
    3.1840    0.0100    0.3900 C   0  0  1  0  0  0  0  0  0  0  0  0
    3.6330    0.9320    1.4860 C   0  0  0  0  0  0  0  0  0  0  0  0
    3.9820   -1.2640    0.5550 C   0  0  0  0  0  0  0  0  0  0  0  0
    3.8320   -2.0310    1.6900 C   0  0  0  0  0  0  0  0  0  0  0  0
    4.5680   -3.1870    1.8180 C   0  0  0  0  0  0  0  0  0  0  0  0
    5.4470   -3.5870    0.8360 C   0  0  0  0  0  0  0  0  0  0  0  0
    5.6120   -2.8340   -0.3070 C   0  0  0  0  0  0  0  0  0  0  0  0
    6.5670   -3.2820   -1.3620 C   0  0  0  0  0  0  0  0  0  0  0  0
    7.9090   -2.6900   -1.0450 C   0  0  0  0  0  0  0  0  0  0  0  0
    4.8680   -1.6840   -0.4140 C   0  0  0  0  0  0  0  0  0  0  0  0
   -0.6390   -0.3840   -1.4660 C   0  0  0  0  0  0  0  0  0  0  0  0
  1  2  2  0
  2  3  1  0
  2  4  1  0
  4  5  1  0
  5  6  1  0
  6  7  2  0
  6  8  1  0
  8  9  1  0
  8 37  1  0
  9 10  1  0
 10 11  1  0
 11 12  1  0
 13 12  1  1
 13 14  1  0
 13 37  1  0
 14 15  1  1
 14 26  1  0
 15 16  1  0
 16 17  2  0
 16 25  1  0
 17 18  1  0
 18 19  2  0
 19 20  1  0
 20 21  1  0
 20 25  2  0
 21 22  2  0
 21 23  1  0
 23 24  1  0
 26 27  1  0
 27 28  1  1
 27 29  1  0
 29 30  2  0
 29 36  1  0
 30 31  1  0
 31 32  2  0
 32 33  1  0
 33 34  1  0
 33 36  2  0
 34 35  1  0
M  CHG  1  14   1
M  END
