
     RDKit          3D

 37 39  0  0  0  0  0  0  0  0999 V2000
    5.9310    7.4750   -0.9060 C   0  0  0  0  0  0  0  0  0  0  0  0
    5.4270    6.2510   -0.8040 C   0  0  0  0  0  0  0  0  0  0  0  0
    6.2440    5.0980   -0.4750 C   0  0  0  0  0  0  0  0  0  0  0  0
    5.7660    3.8790   -0.3490 C   0  0  0  0  0  0  0  0  0  0  0  0
    4.3840    3.5290   -0.5090 C   0  0  0  0  0  0  0  0  0  0  0  0
    3.9200    2.3240   -0.3980 C   0  0  0  0  0  0  0  0  0  0  0  0
    2.4160    2.1730   -0.5980 C   0  0  0  0  0  0  0  0  0  0  0  0
    1.9450    1.6680    0.7630 C   0  0  0  0  0  0  0  0  0  0  0  0
    1.8090    0.1460    0.7690 C   0  0  1  0  0  0  0  0  0  0  0  0
    0.7320   -0.1360   -0.1540 N   0  0  0  0  0  0  0  0  0  0  0  0
   -0.5490   -0.5380    0.3160 C   0  0  0  0  0  0  0  0  0  0  0  0
   -0.6570   -0.6580    1.5770 O   0  0  0  0  0  0  0  0  0  0  0  0
   -1.6630   -0.7910   -0.5280 N   0  0  0  0  0  0  0  0  0  0  0  0
   -1.6300   -0.6780   -1.9520 C   0  0  0  0  0  0  0  0  0  0  0  0
   -2.9190   -1.1960    0.1120 C   0  0  0  0  0  0  0  0  0  0  0  0
   -3.6750    0.0360    0.5360 C   0  0  0  0  0  0  0  0  0  0  0  0
   -3.1830    1.2450    0.3330 C   0  0  0  0  0  0  0  0  0  0  0  0
   -4.9930   -0.1680    1.2050 C   0  0  0  0  0  0  0  0  0  0  0  0
   -6.0100   -0.7670    0.2830 C   0  0  2  0  0  0  0  0  0  0  0  0
   -6.3080    0.0540   -0.9440 C   0  0  0  0  0  0  0  0  0  0  0  0
   -7.1340    1.1050   -0.8200 O   0  0  0  0  0  0  0  0  0  0  0  0
   -6.8810    2.1390    0.0020 C   0  0  0  0  0  0  0  0  0  0  0  0
   -7.1800   -1.2750    0.9460 N   0  0  0  0  0  0  0  0  0  0  0  0
   -8.0480   -2.0410    0.1270 C   0  0  0  0  0  0  0  0  0  0  0  0
   -9.4750   -1.7450    0.4800 C   0  0  0  0  0  0  0  0  0  0  0  0
   -9.6790   -1.0600    1.4640 O   0  0  0  0  0  0  0  0  0  0  0  0
    3.0760   -0.5480    0.5110 C   0  0  0  0  0  0  0  0  0  0  0  0
    2.9470   -1.9020    0.7010 C   0  0  0  0  0  0  0  0  0  0  0  0
    4.0110   -2.8090    0.5250 C   0  0  0  0  0  0  0  0  0  0  0  0
    5.2330   -2.3160    0.1470 C   0  0  0  0  0  0  0  0  0  0  0  0
    5.3980   -0.9800   -0.0500 C   0  0  0  0  0  0  0  0  0  0  0  0
    4.3310   -0.0970    0.1310 C   0  0  0  0  0  0  0  0  0  0  0  0
    4.7160    1.2330   -0.1190 O   0  0  0  0  0  0  0  0  0  0  0  0
    6.3950   -3.2550   -0.0490 C   0  0  0  0  0  0  0  0  0  0  0  0
    6.2650   -4.3350    1.0100 C   0  0  0  0  0  0  0  0  0  0  0  0
    4.9830   -5.0600    0.9540 C   0  0  0  0  0  0  0  0  0  0  0  0
    3.7850   -4.2370    0.7530 C   0  0  0  0  0  0  0  0  0  0  0  0
  1  2  2  0
  2  3  1  0
  3  4  2  3
  4  5  1  0
  5  6  2  3
  6  7  1  0
  6 33  1  0
  7  8  1  0
  8  9  1  0
  9 10  1  6
  9 27  1  0
 10 11  1  0
 11 12  2  0
 11 13  1  0
 13 14  1  0
 13 15  1  0
 15 16  1  0
 16 17  2  0
 16 18  1  0
 19 18  1  1
 19 20  1  0
 19 23  1  0
 20 21  1  0
 21 22  1  0
 23 24  1  0
 24 25  1  0
 25 26  2  0
 27 28  2  0
 27 32  1  0
 28 29  1  0
 29 30  2  0
 29 37  1  0
 30 31  1  0
 30 34  1  0
 31 32  2  0
 32 33  1  0
 34 35  1  0
 35 36  1  0
 36 37  1  0
M  CHG  1  23   1
M  END
