
     RDKit          3D

 37 39  0  0  0  0  0  0  0  0999 V2000
   -6.4010    4.8150   -0.0790 C   0  0  0  0  0  0  0  0  0  0  0  0
   -4.9250    4.5230   -0.1280 C   0  0  0  0  0  0  0  0  0  0  0  0
   -4.6840    3.0220   -0.3000 C   0  0  0  0  0  0  0  0  0  0  0  0
   -3.2770    2.7730   -0.3410 N   0  0  0  0  0  0  0  0  0  0  0  0
   -2.7790    1.8700    0.6530 C   0  0  2  0  0  0  0  0  0  0  0  0
   -3.1930    2.3010    2.0630 C   0  0  0  0  0  0  0  0  0  0  0  0
   -2.7150    3.5530    2.3880 O   0  0  0  0  0  0  0  0  0  0  0  0
   -1.2800    1.8880    0.6450 C   0  0  0  0  0  0  0  0  0  0  0  0
   -0.6430    0.8740   -0.2730 C   0  0  1  0  0  0  0  0  0  0  0  0
    0.7240    0.9140   -0.0890 O   0  0  0  0  0  0  0  0  0  0  0  0
    1.7240    1.1260   -0.9800 C   0  0  0  0  0  0  0  0  0  0  0  0
    1.4750    1.3440   -2.3080 C   0  0  0  0  0  0  0  0  0  0  0  0
    2.5250    1.5540   -3.1830 C   0  0  0  0  0  0  0  0  0  0  0  0
    2.2420    1.7700   -4.5110 O   0  0  0  0  0  0  0  0  0  0  0  0
    3.2760    1.9870   -5.4270 C   0  0  0  0  0  0  0  0  0  0  0  0
    3.8160    1.5400   -2.7050 C   0  0  0  0  0  0  0  0  0  0  0  0
    4.0570    1.3180   -1.3520 C   0  0  0  0  0  0  0  0  0  0  0  0
    3.0280    1.1090   -0.4710 C   0  0  0  0  0  0  0  0  0  0  0  0
    3.2310    0.8880    0.8670 O   0  0  0  0  0  0  0  0  0  0  0  0
    4.4300    0.8190    1.5570 C   0  0  0  0  0  0  0  0  0  0  0  0
    5.2570   -0.2910    1.0340 C   0  0  0  0  0  0  0  0  0  0  0  0
    4.6710   -1.2460    0.2440 C   0  0  0  0  0  0  0  0  0  0  0  0
    5.3730   -2.3170   -0.2800 C   0  0  0  0  0  0  0  0  0  0  0  0
    6.7160   -2.4390   -0.0050 C   0  0  0  0  0  0  0  0  0  0  0  0
    7.5030   -3.5910   -0.5600 C   0  0  0  0  0  0  0  0  0  0  0  0
    7.2920   -1.4730    0.7880 C   0  0  0  0  0  0  0  0  0  0  0  0
    6.6050   -0.4040    1.3150 C   0  0  0  0  0  0  0  0  0  0  0  0
   -1.0860   -0.5590    0.0580 C   0  0  0  0  0  0  0  0  0  0  0  0
   -2.1970   -0.4560    1.0440 C   0  0  2  0  0  0  0  0  0  0  0  0
   -2.7170   -1.7120    1.4970 N   0  0  0  0  0  0  0  0  0  0  0  0
   -3.8010   -1.6630    2.4640 C   0  0  0  0  0  0  0  0  0  0  0  0
   -2.2790   -2.9990    1.0980 C   0  0  0  0  0  0  0  0  0  0  0  0
   -0.9380   -3.5490    1.4540 C   0  0  0  0  0  0  0  0  0  0  0  0
   -3.0410   -3.7650    0.3980 N   0  0  0  0  0  0  0  0  0  0  0  0
   -2.6820   -5.0820   -0.0510 C   0  0  0  0  0  0  0  0  0  0  0  0
   -3.0560   -6.1770    0.8790 C   0  0  0  0  0  0  0  0  0  0  0  0
   -3.2460    0.4480    0.4400 C   0  0  0  0  0  0  0  0  0  0  0  0
  1  2  1  0
  2  3  1  0
  3  4  1  0
  4  5  1  0
  5  6  1  1
  5  8  1  0
  5 37  1  0
  6  7  1  0
  8  9  1  0
  9 10  1  1
  9 28  1  0
 10 11  1  0
 11 12  2  0
 11 18  1  0
 12 13  1  0
 13 14  1  0
 13 16  2  0
 14 15  1  0
 16 17  1  0
 17 18  2  0
 18 19  1  0
 19 20  1  0
 20 21  1  0
 21 22  2  0
 21 27  1  0
 22 23  1  0
 23 24  2  0
 24 25  1  0
 24 26  1  0
 26 27  2  0
 28 29  1  0
 29 30  1  6
 29 37  1  0
 30 31  1  0
 30 32  1  0
 32 33  1  0
 32 34  2  3
 34 35  1  0
 35 36  1  0
M  CHG  1   4   1
M  END
