
     RDKit          3D

 37 39  0  0  0  0  0  0  0  0999 V2000
   -1.1930    0.1450    3.2930 C   0  0  0  0  0  0  0  0  0  0  0  0
   -1.6540   -0.8070    2.2350 N   0  0  0  0  0  0  0  0  0  0  0  0
   -0.5650   -0.9810    1.2710 C   0  0  1  0  0  0  0  0  0  0  0  0
   -0.7160   -2.1080    0.3690 C   0  0  0  0  0  0  0  0  0  0  0  0
    0.0190   -2.2440   -0.8000 C   0  0  0  0  0  0  0  0  0  0  0  0
   -0.0290   -3.3850   -1.6180 C   0  0  0  0  0  0  0  0  0  0  0  0
    0.7690   -3.4770   -2.8470 C   0  0  0  0  0  0  0  0  0  0  0  0
   -0.8330   -4.4360   -1.2720 C   0  0  0  0  0  0  0  0  0  0  0  0
   -1.5700   -4.3430   -0.1370 C   0  0  0  0  0  0  0  0  0  0  0  0
   -2.4410   -5.4830    0.2410 C   0  0  0  0  0  0  0  0  0  0  0  0
   -1.5100   -3.1900    0.6680 C   0  0  0  0  0  0  0  0  0  0  0  0
   -2.3330   -3.2740    1.7560 O   0  0  0  0  0  0  0  0  0  0  0  0
   -3.7230   -2.9420    1.5570 C   0  0  0  0  0  0  0  0  0  0  0  0
   -0.1550    0.3450    0.8270 C   0  0  1  0  0  0  0  0  0  0  0  0
    0.9890    0.5880   -0.1010 C   0  0  0  0  0  0  0  0  0  0  0  0
    2.2940    0.1000    0.3700 C   0  0  0  0  0  0  0  0  0  0  0  0
    2.3780   -0.4630    1.4730 O   0  0  0  0  0  0  0  0  0  0  0  0
    3.4940    0.2400   -0.3910 N   0  0  0  0  0  0  0  0  0  0  0  0
    3.4690    0.9050   -1.7000 C   0  0  0  0  0  0  0  0  0  0  0  0
    4.7560   -0.2550    0.0710 C   0  0  2  0  0  0  0  0  0  0  0  0
    5.8310    0.7670    0.2210 C   0  0  0  0  0  0  0  0  0  0  0  0
    7.0520    0.4320   -0.6210 C   0  0  0  0  0  0  0  0  0  0  0  0
    7.5710   -0.9360   -0.2800 C   0  0  0  0  0  0  0  0  0  0  0  0
    6.4790   -1.9560   -0.2880 C   0  0  0  0  0  0  0  0  0  0  0  0
    5.1830   -1.4150   -0.8270 C   0  0  0  0  0  0  0  0  0  0  0  0
   -1.3330    1.0760    0.2580 N   0  0  0  0  0  0  0  0  0  0  0  0
   -1.5910    2.4360    0.5320 C   0  0  0  0  0  0  0  0  0  0  0  0
   -0.8000    3.0980    1.2920 O   0  0  0  0  0  0  0  0  0  0  0  0
   -2.7460    3.1100   -0.0360 C   0  0  0  0  0  0  0  0  0  0  0  0
   -3.8190    3.4010    0.7730 C   0  0  0  0  0  0  0  0  0  0  0  0
   -4.9460    4.0500    0.3050 C   0  0  0  0  0  0  0  0  0  0  0  0
   -6.1160    4.3700    1.1610 C   0  0  0  0  0  0  0  0  0  0  0  0
   -4.9740    4.4120   -1.0340 C   0  0  0  0  0  0  0  0  0  0  0  0
   -3.9260    4.1410   -1.8750 C   0  0  0  0  0  0  0  0  0  0  0  0
   -3.9940    4.5210   -3.2030 O   0  0  0  0  0  0  0  0  0  0  0  0
   -5.1330    5.1840   -3.7030 C   0  0  0  0  0  0  0  0  0  0  0  0
   -2.8250    3.4900   -1.3550 C   0  0  0  0  0  0  0  0  0  0  0  0
  1  2  1  0
  3  2  1  6
  3  4  1  0
  3 14  1  0
  4  5  2  0
  4 11  1  0
  5  6  1  0
  6  7  1  0
  6  8  2  0
  8  9  1  0
  9 10  1  0
  9 11  2  0
 11 12  1  0
 12 13  1  0
 14 15  1  6
 14 26  1  0
 15 16  1  0
 16 17  2  0
 16 18  1  0
 18 19  1  0
 20 18  1  6
 20 21  1  0
 20 25  1  0
 21 22  1  0
 22 23  1  0
 23 24  1  0
 24 25  1  0
 26 27  1  0
 27 28  2  0
 27 29  1  0
 29 30  2  0
 29 37  1  0
 30 31  1  0
 31 32  1  0
 31 33  2  0
 33 34  1  0
 34 35  1  0
 34 37  2  0
 35 36  1  0
M  CHG  1   2   1
M  END
