
     RDKit          3D

 37 39  0  0  0  0  0  0  0  0999 V2000
   -2.6450    7.1830   -0.4780 C   0  0  0  0  0  0  0  0  0  0  0  0
   -1.1950    6.7060   -0.5130 C   0  0  0  0  0  0  0  0  0  0  0  0
   -1.0850    5.3530   -1.0880 C   0  0  0  0  0  0  0  0  0  0  0  0
   -1.0720    5.2310   -2.3460 O   0  0  0  0  0  0  0  0  0  0  0  0
   -0.9910    4.1290   -0.3050 C   0  0  0  0  0  0  0  0  0  0  0  0
   -1.0070    4.2340    1.0670 C   0  0  0  0  0  0  0  0  0  0  0  0
   -0.9170    3.0750    1.8390 C   0  0  0  0  0  0  0  0  0  0  0  0
   -0.8110    1.8210    1.2170 C   0  0  0  0  0  0  0  0  0  0  0  0
   -0.7230    0.6740    2.1480 C   0  0  0  0  0  0  0  0  0  0  0  0
   -0.7950    1.7220   -0.1420 C   0  0  0  0  0  0  0  0  0  0  0  0
   -0.6890    0.4730   -0.8240 N   0  0  0  0  0  0  0  0  0  0  0  0
   -1.8080   -0.3120   -1.2160 C   0  0  0  0  0  0  0  0  0  0  0  0
   -2.2660   -1.3800   -0.2790 C   0  0  2  0  0  0  0  0  0  0  0  0
   -1.2060   -2.2720   -0.1340 O   0  0  0  0  0  0  0  0  0  0  0  0
   -3.4340   -2.0590   -0.9190 C   0  0  0  0  0  0  0  0  0  0  0  0
   -4.0770   -3.1610   -0.1810 C   0  0  2  0  0  0  0  0  0  0  0  0
   -5.2410   -3.6480   -1.0740 C   0  0  0  0  0  0  0  0  0  0  0  0
   -4.6650   -2.6760    1.1350 C   0  0  0  0  0  0  0  0  0  0  0  0
   -3.2530   -4.3740    0.0910 C   0  0  0  0  0  0  0  0  0  0  0  0
   -4.1540   -5.3540    0.8570 C   0  0  0  0  0  0  0  0  0  0  0  0
    0.6210    0.0070   -1.1830 C   0  0  0  0  0  0  0  0  0  0  0  0
    0.7030   -1.0950   -1.7760 O   0  0  0  0  0  0  0  0  0  0  0  0
    1.8010    0.8340   -0.8490 C   0  0  0  0  0  0  0  0  0  0  0  0
    3.0590    0.3030   -1.2800 N   0  0  2  0  0  0  0  0  0  0  0  0
    2.9510   -0.2950   -2.6060 C   0  0  0  0  0  0  0  0  0  0  0  0
    3.5630   -0.6670   -0.3720 C   0  0  2  0  0  0  0  0  0  0  0  0
    2.7990   -0.7870    0.9040 C   0  0  0  0  0  0  0  0  0  0  0  0
    3.3110   -2.0180    1.5950 C   0  0  0  0  0  0  0  0  0  0  0  0
    2.5990   -2.9930    1.8800 O   0  0  0  0  0  0  0  0  0  0  0  0
    4.6880   -1.9970    1.9110 N   0  0  0  0  0  0  0  0  0  0  0  0
    5.5220   -1.2280    1.0040 C   0  0  0  0  0  0  0  0  0  0  0  0
    6.8870   -1.1670    1.2800 C   0  0  0  0  0  0  0  0  0  0  0  0
    7.7470   -0.4580    0.4850 C   0  0  0  0  0  0  0  0  0  0  0  0
    7.2170    0.1940   -0.6000 C   0  0  0  0  0  0  0  0  0  0  0  0
    5.8590    0.1470   -0.8950 C   0  0  0  0  0  0  0  0  0  0  0  0
    5.0120   -0.5740   -0.0790 C   0  0  0  0  0  0  0  0  0  0  0  0
   -0.8860    2.8850   -0.8800 C   0  0  0  0  0  0  0  0  0  0  0  0
  1  2  1  0
  2  3  1  0
  3  4  2  0
  3  5  1  0
  5  6  2  0
  5 37  1  0
  6  7  1  0
  7  8  2  0
  8  9  1  0
  8 10  1  0
 10 11  1  0
 10 37  2  0
 11 12  1  0
 11 21  1  0
 12 13  1  0
 13 14  1  6
 13 15  1  0
 15 16  1  0
 16 17  1  6
 16 18  1  0
 16 19  1  0
 19 20  1  0
 21 22  2  0
 21 23  1  0
 23 24  1  0
 24 25  1  6
 24 26  1  0
 26 27  1  1
 26 36  1  0
 27 28  1  0
 28 29  2  0
 28 30  1  0
 30 31  1  0
 31 32  2  0
 31 36  1  0
 32 33  1  0
 33 34  2  0
 34 35  1  0
 35 36  2  0
M  CHG  1  24   1
M  END
