
     RDKit          3D

 37 39  0  0  0  0  0  0  0  0999 V2000
   -8.0820   -1.2590    2.0710 C   0  0  0  0  0  0  0  0  0  0  0  0
   -8.0160   -2.6210    1.4880 C   0  0  0  0  0  0  0  0  0  0  0  0
   -7.0180   -2.9080    0.6800 C   0  0  0  0  0  0  0  0  0  0  0  0
   -5.9740   -1.9750    0.3310 C   0  0  0  0  0  0  0  0  0  0  0  0
   -4.9550   -2.2310   -0.4510 C   0  0  0  0  0  0  0  0  0  0  0  0
   -4.7600   -3.5140   -1.0720 C   0  0  0  0  0  0  0  0  0  0  0  0
   -4.1020   -3.5920   -2.2110 C   0  0  0  0  0  0  0  0  0  0  0  0
   -3.9190   -4.9640   -2.8260 C   0  0  0  0  0  0  0  0  0  0  0  0
   -3.6170   -2.4480   -2.8310 N   0  0  0  0  0  0  0  0  0  0  0  0
   -3.3440   -1.2920   -2.0470 C   0  0  1  0  0  0  0  0  0  0  0  0
   -3.8350   -0.0220   -2.7930 C   0  0  0  0  0  0  0  0  0  0  0  0
   -3.8660   -1.1980   -0.6790 C   0  0  2  0  0  0  0  0  0  0  0  0
   -2.8220   -1.5150    0.3320 C   0  0  0  0  0  0  0  0  0  0  0  0
   -2.9520   -2.5850    1.0400 O   0  0  0  0  0  0  0  0  0  0  0  0
   -1.6320   -0.7110    0.6140 C   0  0  0  0  0  0  0  0  0  0  0  0
   -1.3370    0.4310   -0.0620 C   0  0  0  0  0  0  0  0  0  0  0  0
   -0.2050    1.1800    0.2840 C   0  0  0  0  0  0  0  0  0  0  0  0
    0.6040    0.7700    1.2930 C   0  0  0  0  0  0  0  0  0  0  0  0
    1.7000    1.5220    1.7610 N   0  0  0  0  0  0  0  0  0  0  0  0
    2.3390    2.5880    1.0850 C   0  0  0  0  0  0  0  0  0  0  0  0
    1.9610    2.9410   -0.0670 O   0  0  0  0  0  0  0  0  0  0  0  0
    3.4190    3.2920    1.6770 N   0  0  0  0  0  0  0  0  0  0  0  0
    4.1630    4.3660    1.0820 C   0  0  0  0  0  0  0  0  0  0  0  0
    5.2670    3.8230    0.2470 C   0  0  0  0  0  0  0  0  0  0  0  0
    6.4410    4.5920    0.2190 C   0  0  0  0  0  0  0  0  0  0  0  0
    7.5330    4.1690   -0.5070 C   0  0  0  0  0  0  0  0  0  0  0  0
    7.5470    3.0060   -1.2330 C   0  0  0  0  0  0  0  0  0  0  0  0
    8.6170    2.5610   -1.9640 O   0  0  0  0  0  0  0  0  0  0  0  0
    9.8240    3.2500   -2.0490 C   0  0  0  0  0  0  0  0  0  0  0  0
    6.3690    2.2550   -1.1910 C   0  0  0  0  0  0  0  0  0  0  0  0
    5.2520    2.6630   -0.4620 C   0  0  0  0  0  0  0  0  0  0  0  0
    0.3220   -0.4000    1.9990 C   0  0  0  0  0  0  0  0  0  0  0  0
    1.1610   -0.9410    3.0850 C   0  0  0  0  0  0  0  0  0  0  0  0
    2.3480   -1.7290    2.6200 C   0  0  0  0  0  0  0  0  0  0  0  0
    3.2910   -1.0060    1.7670 C   0  0  0  0  0  0  0  0  0  0  0  0
    4.1990   -0.3520    2.2450 O   0  0  0  0  0  0  0  0  0  0  0  0
   -0.7900   -1.1010    1.6310 C   0  0  0  0  0  0  0  0  0  0  0  0
  1  2  1  0
  2  3  2  3
  3  4  1  0
  4  5  2  3
  5  6  1  0
  5 12  1  0
  6  7  2  0
  7  8  1  0
  7  9  1  0
  9 10  1  0
 10 11  1  6
 10 12  1  0
 12 13  1  1
 13 14  2  0
 13 15  1  0
 15 16  2  0
 15 37  1  0
 16 17  1  0
 17 18  2  0
 18 19  1  0
 18 32  1  0
 19 20  1  0
 20 21  2  0
 20 22  1  0
 22 23  1  0
 23 24  1  0
 24 25  2  0
 24 31  1  0
 25 26  1  0
 26 27  2  0
 27 28  1  0
 27 30  1  0
 28 29  1  0
 30 31  2  0
 32 33  1  0
 32 37  2  0
 33 34  1  0
 34 35  1  0
 35 36  2  0
M  CHG  1   9   1
M  END
