
     RDKit          3D

 37 39  0  0  0  0  0  0  0  0999 V2000
    8.9570   -2.7320   -0.5010 C   0  0  0  0  0  0  0  0  0  0  0  0
    9.6650   -1.4600   -0.8800 C   0  0  0  0  0  0  0  0  0  0  0  0
    8.7990   -0.2080   -0.8500 C   0  0  0  0  0  0  0  0  0  0  0  0
    8.1580    0.0560    0.3770 N   0  0  0  0  0  0  0  0  0  0  0  0
    6.7440    0.0370    0.4550 C   0  0  0  0  0  0  0  0  0  0  0  0
    6.0520    1.1480    0.9490 C   0  0  0  0  0  0  0  0  0  0  0  0
    4.6630    1.1460    1.1060 C   0  0  0  0  0  0  0  0  0  0  0  0
    3.9030    0.0580    0.7740 C   0  0  0  0  0  0  0  0  0  0  0  0
    2.4870   -0.1490    1.1200 C   0  0  0  0  0  0  0  0  0  0  0  0
    1.5050    0.6590    0.4100 N   0  0  0  0  0  0  0  0  0  0  0  0
    0.1180    0.3250    0.6790 C   0  0  0  0  0  0  0  0  0  0  0  0
   -0.0880   -0.5740    1.5860 O   0  0  0  0  0  0  0  0  0  0  0  0
   -0.9260    0.9680   -0.0740 C   0  0  1  0  0  0  0  0  0  0  0  0
   -2.3270    0.4490    0.1590 C   0  0  0  0  0  0  0  0  0  0  0  0
   -3.0080    0.8880    1.3040 C   0  0  0  0  0  0  0  0  0  0  0  0
   -4.3350    0.6000    1.4410 C   0  0  0  0  0  0  0  0  0  0  0  0
   -5.1090   -0.1220    0.5040 C   0  0  0  0  0  0  0  0  0  0  0  0
   -6.5530   -0.0900    0.5680 C   0  0  2  0  0  0  0  0  0  0  0  0
   -7.0930    0.8830   -0.5160 C   0  0  0  0  0  0  0  0  0  0  0  0
   -6.9340    0.7460    1.8380 C   0  0  0  0  0  0  0  0  0  0  0  0
   -7.3610   -1.2990    0.7090 C   0  0  0  0  0  0  0  0  0  0  0  0
   -4.4190   -0.5500   -0.6020 C   0  0  0  0  0  0  0  0  0  0  0  0
   -4.9640   -1.4400   -1.6090 C   0  0  0  0  0  0  0  0  0  0  0  0
   -4.6350   -2.8660   -1.3640 C   0  0  0  0  0  0  0  0  0  0  0  0
   -5.0210   -3.4390   -0.0320 C   0  0  0  0  0  0  0  0  0  0  0  0
   -3.0390   -0.2620   -0.7620 C   0  0  0  0  0  0  0  0  0  0  0  0
   -1.0330    2.4680    0.0030 C   0  0  1  0  0  0  0  0  0  0  0  0
    0.0120    3.3620   -0.4300 C   0  0  0  0  0  0  0  0  0  0  0  0
   -0.5650    4.7570   -0.5330 C   0  0  0  0  0  0  0  0  0  0  0  0
    0.2040    5.7300   -0.7640 O   0  0  0  0  0  0  0  0  0  0  0  0
   -1.9200    5.0910   -0.3770 O   0  0  0  0  0  0  0  0  0  0  0  0
   -2.8370    4.0300   -0.4900 C   0  0  0  0  0  0  0  0  0  0  0  0
   -4.0960    4.1770   -0.3820 O   0  0  0  0  0  0  0  0  0  0  0  0
   -2.2880    2.7660   -0.7400 N   0  0  0  0  0  0  0  0  0  0  0  0
    4.6010   -1.0230    0.2780 C   0  0  0  0  0  0  0  0  0  0  0  0
    3.8530   -2.2030   -0.2880 C   0  0  0  0  0  0  0  0  0  0  0  0
    5.9720   -1.0550    0.1260 C   0  0  0  0  0  0  0  0  0  0  0  0
  1  2  1  0
  2  3  1  0
  3  4  1  0
  4  5  1  0
  5  6  2  0
  5 37  1  0
  6  7  1  0
  7  8  2  0
  8  9  1  0
  8 35  1  0
  9 10  1  0
 10 11  1  0
 11 12  2  0
 13 11  1  1
 13 14  1  0
 13 27  1  0
 14 15  2  0
 14 26  1  0
 15 16  1  0
 16 17  2  0
 17 18  1  0
 17 22  1  0
 18 19  1  6
 18 20  1  0
 18 21  1  0
 22 23  1  0
 22 26  2  0
 23 24  1  0
 24 25  1  0
 27 28  1  6
 27 34  1  0
 28 29  1  0
 29 30  2  0
 29 31  1  0
 31 32  1  0
 32 33  2  0
 32 34  1  0
 35 36  1  0
 35 37  2  0
M  CHG  1   4   1
M  END
