
     RDKit          3D

 37 40  0  0  0  0  0  0  0  0999 V2000
    8.5620    2.2700   -2.1640 C   0  0  0  0  0  0  0  0  0  0  0  0
    9.5650    1.1950   -2.1370 C   0  0  0  0  0  0  0  0  0  0  0  0
    9.4470   -0.0190   -1.7030 C   0  0  0  0  0  0  0  0  0  0  0  0
    8.3400   -0.7160   -1.1160 C   0  0  0  0  0  0  0  0  0  0  0  0
    8.5770   -1.9400   -0.7930 O   0  0  0  0  0  0  0  0  0  0  0  0
    7.0660   -0.2370   -0.8600 N   0  0  0  0  0  0  0  0  0  0  0  0
    5.9620   -0.9250   -0.2860 C   0  0  0  0  0  0  0  0  0  0  0  0
    5.9420   -2.2790   -0.1600 C   0  0  0  0  0  0  0  0  0  0  0  0
    4.8110   -2.8680    0.4390 C   0  0  0  0  0  0  0  0  0  0  0  0
    3.7540   -2.1050    0.8860 C   0  0  0  0  0  0  0  0  0  0  0  0
    2.6360   -2.6700    1.4780 C   0  0  0  0  0  0  0  0  0  0  0  0
    1.6080   -1.9150    1.9110 N   0  0  0  0  0  0  0  0  0  0  0  0
    1.5940   -0.5760    1.8030 C   0  0  0  0  0  0  0  0  0  0  0  0
    0.4440    0.2050    2.2920 C   0  0  0  0  0  0  0  0  0  0  0  0
    0.4560    1.4560    2.1770 O   0  0  0  0  0  0  0  0  0  0  0  0
   -0.6430   -0.3750    2.8690 O   0  0  0  0  0  0  0  0  0  0  0  0
   -1.7770    0.2770    3.3600 C   0  0  0  0  0  0  0  0  0  0  0  0
   -2.5560    1.0740    2.3950 C   0  0  0  0  0  0  0  0  0  0  0  0
   -3.1190    0.4220    1.2510 N   0  0  1  0  0  0  0  0  0  0  0  0
   -2.7230    1.1460    0.0780 C   0  0  0  0  0  0  0  0  0  0  0  0
   -3.8280    1.9940   -0.5220 C   0  0  2  0  0  0  0  0  0  0  0  0
   -3.2280    2.6800   -1.7460 C   0  0  0  0  0  0  0  0  0  0  0  0
   -4.2630    3.5510   -2.4130 C   0  0  0  0  0  0  0  0  0  0  0  0
   -4.3190    3.0570    0.4220 C   0  0  0  0  0  0  0  0  0  0  0  0
   -3.3070    3.9350    0.7940 O   0  0  0  0  0  0  0  0  0  0  0  0
   -2.9890   -0.9990    1.1890 C   0  0  2  0  0  0  0  0  0  0  0  0
   -2.0030   -1.5800    0.2850 C   0  0  0  0  0  0  0  0  0  0  0  0
   -2.4840   -2.1900   -0.9990 C   0  0  0  0  0  0  0  0  0  0  0  0
   -3.8790   -1.8140   -1.4050 C   0  0  0  0  0  0  0  0  0  0  0  0
   -4.7440   -2.1190   -0.2390 C   0  0  0  0  0  0  0  0  0  0  0  0
   -5.9060   -2.7270   -0.1850 C   0  0  0  0  0  0  0  0  0  0  0  0
   -6.3310   -2.7660    1.2300 C   0  0  0  0  0  0  0  0  0  0  0  0
   -5.2300   -2.0900    1.9250 C   0  0  0  0  0  0  0  0  0  0  0  0
   -4.2830   -1.7020    1.0640 C   0  0  0  0  0  0  0  0  0  0  0  0
    2.6930    0.0140    1.2180 C   0  0  0  0  0  0  0  0  0  0  0  0
    3.7640   -0.7310    0.7630 C   0  0  0  0  0  0  0  0  0  0  0  0
    4.8700   -0.1670    0.1780 C   0  0  0  0  0  0  0  0  0  0  0  0
  1  2  1  0
  2  3  2  3
  3  4  1  0
  4  5  2  0
  4  6  1  0
  6  7  1  0
  7  8  2  0
  7 37  1  0
  8  9  1  0
  9 10  2  0
 10 11  1  0
 10 36  1  0
 11 12  2  0
 12 13  1  0
 13 14  1  0
 13 35  2  0
 14 15  2  0
 14 16  1  0
 16 17  1  0
 17 18  1  0
 19 18  1  1
 19 20  1  0
 19 26  1  0
 21 20  1  1
 21 22  1  0
 21 24  1  0
 22 23  1  0
 24 25  1  0
 26 27  1  6
 26 34  1  0
 27 28  1  0
 28 29  1  0
 29 30  1  0
 30 31  2  0
 30 34  1  0
 31 32  1  0
 32 33  1  0
 33 34  2  0
 35 36  1  0
 36 37  2  0
M  CHG  1  19   1
M  END
