
     RDKit          3D

 37 40  0  0  0  0  0  0  0  0999 V2000
   -2.2080   -1.6030   -1.4960 O   0  0  0  0  0  0  0  0  0  0  0  0
   -2.1540   -0.3180   -1.4720 C   0  0  0  0  0  0  0  0  0  0  0  0
   -0.9960    0.3450   -2.0560 C   0  0  0  0  0  0  0  0  0  0  0  0
    0.1470    0.5720   -1.2010 N   0  0  0  0  0  0  0  0  0  0  0  0
    0.3690    1.7090   -0.5210 C   0  0  0  0  0  0  0  0  0  0  0  0
   -0.7880    3.0180   -0.6640 Cl  0  0  0  0  0  0  0  0  0  0  0  0
    1.4990    1.8190    0.2410 C   0  0  0  0  0  0  0  0  0  0  0  0
    2.3890    0.8330    0.3300 N   0  0  0  0  0  0  0  0  0  0  0  0
    2.2030   -0.3470   -0.3550 C   0  0  0  0  0  0  0  0  0  0  0  0
    3.1640   -1.3730   -0.2020 N   0  0  0  0  0  0  0  0  0  0  0  0
    4.4030   -1.1980    0.5670 C   0  0  0  0  0  0  0  0  0  0  0  0
    5.3180   -0.2800   -0.2240 C   0  0  2  0  0  0  0  0  0  0  0  0
    4.7960    0.9580   -0.4490 F   0  0  0  0  0  0  0  0  0  0  0  0
    5.5380   -0.8970   -1.4620 F   0  0  0  0  0  0  0  0  0  0  0  0
    6.6410   -0.2070    0.4540 C   0  0  0  0  0  0  0  0  0  0  0  0
    7.0270    0.9260    1.1560 C   0  0  0  0  0  0  0  0  0  0  0  0
    8.2720    1.0040    1.7600 C   0  0  0  0  0  0  0  0  0  0  0  0
    9.1630   -0.0520    1.6820 C   0  0  0  0  0  0  0  0  0  0  0  0
    8.7270   -1.1630    0.9680 C   0  0  0  0  0  0  0  0  0  0  0  0
    7.5080   -1.2220    0.3810 N   0  0  0  0  0  0  0  0  0  0  0  0
    7.1600   -2.3390   -0.3060 O   0  0  0  0  0  0  0  0  0  0  0  0
    1.0660   -0.4200   -1.1010 C   0  0  0  0  0  0  0  0  0  0  0  0
    0.8670   -1.4880   -1.7260 O   0  0  0  0  0  0  0  0  0  0  0  0
   -3.2220    0.4080   -0.8830 N   0  0  0  0  0  0  0  0  0  0  0  0
   -4.3570   -0.3030   -0.3420 C   0  0  0  0  0  0  0  0  0  0  0  0
   -5.3750    0.5360    0.3220 C   0  0  0  0  0  0  0  0  0  0  0  0
   -5.2130    1.8980    0.5140 C   0  0  0  0  0  0  0  0  0  0  0  0
   -6.2160    2.5830    1.1760 C   0  0  0  0  0  0  0  0  0  0  0  0
   -6.0820    4.3090    1.4730 Cl  0  0  0  0  0  0  0  0  0  0  0  0
   -7.3480    1.9460    1.6380 C   0  0  0  0  0  0  0  0  0  0  0  0
   -7.4830    0.5860    1.4320 C   0  0  0  0  0  0  0  0  0  0  0  0
   -6.5070   -0.1440    0.7730 C   0  0  0  0  0  0  0  0  0  0  0  0
   -6.6720   -1.5380    0.5570 N   0  0  0  0  0  0  0  0  0  0  0  0
   -7.1290   -2.0540   -0.5990 C   0  0  0  0  0  0  0  0  0  0  0  0
   -7.1690   -3.3800   -0.4590 N   0  0  0  0  0  0  0  0  0  0  0  0
   -6.7440   -3.6960    0.7380 N   0  0  0  0  0  0  0  0  0  0  0  0
   -6.4430   -2.5480    1.3570 N   0  0  0  0  0  0  0  0  0  0  0  0
  1  2  2  0
  2  3  1  0
  2 24  1  0
  3  4  1  0
  4  5  1  0
  4 22  1  0
  5  6  1  0
  5  7  2  0
  7  8  1  0
  8  9  2  0
  9 10  1  0
  9 22  1  0
 10 11  1  0
 11 12  1  0
 12 13  1  6
 12 14  1  0
 12 15  1  0
 15 16  2  0
 15 20  1  0
 16 17  1  0
 17 18  2  0
 18 19  1  0
 19 20  2  0
 20 21  1  0
 22 23  2  0
 24 25  1  0
 25 26  1  0
 26 27  2  0
 26 32  1  0
 27 28  1  0
 28 29  1  0
 28 30  2  0
 30 31  1  0
 31 32  2  0
 32 33  1  0
 33 34  1  0
 33 37  1  0
 34 35  2  0
 35 36  1  0
 36 37  2  0
M  CHG  2  20   1  21  -1
M  END
