
     RDKit          3D

 37 39  0  0  0  0  0  0  0  0999 V2000
    6.8390    2.4500   -2.2290 C   0  0  0  0  0  0  0  0  0  0  0  0
    7.0280    0.9820   -2.4350 C   0  0  0  0  0  0  0  0  0  0  0  0
    5.8620    0.1730   -1.9740 C   0  0  1  0  0  0  0  0  0  0  0  0
    4.6030    0.5720   -2.7300 C   0  0  0  0  0  0  0  0  0  0  0  0
    6.1040   -1.2860   -2.1980 C   0  0  0  0  0  0  0  0  0  0  0  0
    5.5860    0.4740   -0.5600 N   0  0  0  0  0  0  0  0  0  0  0  0
    4.5380   -0.1700    0.1270 C   0  0  0  0  0  0  0  0  0  0  0  0
    3.8970   -1.0150   -0.6160 O   0  0  0  0  0  0  0  0  0  0  0  0
    4.1580    0.0390    1.4920 C   0  0  0  0  0  0  0  0  0  0  0  0
    3.1750   -0.7000    1.9870 C   0  0  0  0  0  0  0  0  0  0  0  0
    2.4410   -1.7140    1.2970 C   0  0  0  0  0  0  0  0  0  0  0  0
    3.0460   -2.8850    0.8810 C   0  0  0  0  0  0  0  0  0  0  0  0
    2.3560   -3.8610    0.2120 C   0  0  0  0  0  0  0  0  0  0  0  0
    1.0330   -3.6420   -0.0360 C   0  0  0  0  0  0  0  0  0  0  0  0
    0.3940   -2.4730    0.3710 C   0  0  0  0  0  0  0  0  0  0  0  0
    1.0770   -1.4910    1.0420 C   0  0  0  0  0  0  0  0  0  0  0  0
    0.4580   -0.2050    1.4840 C   0  0  0  0  0  0  0  0  0  0  0  0
   -0.9560   -0.1760    1.1880 N   0  0  0  0  0  0  0  0  0  0  0  0
   -1.8560   -1.0770    1.8430 C   0  0  0  0  0  0  0  0  0  0  0  0
   -1.3060   -1.8690    2.6890 O   0  0  0  0  0  0  0  0  0  0  0  0
   -3.2980   -1.1510    1.6220 C   0  0  0  0  0  0  0  0  0  0  0  0
   -3.8230   -0.2270    0.6540 N   0  0  2  0  0  0  0  0  0  0  0  0
   -4.0840    1.0230    1.2880 C   0  0  0  0  0  0  0  0  0  0  0  0
   -5.2880    1.0780    2.1460 C   0  0  0  0  0  0  0  0  0  0  0  0
   -6.1660   -0.1120    2.1800 C   0  0  0  0  0  0  0  0  0  0  0  0
   -5.9870   -1.1150    1.0860 C   0  0  0  0  0  0  0  0  0  0  0  0
   -5.0320   -0.7800    0.0180 C   0  0  1  0  0  0  0  0  0  0  0  0
   -5.4680    0.1760   -0.9810 C   0  0  0  0  0  0  0  0  0  0  0  0
   -6.6630    0.8600   -0.9690 C   0  0  0  0  0  0  0  0  0  0  0  0
   -6.6970    1.6720   -2.0910 C   0  0  0  0  0  0  0  0  0  0  0  0
   -7.7700    2.5980   -2.5210 C   0  0  0  0  0  0  0  0  0  0  0  0
   -5.5790    1.4890   -2.7480 O   0  0  0  0  0  0  0  0  0  0  0  0
   -4.8150    0.5980   -2.1130 C   0  0  0  0  0  0  0  0  0  0  0  0
   -3.5010    0.1590   -2.5700 C   0  0  0  0  0  0  0  0  0  0  0  0
    4.7480    0.9990    2.3970 C   0  0  0  0  0  0  0  0  0  0  0  0
    5.8200    1.9390    2.1520 C   0  0  0  0  0  0  0  0  0  0  0  0
    4.2490    1.0220    3.5930 O   0  0  0  0  0  0  0  0  0  0  0  0
  1  2  1  0
  2  3  1  0
  3  4  1  6
  3  5  1  0
  3  6  1  0
  6  7  1  0
  7  8  2  0
  7  9  1  0
  9 10  2  3
  9 35  1  0
 10 11  1  0
 11 12  2  0
 11 16  1  0
 12 13  1  0
 13 14  2  0
 14 15  1  0
 15 16  2  0
 16 17  1  0
 17 18  1  0
 18 19  1  0
 19 20  2  0
 19 21  1  0
 22 21  1  1
 22 23  1  0
 22 27  1  0
 23 24  1  0
 24 25  1  0
 25 26  1  0
 26 27  1  0
 27 28  1  6
 28 29  1  0
 28 33  2  0
 29 30  2  0
 30 31  1  0
 30 32  1  0
 32 33  1  0
 33 34  1  0
 35 36  1  0
 35 37  2  0
M  CHG  1  22   1
M  END
