
     RDKit          3D

 34 37  0  0  0  0  0  0  0  0999 V2000
   -8.6680   -1.0450   -0.2610 C   0  0  0  0  0  0  0  0  0  0  0  0
   -7.8360   -1.5960    0.8000 N   0  0  0  0  0  0  0  0  0  0  0  0
   -7.0780   -2.7820    0.6220 C   0  0  0  0  0  0  0  0  0  0  0  0
   -7.0150   -3.5150   -0.4170 O   0  0  0  0  0  0  0  0  0  0  0  0
   -6.3680   -3.0810    1.7630 O   0  0  0  0  0  0  0  0  0  0  0  0
   -6.4440   -1.9430    2.6120 C   0  0  1  0  0  0  0  0  0  0  0  0
   -5.2350   -1.0750    2.4940 C   0  0  0  0  0  0  0  0  0  0  0  0
   -5.6580    0.1250    1.8350 N   0  0  0  0  0  0  0  0  0  0  0  0
   -4.8780    0.9880    1.0240 C   0  0  0  0  0  0  0  0  0  0  0  0
   -5.4230    2.0030    0.5280 O   0  0  0  0  0  0  0  0  0  0  0  0
   -3.4290    0.7040    0.7580 C   0  0  0  0  0  0  0  0  0  0  0  0
   -2.8420    1.7760   -0.1370 C   0  0  0  0  0  0  0  0  0  0  0  0
   -1.3940    1.5050   -0.4120 C   0  0  0  0  0  0  0  0  0  0  0  0
   -0.8500    0.5130    0.0710 O   0  0  0  0  0  0  0  0  0  0  0  0
   -0.7100    2.4260   -1.2320 N   0  0  0  0  0  0  0  0  0  0  0  0
    0.6400    2.3520   -1.6040 C   0  0  0  0  0  0  0  0  0  0  0  0
    1.1730    3.5800   -2.5840 S   0  0  0  0  0  0  0  0  0  0  0  0
    1.5270    1.3700   -1.1870 N   0  0  0  0  0  0  0  0  0  0  0  0
    2.8980    1.2090   -1.5250 C   0  0  0  0  0  0  0  0  0  0  0  0
    3.4790    1.6810   -2.6700 C   0  0  0  0  0  0  0  0  0  0  0  0
    4.8390    1.5350   -2.9590 C   0  0  0  0  0  0  0  0  0  0  0  0
    5.6470    0.8880   -2.0610 C   0  0  0  0  0  0  0  0  0  0  0  0
    5.1080    0.3940   -0.8930 C   0  0  0  0  0  0  0  0  0  0  0  0
    3.7630    0.5570   -0.6420 C   0  0  0  0  0  0  0  0  0  0  0  0
    5.9060   -0.2900    0.0780 N   0  0  0  0  0  0  0  0  0  0  0  0
    7.3350    0.0250    0.2260 C   0  0  0  0  0  0  0  0  0  0  0  0
    8.0080   -0.4350   -1.0420 C   0  0  2  0  0  0  0  0  0  0  0  0
    9.4930   -0.4640   -1.0020 C   0  0  0  0  0  0  0  0  0  0  0  0
    9.9740   -1.3950    0.0660 C   0  0  2  0  0  0  0  0  0  0  0  0
   11.3600   -1.4500    0.1240 F   0  0  0  0  0  0  0  0  0  0  0  0
    9.5100   -2.6580   -0.2150 F   0  0  0  0  0  0  0  0  0  0  0  0
    7.3930    0.6680   -2.3650 S   0  0  0  0  0  0  0  0  0  0  0  0
   -7.0770    0.2930    2.1620 C   0  0  0  0  0  0  0  0  0  0  0  0
   -7.6040   -1.1300    2.1300 C   0  0  1  0  0  0  0  0  0  0  0  0
  1  2  1  0
  2  3  1  0
  2 34  1  0
  3  4  2  0
  3  5  1  0
  5  6  1  0
  6  7  1  6
  6 34  1  0
  7  8  1  0
  8  9  1  0
  8 33  1  0
  9 10  2  0
  9 11  1  0
 11 12  1  0
 12 13  1  0
 13 14  2  0
 13 15  1  0
 15 16  1  0
 16 17  2  0
 16 18  1  0
 18 19  1  0
 19 20  2  0
 19 24  1  0
 20 21  1  0
 21 22  2  0
 22 23  1  0
 22 32  1  0
 23 24  2  0
 23 25  1  0
 25 26  1  0
 26 27  1  0
 27 28  1  1
 27 32  1  0
 28 29  1  0
 29 30  1  6
 29 31  1  0
 34 33  1  6
M  END
