
     RDKit          3D

 34 37  0  0  0  0  0  0  0  0999 V2000
    4.8080    2.5300   -0.4990 C   0  0  0  0  0  0  0  0  0  0  0  0
    3.5050    1.7700   -0.5780 C   0  0  0  0  0  0  0  0  0  0  0  0
    3.7410    0.3390   -1.0330 C   0  0  2  0  0  0  0  0  0  0  0  0
    2.4590   -0.3830   -1.1140 N   0  0  0  0  0  0  0  0  0  0  0  0
    1.5080   -0.1050   -2.1030 C   0  0  0  0  0  0  0  0  0  0  0  0
    1.7900    0.7600   -3.1460 C   0  0  0  0  0  0  0  0  0  0  0  0
    0.8930    1.0420   -4.1530 C   0  0  0  0  0  0  0  0  0  0  0  0
   -0.3430    0.4370   -4.1230 C   0  0  0  0  0  0  0  0  0  0  0  0
   -0.6190   -0.3980   -3.1190 N   0  0  0  0  0  0  0  0  0  0  0  0
    0.2620   -0.6880   -2.1120 C   0  0  0  0  0  0  0  0  0  0  0  0
   -0.1070   -1.5940   -1.0840 N   0  0  0  0  0  0  0  0  0  0  0  0
   -1.4290   -2.1800   -1.1210 C   0  0  0  0  0  0  0  0  0  0  0  0
   -2.5460   -1.1780   -0.9520 C   0  0  0  0  0  0  0  0  0  0  0  0
   -2.4060   -0.5170    0.3080 N   0  0  2  0  0  0  0  0  0  0  0  0
   -2.5720   -1.4110    1.4340 C   0  0  0  0  0  0  0  0  0  0  0  0
   -3.9590   -1.9060    1.5920 C   0  0  0  0  0  0  0  0  0  0  0  0
   -4.9000   -1.2040    2.3160 C   0  0  0  0  0  0  0  0  0  0  0  0
   -6.1830   -1.6550    2.4680 C   0  0  0  0  0  0  0  0  0  0  0  0
   -6.5550   -2.8170    1.9000 N   0  0  0  0  0  0  0  0  0  0  0  0
   -5.6730   -3.5330    1.1870 C   0  0  0  0  0  0  0  0  0  0  0  0
   -4.3690   -3.0920    1.0220 C   0  0  0  0  0  0  0  0  0  0  0  0
   -3.2430    0.6290    0.4740 C   0  0  0  0  0  0  0  0  0  0  0  0
   -3.0570    1.7020   -0.5450 C   0  0  1  0  0  0  0  0  0  0  0  0
   -4.0370    2.8290   -0.1880 C   0  0  0  0  0  0  0  0  0  0  0  0
   -3.1920    3.6380    0.7920 C   0  0  0  0  0  0  0  0  0  0  0  0
   -1.8820    3.7510    0.0170 C   0  0  0  0  0  0  0  0  0  0  0  0
   -1.6910    2.3310   -0.4710 C   0  0  0  0  0  0  0  0  0  0  0  0
    4.6640   -0.2840   -0.0620 C   0  0  0  0  0  0  0  0  0  0  0  0
    4.1670   -0.6320    1.1740 C   0  0  0  0  0  0  0  0  0  0  0  0
    4.9780   -1.2270    2.1400 C   0  0  0  0  0  0  0  0  0  0  0  0
    6.2910   -1.4800    1.8790 C   0  0  0  0  0  0  0  0  0  0  0  0
    7.1270   -2.1220    2.9440 C   0  0  0  0  0  0  0  0  0  0  0  0
    6.8120   -1.1400    0.6460 C   0  0  0  0  0  0  0  0  0  0  0  0
    5.9880   -0.5430   -0.3150 C   0  0  0  0  0  0  0  0  0  0  0  0
  1  2  1  0
  3  2  1  1
  3  4  1  0
  3 28  1  0
  4  5  1  0
  5  6  2  0
  5 10  1  0
  6  7  1  0
  7  8  2  0
  8  9  1  0
  9 10  2  0
 10 11  1  0
 11 12  1  0
 12 13  1  0
 14 13  1  6
 14 15  1  0
 14 22  1  0
 15 16  1  0
 16 17  2  0
 16 21  1  0
 17 18  1  0
 18 19  2  0
 19 20  1  0
 20 21  2  0
 23 22  1  1
 23 24  1  0
 23 27  1  0
 24 25  1  0
 25 26  1  0
 26 27  1  0
 28 29  2  0
 28 34  1  0
 29 30  1  0
 30 31  2  0
 31 32  1  0
 31 33  1  0
 33 34  2  0
M  CHG  2  14   1  19   1
M  END
