
     RDKit          3D

 34 36  0  0  0  0  0  0  0  0999 V2000
   -5.1310    0.8170   -2.7300 C   0  0  0  0  0  0  0  0  0  0  0  0
   -4.4760    0.0980   -1.8590 C   0  0  0  0  0  0  0  0  0  0  0  0
   -3.7850    0.8420   -0.7260 C   0  0  0  0  0  0  0  0  0  0  0  0
   -3.8990    0.5030    0.5380 C   0  0  0  0  0  0  0  0  0  0  0  0
   -4.6110    1.1960    1.6750 C   0  0  0  0  0  0  0  0  0  0  0  0
   -5.6370    0.2030    2.2820 C   0  0  0  0  0  0  0  0  0  0  0  0
   -3.2790   -0.8200    1.0110 C   0  0  0  0  0  0  0  0  0  0  0  0
   -3.0340   -1.8700    0.2660 C   0  0  0  0  0  0  0  0  0  0  0  0
   -1.9070   -2.6330   -0.0380 N   0  0  0  0  0  0  0  0  0  0  0  0
   -0.5570   -2.2100   -0.1960 C   0  0  0  0  0  0  0  0  0  0  0  0
    0.3530   -2.8340    0.4080 O   0  0  0  0  0  0  0  0  0  0  0  0
   -0.1010   -1.0680   -1.0300 C   0  0  0  0  0  0  0  0  0  0  0  0
    0.5940   -0.0660   -0.2870 N   0  0  0  0  0  0  0  0  0  0  0  0
    1.9270   -0.2300    0.1600 C   0  0  0  0  0  0  0  0  0  0  0  0
    2.5140   -1.2990   -0.1100 O   0  0  0  0  0  0  0  0  0  0  0  0
    2.6580    0.7980    0.9290 C   0  0  0  0  0  0  0  0  0  0  0  0
    3.9870    0.3540    1.2430 N   0  0  0  0  0  0  0  0  0  0  0  0
    4.4090   -0.3650    2.3960 C   0  0  0  0  0  0  0  0  0  0  0  0
    3.7440   -0.5510    3.4530 O   0  0  0  0  0  0  0  0  0  0  0  0
    5.7650   -0.8790    2.1860 C   0  0  0  0  0  0  0  0  0  0  0  0
    6.2800   -0.0500    1.1230 N   0  0  0  0  0  0  0  0  0  0  0  0
    7.6900    0.1190    0.8220 C   0  0  0  0  0  0  0  0  0  0  0  0
    8.0470   -0.9670   -0.1820 C   0  0  0  0  0  0  0  0  0  0  0  0
    5.1600    0.5420    0.4620 C   0  0  0  0  0  0  0  0  0  0  0  0
    5.2660    1.1330   -0.6530 O   0  0  0  0  0  0  0  0  0  0  0  0
   -0.0960    1.1690    0.0200 C   0  0  0  0  0  0  0  0  0  0  0  0
   -0.5590    1.8730   -1.2350 C   0  0  0  0  0  0  0  0  0  0  0  0
   -1.8520    2.5580   -0.9200 C   0  0  0  0  0  0  0  0  0  0  0  0
   -3.0290    1.8570   -1.3880 N   0  0  0  0  0  0  0  0  0  0  0  0
   -4.3760   -2.6510   -0.7860 S   0  0  0  0  0  0  0  0  0  0  0  0
   -4.5080   -1.3780   -2.1000 C   0  0  0  0  0  0  0  0  0  0  0  0
   -4.5820   -1.8560   -3.2870 C   0  0  0  0  0  0  0  0  0  0  0  0
   -4.6130   -3.1960   -3.4530 F   0  0  0  0  0  0  0  0  0  0  0  0
   -4.5910   -1.1120   -4.4010 F   0  0  0  0  0  0  0  0  0  0  0  0
  1  2  2  0
  2  3  1  0
  2 31  1  0
  3  4  2  0
  3 29  1  0
  4  5  1  0
  4  7  1  0
  5  6  1  0
  7  8  2  0
  8  9  1  0
  8 30  1  0
  9 10  1  0
 10 11  2  0
 10 12  1  0
 12 13  1  0
 13 14  1  0
 13 26  1  0
 14 15  2  0
 14 16  1  0
 16 17  1  0
 17 18  1  0
 17 24  1  0
 18 19  2  0
 18 20  1  0
 20 21  1  0
 21 22  1  0
 21 24  1  0
 22 23  1  0
 24 25  2  0
 26 27  1  0
 27 28  1  0
 28 29  1  0
 30 31  1  0
 31 32  2  3
 32 33  1  0
 32 34  1  0
M  END
