
     RDKit          3D

 33 36  0  0  0  0  0  0  0  0999 V2000
   -5.7060   -5.2320   -1.5970 C   0  0  0  0  0  0  0  0  0  0  0  0
   -5.4260   -4.8180   -0.3810 C   0  0  0  0  0  0  0  0  0  0  0  0
   -4.5660   -3.6670   -0.0830 C   0  0  0  0  0  0  0  0  0  0  0  0
   -3.9820   -2.9480   -1.1000 C   0  0  0  0  0  0  0  0  0  0  0  0
   -3.1550   -1.8540   -0.8270 C   0  0  0  0  0  0  0  0  0  0  0  0
   -2.9050   -1.4730    0.4740 C   0  0  0  0  0  0  0  0  0  0  0  0
   -2.0410   -0.3170    0.8160 C   0  0  2  0  0  0  0  0  0  0  0  0
   -2.7850    0.9750    0.9600 C   0  0  0  0  0  0  0  0  0  0  0  0
   -3.5300    1.3800   -0.2850 C   0  0  0  0  0  0  0  0  0  0  0  0
   -4.2600    2.6690   -0.1260 C   0  0  0  0  0  0  0  0  0  0  0  0
   -5.2750    2.6190    1.0050 C   0  0  0  0  0  0  0  0  0  0  0  0
   -6.0070    3.9450    1.1220 C   0  0  0  0  0  0  0  0  0  0  0  0
   -0.8840   -0.2280   -0.0240 N   0  0  0  0  0  0  0  0  0  0  0  0
   -0.1240    0.9710    0.2570 C   0  0  0  0  0  0  0  0  0  0  0  0
    1.2610    0.8540   -0.3280 C   0  0  0  0  0  0  0  0  0  0  0  0
    1.4430    1.0650   -1.6330 N   0  0  0  0  0  0  0  0  0  0  0  0
    2.7060    0.9690   -2.1400 C   0  0  0  0  0  0  0  0  0  0  0  0
    2.9170    1.1830   -3.5020 C   0  0  0  0  0  0  0  0  0  0  0  0
    1.7770    1.5050   -4.3880 C   0  0  0  0  0  0  0  0  0  0  0  0
    4.1950    1.0820   -4.0160 C   0  0  0  0  0  0  0  0  0  0  0  0
    5.2590    0.7690   -3.1770 C   0  0  0  0  0  0  0  0  0  0  0  0
    5.0680    0.5570   -1.8480 C   0  0  0  0  0  0  0  0  0  0  0  0
    3.7760    0.6600   -1.3310 C   0  0  0  0  0  0  0  0  0  0  0  0
    3.5620    0.4410    0.0360 C   0  0  0  0  0  0  0  0  0  0  0  0
    4.6250    0.1330    0.9090 N   0  0  0  0  0  0  0  0  0  0  0  0
    5.0190    1.0720    1.9300 C   0  0  0  0  0  0  0  0  0  0  0  0
    6.0840    0.5210    2.8330 C   0  0  0  0  0  0  0  0  0  0  0  0
    5.8070   -0.8720    3.2880 C   0  0  0  0  0  0  0  0  0  0  0  0
    5.2110   -1.7420    2.2300 C   0  0  0  0  0  0  0  0  0  0  0  0
    5.3730   -1.0980    0.8420 C   0  0  0  0  0  0  0  0  0  0  0  0
    2.2800    0.5550    0.4630 N   0  0  0  0  0  0  0  0  0  0  0  0
   -3.5020   -2.2110    1.4640 C   0  0  0  0  0  0  0  0  0  0  0  0
   -4.3220   -3.2920    1.2230 C   0  0  0  0  0  0  0  0  0  0  0  0
  1  2  2  0
  2  3  1  0
  3  4  2  0
  3 33  1  0
  4  5  1  0
  5  6  2  0
  6  7  1  0
  6 32  1  0
  7  8  1  6
  7 13  1  0
  8  9  1  0
  9 10  1  0
 10 11  1  0
 11 12  1  0
 13 14  1  0
 14 15  1  0
 15 16  2  0
 15 31  1  0
 16 17  1  0
 17 18  2  0
 17 23  1  0
 18 19  1  0
 18 20  1  0
 20 21  2  0
 21 22  1  0
 22 23  2  0
 23 24  1  0
 24 25  1  0
 24 31  2  0
 25 26  1  0
 25 30  1  0
 26 27  1  0
 27 28  1  0
 28 29  1  0
 29 30  1  0
 32 33  2  0
M  CHG  2  13   1  31   1
M  END
