
     RDKit          3D

 31 34  0  0  0  0  0  0  0  0999 V2000
   -5.0190    2.4850   -0.5600 C   0  0  0  0  0  0  0  0  0  0  0  0
   -4.0430    1.3100   -0.3280 C   0  0  0  0  0  0  0  0  0  0  0  0
   -4.6110    0.1550   -1.0320 C   0  0  0  0  0  0  0  0  0  0  0  0
   -3.9100   -1.1500   -1.0040 C   0  0  1  0  0  0  0  0  0  0  0  0
   -2.5310   -1.1470   -1.5650 C   0  0  0  0  0  0  0  0  0  0  0  0
   -2.1750   -1.7330   -2.7590 C   0  0  0  0  0  0  0  0  0  0  0  0
   -0.9170   -1.7340   -3.2550 C   0  0  0  0  0  0  0  0  0  0  0  0
    0.1160   -1.1060   -2.5340 C   0  0  0  0  0  0  0  0  0  0  0  0
    1.4400   -1.0770   -3.0880 C   0  0  0  0  0  0  0  0  0  0  0  0
    2.4180   -0.5400   -2.6230 O   0  0  0  0  0  0  0  0  0  0  0  0
   -0.1740   -0.4940   -1.3150 C   0  0  0  0  0  0  0  0  0  0  0  0
    0.8360    0.0990   -0.5150 N   0  0  0  0  0  0  0  0  0  0  0  0
    0.6300    0.9310    0.6090 C   0  0  0  0  0  0  0  0  0  0  0  0
   -0.5150    1.2200    0.9850 O   0  0  0  0  0  0  0  0  0  0  0  0
    1.8340    1.4790    1.3670 C   0  0  0  0  0  0  0  0  0  0  0  0
    3.0120    1.0280    0.7720 O   0  0  0  0  0  0  0  0  0  0  0  0
    4.2820    1.3550    1.2310 C   0  0  0  0  0  0  0  0  0  0  0  0
    4.4510    2.1650    2.3300 C   0  0  0  0  0  0  0  0  0  0  0  0
    5.7160    2.4770    2.7690 C   0  0  0  0  0  0  0  0  0  0  0  0
    6.8600    2.0130    2.1570 C   0  0  0  0  0  0  0  0  0  0  0  0
    6.6630    1.1990    1.0530 C   0  0  0  0  0  0  0  0  0  0  0  0
    5.4060    0.8740    0.5960 C   0  0  0  0  0  0  0  0  0  0  0  0
    5.5500    0.0410   -0.5290 O   0  0  0  0  0  0  0  0  0  0  0  0
    6.8680   -0.4980   -0.4360 C   0  0  0  0  0  0  0  0  0  0  0  0
    7.5800    0.5660    0.2090 O   0  0  0  0  0  0  0  0  0  0  0  0
   -1.4720   -0.5360   -0.8800 C   0  0  0  0  0  0  0  0  0  0  0  0
   -4.0760   -1.9860    0.1810 C   0  0  0  0  0  0  0  0  0  0  0  0
   -3.8120   -1.8390    1.4750 C   0  0  0  0  0  0  0  0  0  0  0  0
   -4.0670   -2.7810    2.3850 C   0  0  0  0  0  0  0  0  0  0  0  0
   -4.6550   -3.9890    1.8840 C   0  0  0  0  0  0  0  0  0  0  0  0
   -4.7950   -3.6860    0.1690 S   0  0  0  0  0  0  0  0  0  0  0  0
  1  2  1  0
  2  3  1  0
  4  3  1  1
  4  5  1  0
  4 27  1  0
  5  6  2  0
  5 26  1  0
  6  7  1  0
  7  8  2  0
  8  9  1  0
  8 11  1  0
  9 10  2  0
 11 12  1  0
 11 26  2  0
 12 13  1  0
 13 14  2  0
 13 15  1  0
 15 16  1  0
 16 17  1  0
 17 18  2  0
 17 22  1  0
 18 19  1  0
 19 20  2  0
 20 21  1  0
 21 22  2  0
 21 25  1  0
 22 23  1  0
 23 24  1  0
 24 25  1  0
 27 28  2  0
 27 31  1  0
 28 29  1  0
 29 30  2  0
 30 31  1  0
M  END
