
     RDKit          3D

 29 31  0  0  0  0  0  0  0  0999 V2000
    6.4840   -2.7880   -0.2830 C   0  0  0  0  0  0  0  0  0  0  0  0
    6.2780   -1.2960   -0.2260 C   0  0  1  0  0  0  0  0  0  0  0  0
    4.7780   -1.0520   -0.3840 C   0  0  0  0  0  0  0  0  0  0  0  0
    4.5190    0.3270   -0.3420 O   0  0  0  0  0  0  0  0  0  0  0  0
    3.2030    0.7540   -0.4690 C   0  0  0  0  0  0  0  0  0  0  0  0
    2.1540   -0.1190   -0.6330 C   0  0  0  0  0  0  0  0  0  0  0  0
    0.8430    0.3610   -0.7570 C   0  0  0  0  0  0  0  0  0  0  0  0
    0.5450    1.7010   -0.7220 C   0  0  0  0  0  0  0  0  0  0  0  0
   -0.8180    2.2100   -0.8590 C   0  0  1  0  0  0  0  0  0  0  0  0
   -0.9150    2.7410   -2.1660 O   0  0  0  0  0  0  0  0  0  0  0  0
   -1.8300    1.1050   -0.7970 C   0  0  1  0  0  0  0  0  0  0  0  0
   -2.0190    0.5960    0.6180 C   0  0  0  0  0  0  0  0  0  0  0  0
   -3.2820   -0.2470    0.3780 C   0  0  1  0  0  0  0  0  0  0  0  0
   -3.9660   -0.5620    1.6260 C   0  0  0  0  0  0  0  0  0  0  0  0
   -5.2550   -0.5810    1.8670 C   0  0  0  0  0  0  0  0  0  0  0  0
   -5.6240   -0.9270    3.1830 O   0  0  0  0  0  0  0  0  0  0  0  0
   -6.3450   -0.2820    0.9120 C   0  0  0  0  0  0  0  0  0  0  0  0
   -6.0710   -0.9760   -0.6930 S   0  0  2  0  0  0  0  0  0  0  0  0
   -7.3280   -0.7560   -1.4940 O   0  0  0  0  0  0  0  0  0  0  0  0
   -5.8500   -2.4350   -0.5560 O   0  0  0  0  0  0  0  0  0  0  0  0
   -4.7500   -0.1550   -1.5490 C   0  0  0  0  0  0  0  0  0  0  0  0
   -4.0280    0.7000   -0.5370 C   0  0  2  0  0  0  0  0  0  0  0  0
   -3.1240    1.5780   -1.0590 O   0  0  0  0  0  0  0  0  0  0  0  0
    1.6230    2.5800   -0.5540 C   0  0  0  0  0  0  0  0  0  0  0  0
    1.3490    3.9360   -0.5160 O   0  0  0  0  0  0  0  0  0  0  0  0
    2.9070    2.0940   -0.4340 C   0  0  0  0  0  0  0  0  0  0  0  0
    6.7020   -0.7140    1.0630 C   0  0  0  0  0  0  0  0  0  0  0  0
    6.0750   -1.1600    2.2500 N   0  0  0  0  0  0  0  0  0  0  0  0
    7.6000    0.1550    1.0770 O   0  0  0  0  0  0  0  0  0  0  0  0
  2  1  1  1
  2  3  1  0
  2 27  1  0
  3  4  1  0
  4  5  1  0
  5  6  2  0
  5 26  1  0
  6  7  1  0
  7  8  2  0
  8  9  1  0
  8 24  1  0
  9 10  1  6
  9 11  1  0
 11 12  1  1
 11 23  1  0
 13 12  1  1
 13 14  1  0
 13 22  1  0
 14 15  2  0
 15 16  1  0
 15 17  1  0
 18 17  1  1
 18 19  2  0
 18 20  2  0
 18 21  1  0
 22 21  1  6
 22 23  1  0
 24 25  1  0
 24 26  2  0
 27 28  1  0
 27 29  2  0
M  END
