
     RDKit          3D

 31 33  0  0  0  0  0  0  0  0999 V2000
   -3.9340    4.8850    1.9380 C   0  0  0  0  0  0  0  0  0  0  0  0
   -3.6760    4.1090    0.9020 C   0  0  0  0  0  0  0  0  0  0  0  0
   -4.4860    2.8930    0.6480 C   0  0  0  0  0  0  0  0  0  0  0  0
   -3.6480    1.7580    0.6730 O   0  0  0  0  0  0  0  0  0  0  0  0
   -4.0940    0.4700    0.4720 C   0  0  0  0  0  0  0  0  0  0  0  0
   -5.4520    0.2250    0.2250 C   0  0  0  0  0  0  0  0  0  0  0  0
   -5.8920   -1.0770    0.0240 C   0  0  0  0  0  0  0  0  0  0  0  0
   -7.3160   -1.3920   -0.2410 C   0  0  0  0  0  0  0  0  0  0  0  0
   -4.9860   -2.1130    0.0710 C   0  0  0  0  0  0  0  0  0  0  0  0
   -5.5750   -3.7750   -0.1900 S   0  0  0  0  0  0  0  0  0  0  0  0
   -5.4750   -4.1150   -1.9740 C   0  0  0  0  0  0  0  0  0  0  0  0
   -3.6650   -1.8490    0.3140 C   0  0  0  0  0  0  0  0  0  0  0  0
   -3.1750   -0.5550    0.5220 C   0  0  0  0  0  0  0  0  0  0  0  0
   -1.7540   -0.3800    0.7710 C   0  0  0  0  0  0  0  0  0  0  0  0
   -1.0120   -1.3940    0.7970 O   0  0  0  0  0  0  0  0  0  0  0  0
   -1.2120    0.9620    0.9850 C   0  0  0  0  0  0  0  0  0  0  0  0
    0.2800    0.9550    1.2490 C   0  0  0  0  0  0  0  0  0  0  0  0
    1.0150    0.3830    0.1430 N   0  0  0  0  0  0  0  0  0  0  0  0
    2.4300    0.2820    0.1870 C   0  0  0  0  0  0  0  0  0  0  0  0
    3.1070    0.6800    1.1800 O   0  0  0  0  0  0  0  0  0  0  0  0
    3.1710   -0.2660   -0.8650 O   0  0  0  0  0  0  0  0  0  0  0  0
    4.5710   -0.3590   -0.8050 C   0  0  0  0  0  0  0  0  0  0  0  0
    5.2810    0.7140   -1.2890 C   0  0  0  0  0  0  0  0  0  0  0  0
    6.6580    0.7150   -1.2730 C   0  0  0  0  0  0  0  0  0  0  0  0
    7.3090   -0.3810   -0.7620 C   0  0  0  0  0  0  0  0  0  0  0  0
    6.6060   -1.4590   -0.2760 C   0  0  0  0  0  0  0  0  0  0  0  0
    5.2210   -1.4520   -0.2960 C   0  0  0  0  0  0  0  0  0  0  0  0
    4.4430   -2.5850    0.2150 C   0  0  0  0  0  0  0  0  0  0  0  0
    8.7750   -0.0880   -0.8790 C   0  0  0  0  0  0  0  0  0  0  0  0
    8.7630    1.4380   -0.8740 C   0  0  0  0  0  0  0  0  0  0  0  0
    7.6090    1.6640   -1.6970 O   0  0  0  0  0  0  0  0  0  0  0  0
  1  2  2  0
  2  3  1  0
  3  4  1  0
  4  5  1  0
  5  6  2  0
  5 13  1  0
  6  7  1  0
  7  8  1  0
  7  9  2  0
  9 10  1  0
  9 12  1  0
 10 11  1  0
 12 13  2  0
 13 14  1  0
 14 15  2  0
 14 16  1  0
 16 17  1  0
 17 18  1  0
 18 19  1  0
 19 20  2  0
 19 21  1  0
 21 22  1  0
 22 23  2  0
 22 27  1  0
 23 24  1  0
 24 25  2  0
 24 31  1  0
 25 26  1  0
 25 29  1  0
 26 27  2  0
 27 28  1  0
 29 30  1  0
 30 31  1  0
M  END
