
     RDKit          3D

 29 31  0  0  0  0  0  0  0  0999 V2000
   -8.3560   -0.0850    2.2250 C   0  0  0  0  0  0  0  0  0  0  0  0
   -7.2840    0.2800    1.2170 C   0  0  0  0  0  0  0  0  0  0  0  0
   -6.1070   -0.6870    1.3070 C   0  0  0  0  0  0  0  0  0  0  0  0
   -5.0890   -0.2520    0.2730 C   0  0  2  0  0  0  0  0  0  0  0  0
   -5.6730   -0.2900   -1.1100 C   0  0  0  0  0  0  0  0  0  0  0  0
   -4.6950   -0.3410   -2.0540 O   0  0  0  0  0  0  0  0  0  0  0  0
   -3.4460    0.1150   -1.7090 C   0  0  0  0  0  0  0  0  0  0  0  0
   -2.9760   -0.3870   -0.3840 C   0  0  2  0  0  0  0  0  0  0  0  0
   -2.7320    0.7480    0.4240 O   0  0  0  0  0  0  0  0  0  0  0  0
   -1.6780   -1.1070   -0.5250 C   0  0  0  0  0  0  0  0  0  0  0  0
   -0.6220   -0.2010   -1.0670 C   0  0  0  0  0  0  0  0  0  0  0  0
    0.7230   -0.9300   -1.2160 C   0  0  2  0  0  0  0  0  0  0  0  0
    1.1560   -1.4910    0.4810 S   0  0  0  0  0  0  0  0  0  0  0  0
    2.8280   -0.8650    0.4410 C   0  0  0  0  0  0  0  0  0  0  0  0
    3.8220   -1.1000    1.3140 N   0  0  0  0  0  0  0  0  0  0  0  0
    5.0110   -0.5520    1.1270 C   0  0  0  0  0  0  0  0  0  0  0  0
    5.9580   -0.7640    1.9410 O   0  0  0  0  0  0  0  0  0  0  0  0
    5.1930    0.2570    0.0230 C   0  0  0  0  0  0  0  0  0  0  0  0
    6.5330    0.8420   -0.1400 C   0  0  0  0  0  0  0  0  0  0  0  0
    6.6980    1.5840   -1.1540 O   0  0  0  0  0  0  0  0  0  0  0  0
    7.5570    0.6150    0.7350 O   0  0  0  0  0  0  0  0  0  0  0  0
    8.8090    1.2420    0.4650 C   0  0  0  0  0  0  0  0  0  0  0  0
    9.7610    0.8330    1.5730 C   0  0  0  0  0  0  0  0  0  0  0  0
    4.1800    0.5000   -0.8730 C   0  0  0  0  0  0  0  0  0  0  0  0
    2.9240   -0.0890   -0.6590 C   0  0  0  0  0  0  0  0  0  0  0  0
    1.7640    0.0710   -1.5050 C   0  0  1  0  0  0  0  0  0  0  0  0
    2.1770   -0.1370   -2.8450 O   0  0  0  0  0  0  0  0  0  0  0  0
    1.2690    1.3960   -1.5090 O   0  0  0  0  0  0  0  0  0  0  0  0
   -3.9680   -1.1000    0.2890 O   0  0  0  0  0  0  0  0  0  0  0  0
  1  2  1  0
  2  3  1  0
  4  3  1  1
  4  5  1  0
  4 29  1  0
  5  6  1  0
  6  7  1  0
  7  8  1  0
  8  9  1  1
  8 10  1  0
  8 29  1  0
 10 11  1  0
 12 11  1  1
 12 13  1  0
 12 26  1  0
 13 14  1  0
 14 15  1  0
 14 25  2  0
 15 16  1  0
 16 17  2  0
 16 18  1  0
 18 19  1  0
 18 24  2  0
 19 20  2  0
 19 21  1  0
 21 22  1  0
 22 23  1  0
 24 25  1  0
 25 26  1  0
 26 27  1  6
 26 28  1  0
M  END
