
     RDKit          3D

 30 33  0  0  0  0  0  0  0  0999 V2000
    6.7680    2.5000   -1.1370 C   0  0  0  0  0  0  0  0  0  0  0  0
    5.3470    2.0160   -0.9970 C   0  0  0  0  0  0  0  0  0  0  0  0
    4.2940    2.4730   -1.7600 C   0  0  0  0  0  0  0  0  0  0  0  0
    3.1810    1.7850   -1.3230 C   0  0  0  0  0  0  0  0  0  0  0  0
    3.5530    0.9170   -0.3040 C   0  0  0  0  0  0  0  0  0  0  0  0
    2.6880   -0.0060    0.4490 C   0  0  0  0  0  0  0  0  0  0  0  0
    3.2150   -0.7050    1.3270 O   0  0  0  0  0  0  0  0  0  0  0  0
    1.3000   -0.1040    0.1890 N   0  0  0  0  0  0  0  0  0  0  0  0
    0.4040   -0.9890    0.8930 C   0  0  0  0  0  0  0  0  0  0  0  0
   -0.8560   -0.9860    0.5550 C   0  0  0  0  0  0  0  0  0  0  0  0
   -1.4260   -0.1320   -0.5090 C   0  0  2  0  0  0  0  0  0  0  0  0
   -2.3040    0.9540   -0.0330 C   0  0  0  0  0  0  0  0  0  0  0  0
   -2.4770    1.3720    1.2450 C   0  0  0  0  0  0  0  0  0  0  0  0
   -3.3200    2.4260    1.5510 C   0  0  0  0  0  0  0  0  0  0  0  0
   -3.4970    2.9120    3.2190 Cl  0  0  0  0  0  0  0  0  0  0  0  0
   -4.0160    3.0920    0.5710 C   0  0  0  0  0  0  0  0  0  0  0  0
   -3.8500    2.6790   -0.7310 C   0  0  0  0  0  0  0  0  0  0  0  0
   -4.7480    3.5430   -1.9680 Cl  0  0  0  0  0  0  0  0  0  0  0  0
   -3.0130    1.6320   -1.0330 C   0  0  0  0  0  0  0  0  0  0  0  0
   -2.8970    1.2780   -2.3440 F   0  0  0  0  0  0  0  0  0  0  0  0
   -2.3280   -1.0770   -1.2340 N   0  0  0  0  0  0  0  0  0  0  0  0
   -1.9780   -2.0790   -2.0560 C   0  0  0  0  0  0  0  0  0  0  0  0
   -3.1090   -2.7080   -2.5170 C   0  0  0  0  0  0  0  0  0  0  0  0
   -4.1610   -2.0400   -1.9370 C   0  0  0  0  0  0  0  0  0  0  0  0
   -3.6270   -1.0590   -1.1680 N   0  0  0  0  0  0  0  0  0  0  0  0
   -1.8100   -1.8870    1.2960 C   0  0  0  0  0  0  0  0  0  0  0  0
   -1.0310   -3.1340    1.7590 C   0  0  0  0  0  0  0  0  0  0  0  0
    0.0230   -2.6670    2.6130 N   0  0  0  0  0  0  0  0  0  0  0  0
    0.9960   -1.8640    1.9730 C   0  0  0  0  0  0  0  0  0  0  0  0
    4.8730    1.1000   -0.1500 N   0  0  0  0  0  0  0  0  0  0  0  0
  1  2  1  0
  2  3  2  0
  2 30  1  0
  3  4  1  0
  4  5  2  0
  5  6  1  0
  5 30  1  0
  6  7  2  0
  6  8  1  0
  8  9  1  0
  9 10  2  0
  9 29  1  0
 10 11  1  0
 10 26  1  0
 11 12  1  0
 11 21  1  6
 12 13  2  0
 12 19  1  0
 13 14  1  0
 14 15  1  0
 14 16  2  0
 16 17  1  0
 17 18  1  0
 17 19  2  0
 19 20  1  0
 21 22  1  0
 21 25  1  0
 22 23  2  0
 23 24  1  0
 24 25  2  0
 26 27  1  0
 27 28  1  0
 28 29  1  0
M  CHG  1  28   1
M  END
