
     RDKit          3D

 30 33  0  0  0  0  0  0  0  0999 V2000
    6.4340   -0.2990    2.3750 C   0  0  0  0  0  0  0  0  0  0  0  0
    5.8070   -0.0440    1.0420 C   0  0  0  0  0  0  0  0  0  0  0  0
    4.4550   -0.2140    0.8510 C   0  0  0  0  0  0  0  0  0  0  0  0
    3.8750    0.0210   -0.3770 C   0  0  0  0  0  0  0  0  0  0  0  0
    2.4260   -0.1580   -0.5820 C   0  0  0  0  0  0  0  0  0  0  0  0
    1.6590    0.7820   -1.2370 C   0  0  0  0  0  0  0  0  0  0  0  0
    0.2890    0.6030   -1.4280 C   0  0  0  0  0  0  0  0  0  0  0  0
   -0.3010   -0.5440   -0.9460 C   0  0  0  0  0  0  0  0  0  0  0  0
   -1.7470   -0.7530   -1.1370 C   0  0  1  0  0  0  0  0  0  0  0  0
   -2.2930   -1.8340   -0.2270 C   0  0  2  0  0  0  0  0  0  0  0  0
   -2.2780   -3.1340   -0.9360 C   0  0  0  0  0  0  0  0  0  0  0  0
   -2.7380   -4.3180   -0.3090 N   0  0  0  0  0  0  0  0  0  0  0  0
   -1.8550   -3.2080   -2.1120 O   0  0  0  0  0  0  0  0  0  0  0  0
   -3.7130   -1.3720    0.0010 C   0  0  0  0  0  0  0  0  0  0  0  0
   -3.8750   -0.1230   -0.8590 C   0  0  0  0  0  0  0  0  0  0  0  0
   -2.5290    0.4190   -0.8410 N   0  0  0  0  0  0  0  0  0  0  0  0
   -2.2670    0.9280    0.4900 C   0  0  0  0  0  0  0  0  0  0  0  0
   -3.2580    2.0080    0.8400 C   0  0  0  0  0  0  0  0  0  0  0  0
   -3.1710    3.3440    0.5430 C   0  0  0  0  0  0  0  0  0  0  0  0
   -4.2470    3.9680    1.0280 N   0  0  0  0  0  0  0  0  0  0  0  0
   -5.0050    3.0350    1.6240 C   0  0  0  0  0  0  0  0  0  0  0  0
   -4.4070    1.8400    1.5120 N   0  0  0  0  0  0  0  0  0  0  0  0
    0.4380   -1.4670   -0.3050 N   0  0  0  0  0  0  0  0  0  0  0  0
    1.7790   -1.2880   -0.1200 C   0  0  0  0  0  0  0  0  0  0  0  0
    4.6880    0.4300   -1.4110 C   0  0  0  0  0  0  0  0  0  0  0  0
    4.0050    0.7380   -2.9920 Cl  0  0  0  0  0  0  0  0  0  0  0  0
    6.0450    0.6140   -1.2660 C   0  0  0  0  0  0  0  0  0  0  0  0
    6.8400    1.0190   -2.2940 F   0  0  0  0  0  0  0  0  0  0  0  0
    6.5880    0.3690   -0.0230 C   0  0  0  0  0  0  0  0  0  0  0  0
    8.3150    0.5720    0.2730 Cl  0  0  0  0  0  0  0  0  0  0  0  0
  1  2  1  0
  2  3  2  0
  2 29  1  0
  3  4  1  0
  4  5  1  0
  4 25  2  0
  5  6  2  0
  5 24  1  0
  6  7  1  0
  7  8  2  0
  9  8  1  1
  8 23  1  0
  9 10  1  0
  9 16  1  0
 10 11  1  6
 10 14  1  0
 11 12  1  0
 11 13  2  0
 14 15  1  0
 15 16  1  0
 16 17  1  0
 17 18  1  0
 18 19  2  0
 18 22  1  0
 19 20  1  0
 20 21  1  0
 21 22  2  0
 23 24  2  0
 25 26  1  0
 25 27  1  0
 27 28  1  0
 27 29  2  0
 29 30  1  0
M  CHG  1  22   1
M  END
