
     RDKit          3D

 30 32  0  0  0  0  0  0  0  0999 V2000
   -5.0060   -2.6430   -1.0580 C   0  0  0  0  0  0  0  0  0  0  0  0
   -3.9360   -1.7130   -1.6010 C   0  0  0  0  0  0  0  0  0  0  0  0
   -3.4010   -0.7820   -0.5750 C   0  0  0  0  0  0  0  0  0  0  0  0
   -4.3010    0.2220   -0.0240 C   0  0  0  0  0  0  0  0  0  0  0  0
   -3.8300    1.1630    1.0070 C   0  0  0  0  0  0  0  0  0  0  0  0
   -5.5040    0.2850   -0.4400 N   0  0  0  0  0  0  0  0  0  0  0  0
   -6.4780    1.2130    0.0150 C   0  0  0  0  0  0  0  0  0  0  0  0
   -6.3990    2.5570   -0.6920 C   0  0  0  0  0  0  0  0  0  0  0  0
   -6.6070    2.3410   -2.0620 F   0  0  0  0  0  0  0  0  0  0  0  0
   -2.1460   -0.8400   -0.1580 C   0  0  0  0  0  0  0  0  0  0  0  0
   -1.6080    0.0260    0.8110 N   0  0  0  0  0  0  0  0  0  0  0  0
   -0.3950   -0.0030    1.2430 C   0  0  0  0  0  0  0  0  0  0  0  0
    0.3430    0.8090    2.2390 C   0  0  0  0  0  0  0  0  0  0  0  0
    1.3890   -0.1650    2.7370 C   0  0  0  0  0  0  0  0  0  0  0  0
    1.8670   -0.7780    1.4140 C   0  0  2  0  0  0  0  0  0  0  0  0
    2.6640    0.2140    0.7390 N   0  0  0  0  0  0  0  0  0  0  0  0
    4.0240   -0.1230    0.3970 C   0  0  0  0  0  0  0  0  0  0  0  0
    4.4210   -1.2510    0.7060 O   0  0  0  0  0  0  0  0  0  0  0  0
    4.8710    0.7840   -0.2620 N   0  0  0  0  0  0  0  0  0  0  0  0
    6.2040    0.6100   -0.6600 C   0  0  0  0  0  0  0  0  0  0  0  0
    6.9000   -0.5460   -0.4440 C   0  0  0  0  0  0  0  0  0  0  0  0
    8.2330   -0.7240   -0.8400 C   0  0  0  0  0  0  0  0  0  0  0  0
    9.0640   -2.2440   -0.5270 Cl  0  0  0  0  0  0  0  0  0  0  0  0
    8.8840    0.3000   -1.4760 C   0  0  0  0  0  0  0  0  0  0  0  0
    8.1940    1.4710   -1.7000 C   0  0  0  0  0  0  0  0  0  0  0  0
    6.9000    1.6380   -1.3130 C   0  0  0  0  0  0  0  0  0  0  0  0
    6.0210    3.1340   -1.6000 Cl  0  0  0  0  0  0  0  0  0  0  0  0
    0.5720   -0.9880    0.7380 C   0  0  0  0  0  0  0  0  0  0  0  0
    0.1390   -1.8280   -0.1680 C   0  0  0  0  0  0  0  0  0  0  0  0
   -1.2140   -1.8170   -0.6690 N   0  0  0  0  0  0  0  0  0  0  0  0
  1  2  1  0
  2  3  1  0
  3  4  1  0
  3 10  2  3
  4  5  1  0
  4  6  2  3
  6  7  1  0
  7  8  1  0
  8  9  1  0
 10 11  1  0
 10 30  1  0
 11 12  2  0
 12 13  1  0
 12 28  1  0
 13 14  1  0
 14 15  1  0
 15 16  1  6
 15 28  1  0
 16 17  1  0
 17 18  2  0
 17 19  1  0
 19 20  1  0
 20 21  2  0
 20 26  1  0
 21 22  1  0
 22 23  1  0
 22 24  2  0
 24 25  1  0
 25 26  2  0
 26 27  1  0
 28 29  2  0
 29 30  1  0
M  CHG  1   6   1
M  END
