
     RDKit          3D

 30 32  0  0  0  0  0  0  0  0999 V2000
    5.1390    2.4340   -0.2610 C   0  0  0  0  0  0  0  0  0  0  0  0
    4.1580    1.3750   -0.0230 C   0  0  0  0  0  0  0  0  0  0  0  0
    4.4210    0.0560   -0.1180 C   0  0  0  0  0  0  0  0  0  0  0  0
    3.3740   -0.9070    0.1390 C   0  0  0  0  0  0  0  0  0  0  0  0
    2.0930   -0.3920    0.5400 N   0  0  0  0  0  0  0  0  0  0  0  0
    1.8090    0.0920    1.8390 C   0  0  0  0  0  0  0  0  0  0  0  0
    0.5650    0.1170    2.2710 C   0  0  0  0  0  0  0  0  0  0  0  0
   -0.4930   -0.3280    1.4670 N   0  0  0  0  0  0  0  0  0  0  0  0
   -0.9400    0.3100    0.4240 C   0  0  0  0  0  0  0  0  0  0  0  0
   -1.9990   -0.2590   -0.2770 N   0  0  0  0  0  0  0  0  0  0  0  0
   -3.2010    0.0570   -0.1820 C   0  0  0  0  0  0  0  0  0  0  0  0
   -3.7280    1.0890    0.6860 C   0  0  0  0  0  0  0  0  0  0  0  0
   -3.1560    1.9100    1.5400 C   0  0  0  0  0  0  0  0  0  0  0  0
   -4.1330    2.7820    2.1860 C   0  0  0  0  0  0  0  0  0  0  0  0
   -5.3360    2.5120    1.7380 C   0  0  0  0  0  0  0  0  0  0  0  0
   -6.8560    3.2940    2.2110 Cl  0  0  0  0  0  0  0  0  0  0  0  0
   -5.1730    1.4420    0.7740 C   0  0  0  0  0  0  0  0  0  0  0  0
   -6.0960    0.9000    0.1200 O   0  0  0  0  0  0  0  0  0  0  0  0
   -4.1200   -0.6830   -1.0190 N   0  0  0  0  0  0  0  0  0  0  0  0
   -4.4400   -0.2310   -2.3570 C   0  0  0  0  0  0  0  0  0  0  0  0
   -5.7180   -0.9800   -2.6580 C   0  0  0  0  0  0  0  0  0  0  0  0
   -5.5010   -2.2910   -1.9430 C   0  0  0  0  0  0  0  0  0  0  0  0
   -4.7960   -1.8910   -0.6640 C   0  0  0  0  0  0  0  0  0  0  0  0
    3.5660   -2.2040    0.0160 C   0  0  0  0  0  0  0  0  0  0  0  0
    2.5790   -3.0950    0.2560 F   0  0  0  0  0  0  0  0  0  0  0  0
    4.8970   -2.6440   -0.3740 C   0  0  0  0  0  0  0  0  0  0  0  0
    5.2380   -4.3810   -0.5650 Cl  0  0  0  0  0  0  0  0  0  0  0  0
    5.8880   -1.8300   -0.5990 C   0  0  0  0  0  0  0  0  0  0  0  0
    5.7740   -0.3850   -0.4850 C   0  0  2  0  0  0  0  0  0  0  0  0
    6.7240    0.0360    0.5760 N   0  0  0  0  0  0  0  0  0  0  0  0
  1  2  1  0
  2  3  2  3
  3  4  1  0
  3 29  1  0
  4  5  1  0
  4 24  2  0
  5  6  1  0
  6  7  2  3
  7  8  1  0
  8  9  2  3
  9 10  1  0
 10 11  2  3
 11 12  1  0
 11 19  1  0
 12 13  2  0
 12 17  1  0
 13 14  1  0
 14 15  2  0
 15 16  1  0
 15 17  1  0
 17 18  2  0
 19 20  1  0
 19 23  1  0
 20 21  1  0
 21 22  1  0
 22 23  1  0
 24 25  1  0
 24 26  1  0
 26 27  1  0
 26 28  2  0
 28 29  1  0
 29 30  1  1
M  CHG  1  30   1
M  END
