
     RDKit          3D

 31 34  0  0  0  0  0  0  0  0999 V2000
    1.4680   -1.5460    2.1310 C   0  0  0  0  0  0  0  0  0  0  0  0
    1.3810   -0.6500    0.9750 N   0  0  0  0  0  0  0  0  0  0  0  0
    0.2300   -0.2250    0.5050 N   0  0  0  0  0  0  0  0  0  0  0  0
    0.0650    0.5920   -0.5450 C   0  0  0  0  0  0  0  0  0  0  0  0
   -1.2750    1.0330   -1.0200 C   0  0  0  0  0  0  0  0  0  0  0  0
   -2.3480    0.4600   -0.2000 N   0  0  1  0  0  0  0  0  0  0  0  0
   -3.2730    1.5170    0.0270 C   0  0  0  0  0  0  0  0  0  0  0  0
   -4.6300    1.0130    0.4990 C   0  0  0  0  0  0  0  0  0  0  0  0
   -5.6020    1.7880    0.7640 C   0  0  0  0  0  0  0  0  0  0  0  0
   -5.4720    3.2780    0.6130 C   0  0  0  0  0  0  0  0  0  0  0  0
   -5.7510    4.0290    2.1940 Cl  0  0  0  0  0  0  0  0  0  0  0  0
   -4.9570   -0.3830    0.5970 C   0  0  0  0  0  0  0  0  0  0  0  0
   -6.1550   -0.5920    0.1390 C   0  0  0  0  0  0  0  0  0  0  0  0
   -6.6770   -1.9590   -0.3000 C   0  0  0  0  0  0  0  0  0  0  0  0
   -5.5780   -2.8740   -0.1880 O   0  0  0  0  0  0  0  0  0  0  0  0
   -4.4650   -2.5180   -0.9270 C   0  0  0  0  0  0  0  0  0  0  0  0
   -3.3310   -1.9240   -0.0640 C   0  0  1  0  0  0  0  0  0  0  0  0
   -2.5960   -0.8190   -0.6510 C   0  0  0  0  0  0  0  0  0  0  0  0
   -4.0840   -1.3630    1.1010 O   0  0  0  0  0  0  0  0  0  0  0  0
    1.2050    1.0250   -1.1890 C   0  0  0  0  0  0  0  0  0  0  0  0
    1.0980    1.7930   -2.1790 O   0  0  0  0  0  0  0  0  0  0  0  0
    2.3900    0.5960   -0.7170 N   0  0  0  0  0  0  0  0  0  0  0  0
    2.5050   -0.2200    0.3360 C   0  0  0  0  0  0  0  0  0  0  0  0
    3.7950   -0.6740    0.8330 C   0  0  0  0  0  0  0  0  0  0  0  0
    5.0120   -0.1840    0.1100 C   0  0  1  0  0  0  0  0  0  0  0  0
    6.2340   -0.7940    0.8140 C   0  0  0  0  0  0  0  0  0  0  0  0
    4.9700   -0.6050   -1.3280 C   0  0  0  0  0  0  0  0  0  0  0  0
    6.3420   -0.5170   -1.9760 C   0  0  0  0  0  0  0  0  0  0  0  0
    6.8930    1.1990   -1.8640 S   0  0  0  0  0  0  0  0  0  0  0  0
    6.4640    1.8220   -0.2200 C   0  0  0  0  0  0  0  0  0  0  0  0
    5.1110    1.3000    0.2300 C   0  0  0  0  0  0  0  0  0  0  0  0
  1  2  1  0
  2  3  1  0
  2 23  1  0
  3  4  2  0
  4  5  1  0
  4 20  1  0
  6  5  1  6
  6  7  1  0
  6 18  1  0
  7  8  1  0
  8  9  2  3
  8 12  1  0
  9 10  1  0
 10 11  1  0
 12 13  2  0
 12 19  1  0
 13 14  1  0
 14 15  1  0
 15 16  1  0
 17 16  1  6
 17 18  1  0
 17 19  1  0
 20 21  2  0
 20 22  1  0
 22 23  2  0
 23 24  1  0
 24 25  1  0
 25 26  1  1
 25 27  1  0
 25 31  1  0
 27 28  1  0
 28 29  1  0
 29 30  1  0
 30 31  1  0
M  CHG  1   6   1
M  END
