
     RDKit          3D

 31 34  0  0  0  0  0  0  0  0999 V2000
   -7.3400   -1.6770   -0.0990 C   0  0  0  0  0  0  0  0  0  0  0  0
   -6.0010   -1.1440   -0.2580 N   0  0  0  0  0  0  0  0  0  0  0  0
   -5.6580   -0.0130   -1.1130 C   0  0  0  0  0  0  0  0  0  0  0  0
   -4.2390   -0.3600   -1.5040 C   0  0  0  0  0  0  0  0  0  0  0  0
   -3.6340   -0.9710   -0.3010 C   0  0  1  0  0  0  0  0  0  0  0  0
   -2.9720   -0.0400    0.5870 N   0  0  2  0  0  0  0  0  0  0  0  0
   -3.9830    0.6780    1.3790 C   0  0  0  0  0  0  0  0  0  0  0  0
   -2.1630    0.8740   -0.1430 C   0  0  0  0  0  0  0  0  0  0  0  0
   -1.1210    1.6150    0.6010 C   0  0  2  0  0  0  0  0  0  0  0  0
   -0.4250    2.5110   -0.4430 C   0  0  0  0  0  0  0  0  0  0  0  0
    0.1580    1.6610   -1.5200 C   0  0  0  0  0  0  0  0  0  0  0  0
    0.7480    0.3810   -1.1170 C   0  0  0  0  0  0  0  0  0  0  0  0
    0.5180   -0.1070    0.2520 C   0  0  1  0  0  0  0  0  0  0  0  0
    1.8110   -0.5660    0.8930 C   0  0  0  0  0  0  0  0  0  0  0  0
    2.4570   -1.6590    0.1540 C   0  0  0  0  0  0  0  0  0  0  0  0
    1.9780   -2.1530   -0.8980 O   0  0  0  0  0  0  0  0  0  0  0  0
    3.6720   -2.1830    0.6440 N   0  0  0  0  0  0  0  0  0  0  0  0
    4.7700   -1.4910    0.2840 C   0  0  0  0  0  0  0  0  0  0  0  0
    5.1960   -0.6260   -0.2650 O   0  0  0  0  0  0  0  0  0  0  0  0
    6.3910   -0.2220   -0.4160 C   0  0  0  0  0  0  0  0  0  0  0  0
    6.8550    0.8940   -1.1350 C   0  0  0  0  0  0  0  0  0  0  0  0
    8.2070    1.1700   -1.1810 C   0  0  0  0  0  0  0  0  0  0  0  0
    9.1560    0.3980   -0.5490 C   0  0  0  0  0  0  0  0  0  0  0  0
   10.8640    0.7350   -0.5990 Cl  0  0  0  0  0  0  0  0  0  0  0  0
    8.7340   -0.7110    0.1700 C   0  0  0  0  0  0  0  0  0  0  0  0
    7.3610   -0.9820    0.2100 C   0  0  0  0  0  0  0  0  0  0  0  0
    6.3390   -2.2570    0.9790 S   0  0  0  0  0  0  0  0  0  0  0  0
   -0.0590    0.8570    1.1630 N   0  0  2  0  0  0  0  0  0  0  0  0
   -0.3180    0.2500    2.4330 C   0  0  0  0  0  0  0  0  0  0  0  0
   -4.7920   -1.6130    0.3760 C   0  0  0  0  0  0  0  0  0  0  0  0
   -4.7880   -2.4240    1.3300 O   0  0  0  0  0  0  0  0  0  0  0  0
  1  2  1  0
  2  3  1  0
  2 30  1  0
  3  4  1  0
  5  4  1  6
  5  6  1  0
  5 30  1  0
  6  7  1  6
  6  8  1  0
  9  8  1  6
  9 10  1  0
  9 28  1  0
 10 11  1  0
 11 12  1  0
 12 13  1  0
 13 14  1  1
 13 28  1  0
 14 15  1  0
 15 16  2  0
 15 17  1  0
 17 18  2  3
 18 19  1  0
 18 27  1  0
 19 20  1  0
 20 21  2  0
 20 26  1  0
 21 22  1  0
 22 23  2  0
 23 24  1  0
 23 25  1  0
 25 26  2  0
 26 27  1  0
 28 29  1  1
 30 31  2  0
M  CHG  2   6   1  28   1
M  END
