
     RDKit          3D

 30 33  0  0  0  0  0  0  0  0999 V2000
   -2.7500   -4.0340    0.5140 C   0  0  0  0  0  0  0  0  0  0  0  0
   -2.6320   -2.5560    0.3360 C   0  0  0  0  0  0  0  0  0  0  0  0
   -1.4060   -1.9240    0.3560 C   0  0  0  0  0  0  0  0  0  0  0  0
   -1.3460   -0.5520    0.1860 C   0  0  0  0  0  0  0  0  0  0  0  0
   -0.0300    0.0640    0.2160 C   0  0  0  0  0  0  0  0  0  0  0  0
    0.1850    1.3470    0.6760 C   0  0  0  0  0  0  0  0  0  0  0  0
    1.4710    1.9010    0.6880 C   0  0  0  0  0  0  0  0  0  0  0  0
    2.5450    1.1670    0.2370 C   0  0  0  0  0  0  0  0  0  0  0  0
    3.8870    1.7640    0.2600 C   0  0  2  0  0  0  0  0  0  0  0  0
    4.5200    1.9250   -1.0600 C   0  0  0  0  0  0  0  0  0  0  0  0
    5.6320    0.9350   -1.1450 C   0  0  0  0  0  0  0  0  0  0  0  0
    6.1140    0.8320    0.2740 C   0  0  2  0  0  0  0  0  0  0  0  0
    6.9070    1.9580    0.5220 O   0  0  0  0  0  0  0  0  0  0  0  0
    6.8900   -0.3940    0.6020 C   0  0  0  0  0  0  0  0  0  0  0  0
    8.1200   -0.4800   -0.2540 C   0  0  0  0  0  0  0  0  0  0  0  0
    7.7880   -0.5430   -1.5820 O   0  0  0  0  0  0  0  0  0  0  0  0
    4.8420    0.9460    1.0880 C   0  0  0  0  0  0  0  0  0  0  0  0
    2.3430   -0.1060   -0.2210 C   0  0  0  0  0  0  0  0  0  0  0  0
    1.0630   -0.6460   -0.2280 C   0  0  0  0  0  0  0  0  0  0  0  0
   -2.5220    0.1460   -0.0000 C   0  0  0  0  0  0  0  0  0  0  0  0
   -3.7550   -0.4700   -0.0230 C   0  0  0  0  0  0  0  0  0  0  0  0
   -3.8070   -1.8380    0.1470 C   0  0  0  0  0  0  0  0  0  0  0  0
   -5.0640   -2.5450    0.1320 N   0  0  0  0  0  0  0  0  0  0  0  0
   -6.3230   -1.8260    0.3480 C   0  0  0  0  0  0  0  0  0  0  0  0
   -6.0350   -0.3980    0.7540 C   0  0  0  0  0  0  0  0  0  0  0  0
   -5.0260    0.2230   -0.2170 C   0  0  2  0  0  0  0  0  0  0  0  0
   -5.5550   -0.0660   -1.6060 C   0  0  0  0  0  0  0  0  0  0  0  0
   -4.9530    1.7130   -0.0470 C   0  0  2  0  0  0  0  0  0  0  0  0
   -4.4880    2.1040    1.3390 C   0  0  0  0  0  0  0  0  0  0  0  0
   -6.2410    2.2580   -0.1950 O   0  0  0  0  0  0  0  0  0  0  0  0
  1  2  1  0
  2  3  2  0
  2 22  1  0
  3  4  1  0
  4  5  1  0
  4 20  2  0
  5  6  2  0
  5 19  1  0
  6  7  1  0
  7  8  2  0
  9  8  1  6
  8 18  1  0
  9 10  1  0
  9 17  1  0
 10 11  1  0
 11 12  1  0
 12 13  1  1
 12 14  1  0
 12 17  1  0
 14 15  1  0
 15 16  1  0
 18 19  2  0
 20 21  1  0
 21 22  2  0
 21 26  1  0
 22 23  1  0
 23 24  1  0
 24 25  1  0
 25 26  1  0
 26 27  1  6
 26 28  1  0
 28 29  1  1
 28 30  1  0
M  END
