
     RDKit          3D

 30 34  0  0  0  0  0  0  0  0999 V2000
    9.0540    0.3350    0.7000 C   0  0  0  0  0  0  0  0  0  0  0  0
    7.6200    0.0080    0.4120 C   0  0  0  0  0  0  0  0  0  0  0  0
    7.1500   -1.2890    0.4280 C   0  0  0  0  0  0  0  0  0  0  0  0
    5.8250   -1.5720    0.1590 C   0  0  0  0  0  0  0  0  0  0  0  0
    4.9130   -0.5810   -0.1360 C   0  0  0  0  0  0  0  0  0  0  0  0
    3.5040   -0.8650   -0.4240 C   0  0  0  0  0  0  0  0  0  0  0  0
    3.1580   -2.0460   -1.0450 C   0  0  0  0  0  0  0  0  0  0  0  0
    1.8220   -2.3280   -1.3230 C   0  0  0  0  0  0  0  0  0  0  0  0
    0.8490   -1.4170   -0.9720 C   0  0  0  0  0  0  0  0  0  0  0  0
    1.1700   -0.2310   -0.3520 C   0  0  0  0  0  0  0  0  0  0  0  0
    2.4980    0.0160   -0.0920 C   0  0  0  0  0  0  0  0  0  0  0  0
    0.1270    0.6210   -0.0370 O   0  0  0  0  0  0  0  0  0  0  0  0
   -1.1330    0.4920   -0.7120 C   0  0  2  0  0  0  0  0  0  0  0  0
   -2.1710    1.3570   -0.0370 C   0  0  0  0  0  0  0  0  0  0  0  0
   -3.4530    0.5610    0.0510 C   0  0  1  0  0  0  0  0  0  0  0  0
   -4.6500    1.4550    0.2830 C   0  0  2  0  0  0  0  0  0  0  0  0
   -4.4720    2.2010    1.5370 N   0  0  0  0  0  0  0  0  0  0  0  0
   -5.8220    0.5610    0.5470 C   0  0  0  0  0  0  0  0  0  0  0  0
   -5.8420   -0.7560    0.6260 C   0  0  0  0  0  0  0  0  0  0  0  0
   -7.2110   -1.2680    0.9050 C   0  0  0  0  0  0  0  0  0  0  0  0
   -8.0070   -0.0250    0.9850 C   0  0  0  0  0  0  0  0  0  0  0  0
   -9.3850   -0.0170    1.2410 O   0  0  0  0  0  0  0  0  0  0  0  0
   -7.2090    0.9890    0.7810 C   0  0  0  0  0  0  0  0  0  0  0  0
   -3.6520   -0.0580   -1.3300 C   0  0  0  0  0  0  0  0  0  0  0  0
   -2.7700   -1.2510   -1.4350 C   0  0  0  0  0  0  0  0  0  0  0  0
   -1.4960   -0.9700   -0.6670 C   0  0  1  0  0  0  0  0  0  0  0  0
   -0.4680   -1.7150   -1.2570 O   0  0  0  0  0  0  0  0  0  0  0  0
    5.3870    0.7140   -0.1510 C   0  0  0  0  0  0  0  0  0  0  0  0
    6.7110    1.0020    0.1170 C   0  0  0  0  0  0  0  0  0  0  0  0
    7.2190    2.3970    0.0990 C   0  0  0  0  0  0  0  0  0  0  0  0
  1  2  1  0
  2  3  2  0
  2 29  1  0
  3  4  1  0
  4  5  2  0
  5  6  1  0
  5 28  1  0
  6  7  2  0
  6 11  1  0
  7  8  1  0
  8  9  2  0
  9 10  1  0
  9 27  1  0
 10 11  2  0
 10 12  1  0
 12 13  1  0
 13 14  1  1
 13 26  1  0
 15 14  1  6
 15 16  1  0
 15 24  1  0
 16 17  1  1
 16 18  1  0
 18 19  2  0
 18 23  1  0
 19 20  1  0
 20 21  1  0
 21 22  1  0
 21 23  2  0
 24 25  1  0
 26 25  1  6
 26 27  1  0
 28 29  2  0
 29 30  1  0
M  END
