
     RDKit          3D

 29 33  0  0  0  0  0  0  0  0999 V2000
   -2.3920   -1.6450   -0.2080 C   0  0  0  0  0  0  0  0  0  0  0  0
   -1.5790   -0.4210   -0.1810 C   0  0  0  0  0  0  0  0  0  0  0  0
   -2.1400    0.7510   -0.1440 C   0  0  0  0  0  0  0  0  0  0  0  0
   -3.5910    0.9680   -0.1180 C   0  0  0  0  0  0  0  0  0  0  0  0
   -4.4970    0.2580    0.6690 C   0  0  0  0  0  0  0  0  0  0  0  0
   -5.7910    0.7370    0.4390 C   0  0  0  0  0  0  0  0  0  0  0  0
   -5.6220    1.7300   -0.4900 C   0  0  0  0  0  0  0  0  0  0  0  0
   -4.3300    1.8670   -0.8170 N   0  0  0  0  0  0  0  0  0  0  0  0
   -7.2650    2.3540   -0.8280 S   0  0  0  0  0  0  0  0  0  0  0  0
   -8.1540    0.8780   -0.1560 C   0  0  0  0  0  0  0  0  0  0  0  0
   -7.1480    0.5040    0.9030 C   0  0  0  0  0  0  0  0  0  0  0  0
   -0.1060   -0.5560   -0.1520 C   0  0  0  0  0  0  0  0  0  0  0  0
    0.4210   -1.7160   -0.2120 N   0  0  0  0  0  0  0  0  0  0  0  0
    1.8100   -1.9750   -0.1890 N   0  0  0  0  0  0  0  0  0  0  0  0
    2.3930   -3.5740   -0.2770 S   0  0  1  0  0  0  0  0  0  0  0  0
    1.9300   -4.3590   -1.8170 C   0  0  0  0  0  0  0  0  0  0  0  0
    3.7670   -3.8310    0.1410 O   0  0  0  0  0  0  0  0  0  0  0  0
    1.5230   -4.3470    0.7700 O   0  0  0  0  0  0  0  0  0  0  0  0
    2.6750   -0.8780   -0.0950 C   0  0  0  0  0  0  0  0  0  0  0  0
    4.0350   -0.9930   -0.0630 C   0  0  0  0  0  0  0  0  0  0  0  0
    4.8290    0.1600    0.0390 C   0  0  0  0  0  0  0  0  0  0  0  0
    6.0810   -0.0310    0.0630 O   0  0  0  0  0  0  0  0  0  0  0  0
    4.3280    1.3990    0.1080 N   0  0  0  0  0  0  0  0  0  0  0  0
    5.1580    2.5790    0.2270 C   0  0  2  0  0  0  0  0  0  0  0  0
    6.4630    2.7560   -0.3810 C   0  0  0  0  0  0  0  0  0  0  0  0
    6.3230    2.5870    1.1670 C   0  0  0  0  0  0  0  0  0  0  0  0
    2.9860    1.4760    0.0720 C   0  0  0  0  0  0  0  0  0  0  0  0
    2.1420    0.3820   -0.0270 C   0  0  0  0  0  0  0  0  0  0  0  0
    0.7210    0.5800   -0.0550 N   0  0  0  0  0  0  0  0  0  0  0  0
  1  2  1  0
  2  3  2  3
  2 12  1  0
  3  4  1  0
  4  5  2  0
  4  8  1  0
  5  6  1  0
  6  7  2  0
  6 11  1  0
  7  8  1  0
  7  9  1  0
  9 10  1  0
 10 11  1  0
 12 13  2  0
 12 29  1  0
 13 14  1  0
 14 15  1  0
 14 19  1  0
 15 16  1  6
 15 17  2  0
 15 18  2  0
 19 20  2  0
 19 28  1  0
 20 21  1  0
 21 22  2  0
 21 23  1  0
 24 23  1  6
 23 27  1  0
 24 25  1  0
 24 26  1  0
 25 26  1  0
 27 28  2  0
 28 29  1  0
M  END
