
     RDKit          3D

 31 33  0  0  0  0  0  0  0  0999 V2000
    7.6180    2.5080    0.8310 C   0  0  0  0  0  0  0  0  0  0  0  0
    6.9470    1.5150    1.5900 O   0  0  0  0  0  0  0  0  0  0  0  0
    5.7460    1.0300    1.0760 C   0  0  0  0  0  0  0  0  0  0  0  0
    4.9990    0.0650    1.7190 C   0  0  0  0  0  0  0  0  0  0  0  0
    3.8060   -0.4050    1.1910 C   0  0  0  0  0  0  0  0  0  0  0  0
    3.3110    0.0690    0.0030 C   0  0  0  0  0  0  0  0  0  0  0  0
    2.0660   -0.4250   -0.5280 C   0  0  0  0  0  0  0  0  0  0  0  0
    2.0790   -1.6120   -1.2460 C   0  0  0  0  0  0  0  0  0  0  0  0
    3.5050   -2.5550   -1.5460 S   0  0  2  0  0  0  0  0  0  0  0  0
    4.3150   -3.1770   -0.1110 C   0  0  0  0  0  0  0  0  0  0  0  0
    4.4680   -1.8510   -2.4740 O   0  0  0  0  0  0  0  0  0  0  0  0
    3.0660   -3.7660   -2.3430 O   0  0  0  0  0  0  0  0  0  0  0  0
    0.8420   -2.0140   -1.7360 C   0  0  0  0  0  0  0  0  0  0  0  0
   -0.3260   -1.3070   -1.5390 C   0  0  0  0  0  0  0  0  0  0  0  0
   -0.2570   -0.1230   -0.8060 C   0  0  0  0  0  0  0  0  0  0  0  0
   -1.4520    0.6880   -0.6040 C   0  0  0  0  0  0  0  0  0  0  0  0
   -1.4140    1.9340   -0.7430 O   0  0  0  0  0  0  0  0  0  0  0  0
   -2.6940    0.0340   -0.2360 C   0  0  0  0  0  0  0  0  0  0  0  0
   -2.9580   -1.2600    0.0800 C   0  0  0  0  0  0  0  0  0  0  0  0
   -4.2730   -1.3520    0.3710 N   0  0  0  0  0  0  0  0  0  0  0  0
   -4.8480   -0.1860    0.2560 N   0  0  0  0  0  0  0  0  0  0  0  0
   -6.2590    0.1350    0.4850 C   0  0  2  0  0  0  0  0  0  0  0  0
   -6.8950    0.6750   -0.7580 C   0  0  0  0  0  0  0  0  0  0  0  0
   -6.3600    1.1420    1.6210 C   0  0  0  0  0  0  0  0  0  0  0  0
   -6.9760   -1.1220    0.9160 C   0  0  0  0  0  0  0  0  0  0  0  0
   -3.9190    0.7020   -0.1160 C   0  0  0  0  0  0  0  0  0  0  0  0
   -4.1580    2.0570   -0.3400 O   0  0  0  0  0  0  0  0  0  0  0  0
    0.9310    0.3340   -0.2920 C   0  0  0  0  0  0  0  0  0  0  0  0
    1.0310    1.5860    0.4970 C   0  0  0  0  0  0  0  0  0  0  0  0
    4.0440    1.0310   -0.6510 C   0  0  0  0  0  0  0  0  0  0  0  0
    5.2310    1.5040   -0.1340 C   0  0  0  0  0  0  0  0  0  0  0  0
  1  2  1  0
  2  3  1  0
  3  4  2  0
  3 31  1  0
  4  5  1  0
  5  6  2  0
  6  7  1  0
  6 30  1  0
  7  8  2  0
  7 28  1  0
  8  9  1  0
  8 13  1  0
  9 10  1  1
  9 11  2  0
  9 12  2  0
 13 14  2  0
 14 15  1  0
 15 16  1  0
 15 28  2  0
 16 17  2  0
 16 18  1  0
 18 19  1  0
 18 26  2  0
 19 20  2  0
 20 21  1  0
 21 22  1  0
 21 26  1  0
 22 23  1  6
 22 24  1  0
 22 25  1  0
 26 27  1  0
 28 29  1  0
 30 31  2  0
M  END
