
     RDKit          3D

 30 33  0  0  0  0  0  0  0  0999 V2000
   -3.9760    1.8230    0.2650 C   0  0  0  0  0  0  0  0  0  0  0  0
   -2.6210    2.4320    0.1190 C   0  0  1  0  0  0  0  0  0  0  0  0
   -2.6930    3.8880   -0.1170 C   0  0  0  0  0  0  0  0  0  0  0  0
   -1.4860    1.9390    0.8480 C   0  0  0  0  0  0  0  0  0  0  0  0
   -0.6640    2.7900    1.5260 C   0  0  0  0  0  0  0  0  0  0  0  0
   -1.0810    4.1140    1.8690 N   0  0  0  0  0  0  0  0  0  0  0  0
    0.5780    2.4280    1.9990 C   0  0  0  0  0  0  0  0  0  0  0  0
    1.0240    1.1720    1.7920 C   0  0  0  0  0  0  0  0  0  0  0  0
    0.2340    0.2510    1.1060 C   0  0  0  0  0  0  0  0  0  0  0  0
    0.9340   -1.0100    0.8020 C   0  0  0  0  0  0  0  0  0  0  0  0
    1.8120   -1.0000   -0.4130 C   0  0  1  0  0  0  0  0  0  0  0  0
    2.3300   -2.3160   -0.5480 O   0  0  0  0  0  0  0  0  0  0  0  0
    1.3140   -0.5420   -1.6920 C   0  0  0  0  0  0  0  0  0  0  0  0
    2.5680   -0.0940   -2.4590 C   0  0  0  0  0  0  0  0  0  0  0  0
    3.7290   -0.4580   -1.5750 C   0  0  1  0  0  0  0  0  0  0  0  0
    4.8860    0.5140   -1.6480 C   0  0  0  0  0  0  0  0  0  0  0  0
    5.8100    0.2060   -0.4760 C   0  0  0  0  0  0  0  0  0  0  0  0
    5.3290   -0.9880    0.3170 C   0  0  0  0  0  0  0  0  0  0  0  0
    3.9390   -0.7250    0.8980 C   0  0  0  0  0  0  0  0  0  0  0  0
    3.0810   -0.1840   -0.1920 C   0  0  2  0  0  0  0  0  0  0  0  0
    2.9190    1.1680   -0.1750 O   0  0  0  0  0  0  0  0  0  0  0  0
   -1.0530    0.6200    0.6210 C   0  0  0  0  0  0  0  0  0  0  0  0
   -1.9270   -0.3680    0.1700 C   0  0  2  0  0  0  0  0  0  0  0  0
   -2.6690   -0.7950   -0.9650 C   0  0  0  0  0  0  0  0  0  0  0  0
   -3.9940   -1.4960   -0.5480 C   0  0  1  0  0  0  0  0  0  0  0  0
   -4.8070   -1.8650   -1.7480 C   0  0  0  0  0  0  0  0  0  0  0  0
   -3.6910   -2.6870    0.1220 O   0  0  0  0  0  0  0  0  0  0  0  0
   -2.5030   -2.6190    0.7910 C   0  0  2  0  0  0  0  0  0  0  0  0
   -2.1630   -3.6680    1.7730 C   0  0  0  0  0  0  0  0  0  0  0  0
   -2.4100   -1.2230    1.3630 C   0  0  0  0  0  0  0  0  0  0  0  0
  2  1  1  1
  2  3  1  0
  2  4  1  0
  4  5  2  0
  4 22  1  0
  5  6  1  0
  5  7  1  0
  7  8  2  0
  8  9  1  0
  9 10  1  0
  9 22  2  0
 10 11  1  0
 11 12  1  6
 11 13  1  0
 11 20  1  0
 13 14  1  0
 15 14  1  6
 15 16  1  0
 15 20  1  0
 16 17  1  0
 17 18  1  0
 18 19  1  0
 19 20  1  0
 20 21  1  1
 23 22  1  1
 23 24  1  0
 23 30  1  0
 24 25  1  0
 25 26  1  6
 25 27  1  0
 27 28  1  0
 28 29  1  1
 28 30  1  0
M  END
