
     RDKit          3D

 30 34  0  0  0  0  0  0  0  0999 V2000
   -4.0100    0.8880   -2.6120 C   0  0  0  0  0  0  0  0  0  0  0  0
   -2.7800    0.8490   -1.7810 C   0  0  1  0  0  0  0  0  0  0  0  0
   -2.7840    1.7580   -0.5820 C   0  0  0  0  0  0  0  0  0  0  0  0
   -1.5260    1.2530    0.1430 C   0  0  1  0  0  0  0  0  0  0  0  0
   -1.7750    1.4690    1.6200 C   0  0  0  0  0  0  0  0  0  0  0  0
   -1.3060   -0.1290   -0.2780 C   0  0  1  0  0  0  0  0  0  0  0  0
   -0.0570   -0.3900   -1.0290 C   0  0  0  0  0  0  0  0  0  0  0  0
   -0.2000   -0.8520   -2.1820 O   0  0  0  0  0  0  0  0  0  0  0  0
    1.1870   -0.1220   -0.4430 N   0  0  0  0  0  0  0  0  0  0  0  0
    2.4260   -0.3260   -1.0620 C   0  0  0  0  0  0  0  0  0  0  0  0
    2.5450   -0.6900   -2.3760 C   0  0  0  0  0  0  0  0  0  0  0  0
    3.7940   -0.8590   -3.0060 C   0  0  0  0  0  0  0  0  0  0  0  0
    3.8300   -1.2310   -4.3490 O   0  0  0  0  0  0  0  0  0  0  0  0
    4.9060   -0.6480   -2.2620 C   0  0  0  0  0  0  0  0  0  0  0  0
    4.8370   -0.2750   -0.9120 C   0  0  0  0  0  0  0  0  0  0  0  0
    3.6170   -0.1170   -0.3210 C   0  0  0  0  0  0  0  0  0  0  0  0
    3.5070    0.2440    1.0890 C   0  0  1  0  0  0  0  0  0  0  0  0
    2.7940   -0.8360    1.8820 C   0  0  0  0  0  0  0  0  0  0  0  0
    4.7570    0.6560    1.8080 C   0  0  0  0  0  0  0  0  0  0  0  0
    4.4610    2.0970    1.4160 C   0  0  0  0  0  0  0  0  0  0  0  0
    2.9850    1.6590    1.3350 C   0  0  0  0  0  0  0  0  0  0  0  0
   -1.4140   -1.1910    0.7910 C   0  0  1  0  0  0  0  0  0  0  0  0
   -0.7530   -0.9000    1.9480 O   0  0  0  0  0  0  0  0  0  0  0  0
   -2.8870   -1.3620    0.9650 C   0  0  0  0  0  0  0  0  0  0  0  0
   -3.5530   -1.8490    2.0650 C   0  0  0  0  0  0  0  0  0  0  0  0
   -4.9180   -1.9230    2.0410 C   0  0  0  0  0  0  0  0  0  0  0  0
   -5.5730   -1.5050    0.9090 C   0  0  0  0  0  0  0  0  0  0  0  0
   -4.8910   -1.0200   -0.1850 C   0  0  0  0  0  0  0  0  0  0  0  0
   -3.4990   -0.9320   -0.1890 C   0  0  0  0  0  0  0  0  0  0  0  0
   -2.4820   -0.4910   -1.1450 C   0  0  1  0  0  0  0  0  0  0  0  0
  2  1  1  1
  2  3  1  0
  2 30  1  0
  3  4  1  0
  4  5  1  1
  4  6  1  0
  6  7  1  6
  6 22  1  0
  6 30  1  0
  7  8  2  0
  7  9  1  0
  9 10  1  0
 10 11  2  0
 10 16  1  0
 11 12  1  0
 12 13  1  0
 12 14  2  0
 14 15  1  0
 15 16  2  0
 16 17  1  0
 17 18  1  1
 17 19  1  0
 17 21  1  0
 19 20  1  0
 20 21  1  0
 22 23  1  1
 22 24  1  0
 24 25  2  0
 24 29  1  0
 25 26  1  0
 26 27  2  0
 27 28  1  0
 28 29  2  0
 30 29  1  1
M  END
