
     RDKit          3D

 29 33  0  0  0  0  0  0  0  0999 V2000
   -3.7140   -3.7780   -0.1480 C   0  0  0  0  0  0  0  0  0  0  0  0
   -3.3590   -2.6490   -1.0920 C   0  0  1  0  0  0  0  0  0  0  0  0
   -3.9160   -1.3240   -0.6110 C   0  0  0  0  0  0  0  0  0  0  0  0
   -3.0640   -0.6640    0.4300 C   0  0  2  0  0  0  0  0  0  0  0  0
   -3.7000   -0.1030    1.6180 C   0  0  2  0  0  0  0  0  0  0  0  0
   -4.3870   -1.1570    2.2840 O   0  0  0  0  0  0  0  0  0  0  0  0
   -4.4400    1.1460    1.6450 C   0  0  2  0  0  0  0  0  0  0  0  0
   -5.6610    1.2260    0.7210 C   0  0  0  0  0  0  0  0  0  0  0  0
   -4.5290    2.2490    0.7190 C   0  0  1  0  0  0  0  0  0  0  0  0
   -5.0110    3.6140    1.2570 C   0  0  0  0  0  0  0  0  0  0  0  0
   -2.0590    0.2300   -0.2700 C   0  0  2  0  0  0  0  0  0  0  0  0
   -2.5810    0.5710   -1.5470 O   0  0  0  0  0  0  0  0  0  0  0  0
   -0.8650   -0.6180   -0.6010 C   0  0  0  0  0  0  0  0  0  0  0  0
    0.3280    0.0030   -0.3400 C   0  0  0  0  0  0  0  0  0  0  0  0
    1.5510   -0.6350   -0.5860 C   0  0  0  0  0  0  0  0  0  0  0  0
    2.8150    0.0440   -0.3010 C   0  0  0  0  0  0  0  0  0  0  0  0
    2.8880    0.9410    0.7430 C   0  0  0  0  0  0  0  0  0  0  0  0
    4.0630    1.6110    1.0550 C   0  0  0  0  0  0  0  0  0  0  0  0
    5.1920    1.3900    0.3190 C   0  0  0  0  0  0  0  0  0  0  0  0
    5.1510    0.4990   -0.7320 C   0  0  0  0  0  0  0  0  0  0  0  0
    3.9700   -0.1570   -1.0250 C   0  0  0  0  0  0  0  0  0  0  0  0
    6.4060    0.2960   -1.4980 C   0  0  0  0  0  0  0  0  0  0  0  0
    7.4840   -0.0310   -0.4590 C   0  0  0  0  0  0  0  0  0  0  0  0
    7.5920    1.0300    0.5840 C   0  0  0  0  0  0  0  0  0  0  0  0
    6.5020    2.0540    0.5670 C   0  0  0  0  0  0  0  0  0  0  0  0
    1.5400   -1.9110   -1.1010 C   0  0  0  0  0  0  0  0  0  0  0  0
    0.3560   -2.5540   -1.3720 C   0  0  0  0  0  0  0  0  0  0  0  0
   -0.8310   -1.8980   -1.1180 C   0  0  0  0  0  0  0  0  0  0  0  0
   -1.9800   -2.6540   -1.4320 N   0  0  0  0  0  0  0  0  0  0  0  0
  2  1  1  1
  2  3  1  0
  2 29  1  0
  4  3  1  6
  4  5  1  0
  4 11  1  0
  5  6  1  6
  5  7  1  0
  7  8  1  6
  7  9  1  0
  8  9  1  0
  9 10  1  1
 11 12  1  6
 11 13  1  0
 13 14  2  0
 13 28  1  0
 14 15  1  0
 15 16  1  0
 15 26  2  0
 16 17  2  0
 16 21  1  0
 17 18  1  0
 18 19  2  0
 19 20  1  0
 19 25  1  0
 20 21  2  0
 20 22  1  0
 22 23  1  0
 23 24  1  0
 24 25  1  0
 26 27  1  0
 27 28  2  0
 28 29  1  0
M  END
