
     RDKit          3D

 20 22  0  0  0  0  0  0  0  0999 V2000
    4.3520    1.2060    1.2820 N   0  0  0  0  0  0  0  0  0  0  0  0
    4.4330   -0.0730    0.6490 C   0  0  0  0  0  0  0  0  0  0  0  0
    5.5890   -0.8170    0.5640 C   0  0  0  0  0  0  0  0  0  0  0  0
    5.2540   -1.9820   -0.1180 C   0  0  0  0  0  0  0  0  0  0  0  0
    3.9580   -1.8820   -0.3990 N   0  0  0  0  0  0  0  0  0  0  0  0
    3.4370   -0.7550    0.0440 N   0  0  0  0  0  0  0  0  0  0  0  0
    2.0770   -0.3430   -0.0940 C   0  0  0  0  0  0  0  0  0  0  0  0
    1.2590   -0.1170    0.9940 C   0  0  0  0  0  0  0  0  0  0  0  0
   -0.0580    0.2810    0.8910 C   0  0  0  0  0  0  0  0  0  0  0  0
   -0.6250    0.4740   -0.3400 C   0  0  0  0  0  0  0  0  0  0  0  0
   -2.0070    0.8660   -0.5540 C   0  0  0  0  0  0  0  0  0  0  0  0
   -2.2630    2.0570   -1.2100 C   0  0  0  0  0  0  0  0  0  0  0  0
   -3.5630    2.4400   -1.3920 C   0  0  0  0  0  0  0  0  0  0  0  0
   -4.5790    1.6370   -0.9230 C   0  0  0  0  0  0  0  0  0  0  0  0
   -4.2700    0.4980   -0.2970 N   0  0  0  0  0  0  0  0  0  0  0  0
   -3.0060    0.0560   -0.0810 C   0  0  0  0  0  0  0  0  0  0  0  0
   -2.8200   -1.2390    0.6070 C   0  0  0  0  0  0  0  0  0  0  0  0
   -4.1550   -1.7870    0.9320 N   0  0  0  0  0  0  0  0  0  0  0  0
    0.1790    0.2540   -1.4420 C   0  0  0  0  0  0  0  0  0  0  0  0
    1.4920   -0.1430   -1.3260 C   0  0  0  0  0  0  0  0  0  0  0  0
  1  2  1  0
  2  3  2  0
  2  6  1  0
  3  4  1  0
  4  5  2  0
  5  6  1  0
  6  7  1  0
  7  8  2  0
  7 20  1  0
  8  9  1  0
  9 10  2  0
 10 11  1  0
 10 19  1  0
 11 12  2  0
 11 16  1  0
 12 13  1  0
 13 14  2  0
 14 15  1  0
 15 16  2  0
 16 17  1  0
 17 18  1  0
 19 20  2  0
M  CHG  1  18   1
M  END
