
     RDKit          3D

 20 22  0  0  0  0  0  0  0  0999 V2000
   -3.9930   -0.1650   -1.8600 C   0  0  0  0  0  0  0  0  0  0  0  0
   -2.8600   -0.3180   -0.9100 C   0  0  0  0  0  0  0  0  0  0  0  0
   -1.5960    0.0640   -1.2640 C   0  0  0  0  0  0  0  0  0  0  0  0
   -0.5120    0.0080   -0.3540 C   0  0  0  0  0  0  0  0  0  0  0  0
    0.6410    0.4990   -0.7340 N   0  0  0  0  0  0  0  0  0  0  0  0
    1.7280    0.6010    0.1090 C   0  0  0  0  0  0  0  0  0  0  0  0
    2.8780    1.3160   -0.4300 C   0  0  0  0  0  0  0  0  0  0  0  0
    4.2030    0.8180   -0.3140 N   0  0  0  0  0  0  0  0  0  0  0  0
    5.0670    1.1910    0.6930 C   0  0  0  0  0  0  0  0  0  0  0  0
    6.3010    0.5910    0.4070 C   0  0  0  0  0  0  0  0  0  0  0  0
    6.1940   -0.1370   -0.7340 C   0  0  0  0  0  0  0  0  0  0  0  0
    4.8720    0.0110   -1.1650 C   0  0  0  0  0  0  0  0  0  0  0  0
    1.5480    0.1590    1.3370 N   0  0  0  0  0  0  0  0  0  0  0  0
    0.3340   -0.3760    1.7910 C   0  0  0  0  0  0  0  0  0  0  0  0
    0.2580   -0.8150    2.9840 N   0  0  0  0  0  0  0  0  0  0  0  0
   -0.7240   -0.4480    0.9310 C   0  0  0  0  0  0  0  0  0  0  0  0
   -1.9840   -0.8380    1.3100 C   0  0  0  0  0  0  0  0  0  0  0  0
   -3.0240   -0.7610    0.3730 C   0  0  0  0  0  0  0  0  0  0  0  0
   -4.3930   -1.2010    0.7960 C   0  0  0  0  0  0  0  0  0  0  0  0
   -4.9190   -0.1760    1.7270 N   0  0  0  0  0  0  0  0  0  0  0  0
  1  2  1  0
  2  3  2  0
  2 18  1  0
  3  4  1  0
  4  5  1  0
  4 16  2  0
  5  6  2  0
  6  7  1  0
  6 13  1  0
  7  8  1  0
  8  9  1  0
  8 12  1  0
  9 10  2  0
 10 11  1  0
 11 12  2  0
 13 14  1  0
 14 15  2  0
 14 16  1  0
 16 17  1  0
 17 18  2  0
 18 19  1  0
 19 20  1  0
M  CHG  1  20   1
M  END
