
     RDKit          3D

 20 22  0  0  0  0  0  0  0  0999 V2000
    4.7470    0.0490    2.6150 N   0  0  0  0  0  0  0  0  0  0  0  0
    4.2680   -0.3420    1.3480 C   0  0  0  0  0  0  0  0  0  0  0  0
    4.8930   -1.2880    0.6120 N   0  0  0  0  0  0  0  0  0  0  0  0
    4.4100   -1.6360   -0.5910 C   0  0  0  0  0  0  0  0  0  0  0  0
    3.2650   -1.0320   -1.0960 C   0  0  0  0  0  0  0  0  0  0  0  0
    2.5910   -0.0530   -0.3690 C   0  0  0  0  0  0  0  0  0  0  0  0
    1.4210    0.5720   -0.8720 N   0  0  0  0  0  0  0  0  0  0  0  0
    0.8390    0.2620   -2.1420 C   0  0  0  0  0  0  0  0  0  0  0  0
   -0.4010    1.0850   -2.4130 C   0  0  0  0  0  0  0  0  0  0  0  0
   -1.4530    0.8690   -1.4070 C   0  0  0  0  0  0  0  0  0  0  0  0
   -2.4320   -0.1040   -1.5250 C   0  0  0  0  0  0  0  0  0  0  0  0
   -3.3750   -0.2290   -0.5260 C   0  0  0  0  0  0  0  0  0  0  0  0
   -3.3350    0.6090    0.5690 C   0  0  0  0  0  0  0  0  0  0  0  0
   -2.3570    1.5680    0.6690 C   0  0  0  0  0  0  0  0  0  0  0  0
   -1.4530    1.6670   -0.3170 N   0  0  0  0  0  0  0  0  0  0  0  0
   -4.4560    0.2560    1.4750 C   0  0  0  0  0  0  0  0  0  0  0  0
   -4.7060   -1.1880    1.1190 C   0  0  0  0  0  0  0  0  0  0  0  0
   -4.5190   -1.1690   -0.3940 C   0  0  0  0  0  0  0  0  0  0  0  0
    3.1300    0.2640    0.8560 C   0  0  0  0  0  0  0  0  0  0  0  0
    2.4860    1.2510    1.6330 N   0  0  0  0  0  0  0  0  0  0  0  0
  1  2  1  0
  2  3  2  0
  2 19  1  0
  3  4  1  0
  4  5  2  0
  5  6  1  0
  6  7  1  0
  6 19  2  0
  7  8  1  0
  8  9  1  0
  9 10  1  0
 10 11  2  0
 10 15  1  0
 11 12  1  0
 12 13  2  0
 12 18  1  0
 13 14  1  0
 13 16  1  0
 14 15  2  0
 16 17  1  0
 17 18  1  0
 19 20  1  0
M  CHG  1   3   1
M  END
