
     RDKit          3D

 20 22  0  0  0  0  0  0  0  0999 V2000
   -5.4960    3.5760   -0.9310 N   0  0  0  0  0  0  0  0  0  0  0  0
   -4.5780    2.5510   -0.6680 C   0  0  0  0  0  0  0  0  0  0  0  0
   -3.4340    2.5390   -1.4100 N   0  0  0  0  0  0  0  0  0  0  0  0
   -2.5020    1.5860   -1.2180 C   0  0  0  0  0  0  0  0  0  0  0  0
   -2.6980    0.6150   -0.2660 C   0  0  0  0  0  0  0  0  0  0  0  0
   -3.8450    0.6040    0.4970 C   0  0  0  0  0  0  0  0  0  0  0  0
   -4.7500    1.5970    0.2520 N   0  0  0  0  0  0  0  0  0  0  0  0
   -4.1320   -0.4210    1.5350 C   0  0  0  0  0  0  0  0  0  0  0  0
   -2.8670   -1.1220    1.9280 C   0  0  0  0  0  0  0  0  0  0  0  0
   -2.2390   -1.6500    0.6230 C   0  0  0  0  0  0  0  0  0  0  0  0
   -1.6730   -0.4520   -0.0260 C   0  0  0  0  0  0  0  0  0  0  0  0
   -0.4300   -0.2480   -0.3650 C   0  0  0  0  0  0  0  0  0  0  0  0
    0.6120   -1.2380   -0.1610 C   0  0  0  0  0  0  0  0  0  0  0  0
    1.6830   -0.8170    0.6940 N   0  0  0  0  0  0  0  0  0  0  0  0
    2.7110   -1.7680    0.9090 C   0  0  0  0  0  0  0  0  0  0  0  0
    3.9080   -1.5490    0.0350 C   0  0  0  0  0  0  0  0  0  0  0  0
    4.3520   -0.1070    0.0090 C   0  0  1  0  0  0  0  0  0  0  0  0
    5.5090    0.1090   -0.8030 N   0  0  0  0  0  0  0  0  0  0  0  0
    3.1460    0.6860   -0.5110 C   0  0  0  0  0  0  0  0  0  0  0  0
    2.0890    0.5340    0.5880 C   0  0  0  0  0  0  0  0  0  0  0  0
  1  2  1  0
  2  3  2  0
  2  7  1  0
  3  4  1  0
  4  5  2  0
  5  6  1  0
  5 11  1  0
  6  7  2  0
  6  8  1  0
  8  9  1  0
  9 10  1  0
 10 11  1  0
 11 12  2  3
 12 13  1  0
 13 14  1  0
 14 15  1  0
 14 20  1  0
 15 16  1  0
 16 17  1  0
 17 18  1  6
 17 19  1  0
 19 20  1  0
M  CHG  1  18   1
M  END
