
     RDKit          3D

 20 22  0  0  0  0  0  0  0  0999 V2000
    5.2340   -1.0610    0.0590 C   0  0  0  0  0  0  0  0  0  0  0  0
    5.0950    0.1600    0.9740 C   0  0  1  0  0  0  0  0  0  0  0  0
    5.3100    1.3790    0.1190 C   0  0  0  0  0  0  0  0  0  0  0  0
    3.7610    0.0790    1.5370 N   0  0  0  0  0  0  0  0  0  0  0  0
    2.6360    0.0740    0.6950 C   0  0  0  0  0  0  0  0  0  0  0  0
    2.6570    0.1390   -0.6400 N   0  0  0  0  0  0  0  0  0  0  0  0
    1.4550    0.1150   -1.1600 N   0  0  0  0  0  0  0  0  0  0  0  0
    0.6060    0.0320   -0.1190 C   0  0  0  0  0  0  0  0  0  0  0  0
   -0.8580   -0.0200   -0.2650 C   0  0  0  0  0  0  0  0  0  0  0  0
   -1.4530    0.0150   -1.5010 C   0  0  0  0  0  0  0  0  0  0  0  0
   -2.8250   -0.0310   -1.6820 C   0  0  0  0  0  0  0  0  0  0  0  0
   -3.3820    0.0090   -2.9990 N   0  0  0  0  0  0  0  0  0  0  0  0
   -3.5990   -0.1160   -0.5460 C   0  0  0  0  0  0  0  0  0  0  0  0
   -4.9730   -0.1650   -0.6580 C   0  0  0  0  0  0  0  0  0  0  0  0
   -5.7550   -0.2510    0.4880 C   0  0  0  0  0  0  0  0  0  0  0  0
   -5.2110   -0.2900    1.7550 C   0  0  0  0  0  0  0  0  0  0  0  0
   -3.8360   -0.2400    1.8680 C   0  0  0  0  0  0  0  0  0  0  0  0
   -3.0550   -0.1550    0.7330 C   0  0  0  0  0  0  0  0  0  0  0  0
   -1.6830   -0.1050    0.8340 C   0  0  0  0  0  0  0  0  0  0  0  0
    1.3230    0.0070    1.0110 N   0  0  0  0  0  0  0  0  0  0  0  0
  2  1  1  6
  2  3  1  0
  2  4  1  0
  4  5  1  0
  5  6  2  0
  5 20  1  0
  6  7  1  0
  7  8  1  0
  8  9  1  0
  8 20  2  0
  9 10  2  0
  9 19  1  0
 10 11  1  0
 11 12  1  0
 11 13  2  0
 13 14  1  0
 13 18  1  0
 14 15  2  0
 15 16  1  0
 16 17  2  0
 17 18  1  0
 18 19  2  0
M  CHG  1  12   1
M  END
