
     RDKit          3D

 20 22  0  0  0  0  0  0  0  0999 V2000
   -6.3990   -1.2060   -0.7670 N   0  0  0  0  0  0  0  0  0  0  0  0
   -5.1140   -0.6510   -0.5230 C   0  0  0  0  0  0  0  0  0  0  0  0
   -4.7630    0.6410   -0.8680 C   0  0  0  0  0  0  0  0  0  0  0  0
   -3.4980    1.1260   -0.6070 C   0  0  0  0  0  0  0  0  0  0  0  0
   -2.5190    0.3710    0.0010 C   0  0  0  0  0  0  0  0  0  0  0  0
   -1.1890    0.8990    0.2780 C   0  0  0  0  0  0  0  0  0  0  0  0
   -0.9870    2.1350    0.8680 C   0  0  0  0  0  0  0  0  0  0  0  0
    0.2740    2.6220    1.1380 C   0  0  0  0  0  0  0  0  0  0  0  0
    1.3450    1.8540    0.8080 N   0  0  0  0  0  0  0  0  0  0  0  0
    1.1730    0.6500    0.2340 C   0  0  0  0  0  0  0  0  0  0  0  0
    2.3340   -0.0980   -0.0790 N   0  0  0  0  0  0  0  0  0  0  0  0
    2.8250   -1.0980    0.8100 C   0  0  0  0  0  0  0  0  0  0  0  0
    4.3140   -1.3280    0.5710 C   0  0  0  0  0  0  0  0  0  0  0  0
    4.9810   -0.1060    0.2110 N   0  0  0  0  0  0  0  0  0  0  0  0
    4.5190    0.4650   -1.0320 C   0  0  0  0  0  0  0  0  0  0  0  0
    3.0630    0.1410   -1.3100 C   0  0  0  0  0  0  0  0  0  0  0  0
   -0.0790    0.1430   -0.0440 C   0  0  0  0  0  0  0  0  0  0  0  0
   -0.2020   -1.1240   -0.6470 N   0  0  0  0  0  0  0  0  0  0  0  0
   -2.8630   -0.9360    0.3550 C   0  0  0  0  0  0  0  0  0  0  0  0
   -4.1260   -1.4120    0.0920 C   0  0  0  0  0  0  0  0  0  0  0  0
  1  2  1  0
  2  3  2  0
  2 20  1  0
  3  4  1  0
  4  5  2  0
  5  6  1  0
  5 19  1  0
  6  7  2  0
  6 17  1  0
  7  8  1  0
  8  9  2  0
  9 10  1  0
 10 11  1  0
 10 17  2  0
 11 12  1  0
 11 16  1  0
 12 13  1  0
 13 14  1  0
 14 15  1  0
 15 16  1  0
 17 18  1  0
 19 20  2  0
M  CHG  1   9   1
M  END
