
     RDKit          3D

 20 22  0  0  0  0  0  0  0  0999 V2000
   -5.0670    1.2580   -0.0720 N   0  0  0  0  0  0  0  0  0  0  0  0
   -3.6570    1.3720    0.0720 C   0  0  0  0  0  0  0  0  0  0  0  0
   -3.1910    2.4960    0.4140 N   0  0  0  0  0  0  0  0  0  0  0  0
   -2.8280    0.2070   -0.1760 C   0  0  0  0  0  0  0  0  0  0  0  0
   -3.3690   -1.0060   -0.5470 C   0  0  0  0  0  0  0  0  0  0  0  0
   -2.6050   -2.1130   -0.7850 C   0  0  0  0  0  0  0  0  0  0  0  0
   -1.2250   -1.9820   -0.6380 C   0  0  0  0  0  0  0  0  0  0  0  0
   -0.4370   -3.0920   -0.8750 C   0  0  0  0  0  0  0  0  0  0  0  0
    0.9220   -3.0370   -0.7500 C   0  0  0  0  0  0  0  0  0  0  0  0
    1.5270   -1.8310   -0.3760 C   0  0  0  0  0  0  0  0  0  0  0  0
    0.7770   -0.7000   -0.1300 C   0  0  0  0  0  0  0  0  0  0  0  0
    1.3750    0.5140    0.2460 N   0  0  0  0  0  0  0  0  0  0  0  0
    2.7590    0.7670    0.4260 C   0  0  0  0  0  0  0  0  0  0  0  0
    3.1330    2.0300    0.7980 N   0  0  0  0  0  0  0  0  0  0  0  0
    4.4020    2.4000    1.0000 C   0  0  0  0  0  0  0  0  0  0  0  0
    5.4040    1.4740    0.8310 C   0  0  0  0  0  0  0  0  0  0  0  0
    5.0540    0.1740    0.4510 C   0  0  0  0  0  0  0  0  0  0  0  0
    3.7540   -0.0900    0.2750 N   0  0  0  0  0  0  0  0  0  0  0  0
   -0.6090   -0.7940   -0.2670 C   0  0  0  0  0  0  0  0  0  0  0  0
   -1.4540    0.2880   -0.0430 C   0  0  0  0  0  0  0  0  0  0  0  0
  1  2  1  0
  2  3  2  0
  2  4  1  0
  4  5  2  0
  4 20  1  0
  5  6  1  0
  6  7  2  0
  7  8  1  0
  7 19  1  0
  8  9  2  0
  9 10  1  0
 10 11  2  0
 11 12  1  0
 11 19  1  0
 12 13  1  0
 13 14  2  0
 13 18  1  0
 14 15  1  0
 15 16  2  0
 16 17  1  0
 17 18  2  0
 19 20  2  0
M  CHG  1   3   1
M  END
