
     RDKit          3D

 20 22  0  0  0  0  0  0  0  0999 V2000
    3.8580   -2.2090   -0.4100 C   0  0  0  0  0  0  0  0  0  0  0  0
    3.1380   -0.9130   -0.4790 C   0  0  0  0  0  0  0  0  0  0  0  0
    1.8410   -0.7980   -0.1380 N   0  0  0  0  0  0  0  0  0  0  0  0
    1.1520    0.3670   -0.1860 C   0  0  0  0  0  0  0  0  0  0  0  0
   -0.2530    0.4500    0.1590 C   0  0  0  0  0  0  0  0  0  0  0  0
   -0.8450    1.6890    0.1850 C   0  0  0  0  0  0  0  0  0  0  0  0
   -2.1780    1.8570    0.4790 C   0  0  0  0  0  0  0  0  0  0  0  0
   -3.0110    0.7570    0.7710 C   0  0  0  0  0  0  0  0  0  0  0  0
   -2.4100   -0.4650    0.7410 C   0  0  0  0  0  0  0  0  0  0  0  0
   -1.0490   -0.6280    0.4410 C   0  0  0  0  0  0  0  0  0  0  0  0
   -3.2050   -1.6980    1.0130 C   0  0  0  0  0  0  0  0  0  0  0  0
   -4.6880   -1.3700    0.8840 C   0  0  0  0  0  0  0  0  0  0  0  0
   -4.9450   -0.1150    1.7390 C   0  0  0  0  0  0  0  0  0  0  0  0
   -4.3700    1.0180    1.0610 N   0  0  0  0  0  0  0  0  0  0  0  0
    1.8370    1.4340   -0.5990 N   0  0  0  0  0  0  0  0  0  0  0  0
    3.1150    1.4300   -0.9580 C   0  0  0  0  0  0  0  0  0  0  0  0
    3.8490    2.5600   -1.3970 N   0  0  0  0  0  0  0  0  0  0  0  0
    3.8040    0.2100   -0.9000 C   0  0  0  0  0  0  0  0  0  0  0  0
    5.1990    0.1610   -1.2810 C   0  0  0  0  0  0  0  0  0  0  0  0
    5.8730   -0.9040   -1.2350 N   0  0  0  0  0  0  0  0  0  0  0  0
  1  2  1  0
  2  3  2  0
  2 18  1  0
  3  4  1  0
  4  5  1  0
  4 15  2  0
  5  6  2  0
  5 10  1  0
  6  7  1  0
  7  8  2  0
  8  9  1  0
  8 14  1  0
  9 10  2  0
  9 11  1  0
 11 12  1  0
 12 13  1  0
 13 14  1  0
 15 16  1  0
 16 17  1  0
 16 18  2  0
 18 19  1  0
 19 20  2  0
M  CHG  1  14   1
M  END
