
     RDKit          3D

 24 26  0  0  0  0  0  0  0  0999 V2000
    1.2880   -4.1800   -0.7660 C   0  0  0  0  0  0  0  0  0  0  0  0
    0.9880   -2.8510   -0.5000 O   0  0  0  0  0  0  0  0  0  0  0  0
   -0.2490   -2.2870   -0.4130 C   0  0  0  0  0  0  0  0  0  0  0  0
   -1.3170   -3.1040   -0.6010 C   0  0  0  0  0  0  0  0  0  0  0  0
   -2.5910   -2.6190   -0.5280 C   0  0  0  0  0  0  0  0  0  0  0  0
   -2.7580   -1.3000   -0.2600 C   0  0  0  0  0  0  0  0  0  0  0  0
   -4.0600   -0.8550   -0.1460 C   0  0  0  0  0  0  0  0  0  0  0  0
   -4.3500    0.4280    0.1680 C   0  0  0  0  0  0  0  0  0  0  0  0
   -3.2870    1.3020    0.3750 C   0  0  0  0  0  0  0  0  0  0  0  0
   -3.5960    2.6690    0.7470 C   0  0  0  0  0  0  0  0  0  0  0  0
   -4.9690    3.0690    0.9620 N   0  0  0  0  0  0  0  0  0  0  0  0
   -2.6940    3.5610    0.9290 N   0  0  0  0  0  0  0  0  0  0  0  0
   -2.0060    0.8490    0.2550 C   0  0  0  0  0  0  0  0  0  0  0  0
   -1.6480   -0.4600   -0.0660 C   0  0  0  0  0  0  0  0  0  0  0  0
   -0.3590   -0.9020   -0.1350 C   0  0  0  0  0  0  0  0  0  0  0  0
    0.8120   -0.1060    0.1340 C   0  0  2  0  0  0  0  0  0  0  0  0
    0.9320    1.3150   -0.1960 C   0  0  0  0  0  0  0  0  0  0  0  0
    2.3880    1.5060   -0.4980 N   0  0  0  0  0  0  0  0  0  0  0  0
    2.9730    0.4470    0.1200 N   0  0  0  0  0  0  0  0  0  0  0  0
    4.5960    0.1230   -0.0530 S   0  0  2  0  0  0  0  0  0  0  0  0
    5.6530    1.4200    0.5550 C   0  0  0  0  0  0  0  0  0  0  0  0
    5.0040   -0.1990   -1.4730 O   0  0  0  0  0  0  0  0  0  0  0  0
    4.8960   -1.1630    0.7370 O   0  0  0  0  0  0  0  0  0  0  0  0
    2.1210   -0.6930   -0.2740 C   0  0  0  0  0  0  0  0  0  0  0  0
  1  2  1  0
  2  3  1  0
  3  4  2  0
  3 15  1  0
  4  5  1  0
  5  6  2  0
  6  7  1  0
  6 14  1  0
  7  8  2  0
  8  9  1  0
  9 10  1  0
  9 13  2  0
 10 11  1  0
 10 12  2  0
 13 14  1  0
 14 15  2  0
 16 15  1  6
 16 17  1  0
 16 24  1  0
 17 18  1  0
 18 19  1  0
 19 20  1  0
 19 24  1  0
 20 21  1  1
 20 22  2  0
 20 23  2  0
M  CHG  2  12   1  18   1
M  END
