
     RDKit          3D

 27 28  0  0  0  0  0  0  0  0999 V2000
   -4.8850   -0.9100    2.9740 C   0  0  0  0  0  0  0  0  0  0  0  0
   -4.2610   -0.0950    1.8890 C   0  0  0  0  0  0  0  0  0  0  0  0
   -5.3000    0.6590    1.0720 C   0  0  0  0  0  0  0  0  0  0  0  0
   -4.6380    1.4680   -0.0100 C   0  0  2  0  0  0  0  0  0  0  0  0
   -5.6510    2.2120   -0.8180 C   0  0  0  0  0  0  0  0  0  0  0  0
   -3.8540    0.5490   -0.8150 N   0  0  0  0  0  0  0  0  0  0  0  0
   -2.4440    0.6310   -0.9190 C   0  0  0  0  0  0  0  0  0  0  0  0
   -1.8450    1.5340   -0.2910 O   0  0  0  0  0  0  0  0  0  0  0  0
   -1.6450   -0.3070   -1.7410 C   0  0  0  0  0  0  0  0  0  0  0  0
   -0.2160    0.0190   -1.6590 N   0  0  0  0  0  0  0  0  0  0  0  0
    0.4000    0.9390   -2.5600 C   0  0  0  0  0  0  0  0  0  0  0  0
    1.0000    0.3130   -3.7880 C   0  0  0  0  0  0  0  0  0  0  0  0
    1.5560    1.3330   -4.5580 O   0  0  0  0  0  0  0  0  0  0  0  0
    0.5630   -0.5810   -0.6510 C   0  0  0  0  0  0  0  0  0  0  0  0
   -0.0130   -1.3790    0.1640 O   0  0  0  0  0  0  0  0  0  0  0  0
    1.9890   -0.3470   -0.4810 C   0  0  0  0  0  0  0  0  0  0  0  0
    2.8010   -0.9230    0.5130 C   0  0  0  0  0  0  0  0  0  0  0  0
    4.0880   -0.4660    0.3550 C   0  0  0  0  0  0  0  0  0  0  0  0
    5.2770   -0.7800    1.1400 C   0  0  0  0  0  0  0  0  0  0  0  0
    5.2320   -1.6430    2.2170 C   0  0  0  0  0  0  0  0  0  0  0  0
    6.3660   -1.9370    2.9600 C   0  0  0  0  0  0  0  0  0  0  0  0
    7.5620   -1.3990    2.6690 N   0  0  0  0  0  0  0  0  0  0  0  0
    8.6930   -1.6990    3.4180 O   0  0  0  0  0  0  0  0  0  0  0  0
    7.6220   -0.5580    1.6240 C   0  0  0  0  0  0  0  0  0  0  0  0
    6.5120   -0.2360    0.8540 C   0  0  0  0  0  0  0  0  0  0  0  0
    4.0540    0.3350   -0.6710 O   0  0  0  0  0  0  0  0  0  0  0  0
    2.8580    0.4140   -1.1610 N   0  0  0  0  0  0  0  0  0  0  0  0
  1  2  1  0
  2  3  1  0
  3  4  1  0
  4  5  1  6
  4  6  1  0
  6  7  1  0
  7  8  2  0
  7  9  1  0
  9 10  1  0
 10 11  1  0
 10 14  1  0
 11 12  1  0
 12 13  1  0
 14 15  2  0
 14 16  1  0
 16 17  1  0
 16 27  2  0
 17 18  2  0
 18 19  1  0
 18 26  1  0
 19 20  2  0
 19 25  1  0
 20 21  1  0
 21 22  2  0
 22 23  1  0
 22 24  1  0
 24 25  2  0
 26 27  1  0
M  CHG  2  22   1  23  -1
M  END
