
     RDKit          3D

  6  6  0  0  0  0  0  0  0  0999 V2000
   -1.7450    0.5390   -0.3960 N   0  0  0  0  0  0  0  0  0  0  0  0
   -0.7150   -0.4570   -0.1230 C   0  0  2  0  0  0  0  0  0  0  0  0
   -0.0600   -0.1130    1.1100 N   0  0  0  0  0  0  0  0  0  0  0  0
    1.1950    0.0010    0.8560 C   0  0  0  0  0  0  0  0  0  0  0  0
    1.4180   -0.2640   -0.5570 C   0  0  0  0  0  0  0  0  0  0  0  0
    0.2830   -0.5340   -1.1290 N   0  0  0  0  0  0  0  0  0  0  0  0
  2  1  1  6
  2  3  1  0
  2  6  1  0
  3  4  2  0
  4  5  1  0
  5  6  2  0
M  END
