
     RDKit          3D

  6  6  0  0  0  0  0  0  0  0999 V2000
   -1.7560   -0.6950    0.0790 N   0  0  0  0  0  0  0  0  0  0  0  0
   -0.3920   -0.3260    0.0010 C   0  0  0  0  0  0  0  0  0  0  0  0
    0.6060   -1.1120   -0.2040 N   0  0  0  0  0  0  0  0  0  0  0  0
    1.8300   -0.4330   -0.2250 C   0  0  0  0  0  0  0  0  0  0  0  0
    1.5740    0.8170   -0.0250 N   0  0  0  0  0  0  0  0  0  0  0  0
    0.1600    1.0420    0.1410 C   0  0  0  0  0  0  0  0  0  0  0  0
  1  2  1  0
  2  3  2  0
  2  6  1  0
  3  4  1  0
  4  5  2  0
  5  6  1  0
M  END
