
     RDKit          3D

  6  6  0  0  0  0  0  0  0  0999 V2000
    1.7760   -0.3590   -0.0620 N   0  0  0  0  0  0  0  0  0  0  0  0
    0.4170    0.0420   -0.0090 C   0  0  0  0  0  0  0  0  0  0  0  0
   -0.1100    1.3160    0.0350 C   0  0  0  0  0  0  0  0  0  0  0  0
   -1.4470    1.1700    0.0770 N   0  0  0  0  0  0  0  0  0  0  0  0
   -1.7430   -0.1140    0.0600 N   0  0  0  0  0  0  0  0  0  0  0  0
   -0.6220   -0.8520    0.0070 C   0  0  0  0  0  0  0  0  0  0  0  0
  1  2  1  0
  2  3  1  0
  2  6  2  0
  3  4  2  0
  4  5  1  0
  5  6  1  0
M  END
