
     RDKit          3D

  6  6  0  0  0  0  0  0  0  0999 V2000
    2.3620   -0.1240   -0.0150 N   0  0  0  0  0  0  0  0  0  0  0  0
    1.0750    0.0440   -0.0140 C   0  0  0  0  0  0  0  0  0  0  0  0
    0.3620    1.2570   -0.1570 N   0  0  0  0  0  0  0  0  0  0  0  0
   -0.8970    1.0610   -0.1100 C   0  0  0  0  0  0  0  0  0  0  0  0
   -1.1820   -0.3690    0.0780 C   0  0  0  0  0  0  0  0  0  0  0  0
    0.1150   -0.9870    0.1340 N   0  0  0  0  0  0  0  0  0  0  0  0
  1  2  2  0
  2  3  1  0
  2  6  1  0
  3  4  2  0
  4  5  1  0
  5  6  1  0
M  END
