
     RDKit          3D

 34 37  0  0  0  0  0  0  0  0999 V2000
    5.6730   -1.1110    5.0780 C   0  0  0  0  0  0  0  0  0  0  0  0
    6.2380    0.0880    5.0750 C   0  0  0  0  0  0  0  0  0  0  0  0
    6.3950    0.8400    3.8440 C   0  0  0  0  0  0  0  0  0  0  0  0
    6.9660    2.0210    3.8650 C   0  0  0  0  0  0  0  0  0  0  0  0
    5.9100    0.3030    2.5330 C   0  0  0  0  0  0  0  0  0  0  0  0
    4.4800    0.1090    2.6590 N   0  0  0  0  0  0  0  0  0  0  0  0
    3.7370   -0.4210    1.5490 C   0  0  0  0  0  0  0  0  0  0  0  0
    4.4050   -0.6810    0.5400 O   0  0  0  0  0  0  0  0  0  0  0  0
    2.3270   -0.5880    1.7300 C   0  0  0  0  0  0  0  0  0  0  0  0
    1.7760   -0.2320    2.8430 O   0  0  0  0  0  0  0  0  0  0  0  0
    1.4840   -1.1320    0.7370 N   0  0  0  0  0  0  0  0  0  0  0  0
    0.0780   -1.1660    1.1250 C   0  0  0  0  0  0  0  0  0  0  0  0
   -0.5210   -2.5370    0.9780 C   0  0  0  0  0  0  0  0  0  0  0  0
   -0.8560   -2.8620   -0.4510 C   0  0  0  0  0  0  0  0  0  0  0  0
   -0.1680   -1.9110   -1.2760 N   0  0  0  0  0  0  0  0  0  0  0  0
   -0.6680   -0.7870   -1.8770 C   0  0  0  0  0  0  0  0  0  0  0  0
    0.3060   -0.1900   -2.6100 O   0  0  0  0  0  0  0  0  0  0  0  0
   -1.8680   -0.0720   -1.9650 C   0  0  0  0  0  0  0  0  0  0  0  0
   -1.9320    1.4290   -3.1610 S   0  0  0  0  0  0  0  0  0  0  0  0
   -3.7060    1.7980   -2.6820 C   0  0  0  0  0  0  0  0  0  0  0  0
   -4.3900    2.9210   -3.3000 C   0  0  0  0  0  0  0  0  0  0  0  0
   -5.6830    3.1570   -2.8950 C   0  0  0  0  0  0  0  0  0  0  0  0
   -6.3870    4.2010   -3.4390 C   0  0  0  0  0  0  0  0  0  0  0  0
   -5.7600    4.9890   -4.3880 C   0  0  0  0  0  0  0  0  0  0  0  0
   -4.5350    4.7190   -4.7340 O   0  0  0  0  0  0  0  0  0  0  0  0
   -3.8190    3.7350   -4.2460 C   0  0  0  0  0  0  0  0  0  0  0  0
   -2.6500    3.5420   -4.6310 O   0  0  0  0  0  0  0  0  0  0  0  0
   -3.9020    0.9450   -1.9000 N   0  0  0  0  0  0  0  0  0  0  0  0
   -3.1200   -0.0060   -1.4680 C   0  0  0  0  0  0  0  0  0  0  0  0
   -3.6050   -0.9670   -0.4080 C   0  0  1  0  0  0  0  0  0  0  0  0
   -5.0500   -0.9460   -0.0030 C   0  0  0  0  0  0  0  0  0  0  0  0
   -4.5190   -2.0270   -0.8300 C   0  0  0  0  0  0  0  0  0  0  0  0
    1.2950   -2.1150   -1.5340 C   0  0  0  0  0  0  0  0  0  0  0  0
    2.1490   -1.5590   -0.4530 C   0  0  0  0  0  0  0  0  0  0  0  0
  1  2  2  0
  2  3  1  0
  3  4  2  0
  3  5  1  0
  5  6  1  0
  6  7  1  0
  7  8  2  0
  7  9  1  0
  9 10  2  0
  9 11  1  0
 11 12  1  0
 11 34  1  0
 12 13  1  0
 13 14  1  0
 14 15  1  0
 15 16  1  0
 15 33  1  0
 16 17  2  0
 16 18  1  0
 18 19  1  0
 18 29  2  0
 19 20  1  0
 20 21  1  0
 20 28  2  0
 21 22  2  0
 21 26  1  0
 22 23  1  0
 23 24  2  0
 24 25  1  0
 25 26  1  0
 26 27  2  0
 28 29  1  0
 30 29  1  6
 30 31  1  0
 30 32  1  0
 31 32  1  0
 33 34  1  0
M  END
