
     RDKit          3D

 34 37  0  0  0  0  0  0  0  0999 V2000
   -1.7280   -1.2060   -1.3480 C   0  0  0  0  0  0  0  0  0  0  0  0
   -2.5490    0.0840   -1.4860 C   0  0  0  0  0  0  0  0  0  0  0  0
   -3.1480    0.3820   -0.1620 C   0  0  0  0  0  0  0  0  0  0  0  0
   -4.4420    0.1510   -0.0510 C   0  0  0  0  0  0  0  0  0  0  0  0
   -5.3180   -0.3670   -1.0800 C   0  0  0  0  0  0  0  0  0  0  0  0
   -4.9670   -0.6880   -2.2170 O   0  0  0  0  0  0  0  0  0  0  0  0
   -6.7950   -0.5440   -0.7850 C   0  0  2  0  0  0  0  0  0  0  0  0
   -7.0370   -1.3910    0.4190 C   0  0  0  0  0  0  0  0  0  0  0  0
   -7.4050   -1.2710   -1.9780 C   0  0  0  0  0  0  0  0  0  0  0  0
   -7.5220    0.7540   -0.6640 C   0  0  0  0  0  0  0  0  0  0  0  0
   -7.4400    1.5170   -1.8420 O   0  0  0  0  0  0  0  0  0  0  0  0
   -5.3610    0.5110    1.4770 S   0  0  0  0  0  0  0  0  0  0  0  0
   -4.1780    0.6680    2.7520 C   0  0  0  0  0  0  0  0  0  0  0  0
   -2.8340    0.8880    2.1970 C   0  0  0  0  0  0  0  0  0  0  0  0
   -1.8310    1.2790    3.0330 N   0  0  0  0  0  0  0  0  0  0  0  0
   -0.7180    1.4130    2.3960 C   0  0  0  0  0  0  0  0  0  0  0  0
   -0.9950    1.0860    1.0220 C   0  0  0  0  0  0  0  0  0  0  0  0
    0.0420    1.0970    0.0430 C   0  0  0  0  0  0  0  0  0  0  0  0
   -0.1040    1.1990   -1.1640 O   0  0  0  0  0  0  0  0  0  0  0  0
    1.4360    0.9690    0.4130 N   0  0  0  0  0  0  0  0  0  0  0  0
    2.1290    0.7710    1.6260 C   0  0  0  0  0  0  0  0  0  0  0  0
    3.4230    0.0230    1.2100 C   0  0  0  0  0  0  0  0  0  0  0  0
    3.7310    0.5410   -0.1550 C   0  0  1  0  0  0  0  0  0  0  0  0
    4.7130    1.6740   -0.0780 C   0  0  0  0  0  0  0  0  0  0  0  0
    6.1390    1.3070   -0.0180 C   0  0  0  0  0  0  0  0  0  0  0  0
    6.4780   -0.0480   -0.3000 N   0  0  0  0  0  0  0  0  0  0  0  0
    7.8290   -0.4530   -0.1160 C   0  0  0  0  0  0  0  0  0  0  0  0
    8.7000    0.3590    0.2830 O   0  0  0  0  0  0  0  0  0  0  0  0
    8.2690   -1.7460   -0.3610 O   0  0  0  0  0  0  0  0  0  0  0  0
    9.6460   -2.0960   -0.1580 C   0  0  0  0  0  0  0  0  0  0  0  0
    5.5530   -1.0630   -0.7650 C   0  0  0  0  0  0  0  0  0  0  0  0
    4.2000   -0.5460   -1.1120 C   0  0  0  0  0  0  0  0  0  0  0  0
    2.4450    1.0860   -0.6920 C   0  0  0  0  0  0  0  0  0  0  0  0
   -2.3280    0.7680    0.9760 N   0  0  0  0  0  0  0  0  0  0  0  0
  1  2  1  0
  2  3  1  0
  3  4  2  0
  3 34  1  0
  4  5  1  0
  4 12  1  0
  5  6  2  0
  5  7  1  0
  7  8  1  1
  7  9  1  0
  7 10  1  0
 10 11  1  0
 12 13  1  0
 13 14  1  0
 14 15  2  0
 14 34  1  0
 15 16  1  0
 16 17  2  0
 17 18  1  0
 17 34  1  0
 18 19  2  0
 18 20  1  0
 20 21  1  0
 20 33  1  0
 21 22  1  0
 23 22  1  1
 23 24  1  0
 23 32  1  0
 23 33  1  0
 24 25  1  0
 25 26  1  0
 26 27  1  0
 26 31  1  0
 27 28  2  0
 27 29  1  0
 29 30  1  0
 31 32  1  0
M  END
