
     RDKit          3D

 34 37  0  0  0  0  0  0  0  0999 V2000
    7.6970    2.4060    3.5040 C   0  0  0  0  0  0  0  0  0  0  0  0
    6.7080    2.8470    2.5860 O   0  0  0  0  0  0  0  0  0  0  0  0
    6.3790    2.0150    1.5230 C   0  0  0  0  0  0  0  0  0  0  0  0
    6.9390    0.9050    1.3780 O   0  0  0  0  0  0  0  0  0  0  0  0
    5.3460    2.4770    0.5650 C   0  0  0  0  0  0  0  0  0  0  0  0
    5.1290    1.4980   -0.4560 N   0  0  0  0  0  0  0  0  0  0  0  0
    4.6890    0.2140   -0.0850 C   0  0  0  0  0  0  0  0  0  0  0  0
    4.5000   -0.0400    1.1280 O   0  0  0  0  0  0  0  0  0  0  0  0
    4.4470   -0.8400   -1.0850 C   0  0  0  0  0  0  0  0  0  0  0  0
    3.9900   -2.0980   -0.3840 C   0  0  0  0  0  0  0  0  0  0  0  0
    2.4470   -1.6750    0.5080 S   0  0  0  0  0  0  0  0  0  0  0  0
    1.1910   -1.3090   -0.7270 C   0  0  0  0  0  0  0  0  0  0  0  0
    1.4680   -1.3780   -2.0400 N   0  0  0  0  0  0  0  0  0  0  0  0
    0.5480   -1.1090   -2.9810 C   0  0  0  0  0  0  0  0  0  0  0  0
   -0.7220   -0.7500   -2.5980 C   0  0  0  0  0  0  0  0  0  0  0  0
   -1.0470   -0.6670   -1.2340 C   0  0  0  0  0  0  0  0  0  0  0  0
   -2.3680   -0.2830   -0.7740 C   0  0  0  0  0  0  0  0  0  0  0  0
   -3.3230   -0.0030   -1.5500 O   0  0  0  0  0  0  0  0  0  0  0  0
   -2.7190   -0.1830    0.6260 N   0  0  0  0  0  0  0  0  0  0  0  0
   -4.0270    0.1880    1.0190 C   0  0  0  0  0  0  0  0  0  0  0  0
   -4.4960   -0.0290    2.2470 C   0  0  0  0  0  0  0  0  0  0  0  0
   -5.8330    0.3450    2.6610 C   0  0  0  0  0  0  0  0  0  0  0  0
   -6.3650    0.1640    3.8480 C   0  0  0  0  0  0  0  0  0  0  0  0
   -7.7590    0.6840    3.8760 C   0  0  0  0  0  0  0  0  0  0  0  0
   -7.9430    1.1980    2.4950 C   0  0  0  0  0  0  0  0  0  0  0  0
   -6.8330    0.9930    1.8240 C   0  0  0  0  0  0  0  0  0  0  0  0
   -3.5700   -0.6560    3.1090 O   0  0  0  0  0  0  0  0  0  0  0  0
   -2.2140   -0.2540    3.0050 C   0  0  0  0  0  0  0  0  0  0  0  0
   -1.7140   -0.4680    1.6030 C   0  0  0  0  0  0  0  0  0  0  0  0
   -0.0540   -0.9560   -0.3730 N   0  0  0  0  0  0  0  0  0  0  0  0
   -1.8040   -0.4480   -3.5610 C   0  0  0  0  0  0  0  0  0  0  0  0
   -1.4930   -0.7480   -4.9940 C   0  0  0  0  0  0  0  0  0  0  0  0
   -0.3260   -1.6960   -5.1510 C   0  0  0  0  0  0  0  0  0  0  0  0
    0.8760   -1.1840   -4.4250 C   0  0  0  0  0  0  0  0  0  0  0  0
  1  2  1  0
  2  3  1  0
  3  4  2  0
  3  5  1  0
  5  6  1  0
  6  7  1  0
  7  8  2  0
  7  9  1  0
  9 10  1  0
 10 11  1  0
 11 12  1  0
 12 13  2  0
 12 30  1  0
 13 14  1  0
 14 15  2  0
 14 34  1  0
 15 16  1  0
 15 31  1  0
 16 17  1  0
 16 30  2  0
 17 18  2  0
 17 19  1  0
 19 20  1  0
 19 29  1  0
 20 21  2  0
 21 22  1  0
 21 27  1  0
 22 23  2  0
 22 26  1  0
 23 24  1  0
 24 25  1  0
 25 26  2  0
 27 28  1  0
 28 29  1  0
 31 32  1  0
 32 33  1  0
 33 34  1  0
M  END
