
     RDKit          3D

 34 37  0  0  0  0  0  0  0  0999 V2000
    7.3820   -0.8590   -2.1660 C   0  0  0  0  0  0  0  0  0  0  0  0
    6.7330    0.3570   -1.5820 C   0  0  2  0  0  0  0  0  0  0  0  0
    7.3310    1.6310   -2.1820 C   0  0  0  0  0  0  0  0  0  0  0  0
    6.8930    0.4660   -0.0980 C   0  0  1  0  0  0  0  0  0  0  0  0
    6.2620    1.6740    0.2980 O   0  0  0  0  0  0  0  0  0  0  0  0
    6.1620   -0.6060    0.6910 C   0  0  0  0  0  0  0  0  0  0  0  0
    4.7390   -0.5930    0.5060 N   0  0  0  0  0  0  0  0  0  0  0  0
    3.9670    0.2300    1.2890 C   0  0  0  0  0  0  0  0  0  0  0  0
    4.5190    0.9710    2.1400 O   0  0  0  0  0  0  0  0  0  0  0  0
    2.6420    0.2830    1.1910 N   0  0  0  0  0  0  0  0  0  0  0  0
    1.9790   -0.4680    0.3170 C   0  0  0  0  0  0  0  0  0  0  0  0
    0.6550   -0.6090    0.0130 N   0  0  0  0  0  0  0  0  0  0  0  0
    0.5710   -1.5190   -0.9630 C   0  0  0  0  0  0  0  0  0  0  0  0
   -0.9150   -2.1030   -1.7570 S   0  0  0  0  0  0  0  0  0  0  0  0
   -2.3080   -1.2660   -1.0340 C   0  0  0  0  0  0  0  0  0  0  0  0
   -2.3370    0.0430   -0.9740 C   0  0  0  0  0  0  0  0  0  0  0  0
   -3.4920    0.7010   -0.3760 C   0  0  0  0  0  0  0  0  0  0  0  0
   -4.5660    0.1350    0.1390 O   0  0  0  0  0  0  0  0  0  0  0  0
   -5.4170    0.9900    0.5920 C   0  0  0  0  0  0  0  0  0  0  0  0
   -6.6400    0.7900    1.1940 C   0  0  0  0  0  0  0  0  0  0  0  0
   -7.2430   -0.3950    1.4520 O   0  0  0  0  0  0  0  0  0  0  0  0
   -6.8400   -1.6920    1.2050 C   0  0  2  0  0  0  0  0  0  0  0  0
   -7.7290   -2.4010    0.2870 N   0  0  0  0  0  0  0  0  0  0  0  0
   -6.6620   -2.4690    2.4360 N   0  0  0  0  0  0  0  0  0  0  0  0
   -7.3310    1.9450    1.5780 C   0  0  0  0  0  0  0  0  0  0  0  0
   -6.8130    3.2050    1.3650 C   0  0  0  0  0  0  0  0  0  0  0  0
   -5.5840    3.3660    0.7590 C   0  0  0  0  0  0  0  0  0  0  0  0
   -4.8740    2.2440    0.3660 C   0  0  0  0  0  0  0  0  0  0  0  0
   -3.6530    2.0650   -0.2470 C   0  0  0  0  0  0  0  0  0  0  0  0
   -2.5620    3.3290   -0.7460 Cl  0  0  0  0  0  0  0  0  0  0  0  0
    1.8190   -1.9470   -1.2710 N   0  0  0  0  0  0  0  0  0  0  0  0
    2.6970   -1.3090   -0.4910 C   0  0  0  0  0  0  0  0  0  0  0  0
    4.0910   -1.3540   -0.3760 C   0  0  0  0  0  0  0  0  0  0  0  0
    4.7250   -2.1360   -1.1260 O   0  0  0  0  0  0  0  0  0  0  0  0
  2  1  1  6
  2  3  1  0
  2  4  1  0
  4  5  1  1
  4  6  1  0
  6  7  1  0
  7  8  1  0
  7 33  1  0
  8  9  2  0
  8 10  1  0
 10 11  1  0
 11 12  1  0
 11 32  2  0
 12 13  1  0
 13 14  1  0
 13 31  2  0
 14 15  1  0
 15 16  2  3
 16 17  1  0
 17 18  1  0
 17 29  2  0
 18 19  1  0
 19 20  2  0
 19 28  1  0
 20 21  1  0
 20 25  1  0
 21 22  1  0
 22 23  1  6
 22 24  1  0
 25 26  2  0
 26 27  1  0
 27 28  2  0
 28 29  1  0
 29 30  1  0
 31 32  1  0
 32 33  1  0
 33 34  2  0
M  CHG  1  24   1
M  END
