
     RDKit          3D

 34 36  0  0  0  0  0  0  0  0999 V2000
    8.9700    0.2040    3.1070 C   0  0  0  0  0  0  0  0  0  0  0  0
    8.5830   -0.3730    1.7990 C   0  0  0  0  0  0  0  0  0  0  0  0
    7.5080   -0.1020    1.0110 N   0  0  0  0  0  0  0  0  0  0  0  0
    7.5640   -0.8690   -0.0910 C   0  0  0  0  0  0  0  0  0  0  0  0
    6.6350   -0.8910   -1.1600 N   0  0  0  0  0  0  0  0  0  0  0  0
    5.4840   -0.0830   -1.2180 C   0  0  0  0  0  0  0  0  0  0  0  0
    5.2990    0.7040   -0.2290 O   0  0  0  0  0  0  0  0  0  0  0  0
    4.5490   -0.0970   -2.2840 N   0  0  0  0  0  0  0  0  0  0  0  0
    3.4020    0.7990   -2.2020 C   0  0  1  0  0  0  0  0  0  0  0  0
    3.4960    1.7830   -3.3550 C   0  0  0  0  0  0  0  0  0  0  0  0
    3.4430    0.9600   -4.6280 C   0  0  0  0  0  0  0  0  0  0  0  0
    2.1570   -0.2700   -4.1660 S   0  0  0  0  0  0  0  0  0  0  0  0
    2.1100    0.0850   -2.3530 C   0  0  2  0  0  0  0  0  0  0  0  0
    0.9400    0.9100   -2.0060 C   0  0  0  0  0  0  0  0  0  0  0  0
    0.9910    1.3670   -0.5650 C   0  0  0  0  0  0  0  0  0  0  0  0
    1.0430    0.1830    0.3710 C   0  0  0  0  0  0  0  0  0  0  0  0
   -0.0070   -0.6770    0.3010 O   0  0  0  0  0  0  0  0  0  0  0  0
   -1.3180   -0.5170    0.5950 C   0  0  0  0  0  0  0  0  0  0  0  0
   -1.8770    0.6370    1.0920 C   0  0  0  0  0  0  0  0  0  0  0  0
   -3.2520    0.6850    1.3620 C   0  0  0  0  0  0  0  0  0  0  0  0
   -4.0460   -0.3900    1.1440 C   0  0  0  0  0  0  0  0  0  0  0  0
   -5.3820   -0.3740    1.3970 O   0  0  0  0  0  0  0  0  0  0  0  0
   -6.1670    0.6580    1.8940 C   0  0  1  0  0  0  0  0  0  0  0  0
   -7.1960    1.0250    0.8230 C   0  0  0  0  0  0  0  0  0  0  0  0
   -8.0650   -0.1770    0.5020 C   0  0  0  0  0  0  0  0  0  0  0  0
   -7.3100   -1.2970    0.0080 N   0  0  0  0  0  0  0  0  0  0  0  0
   -6.9550    0.2430    3.0920 C   0  0  0  0  0  0  0  0  0  0  0  0
   -6.8800   -1.0630    3.6250 N   0  0  0  0  0  0  0  0  0  0  0  0
   -7.6930    1.1110    3.6080 O   0  0  0  0  0  0  0  0  0  0  0  0
   -3.4810   -1.5410    0.6490 C   0  0  0  0  0  0  0  0  0  0  0  0
   -2.1540   -1.6200    0.3760 C   0  0  0  0  0  0  0  0  0  0  0  0
   -1.4980   -3.1250   -0.2560 Cl  0  0  0  0  0  0  0  0  0  0  0  0
    8.6780   -1.6050    0.0350 N   0  0  0  0  0  0  0  0  0  0  0  0
    9.2750   -1.2940    1.1730 O   0  0  0  0  0  0  0  0  0  0  0  0
  1  2  1  0
  2  3  2  0
  2 34  1  0
  3  4  1  0
  4  5  1  0
  4 33  2  0
  5  6  1  0
  6  7  2  0
  6  8  1  0
  9  8  1  6
  9 10  1  0
  9 13  1  0
 10 11  1  0
 11 12  1  0
 12 13  1  0
 13 14  1  6
 14 15  1  0
 15 16  1  0
 16 17  1  0
 17 18  1  0
 18 19  2  0
 18 31  1  0
 19 20  1  0
 20 21  2  0
 21 22  1  0
 21 30  1  0
 22 23  1  0
 23 24  1  6
 23 27  1  0
 24 25  1  0
 25 26  1  0
 27 28  1  0
 27 29  2  0
 30 31  2  0
 31 32  1  0
 33 34  1  0
M  CHG  1  26   1
M  END
