
     RDKit          3D

 34 37  0  0  0  0  0  0  0  0999 V2000
    3.8660   -2.0110   -1.0230 C   0  0  0  0  0  0  0  0  0  0  0  0
    3.7540   -0.5830   -0.8770 C   0  0  0  0  0  0  0  0  0  0  0  0
    2.5950   -0.0390   -0.4580 N   0  0  0  0  0  0  0  0  0  0  0  0
    2.4170    1.2750   -0.2980 C   0  0  0  0  0  0  0  0  0  0  0  0
    1.2140    1.8760    0.1340 N   0  0  0  0  0  0  0  0  0  0  0  0
    0.0950    0.9880    0.4110 C   0  0  0  0  0  0  0  0  0  0  0  0
    0.3220   -0.2280    0.2280 O   0  0  0  0  0  0  0  0  0  0  0  0
   -1.1570    1.4880    0.8700 C   0  0  0  0  0  0  0  0  0  0  0  0
   -2.2470    0.8300    1.0900 C   0  0  0  0  0  0  0  0  0  0  0  0
   -3.4680    1.4400    1.5860 N   0  0  0  0  0  0  0  0  0  0  0  0
   -4.6430    0.6660    1.7470 C   0  0  0  0  0  0  0  0  0  0  0  0
   -5.7270    1.0940    1.2710 O   0  0  0  0  0  0  0  0  0  0  0  0
   -4.7120   -0.6560    2.4550 C   0  0  1  0  0  0  0  0  0  0  0  0
   -5.0340   -0.4450    3.8970 C   0  0  0  0  0  0  0  0  0  0  0  0
   -5.7280   -1.5540    1.7700 C   0  0  0  0  0  0  0  0  0  0  0  0
   -5.7650   -2.8680    2.4970 C   0  0  0  0  0  0  0  0  0  0  0  0
   -6.1240   -2.7920    3.8230 O   0  0  0  0  0  0  0  0  0  0  0  0
   -3.0800   -1.5080    2.2430 S   0  0  0  0  0  0  0  0  0  0  0  0
   -2.4040   -0.5800    0.7960 C   0  0  0  0  0  0  0  0  0  0  0  0
   -2.2810   -1.1320   -0.3590 C   0  0  0  0  0  0  0  0  0  0  0  0
   -1.9840   -0.6500   -1.6980 C   0  0  2  0  0  0  0  0  0  0  0  0
   -2.4740    1.0630   -1.8410 Cl  0  0  0  0  0  0  0  0  0  0  0  0
   -2.8170   -1.4000   -2.7550 C   0  0  0  0  0  0  0  0  0  0  0  0
   -2.4470   -0.8620   -3.9830 O   0  0  0  0  0  0  0  0  0  0  0  0
    3.4590    2.1100   -0.5720 N   0  0  0  0  0  0  0  0  0  0  0  0
    4.6450    1.6080   -0.9960 C   0  0  0  0  0  0  0  0  0  0  0  0
    4.8100    0.2520   -1.1550 C   0  0  0  0  0  0  0  0  0  0  0  0
    6.0310   -0.2790   -1.5940 N   0  0  0  0  0  0  0  0  0  0  0  0
    7.2030    0.4960   -1.8830 C   0  0  0  0  0  0  0  0  0  0  0  0
    6.9580    1.9500   -1.7010 C   0  0  0  0  0  0  0  0  0  0  0  0
    7.8550    2.9440   -1.9100 N   0  0  0  0  0  0  0  0  0  0  0  0
    7.1600    4.0770   -1.6050 C   0  0  0  0  0  0  0  0  0  0  0  0
    5.9470    3.7680   -1.2440 O   0  0  0  0  0  0  0  0  0  0  0  0
    5.7700    2.4840   -1.2850 C   0  0  0  0  0  0  0  0  0  0  0  0
  1  2  1  0
  2  3  2  0
  2 27  1  0
  3  4  1  0
  4  5  1  0
  4 25  2  0
  5  6  1  0
  6  7  2  0
  6  8  1  0
  8  9  2  3
  9 10  1  0
  9 19  1  0
 10 11  1  0
 11 12  2  0
 11 13  1  0
 13 14  1  1
 13 15  1  0
 13 18  1  0
 15 16  1  0
 16 17  1  0
 18 19  1  0
 19 20  2  3
 20 21  1  0
 21 22  1  1
 21 23  1  0
 23 24  1  0
 25 26  1  0
 26 27  2  0
 26 34  1  0
 27 28  1  0
 28 29  1  0
 29 30  1  0
 30 31  1  0
 30 34  2  0
 31 32  2  0
 32 33  1  0
 33 34  1  0
M  CHG  1  31   1
M  END
