
     RDKit          3D

 22 23  0  0  0  0  0  0  0  0999 V2000
    2.6860    0.9350    1.3030 N   0  0  0  0  0  0  0  0  0  0  0  0
    3.2720    0.4670    0.0610 C   0  0  0  0  0  0  0  0  0  0  0  0
    4.3410    1.1730   -0.3780 C   0  0  0  0  0  0  0  0  0  0  0  0
    5.0460    0.8860   -1.5460 C   0  0  0  0  0  0  0  0  0  0  0  0
    6.0360    1.5970   -1.8860 O   0  0  0  0  0  0  0  0  0  0  0  0
    4.4680   -0.4530   -2.4240 S   0  0  0  0  0  0  0  0  0  0  0  0
    3.1200   -1.2070   -1.7100 C   0  0  0  0  0  0  0  0  0  0  0  0
    2.6960   -0.6290   -0.5360 C   0  0  0  0  0  0  0  0  0  0  0  0
    1.5130   -1.2590    0.1240 C   0  0  0  0  0  0  0  0  0  0  0  0
    0.2700   -0.4400   -0.1350 C   0  0  0  0  0  0  0  0  0  0  0  0
    0.4000    0.5680   -0.8300 O   0  0  0  0  0  0  0  0  0  0  0  0
   -0.9740   -0.8180    0.3970 N   0  0  0  0  0  0  0  0  0  0  0  0
   -2.2100   -0.1560    0.2400 C   0  0  0  0  0  0  0  0  0  0  0  0
   -2.2630    1.0930   -0.3680 C   0  0  0  0  0  0  0  0  0  0  0  0
   -3.4590    1.7830   -0.5080 C   0  0  0  0  0  0  0  0  0  0  0  0
   -3.4630    3.0030   -1.1110 F   0  0  0  0  0  0  0  0  0  0  0  0
   -4.6460    1.2680   -0.0530 C   0  0  0  0  0  0  0  0  0  0  0  0
   -5.8080    1.9420   -0.1910 F   0  0  0  0  0  0  0  0  0  0  0  0
   -4.5950    0.0440    0.5430 C   0  0  0  0  0  0  0  0  0  0  0  0
   -3.3950   -0.6840    0.7010 C   0  0  0  0  0  0  0  0  0  0  0  0
   -3.4720   -1.9810    1.3230 C   0  0  0  0  0  0  0  0  0  0  0  0
   -2.5320   -2.7470    1.4980 O   0  0  0  0  0  0  0  0  0  0  0  0
  1  2  1  0
  2  3  2  0
  2  8  1  0
  3  4  1  0
  4  5  2  0
  4  6  1  0
  6  7  1  0
  7  8  2  0
  8  9  1  0
  9 10  1  0
 10 11  2  0
 10 12  1  0
 12 13  1  0
 13 14  2  0
 13 20  1  0
 14 15  1  0
 15 16  1  0
 15 17  2  0
 17 18  1  0
 17 19  1  0
 19 20  2  0
 20 21  1  0
 21 22  2  0
M  END
