
     RDKit          3D

 23 25  0  0  0  0  0  0  0  0999 V2000
   -4.4490    0.8990   -0.9800 C   0  0  0  0  0  0  0  0  0  0  0  0
   -3.1140    0.2460   -0.6430 C   0  0  1  0  0  0  0  0  0  0  0  0
   -2.3870    1.0500    0.4170 C   0  0  0  0  0  0  0  0  0  0  0  0
   -1.6610    2.2070   -0.2380 C   0  0  0  0  0  0  0  0  0  0  0  0
   -1.0560    3.1690    0.7210 C   0  0  0  0  0  0  0  0  0  0  0  0
    0.1480    2.7010    1.4540 C   0  0  0  0  0  0  0  0  0  0  0  0
    1.3810    2.5500    0.6270 C   0  0  0  0  0  0  0  0  0  0  0  0
    1.5650    1.1150    0.1650 C   0  0  2  0  0  0  0  0  0  0  0  0
    2.5360    0.3510    1.0010 C   0  0  0  0  0  0  0  0  0  0  0  0
    3.4990   -0.3140    0.2170 N   0  0  0  0  0  0  0  0  0  0  0  0
    4.1300    0.5280   -0.7330 C   0  0  0  0  0  0  0  0  0  0  0  0
    3.1860    1.4590   -1.4400 C   0  0  0  0  0  0  0  0  0  0  0  0
    1.8850    1.1330   -1.1640 O   0  0  0  0  0  0  0  0  0  0  0  0
    3.3070   -1.6150   -0.2310 C   0  0  0  0  0  0  0  0  0  0  0  0
    1.9970   -2.3000    0.0330 C   0  0  0  0  0  0  0  0  0  0  0  0
    2.2290   -3.2880    0.8850 N   0  0  0  0  0  0  0  0  0  0  0  0
    1.2790   -4.1720    1.4030 C   0  0  0  0  0  0  0  0  0  0  0  0
    0.0460   -3.9720    0.9800 C   0  0  0  0  0  0  0  0  0  0  0  0
   -0.3290   -2.8880    0.0200 C   0  0  0  0  0  0  0  0  0  0  0  0
   -1.5950   -2.9260   -0.2050 N   0  0  0  0  0  0  0  0  0  0  0  0
   -2.4850   -2.1410   -1.0270 C   0  0  0  0  0  0  0  0  0  0  0  0
   -3.3380   -1.2050   -0.2050 C   0  0  0  0  0  0  0  0  0  0  0  0
    0.6980   -2.0280   -0.4630 N   0  0  0  0  0  0  0  0  0  0  0  0
  2  1  1  1
  2  3  1  0
  2 22  1  0
  3  4  1  0
  4  5  1  0
  5  6  1  0
  6  7  1  0
  8  7  1  1
  8  9  1  0
  8 13  1  0
  9 10  1  0
 10 11  1  0
 10 14  1  0
 11 12  1  0
 12 13  1  0
 14 15  1  0
 15 16  2  0
 15 23  1  0
 16 17  1  0
 17 18  2  0
 18 19  1  0
 19 20  2  0
 19 23  1  0
 20 21  1  0
 21 22  1  0
M  CHG  1  20   1
M  END
