
     RDKit          3D

 23 25  0  0  0  0  0  0  0  0999 V2000
   -4.1670    2.6110   -0.6400 C   0  0  0  0  0  0  0  0  0  0  0  0
   -3.6190    1.8400    0.4880 N   0  0  1  0  0  0  0  0  0  0  0  0
   -4.7330    1.2220    1.1400 C   0  0  0  0  0  0  0  0  0  0  0  0
   -2.6650    0.9360   -0.0810 C   0  0  2  0  0  0  0  0  0  0  0  0
   -3.3550   -0.0520   -0.9580 C   0  0  0  0  0  0  0  0  0  0  0  0
   -3.6200   -1.3690   -0.3150 C   0  0  0  0  0  0  0  0  0  0  0  0
   -2.4720   -2.3220   -0.5230 C   0  0  0  0  0  0  0  0  0  0  0  0
   -1.3590   -2.0060    0.4610 C   0  0  0  0  0  0  0  0  0  0  0  0
   -0.7890   -0.6190    0.2180 C   0  0  1  0  0  0  0  0  0  0  0  0
    0.5450   -0.5210    0.9310 C   0  0  0  0  0  0  0  0  0  0  0  0
    1.6020   -0.0690   -0.0940 C   0  0  1  0  0  0  0  0  0  0  0  0
    2.8730    0.1680    0.4650 N   0  0  0  0  0  0  0  0  0  0  0  0
    3.9030   -0.0500   -0.5390 C   0  0  0  0  0  0  0  0  0  0  0  0
    5.2630    0.2540   -0.0490 C   0  0  0  0  0  0  0  0  0  0  0  0
    6.1240   -0.7690    0.2590 C   0  0  0  0  0  0  0  0  0  0  0  0
    7.3850   -0.5200    0.7140 N   0  0  0  0  0  0  0  0  0  0  0  0
    7.7900    0.7490    0.8620 C   0  0  0  0  0  0  0  0  0  0  0  0
    6.9460    1.7830    0.5600 C   0  0  0  0  0  0  0  0  0  0  0  0
    5.6930    1.5130    0.1090 N   0  0  0  0  0  0  0  0  0  0  0  0
    1.5060   -1.0830   -1.1950 C   0  0  0  0  0  0  0  0  0  0  0  0
    0.1960   -0.7650   -1.9080 C   0  0  0  0  0  0  0  0  0  0  0  0
   -0.7570   -0.2650   -1.0870 O   0  0  0  0  0  0  0  0  0  0  0  0
   -1.7400    0.3360    0.9390 C   0  0  0  0  0  0  0  0  0  0  0  0
  2  1  1  6
  2  3  1  0
  2  4  1  0
  4  5  1  1
  4 23  1  0
  5  6  1  0
  6  7  1  0
  7  8  1  0
  9  8  1  6
  9 10  1  0
  9 22  1  0
  9 23  1  0
 10 11  1  0
 11 12  1  1
 11 20  1  0
 12 13  1  0
 13 14  1  0
 14 15  2  0
 14 19  1  0
 15 16  1  0
 16 17  2  0
 17 18  1  0
 18 19  2  0
 20 21  1  0
 21 22  1  0
M  CHG  1   2   1
M  END
