
     RDKit          3D

 23 25  0  0  0  0  0  0  0  0999 V2000
   -3.4760    3.5480    0.4430 C   0  0  0  0  0  0  0  0  0  0  0  0
   -3.5070    2.2620    0.2420 C   0  0  0  0  0  0  0  0  0  0  0  0
   -2.2800    1.5230   -0.0820 C   0  0  0  0  0  0  0  0  0  0  0  0
   -2.3300    0.0750    0.1780 C   0  0  1  0  0  0  0  0  0  0  0  0
   -3.1900   -0.7210   -0.7690 C   0  0  1  0  0  0  0  0  0  0  0  0
   -4.3380    0.0460   -1.3410 C   0  0  0  0  0  0  0  0  0  0  0  0
   -5.2500    0.3740   -0.1520 C   0  0  0  0  0  0  0  0  0  0  0  0
   -4.8360    1.6630    0.3040 N   0  0  0  0  0  0  0  0  0  0  0  0
   -2.4080   -1.2700   -1.7970 O   0  0  0  0  0  0  0  0  0  0  0  0
   -1.7800   -2.4060   -1.2150 C   0  0  0  0  0  0  0  0  0  0  0  0
   -1.2630   -1.9690    0.1510 C   0  0  0  0  0  0  0  0  0  0  0  0
   -1.0370   -0.5870    0.2290 N   0  0  0  0  0  0  0  0  0  0  0  0
    0.0520    0.0180   -0.4570 C   0  0  0  0  0  0  0  0  0  0  0  0
    1.2670   -0.7950   -0.0900 C   0  0  0  0  0  0  0  0  0  0  0  0
    1.4570   -2.0820   -0.2230 N   0  0  0  0  0  0  0  0  0  0  0  0
    2.6340   -2.4200    0.3160 C   0  0  0  0  0  0  0  0  0  0  0  0
    3.2290   -3.7690    0.4080 C   0  0  0  0  0  0  0  0  0  0  0  0
    3.2280   -1.3100    0.7860 N   0  0  0  0  0  0  0  0  0  0  0  0
    2.3740   -0.2550    0.5250 C   0  0  0  0  0  0  0  0  0  0  0  0
    2.7490    1.1600    0.8030 C   0  0  0  0  0  0  0  0  0  0  0  0
    4.2330    1.2720    0.6090 C   0  0  2  0  0  0  0  0  0  0  0  0
    4.7710    2.6310    0.9780 C   0  0  0  0  0  0  0  0  0  0  0  0
    4.6820    0.9470   -0.7950 C   0  0  0  0  0  0  0  0  0  0  0  0
  1  2  2  0
  2  3  1  0
  2  8  1  0
  4  3  1  6
  4  5  1  0
  4 12  1  0
  5  6  1  6
  5  9  1  0
  6  7  1  0
  7  8  1  0
  9 10  1  0
 10 11  1  0
 11 12  1  0
 12 13  1  0
 13 14  1  0
 14 15  1  0
 14 19  2  0
 15 16  1  0
 16 17  1  0
 16 18  2  0
 18 19  1  0
 19 20  1  0
 20 21  1  0
 21 22  1  6
 21 23  1  0
M  CHG  1  18   1
M  END
