
     RDKit          3D

 23 25  0  0  0  0  0  0  0  0999 V2000
   -1.0920    4.6570    0.4410 C   0  0  0  0  0  0  0  0  0  0  0  0
   -1.6220    3.2700    0.3970 C   0  0  0  0  0  0  0  0  0  0  0  0
   -0.9010    2.3170   -0.1400 C   0  0  0  0  0  0  0  0  0  0  0  0
    0.4480    2.6220   -0.7030 C   0  0  0  0  0  0  0  0  0  0  0  0
    0.9520    1.3930   -1.4230 C   0  0  0  0  0  0  0  0  0  0  0  0
    0.8980    0.2750   -0.5300 N   0  0  0  0  0  0  0  0  0  0  0  0
    2.0770   -0.3290   -0.0680 C   0  0  0  0  0  0  0  0  0  0  0  0
    1.9720   -1.3160    0.7210 O   0  0  0  0  0  0  0  0  0  0  0  0
    3.3950    0.1870   -0.4990 C   0  0  0  0  0  0  0  0  0  0  0  0
    4.4900   -0.5480    0.0710 N   0  0  0  0  0  0  0  0  0  0  0  0
    5.1500   -0.3410    1.2130 C   0  0  0  0  0  0  0  0  0  0  0  0
    6.1090   -1.3230    1.2980 C   0  0  0  0  0  0  0  0  0  0  0  0
    6.0290   -2.1190    0.2120 N   0  0  0  0  0  0  0  0  0  0  0  0
    5.0360   -1.6380   -0.5320 C   0  0  0  0  0  0  0  0  0  0  0  0
   -0.4180   -0.2100   -0.1230 C   0  0  2  0  0  0  0  0  0  0  0  0
   -0.9330   -1.2620   -1.0820 C   0  0  0  0  0  0  0  0  0  0  0  0
   -1.9150   -2.1560   -0.4260 C   0  0  1  0  0  0  0  0  0  0  0  0
   -1.1810   -2.8870    0.7080 C   0  0  0  0  0  0  0  0  0  0  0  0
   -3.1220   -1.5380    0.1490 C   0  0  2  0  0  0  0  0  0  0  0  0
   -4.2100   -2.5030    0.0650 N   0  0  0  0  0  0  0  0  0  0  0  0
   -3.6120   -0.2850   -0.4990 C   0  0  0  0  0  0  0  0  0  0  0  0
   -2.6770    0.8600   -0.3730 C   0  0  0  0  0  0  0  0  0  0  0  0
   -1.3780    0.9360   -0.2150 C   0  0  0  0  0  0  0  0  0  0  0  0
  1  2  1  0
  2  3  2  3
  3  4  1  0
  3 23  1  0
  4  5  1  0
  5  6  1  0
  6  7  1  0
  6 15  1  0
  7  8  2  0
  7  9  1  0
  9 10  1  0
 10 11  1  0
 10 14  1  0
 11 12  2  0
 12 13  1  0
 13 14  2  0
 15 16  1  6
 15 23  1  0
 16 17  1  0
 17 18  1  1
 17 19  1  0
 19 20  1  6
 19 21  1  0
 21 22  1  0
 22 23  2  0
M  CHG  1  20   1
M  END
