
     RDKit          3D

 21 22  0  0  0  0  0  0  0  0999 V2000
   -4.1570    0.5010   -0.1200 C   0  0  0  0  0  0  0  0  0  0  0  0
   -2.6990    0.7690   -0.1750 C   0  0  0  0  0  0  0  0  0  0  0  0
   -2.3500    2.0070   -0.5940 N   0  0  0  0  0  0  0  0  0  0  0  0
   -1.0460    2.2820   -0.7010 C   0  0  0  0  0  0  0  0  0  0  0  0
   -0.6350    3.3990   -1.0800 O   0  0  0  0  0  0  0  0  0  0  0  0
   -0.0920    1.3300   -0.3930 C   0  0  0  0  0  0  0  0  0  0  0  0
    1.6590    1.3760   -0.4280 S   0  0  0  0  0  0  0  0  0  0  0  0
    1.8920   -0.3390    0.1450 C   0  0  0  0  0  0  0  0  0  0  0  0
    3.1380   -0.9830    0.3460 C   0  0  0  0  0  0  0  0  0  0  0  0
    4.3310   -0.5540    0.1870 C   0  0  0  0  0  0  0  0  0  0  0  0
    4.8490    0.7100   -0.2430 C   0  0  0  0  0  0  0  0  0  0  0  0
    6.2860    0.8600   -0.3110 N   0  0  0  0  0  0  0  0  0  0  0  0
    4.2050    1.7020   -0.5690 O   0  0  0  0  0  0  0  0  0  0  0  0
    0.6200   -0.7590    0.3000 C   0  0  0  0  0  0  0  0  0  0  0  0
   -0.4420    0.0260    0.0490 C   0  0  0  0  0  0  0  0  0  0  0  0
   -1.8470   -0.2360    0.1540 C   0  0  0  0  0  0  0  0  0  0  0  0
   -2.2910   -1.5040    0.6340 C   0  0  0  0  0  0  0  0  0  0  0  0
   -1.3780   -2.3910    0.8540 O   0  0  0  0  0  0  0  0  0  0  0  0
   -3.5810   -2.0690    0.9590 C   0  0  2  0  0  0  0  0  0  0  0  0
   -3.9210   -1.6630    2.2680 F   0  0  0  0  0  0  0  0  0  0  0  0
   -3.5370   -3.4800    1.1560 F   0  0  0  0  0  0  0  0  0  0  0  0
  1  2  1  0
  2  3  1  0
  2 16  2  0
  3  4  1  0
  4  5  2  0
  4  6  1  0
  6  7  1  0
  6 15  2  0
  7  8  1  0
  8  9  1  0
  8 14  2  0
  9 10  2  3
 10 11  1  0
 11 12  1  0
 11 13  2  0
 14 15  1  0
 15 16  1  0
 16 17  1  0
 17 18  2  0
 17 19  1  0
 19 20  1  1
 19 21  1  0
M  END
