
     RDKit          3D

 19 20  0  0  0  0  0  0  0  0999 V2000
    4.5510    1.1230   -1.3220 C   0  0  0  0  0  0  0  0  0  0  0  0
    3.4130    0.1730   -1.1230 C   0  0  0  0  0  0  0  0  0  0  0  0
    2.1320    0.6530   -0.9510 C   0  0  0  0  0  0  0  0  0  0  0  0
    1.0780   -0.2220   -0.7670 C   0  0  0  0  0  0  0  0  0  0  0  0
   -0.2630    0.2190   -0.5840 N   0  0  0  0  0  0  0  0  0  0  0  0
   -0.9430   -0.0550    0.4330 N   0  0  0  0  0  0  0  0  0  0  0  0
   -2.2710    0.3590    0.6560 C   0  0  0  0  0  0  0  0  0  0  0  0
   -2.6770    1.5620    0.0700 C   0  0  0  0  0  0  0  0  0  0  0  0
   -3.9550    2.0530    0.2280 C   0  0  0  0  0  0  0  0  0  0  0  0
   -4.8690    1.3480    0.9810 C   0  0  0  0  0  0  0  0  0  0  0  0
   -4.4670    0.1660    1.5550 C   0  0  0  0  0  0  0  0  0  0  0  0
   -3.1890   -0.3280    1.4000 C   0  0  0  0  0  0  0  0  0  0  0  0
   -2.7750   -1.5980    2.0220 C   0  0  0  0  0  0  0  0  0  0  0  0
   -3.5820   -2.2520    2.7070 O   0  0  0  0  0  0  0  0  0  0  0  0
   -1.4970   -2.0880    1.8640 O   0  0  0  0  0  0  0  0  0  0  0  0
    1.3910   -1.5660   -0.7670 C   0  0  0  0  0  0  0  0  0  0  0  0
    2.6670   -2.0530   -0.9390 C   0  0  0  0  0  0  0  0  0  0  0  0
    3.7020   -1.1750   -1.1200 C   0  0  0  0  0  0  0  0  0  0  0  0
    5.0120   -1.6310   -1.2970 O   0  0  0  0  0  0  0  0  0  0  0  0
  1  2  1  0
  2  3  2  0
  2 18  1  0
  3  4  1  0
  4  5  1  0
  4 16  2  0
  5  6  2  3
  6  7  1  0
  7  8  2  0
  7 12  1  0
  8  9  1  0
  9 10  2  0
 10 11  1  0
 11 12  2  0
 12 13  1  0
 13 14  2  0
 13 15  1  0
 16 17  1  0
 17 18  2  0
 18 19  1  0
M  END
