
     RDKit          3D

 11 11  0  0  0  0  0  0  0  0999 V2000
    3.4730    0.3100    0.4500 C   0  0  0  0  0  0  0  0  0  0  0  0
    2.5480   -0.6600    0.0510 O   0  0  0  0  0  0  0  0  0  0  0  0
    1.1860   -0.4470    0.0980 C   0  0  0  0  0  0  0  0  0  0  0  0
    0.3260   -1.4570   -0.3150 C   0  0  0  0  0  0  0  0  0  0  0  0
   -1.0480   -1.3150   -0.2960 C   0  0  0  0  0  0  0  0  0  0  0  0
   -1.5950   -0.1320    0.1460 C   0  0  0  0  0  0  0  0  0  0  0  0
   -3.0420    0.0290    0.1700 C   0  0  0  0  0  0  0  0  0  0  0  0
   -3.7900   -0.9050   -0.2100 O   0  0  0  0  0  0  0  0  0  0  0  0
   -3.6520    1.1960    0.6040 O   0  0  0  0  0  0  0  0  0  0  0  0
   -0.7630    0.8860    0.5600 C   0  0  0  0  0  0  0  0  0  0  0  0
    0.6220    0.7280    0.5360 C   0  0  0  0  0  0  0  0  0  0  0  0
  1  2  1  0
  2  3  1  0
  3  4  2  0
  3 11  1  0
  4  5  1  0
  5  6  2  0
  6  7  1  0
  6 10  1  0
  7  8  2  0
  7  9  1  0
 10 11  2  0
M  END
