
     RDKit          3D

 10  9  0  0  0  0  0  0  0  0999 V2000
    4.1430    0.5500   -0.3800 C   0  0  0  0  0  0  0  0  0  0  0  0
    2.9320    0.1550   -0.7090 C   0  0  0  0  0  0  0  0  0  0  0  0
    2.4340   -1.1810   -0.3160 C   0  0  0  0  0  0  0  0  0  0  0  0
    1.2880   -1.1040    0.4910 O   0  0  0  0  0  0  0  0  0  0  0  0
    0.1320   -0.5030    0.0330 C   0  0  0  0  0  0  0  0  0  0  0  0
    0.1120   -0.0180   -1.1270 O   0  0  0  0  0  0  0  0  0  0  0  0
   -1.0810   -0.3980    0.8320 C   0  0  0  0  0  0  0  0  0  0  0  0
   -2.1920    0.1640    0.4290 C   0  0  0  0  0  0  0  0  0  0  0  0
   -2.2650    0.7460   -0.9200 C   0  0  0  0  0  0  0  0  0  0  0  0
   -3.3740    0.2230    1.3130 C   0  0  0  0  0  0  0  0  0  0  0  0
  1  2  2  0
  2  3  1  0
  3  4  1  0
  4  5  1  0
  5  6  2  0
  5  7  1  0
  7  8  2  3
  8  9  1  0
  8 10  1  0
M  END
