
     RDKit          3D

 10  9  0  0  0  0  0  0  0  0999 V2000
   -3.6300   -0.3320    0.8610 N   0  0  0  0  0  0  0  0  0  0  0  0
   -2.6370   -0.1120   -0.1550 C   0  0  0  0  0  0  0  0  0  0  0  0
   -2.9330   -0.1450   -1.3730 O   0  0  0  0  0  0  0  0  0  0  0  0
   -1.2850    0.1510    0.2140 N   0  0  0  0  0  0  0  0  0  0  0  0
   -0.3140    0.3670   -0.7410 N   0  0  0  0  0  0  0  0  0  0  0  0
    1.0510    0.2640   -0.3610 C   0  0  0  0  0  0  0  0  0  0  0  0
    1.4000   -0.0200    0.8320 O   0  0  0  0  0  0  0  0  0  0  0  0
    2.3490    0.5260   -1.5530 S   0  0  0  0  0  0  0  0  0  0  0  0
    3.8950    0.3000   -0.7760 N   0  0  0  0  0  0  0  0  0  0  0  0
    3.7010   -0.3790    0.8360 S   0  0  0  0  0  0  0  0  0  0  0  0
  1  2  1  0
  2  3  2  0
  2  4  1  0
  4  5  1  0
  5  6  1  0
  6  7  2  0
  6  8  1  0
  8  9  1  0
  9 10  1  0
M  END
