
     RDKit          3D

 11 11  0  0  0  0  0  0  0  0999 V2000
   -3.2420   -1.7400    0.5140 C   0  0  0  0  0  0  0  0  0  0  0  0
   -2.2250   -0.6920    0.2430 C   0  0  0  0  0  0  0  0  0  0  0  0
   -0.8590   -0.8630    0.1840 C   0  0  0  0  0  0  0  0  0  0  0  0
   -0.2750    0.3570   -0.0910 C   0  0  0  0  0  0  0  0  0  0  0  0
    1.0840    0.6480   -0.2390 O   0  0  0  0  0  0  0  0  0  0  0  0
    1.9990   -0.4190   -0.0940 C   0  0  0  0  0  0  0  0  0  0  0  0
    3.4240    0.0270   -0.2770 C   0  0  0  0  0  0  0  0  0  0  0  0
    4.2570   -1.0740   -0.1200 O   0  0  0  0  0  0  0  0  0  0  0  0
   -1.3400    1.2400   -0.1910 C   0  0  0  0  0  0  0  0  0  0  0  0
   -1.2490    2.6900   -0.4770 C   0  0  0  0  0  0  0  0  0  0  0  0
   -2.4430    0.5660    0.0140 O   0  0  0  0  0  0  0  0  0  0  0  0
  1  2  1  0
  2  3  2  0
  2 11  1  0
  3  4  1  0
  4  5  1  0
  4  9  2  0
  5  6  1  0
  6  7  1  0
  7  8  1  0
  9 10  1  0
  9 11  1  0
M  END
