
     RDKit          3D

  9  9  0  0  0  0  0  0  0  0999 V2000
   -2.6110   -0.0000    0.7970 N   0  0  0  0  0  0  0  0  0  0  0  0
   -1.6320    0.3830   -0.5780 S   0  0  1  0  0  0  0  0  0  0  0  0
   -2.0560   -0.5290   -1.6880 O   0  0  0  0  0  0  0  0  0  0  0  0
   -1.9040    1.7870   -0.9960 O   0  0  0  0  0  0  0  0  0  0  0  0
    0.0690    0.1710   -0.2240 C   0  0  0  0  0  0  0  0  0  0  0  0
    0.9270    1.0430    0.2520 C   0  0  0  0  0  0  0  0  0  0  0  0
    2.1890    0.3960    0.3660 N   0  0  0  0  0  0  0  0  0  0  0  0
    2.0040   -0.9630    0.2340 N   0  0  0  0  0  0  0  0  0  0  0  0
    0.7700   -1.0370   -0.4210 N   0  0  0  0  0  0  0  0  0  0  0  0
  2  1  1  1
  2  3  2  0
  2  4  2  0
  2  5  1  0
  5  6  2  0
  5  9  1  0
  6  7  1  0
  7  8  1  0
  8  9  1  0
M  END
