
     RDKit          3D

 11 11  0  0  0  0  0  0  0  0999 V2000
    3.3420   -0.9880   -0.4370 C   0  0  0  0  0  0  0  0  0  0  0  0
    2.0070   -1.2360   -0.1240 O   0  0  0  0  0  0  0  0  0  0  0  0
    1.0020   -0.2910   -0.1380 C   0  0  0  0  0  0  0  0  0  0  0  0
    1.2390    1.0200   -0.4740 C   0  0  0  0  0  0  0  0  0  0  0  0
    0.1810    1.9300   -0.4700 C   0  0  0  0  0  0  0  0  0  0  0  0
   -1.1030    1.5440   -0.1360 C   0  0  0  0  0  0  0  0  0  0  0  0
   -2.1890    2.4090   -0.1170 O   0  0  0  0  0  0  0  0  0  0  0  0
   -1.3300    0.2300    0.1980 C   0  0  0  0  0  0  0  0  0  0  0  0
   -2.5950   -0.1870    0.5350 O   0  0  0  0  0  0  0  0  0  0  0  0
   -2.8310   -1.5350    0.8790 C   0  0  0  0  0  0  0  0  0  0  0  0
   -0.2870   -0.6700    0.1950 C   0  0  0  0  0  0  0  0  0  0  0  0
  1  2  1  0
  2  3  1  0
  3  4  2  0
  3 11  1  0
  4  5  1  0
  5  6  2  0
  6  7  1  0
  6  8  1  0
  8  9  1  0
  8 11  2  0
  9 10  1  0
M  END
