
     RDKit          3D

 10  9  0  0  0  0  0  0  0  0999 V2000
    2.5210    0.8770    0.1660 N   0  0  0  0  0  0  0  0  0  0  0  0
    1.5260   -0.1010    0.0020 C   0  0  0  0  0  0  0  0  0  0  0  0
    1.6160   -0.9080   -0.9600 O   0  0  0  0  0  0  0  0  0  0  0  0
    0.4090   -0.2390    0.8650 N   0  0  0  0  0  0  0  0  0  0  0  0
   -0.5620   -1.2300    0.6680 N   0  0  0  0  0  0  0  0  0  0  0  0
   -1.6560   -1.0240   -0.2060 C   0  0  0  0  0  0  0  0  0  0  0  0
   -2.7530   -2.2190   -0.3870 S   0  0  0  0  0  0  0  0  0  0  0  0
   -1.8510    0.1700   -0.9360 N   0  0  0  0  0  0  0  0  0  0  0  0
   -0.9390    1.2180   -0.8080 N   0  0  0  0  0  0  0  0  0  0  0  0
   -1.3310    2.2330   -0.1970 O   0  0  0  0  0  0  0  0  0  0  0  0
  1  2  1  0
  2  3  2  0
  2  4  1  0
  4  5  1  0
  5  6  1  0
  6  7  2  0
  6  8  1  0
  8  9  1  0
  9 10  2  0
M  END
