
     RDKit          3D

 10 10  0  0  0  0  0  0  0  0999 V2000
   -2.3820    0.4360   -0.8950 C   0  0  0  0  0  0  0  0  0  0  0  0
   -1.0380    0.2790   -0.1710 C   0  0  1  0  0  0  0  0  0  0  0  0
   -1.3050    0.2510    1.3080 C   0  0  0  0  0  0  0  0  0  0  0  0
   -0.4200   -0.9770   -0.6910 C   0  0  0  0  0  0  0  0  0  0  0  0
    0.7900   -1.4290    0.0470 C   0  0  0  0  0  0  0  0  0  0  0  0
    2.0370   -0.6680   -0.2630 C   0  0  0  0  0  0  0  0  0  0  0  0
    2.0490    0.7350    0.2610 C   0  0  0  0  0  0  0  0  0  0  0  0
    1.0780    1.6130   -0.4100 C   0  0  0  0  0  0  0  0  0  0  0  0
    1.4840    2.6300   -1.0070 O   0  0  0  0  0  0  0  0  0  0  0  0
   -0.2980    1.4340   -0.4590 O   0  0  0  0  0  0  0  0  0  0  0  0
  2  1  1  6
  2  3  1  0
  2  4  1  0
  2 10  1  0
  4  5  1  0
  5  6  1  0
  6  7  1  0
  7  8  1  0
  8  9  2  0
  8 10  1  0
M  END
