
     RDKit          3D

 22 22  0  0  0  0  0  0  0  0999 V2000
   -3.2450   -1.5270    2.8280 C   0  0  0  0  0  0  0  0  0  0  0  0
   -2.4740   -1.3550    1.7920 C   0  0  0  0  0  0  0  0  0  0  0  0
   -2.9480   -1.7690    0.5240 O   0  0  0  0  0  0  0  0  0  0  0  0
   -2.2750   -1.6790   -0.6700 C   0  0  1  0  0  0  0  0  0  0  0  0
   -3.1170   -0.8070   -1.6120 C   0  0  0  0  0  0  0  0  0  0  0  0
   -0.9540   -1.0760   -0.5950 C   0  0  0  0  0  0  0  0  0  0  0  0
   -0.4330   -0.6560    0.5570 C   0  0  0  0  0  0  0  0  0  0  0  0
    0.9200   -0.0480    0.5820 C   0  0  2  0  0  0  0  0  0  0  0  0
    0.7940    1.4440    0.7830 C   0  0  0  0  0  0  0  0  0  0  0  0
    1.4920    2.1000    1.5880 O   0  0  0  0  0  0  0  0  0  0  0  0
   -0.1710    2.1760    0.0190 N   0  0  0  0  0  0  0  0  0  0  0  0
   -0.2910    3.6080    0.2070 C   0  0  0  0  0  0  0  0  0  0  0  0
   -1.3390    4.2180   -0.6630 C   0  0  0  0  0  0  0  0  0  0  0  0
    1.4740   -0.1510   -0.8270 C   0  0  0  0  0  0  0  0  0  0  0  0
    1.6150    0.8610   -1.5530 O   0  0  0  0  0  0  0  0  0  0  0  0
    1.8420   -1.4220   -1.3430 N   0  0  0  0  0  0  0  0  0  0  0  0
    2.3760   -1.5750   -2.6730 C   0  0  0  0  0  0  0  0  0  0  0  0
    3.6570   -0.7880   -2.7840 C   0  0  0  0  0  0  0  0  0  0  0  0
    4.6070   -1.3690   -1.7280 C   0  0  0  0  0  0  0  0  0  0  0  0
   -1.1740   -0.7740    1.8480 C   0  0  0  0  0  0  0  0  0  0  0  0
   -0.5560   -0.3570    2.9000 C   0  0  0  0  0  0  0  0  0  0  0  0
   -1.0350   -0.3760    4.2890 C   0  0  0  0  0  0  0  0  0  0  0  0
  1  2  2  0
  2  3  1  0
  2 20  1  0
  3  4  1  0
  4  5  1  6
  4  6  1  0
  6  7  2  0
  7  8  1  0
  7 20  1  0
  8  9  1  6
  8 14  1  0
  9 10  2  0
  9 11  1  0
 11 12  1  0
 12 13  1  0
 14 15  2  0
 14 16  1  0
 16 17  1  0
 17 18  1  0
 18 19  1  0
 20 21  2  3
 21 22  1  0
M  END
