
     RDKit          3D

 22 22  0  0  0  0  0  0  0  0999 V2000
    1.5810    3.7530   -2.3590 C   0  0  0  0  0  0  0  0  0  0  0  0
    0.6550    2.6380   -2.0760 C   0  0  0  0  0  0  0  0  0  0  0  0
    0.9360    1.6290   -1.2130 C   0  0  0  0  0  0  0  0  0  0  0  0
    2.2550    1.7300   -0.5680 C   0  0  0  0  0  0  0  0  0  0  0  0
   -0.0890    0.5830   -1.0270 C   0  0  2  0  0  0  0  0  0  0  0  0
   -0.9830    0.8230    0.1580 C   0  0  0  0  0  0  0  0  0  0  0  0
   -2.1940    0.0720    0.4160 C   0  0  0  0  0  0  0  0  0  0  0  0
   -2.7160   -0.9030   -0.2680 C   0  0  0  0  0  0  0  0  0  0  0  0
   -3.9770   -1.5690    0.1440 C   0  0  0  0  0  0  0  0  0  0  0  0
   -3.7840   -3.0330    0.3960 C   0  0  0  0  0  0  0  0  0  0  0  0
   -0.6960    1.7790    1.0240 C   0  0  0  0  0  0  0  0  0  0  0  0
   -1.5690    2.0140    2.1870 C   0  0  0  0  0  0  0  0  0  0  0  0
    0.4450   -0.7880   -1.1200 C   0  0  0  0  0  0  0  0  0  0  0  0
    1.3270   -1.4440   -0.2910 C   0  0  0  0  0  0  0  0  0  0  0  0
    1.8630   -1.0160    0.9430 N   0  0  0  0  0  0  0  0  0  0  0  0
    2.8150   -1.7900    1.6430 C   0  0  0  0  0  0  0  0  0  0  0  0
    3.3870   -1.3420    2.9530 C   0  0  0  0  0  0  0  0  0  0  0  0
    3.2170   -2.8990    1.1760 O   0  0  0  0  0  0  0  0  0  0  0  0
    1.6080   -2.5900   -0.8360 O   0  0  0  0  0  0  0  0  0  0  0  0
    1.0030   -2.7720   -1.9440 N   0  0  0  0  0  0  0  0  0  0  0  0
    0.2650   -1.6950   -2.1800 C   0  0  0  0  0  0  0  0  0  0  0  0
   -0.4700   -1.5200   -3.1840 O   0  0  0  0  0  0  0  0  0  0  0  0
  1  2  1  0
  2  3  2  3
  3  4  1  0
  5  3  1  1
  5  6  1  0
  5 13  1  0
  6  7  1  0
  6 11  2  3
  7  8  2  3
  8  9  1  0
  9 10  1  0
 11 12  1  0
 13 14  2  0
 13 21  1  0
 14 15  1  0
 14 19  1  0
 15 16  1  0
 16 17  1  0
 16 18  2  0
 19 20  1  0
 20 21  1  0
 21 22  2  0
M  END
