
     RDKit          3D

 22 22  0  0  0  0  0  0  0  0999 V2000
   -4.7400   -1.3630    0.8800 C   0  0  0  0  0  0  0  0  0  0  0  0
   -5.6330   -0.1510    0.8830 C   0  0  0  0  0  0  0  0  0  0  0  0
   -4.9080    1.0870    0.4230 C   0  0  2  0  0  0  0  0  0  0  0  0
   -4.4130    0.8560   -0.9790 C   0  0  0  0  0  0  0  0  0  0  0  0
   -3.0090    1.3660   -1.1420 C   0  0  0  0  0  0  0  0  0  0  0  0
   -2.7090    2.1140   -2.0980 O   0  0  0  0  0  0  0  0  0  0  0  0
   -1.9490    0.9820   -0.1470 C   0  0  0  0  0  0  0  0  0  0  0  0
   -0.7540    0.7160   -0.5360 C   0  0  0  0  0  0  0  0  0  0  0  0
   -0.5020    0.8340   -2.0640 C   0  0  0  0  0  0  0  0  0  0  0  0
    0.3810    0.1290    0.1400 C   0  0  0  0  0  0  0  0  0  0  0  0
    0.3190   -0.5710    1.4330 C   0  0  0  0  0  0  0  0  0  0  0  0
    1.5740    0.0570   -0.4710 C   0  0  0  0  0  0  0  0  0  0  0  0
    2.7480   -0.5180    0.1600 C   0  0  0  0  0  0  0  0  0  0  0  0
    3.9120   -0.5830   -0.4830 C   0  0  0  0  0  0  0  0  0  0  0  0
    4.0570   -0.0660   -1.8750 C   0  0  0  0  0  0  0  0  0  0  0  0
    5.0400   -1.1490    0.1570 N   0  0  0  0  0  0  0  0  0  0  0  0
    6.2400   -0.4550    0.4010 C   0  0  0  0  0  0  0  0  0  0  0  0
    7.3760   -1.1270    1.0800 C   0  0  0  0  0  0  0  0  0  0  0  0
    6.3130    0.7420    0.0270 O   0  0  0  0  0  0  0  0  0  0  0  0
   -2.4910    1.0670    1.2040 C   0  0  0  0  0  0  0  0  0  0  0  0
   -1.8250    0.8200    2.1950 O   0  0  0  0  0  0  0  0  0  0  0  0
   -3.8590    1.4690    1.3270 N   0  0  0  0  0  0  0  0  0  0  0  0
  1  2  1  0
  3  2  1  1
  3  4  1  0
  3 22  1  0
  4  5  1  0
  5  6  2  0
  5  7  1  0
  7  8  2  3
  7 20  1  0
  8  9  1  0
  8 10  1  0
 10 11  1  0
 10 12  2  3
 12 13  1  0
 13 14  2  3
 14 15  1  0
 14 16  1  0
 16 17  1  0
 17 18  1  0
 17 19  2  0
 20 21  2  0
 20 22  1  0
M  END
