
     RDKit          3D

 16 17  0  0  0  0  0  0  0  0999 V2000
    3.5740    0.8890    1.3440 N   0  0  0  0  0  0  0  0  0  0  0  0
    3.1110    1.6130    0.1830 C   0  0  0  0  0  0  0  0  0  0  0  0
    2.7010    0.6390   -0.9010 C   0  0  0  0  0  0  0  0  0  0  0  0
    1.5920   -0.2400   -0.3820 C   0  0  0  0  0  0  0  0  0  0  0  0
    1.8650   -1.4290    0.2580 C   0  0  0  0  0  0  0  0  0  0  0  0
    0.8740   -2.2410    0.7360 C   0  0  0  0  0  0  0  0  0  0  0  0
   -0.4550   -1.8000    0.5430 C   0  0  0  0  0  0  0  0  0  0  0  0
   -1.4710   -2.6090    1.0210 O   0  0  0  0  0  0  0  0  0  0  0  0
   -0.7510   -0.6260   -0.0870 C   0  0  0  0  0  0  0  0  0  0  0  0
   -2.0900   -0.1280   -0.3110 C   0  0  0  0  0  0  0  0  0  0  0  0
   -2.2000    1.0520   -0.9520 C   0  0  0  0  0  0  0  0  0  0  0  0
   -3.5060    1.6820   -1.2490 C   0  0  0  0  0  0  0  0  0  0  0  0
   -4.6190    0.9760   -0.8230 O   0  0  0  0  0  0  0  0  0  0  0  0
   -4.5360   -0.2150   -0.1760 C   0  0  0  0  0  0  0  0  0  0  0  0
   -3.3270   -0.7470    0.0710 C   0  0  0  0  0  0  0  0  0  0  0  0
    0.3210    0.1060   -0.5250 N   0  0  0  0  0  0  0  0  0  0  0  0
  1  2  1  0
  2  3  1  0
  3  4  1  0
  4  5  2  0
  4 16  1  0
  5  6  1  0
  6  7  2  0
  7  8  1  0
  7  9  1  0
  9 10  1  0
  9 16  2  0
 10 11  2  0
 10 15  1  0
 11 12  1  0
 12 13  1  0
 13 14  1  0
 14 15  2  0
M  CHG  1   1   1
M  END
