
     RDKit          3D

 10 10  0  0  0  0  0  0  0  0999 V2000
   -0.4990   -1.8160   -0.7710 C   0  0  0  0  0  0  0  0  0  0  0  0
   -0.4090   -0.5720   -0.0360 N   0  0  2  0  0  0  0  0  0  0  0  0
   -0.2360   -0.8770    1.3480 C   0  0  0  0  0  0  0  0  0  0  0  0
   -1.6260    0.2210   -0.1830 C   0  0  0  0  0  0  0  0  0  0  0  0
   -1.1730    1.5590    0.3530 C   0  0  0  0  0  0  0  0  0  0  0  0
    0.1940    1.7030   -0.2800 C   0  0  0  0  0  0  0  0  0  0  0  0
    0.6060    0.3000   -0.5900 C   0  0  1  0  0  0  0  0  0  0  0  0
    1.9580   -0.0630   -0.1780 C   0  0  0  0  0  0  0  0  0  0  0  0
    2.1520   -1.0480    0.5770 O   0  0  0  0  0  0  0  0  0  0  0  0
    3.0390    0.6620   -0.6070 O   0  0  0  0  0  0  0  0  0  0  0  0
  2  1  1  6
  2  3  1  0
  2  4  1  0
  2  7  1  0
  4  5  1  0
  5  6  1  0
  6  7  1  0
  7  8  1  1
  8  9  2  0
  8 10  1  0
M  CHG  1   2   1
M  END
