
     RDKit          3D

 16 17  0  0  0  0  0  0  0  0999 V2000
   -2.8740    1.6080   -0.5180 C   0  0  0  0  0  0  0  0  0  0  0  0
   -1.5620    1.7190   -0.3930 C   0  0  0  0  0  0  0  0  0  0  0  0
   -1.0020    3.0060   -0.4000 O   0  0  0  0  0  0  0  0  0  0  0  0
    0.2400    3.3680    0.1070 C   0  0  0  0  0  0  0  0  0  0  0  0
    1.2310    2.2760   -0.1100 C   0  0  0  0  0  0  0  0  0  0  0  0
    2.4400    2.4750   -0.2990 O   0  0  0  0  0  0  0  0  0  0  0  0
    0.7420    0.9220   -0.0950 N   0  0  0  0  0  0  0  0  0  0  0  0
    1.7180   -0.0880    0.0790 C   0  0  0  0  0  0  0  0  0  0  0  0
    2.6490   -0.4540   -0.7970 C   0  0  0  0  0  0  0  0  0  0  0  0
    3.4780   -1.5190   -0.2700 C   0  0  0  0  0  0  0  0  0  0  0  0
    3.0740   -1.8170    0.9540 C   0  0  0  0  0  0  0  0  0  0  0  0
    1.9360   -0.9120    1.2710 C   0  0  0  0  0  0  0  0  0  0  0  0
   -0.6570    0.5920   -0.2400 C   0  0  0  0  0  0  0  0  0  0  0  0
   -0.9940   -0.6520   -0.3620 C   0  0  0  0  0  0  0  0  0  0  0  0
   -2.1740   -1.4180   -0.6550 C   0  0  0  0  0  0  0  0  0  0  0  0
   -2.6640   -2.2740    0.4060 N   0  0  0  0  0  0  0  0  0  0  0  0
  1  2  2  0
  2  3  1  0
  2 13  1  0
  3  4  1  0
  4  5  1  0
  5  6  2  0
  5  7  1  0
  7  8  1  0
  7 13  1  0
  8  9  2  0
  8 12  1  0
  9 10  1  0
 10 11  2  0
 11 12  1  0
 13 14  2  3
 14 15  1  0
 15 16  1  0
M  CHG  1  16   1
M  END
