
     RDKit          3D

 16 17  0  0  0  0  0  0  0  0999 V2000
    0.7750   -2.4920   -0.9820 N   0  0  0  0  0  0  0  0  0  0  0  0
    0.4800   -1.4220   -0.5100 C   0  0  0  0  0  0  0  0  0  0  0  0
    1.3100   -0.3100   -0.0130 C   0  0  0  0  0  0  0  0  0  0  0  0
    2.6140   -0.2350    0.0220 C   0  0  0  0  0  0  0  0  0  0  0  0
    3.5570   -1.2470   -0.4330 C   0  0  0  0  0  0  0  0  0  0  0  0
    4.3610   -1.6530    0.6430 O   0  0  0  0  0  0  0  0  0  0  0  0
    0.3920    0.7080    0.4420 N   0  0  0  0  0  0  0  0  0  0  0  0
    0.7770    1.9890    0.9640 C   0  0  0  0  0  0  0  0  0  0  0  0
    1.3270    2.9210   -0.0940 C   0  0  0  0  0  0  0  0  0  0  0  0
    0.3400    3.1340   -1.0660 O   0  0  0  0  0  0  0  0  0  0  0  0
   -0.9170    0.2300    0.2310 C   0  0  0  0  0  0  0  0  0  0  0  0
   -0.9210   -0.9550   -0.2990 C   0  0  0  0  0  0  0  0  0  0  0  0
   -2.2100   -1.6660   -0.6220 C   0  0  0  0  0  0  0  0  0  0  0  0
   -3.1620   -1.4760    0.5030 C   0  0  0  0  0  0  0  0  0  0  0  0
   -3.2730   -0.0860    1.0060 C   0  0  0  0  0  0  0  0  0  0  0  0
   -2.2470    0.8680    0.5170 C   0  0  0  0  0  0  0  0  0  0  0  0
  1  2  2  0
  2  3  1  0
  2 12  1  0
  3  4  2  3
  3  7  1  0
  4  5  1  0
  5  6  1  0
  7  8  1  0
  7 11  1  0
  8  9  1  0
  9 10  1  0
 11 12  2  0
 11 16  1  0
 12 13  1  0
 13 14  1  0
 14 15  1  0
 15 16  1  0
M  END
