
     RDKit          3D

 16 17  0  0  0  0  0  0  0  0999 V2000
   -3.5600    1.9020   -0.9460 C   0  0  0  0  0  0  0  0  0  0  0  0
   -2.9910    0.6510   -0.3670 C   0  0  0  0  0  0  0  0  0  0  0  0
   -3.5780    0.0400    0.6250 C   0  0  0  0  0  0  0  0  0  0  0  0
   -3.0990   -1.1270    1.2070 N   0  0  0  0  0  0  0  0  0  0  0  0
   -1.9030   -1.6740    0.7160 C   0  0  0  0  0  0  0  0  0  0  0  0
   -1.2520   -0.9920   -0.3920 C   0  0  0  0  0  0  0  0  0  0  0  0
   -0.0280   -1.4800   -0.9760 N   0  0  0  0  0  0  0  0  0  0  0  0
    1.2610   -1.1950   -0.4190 C   0  0  0  0  0  0  0  0  0  0  0  0
    1.6440    0.2640   -0.5410 C   0  0  1  0  0  0  0  0  0  0  0  0
    0.6970    1.0590    0.1360 O   0  0  0  0  0  0  0  0  0  0  0  0
    2.9840    0.4510    0.0770 C   0  0  0  0  0  0  0  0  0  0  0  0
    4.1430    0.6190   -0.6600 C   0  0  0  0  0  0  0  0  0  0  0  0
    5.1560    0.7580    0.2470 C   0  0  0  0  0  0  0  0  0  0  0  0
    4.5750    0.6700    1.4800 C   0  0  0  0  0  0  0  0  0  0  0  0
    3.2970    0.4900    1.3470 O   0  0  0  0  0  0  0  0  0  0  0  0
   -1.7530    0.1030   -0.9110 C   0  0  0  0  0  0  0  0  0  0  0  0
  1  2  1  0
  2  3  2  0
  2 16  1  0
  3  4  1  0
  4  5  1  0
  5  6  1  0
  6  7  1  0
  6 16  2  0
  7  8  1  0
  8  9  1  0
  9 10  1  1
  9 11  1  0
 11 12  2  0
 11 15  1  0
 12 13  1  0
 13 14  2  0
 14 15  1  0
M  CHG  1   4   1
M  END
