
     RDKit          3D

 16 17  0  0  0  0  0  0  0  0999 V2000
    4.9050   -0.0650   -0.9940 C   0  0  0  0  0  0  0  0  0  0  0  0
    3.5920   -0.3890   -0.3290 C   0  0  0  0  0  0  0  0  0  0  0  0
    2.8590   -1.5330   -0.5510 C   0  0  0  0  0  0  0  0  0  0  0  0
    1.7340   -1.4690    0.2280 C   0  0  0  0  0  0  0  0  0  0  0  0
    1.8160   -0.2520    0.9250 C   0  0  0  0  0  0  0  0  0  0  0  0
    0.8470    0.2580    1.8770 C   0  0  0  0  0  0  0  0  0  0  0  0
   -0.3950    0.5280    1.8140 C   0  0  0  0  0  0  0  0  0  0  0  0
   -1.0300    1.0160    3.0030 O   0  0  0  0  0  0  0  0  0  0  0  0
   -1.2760    0.4270    0.6880 C   0  0  0  0  0  0  0  0  0  0  0  0
   -2.6700    0.4670    0.8480 C   0  0  0  0  0  0  0  0  0  0  0  0
   -3.5570    0.4400   -0.1900 C   0  0  0  0  0  0  0  0  0  0  0  0
   -4.9530    0.4860    0.0530 N   0  0  0  0  0  0  0  0  0  0  0  0
   -3.0360    0.3670   -1.4740 C   0  0  0  0  0  0  0  0  0  0  0  0
   -1.6850    0.3270   -1.6660 C   0  0  0  0  0  0  0  0  0  0  0  0
   -0.8540    0.3590   -0.5840 N   0  0  0  0  0  0  0  0  0  0  0  0
    2.9370    0.3150    0.5370 O   0  0  0  0  0  0  0  0  0  0  0  0
  1  2  1  0
  2  3  2  0
  2 16  1  0
  3  4  1  0
  4  5  2  0
  5  6  1  0
  5 16  1  0
  6  7  2  3
  7  8  1  0
  7  9  1  0
  9 10  2  0
  9 15  1  0
 10 11  1  0
 11 12  1  0
 11 13  2  0
 13 14  1  0
 14 15  2  0
M  CHG  1  15   1
M  END
