
     RDKit          3D

 13 14  0  0  0  0  0  0  0  0999 V2000
   -1.6880   -1.7340   -0.0540 C   0  0  0  0  0  0  0  0  0  0  0  0
   -1.1620   -0.3890   -0.4720 C   0  0  1  0  0  0  0  0  0  0  0  0
   -1.2910   -0.2040   -1.8580 O   0  0  0  0  0  0  0  0  0  0  0  0
   -1.9510    0.6910    0.1730 C   0  0  0  0  0  0  0  0  0  0  0  0
   -3.0910    0.6990    0.5780 O   0  0  0  0  0  0  0  0  0  0  0  0
   -1.0340    1.8560    0.2450 C   0  0  0  0  0  0  0  0  0  0  0  0
    0.2610    1.2080    0.6660 C   0  0  0  0  0  0  0  0  0  0  0  0
    0.2140   -0.1370    0.0230 C   0  0  1  0  0  0  0  0  0  0  0  0
    0.7300   -1.1850    0.8860 N   0  0  0  0  0  0  0  0  0  0  0  0
    2.1130   -1.2190    0.6360 N   0  0  0  0  0  0  0  0  0  0  0  0
    2.3730   -0.1530   -0.2010 N   0  0  0  0  0  0  0  0  0  0  0  0
    3.5040   -0.2170   -0.8750 O   0  0  0  0  0  0  0  0  0  0  0  0
    1.2240   -0.1590   -1.0380 N   0  0  0  0  0  0  0  0  0  0  0  0
  2  1  1  6
  2  3  1  0
  2  4  1  0
  2  8  1  0
  4  5  2  0
  4  6  1  0
  6  7  1  0
  8  7  1  1
  8  9  1  0
  8 13  1  0
  9 10  1  0
 10 11  1  0
 11 12  1  0
 11 13  1  0
M  END
