
     RDKit          3D

 14 14  0  0  0  0  0  0  0  0999 V2000
   -2.6880    0.0560    1.6790 C   0  0  0  0  0  0  0  0  0  0  0  0
   -2.6870    0.7830    0.4480 N   0  0  0  0  0  0  0  0  0  0  0  0
   -1.3560    0.8940   -0.1120 C   0  0  0  0  0  0  0  0  0  0  0  0
   -0.9090   -0.4580   -0.5600 C   0  0  1  0  0  0  0  0  0  0  0  0
   -1.8520   -0.8770   -1.5360 O   0  0  0  0  0  0  0  0  0  0  0  0
   -1.5640   -0.1470   -2.6340 N   0  0  0  0  0  0  0  0  0  0  0  0
   -0.2830    0.2630   -2.5620 O   0  0  0  0  0  0  0  0  0  0  0  0
    0.3010   -0.3920   -1.4820 C   0  0  1  0  0  0  0  0  0  0  0  0
    1.4390    0.3310   -0.9170 C   0  0  0  0  0  0  0  0  0  0  0  0
    1.7760    1.4380   -1.4360 O   0  0  0  0  0  0  0  0  0  0  0  0
    2.2100   -0.1170    0.1870 N   0  0  0  0  0  0  0  0  0  0  0  0
    3.3090    0.5940    0.7200 C   0  0  0  0  0  0  0  0  0  0  0  0
    4.0920    0.1630    1.8190 N   0  0  0  0  0  0  0  0  0  0  0  0
    3.6370    1.7050    0.1870 O   0  0  0  0  0  0  0  0  0  0  0  0
  1  2  1  0
  2  3  1  0
  4  3  1  6
  4  5  1  0
  4  8  1  0
  5  6  1  0
  6  7  1  0
  7  8  1  0
  8  9  1  1
  9 10  2  0
  9 11  1  0
 11 12  1  0
 12 13  1  0
 12 14  2  0
M  END
