
     RDKit          3D

  8  7  0  0  0  0  0  0  0  0999 V2000
   -0.6640   -1.2160   -0.8260 C   0  0  0  0  0  0  0  0  0  0  0  0
   -0.4730   -0.0040   -0.0780 N   0  0  2  0  0  0  0  0  0  0  0  0
   -1.5320    0.0310    0.9430 C   0  0  0  0  0  0  0  0  0  0  0  0
   -0.6820    1.1830   -0.8940 C   0  0  0  0  0  0  0  0  0  0  0  0
    0.7760    0.0340    0.6310 C   0  0  0  0  0  0  0  0  0  0  0  0
    1.9520   -0.0860   -0.2250 C   0  0  0  0  0  0  0  0  0  0  0  0
    1.8990   -0.2100   -1.4690 O   0  0  0  0  0  0  0  0  0  0  0  0
    3.2090   -0.0620    0.3480 O   0  0  0  0  0  0  0  0  0  0  0  0
  2  1  1  6
  2  3  1  0
  2  4  1  0
  2  5  1  0
  5  6  1  0
  6  7  2  0
  6  8  1  0
M  CHG  1   2   1
M  END
