
     RDKit          3D

 14 15  0  0  0  0  0  0  0  0999 V2000
   -4.3660    1.2430    0.0870 O   0  0  0  0  0  0  0  0  0  0  0  0
   -3.3610    0.4990    0.1670 C   0  0  0  0  0  0  0  0  0  0  0  0
   -3.2630   -0.9040   -0.0820 N   0  0  0  0  0  0  0  0  0  0  0  0
   -1.8870   -1.1890   -0.2600 N   0  0  0  0  0  0  0  0  0  0  0  0
   -1.2530   -0.2840    0.6470 C   0  0  1  0  0  0  0  0  0  0  0  0
    0.1750   -0.0440    0.3190 C   0  0  0  0  0  0  0  0  0  0  0  0
    0.9020   -0.5380   -0.6630 C   0  0  0  0  0  0  0  0  0  0  0  0
    0.4260   -1.4370   -1.6320 O   0  0  0  0  0  0  0  0  0  0  0  0
    2.2620   -0.0150   -0.5890 C   0  0  0  0  0  0  0  0  0  0  0  0
    3.2930   -0.4530   -1.1820 N   0  0  0  0  0  0  0  0  0  0  0  0
    4.5340    0.1170   -1.0440 O   0  0  0  0  0  0  0  0  0  0  0  0
    2.1490    1.1410    0.3380 C   0  0  0  0  0  0  0  0  0  0  0  0
    0.9820    0.7910    1.0550 O   0  0  0  0  0  0  0  0  0  0  0  0
   -2.0550    0.9180    0.5390 N   0  0  0  0  0  0  0  0  0  0  0  0
  1  2  2  0
  2  3  1  0
  2 14  1  0
  3  4  1  0
  4  5  1  0
  5  6  1  6
  5 14  1  0
  6  7  2  0
  6 13  1  0
  7  8  1  0
  7  9  1  0
  9 10  2  3
  9 12  1  0
 10 11  1  0
 12 13  1  0
M  END
