
     RDKit          3D

 14 14  0  0  0  0  0  0  0  0999 V2000
    4.0070   -1.0910   -0.6670 N   0  0  0  0  0  0  0  0  0  0  0  0
    2.8530   -0.4580   -1.1530 C   0  0  0  0  0  0  0  0  0  0  0  0
    2.6240   -0.3180   -2.3810 O   0  0  0  0  0  0  0  0  0  0  0  0
    1.8790    0.0580   -0.1750 C   0  0  0  0  0  0  0  0  0  0  0  0
    2.0650   -0.0590    1.0560 O   0  0  0  0  0  0  0  0  0  0  0  0
    0.7000    0.7040   -0.6260 N   0  0  0  0  0  0  0  0  0  0  0  0
   -0.2840    1.2210    0.2900 C   0  0  0  0  0  0  0  0  0  0  0  0
   -0.8410    0.1070    1.1130 C   0  0  2  0  0  0  0  0  0  0  0  0
   -1.4850   -0.8490    0.2300 N   0  0  0  0  0  0  0  0  0  0  0  0
   -2.7560   -0.5090   -0.2920 C   0  0  0  0  0  0  0  0  0  0  0  0
   -3.1360   -1.0370   -1.3720 O   0  0  0  0  0  0  0  0  0  0  0  0
   -3.5590    0.4430    0.4570 C   0  0  0  0  0  0  0  0  0  0  0  0
   -3.0510    0.9100    1.5500 N   0  0  0  0  0  0  0  0  0  0  0  0
   -1.8280    0.5700    2.0340 O   0  0  0  0  0  0  0  0  0  0  0  0
  1  2  1  0
  2  3  2  0
  2  4  1  0
  4  5  2  0
  4  6  1  0
  6  7  1  0
  8  7  1  6
  8  9  1  0
  8 14  1  0
  9 10  1  0
 10 11  2  0
 10 12  1  0
 12 13  2  0
 13 14  1  0
M  END
