
     RDKit          3D

 27 29  0  0  0  0  0  0  0  0999 V2000
   -2.8520   -3.0380    0.1490 C   0  0  0  0  0  0  0  0  0  0  0  0
   -3.5530   -1.9860   -0.1970 C   0  0  0  0  0  0  0  0  0  0  0  0
   -4.3830   -2.0140   -1.3790 N   0  0  0  0  0  0  0  0  0  0  0  0
   -5.1590   -0.8870   -1.7310 C   0  0  0  0  0  0  0  0  0  0  0  0
   -5.1320    0.1840   -0.9910 C   0  0  0  0  0  0  0  0  0  0  0  0
   -5.9040    1.2900   -1.3490 O   0  0  0  0  0  0  0  0  0  0  0  0
   -4.3130    0.2370    0.1900 C   0  0  0  0  0  0  0  0  0  0  0  0
   -3.5430   -0.7780    0.6010 C   0  0  0  0  0  0  0  0  0  0  0  0
   -2.7920   -0.6350    1.7380 O   0  0  0  0  0  0  0  0  0  0  0  0
   -1.4380   -0.4610    1.8300 C   0  0  0  0  0  0  0  0  0  0  0  0
   -0.9650    0.7560    1.1290 C   0  0  0  0  0  0  0  0  0  0  0  0
   -1.7380    1.5070    0.5140 O   0  0  0  0  0  0  0  0  0  0  0  0
    0.4390    1.0730    1.1650 N   0  0  0  0  0  0  0  0  0  0  0  0
    0.8900    2.2220    0.5040 C   0  0  0  0  0  0  0  0  0  0  0  0
    1.7880    2.1100   -0.4820 C   0  0  0  0  0  0  0  0  0  0  0  0
    2.3010    0.8130   -0.8770 C   0  0  0  0  0  0  0  0  0  0  0  0
    3.1640    0.6040   -1.8120 N   0  0  0  0  0  0  0  0  0  0  0  0
    3.4430   -0.7820   -1.9330 C   0  0  0  0  0  0  0  0  0  0  0  0
    4.0210   -1.3960   -2.8680 O   0  0  0  0  0  0  0  0  0  0  0  0
    2.8940   -1.3970   -0.6840 C   0  0  1  0  0  0  0  0  0  0  0  0
    3.9270   -1.4260    0.4110 C   0  0  1  0  0  0  0  0  0  0  0  0
    5.2010   -2.1340    0.2850 C   0  0  0  0  0  0  0  0  0  0  0  0
    5.1860   -0.6540    0.0910 C   0  0  0  0  0  0  0  0  0  0  0  0
    1.9340   -0.3990   -0.3040 O   0  0  0  0  0  0  0  0  0  0  0  0
    0.3820    3.5300    0.8910 C   0  0  0  0  0  0  0  0  0  0  0  0
    0.8570    4.6800    0.2030 N   0  0  0  0  0  0  0  0  0  0  0  0
   -0.4550    3.6280    1.8120 O   0  0  0  0  0  0  0  0  0  0  0  0
  1  2  2  0
  2  3  1  0
  2  8  1  0
  3  4  1  0
  4  5  2  0
  5  6  1  0
  5  7  1  0
  7  8  2  0
  8  9  1  0
  9 10  1  0
 10 11  1  0
 11 12  2  0
 11 13  1  0
 13 14  1  0
 14 15  2  3
 14 25  1  0
 15 16  1  0
 16 17  2  0
 16 24  1  0
 17 18  1  0
 18 19  2  0
 18 20  1  0
 20 21  1  0
 20 24  1  1
 21 22  1  6
 21 23  1  0
 22 23  1  0
 25 26  1  0
 25 27  2  0
M  END
