
     RDKit          3D

 27 28  0  0  0  0  0  0  0  0999 V2000
   -6.8390    1.0680    2.0430 C   0  0  0  0  0  0  0  0  0  0  0  0
   -5.6970    1.4420    1.4960 C   0  0  0  0  0  0  0  0  0  0  0  0
   -4.9980    2.5860    2.1400 C   0  0  0  0  0  0  0  0  0  0  0  0
   -5.4330    3.1570    3.1100 N   0  0  0  0  0  0  0  0  0  0  0  0
   -5.1360    0.7700    0.3100 C   0  0  1  0  0  0  0  0  0  0  0  0
   -4.9770    1.7200   -0.7220 O   0  0  0  0  0  0  0  0  0  0  0  0
   -3.7650    0.1780    0.6650 C   0  0  2  0  0  0  0  0  0  0  0  0
   -3.0680   -0.3230   -0.5780 C   0  0  0  0  0  0  0  0  0  0  0  0
   -1.7520   -0.7390   -0.1520 N   0  0  0  0  0  0  0  0  0  0  0  0
   -0.5790   -0.3780   -0.8470 C   0  0  0  0  0  0  0  0  0  0  0  0
   -0.5990    0.3390   -1.8930 O   0  0  0  0  0  0  0  0  0  0  0  0
    0.7190   -0.8350   -0.3640 C   0  0  0  0  0  0  0  0  0  0  0  0
    0.8640   -1.5510    0.6600 O   0  0  0  0  0  0  0  0  0  0  0  0
    1.9230   -0.4810   -1.0500 N   0  0  0  0  0  0  0  0  0  0  0  0
    3.2010   -0.9300   -0.5780 C   0  0  1  0  0  0  0  0  0  0  0  0
    3.9230   -1.5990   -1.6650 C   0  0  0  0  0  0  0  0  0  0  0  0
    5.1090   -1.2360   -2.1010 C   0  0  0  0  0  0  0  0  0  0  0  0
    5.6770   -2.0030   -3.1750 N   0  0  0  0  0  0  0  0  0  0  0  0
    5.8070   -0.1100   -1.5200 C   0  0  0  0  0  0  0  0  0  0  0  0
    7.0680    0.1930   -2.0610 O   0  0  0  0  0  0  0  0  0  0  0  0
    7.8060    1.2330   -1.4620 C   0  0  0  0  0  0  0  0  0  0  0  0
    5.2860    0.5950   -0.5350 C   0  0  0  0  0  0  0  0  0  0  0  0
    3.9780    0.2210   -0.0280 C   0  0  0  0  0  0  0  0  0  0  0  0
    3.4790    0.8940    0.9110 O   0  0  0  0  0  0  0  0  0  0  0  0
   -1.7070   -1.5530    1.0350 C   0  0  0  0  0  0  0  0  0  0  0  0
   -3.0870   -1.8550    1.5690 C   0  0  0  0  0  0  0  0  0  0  0  0
   -3.9010   -0.7550    1.6610 O   0  0  0  0  0  0  0  0  0  0  0  0
  1  2  2  0
  2  3  1  0
  2  5  1  0
  3  4  2  0
  5  6  1  6
  5  7  1  0
  7  8  1  6
  7 27  1  0
  8  9  1  0
  9 10  1  0
  9 25  1  0
 10 11  2  0
 10 12  1  0
 12 13  2  0
 12 14  1  0
 15 14  1  6
 15 16  1  0
 15 23  1  0
 16 17  2  0
 17 18  1  0
 17 19  1  0
 19 20  1  0
 19 22  2  0
 20 21  1  0
 22 23  1  0
 23 24  2  0
 25 26  1  0
 26 27  1  0
M  END
