
     RDKit          3D

 27 29  0  0  0  0  0  0  0  0999 V2000
    7.5050    1.5960   -0.3510 C   0  0  0  0  0  0  0  0  0  0  0  0
    6.2710    0.8960   -0.1270 O   0  0  0  0  0  0  0  0  0  0  0  0
    6.4030   -0.3230    0.5450 C   0  0  0  0  0  0  0  0  0  0  0  0
    7.5930   -0.5940    0.8610 O   0  0  0  0  0  0  0  0  0  0  0  0
    5.3790   -1.2350    0.8820 C   0  0  0  0  0  0  0  0  0  0  0  0
    4.1210   -1.3760    0.7430 C   0  0  0  0  0  0  0  0  0  0  0  0
    3.4940   -2.6500    1.3480 C   0  0  0  0  0  0  0  0  0  0  0  0
    2.3710   -2.2560    2.1130 O   0  0  0  0  0  0  0  0  0  0  0  0
    1.4130   -1.4900    1.4140 C   0  0  0  0  0  0  0  0  0  0  0  0
    0.2230   -1.5720    1.7430 O   0  0  0  0  0  0  0  0  0  0  0  0
    1.8590   -0.6270    0.3220 C   0  0  0  0  0  0  0  0  0  0  0  0
    3.1840   -0.5810    0.0110 C   0  0  0  0  0  0  0  0  0  0  0  0
    3.2600    0.2810   -1.0110 N   0  0  0  0  0  0  0  0  0  0  0  0
    2.0390    0.7630   -1.3480 C   0  0  0  0  0  0  0  0  0  0  0  0
    1.8190    1.6660   -2.5360 C   0  0  0  0  0  0  0  0  0  0  0  0
    1.0980    0.2210   -0.5440 C   0  0  0  0  0  0  0  0  0  0  0  0
   -0.3210    0.0870   -0.5120 C   0  0  0  0  0  0  0  0  0  0  0  0
   -1.2590    1.0140   -0.0100 N   0  0  0  0  0  0  0  0  0  0  0  0
   -2.5490    0.3760    0.2740 C   0  0  0  0  0  0  0  0  0  0  0  0
   -2.6670   -0.8220   -0.0200 O   0  0  0  0  0  0  0  0  0  0  0  0
   -3.6540    1.0220    0.8660 N   0  0  0  0  0  0  0  0  0  0  0  0
   -4.7760    0.1020    1.1060 C   0  0  1  0  0  0  0  0  0  0  0  0
   -5.8920    0.5730    1.8880 C   0  0  0  0  0  0  0  0  0  0  0  0
   -7.0360   -0.0520    1.3680 O   0  0  0  0  0  0  0  0  0  0  0  0
   -6.8070   -0.4790    0.0980 C   0  0  1  0  0  0  0  0  0  0  0  0
   -7.7830   -0.0530   -0.8890 N   0  0  0  0  0  0  0  0  0  0  0  0
   -5.4220   -0.0970   -0.3060 C   0  0  0  0  0  0  0  0  0  0  0  0
  1  2  1  0
  2  3  1  0
  3  4  2  0
  3  5  1  0
  5  6  2  3
  6  7  1  0
  6 12  1  0
  7  8  1  0
  8  9  1  0
  9 10  2  0
  9 11  1  0
 11 12  2  0
 11 16  1  0
 12 13  1  0
 13 14  1  0
 14 15  1  0
 14 16  2  0
 16 17  1  0
 17 18  1  0
 18 19  1  0
 19 20  2  0
 19 21  1  0
 22 21  1  6
 22 23  1  0
 22 27  1  0
 23 24  1  0
 24 25  1  0
 25 26  1  6
 25 27  1  0
M  END
