
     RDKit          3D

 27 29  0  0  0  0  0  0  0  0999 V2000
    6.1030    1.1980   -0.1510 C   0  0  0  0  0  0  0  0  0  0  0  0
    4.8360    0.5200    0.3280 C   0  0  0  0  0  0  0  0  0  0  0  0
    3.9570    0.1310   -0.8380 C   0  0  0  0  0  0  0  0  0  0  0  0
    2.7020   -0.5390   -0.4090 C   0  0  2  0  0  0  0  0  0  0  0  0
    2.9050   -1.7990    0.3630 C   0  0  0  0  0  0  0  0  0  0  0  0
    1.8360   -0.8470   -1.5460 N   0  0  0  0  0  0  0  0  0  0  0  0
    0.5260   -0.9930   -0.9430 C   0  0  0  0  0  0  0  0  0  0  0  0
   -0.3790   -1.7490   -1.4440 O   0  0  0  0  0  0  0  0  0  0  0  0
    0.4330   -0.2190    0.2260 N   0  0  0  0  0  0  0  0  0  0  0  0
   -0.6310    0.1510    1.1010 C   0  0  0  0  0  0  0  0  0  0  0  0
   -1.8470    0.3090    0.7400 C   0  0  0  0  0  0  0  0  0  0  0  0
   -2.0640    0.1360   -0.6830 N   0  0  0  0  0  0  0  0  0  0  0  0
   -3.2210   -0.3290   -1.3390 C   0  0  0  0  0  0  0  0  0  0  0  0
   -3.1000   -0.5120   -2.7900 C   0  0  0  0  0  0  0  0  0  0  0  0
   -2.0390   -0.2560   -3.3810 O   0  0  0  0  0  0  0  0  0  0  0  0
   -4.1780   -0.9720   -3.5030 O   0  0  0  0  0  0  0  0  0  0  0  0
   -4.4400   -0.5690   -0.8370 C   0  0  0  0  0  0  0  0  0  0  0  0
   -4.9290   -0.4160    0.5440 C   0  0  0  0  0  0  0  0  0  0  0  0
   -4.2560    0.8280    1.1300 C   0  0  0  0  0  0  0  0  0  0  0  0
   -2.9500    0.4600    1.7440 C   0  0  2  0  0  0  0  0  0  0  0  0
   -2.5490    1.2090    2.8820 C   0  0  0  0  0  0  0  0  0  0  0  0
   -3.3090    2.0080    3.4640 O   0  0  0  0  0  0  0  0  0  0  0  0
   -1.2040    1.0260    3.3710 N   0  0  0  0  0  0  0  0  0  0  0  0
   -0.2310    0.5090    2.5110 C   0  0  0  0  0  0  0  0  0  0  0  0
    0.9710    0.3210    2.8540 O   0  0  0  0  0  0  0  0  0  0  0  0
    1.7580    0.3940    0.3140 C   0  0  0  0  0  0  0  0  0  0  0  0
    1.9780    1.4750    0.8860 O   0  0  0  0  0  0  0  0  0  0  0  0
  1  2  1  0
  2  3  1  0
  3  4  1  0
  4  5  1  1
  4  6  1  0
  4 26  1  0
  6  7  1  0
  7  8  2  0
  7  9  1  0
  9 10  1  0
  9 26  1  0
 10 11  2  0
 10 24  1  0
 11 12  1  0
 11 20  1  0
 12 13  1  0
 13 14  1  0
 13 17  2  0
 14 15  2  0
 14 16  1  0
 17 18  1  0
 18 19  1  0
 20 19  1  6
 20 21  1  0
 21 22  2  0
 21 23  1  0
 23 24  1  0
 24 25  2  0
 26 27  2  0
M  END
