
     RDKit          3D

 27 29  0  0  0  0  0  0  0  0999 V2000
   -5.6200    0.8630   -2.6510 C   0  0  0  0  0  0  0  0  0  0  0  0
   -4.6050    1.4350   -1.7720 N   0  0  0  0  0  0  0  0  0  0  0  0
   -4.2970    0.8950   -0.4980 C   0  0  0  0  0  0  0  0  0  0  0  0
   -4.9140   -0.1150   -0.0990 O   0  0  0  0  0  0  0  0  0  0  0  0
   -3.2370    1.5840    0.2910 C   0  0  2  0  0  0  0  0  0  0  0  0
   -2.7440    2.6440   -0.3850 O   0  0  0  0  0  0  0  0  0  0  0  0
   -1.3610    2.4850   -0.5530 C   0  0  0  0  0  0  0  0  0  0  0  0
   -0.7130    3.3820   -1.1680 O   0  0  0  0  0  0  0  0  0  0  0  0
   -0.9760    1.2420    0.0610 C   0  0  0  0  0  0  0  0  0  0  0  0
    0.3260    0.6490    0.1470 C   0  0  0  0  0  0  0  0  0  0  0  0
    1.4830    1.0070   -0.2640 C   0  0  0  0  0  0  0  0  0  0  0  0
    1.9540    2.1100   -0.9600 N   0  0  0  0  0  0  0  0  0  0  0  0
    3.3840    2.0270   -1.1790 C   0  0  0  0  0  0  0  0  0  0  0  0
    4.1070    2.8500   -1.7660 O   0  0  0  0  0  0  0  0  0  0  0  0
    3.7870    0.7890   -0.5710 C   0  0  0  0  0  0  0  0  0  0  0  0
    4.9080    0.0050   -0.3450 C   0  0  0  0  0  0  0  0  0  0  0  0
    6.2820    0.3300   -0.7790 C   0  0  0  0  0  0  0  0  0  0  0  0
    4.5150   -1.0840    0.3280 N   0  0  0  0  0  0  0  0  0  0  0  0
    3.2020   -0.9990    0.5240 C   0  0  0  0  0  0  0  0  0  0  0  0
    2.3430   -1.9910    1.2300 C   0  0  0  0  0  0  0  0  0  0  0  0
    2.7160    0.1660   -0.0290 C   0  0  0  0  0  0  0  0  0  0  0  0
   -2.1040    0.6690    0.5860 C   0  0  0  0  0  0  0  0  0  0  0  0
   -2.1940   -0.4910    1.2420 O   0  0  0  0  0  0  0  0  0  0  0  0
   -1.5080   -1.5370    1.6810 C   0  0  0  0  0  0  0  0  0  0  0  0
   -2.3790   -2.5520    2.4120 C   0  0  0  0  0  0  0  0  0  0  0  0
   -1.8480   -3.7300    2.9540 N   0  0  0  0  0  0  0  0  0  0  0  0
   -3.5860   -2.2860    2.5060 O   0  0  0  0  0  0  0  0  0  0  0  0
  1  2  1  0
  2  3  1  0
  3  4  2  0
  5  3  1  6
  5  6  1  0
  5 22  1  0
  6  7  1  0
  7  8  2  0
  7  9  1  0
  9 10  1  0
  9 22  2  0
 10 11  2  3
 11 12  1  0
 11 21  1  0
 12 13  1  0
 13 14  2  0
 13 15  1  0
 15 16  2  0
 15 21  1  0
 16 17  1  0
 16 18  1  0
 18 19  1  0
 19 20  1  0
 19 21  2  0
 22 23  1  0
 23 24  1  0
 24 25  1  0
 25 26  1  0
 25 27  2  0
M  END
