
     RDKit          3D

 27 29  0  0  0  0  0  0  0  0999 V2000
    5.1500   -2.0920    1.3220 C   0  0  0  0  0  0  0  0  0  0  0  0
    4.4330   -0.8660    0.9110 C   0  0  0  0  0  0  0  0  0  0  0  0
    3.3780   -0.5200    1.4920 O   0  0  0  0  0  0  0  0  0  0  0  0
    4.9800   -0.1060   -0.1560 N   0  0  0  0  0  0  0  0  0  0  0  0
    4.3050    1.0960   -0.5830 C   0  0  0  0  0  0  0  0  0  0  0  0
    2.9260    0.7060   -1.0310 C   0  0  0  0  0  0  0  0  0  0  0  0
    2.5330   -0.4690   -1.0020 O   0  0  0  0  0  0  0  0  0  0  0  0
    2.0810    1.7240   -1.4920 O   0  0  0  0  0  0  0  0  0  0  0  0
    0.7740    1.4240   -1.9270 C   0  0  1  0  0  0  0  0  0  0  0  0
    0.1620    2.7760   -2.3520 C   0  0  0  0  0  0  0  0  0  0  0  0
    0.7750    0.5740   -3.1590 C   0  0  0  0  0  0  0  0  0  0  0  0
    0.0090    0.8680   -0.7850 C   0  0  0  0  0  0  0  0  0  0  0  0
   -0.6090   -0.2880   -0.6510 C   0  0  0  0  0  0  0  0  0  0  0  0
   -0.7890   -1.4160   -1.4950 N   0  0  0  0  0  0  0  0  0  0  0  0
   -2.0190   -2.1620   -1.3620 C   0  0  0  0  0  0  0  0  0  0  0  0
   -2.3340   -2.9550   -2.2630 O   0  0  0  0  0  0  0  0  0  0  0  0
   -2.8890   -1.9820   -0.1720 C   0  0  0  0  0  0  0  0  0  0  0  0
   -2.7370   -0.5750    0.3790 C   0  0  1  0  0  0  0  0  0  0  0  0
   -3.5730   -0.3780    1.5750 C   0  0  0  0  0  0  0  0  0  0  0  0
   -4.5120    0.5370    1.6860 C   0  0  0  0  0  0  0  0  0  0  0  0
   -5.1020    0.3810    3.0540 C   0  0  0  0  0  0  0  0  0  0  0  0
   -4.5920   -0.7960    3.5550 O   0  0  0  0  0  0  0  0  0  0  0  0
   -3.5200   -1.1170    2.7870 N   0  0  0  0  0  0  0  0  0  0  0  0
   -1.2450   -0.3910    0.6890 C   0  0  2  0  0  0  0  0  0  0  0  0
   -0.9460    0.8130    1.3770 N   0  0  0  0  0  0  0  0  0  0  0  0
   -0.1820    1.6070    0.4950 C   0  0  0  0  0  0  0  0  0  0  0  0
    0.2560    2.7500    0.7720 O   0  0  0  0  0  0  0  0  0  0  0  0
  1  2  1  0
  2  3  2  0
  2  4  1  0
  4  5  1  0
  5  6  1  0
  6  7  2  0
  6  8  1  0
  8  9  1  0
  9 10  1  6
  9 11  1  0
  9 12  1  0
 12 13  2  0
 12 26  1  0
 13 14  1  0
 13 24  1  0
 14 15  1  0
 15 16  2  0
 15 17  1  0
 17 18  1  0
 18 19  1  1
 18 24  1  0
 19 20  2  0
 19 23  1  0
 20 21  1  0
 21 22  1  0
 22 23  1  0
 24 25  1  1
 25 26  1  0
 26 27  2  0
M  END
