
     RDKit          3D

 16 17  0  0  0  0  0  0  0  0999 V2000
    4.6010    0.5770   -1.1650 O   0  0  0  0  0  0  0  0  0  0  0  0
    4.5480   -0.4420   -0.3980 C   0  0  0  0  0  0  0  0  0  0  0  0
    5.5750   -0.6010    0.5310 O   0  0  0  0  0  0  0  0  0  0  0  0
    3.4570   -1.4160   -0.4810 C   0  0  0  0  0  0  0  0  0  0  0  0
    2.2020   -0.9370    0.2230 C   0  0  0  0  0  0  0  0  0  0  0  0
    1.6830    0.3420   -0.3640 C   0  0  0  0  0  0  0  0  0  0  0  0
    0.4410    0.8070    0.3440 C   0  0  0  0  0  0  0  0  0  0  0  0
   -0.6920   -0.1530    0.2870 C   0  0  2  0  0  0  0  0  0  0  0  0
   -1.2100   -0.5010   -1.4400 S   0  0  0  0  0  0  0  0  0  0  0  0
   -3.0080   -0.6630   -1.0930 C   0  0  0  0  0  0  0  0  0  0  0  0
   -3.0910   -0.5020    0.4010 C   0  0  2  0  0  0  0  0  0  0  0  0
   -4.2370    0.3650    0.6580 N   0  0  0  0  0  0  0  0  0  0  0  0
   -3.7670    1.6830    0.3220 C   0  0  0  0  0  0  0  0  0  0  0  0
   -4.4570    2.7210    0.1380 O   0  0  0  0  0  0  0  0  0  0  0  0
   -2.3360    1.6410    0.2250 N   0  0  0  0  0  0  0  0  0  0  0  0
   -1.9620    0.3910    0.8380 C   0  0  2  0  0  0  0  0  0  0  0  0
  1  2  2  0
  2  3  1  0
  2  4  1  0
  4  5  1  0
  5  6  1  0
  6  7  1  0
  8  7  1  6
  8  9  1  0
  8 16  1  0
  9 10  1  0
 11 10  1  6
 11 12  1  0
 11 16  1  0
 12 13  1  0
 13 14  2  0
 13 15  1  0
 16 15  1  6
M  END
