
     RDKit          3D

 27 29  0  0  0  0  0  0  0  0999 V2000
    5.3480   -0.4240    0.2880 C   0  0  0  0  0  0  0  0  0  0  0  0
    4.0200   -0.5850    0.9450 C   0  0  0  0  0  0  0  0  0  0  0  0
    3.1240    0.5870    0.8930 C   0  0  0  0  0  0  0  0  0  0  0  0
    2.6390    1.0850   -0.4090 C   0  0  2  0  0  0  0  0  0  0  0  0
    3.7080    1.5290   -1.3350 C   0  0  0  0  0  0  0  0  0  0  0  0
    1.6620    2.1570   -0.1680 N   0  0  0  0  0  0  0  0  0  0  0  0
    0.4560    1.4550    0.2090 C   0  0  0  0  0  0  0  0  0  0  0  0
   -0.4020    2.0130    0.9520 O   0  0  0  0  0  0  0  0  0  0  0  0
    0.4270    0.1600   -0.3380 N   0  0  0  0  0  0  0  0  0  0  0  0
   -0.5340   -0.8830   -0.4560 C   0  0  0  0  0  0  0  0  0  0  0  0
   -1.8180   -0.6670   -0.4710 C   0  0  0  0  0  0  0  0  0  0  0  0
   -2.2460    0.6920   -0.3980 N   0  0  0  0  0  0  0  0  0  0  0  0
   -3.3730    1.2890    0.2190 C   0  0  0  0  0  0  0  0  0  0  0  0
   -3.5000    2.7250    0.2150 C   0  0  0  0  0  0  0  0  0  0  0  0
   -4.5030    3.2420    0.7710 O   0  0  0  0  0  0  0  0  0  0  0  0
   -2.6060    3.6110   -0.3570 O   0  0  0  0  0  0  0  0  0  0  0  0
   -4.3840    0.6090    0.7940 C   0  0  0  0  0  0  0  0  0  0  0  0
   -4.6400   -0.8200    0.9600 C   0  0  0  0  0  0  0  0  0  0  0  0
   -3.4190   -1.7000    0.9590 C   0  0  0  0  0  0  0  0  0  0  0  0
   -2.8290   -1.7720   -0.4670 C   0  0  2  0  0  0  0  0  0  0  0  0
   -2.2910   -3.0940   -0.7410 C   0  0  0  0  0  0  0  0  0  0  0  0
   -3.0700   -4.0240   -1.0040 O   0  0  0  0  0  0  0  0  0  0  0  0
   -0.8990   -3.3410   -0.7140 N   0  0  0  0  0  0  0  0  0  0  0  0
   -0.0080   -2.2790   -0.5770 C   0  0  0  0  0  0  0  0  0  0  0  0
    1.2490   -2.4510   -0.5470 O   0  0  0  0  0  0  0  0  0  0  0  0
    1.7010    0.1040   -1.0640 C   0  0  0  0  0  0  0  0  0  0  0  0
    1.9590   -0.6180   -2.0440 O   0  0  0  0  0  0  0  0  0  0  0  0
  1  2  1  0
  2  3  1  0
  3  4  1  0
  4  5  1  6
  4  6  1  0
  4 26  1  0
  6  7  1  0
  7  8  2  0
  7  9  1  0
  9 10  1  0
  9 26  1  0
 10 11  2  0
 10 24  1  0
 11 12  1  0
 11 20  1  0
 12 13  1  0
 13 14  1  0
 13 17  2  0
 14 15  2  0
 14 16  1  0
 17 18  1  0
 18 19  1  0
 20 19  1  1
 20 21  1  0
 21 22  2  0
 21 23  1  0
 23 24  1  0
 24 25  2  0
 26 27  2  0
M  END
