
     RDKit          3D

 27 29  0  0  0  0  0  0  0  0999 V2000
    8.3810   -0.2580   -0.8230 C   0  0  0  0  0  0  0  0  0  0  0  0
    7.0010   -0.2000   -0.5480 O   0  0  0  0  0  0  0  0  0  0  0  0
    6.1290    0.7080   -1.1230 C   0  0  0  0  0  0  0  0  0  0  0  0
    6.6340    1.5190   -1.9380 O   0  0  0  0  0  0  0  0  0  0  0  0
    4.7100    0.7740   -0.8440 C   0  0  0  0  0  0  0  0  0  0  0  0
    4.1090   -0.0490    0.0050 C   0  0  0  0  0  0  0  0  0  0  0  0
    4.8560   -1.0970    0.7300 C   0  0  0  0  0  0  0  0  0  0  0  0
    4.0930   -1.8110    1.6450 O   0  0  0  0  0  0  0  0  0  0  0  0
    2.7310   -1.6870    1.8590 C   0  0  0  0  0  0  0  0  0  0  0  0
    2.1650   -2.4270    2.6830 O   0  0  0  0  0  0  0  0  0  0  0  0
    1.9800   -0.6880    1.1130 C   0  0  0  0  0  0  0  0  0  0  0  0
    2.6640    0.0910    0.2230 C   0  0  0  0  0  0  0  0  0  0  0  0
    1.7910    0.9200   -0.3350 N   0  0  0  0  0  0  0  0  0  0  0  0
    0.5420    0.6760    0.1940 C   0  0  0  0  0  0  0  0  0  0  0  0
   -0.6490    1.4750   -0.2080 C   0  0  0  0  0  0  0  0  0  0  0  0
    0.6170   -0.3250    1.1040 C   0  0  0  0  0  0  0  0  0  0  0  0
   -0.3950   -0.9440    1.9770 C   0  0  0  0  0  0  0  0  0  0  0  0
   -1.7360   -0.5120    1.7830 N   0  0  0  0  0  0  0  0  0  0  0  0
   -2.4750   -0.8150    0.6090 C   0  0  0  0  0  0  0  0  0  0  0  0
   -1.9690   -1.4940   -0.3250 O   0  0  0  0  0  0  0  0  0  0  0  0
   -3.8240   -0.3710    0.4240 N   0  0  0  0  0  0  0  0  0  0  0  0
   -4.5450   -0.7070   -0.8000 C   0  0  1  0  0  0  0  0  0  0  0  0
   -5.8610   -1.3730   -0.4690 C   0  0  0  0  0  0  0  0  0  0  0  0
   -6.7730   -0.7990   -1.3280 O   0  0  0  0  0  0  0  0  0  0  0  0
   -6.4950    0.5540   -1.3640 C   0  0  1  0  0  0  0  0  0  0  0  0
   -6.9610    1.2560   -0.1750 N   0  0  0  0  0  0  0  0  0  0  0  0
   -4.9920    0.6050   -1.4380 C   0  0  0  0  0  0  0  0  0  0  0  0
  1  2  1  0
  2  3  1  0
  3  4  2  0
  3  5  1  0
  5  6  2  3
  6  7  1  0
  6 12  1  0
  7  8  1  0
  8  9  1  0
  9 10  2  0
  9 11  1  0
 11 12  2  0
 11 16  1  0
 12 13  1  0
 13 14  1  0
 14 15  1  0
 14 16  2  0
 16 17  1  0
 17 18  1  0
 18 19  1  0
 19 20  2  0
 19 21  1  0
 22 21  1  1
 22 23  1  0
 22 27  1  0
 23 24  1  0
 24 25  1  0
 25 26  1  1
 25 27  1  0
M  END
