
     RDKit          3D

 27 28  0  0  0  0  0  0  0  0999 V2000
   -6.7980   -0.4130   -1.3080 C   0  0  0  0  0  0  0  0  0  0  0  0
   -5.8880   -0.6310   -0.3510 C   0  0  0  0  0  0  0  0  0  0  0  0
   -5.3000   -1.9490   -0.1810 C   0  0  0  0  0  0  0  0  0  0  0  0
   -5.6240   -2.9100   -0.9430 N   0  0  0  0  0  0  0  0  0  0  0  0
   -5.4720    0.4780    0.5060 C   0  0  1  0  0  0  0  0  0  0  0  0
   -5.7110    0.1260    1.8340 O   0  0  0  0  0  0  0  0  0  0  0  0
   -4.0800    0.9250    0.2550 C   0  0  2  0  0  0  0  0  0  0  0  0
   -2.9910   -0.0530    0.4220 C   0  0  0  0  0  0  0  0  0  0  0  0
   -1.6860    0.6320    0.2330 N   0  0  0  0  0  0  0  0  0  0  0  0
   -0.5060   -0.1550    0.1860 C   0  0  0  0  0  0  0  0  0  0  0  0
   -0.6030   -1.4060    0.3090 O   0  0  0  0  0  0  0  0  0  0  0  0
    0.8060    0.4080    0.0020 C   0  0  0  0  0  0  0  0  0  0  0  0
    0.9470    1.6450   -0.1270 O   0  0  0  0  0  0  0  0  0  0  0  0
    1.9640   -0.4410   -0.0340 N   0  0  0  0  0  0  0  0  0  0  0  0
    3.2630    0.1900   -0.2220 C   0  0  1  0  0  0  0  0  0  0  0  0
    4.1270   -0.0240    0.9360 C   0  0  0  0  0  0  0  0  0  0  0  0
    5.2930   -0.6180    0.8780 C   0  0  0  0  0  0  0  0  0  0  0  0
    6.0490   -0.7680    2.0870 N   0  0  0  0  0  0  0  0  0  0  0  0
    5.8420   -1.1260   -0.3660 C   0  0  0  0  0  0  0  0  0  0  0  0
    7.0860   -1.7500   -0.3730 O   0  0  0  0  0  0  0  0  0  0  0  0
    8.2220   -0.8850   -0.4410 C   0  0  0  0  0  0  0  0  0  0  0  0
    5.1330   -0.9780   -1.4610 C   0  0  0  0  0  0  0  0  0  0  0  0
    3.8380   -0.3310   -1.4650 C   0  0  0  0  0  0  0  0  0  0  0  0
    3.1900   -0.2110   -2.5440 O   0  0  0  0  0  0  0  0  0  0  0  0
   -1.5700    2.0570    0.0960 C   0  0  0  0  0  0  0  0  0  0  0  0
   -2.8790    2.8000    0.2570 C   0  0  0  0  0  0  0  0  0  0  0  0
   -3.7530    2.0580    1.0300 O   0  0  0  0  0  0  0  0  0  0  0  0
  1  2  2  0
  2  3  1  0
  2  5  1  0
  3  4  2  0
  5  6  1  1
  5  7  1  0
  7  8  1  1
  7 27  1  0
  8  9  1  0
  9 10  1  0
  9 25  1  0
 10 11  2  0
 10 12  1  0
 12 13  2  0
 12 14  1  0
 15 14  1  1
 15 16  1  0
 15 23  1  0
 16 17  2  0
 17 18  1  0
 17 19  1  0
 19 20  1  0
 19 22  2  0
 20 21  1  0
 22 23  1  0
 23 24  2  0
 25 26  1  0
 26 27  1  0
M  END
