
     RDKit          3D

 27 29  0  0  0  0  0  0  0  0999 V2000
   -4.3060    0.7100   -0.7250 C   0  0  0  0  0  0  0  0  0  0  0  0
   -4.0920   -0.4450   -0.1350 C   0  0  0  0  0  0  0  0  0  0  0  0
   -5.1970   -1.1480    0.4130 N   0  0  0  0  0  0  0  0  0  0  0  0
   -4.9690   -2.4000    1.0530 C   0  0  0  0  0  0  0  0  0  0  0  0
   -3.7510   -2.8820    1.1240 C   0  0  0  0  0  0  0  0  0  0  0  0
   -3.5810   -4.1090    1.7590 O   0  0  0  0  0  0  0  0  0  0  0  0
   -2.6020   -2.1630    0.5600 C   0  0  0  0  0  0  0  0  0  0  0  0
   -2.7320   -0.9950   -0.0490 C   0  0  0  0  0  0  0  0  0  0  0  0
   -1.6300   -0.3170   -0.5840 O   0  0  0  0  0  0  0  0  0  0  0  0
   -1.3210   -0.5730   -1.9250 C   0  0  0  0  0  0  0  0  0  0  0  0
   -0.1580    0.1710   -2.4130 C   0  0  0  0  0  0  0  0  0  0  0  0
    0.2090    0.0150   -3.6000 O   0  0  0  0  0  0  0  0  0  0  0  0
    0.5860    1.0750   -1.5950 N   0  0  0  0  0  0  0  0  0  0  0  0
    1.7130    1.7880   -2.0920 C   0  0  0  0  0  0  0  0  0  0  0  0
    2.9150    1.6600   -1.5780 C   0  0  0  0  0  0  0  0  0  0  0  0
    3.1100    0.7500   -0.4500 C   0  0  0  0  0  0  0  0  0  0  0  0
    4.2240    0.5120    0.1680 N   0  0  0  0  0  0  0  0  0  0  0  0
    4.0350   -0.4190    1.2060 C   0  0  0  0  0  0  0  0  0  0  0  0
    4.8880   -0.9950    1.9120 O   0  0  0  0  0  0  0  0  0  0  0  0
    2.5660   -0.5980    1.3110 C   0  0  1  0  0  0  0  0  0  0  0  0
    2.0600    0.1650    2.5360 C   0  0  1  0  0  0  0  0  0  0  0  0
    2.6650   -0.2790    3.8850 C   0  0  0  0  0  0  0  0  0  0  0  0
    2.9820    1.0510    3.2770 C   0  0  0  0  0  0  0  0  0  0  0  0
    2.1010   -0.0010    0.1270 O   0  0  0  0  0  0  0  0  0  0  0  0
    1.5520    2.7160   -3.2320 C   0  0  0  0  0  0  0  0  0  0  0  0
    2.6500    3.4410   -3.7530 N   0  0  0  0  0  0  0  0  0  0  0  0
    0.4140    2.8640   -3.7490 O   0  0  0  0  0  0  0  0  0  0  0  0
  1  2  2  0
  2  3  1  0
  2  8  1  0
  3  4  1  0
  4  5  2  0
  5  6  1  0
  5  7  1  0
  7  8  2  0
  8  9  1  0
  9 10  1  0
 10 11  1  0
 11 12  2  0
 11 13  1  0
 13 14  1  0
 14 15  2  3
 14 25  1  0
 15 16  1  0
 16 17  2  0
 16 24  1  0
 17 18  1  0
 18 19  2  0
 18 20  1  0
 20 21  1  0
 20 24  1  6
 21 22  1  1
 21 23  1  0
 22 23  1  0
 25 26  1  0
 25 27  2  0
M  END
