
     RDKit          3D

 27 29  0  0  0  0  0  0  0  0999 V2000
   -5.5000   -2.4650    1.3780 C   0  0  0  0  0  0  0  0  0  0  0  0
   -4.5870   -2.1030    0.2880 N   0  0  0  0  0  0  0  0  0  0  0  0
   -4.2050   -0.7600    0.0420 C   0  0  0  0  0  0  0  0  0  0  0  0
   -4.6750    0.1290    0.7920 O   0  0  0  0  0  0  0  0  0  0  0  0
   -3.2630   -0.4160   -1.0890 C   0  0  2  0  0  0  0  0  0  0  0  0
   -2.8920   -1.5630   -1.7610 O   0  0  0  0  0  0  0  0  0  0  0  0
   -1.5100   -1.7490   -1.6590 C   0  0  0  0  0  0  0  0  0  0  0  0
   -0.9330   -2.7570   -2.2100 O   0  0  0  0  0  0  0  0  0  0  0  0
   -0.9580   -0.6660   -0.8820 C   0  0  0  0  0  0  0  0  0  0  0  0
    0.4010   -0.3930   -0.4920 C   0  0  0  0  0  0  0  0  0  0  0  0
    1.5250   -0.9900   -0.6940 C   0  0  0  0  0  0  0  0  0  0  0  0
    1.8790   -2.1540   -1.3780 N   0  0  0  0  0  0  0  0  0  0  0  0
    3.3140   -2.3490   -1.2750 C   0  0  0  0  0  0  0  0  0  0  0  0
    3.9690   -3.2900   -1.7700 O   0  0  0  0  0  0  0  0  0  0  0  0
    3.8270   -1.2450   -0.4900 C   0  0  0  0  0  0  0  0  0  0  0  0
    4.9900   -0.6800    0.0540 C   0  0  0  0  0  0  0  0  0  0  0  0
    6.3300   -1.2770   -0.1130 C   0  0  0  0  0  0  0  0  0  0  0  0
    4.6300    0.4260    0.7020 N   0  0  0  0  0  0  0  0  0  0  0  0
    3.3190    0.6240    0.6200 C   0  0  0  0  0  0  0  0  0  0  0  0
    2.5440    1.7280    1.2000 C   0  0  0  0  0  0  0  0  0  0  0  0
    2.8020   -0.4120   -0.1220 C   0  0  0  0  0  0  0  0  0  0  0  0
   -2.0100    0.1320   -0.5410 C   0  0  0  0  0  0  0  0  0  0  0  0
   -1.8670    1.2910    0.2200 O   0  0  0  0  0  0  0  0  0  0  0  0
   -2.0560    2.5210   -0.4550 C   0  0  0  0  0  0  0  0  0  0  0  0
   -1.8820    3.6790    0.4400 C   0  0  0  0  0  0  0  0  0  0  0  0
   -2.0400    4.9750   -0.0960 N   0  0  0  0  0  0  0  0  0  0  0  0
   -1.5980    3.5620    1.6620 O   0  0  0  0  0  0  0  0  0  0  0  0
  1  2  1  0
  2  3  1  0
  3  4  2  0
  5  3  1  1
  5  6  1  0
  5 22  1  0
  6  7  1  0
  7  8  2  0
  7  9  1  0
  9 10  1  0
  9 22  2  0
 10 11  2  3
 11 12  1  0
 11 21  1  0
 12 13  1  0
 13 14  2  0
 13 15  1  0
 15 16  2  0
 15 21  1  0
 16 17  1  0
 16 18  1  0
 18 19  1  0
 19 20  1  0
 19 21  2  0
 22 23  1  0
 23 24  1  0
 24 25  1  0
 25 26  1  0
 25 27  2  0
M  END
