
     RDKit          3D

 16 17  0  0  0  0  0  0  0  0999 V2000
    3.5270    1.2860   -1.7640 O   0  0  0  0  0  0  0  0  0  0  0  0
    3.1940    0.8390   -0.6200 C   0  0  0  0  0  0  0  0  0  0  0  0
    2.7390    1.7900    0.2860 O   0  0  0  0  0  0  0  0  0  0  0  0
    3.2890   -0.5910   -0.2820 C   0  0  0  0  0  0  0  0  0  0  0  0
    2.7880   -0.9570    1.0780 C   0  0  0  0  0  0  0  0  0  0  0  0
    1.3350   -0.6480    1.3160 C   0  0  0  0  0  0  0  0  0  0  0  0
    0.4330   -1.3640    0.3450 C   0  0  0  0  0  0  0  0  0  0  0  0
   -1.0150   -1.0690    0.5770 C   0  0  2  0  0  0  0  0  0  0  0  0
   -2.0950   -1.9350   -0.5960 S   0  0  0  0  0  0  0  0  0  0  0  0
   -3.3670   -0.6170   -0.7640 C   0  0  0  0  0  0  0  0  0  0  0  0
   -2.9110    0.3690    0.2660 C   0  0  2  0  0  0  0  0  0  0  0  0
   -3.1120    1.6970   -0.3210 N   0  0  0  0  0  0  0  0  0  0  0  0
   -2.0950    1.7780   -1.3290 C   0  0  0  0  0  0  0  0  0  0  0  0
   -2.0700    2.5590   -2.3240 O   0  0  0  0  0  0  0  0  0  0  0  0
   -1.0770    0.8010   -1.0180 N   0  0  0  0  0  0  0  0  0  0  0  0
   -1.4030    0.3480    0.3190 C   0  0  2  0  0  0  0  0  0  0  0  0
  1  2  2  0
  2  3  1  0
  2  4  1  0
  4  5  1  0
  5  6  1  0
  6  7  1  0
  8  7  1  6
  8  9  1  0
  8 16  1  0
  9 10  1  0
 11 10  1  6
 11 12  1  0
 11 16  1  0
 12 13  1  0
 13 14  2  0
 13 15  1  0
 16 15  1  6
M  END
