
     RDKit          3D

 16 16  0  0  0  0  0  0  0  0999 V2000
    5.4710   -1.3200    1.6520 C   0  0  0  0  0  0  0  0  0  0  0  0
    4.4350   -0.9160    0.9410 C   0  0  0  0  0  0  0  0  0  0  0  0
    2.9450   -0.1130    1.5370 S   0  0  0  0  0  0  0  0  0  0  0  0
    2.1620    0.0480   -0.0540 C   0  0  0  0  0  0  0  0  0  0  0  0
    0.8620    0.6490   -0.2580 C   0  0  0  0  0  0  0  0  0  0  0  0
    0.4060    0.7060   -1.4530 O   0  0  0  0  0  0  0  0  0  0  0  0
    0.0860    1.1700    0.7990 N   0  0  0  0  0  0  0  0  0  0  0  0
   -1.1980    1.7510    0.5070 C   0  0  0  0  0  0  0  0  0  0  0  0
   -2.1210    0.7780   -0.1280 C   0  0  0  0  0  0  0  0  0  0  0  0
   -1.7980   -0.4110   -0.3740 O   0  0  0  0  0  0  0  0  0  0  0  0
   -3.4040    1.1710   -0.4770 O   0  0  0  0  0  0  0  0  0  0  0  0
   -4.2990    0.2790   -1.0770 C   0  0  0  0  0  0  0  0  0  0  0  0
   -4.6070   -0.9320   -0.2450 C   0  0  0  0  0  0  0  0  0  0  0  0
    2.9640   -0.4620   -0.9440 C   0  0  0  0  0  0  0  0  0  0  0  0
    4.2020   -1.0000   -0.4920 C   0  0  0  0  0  0  0  0  0  0  0  0
    5.0860   -1.5330   -1.2630 O   0  0  0  0  0  0  0  0  0  0  0  0
  1  2  2  0
  2  3  1  0
  2 15  1  0
  3  4  1  0
  4  5  1  0
  4 14  2  0
  5  6  2  0
  5  7  1  0
  7  8  1  0
  8  9  1  0
  9 10  2  0
  9 11  1  0
 11 12  1  0
 12 13  1  0
 14 15  1  0
 15 16  2  0
M  END
