
     RDKit          3D

 16 15  0  0  0  0  0  0  0  0999 V2000
    6.4070   -0.1820    0.5800 C   0  0  0  0  0  0  0  0  0  0  0  0
    5.5440   -0.8400   -0.4470 C   0  0  0  0  0  0  0  0  0  0  0  0
    4.2580   -0.2800   -0.5520 O   0  0  0  0  0  0  0  0  0  0  0  0
    4.0060    1.0350   -0.8820 C   0  0  0  0  0  0  0  0  0  0  0  0
    4.9900    1.7700   -1.1000 O   0  0  0  0  0  0  0  0  0  0  0  0
    2.6050    1.5010   -0.9590 C   0  0  0  0  0  0  0  0  0  0  0  0
    1.7160    0.4420   -0.6620 O   0  0  0  0  0  0  0  0  0  0  0  0
    0.3460    0.6360   -0.6700 C   0  0  0  0  0  0  0  0  0  0  0  0
   -0.0550    1.8000   -0.9560 O   0  0  0  0  0  0  0  0  0  0  0  0
   -0.6110   -0.4200   -0.3720 C   0  0  0  0  0  0  0  0  0  0  0  0
   -1.8950   -0.1680   -0.3980 C   0  0  0  0  0  0  0  0  0  0  0  0
   -2.3430    1.1270   -0.7150 N   0  0  0  0  0  0  0  0  0  0  0  0
   -3.0480   -1.4630   -0.0330 S   0  0  0  0  0  0  0  0  0  0  0  0
   -4.7330   -0.8080   -0.1490 C   0  0  2  0  0  0  0  0  0  0  0  0
   -4.9130    0.2070    0.9580 C   0  0  0  0  0  0  0  0  0  0  0  0
   -5.7390   -1.9380    0.0770 C   0  0  0  0  0  0  0  0  0  0  0  0
  1  2  1  0
  2  3  1  0
  3  4  1  0
  4  5  2  0
  4  6  1  0
  6  7  1  0
  7  8  1  0
  8  9  2  0
  8 10  1  0
 10 11  2  3
 11 12  1  0
 11 13  1  0
 13 14  1  0
 14 15  1  1
 14 16  1  0
M  END
