
     RDKit          3D

 16 16  0  0  0  0  0  0  0  0999 V2000
   -3.9660   -1.1450    0.6380 C   0  0  0  0  0  0  0  0  0  0  0  0
   -4.2060    0.3520    0.7940 C   0  0  0  0  0  0  0  0  0  0  0  0
   -3.7070    1.0250   -0.4470 C   0  0  0  0  0  0  0  0  0  0  0  0
   -2.2310    0.7750   -0.6640 C   0  0  0  0  0  0  0  0  0  0  0  0
   -1.4000    1.2900    0.4820 C   0  0  0  0  0  0  0  0  0  0  0  0
   -0.0530    1.0260    0.2050 O   0  0  0  0  0  0  0  0  0  0  0  0
    0.5440   -0.1840    0.0260 C   0  0  0  0  0  0  0  0  0  0  0  0
   -0.1340   -1.2240    0.1080 O   0  0  0  0  0  0  0  0  0  0  0  0
    1.9760   -0.2230   -0.2610 C   0  0  0  0  0  0  0  0  0  0  0  0
    2.7060    0.8670   -0.3510 C   0  0  0  0  0  0  0  0  0  0  0  0
    4.1510    0.7670   -0.6440 C   0  0  0  0  0  0  0  0  0  0  0  0
    4.8190   -0.4570    0.4790 S   0  0  1  0  0  0  0  0  0  0  0  0
    6.1670   -0.9000    0.0500 O   0  0  0  0  0  0  0  0  0  0  0  0
    4.8140    0.1500    1.8630 O   0  0  0  0  0  0  0  0  0  0  0  0
    3.6970   -1.7680    0.4930 N   0  0  0  0  0  0  0  0  0  0  0  0
    2.6280   -1.5430   -0.4570 C   0  0  0  0  0  0  0  0  0  0  0  0
  1  2  1  0
  2  3  1  0
  3  4  1  0
  4  5  1  0
  5  6  1  0
  6  7  1  0
  7  8  2  0
  7  9  1  0
  9 10  2  0
  9 16  1  0
 10 11  1  0
 12 11  1  6
 12 13  2  0
 12 14  2  0
 12 15  1  0
 15 16  1  0
M  END
