
     RDKit          3D

 16 16  0  0  0  0  0  0  0  0999 V2000
    5.6180    0.4720    0.6750 C   0  0  0  0  0  0  0  0  0  0  0  0
    4.3720   -0.0050    0.2920 O   0  0  0  0  0  0  0  0  0  0  0  0
    4.4430   -1.2400   -0.3310 C   0  0  0  0  0  0  0  0  0  0  0  0
    3.0620   -1.6500   -0.6950 C   0  0  0  0  0  0  0  0  0  0  0  0
    2.9160   -2.7560   -1.2760 O   0  0  0  0  0  0  0  0  0  0  0  0
    1.9300   -0.8180   -0.3940 N   0  0  0  0  0  0  0  0  0  0  0  0
    0.6210   -1.2100   -0.7400 C   0  0  0  0  0  0  0  0  0  0  0  0
    0.4190   -2.2950   -1.3180 O   0  0  0  0  0  0  0  0  0  0  0  0
   -0.5150   -0.3310   -0.4170 C   0  0  0  0  0  0  0  0  0  0  0  0
   -2.0900   -1.0320   -0.9500 S   0  0  0  0  0  0  0  0  0  0  0  0
   -3.3920    0.1330   -0.4990 C   0  0  0  0  0  0  0  0  0  0  0  0
   -4.6580   -0.1330   -0.7760 C   0  0  0  0  0  0  0  0  0  0  0  0
   -5.7830    0.7760   -0.4360 C   0  0  0  0  0  0  0  0  0  0  0  0
   -5.3440    1.9480    0.2120 O   0  0  0  0  0  0  0  0  0  0  0  0
   -4.0350    2.2490    0.5110 C   0  0  0  0  0  0  0  0  0  0  0  0
   -3.0900    1.3870    0.1750 C   0  0  0  0  0  0  0  0  0  0  0  0
  1  2  1  0
  2  3  1  0
  3  4  1  0
  4  5  2  0
  4  6  1  0
  6  7  1  0
  7  8  2  0
  7  9  1  0
  9 10  1  0
 10 11  1  0
 11 12  2  0
 11 16  1  0
 12 13  1  0
 13 14  1  0
 14 15  1  0
 15 16  2  0
M  END
