
     RDKit          3D

 17 18  0  0  0  0  0  0  0  0999 V2000
    2.6350    0.7410    0.8640 N   0  0  0  0  0  0  0  0  0  0  0  0
    2.0650   -0.5150    0.4710 C   0  0  1  0  0  0  0  0  0  0  0  0
    1.1330   -0.4040   -0.7070 C   0  0  0  0  0  0  0  0  0  0  0  0
    0.0140    0.4570   -0.4830 N   0  0  0  0  0  0  0  0  0  0  0  0
   -1.1430   -0.0330    0.0290 C   0  0  0  0  0  0  0  0  0  0  0  0
   -2.2320    0.7550    0.2560 C   0  0  0  0  0  0  0  0  0  0  0  0
   -2.1630    2.0940   -0.0420 C   0  0  0  0  0  0  0  0  0  0  0  0
   -3.1100    2.9040    0.1300 O   0  0  0  0  0  0  0  0  0  0  0  0
   -1.0170    2.5720   -0.5470 N   0  0  0  0  0  0  0  0  0  0  0  0
    0.0430    1.7720   -0.7620 C   0  0  0  0  0  0  0  0  0  0  0  0
    1.1030    2.2630   -1.2390 O   0  0  0  0  0  0  0  0  0  0  0  0
   -3.3600   -0.0620    0.8230 C   0  0  0  0  0  0  0  0  0  0  0  0
   -2.9770   -1.4440    0.2780 C   0  0  0  0  0  0  0  0  0  0  0  0
   -1.4840   -1.4140    0.4320 C   0  0  0  0  0  0  0  0  0  0  0  0
    3.1510   -1.4650    0.1230 C   0  0  0  0  0  0  0  0  0  0  0  0
    2.8440   -2.6280   -0.2480 O   0  0  0  0  0  0  0  0  0  0  0  0
    4.4750   -1.0790    0.2060 O   0  0  0  0  0  0  0  0  0  0  0  0
  2  1  1  6
  2  3  1  0
  2 15  1  0
  3  4  1  0
  4  5  1  0
  4 10  1  0
  5  6  2  0
  5 14  1  0
  6  7  1  0
  6 12  1  0
  7  8  2  0
  7  9  1  0
  9 10  1  0
 10 11  2  0
 12 13  1  0
 13 14  1  0
 15 16  2  0
 15 17  1  0
M  CHG  1   1   1
M  END
