
     RDKit          3D

 16 16  0  0  0  0  0  0  0  0999 V2000
   -5.8240   -0.5200    0.4780 C   0  0  0  0  0  0  0  0  0  0  0  0
   -4.6390   -0.4360   -0.0680 C   0  0  0  0  0  0  0  0  0  0  0  0
   -3.2240    0.4640    0.5420 S   0  0  0  0  0  0  0  0  0  0  0  0
   -2.1160    0.0240   -0.7860 C   0  0  0  0  0  0  0  0  0  0  0  0
   -0.7040    0.4520   -0.9190 C   0  0  0  0  0  0  0  0  0  0  0  0
   -0.0010    0.0950   -1.8850 O   0  0  0  0  0  0  0  0  0  0  0  0
   -0.1420    1.2840    0.0710 N   0  0  0  0  0  0  0  0  0  0  0  0
    1.2230    1.7550    0.0330 C   0  0  0  0  0  0  0  0  0  0  0  0
    2.2020    0.6560    0.0380 C   0  0  0  0  0  0  0  0  0  0  0  0
    1.7850   -0.5210    0.0730 O   0  0  0  0  0  0  0  0  0  0  0  0
    3.5390    0.9100    0.0050 O   0  0  0  0  0  0  0  0  0  0  0  0
    4.5490   -0.0770    0.0070 C   0  0  0  0  0  0  0  0  0  0  0  0
    4.5080   -0.9520    1.2240 C   0  0  0  0  0  0  0  0  0  0  0  0
   -2.7800   -0.7390   -1.6100 C   0  0  0  0  0  0  0  0  0  0  0  0
   -4.1450   -1.0300   -1.2870 C   0  0  0  0  0  0  0  0  0  0  0  0
   -4.9110   -1.7680   -2.0130 O   0  0  0  0  0  0  0  0  0  0  0  0
  1  2  2  0
  2  3  1  0
  2 15  1  0
  3  4  1  0
  4  5  1  0
  4 14  2  0
  5  6  2  0
  5  7  1  0
  7  8  1  0
  8  9  1  0
  9 10  2  0
  9 11  1  0
 11 12  1  0
 12 13  1  0
 14 15  1  0
 15 16  2  0
M  END
