
     RDKit          3D

 16 16  0  0  0  0  0  0  0  0999 V2000
   -5.6370    0.8770   -0.1350 C   0  0  0  0  0  0  0  0  0  0  0  0
   -4.1410    0.9150    0.1970 C   0  0  0  0  0  0  0  0  0  0  0  0
   -3.7120   -0.5010    0.4260 C   0  0  0  0  0  0  0  0  0  0  0  0
   -2.2650   -0.6510    0.7640 C   0  0  0  0  0  0  0  0  0  0  0  0
   -1.3530   -0.1320   -0.3190 C   0  0  0  0  0  0  0  0  0  0  0  0
    0.0070   -0.2830    0.0190 O   0  0  0  0  0  0  0  0  0  0  0  0
    1.0410    0.1160   -0.8080 C   0  0  0  0  0  0  0  0  0  0  0  0
    0.7320    0.6280   -1.8950 O   0  0  0  0  0  0  0  0  0  0  0  0
    2.4530   -0.0390   -0.4600 C   0  0  0  0  0  0  0  0  0  0  0  0
    3.3580    0.3660   -1.3050 C   0  0  0  0  0  0  0  0  0  0  0  0
    4.8150    0.3140   -1.1730 C   0  0  0  0  0  0  0  0  0  0  0  0
    5.2260   -0.0370    0.5170 S   0  0  2  0  0  0  0  0  0  0  0  0
    5.2160    1.2130    1.3470 O   0  0  0  0  0  0  0  0  0  0  0  0
    6.5640   -0.6760    0.5680 O   0  0  0  0  0  0  0  0  0  0  0  0
    4.0270   -1.1610    1.0600 N   0  0  0  0  0  0  0  0  0  0  0  0
    2.7090   -0.6630    0.8640 C   0  0  0  0  0  0  0  0  0  0  0  0
  1  2  1  0
  2  3  1  0
  3  4  1  0
  4  5  1  0
  5  6  1  0
  6  7  1  0
  7  8  2  0
  7  9  1  0
  9 10  2  0
  9 16  1  0
 10 11  1  0
 12 11  1  6
 12 13  2  0
 12 14  2  0
 12 15  1  0
 15 16  1  0
M  END
