
     RDKit          3D

 16 16  0  0  0  0  0  0  0  0999 V2000
    4.6630    0.6130    1.6390 C   0  0  0  0  0  0  0  0  0  0  0  0
    4.1970   -0.4240    0.7970 O   0  0  0  0  0  0  0  0  0  0  0  0
    3.0540   -0.2610    0.0610 C   0  0  0  0  0  0  0  0  0  0  0  0
    2.4350    0.8290    0.1530 O   0  0  0  0  0  0  0  0  0  0  0  0
    2.5100   -1.3160   -0.8460 C   0  0  0  0  0  0  0  0  0  0  0  0
    1.3010   -0.8770   -1.4950 N   0  0  0  0  0  0  0  0  0  0  0  0
    0.1320   -0.5010   -0.7830 C   0  0  0  0  0  0  0  0  0  0  0  0
    0.1630   -0.5580    0.4730 O   0  0  0  0  0  0  0  0  0  0  0  0
   -1.1090   -0.0490   -1.4960 C   0  0  0  0  0  0  0  0  0  0  0  0
   -2.1770    0.2790   -0.4740 C   0  0  0  0  0  0  0  0  0  0  0  0
   -2.6900    1.4700   -0.3950 C   0  0  0  0  0  0  0  0  0  0  0  0
   -3.7190    2.0020    0.5050 C   0  0  0  0  0  0  0  0  0  0  0  0
   -4.3340    0.7810    1.6530 S   0  0  0  0  0  0  0  0  0  0  0  0
   -3.4650   -0.7420    1.3220 C   0  0  0  0  0  0  0  0  0  0  0  0
   -2.5530   -0.8400    0.3760 C   0  0  0  0  0  0  0  0  0  0  0  0
   -1.9580   -2.1010    0.2360 O   0  0  0  0  0  0  0  0  0  0  0  0
  1  2  1  0
  2  3  1  0
  3  4  2  0
  3  5  1  0
  5  6  1  0
  6  7  1  0
  7  8  2  0
  7  9  1  0
  9 10  1  0
 10 11  2  0
 10 15  1  0
 11 12  1  0
 12 13  1  0
 13 14  1  0
 14 15  2  0
 15 16  1  0
M  END
