
     RDKit          3D

 17 18  0  0  0  0  0  0  0  0999 V2000
    3.2460   -1.4110   -0.3270 N   0  0  0  0  0  0  0  0  0  0  0  0
    2.1490   -0.4250   -0.3640 C   0  0  1  0  0  0  0  0  0  0  0  0
    1.1840   -0.8530    0.6870 C   0  0  0  0  0  0  0  0  0  0  0  0
    0.0240   -0.0440    0.8560 N   0  0  0  0  0  0  0  0  0  0  0  0
   -1.0990   -0.2500    0.1380 C   0  0  0  0  0  0  0  0  0  0  0  0
   -2.2410    0.5090    0.2900 C   0  0  0  0  0  0  0  0  0  0  0  0
   -2.2490    1.5300    1.2150 C   0  0  0  0  0  0  0  0  0  0  0  0
   -3.2840    2.2060    1.3410 O   0  0  0  0  0  0  0  0  0  0  0  0
   -1.1270    1.7280    1.9250 N   0  0  0  0  0  0  0  0  0  0  0  0
   -0.0180    0.9620    1.7510 C   0  0  0  0  0  0  0  0  0  0  0  0
    0.9630    1.2550    2.4830 O   0  0  0  0  0  0  0  0  0  0  0  0
   -3.2930    0.0260   -0.6450 C   0  0  0  0  0  0  0  0  0  0  0  0
   -2.4630   -0.6080   -1.7310 C   0  0  0  0  0  0  0  0  0  0  0  0
   -1.3560   -1.2740   -0.9130 C   0  0  0  0  0  0  0  0  0  0  0  0
    2.6880    0.9360   -0.2220 C   0  0  0  0  0  0  0  0  0  0  0  0
    3.8960    1.1290    0.0040 O   0  0  0  0  0  0  0  0  0  0  0  0
    1.8380    2.0210   -0.3430 O   0  0  0  0  0  0  0  0  0  0  0  0
  2  1  1  1
  2  3  1  0
  2 15  1  0
  3  4  1  0
  4  5  1  0
  4 10  1  0
  5  6  2  0
  5 14  1  0
  6  7  1  0
  6 12  1  0
  7  8  2  0
  7  9  1  0
  9 10  1  0
 10 11  2  0
 12 13  1  0
 13 14  1  0
 15 16  2  0
 15 17  1  0
M  CHG  1   1   1
M  END
