
     RDKit          3D

 16 16  0  0  0  0  0  0  0  0999 V2000
   -5.2040   -1.8220   -0.4620 C   0  0  0  0  0  0  0  0  0  0  0  0
   -4.7080   -0.4110   -0.2230 C   0  0  0  0  0  0  0  0  0  0  0  0
   -3.2940   -0.4180   -0.1950 O   0  0  0  0  0  0  0  0  0  0  0  0
   -2.5480    0.7150    0.0040 C   0  0  0  0  0  0  0  0  0  0  0  0
   -3.1280    1.8100    0.1680 O   0  0  0  0  0  0  0  0  0  0  0  0
   -1.0670    0.6900    0.0300 C   0  0  0  0  0  0  0  0  0  0  0  0
   -0.2490    1.7660    0.2200 C   0  0  0  0  0  0  0  0  0  0  0  0
    1.1060    1.3710    0.1830 C   0  0  0  0  0  0  0  0  0  0  0  0
    2.2210    2.2880    0.3340 C   0  0  0  0  0  0  0  0  0  0  0  0
    3.4150    2.0560    0.1840 O   0  0  0  0  0  0  0  0  0  0  0  0
    1.9270    3.6230    0.6980 O   0  0  0  0  0  0  0  0  0  0  0  0
    1.0540    0.0190   -0.0350 C   0  0  0  0  0  0  0  0  0  0  0  0
    2.3340   -1.1730   -0.1860 S   0  0  0  0  0  0  0  0  0  0  0  0
    4.0010   -0.6880   -0.0540 C   0  0  0  0  0  0  0  0  0  0  0  0
    4.9290   -1.9500   -0.1880 C   0  0  0  0  0  0  0  0  0  0  0  0
   -0.2840   -0.3640   -0.1240 N   0  0  0  0  0  0  0  0  0  0  0  0
  1  2  1  0
  2  3  1  0
  3  4  1  0
  4  5  2  0
  4  6  1  0
  6  7  2  0
  6 16  1  0
  7  8  1  0
  8  9  1  0
  8 12  2  0
  9 10  2  0
  9 11  1  0
 12 13  1  0
 12 16  1  0
 13 14  1  0
 14 15  1  0
M  END
