
     RDKit          3D

 16 16  0  0  0  0  0  0  0  0999 V2000
    6.6060   -0.1750   -0.0570 C   0  0  0  0  0  0  0  0  0  0  0  0
    5.2240   -0.0550   -0.3090 O   0  0  0  0  0  0  0  0  0  0  0  0
    4.2810   -0.7650    0.4000 C   0  0  0  0  0  0  0  0  0  0  0  0
    4.6630   -1.5510    1.3030 O   0  0  0  0  0  0  0  0  0  0  0  0
    2.8100   -0.6610    0.1680 C   0  0  0  0  0  0  0  0  0  0  0  0
    2.2590    1.0110    0.5690 S   0  0  0  0  0  0  0  0  0  0  0  0
    0.4880    1.0830    0.3760 C   0  0  0  0  0  0  0  0  0  0  0  0
   -0.0310    2.2180    0.5590 O   0  0  0  0  0  0  0  0  0  0  0  0
   -0.3450    0.0130    0.0490 N   0  0  0  0  0  0  0  0  0  0  0  0
   -1.7670    0.0620   -0.1070 C   0  0  1  0  0  0  0  0  0  0  0  0
   -2.2510   -1.3360   -0.4620 C   0  0  0  0  0  0  0  0  0  0  0  0
   -1.8950   -2.2360    0.5540 O   0  0  0  0  0  0  0  0  0  0  0  0
   -2.5080    0.5230    1.1020 C   0  0  0  0  0  0  0  0  0  0  0  0
   -3.8610    0.9180    0.5680 C   0  0  0  0  0  0  0  0  0  0  0  0
   -3.7360    1.0430   -0.9110 C   0  0  0  0  0  0  0  0  0  0  0  0
   -2.2520    0.9580   -1.1930 C   0  0  0  0  0  0  0  0  0  0  0  0
  1  2  1  0
  2  3  1  0
  3  4  2  0
  3  5  1  0
  5  6  1  0
  6  7  1  0
  7  8  2  0
  7  9  1  0
  9 10  1  0
 10 11  1  6
 10 13  1  0
 10 16  1  0
 11 12  1  0
 13 14  1  0
 14 15  1  0
 15 16  1  0
M  END
