
     RDKit          3D

 16 16  0  0  0  0  0  0  0  0999 V2000
   -4.2340    1.5150    1.1650 C   0  0  0  0  0  0  0  0  0  0  0  0
   -3.4800    0.3980    0.7320 O   0  0  0  0  0  0  0  0  0  0  0  0
   -2.1820    0.5450    0.2620 C   0  0  0  0  0  0  0  0  0  0  0  0
   -1.6900    1.7100    0.2330 O   0  0  0  0  0  0  0  0  0  0  0  0
   -1.3800   -0.5760   -0.1910 C   0  0  0  0  0  0  0  0  0  0  0  0
   -1.9030   -1.8520   -0.1640 O   0  0  0  0  0  0  0  0  0  0  0  0
   -3.1840   -2.1790    0.2790 C   0  0  0  0  0  0  0  0  0  0  0  0
   -0.1530   -0.3870   -0.6300 C   0  0  0  0  0  0  0  0  0  0  0  0
    0.6360   -1.4790   -1.0740 N   0  0  0  0  0  0  0  0  0  0  0  0
    0.5560    1.2410   -0.6840 S   0  0  0  0  0  0  0  0  0  0  0  0
    2.2520    1.2400   -1.2710 C   0  0  0  0  0  0  0  0  0  0  0  0
    3.1940    0.6070   -0.3460 C   0  0  0  0  0  0  0  0  0  0  0  0
    3.8320    1.2440    0.6980 C   0  0  0  0  0  0  0  0  0  0  0  0
    4.6480    0.3100    1.3180 C   0  0  0  0  0  0  0  0  0  0  0  0
    4.5090   -0.8220    0.6830 O   0  0  0  0  0  0  0  0  0  0  0  0
    3.6420   -0.6840   -0.3260 C   0  0  0  0  0  0  0  0  0  0  0  0
  1  2  1  0
  2  3  1  0
  3  4  2  0
  3  5  1  0
  5  6  1  0
  5  8  2  3
  6  7  1  0
  8  9  1  0
  8 10  1  0
 10 11  1  0
 11 12  1  0
 12 13  1  0
 12 16  2  0
 13 14  2  0
 14 15  1  0
 15 16  1  0
M  END
