
     RDKit          3D

 36 39  0  0  0  0  0  0  0  0999 V2000
   -5.9440   -3.5200   -1.7520 C   0  0  0  0  0  0  0  0  0  0  0  0
   -4.6540   -2.8630   -1.4340 C   0  0  0  0  0  0  0  0  0  0  0  0
   -4.1000   -2.8940   -0.1490 C   0  0  0  0  0  0  0  0  0  0  0  0
   -2.8990   -2.2720    0.1080 C   0  0  0  0  0  0  0  0  0  0  0  0
   -2.1990   -1.5920   -0.9060 C   0  0  0  0  0  0  0  0  0  0  0  0
   -0.9390   -0.9410   -0.6400 C   0  0  0  0  0  0  0  0  0  0  0  0
   -0.6130    0.0490    0.1060 C   0  0  0  0  0  0  0  0  0  0  0  0
    0.8230    0.4630    0.1630 C   0  0  0  0  0  0  0  0  0  0  0  0
    1.1610    1.4450    0.9120 O   0  0  0  0  0  0  0  0  0  0  0  0
    1.8610   -0.1390   -0.5510 N   0  0  0  0  0  0  0  0  0  0  0  0
    3.1860    0.3080   -0.4500 N   0  0  0  0  0  0  0  0  0  0  0  0
    3.9730   -0.0860    0.5240 C   0  0  0  0  0  0  0  0  0  0  0  0
    3.5050   -1.0320    1.5820 C   0  0  0  0  0  0  0  0  0  0  0  0
    5.1130   -1.9250    1.7960 S   0  0  0  0  0  0  0  0  0  0  0  0
    6.1470   -0.5470    1.3450 C   0  0  0  0  0  0  0  0  0  0  0  0
    7.4670   -0.2890    1.5600 C   0  0  0  0  0  0  0  0  0  0  0  0
    8.0700    0.8930    1.1190 C   0  0  0  0  0  0  0  0  0  0  0  0
    9.5070    1.1920    1.3450 C   0  0  0  0  0  0  0  0  0  0  0  0
   10.3480    0.7760    0.2490 N   0  0  0  0  0  0  0  0  0  0  0  0
    7.2560    1.7800    0.4550 C   0  0  0  0  0  0  0  0  0  0  0  0
    5.9310    1.5150    0.2420 C   0  0  0  0  0  0  0  0  0  0  0  0
    5.3350    0.3280    0.6870 C   0  0  0  0  0  0  0  0  0  0  0  0
   -1.5490    0.9180    0.7890 C   0  0  0  0  0  0  0  0  0  0  0  0
   -1.0810    1.8180    1.5890 O   0  0  0  0  0  0  0  0  0  0  0  0
   -2.9440    0.8980    0.6660 N   0  0  0  0  0  0  0  0  0  0  0  0
   -3.7930    1.8240    1.4190 C   0  0  2  0  0  0  0  0  0  0  0  0
   -4.9710    1.1680    2.0590 C   0  0  0  0  0  0  0  0  0  0  0  0
   -6.0320    1.2850    1.0240 C   0  0  0  0  0  0  0  0  0  0  0  0
   -7.0520    0.5370    0.8490 O   0  0  0  0  0  0  0  0  0  0  0  0
   -5.7690    2.4000    0.1860 N   0  0  0  0  0  0  0  0  0  0  0  0
   -6.5890    3.0630   -0.7870 C   0  0  0  0  0  0  0  0  0  0  0  0
   -4.4320    2.8040    0.4860 C   0  0  0  0  0  0  0  0  0  0  0  0
   -3.8270    3.8220    0.0600 O   0  0  0  0  0  0  0  0  0  0  0  0
   -2.7360   -1.5580   -2.1660 C   0  0  0  0  0  0  0  0  0  0  0  0
   -3.9460   -2.1900   -2.4070 C   0  0  0  0  0  0  0  0  0  0  0  0
   -4.4870   -2.1270   -3.7870 C   0  0  0  0  0  0  0  0  0  0  0  0
  1  2  1  0
  2  3  2  0
  2 35  1  0
  3  4  1  0
  4  5  2  0
  5  6  1  0
  5 34  1  0
  6  7  2  3
  7  8  1  0
  7 23  1  0
  8  9  2  0
  8 10  1  0
 10 11  1  0
 11 12  2  3
 12 13  1  0
 12 22  1  0
 13 14  1  0
 14 15  1  0
 15 16  2  0
 15 22  1  0
 16 17  1  0
 17 18  1  0
 17 20  2  0
 18 19  1  0
 20 21  1  0
 21 22  2  0
 23 24  2  0
 23 25  1  0
 26 25  1  6
 26 27  1  0
 26 32  1  0
 27 28  1  0
 28 29  2  0
 28 30  1  0
 30 31  1  0
 30 32  1  0
 32 33  2  0
 34 35  2  0
 35 36  1  0
M  CHG  1  19   1
M  END
