
     RDKit          3D

 35 38  0  0  0  0  0  0  0  0999 V2000
   -2.2920   -1.5310    4.7560 C   0  0  0  0  0  0  0  0  0  0  0  0
   -2.0880   -0.4380    3.6910 C   0  0  0  0  0  0  0  0  0  0  0  0
   -1.0370   -0.8890    2.7520 N   0  0  0  0  0  0  0  0  0  0  0  0
    0.3600   -0.6170    2.9610 C   0  0  0  0  0  0  0  0  0  0  0  0
    0.7930    0.0500    3.9260 O   0  0  0  0  0  0  0  0  0  0  0  0
    1.0940   -1.2500    1.8710 C   0  0  2  0  0  0  0  0  0  0  0  0
    1.8110   -0.3200    1.0360 N   0  0  0  0  0  0  0  0  0  0  0  0
    3.2410   -0.4320    0.8980 C   0  0  0  0  0  0  0  0  0  0  0  0
    3.7530   -1.3640    1.5410 O   0  0  0  0  0  0  0  0  0  0  0  0
    3.9730    0.4770    0.0780 N   0  0  0  0  0  0  0  0  0  0  0  0
    5.3540    0.4370   -0.1060 C   0  0  0  0  0  0  0  0  0  0  0  0
    6.1690   -0.4940    0.4930 C   0  0  0  0  0  0  0  0  0  0  0  0
    7.5570   -0.5420    0.3170 C   0  0  0  0  0  0  0  0  0  0  0  0
    8.1350    0.3910   -0.4990 C   0  0  0  0  0  0  0  0  0  0  0  0
    7.3260    1.3320   -1.1060 C   0  0  0  0  0  0  0  0  0  0  0  0
    7.9130    2.2900   -1.9430 C   0  0  0  0  0  0  0  0  0  0  0  0
    7.1730    3.2220   -2.5550 N   0  0  0  0  0  0  0  0  0  0  0  0
    5.8440    3.2840   -2.3990 C   0  0  0  0  0  0  0  0  0  0  0  0
    5.2060    2.3660   -1.5850 C   0  0  0  0  0  0  0  0  0  0  0  0
    5.9460    1.3970   -0.9450 C   0  0  0  0  0  0  0  0  0  0  0  0
    0.0560   -1.8770    1.0400 C   0  0  0  0  0  0  0  0  0  0  0  0
    0.3450   -2.6410   -0.2020 C   0  0  0  0  0  0  0  0  0  0  0  0
   -1.1430   -1.6500    1.5740 C   0  0  0  0  0  0  0  0  0  0  0  0
   -2.4300   -2.1880    0.9860 C   0  0  0  0  0  0  0  0  0  0  0  0
   -3.2670   -1.1450    0.3190 C   0  0  0  0  0  0  0  0  0  0  0  0
   -2.5730   -0.5070   -0.7760 N   0  0  0  0  0  0  0  0  0  0  0  0
   -3.3620    0.1160   -1.7580 C   0  0  1  0  0  0  0  0  0  0  0  0
   -4.2100   -0.7840   -2.6140 C   0  0  0  0  0  0  0  0  0  0  0  0
   -4.6690    0.1170   -3.7620 C   0  0  0  0  0  0  0  0  0  0  0  0
   -4.8360    1.7290   -2.9740 S   0  0  1  0  0  0  0  0  0  0  0  0
   -3.9190    2.7250   -3.5910 O   0  0  0  0  0  0  0  0  0  0  0  0
   -6.2550    2.1590   -2.9140 O   0  0  0  0  0  0  0  0  0  0  0  0
   -4.2260    1.2570   -1.3360 C   0  0  1  0  0  0  0  0  0  0  0  0
   -5.4240    0.9280   -0.5250 C   0  0  0  0  0  0  0  0  0  0  0  0
   -3.4440    2.3720   -0.7200 C   0  0  0  0  0  0  0  0  0  0  0  0
  1  2  1  0
  2  3  1  0
  3  4  1  0
  3 23  1  0
  4  5  2  0
  4  6  1  0
  6  7  1  6
  6 21  1  0
  7  8  1  0
  8  9  2  0
  8 10  1  0
 10 11  1  0
 11 12  2  0
 11 20  1  0
 12 13  1  0
 13 14  2  0
 14 15  1  0
 15 16  2  0
 15 20  1  0
 16 17  1  0
 17 18  2  0
 18 19  1  0
 19 20  2  0
 21 22  1  0
 21 23  2  0
 23 24  1  0
 24 25  1  0
 25 26  1  0
 27 26  1  1
 27 28  1  0
 27 33  1  0
 28 29  1  0
 30 29  1  6
 30 31  2  0
 30 32  2  0
 30 33  1  0
 33 34  1  1
 33 35  1  0
M  CHG  1  26   1
M  END
