
     RDKit          3D

 36 39  0  0  0  0  0  0  0  0999 V2000
   -2.2240    3.4320   -1.5260 C   0  0  0  0  0  0  0  0  0  0  0  0
   -3.4820    2.7130   -1.1590 C   0  0  0  0  0  0  0  0  0  0  0  0
   -3.6770    2.4710    0.2310 N   0  0  0  0  0  0  0  0  0  0  0  0
   -3.9080    3.6790    0.9820 C   0  0  0  0  0  0  0  0  0  0  0  0
   -2.7650    1.5630    0.8520 C   0  0  0  0  0  0  0  0  0  0  0  0
   -3.0000    0.1820    0.3240 C   0  0  2  0  0  0  0  0  0  0  0  0
   -4.3940   -0.2730    0.6000 C   0  0  0  0  0  0  0  0  0  0  0  0
   -4.6290   -0.5120    1.9910 N   0  0  0  0  0  0  0  0  0  0  0  0
   -5.9180   -0.2800    2.5850 C   0  0  0  0  0  0  0  0  0  0  0  0
   -6.9900    0.2240    1.6790 C   0  0  0  0  0  0  0  0  0  0  0  0
   -6.1470   -0.4850    3.7950 O   0  0  0  0  0  0  0  0  0  0  0  0
   -3.6060   -0.9920    2.8820 C   0  0  0  0  0  0  0  0  0  0  0  0
   -2.3790   -1.5130    2.2000 C   0  0  0  0  0  0  0  0  0  0  0  0
   -2.0850   -0.8420    0.9410 C   0  0  0  0  0  0  0  0  0  0  0  0
   -0.9800   -1.0790    0.2380 C   0  0  0  0  0  0  0  0  0  0  0  0
   -0.0060   -2.0410    0.7050 C   0  0  0  0  0  0  0  0  0  0  0  0
   -0.2060   -2.6550    1.7670 O   0  0  0  0  0  0  0  0  0  0  0  0
    1.1670   -2.2770   -0.0490 N   0  0  0  0  0  0  0  0  0  0  0  0
    2.2030   -3.1870    0.2670 C   0  0  0  0  0  0  0  0  0  0  0  0
    1.8900   -4.3260    1.0310 C   0  0  0  0  0  0  0  0  0  0  0  0
    2.8040   -5.3410    1.1960 C   0  0  0  0  0  0  0  0  0  0  0  0
    4.0380   -5.2480    0.6110 C   0  0  0  0  0  0  0  0  0  0  0  0
    4.3420   -4.1280   -0.1350 C   0  0  0  0  0  0  0  0  0  0  0  0
    3.4340   -3.0730   -0.3200 C   0  0  0  0  0  0  0  0  0  0  0  0
    3.8980   -1.8470   -0.9530 C   0  0  0  0  0  0  0  0  0  0  0  0
    3.4070   -0.6670   -0.7200 C   0  0  0  0  0  0  0  0  0  0  0  0
    3.8240    0.5970   -1.3460 C   0  0  0  0  0  0  0  0  0  0  0  0
    4.7730    0.6590   -2.2500 C   0  0  0  0  0  0  0  0  0  0  0  0
    5.1290    2.0240   -2.8250 C   0  0  0  0  0  0  0  0  0  0  0  0
    5.1910    2.8660   -1.6320 N   0  0  0  0  0  0  0  0  0  0  0  0
    3.8410    3.0920   -1.1870 C   0  0  0  0  0  0  0  0  0  0  0  0
    3.1150    1.8280   -0.9210 C   0  0  0  0  0  0  0  0  0  0  0  0
    5.4730   -0.4350   -2.7830 N   0  0  0  0  0  0  0  0  0  0  0  0
    5.2900   -1.9720   -2.0520 S   0  0  2  0  0  0  0  0  0  0  0  0
    5.0150   -3.0470   -3.0610 O   0  0  0  0  0  0  0  0  0  0  0  0
    6.5370   -2.3320   -1.2670 O   0  0  0  0  0  0  0  0  0  0  0  0
  1  2  1  0
  2  3  1  0
  3  4  1  0
  3  5  1  0
  6  5  1  1
  6  7  1  0
  6 14  1  0
  7  8  1  0
  8  9  1  0
  8 12  1  0
  9 10  1  0
  9 11  2  0
 12 13  1  0
 13 14  1  0
 14 15  2  3
 15 16  1  0
 16 17  2  0
 16 18  1  0
 18 19  1  0
 19 20  2  0
 19 24  1  0
 20 21  1  0
 21 22  2  0
 22 23  1  0
 23 24  2  0
 24 25  1  0
 25 26  2  0
 25 34  1  0
 26 27  1  0
 27 28  2  0
 27 32  1  0
 28 29  1  0
 28 33  1  0
 29 30  1  0
 30 31  1  0
 31 32  1  0
 34 33  1  6
 34 35  2  0
 34 36  2  0
M  CHG  1  30   1
M  END
