
     RDKit          3D

 36 39  0  0  0  0  0  0  0  0999 V2000
   -4.9100    4.9180   -0.9600 C   0  0  0  0  0  0  0  0  0  0  0  0
   -4.5280    3.4680   -1.0420 C   0  0  0  0  0  0  0  0  0  0  0  0
   -3.8670    3.0290    0.2580 C   0  0  0  0  0  0  0  0  0  0  0  0
   -3.4800    1.6050    0.2080 C   0  0  0  0  0  0  0  0  0  0  0  0
   -1.7910    1.0090   -0.0260 S   0  0  0  0  0  0  0  0  0  0  0  0
   -2.2410   -0.7260    0.0420 C   0  0  0  0  0  0  0  0  0  0  0  0
   -1.3470   -1.8050   -0.0800 N   0  0  0  0  0  0  0  0  0  0  0  0
    0.0320   -1.5570   -0.2820 C   0  0  0  0  0  0  0  0  0  0  0  0
    0.4670   -0.3770   -0.3550 O   0  0  0  0  0  0  0  0  0  0  0  0
    1.0270   -2.6640   -0.4180 C   0  0  0  0  0  0  0  0  0  0  0  0
    2.3580   -2.1600   -0.6200 N   0  0  0  0  0  0  0  0  0  0  0  0
    3.0300   -1.3210    0.3000 C   0  0  0  0  0  0  0  0  0  0  0  0
    2.4680   -0.9740    1.3600 O   0  0  0  0  0  0  0  0  0  0  0  0
    4.3970   -0.8460    0.0170 C   0  0  0  0  0  0  0  0  0  0  0  0
    4.9360    0.0470    1.1100 C   0  0  0  0  0  0  0  0  0  0  0  0
    6.3050    0.4410    0.6940 C   0  0  0  0  0  0  0  0  0  0  0  0
    7.3570   -0.3680    1.0920 C   0  0  0  0  0  0  0  0  0  0  0  0
    8.6690   -0.0530    0.7300 C   0  0  0  0  0  0  0  0  0  0  0  0
    8.9180    1.0680   -0.0260 C   0  0  0  0  0  0  0  0  0  0  0  0
   10.2010    1.4220   -0.4110 C   0  0  0  0  0  0  0  0  0  0  0  0
   11.1550    0.7110   -0.0640 O   0  0  0  0  0  0  0  0  0  0  0  0
   10.4320    2.5250   -1.1540 N   0  0  0  0  0  0  0  0  0  0  0  0
    9.4090    3.3100   -1.5390 C   0  0  0  0  0  0  0  0  0  0  0  0
    9.6580    4.3450   -2.2400 O   0  0  0  0  0  0  0  0  0  0  0  0
    8.1660    2.9800   -1.1750 N   0  0  0  0  0  0  0  0  0  0  0  0
    7.8720    1.8960   -0.4370 C   0  0  0  0  0  0  0  0  0  0  0  0
    6.6020    1.5470   -0.0580 C   0  0  0  0  0  0  0  0  0  0  0  0
   -3.6080   -0.7250    0.2330 C   0  0  0  0  0  0  0  0  0  0  0  0
   -4.2190    0.4730    0.3150 C   0  0  0  0  0  0  0  0  0  0  0  0
   -5.7320    0.6520    0.5280 C   0  0  0  0  0  0  0  0  0  0  0  0
   -6.2060   -0.4180    1.5200 C   0  0  0  0  0  0  0  0  0  0  0  0
   -6.6000   -1.6730    0.7750 C   0  0  0  0  0  0  0  0  0  0  0  0
   -5.6170   -2.0710   -0.1970 N   0  0  2  0  0  0  0  0  0  0  0  0
   -5.8850   -3.3500   -0.7950 C   0  0  0  0  0  0  0  0  0  0  0  0
   -6.4270   -4.3710    0.1570 C   0  0  0  0  0  0  0  0  0  0  0  0
   -4.2730   -2.0940    0.3270 C   0  0  0  0  0  0  0  0  0  0  0  0
  1  2  1  0
  2  3  1  0
  3  4  1  0
  4  5  1  0
  4 29  2  0
  5  6  1  0
  6  7  1  0
  6 28  2  0
  7  8  1  0
  8  9  2  0
  8 10  1  0
 10 11  1  0
 11 12  1  0
 12 13  2  0
 12 14  1  0
 14 15  1  0
 15 16  1  0
 16 17  2  0
 16 27  1  0
 17 18  1  0
 18 19  2  0
 19 20  1  0
 19 26  1  0
 20 21  2  0
 20 22  1  0
 22 23  1  0
 23 24  2  0
 23 25  1  0
 25 26  1  0
 26 27  2  0
 28 29  1  0
 28 36  1  0
 29 30  1  0
 30 31  1  0
 31 32  1  0
 32 33  1  0
 33 34  1  1
 33 36  1  0
 34 35  1  0
M  CHG  1  33   1
M  END
