
     RDKit          3D

 36 39  0  0  0  0  0  0  0  0999 V2000
   -7.0590    0.8680    0.5680 C   0  0  0  0  0  0  0  0  0  0  0  0
   -6.1630    1.6460   -0.3380 C   0  0  0  0  0  0  0  0  0  0  0  0
   -4.8090    1.0390   -0.5050 C   0  0  0  0  0  0  0  0  0  0  0  0
   -3.7070    1.5650    0.1680 C   0  0  0  0  0  0  0  0  0  0  0  0
   -2.4380    1.0430    0.0520 C   0  0  0  0  0  0  0  0  0  0  0  0
   -1.3410    1.6650    0.8050 C   0  0  0  0  0  0  0  0  0  0  0  0
   -1.1630    1.0480    2.1770 C   0  0  2  0  0  0  0  0  0  0  0  0
   -0.8730   -0.3450    1.9900 N   0  0  0  0  0  0  0  0  0  0  0  0
    0.3390   -0.9260    2.4820 C   0  0  0  0  0  0  0  0  0  0  0  0
    1.1330   -0.1780    3.0830 O   0  0  0  0  0  0  0  0  0  0  0  0
    0.5280   -2.3100    2.2390 N   0  0  0  0  0  0  0  0  0  0  0  0
    1.7290   -2.9390    2.6940 C   0  0  0  0  0  0  0  0  0  0  0  0
    2.9510   -2.3920    2.0540 C   0  0  0  0  0  0  0  0  0  0  0  0
    4.0810   -2.8550    2.4190 O   0  0  0  0  0  0  0  0  0  0  0  0
    2.9660   -1.4010    1.0690 N   0  0  0  0  0  0  0  0  0  0  0  0
    4.1800   -0.8920    0.4700 C   0  0  0  0  0  0  0  0  0  0  0  0
    4.5620   -0.1100   -0.3360 N   0  0  0  0  0  0  0  0  0  0  0  0
    5.7580    0.1850   -0.7230 C   0  0  0  0  0  0  0  0  0  0  0  0
    6.7980   -0.5190   -0.1080 C   0  0  0  0  0  0  0  0  0  0  0  0
    5.8170   -1.5930    1.0330 S   0  0  0  0  0  0  0  0  0  0  0  0
    8.2020   -0.3840   -0.3570 C   0  0  0  0  0  0  0  0  0  0  0  0
    8.5080    0.3630   -1.6410 C   0  0  0  0  0  0  0  0  0  0  0  0
    7.3240    0.4340   -2.4750 N   0  0  2  0  0  0  0  0  0  0  0  0
    7.6330    1.0070   -3.7480 C   0  0  0  0  0  0  0  0  0  0  0  0
    6.3150    1.1750   -1.7490 C   0  0  0  0  0  0  0  0  0  0  0  0
   -2.3690    1.2700    3.0130 C   0  0  0  0  0  0  0  0  0  0  0  0
   -3.0230    0.2980    3.4730 O   0  0  0  0  0  0  0  0  0  0  0  0
   -2.8240    2.5430    3.3230 O   0  0  0  0  0  0  0  0  0  0  0  0
   -3.9810    2.7660    4.1260 C   0  0  0  0  0  0  0  0  0  0  0  0
   -2.2410   -0.0480   -0.7620 C   0  0  0  0  0  0  0  0  0  0  0  0
   -3.3150   -0.5840   -1.4370 C   0  0  0  0  0  0  0  0  0  0  0  0
   -4.5810   -0.0530   -1.3130 C   0  0  0  0  0  0  0  0  0  0  0  0
   -5.7600   -0.6100   -2.0320 C   0  0  0  0  0  0  0  0  0  0  0  0
   -5.4500   -1.8920   -2.7540 C   0  0  0  0  0  0  0  0  0  0  0  0
   -4.1140   -1.7430   -3.4310 C   0  0  0  0  0  0  0  0  0  0  0  0
   -3.0630   -1.7780   -2.3230 C   0  0  0  0  0  0  0  0  0  0  0  0
  1  2  1  0
  2  3  1  0
  3  4  2  0
  3 32  1  0
  4  5  1  0
  5  6  1  0
  5 30  2  0
  7  6  1  6
  7  8  1  0
  7 26  1  0
  8  9  1  0
  9 10  2  0
  9 11  1  0
 11 12  1  0
 12 13  1  0
 13 14  2  0
 13 15  1  0
 15 16  1  0
 16 17  2  0
 16 20  1  0
 17 18  1  0
 18 19  2  0
 18 25  1  0
 19 20  1  0
 19 21  1  0
 21 22  1  0
 22 23  1  0
 23 24  1  6
 23 25  1  0
 26 27  2  0
 26 28  1  0
 28 29  1  0
 30 31  1  0
 31 32  2  0
 31 36  1  0
 32 33  1  0
 33 34  1  0
 34 35  1  0
 35 36  1  0
M  CHG  1  23   1
M  END
