
     RDKit          3D

 36 39  0  0  0  0  0  0  0  0999 V2000
   -5.8810    0.6260    2.1420 C   0  0  0  0  0  0  0  0  0  0  0  0
   -4.7000    1.4760    1.8370 C   0  0  0  0  0  0  0  0  0  0  0  0
   -4.8420    2.8340    1.7230 C   0  0  0  0  0  0  0  0  0  0  0  0
   -3.7600    3.6360    1.4410 C   0  0  0  0  0  0  0  0  0  0  0  0
   -2.5320    3.0440    1.2760 C   0  0  0  0  0  0  0  0  0  0  0  0
   -2.4030    1.6640    1.3950 C   0  0  0  0  0  0  0  0  0  0  0  0
   -3.4700    0.8410    1.6750 C   0  0  0  0  0  0  0  0  0  0  0  0
   -3.4200   -0.6210    1.8440 C   0  0  0  0  0  0  0  0  0  0  0  0
   -1.8530   -1.4040    1.5700 S   0  0  0  0  0  0  0  0  0  0  0  0
   -1.3150   -1.4720   -0.1170 C   0  0  0  0  0  0  0  0  0  0  0  0
   -0.5720   -0.4760   -0.6170 N   0  0  0  0  0  0  0  0  0  0  0  0
   -0.1150   -0.4360   -1.8810 C   0  0  0  0  0  0  0  0  0  0  0  0
   -0.4330   -1.4940   -2.7230 C   0  0  0  0  0  0  0  0  0  0  0  0
   -0.0040   -1.5270   -4.0290 C   0  0  0  0  0  0  0  0  0  0  0  0
   -0.3490   -2.6570   -4.9150 C   0  0  0  0  0  0  0  0  0  0  0  0
    0.7550   -0.4560   -4.4530 C   0  0  0  0  0  0  0  0  0  0  0  0
    1.0640    0.5920   -3.5980 C   0  0  0  0  0  0  0  0  0  0  0  0
    1.7560    1.5450   -4.0220 O   0  0  0  0  0  0  0  0  0  0  0  0
    0.6360    0.5970   -2.3430 N   0  0  0  0  0  0  0  0  0  0  0  0
    0.9240    1.6630   -1.4030 C   0  0  0  0  0  0  0  0  0  0  0  0
    2.1920    1.3950   -0.6550 C   0  0  0  0  0  0  0  0  0  0  0  0
    2.8070    0.3440   -0.9260 O   0  0  0  0  0  0  0  0  0  0  0  0
    2.6920    2.2750    0.3170 N   0  0  0  0  0  0  0  0  0  0  0  0
    3.8660    2.1190    1.0700 C   0  0  0  0  0  0  0  0  0  0  0  0
    4.1300    3.0670    2.0600 C   0  0  0  0  0  0  0  0  0  0  0  0
    5.2550    3.0160    2.8540 C   0  0  0  0  0  0  0  0  0  0  0  0
    6.1710    1.9970    2.6830 C   0  0  0  0  0  0  0  0  0  0  0  0
    5.9520    1.0420    1.7210 C   0  0  0  0  0  0  0  0  0  0  0  0
    6.8920   -0.0300    1.5220 N   0  0  0  0  0  0  0  0  0  0  0  0
    4.8080    1.1340    0.9460 C   0  0  0  0  0  0  0  0  0  0  0  0
   -1.1970   -2.4930   -2.1700 C   0  0  0  0  0  0  0  0  0  0  0  0
   -1.5000   -3.4620   -2.9080 O   0  0  0  0  0  0  0  0  0  0  0  0
   -1.6500   -2.5350   -0.9220 N   0  0  0  0  0  0  0  0  0  0  0  0
   -2.4350   -3.5520   -0.3370 C   0  0  0  0  0  0  0  0  0  0  0  0
   -1.6900   -4.6690    0.3180 C   0  0  0  0  0  0  0  0  0  0  0  0
   -0.8690   -4.2440    1.3600 O   0  0  0  0  0  0  0  0  0  0  0  0
  1  2  1  0
  2  3  2  0
  2  7  1  0
  3  4  1  0
  4  5  2  0
  5  6  1  0
  6  7  2  0
  7  8  1  0
  8  9  1  0
  9 10  1  0
 10 11  2  0
 10 33  1  0
 11 12  1  0
 12 13  2  0
 12 19  1  0
 13 14  1  0
 13 31  1  0
 14 15  1  0
 14 16  2  0
 16 17  1  0
 17 18  2  0
 17 19  1  0
 19 20  1  0
 20 21  1  0
 21 22  2  0
 21 23  1  0
 23 24  1  0
 24 25  2  0
 24 30  1  0
 25 26  1  0
 26 27  2  0
 27 28  1  0
 28 29  1  0
 28 30  2  0
 31 32  2  0
 31 33  1  0
 33 34  1  0
 34 35  1  0
 35 36  1  0
M  CHG  1  29   1
M  END
