
     RDKit          3D

 35 37  0  0  0  0  0  0  0  0999 V2000
   -1.9310    0.3190   -5.3210 C   0  0  0  0  0  0  0  0  0  0  0  0
   -1.0920    0.7040   -4.2460 O   0  0  0  0  0  0  0  0  0  0  0  0
   -1.5720    0.7580   -2.9290 C   0  0  0  0  0  0  0  0  0  0  0  0
   -2.7970    0.7230   -2.6620 N   0  0  0  0  0  0  0  0  0  0  0  0
   -3.4600    0.7670   -1.3850 C   0  0  0  0  0  0  0  0  0  0  0  0
   -4.4130    1.6570   -1.1100 N   0  0  0  0  0  0  0  0  0  0  0  0
   -4.8050    1.5810    0.2290 C   0  0  0  0  0  0  0  0  0  0  0  0
   -5.6450    1.8200    1.1410 N   0  0  0  0  0  0  0  0  0  0  0  0
   -5.1830    1.3280    2.3710 O   0  0  0  0  0  0  0  0  0  0  0  0
   -4.3590    0.1950    1.9790 C   0  0  1  0  0  0  0  0  0  0  0  0
   -5.2650   -0.7730    1.4950 O   0  0  0  0  0  0  0  0  0  0  0  0
   -5.3770   -2.0620    1.9700 C   0  0  0  0  0  0  0  0  0  0  0  0
   -4.6070   -2.4200    2.9210 O   0  0  0  0  0  0  0  0  0  0  0  0
   -6.3010   -2.9510    1.4330 O   0  0  0  0  0  0  0  0  0  0  0  0
   -3.6280    0.8690    0.8570 C   0  0  2  0  0  0  0  0  0  0  0  0
   -2.5340    1.7680    1.2710 C   0  0  0  0  0  0  0  0  0  0  0  0
   -1.7860    1.3010    2.3710 O   0  0  0  0  0  0  0  0  0  0  0  0
   -0.8170    0.3550    2.4130 C   0  0  0  0  0  0  0  0  0  0  0  0
   -0.9380   -0.6470    3.1810 O   0  0  0  0  0  0  0  0  0  0  0  0
    0.3400    0.3930    1.6540 O   0  0  0  0  0  0  0  0  0  0  0  0
    1.0400    1.5930    1.4230 C   0  0  0  0  0  0  0  0  0  0  0  0
    1.9810    1.4820    0.2510 C   0  0  0  0  0  0  0  0  0  0  0  0
    2.2000    0.0910   -0.2160 C   0  0  2  0  0  0  0  0  0  0  0  0
    3.7060   -0.2030   -0.1220 C   0  0  0  0  0  0  0  0  0  0  0  0
    3.9680   -1.5020   -0.5520 O   0  0  0  0  0  0  0  0  0  0  0  0
    5.3200   -1.7760   -0.4740 C   0  0  0  0  0  0  0  0  0  0  0  0
    5.9040   -1.6660    0.8980 C   0  0  0  0  0  0  0  0  0  0  0  0
    5.3120   -2.5370    1.8090 O   0  0  0  0  0  0  0  0  0  0  0  0
    5.8130   -2.4490    2.9990 O   0  0  0  0  0  0  0  0  0  0  0  0
    7.0350   -1.9460    2.9530 O   0  0  0  0  0  0  0  0  0  0  0  0
    1.7650   -0.1740   -1.6120 C   0  0  0  0  0  0  0  0  0  0  0  0
    2.3820   -1.1320   -2.2000 O   0  0  0  0  0  0  0  0  0  0  0  0
    0.7740    0.5010   -2.3250 N   0  0  0  0  0  0  0  0  0  0  0  0
   -0.5510    0.8610   -1.8620 C   0  0  0  0  0  0  0  0  0  0  0  0
   -3.2830   -0.0220   -0.2680 N   0  0  0  0  0  0  0  0  0  0  0  0
  1  2  1  0
  2  3  1  0
  3  4  2  0
  3 34  1  0
  4  5  1  0
  5  6  2  0
  5 35  1  0
  6  7  1  0
  7  8  2  0
  7 15  1  0
  8  9  1  0
  9 10  1  0
 10 11  1  6
 10 15  1  0
 11 12  1  0
 12 13  2  0
 12 14  1  0
 15 16  1  1
 15 35  1  0
 16 17  1  0
 17 18  1  0
 18 19  2  0
 18 20  1  0
 20 21  1  0
 21 22  1  0
 22 23  1  0
 23 24  1  6
 23 31  1  0
 24 25  1  0
 25 26  1  0
 26 27  1  0
 27 28  1  0
 28 29  1  0
 29 30  1  0
 31 32  2  0
 31 33  1  0
 33 34  1  0
M  END
