
     RDKit          3D

 36 38  0  0  0  0  0  0  0  0999 V2000
    0.7220    0.7820   -3.5430 O   0  0  0  0  0  0  0  0  0  0  0  0
    1.3710   -0.2800   -3.7220 C   0  0  0  0  0  0  0  0  0  0  0  0
    1.4580   -1.1620   -2.6610 O   0  0  0  0  0  0  0  0  0  0  0  0
    0.7330   -0.9000   -1.1090 P   0  0  0  0  0  0  0  0  0  0  0  0
    1.3320    0.4690   -0.2780 O   0  0  0  0  0  0  0  0  0  0  0  0
    2.7060    0.2180   -0.0520 C   0  0  1  0  0  0  0  0  0  0  0  0
    2.7960   -1.1380    0.2590 O   0  0  0  0  0  0  0  0  0  0  0  0
    4.0510   -1.4670    0.4880 O   0  0  0  0  0  0  0  0  0  0  0  0
    4.8980   -1.8180   -0.5360 C   0  0  0  0  0  0  0  0  0  0  0  0
    4.4730   -1.8250   -1.7110 O   0  0  0  0  0  0  0  0  0  0  0  0
    6.2350   -2.1680   -0.2820 O   0  0  0  0  0  0  0  0  0  0  0  0
    3.4380    0.5410   -1.1880 O   0  0  0  0  0  0  0  0  0  0  0  0
    3.9980    1.7070   -0.9550 O   0  0  0  0  0  0  0  0  0  0  0  0
    4.3400    1.7300    0.2950 O   0  0  0  0  0  0  0  0  0  0  0  0
    3.2830    1.1090    0.9880 C   0  0  1  0  0  0  0  0  0  0  0  0
    2.4320    2.1310    1.3900 O   0  0  0  0  0  0  0  0  0  0  0  0
    1.3420    1.5290    2.6040 P   0  0  0  0  0  0  0  0  0  0  0  0
    1.4980   -0.1810    2.7840 O   0  0  0  0  0  0  0  0  0  0  0  0
   -0.2490    2.0090    2.1700 O   0  0  0  0  0  0  0  0  0  0  0  0
   -1.1740    1.3320    2.7800 O   0  0  0  0  0  0  0  0  0  0  0  0
   -1.6020    0.3910    1.9870 O   0  0  0  0  0  0  0  0  0  0  0  0
   -1.7280    0.8970    0.6850 C   0  0  2  0  0  0  0  0  0  0  0  0
   -2.8870    2.3700    0.8140 P   0  0  0  0  0  0  0  0  0  0  0  0
   -3.2820    2.9890    2.1640 O   0  0  0  0  0  0  0  0  0  0  0  0
   -2.4020   -0.1320   -0.1440 C   0  0  1  0  0  0  0  0  0  0  0  0
   -3.6220   -1.0410    0.9580 P   0  0  0  0  0  0  0  0  0  0  0  0
   -2.8140   -2.2270    1.9060 O   0  0  0  0  0  0  0  0  0  0  0  0
   -4.5040    0.0740    1.9410 O   0  0  0  0  0  0  0  0  0  0  0  0
   -4.4120   -0.1890    3.2070 O   0  0  0  0  0  0  0  0  0  0  0  0
   -3.3450    0.7450   -1.5000 P   0  0  0  0  0  0  0  0  0  0  0  0
   -5.0170    0.8480   -1.0500 O   0  0  0  0  0  0  0  0  0  0  0  0
   -5.7340   -0.0240   -1.7210 O   0  0  0  0  0  0  0  0  0  0  0  0
   -3.2550   -0.1730   -2.9810 O   0  0  0  0  0  0  0  0  0  0  0  0
   -2.0740   -0.7080   -3.1540 O   0  0  0  0  0  0  0  0  0  0  0  0
   -2.0020   -1.8310   -2.4540 O   0  0  0  0  0  0  0  0  0  0  0  0
   -1.3110   -1.3710   -0.9060 P   0  0  0  0  0  0  0  0  0  0  0  0
  1  2  2  0
  2  3  1  0
  3  4  1  0
  4  5  1  0
  4 36  1  0
  5  6  1  0
  6  7  1  1
  6 12  1  0
  6 15  1  0
  7  8  1  0
  8  9  1  0
  9 10  2  0
  9 11  1  0
 12 13  1  0
 13 14  1  0
 15 14  1  6
 15 16  1  0
 16 17  1  0
 17 18  1  0
 17 19  1  0
 19 20  1  0
 20 21  1  0
 21 22  1  0
 22 23  1  1
 22 25  1  0
 23 24  2  0
 25 26  1  1
 25 30  1  0
 25 36  1  0
 26 27  1  0
 26 28  1  0
 28 29  1  0
 30 31  1  0
 30 33  1  0
 31 32  1  0
 33 34  1  0
 34 35  1  0
 35 36  1  0
M  END
