
     RDKit          3D

 36 39  0  0  0  0  0  0  0  0999 V2000
    9.1270    2.3630    0.1240 N   0  0  0  0  0  0  0  0  0  0  0  0
    7.7160    2.1720    0.0580 C   0  0  0  0  0  0  0  0  0  0  0  0
    6.7920    3.0990   -0.1720 N   0  0  0  0  0  0  0  0  0  0  0  0
    5.4890    2.8000   -0.2620 C   0  0  0  0  0  0  0  0  0  0  0  0
    5.0310    1.5470   -0.1290 N   0  0  0  0  0  0  0  0  0  0  0  0
    5.9010    0.5700    0.0970 C   0  0  0  0  0  0  0  0  0  0  0  0
    7.2380    0.8460    0.2010 C   0  0  0  0  0  0  0  0  0  0  0  0
    7.8660   -0.2960    0.4140 N   0  0  0  0  0  0  0  0  0  0  0  0
    6.9730   -1.2800    0.4470 C   0  0  0  0  0  0  0  0  0  0  0  0
    5.7230   -0.7730    0.2470 N   0  0  0  0  0  0  0  0  0  0  0  0
    4.5400   -1.4920    0.0290 C   0  0  2  0  0  0  0  0  0  0  0  0
    3.5290   -0.5450   -0.4370 O   0  0  0  0  0  0  0  0  0  0  0  0
    2.6370   -1.5240   -0.9820 C   0  0  2  0  0  0  0  0  0  0  0  0
    1.3450   -0.7330   -1.2580 C   0  0  0  0  0  0  0  0  0  0  0  0
    0.9060   -0.3980   -0.0260 O   0  0  0  0  0  0  0  0  0  0  0  0
   -0.4370    0.4310    0.2430 P   0  0  0  0  0  0  0  0  0  0  0  0
   -0.7890    0.8860    1.8610 O   0  0  0  0  0  0  0  0  0  0  0  0
   -1.2830   -0.8130    0.4480 O   0  0  0  0  0  0  0  0  0  0  0  0
   -1.3060    1.0720   -0.9260 O   0  0  0  0  0  0  0  0  0  0  0  0
   -2.8660    1.2370   -0.6830 P   0  0  0  0  0  0  0  0  0  0  0  0
   -2.6750    2.7760   -0.7240 O   0  0  0  0  0  0  0  0  0  0  0  0
   -3.0460   -0.2620   -0.9280 O   0  0  0  0  0  0  0  0  0  0  0  0
   -3.7230    1.2660    0.7100 O   0  0  0  0  0  0  0  0  0  0  0  0
   -4.4650    0.0950    0.8800 C   0  0  0  0  0  0  0  0  0  0  0  0
   -5.9260    0.5600    1.1450 C   0  0  1  0  0  0  0  0  0  0  0  0
   -6.0450    1.6270    0.1930 O   0  0  0  0  0  0  0  0  0  0  0  0
   -7.1150    1.4590   -0.5780 C   0  0  1  0  0  0  0  0  0  0  0  0
   -6.8570    1.9760   -1.8660 O   0  0  0  0  0  0  0  0  0  0  0  0
   -7.3170   -0.0410   -0.7480 C   0  0  2  0  0  0  0  0  0  0  0  0
   -8.6540   -0.3490   -0.8450 O   0  0  0  0  0  0  0  0  0  0  0  0
   -6.7590   -0.5590    0.5330 C   0  0  2  0  0  0  0  0  0  0  0  0
   -7.6490   -1.1460    1.3890 O   0  0  0  0  0  0  0  0  0  0  0  0
    2.4390   -2.3350    0.3180 C   0  0  1  0  0  0  0  0  0  0  0  0
    1.9380   -3.5740    0.1200 O   0  0  0  0  0  0  0  0  0  0  0  0
    3.8240   -2.2990    1.0140 C   0  0  1  0  0  0  0  0  0  0  0  0
    4.1880   -3.6600    1.0070 O   0  0  0  0  0  0  0  0  0  0  0  0
  1  2  1  0
  2  3  2  0
  2  7  1  0
  3  4  1  0
  4  5  2  0
  5  6  1  0
  6  7  2  0
  6 10  1  0
  7  8  1  0
  8  9  2  0
  9 10  1  0
 11 10  1  1
 11 12  1  0
 11 35  1  0
 12 13  1  0
 13 14  1  1
 13 33  1  0
 14 15  1  0
 15 16  1  0
 16 17  1  0
 16 18  1  0
 16 19  1  0
 19 20  1  0
 20 21  1  0
 20 22  1  0
 20 23  1  0
 23 24  1  0
 25 24  1  6
 25 26  1  0
 25 31  1  0
 26 27  1  0
 27 28  1  6
 27 29  1  0
 29 30  1  1
 29 31  1  0
 31 32  1  1
 33 34  1  6
 33 35  1  0
 35 36  1  6
M  END
