
     RDKit          3D

 35 36  0  0  0  0  0  0  0  0999 V2000
   -6.6670   -0.7670   -1.3070 O   0  0  0  0  0  0  0  0  0  0  0  0
   -5.1360   -0.8370   -1.2570 P   0  0  0  0  0  0  0  0  0  0  0  0
   -4.2470   -1.4680    0.2300 C   0  0  2  0  0  0  0  0  0  0  0  0
   -4.6080   -0.7720    1.4920 C   0  0  0  0  0  0  0  0  0  0  0  0
   -5.1960    0.4480    1.3530 O   0  0  0  0  0  0  0  0  0  0  0  0
   -4.9500    1.0810    0.2550 O   0  0  0  0  0  0  0  0  0  0  0  0
   -5.8780    1.9780    0.0660 O   0  0  0  0  0  0  0  0  0  0  0  0
   -5.4970    3.0310   -0.5760 O   0  0  0  0  0  0  0  0  0  0  0  0
   -3.8140    3.0510   -0.9610 P   0  0  0  0  0  0  0  0  0  0  0  0
   -3.6790    2.9600   -2.7050 O   0  0  0  0  0  0  0  0  0  0  0  0
   -2.9560    1.7300   -0.3020 O   0  0  0  0  0  0  0  0  0  0  0  0
   -2.2770    2.0010    0.8580 C   0  0  0  0  0  0  0  0  0  0  0  0
   -1.5620    0.8850    1.2390 O   0  0  0  0  0  0  0  0  0  0  0  0
   -1.2750    0.0330    0.1730 C   0  0  2  0  0  0  0  0  0  0  0  0
   -0.6000   -1.2040    0.6780 C   0  0  0  0  0  0  0  0  0  0  0  0
   -0.4440   -2.0770   -0.4090 O   0  0  0  0  0  0  0  0  0  0  0  0
    0.7060   -1.9630   -0.9950 O   0  0  0  0  0  0  0  0  0  0  0  0
    1.9290   -2.6370    0.0020 P   0  0  0  0  0  0  0  0  0  0  0  0
    2.2980   -4.2810   -0.3970 O   0  0  0  0  0  0  0  0  0  0  0  0
    3.3430   -1.6430    0.0680 O   0  0  0  0  0  0  0  0  0  0  0  0
    3.6530   -0.8650   -1.4290 P   0  0  0  0  0  0  0  0  0  0  0  0
    5.2000   -0.1120   -1.4060 O   0  0  0  0  0  0  0  0  0  0  0  0
    6.4000   -1.0760   -0.6260 P   0  0  0  0  0  0  0  0  0  0  0  0
    6.1380   -0.9730    1.0920 O   0  0  0  0  0  0  0  0  0  0  0  0
    7.9560   -0.3360   -0.9410 O   0  0  0  0  0  0  0  0  0  0  0  0
    8.6540   -0.2120    0.1710 O   0  0  0  0  0  0  0  0  0  0  0  0
    8.6420    1.0060    0.6430 O   0  0  0  0  0  0  0  0  0  0  0  0
    2.4710    0.3010   -1.8630 O   0  0  0  0  0  0  0  0  0  0  0  0
    2.7670    1.8510   -1.1040 P   0  0  0  0  0  0  0  0  0  0  0  0
    3.8100    1.5180    0.2680 O   0  0  0  0  0  0  0  0  0  0  0  0
    1.2260    2.3470   -0.4240 O   0  0  0  0  0  0  0  0  0  0  0  0
    0.6320    1.2180    0.1580 C   0  0  0  0  0  0  0  0  0  0  0  0
   -0.3810    0.7120   -0.6530 O   0  0  0  0  0  0  0  0  0  0  0  0
   -2.4270   -0.3640   -0.5100 O   0  0  0  0  0  0  0  0  0  0  0  0
   -2.8720   -1.4760    0.0170 O   0  0  0  0  0  0  0  0  0  0  0  0
  1  2  2  0
  3  2  1  6
  3  4  1  0
  3 35  1  0
  4  5  1  0
  5  6  1  0
  6  7  1  0
  7  8  1  0
  8  9  1  0
  9 10  1  0
  9 11  1  0
 11 12  1  0
 12 13  1  0
 13 14  1  0
 14 15  1  1
 14 33  1  0
 14 34  1  0
 15 16  1  0
 16 17  1  0
 17 18  1  0
 18 19  1  0
 18 20  1  0
 20 21  1  0
 21 22  1  0
 21 28  1  0
 22 23  1  0
 23 24  1  0
 23 25  1  0
 25 26  1  0
 26 27  1  0
 28 29  1  0
 29 30  1  0
 29 31  1  0
 31 32  1  0
 32 33  1  0
 34 35  1  0
M  END
