
     RDKit          3D

 35 36  0  0  0  0  0  0  0  0999 V2000
    1.2080   -0.7020    2.8980 O   0  0  0  0  0  0  0  0  0  0  0  0
    1.3400   -2.0030    2.0530 P   0  0  0  0  0  0  0  0  0  0  0  0
    0.4720   -2.2980    0.0960 P   0  0  0  0  0  0  0  0  0  0  0  0
    1.3260   -1.4300   -1.2700 C   0  0  0  0  0  0  0  0  0  0  0  0
    2.5140   -0.8420   -0.9300 O   0  0  0  0  0  0  0  0  0  0  0  0
    2.3530    0.5210    0.0770 P   0  0  0  0  0  0  0  0  0  0  0  0
    3.5400    0.6000    1.3240 O   0  0  0  0  0  0  0  0  0  0  0  0
    4.3680   -0.4020    1.3250 O   0  0  0  0  0  0  0  0  0  0  0  0
    5.0480   -0.5520    0.2320 O   0  0  0  0  0  0  0  0  0  0  0  0
    5.9360    0.4950   -0.0220 C   0  0  2  0  0  0  0  0  0  0  0  0
    5.5720    1.0490   -1.2400 O   0  0  0  0  0  0  0  0  0  0  0  0
    7.3010   -0.0540   -0.0420 C   0  0  0  0  0  0  0  0  0  0  0  0
    7.7860   -0.5900    0.9760 O   0  0  0  0  0  0  0  0  0  0  0  0
    8.0560    0.0240   -1.1950 O   0  0  0  0  0  0  0  0  0  0  0  0
    2.2660    2.0340   -0.7640 O   0  0  0  0  0  0  0  0  0  0  0  0
    1.5210    3.1240   -0.3760 C   0  0  0  0  0  0  0  0  0  0  0  0
    1.9270    4.2420   -0.7610 O   0  0  0  0  0  0  0  0  0  0  0  0
    0.3970    2.9580    0.3960 O   0  0  0  0  0  0  0  0  0  0  0  0
   -0.8220    1.7160    0.1330 P   0  0  0  0  0  0  0  0  0  0  0  0
   -2.1610    2.4350   -0.7360 O   0  0  0  0  0  0  0  0  0  0  0  0
   -3.3760    1.9790   -0.2940 C   0  0  0  0  0  0  0  0  0  0  0  0
   -3.8720    2.6820    0.8060 O   0  0  0  0  0  0  0  0  0  0  0  0
   -4.9100    2.0290    1.2840 O   0  0  0  0  0  0  0  0  0  0  0  0
   -5.7150    1.6710    0.3200 O   0  0  0  0  0  0  0  0  0  0  0  0
   -5.9620    0.3700    0.4340 O   0  0  0  0  0  0  0  0  0  0  0  0
   -6.6270   -0.0820   -0.6030 O   0  0  0  0  0  0  0  0  0  0  0  0
   -6.4380   -1.3500   -0.8240 O   0  0  0  0  0  0  0  0  0  0  0  0
   -5.1250   -1.6150   -1.2480 C   0  0  0  0  0  0  0  0  0  0  0  0
   -4.3080   -2.5580    0.1350 P   0  0  0  0  0  0  0  0  0  0  0  0
   -4.3410   -1.5210    1.5380 O   0  0  0  0  0  0  0  0  0  0  0  0
   -2.6920   -3.0190   -0.2730 O   0  0  0  0  0  0  0  0  0  0  0  0
   -1.6370   -1.7350    0.1430 P   0  0  0  0  0  0  0  0  0  0  0  0
   -2.0830   -0.9250    1.5970 O   0  0  0  0  0  0  0  0  0  0  0  0
   -1.1500   -0.0780    1.9020 O   0  0  0  0  0  0  0  0  0  0  0  0
   -1.4450    1.1680    1.6590 O   0  0  0  0  0  0  0  0  0  0  0  0
  1  2  2  0
  2  3  1  0
  3  4  1  0
  3 32  1  0
  4  5  1  0
  5  6  1  0
  6  7  1  0
  6 15  1  0
  7  8  1  0
  8  9  1  0
  9 10  1  0
 10 11  1  6
 10 12  1  0
 12 13  2  0
 12 14  1  0
 15 16  1  0
 16 17  2  0
 16 18  1  0
 18 19  1  0
 19 20  1  0
 19 35  1  0
 20 21  1  0
 21 22  1  0
 22 23  1  0
 23 24  1  0
 24 25  1  0
 25 26  1  0
 26 27  1  0
 27 28  1  0
 28 29  1  0
 29 30  1  0
 29 31  1  0
 31 32  1  0
 32 33  1  0
 33 34  1  0
 34 35  1  0
M  END
