
     RDKit          3D

 34 35  0  0  0  0  0  0  0  0999 V2000
   -4.4000    5.4150    0.6360 O   0  0  0  0  0  0  0  0  0  0  0  0
   -3.1900    5.0160    1.5120 P   0  0  0  0  0  0  0  0  0  0  0  0
   -1.9150    3.9850    0.9390 O   0  0  0  0  0  0  0  0  0  0  0  0
   -2.1980    3.6660   -0.3030 O   0  0  0  0  0  0  0  0  0  0  0  0
   -2.8110    2.4820   -0.2820 O   0  0  0  0  0  0  0  0  0  0  0  0
   -2.0160    1.6500   -1.1040 C   0  0  1  0  0  0  0  0  0  0  0  0
   -2.0290    2.2750   -2.3680 O   0  0  0  0  0  0  0  0  0  0  0  0
   -3.7200    2.3190   -2.8390 P   0  0  0  0  0  0  0  0  0  0  0  0
   -4.7420    3.0140   -1.8710 O   0  0  0  0  0  0  0  0  0  0  0  0
   -0.7700    1.6000   -0.5470 O   0  0  0  0  0  0  0  0  0  0  0  0
    0.5090    2.0040   -1.6100 P   0  0  0  0  0  0  0  0  0  0  0  0
    0.7300    0.6990   -2.7390 O   0  0  0  0  0  0  0  0  0  0  0  0
    1.9750    2.1330   -0.6880 O   0  0  0  0  0  0  0  0  0  0  0  0
    2.0360    1.1660    0.3240 C   0  0  0  0  0  0  0  0  0  0  0  0
    3.2910    0.3530    0.2180 C   0  0  1  0  0  0  0  0  0  0  0  0
    3.0810   -1.1160    0.4090 C   0  0  0  0  0  0  0  0  0  0  0  0
    1.7890   -1.4310    0.7920 O   0  0  0  0  0  0  0  0  0  0  0  0
    1.0740   -1.9440   -0.1600 O   0  0  0  0  0  0  0  0  0  0  0  0
   -0.2000   -2.2010    0.3400 C   0  0  2  0  0  0  0  0  0  0  0  0
   -0.2720   -3.9930    0.8860 P   0  0  0  0  0  0  0  0  0  0  0  0
    0.9440   -4.6410    1.5640 O   0  0  0  0  0  0  0  0  0  0  0  0
   -1.1840   -1.9830   -0.6300 O   0  0  0  0  0  0  0  0  0  0  0  0
   -2.2110   -0.7150   -0.0460 P   0  0  0  0  0  0  0  0  0  0  0  0
   -3.6020   -1.3470    0.7670 O   0  0  0  0  0  0  0  0  0  0  0  0
   -3.4620   -3.0650    0.9760 P   0  0  0  0  0  0  0  0  0  0  0  0
   -4.5410   -3.6190    2.2040 O   0  0  0  0  0  0  0  0  0  0  0  0
   -3.8500   -3.8370   -0.5150 O   0  0  0  0  0  0  0  0  0  0  0  0
   -2.6240    0.4140   -1.2700 O   0  0  0  0  0  0  0  0  0  0  0  0
    3.8980    0.6070   -1.0170 O   0  0  0  0  0  0  0  0  0  0  0  0
    4.9620   -0.1050   -1.2160 O   0  0  0  0  0  0  0  0  0  0  0  0
    5.8860    0.0360   -0.2590 O   0  0  0  0  0  0  0  0  0  0  0  0
    5.5320    0.3780    1.0420 C   0  0  0  0  0  0  0  0  0  0  0  0
    6.3360    0.2880    2.0040 O   0  0  0  0  0  0  0  0  0  0  0  0
    4.2130    0.8320    1.2100 O   0  0  0  0  0  0  0  0  0  0  0  0
  1  2  2  0
  2  3  1  0
  3  4  1  0
  4  5  1  0
  6  5  1  1
  6  7  1  0
  6 10  1  0
  6 28  1  0
  7  8  1  0
  8  9  2  0
 10 11  1  0
 11 12  1  0
 11 13  1  0
 13 14  1  0
 15 14  1  6
 15 16  1  0
 15 29  1  0
 15 34  1  0
 16 17  1  0
 17 18  1  0
 18 19  1  0
 19 20  1  6
 19 22  1  0
 20 21  2  0
 22 23  1  0
 23 24  1  0
 23 28  1  0
 24 25  1  0
 25 26  1  0
 25 27  1  0
 29 30  1  0
 30 31  1  0
 31 32  1  0
 32 33  2  0
 32 34  1  0
M  END
