
     RDKit          3D

 33 32  0  0  0  0  0  0  0  0999 V2000
   -5.2970    2.8150   -2.9400 O   0  0  0  0  0  0  0  0  0  0  0  0
   -5.7280    1.4560   -3.6010 P   0  0  0  0  0  0  0  0  0  0  0  0
   -6.7100    0.3060   -2.7180 O   0  0  0  0  0  0  0  0  0  0  0  0
   -5.6850   -0.5100   -1.5930 P   0  0  0  0  0  0  0  0  0  0  0  0
   -6.3960   -1.9650   -1.0150 O   0  0  0  0  0  0  0  0  0  0  0  0
   -5.3260    0.5050   -0.2450 O   0  0  0  0  0  0  0  0  0  0  0  0
   -4.7430   -0.4470    1.1070 P   0  0  0  0  0  0  0  0  0  0  0  0
   -5.9010   -1.6980    1.3860 O   0  0  0  0  0  0  0  0  0  0  0  0
   -7.3320   -0.9600    2.0610 P   0  0  0  0  0  0  0  0  0  0  0  0
   -6.8400    0.4510    2.9370 O   0  0  0  0  0  0  0  0  0  0  0  0
   -8.4480   -0.5040    0.8130 O   0  0  0  0  0  0  0  0  0  0  0  0
   -8.8550    1.1550    0.9820 P   0  0  0  0  0  0  0  0  0  0  0  0
   -8.9270    2.0490   -0.3090 O   0  0  0  0  0  0  0  0  0  0  0  0
   -3.1670   -1.0940    0.7690 O   0  0  0  0  0  0  0  0  0  0  0  0
   -2.5910   -0.3640   -0.6750 P   0  0  0  0  0  0  0  0  0  0  0  0
   -3.3580    1.1920   -0.8550 O   0  0  0  0  0  0  0  0  0  0  0  0
   -0.8530   -0.1890   -0.7080 O   0  0  0  0  0  0  0  0  0  0  0  0
   -0.2180    0.9340   -0.1770 C   0  0  0  0  0  0  0  0  0  0  0  0
   -0.9590    1.8120    0.3250 O   0  0  0  0  0  0  0  0  0  0  0  0
    1.2440    1.1120   -0.1900 C   0  0  0  0  0  0  0  0  0  0  0  0
    1.8610    0.0150   -0.7960 O   0  0  0  0  0  0  0  0  0  0  0  0
    3.2270    0.1420   -0.8280 C   0  0  0  0  0  0  0  0  0  0  0  0
    3.7450   -0.9980   -1.4490 O   0  0  0  0  0  0  0  0  0  0  0  0
    5.0710   -0.8800   -1.4830 O   0  0  0  0  0  0  0  0  0  0  0  0
    5.8990   -0.9640   -0.3900 C   0  0  0  0  0  0  0  0  0  0  0  0
    5.3860   -1.1680    0.7470 O   0  0  0  0  0  0  0  0  0  0  0  0
    7.2780   -0.8380   -0.4490 O   0  0  0  0  0  0  0  0  0  0  0  0
    8.1020   -0.9250    0.6640 C   0  0  0  0  0  0  0  0  0  0  0  0
    7.5950   -1.1290    1.7980 O   0  0  0  0  0  0  0  0  0  0  0  0
    9.4750   -0.7970    0.5900 O   0  0  0  0  0  0  0  0  0  0  0  0
   10.3110   -0.8820    1.6970 C   0  0  0  0  0  0  0  0  0  0  0  0
    9.8320   -1.0830    2.8260 O   0  0  0  0  0  0  0  0  0  0  0  0
   11.6780   -0.7310    1.4540 O   0  0  0  0  0  0  0  0  0  0  0  0
  1  2  2  0
  2  3  1  0
  3  4  1  0
  4  5  1  0
  4  6  1  0
  6  7  1  0
  7  8  1  0
  7 14  1  0
  8  9  1  0
  9 10  1  0
  9 11  1  0
 11 12  1  0
 12 13  2  0
 14 15  1  0
 15 16  1  0
 15 17  1  0
 17 18  1  0
 18 19  2  0
 18 20  1  0
 20 21  1  0
 21 22  1  0
 22 23  1  0
 23 24  1  0
 24 25  1  0
 25 26  2  0
 25 27  1  0
 27 28  1  0
 28 29  2  0
 28 30  1  0
 30 31  1  0
 31 32  2  0
 31 33  1  0
M  END
