
     RDKit          3D

 13 13  0  0  0  0  0  0  0  0999 V2000
   -1.4010    1.4120   -1.7230 N   0  0  0  0  0  0  0  0  0  0  0  0
   -0.6540    0.8060   -0.6740 C   0  0  0  0  0  0  0  0  0  0  0  0
    0.4030    0.0100   -1.0120 N   0  0  0  0  0  0  0  0  0  0  0  0
    1.1590   -0.6000   -0.0630 C   0  0  0  0  0  0  0  0  0  0  0  0
    2.2970   -1.4530   -0.5560 C   0  0  0  0  0  0  0  0  0  0  0  0
    2.3790   -1.4690   -1.9180 O   0  0  0  0  0  0  0  0  0  0  0  0
    0.8900   -0.4390    1.2630 C   0  0  0  0  0  0  0  0  0  0  0  0
    1.6700   -1.0670    2.2120 O   0  0  0  0  0  0  0  0  0  0  0  0
   -0.1860    0.3710    1.6240 C   0  0  0  0  0  0  0  0  0  0  0  0
   -0.9570    0.9930    0.6600 C   0  0  0  0  0  0  0  0  0  0  0  0
   -2.0380    1.8080    0.9630 O   0  0  0  0  0  0  0  0  0  0  0  0
   -3.3350    1.3250    1.0970 C   0  0  0  0  0  0  0  0  0  0  0  0
   -3.4890    0.0850    0.9260 O   0  0  0  0  0  0  0  0  0  0  0  0
  1  2  1  0
  2  3  2  0
  2 10  1  0
  3  4  1  0
  4  5  1  0
  4  7  2  0
  5  6  1  0
  7  8  1  0
  7  9  1  0
  9 10  2  0
 10 11  1  0
 11 12  1  0
 12 13  2  0
M  CHG  1   3   1
M  END
