
     RDKit          3D

 13 13  0  0  0  0  0  0  0  0999 V2000
    3.2320   -0.7590   -1.2960 N   0  0  0  0  0  0  0  0  0  0  0  0
    2.9060   -0.0750   -0.1050 C   0  0  0  0  0  0  0  0  0  0  0  0
    3.4540    1.0160    0.1380 O   0  0  0  0  0  0  0  0  0  0  0  0
    1.9440   -0.6480    0.8170 C   0  0  2  0  0  0  0  0  0  0  0  0
    0.6110   -0.9210    0.1980 C   0  0  0  0  0  0  0  0  0  0  0  0
   -0.3230    0.0240    0.1060 C   0  0  0  0  0  0  0  0  0  0  0  0
   -1.6630   -0.2400   -0.5140 C   0  0  0  0  0  0  0  0  0  0  0  0
   -2.6290   -0.0020    0.4310 O   0  0  0  0  0  0  0  0  0  0  0  0
   -3.8750   -0.1930    0.0290 N   0  0  0  0  0  0  0  0  0  0  0  0
    0.0310    1.3640    0.6520 C   0  0  0  0  0  0  0  0  0  0  0  0
    0.9130    1.2810    1.8210 C   0  0  0  0  0  0  0  0  0  0  0  0
    0.8820    2.2180    2.6680 O   0  0  0  0  0  0  0  0  0  0  0  0
    1.7470    0.1830    1.9560 O   0  0  0  0  0  0  0  0  0  0  0  0
  1  2  1  0
  2  3  2  0
  4  2  1  6
  4  5  1  0
  4 13  1  0
  5  6  2  0
  6  7  1  0
  6 10  1  0
  7  8  1  0
  8  9  1  0
 10 11  1  0
 11 12  2  0
 11 13  1  0
M  CHG  1   9   1
M  END
