
     RDKit          3D

 13 13  0  0  0  0  0  0  0  0999 V2000
   -3.4630   -1.2140   -0.7900 N   0  0  0  0  0  0  0  0  0  0  0  0
   -2.1530   -1.4690   -0.2410 C   0  0  2  0  0  0  0  0  0  0  0  0
   -1.7270   -0.4300    0.7180 C   0  0  0  0  0  0  0  0  0  0  0  0
   -0.4400   -0.0790    0.4780 C   0  0  0  0  0  0  0  0  0  0  0  0
    0.3060    0.9050    1.2170 C   0  0  0  0  0  0  0  0  0  0  0  0
    1.5160    1.3080    1.0740 C   0  0  0  0  0  0  0  0  0  0  0  0
    1.9750    2.3140    1.9810 O   0  0  0  0  0  0  0  0  0  0  0  0
    2.5010    0.8860    0.1120 C   0  0  0  0  0  0  0  0  0  0  0  0
    2.2570    0.0140   -0.7510 O   0  0  0  0  0  0  0  0  0  0  0  0
    3.8300    1.4580    0.0990 N   0  0  0  0  0  0  0  0  0  0  0  0
    4.7440    1.0630   -0.7980 O   0  0  0  0  0  0  0  0  0  0  0  0
   -0.0370   -0.8560   -0.5970 O   0  0  0  0  0  0  0  0  0  0  0  0
   -1.1520   -1.2450   -1.3770 C   0  0  0  0  0  0  0  0  0  0  0  0
  2  1  1  6
  2  3  1  0
  2 13  1  0
  3  4  2  0
  4  5  1  0
  4 12  1  0
  5  6  2  3
  6  7  1  0
  6  8  1  0
  8  9  2  0
  8 10  1  0
 10 11  1  0
 12 13  1  0
M  CHG  1   1   1
M  END
