
     RDKit          3D

 13 13  0  0  0  0  0  0  0  0999 V2000
   -1.7130    1.0730    0.8170 C   0  0  0  0  0  0  0  0  0  0  0  0
   -1.6010   -0.0180   -0.1900 C   0  0  1  0  0  0  0  0  0  0  0  0
   -2.3430   -1.2340    0.3040 C   0  0  0  0  0  0  0  0  0  0  0  0
   -2.1550    0.4150   -1.3940 O   0  0  0  0  0  0  0  0  0  0  0  0
   -1.1940    1.1820   -1.9970 N   0  0  0  0  0  0  0  0  0  0  0  0
    0.0850    0.6910   -1.6170 C   0  0  0  0  0  0  0  0  0  0  0  0
    1.2320    0.9960   -2.0050 O   0  0  0  0  0  0  0  0  0  0  0  0
   -0.1860   -0.3430   -0.5860 C   0  0  1  0  0  0  0  0  0  0  0  0
    0.7480   -0.2810    0.4950 N   0  0  0  0  0  0  0  0  0  0  0  0
    1.9200   -1.0430    0.1260 C   0  0  0  0  0  0  0  0  0  0  0  0
    3.1470   -0.2080    0.1080 C   0  0  0  0  0  0  0  0  0  0  0  0
    4.2210   -0.7770   -0.2010 O   0  0  0  0  0  0  0  0  0  0  0  0
    3.1770    1.1310    0.4040 O   0  0  0  0  0  0  0  0  0  0  0  0
  2  1  1  1
  2  3  1  0
  2  4  1  0
  2  8  1  0
  4  5  1  0
  5  6  1  0
  6  7  2  0
  6  8  1  0
  8  9  1  1
  9 10  1  0
 10 11  1  0
 11 12  2  0
 11 13  1  0
M  CHG  1   9   1
M  END
