
     RDKit          3D

  9  9  0  0  0  0  0  0  0  0999 V2000
    2.4620    0.5530   -0.0220 O   0  0  0  0  0  0  0  0  0  0  0  0
    1.3740   -0.0530    0.0090 C   0  0  0  0  0  0  0  0  0  0  0  0
    1.4270   -1.4330   -0.0400 O   0  0  0  0  0  0  0  0  0  0  0  0
    0.0980    0.6720    0.0940 C   0  0  0  0  0  0  0  0  0  0  0  0
    0.0880    1.9850    0.1380 N   0  0  0  0  0  0  0  0  0  0  0  0
   -1.6410    2.5040    0.2380 S   0  0  0  0  0  0  0  0  0  0  0  0
   -2.1730    0.7950    0.2050 N   0  0  0  0  0  0  0  0  0  0  0  0
   -1.1050    0.0490    0.1300 C   0  0  0  0  0  0  0  0  0  0  0  0
   -1.2730   -1.3560    0.0910 O   0  0  0  0  0  0  0  0  0  0  0  0
  1  2  2  0
  2  3  1  0
  2  4  1  0
  4  5  2  0
  4  8  1  0
  5  6  1  0
  6  7  1  0
  7  8  2  0
  8  9  1  0
M  END
