
     RDKit          3D

 13 13  0  0  0  0  0  0  0  0999 V2000
   -1.4060    1.1970    0.5780 C   0  0  0  0  0  0  0  0  0  0  0  0
   -1.3560   -0.2200    0.0750 C   0  0  2  0  0  0  0  0  0  0  0  0
    0.0040   -0.8770    0.2960 C   0  0  2  0  0  0  0  0  0  0  0  0
    0.2310   -0.8350    1.7070 N   0  0  0  0  0  0  0  0  0  0  0  0
    1.0040   -0.0130   -0.4830 C   0  0  0  0  0  0  0  0  0  0  0  0
    2.3800   -0.4910   -0.4000 C   0  0  0  0  0  0  0  0  0  0  0  0
    2.6120   -1.7140   -0.6520 O   0  0  0  0  0  0  0  0  0  0  0  0
    3.4700    0.2860   -0.0670 O   0  0  0  0  0  0  0  0  0  0  0  0
    4.7550   -0.1680    0.0140 N   0  0  0  0  0  0  0  0  0  0  0  0
   -1.6680   -0.2400   -1.3040 O   0  0  0  0  0  0  0  0  0  0  0  0
   -3.0300    0.0600   -1.3470 C   0  0  0  0  0  0  0  0  0  0  0  0
   -3.5300   -0.6580   -0.1180 C   0  0  0  0  0  0  0  0  0  0  0  0
   -2.3750   -1.0100    0.5990 O   0  0  0  0  0  0  0  0  0  0  0  0
  2  1  1  1
  2  3  1  0
  2 10  1  0
  2 13  1  0
  3  4  1  1
  3  5  1  0
  5  6  1  0
  6  7  2  0
  6  8  1  0
  8  9  1  0
 10 11  1  0
 11 12  1  0
 12 13  1  0
M  CHG  1   9   1
M  END
