
     RDKit          3D

 13 13  0  0  0  0  0  0  0  0999 V2000
    4.2850    0.0610    0.4110 N   0  0  0  0  0  0  0  0  0  0  0  0
    3.1070    0.4350    0.9720 O   0  0  0  0  0  0  0  0  0  0  0  0
    1.9150    0.0610    0.3470 C   0  0  0  0  0  0  0  0  0  0  0  0
    1.9700   -0.5990   -0.6950 O   0  0  0  0  0  0  0  0  0  0  0  0
    0.6650    0.4960    1.0010 C   0  0  0  0  0  0  0  0  0  0  0  0
   -0.5420   -0.0230    0.3220 C   0  0  1  0  0  0  0  0  0  0  0  0
   -0.6220   -1.4930    0.3060 C   0  0  0  0  0  0  0  0  0  0  0  0
   -1.8010   -2.0120   -0.3570 N   0  0  0  0  0  0  0  0  0  0  0  0
   -1.7810    0.6360    0.9350 C   0  0  0  0  0  0  0  0  0  0  0  0
   -1.5750    2.0550    0.4460 C   0  0  0  0  0  0  0  0  0  0  0  0
   -0.8310    1.9550   -0.7620 O   0  0  0  0  0  0  0  0  0  0  0  0
   -0.5860    0.5980   -1.0340 C   0  0  0  0  0  0  0  0  0  0  0  0
   -0.4480    0.0970   -2.1580 O   0  0  0  0  0  0  0  0  0  0  0  0
  1  2  1  0
  2  3  1  0
  3  4  2  0
  3  5  1  0
  6  5  1  1
  6  7  1  0
  6  9  1  0
  6 12  1  0
  7  8  1  0
  9 10  1  0
 10 11  1  0
 11 12  1  0
 12 13  2  0
M  CHG  1   8   1
M  END
