
     RDKit          3D

 48 53  0  0  0  0  0  0  0  0999 V2000
   12.0800    2.0880    1.3930 C   0  0  0  0  0  0  0  0  0  0  0  0
   10.7530    1.7870    0.8120 C   0  0  0  0  0  0  0  0  0  0  0  0
   10.4900    1.9750   -0.5290 C   0  0  0  0  0  0  0  0  0  0  0  0
    9.2690    1.6950   -1.0920 C   0  0  0  0  0  0  0  0  0  0  0  0
    8.2100    1.1950   -0.3180 C   0  0  0  0  0  0  0  0  0  0  0  0
    6.9390    0.9020   -0.9480 C   0  0  0  0  0  0  0  0  0  0  0  0
    5.8860    0.3930   -0.3400 C   0  0  0  0  0  0  0  0  0  0  0  0
    4.6380    0.1240   -1.0450 C   0  0  0  0  0  0  0  0  0  0  0  0
    4.4160    0.4520   -2.3490 C   0  0  0  0  0  0  0  0  0  0  0  0
    3.2290    0.1250   -2.9710 C   0  0  0  0  0  0  0  0  0  0  0  0
    2.2130   -0.5390   -2.3270 C   0  0  0  0  0  0  0  0  0  0  0  0
    2.4300   -0.8730   -1.0090 C   0  0  0  0  0  0  0  0  0  0  0  0
    3.6310   -0.5480   -0.3620 C   0  0  0  0  0  0  0  0  0  0  0  0
    1.4380   -1.6060   -0.3150 N   0  0  0  0  0  0  0  0  0  0  0  0
    1.4940   -1.7270    1.0760 C   0  0  0  0  0  0  0  0  0  0  0  0
    0.5580   -1.3820    1.8990 C   0  0  0  0  0  0  0  0  0  0  0  0
   -0.7360   -0.8020    1.7730 C   0  0  0  0  0  0  0  0  0  0  0  0
   -1.8030   -1.1890    2.6360 C   0  0  0  0  0  0  0  0  0  0  0  0
   -2.8620   -0.3810    2.3000 C   0  0  0  0  0  0  0  0  0  0  0  0
   -4.2150   -0.4740    2.9780 C   0  0  0  0  0  0  0  0  0  0  0  0
   -4.8300   -1.6800    2.4520 N   0  0  0  0  0  0  0  0  0  0  0  0
   -6.1290   -2.0930    2.7840 C   0  0  0  0  0  0  0  0  0  0  0  0
   -6.8540   -1.4360    3.5600 O   0  0  0  0  0  0  0  0  0  0  0  0
   -6.6440   -3.3380    2.1970 C   0  0  0  0  0  0  0  0  0  0  0  0
   -5.7980   -4.4450    2.1670 C   0  0  0  0  0  0  0  0  0  0  0  0
   -6.2210   -5.6390    1.6150 C   0  0  0  0  0  0  0  0  0  0  0  0
   -7.5050   -5.7170    1.0900 C   0  0  0  0  0  0  0  0  0  0  0  0
   -7.9870   -7.0090    0.4900 C   0  0  0  0  0  0  0  0  0  0  0  0
   -8.3250   -4.6170    1.1260 C   0  0  0  0  0  0  0  0  0  0  0  0
   -7.8930   -3.4200    1.6830 C   0  0  0  0  0  0  0  0  0  0  0  0
   -2.5000    0.4070    1.3590 O   0  0  0  0  0  0  0  0  0  0  0  0
   -1.2330    0.1970    1.0090 C   0  0  0  0  0  0  0  0  0  0  0  0
   -0.5990    1.0020   -0.0420 C   0  0  0  0  0  0  0  0  0  0  0  0
   -1.3990    1.9680   -0.6350 O   0  0  0  0  0  0  0  0  0  0  0  0
   -2.0800    3.0160   -0.1230 C   0  0  0  0  0  0  0  0  0  0  0  0
   -2.0500    3.2090    1.1130 O   0  0  0  0  0  0  0  0  0  0  0  0
   -2.8220    3.8770   -1.0340 C   0  0  0  0  0  0  0  0  0  0  0  0
   -2.7530    3.6630   -2.3940 C   0  0  0  0  0  0  0  0  0  0  0  0
   -3.4640    4.5170   -3.2110 C   0  0  0  0  0  0  0  0  0  0  0  0
   -4.2160    5.5470   -2.6860 C   0  0  0  0  0  0  0  0  0  0  0  0
   -4.9680    6.4670   -3.5900 C   0  0  0  0  0  0  0  0  0  0  0  0
   -4.2870    5.7610   -1.3320 C   0  0  0  0  0  0  0  0  0  0  0  0
   -3.5670    4.8990   -0.5000 C   0  0  0  0  0  0  0  0  0  0  0  0
    0.3710   -2.3210   -1.0170 C   0  0  0  0  0  0  0  0  0  0  0  0
    0.2510   -1.9960   -2.4520 C   0  0  0  0  0  0  0  0  0  0  0  0
    1.0200   -0.8850   -2.8900 O   0  0  0  0  0  0  0  0  0  0  0  0
    8.4770    1.0130    1.0100 C   0  0  0  0  0  0  0  0  0  0  0  0
    9.7030    1.2920    1.5870 C   0  0  0  0  0  0  0  0  0  0  0  0
  1  2  1  0
  2  3  2  0
  2 48  1  0
  3  4  1  0
  4  5  2  0
  5  6  1  0
  5 47  1  0
  6  7  2  3
  7  8  1  0
  8  9  2  0
  8 13  1  0
  9 10  1  0
 10 11  2  0
 11 12  1  0
 11 46  1  0
 12 13  2  0
 12 14  1  0
 14 15  1  0
 14 44  1  0
 15 16  2  3
 16 17  1  0
 17 18  1  0
 17 32  2  0
 18 19  2  0
 19 20  1  0
 19 31  1  0
 20 21  1  0
 21 22  1  0
 22 23  2  0
 22 24  1  0
 24 25  2  0
 24 30  1  0
 25 26  1  0
 26 27  2  0
 27 28  1  0
 27 29  1  0
 29 30  2  0
 31 32  1  0
 32 33  1  0
 33 34  1  0
 34 35  1  0
 35 36  2  0
 35 37  1  0
 37 38  2  0
 37 43  1  0
 38 39  1  0
 39 40  2  0
 40 41  1  0
 40 42  1  0
 42 43  2  0
 44 45  1  0
 45 46  1  0
 47 48  2  0
M  END
