
     RDKit          3D

 48 53  0  0  0  0  0  0  0  0999 V2000
   12.8240    4.0640   -1.2900 C   0  0  0  0  0  0  0  0  0  0  0  0
   12.6480    2.7380   -1.7370 O   0  0  0  0  0  0  0  0  0  0  0  0
   11.5140    2.0330   -1.3860 C   0  0  0  0  0  0  0  0  0  0  0  0
   10.5220    2.6040   -0.5910 C   0  0  0  0  0  0  0  0  0  0  0  0
    9.3910    1.9090   -0.2350 C   0  0  0  0  0  0  0  0  0  0  0  0
    9.1850    0.6070   -0.6500 C   0  0  0  0  0  0  0  0  0  0  0  0
    8.0410   -0.1060   -0.2900 O   0  0  0  0  0  0  0  0  0  0  0  0
    7.0970    0.5660    0.5180 C   0  0  0  0  0  0  0  0  0  0  0  0
    5.9350   -0.2530    0.8910 C   0  0  0  0  0  0  0  0  0  0  0  0
    5.5210   -0.3050    2.2260 C   0  0  0  0  0  0  0  0  0  0  0  0
    4.4460   -1.0690    2.6310 C   0  0  0  0  0  0  0  0  0  0  0  0
    3.7460   -1.8170    1.6750 C   0  0  0  0  0  0  0  0  0  0  0  0
    2.5980   -2.6180    2.1610 C   0  0  0  0  0  0  0  0  0  0  0  0
    1.2770   -2.0660    1.7730 C   0  0  0  0  0  0  0  0  0  0  0  0
    0.8430   -0.9050    2.3660 C   0  0  0  0  0  0  0  0  0  0  0  0
   -0.3790   -0.4270    2.0150 C   0  0  0  0  0  0  0  0  0  0  0  0
   -1.2490   -1.0500    1.0710 C   0  0  0  0  0  0  0  0  0  0  0  0
   -0.8080   -2.2120    0.4750 C   0  0  0  0  0  0  0  0  0  0  0  0
    0.4490   -2.6860    0.8500 C   0  0  0  0  0  0  0  0  0  0  0  0
   -1.4550   -2.9830   -0.4730 O   0  0  0  0  0  0  0  0  0  0  0  0
   -2.1380   -2.5810   -1.6350 C   0  0  0  0  0  0  0  0  0  0  0  0
   -2.5080   -3.8430   -2.3920 C   0  0  0  0  0  0  0  0  0  0  0  0
   -3.8070   -4.2580   -2.2210 O   0  0  0  0  0  0  0  0  0  0  0  0
   -3.8800   -5.3290   -1.3190 C   0  0  0  0  0  0  0  0  0  0  0  0
   -5.1250   -5.1600   -0.4890 C   0  0  0  0  0  0  0  0  0  0  0  0
   -4.9090   -5.5340    0.9370 C   0  0  0  0  0  0  0  0  0  0  0  0
   -4.9910   -4.3090    1.8530 C   0  0  0  0  0  0  0  0  0  0  0  0
   -3.9350   -3.3060    1.4120 C   0  0  0  0  0  0  0  0  0  0  0  0
   -4.2230   -1.9870    1.6430 O   0  0  0  0  0  0  0  0  0  0  0  0
   -3.8200   -0.7850    1.1330 C   0  0  0  0  0  0  0  0  0  0  0  0
   -4.8960    0.0960    0.8580 C   0  0  0  0  0  0  0  0  0  0  0  0
   -4.7350    1.3630    0.3540 C   0  0  0  0  0  0  0  0  0  0  0  0
   -5.8790    2.2390    0.0850 C   0  0  0  0  0  0  0  0  0  0  0  0
   -7.1870    1.9960    0.2750 N   0  0  0  0  0  0  0  0  0  0  0  0
   -7.8500    3.0390   -0.0910 O   0  0  0  0  0  0  0  0  0  0  0  0
   -7.0280    3.9800   -0.5220 C   0  0  0  0  0  0  0  0  0  0  0  0
   -7.4380    5.3380   -1.0300 C   0  0  2  0  0  0  0  0  0  0  0  0
   -8.4140    5.1140   -2.1560 C   0  0  0  0  0  0  0  0  0  0  0  0
   -6.1810    5.9590   -1.6370 C   0  0  0  0  0  0  0  0  0  0  0  0
   -7.9790    6.2110    0.0620 C   0  0  0  0  0  0  0  0  0  0  0  0
   -5.7850    3.4750   -0.4110 N   0  0  0  0  0  0  0  0  0  0  0  0
   -3.4600    1.7950    0.1070 C   0  0  0  0  0  0  0  0  0  0  0  0
   -2.4070    0.9460    0.3700 C   0  0  0  0  0  0  0  0  0  0  0  0
   -2.5320   -0.3490    0.8790 C   0  0  0  0  0  0  0  0  0  0  0  0
    4.1570   -1.7590    0.3710 C   0  0  0  0  0  0  0  0  0  0  0  0
    5.2490   -0.9850   -0.0480 C   0  0  0  0  0  0  0  0  0  0  0  0
   10.1730    0.0370   -1.4430 C   0  0  0  0  0  0  0  0  0  0  0  0
   11.3030    0.7310   -1.7980 C   0  0  0  0  0  0  0  0  0  0  0  0
  1  2  1  0
  2  3  1  0
  3  4  2  0
  3 48  1  0
  4  5  1  0
  5  6  2  0
  6  7  1  0
  6 47  1  0
  7  8  1  0
  8  9  1  0
  9 10  2  0
  9 46  1  0
 10 11  1  0
 11 12  2  0
 12 13  1  0
 12 45  1  0
 13 14  1  0
 14 15  2  0
 14 19  1  0
 15 16  1  0
 16 17  2  0
 17 18  1  0
 17 44  1  0
 18 19  2  0
 18 20  1  0
 20 21  1  0
 21 22  1  0
 22 23  1  0
 23 24  1  0
 24 25  1  0
 25 26  1  0
 26 27  1  0
 27 28  1  0
 28 29  1  0
 29 30  1  0
 30 31  2  0
 30 44  1  0
 31 32  1  0
 32 33  1  0
 32 42  2  0
 33 34  2  0
 33 41  1  0
 34 35  1  0
 35 36  1  0
 36 37  1  0
 36 41  2  0
 37 38  1  6
 37 39  1  0
 37 40  1  0
 42 43  1  0
 43 44  2  0
 45 46  2  0
 47 48  2  0
M  END
