
     RDKit          3D

 48 52  0  0  0  0  0  0  0  0999 V2000
    1.8480   -2.0620   -4.3020 C   0  0  0  0  0  0  0  0  0  0  0  0
    2.0610   -1.1500   -3.1620 C   0  0  0  0  0  0  0  0  0  0  0  0
    1.4640   -0.0600   -3.1370 O   0  0  0  0  0  0  0  0  0  0  0  0
    2.9570   -1.5280   -2.0890 C   0  0  0  0  0  0  0  0  0  0  0  0
    3.7100   -2.6910   -2.2560 C   0  0  0  0  0  0  0  0  0  0  0  0
    4.6360   -3.0670   -1.3210 C   0  0  0  0  0  0  0  0  0  0  0  0
    4.8510   -2.3220   -0.2060 C   0  0  0  0  0  0  0  0  0  0  0  0
    5.8170   -2.6270    0.8120 N   0  0  0  0  0  0  0  0  0  0  0  0
    6.8440   -3.5750    0.7290 C   0  0  0  0  0  0  0  0  0  0  0  0
    7.0100   -4.2560   -0.2830 O   0  0  0  0  0  0  0  0  0  0  0  0
    7.7990   -3.8140    1.8680 C   0  0  2  0  0  0  0  0  0  0  0  0
    9.1750   -3.4290    1.3410 C   0  0  0  0  0  0  0  0  0  0  0  0
    7.8180   -5.2690    2.2030 C   0  0  0  0  0  0  0  0  0  0  0  0
    7.3900   -2.9540    2.9490 N   0  0  0  0  0  0  0  0  0  0  0  0
    4.0850   -1.1710   -0.0700 C   0  0  0  0  0  0  0  0  0  0  0  0
    3.1480   -0.7490   -0.9660 C   0  0  0  0  0  0  0  0  0  0  0  0
    2.4410    0.4120   -0.7280 O   0  0  0  0  0  0  0  0  0  0  0  0
    1.0850    0.4480   -0.4810 C   0  0  0  0  0  0  0  0  0  0  0  0
    0.3160   -0.6740   -0.3260 C   0  0  0  0  0  0  0  0  0  0  0  0
   -1.0410   -0.5170   -0.0800 C   0  0  0  0  0  0  0  0  0  0  0  0
   -1.6700    0.6870    0.0230 C   0  0  0  0  0  0  0  0  0  0  0  0
   -3.0460    0.8730    0.3580 C   0  0  0  0  0  0  0  0  0  0  0  0
   -3.8100    0.0750    1.0150 C   0  0  0  0  0  0  0  0  0  0  0  0
   -3.5270   -1.2080    1.6130 C   0  0  0  0  0  0  0  0  0  0  0  0
   -4.3530   -2.2060    1.0220 O   0  0  0  0  0  0  0  0  0  0  0  0
   -5.7320   -2.2100    1.0600 C   0  0  0  0  0  0  0  0  0  0  0  0
   -6.3130   -1.2720    1.6570 O   0  0  0  0  0  0  0  0  0  0  0  0
   -6.5180   -3.2870    0.4180 C   0  0  0  0  0  0  0  0  0  0  0  0
   -7.8970   -3.2220    0.4860 C   0  0  0  0  0  0  0  0  0  0  0  0
   -8.7110   -4.1860   -0.0800 C   0  0  0  0  0  0  0  0  0  0  0  0
   -8.1230   -5.2560   -0.7420 C   0  0  0  0  0  0  0  0  0  0  0  0
   -8.9640   -6.3220   -1.3680 C   0  0  0  0  0  0  0  0  0  0  0  0
   -6.7500   -5.3120   -0.8050 C   0  0  0  0  0  0  0  0  0  0  0  0
   -5.9360   -4.3320   -0.2280 C   0  0  0  0  0  0  0  0  0  0  0  0
   -0.8510    1.8130   -0.1410 C   0  0  0  0  0  0  0  0  0  0  0  0
   -1.4000    3.1690   -0.0150 C   0  0  0  0  0  0  0  0  0  0  0  0
   -0.6980    4.2750   -0.1600 C   0  0  0  0  0  0  0  0  0  0  0  0
   -1.3790    5.5550   -0.0060 C   0  0  0  0  0  0  0  0  0  0  0  0
   -0.7140    6.6910   -0.1380 C   0  0  0  0  0  0  0  0  0  0  0  0
    0.6260    6.8200   -0.4210 O   0  0  0  0  0  0  0  0  0  0  0  0
    0.9930    8.1490   -0.4850 C   0  0  0  0  0  0  0  0  0  0  0  0
   -0.2390    8.9090   -0.2210 C   0  0  0  0  0  0  0  0  0  0  0  0
   -0.4700   10.2790   -0.1610 C   0  0  0  0  0  0  0  0  0  0  0  0
   -1.7400   10.7170    0.1120 C   0  0  0  0  0  0  0  0  0  0  0  0
   -2.8100    9.8620    0.3320 C   0  0  0  0  0  0  0  0  0  0  0  0
   -2.5270    8.5100    0.2610 C   0  0  0  0  0  0  0  0  0  0  0  0
   -1.2660    8.0180   -0.0100 C   0  0  0  0  0  0  0  0  0  0  0  0
    0.4970    1.6830   -0.3880 C   0  0  0  0  0  0  0  0  0  0  0  0
  1  2  1  0
  2  3  2  0
  2  4  1  0
  4  5  2  0
  4 16  1  0
  5  6  1  0
  6  7  2  0
  7  8  1  0
  7 15  1  0
  8  9  1  0
  9 10  2  0
  9 11  1  0
 11 12  1  6
 11 13  1  0
 11 14  1  0
 15 16  2  0
 16 17  1  0
 17 18  1  0
 18 19  2  0
 18 48  1  0
 19 20  1  0
 20 21  2  0
 21 22  1  0
 21 35  1  0
 22 23  2  3
 23 24  1  0
 24 25  1  0
 25 26  1  0
 26 27  2  0
 26 28  1  0
 28 29  2  0
 28 34  1  0
 29 30  1  0
 30 31  2  0
 31 32  1  0
 31 33  1  0
 33 34  2  0
 35 36  1  0
 35 48  2  0
 36 37  2  3
 37 38  1  0
 38 39  2  3
 39 40  1  0
 39 47  1  0
 40 41  1  0
 41 42  1  0
 42 43  2  0
 42 47  1  0
 43 44  1  0
 44 45  2  0
 45 46  1  0
 46 47  2  0
M  END
