
     RDKit          3D

 48 53  0  0  0  0  0  0  0  0999 V2000
    7.2480    0.5300    3.5340 C   0  0  0  0  0  0  0  0  0  0  0  0
    6.8850   -0.9230    3.3740 C   0  0  2  0  0  0  0  0  0  0  0  0
    7.6050   -1.5520    2.1930 C   0  0  0  0  0  0  0  0  0  0  0  0
    5.4570   -1.1390    3.3110 N   0  0  0  0  0  0  0  0  0  0  0  0
    4.6330   -0.5930    2.2970 C   0  0  0  0  0  0  0  0  0  0  0  0
    3.2690   -0.7590    2.3170 C   0  0  0  0  0  0  0  0  0  0  0  0
    2.4410   -0.2470    1.3480 C   0  0  0  0  0  0  0  0  0  0  0  0
    0.9760   -0.4450    1.3930 C   0  0  0  0  0  0  0  0  0  0  0  0
    0.3650   -1.1290    2.4000 C   0  0  0  0  0  0  0  0  0  0  0  0
   -1.0030   -1.0800    2.0550 C   0  0  0  0  0  0  0  0  0  0  0  0
   -1.1540   -0.3930    0.8910 C   0  0  0  0  0  0  0  0  0  0  0  0
   -2.2990   -0.0630    0.0920 C   0  0  0  0  0  0  0  0  0  0  0  0
   -3.4070   -0.7610    0.0720 C   0  0  0  0  0  0  0  0  0  0  0  0
   -3.7650   -1.9430    0.7580 C   0  0  0  0  0  0  0  0  0  0  0  0
   -4.8780   -2.6230    0.7640 C   0  0  0  0  0  0  0  0  0  0  0  0
   -6.0950   -2.3300    0.0350 C   0  0  0  0  0  0  0  0  0  0  0  0
   -7.2300   -3.0150    0.1060 C   0  0  0  0  0  0  0  0  0  0  0  0
   -8.2620   -2.4350   -0.7880 C   0  0  0  0  0  0  0  0  0  0  0  0
   -7.7120   -1.3310   -1.3240 O   0  0  0  0  0  0  0  0  0  0  0  0
   -6.4010   -1.2300   -0.8990 C   0  0  0  0  0  0  0  0  0  0  0  0
   -4.8650   -3.8360    1.6650 C   0  0  0  0  0  0  0  0  0  0  0  0
   -4.1190   -3.8220    2.8360 C   0  0  0  0  0  0  0  0  0  0  0  0
   -3.9540   -4.9290    3.6270 C   0  0  0  0  0  0  0  0  0  0  0  0
   -4.5430   -6.1220    3.2690 C   0  0  0  0  0  0  0  0  0  0  0  0
   -5.2850   -6.1550    2.1110 C   0  0  0  0  0  0  0  0  0  0  0  0
   -5.4390   -5.0050    1.3130 C   0  0  0  0  0  0  0  0  0  0  0  0
   -2.2890    1.1220   -0.7790 C   0  0  0  0  0  0  0  0  0  0  0  0
   -1.2670    1.9190   -0.8390 C   0  0  0  0  0  0  0  0  0  0  0  0
   -1.2030    3.1400   -1.7110 C   0  0  1  0  0  0  0  0  0  0  0  0
   -1.0150    4.3030   -0.7440 C   0  0  0  0  0  0  0  0  0  0  0  0
    0.0220    2.9970   -2.5860 C   0  0  0  0  0  0  0  0  0  0  0  0
   -2.4290    3.3330   -2.4930 C   0  0  0  0  0  0  0  0  0  0  0  0
   -2.4980    4.4240   -3.3380 C   0  0  0  0  0  0  0  0  0  0  0  0
   -3.6180    4.6890   -4.1170 C   0  0  0  0  0  0  0  0  0  0  0  0
   -4.6920    3.8080   -4.0200 C   0  0  0  0  0  0  0  0  0  0  0  0
   -4.6340    2.7240   -3.1850 C   0  0  0  0  0  0  0  0  0  0  0  0
   -3.5190    2.4680   -2.4160 C   0  0  0  0  0  0  0  0  0  0  0  0
   -3.4090    1.3860   -1.5560 O   0  0  0  0  0  0  0  0  0  0  0  0
    0.0920   -0.0410    0.5560 O   0  0  0  0  0  0  0  0  0  0  0  0
    2.9990    0.4470    0.3400 N   0  0  0  0  0  0  0  0  0  0  0  0
    4.3280    0.6380    0.2740 C   0  0  0  0  0  0  0  0  0  0  0  0
    4.8730    1.4280   -0.8820 C   0  0  2  0  0  0  0  0  0  0  0  0
    4.4560    2.8920   -0.6580 C   0  0  0  0  0  0  0  0  0  0  0  0
    4.2360    0.9990   -2.0180 O   0  0  0  0  0  0  0  0  0  0  0  0
    5.0060    0.5540   -3.0480 C   0  0  0  0  0  0  0  0  0  0  0  0
    5.9470    1.5300   -3.6630 C   0  0  0  0  0  0  0  0  0  0  0  0
    6.8990    2.0710   -2.8480 O   0  0  0  0  0  0  0  0  0  0  0  0
    5.1780    0.1180    1.2590 C   0  0  0  0  0  0  0  0  0  0  0  0
  2  1  1  6
  2  3  1  0
  2  4  1  0
  4  5  1  0
  5  6  2  0
  5 48  1  0
  6  7  1  0
  7  8  1  0
  7 40  2  0
  8  9  2  0
  8 39  1  0
  9 10  1  0
 10 11  2  0
 11 12  1  0
 11 39  1  0
 12 13  2  3
 12 27  1  0
 13 14  1  0
 14 15  2  3
 15 16  1  0
 15 21  1  0
 16 17  2  0
 16 20  1  0
 17 18  1  0
 18 19  1  0
 19 20  1  0
 21 22  2  0
 21 26  1  0
 22 23  1  0
 23 24  2  0
 24 25  1  0
 25 26  2  0
 27 28  2  0
 27 38  1  0
 28 29  1  0
 29 30  1  1
 29 31  1  0
 29 32  1  0
 32 33  2  0
 32 37  1  0
 33 34  1  0
 34 35  2  0
 35 36  1  0
 36 37  2  0
 37 38  1  0
 40 41  1  0
 41 42  1  0
 41 48  2  0
 42 43  1  1
 42 44  1  0
 44 45  1  0
 45 46  1  0
 46 47  1  0
M  END
