
     RDKit          3D

 48 54  0  0  0  0  0  0  0  0999 V2000
   10.4920   -1.1290   -4.6660 C   0  0  0  0  0  0  0  0  0  0  0  0
    9.6510   -2.1860   -4.2420 O   0  0  0  0  0  0  0  0  0  0  0  0
    8.4860   -1.9390   -3.5020 C   0  0  0  0  0  0  0  0  0  0  0  0
    7.7230   -3.0240   -3.1290 C   0  0  0  0  0  0  0  0  0  0  0  0
    6.5740   -2.8310   -2.4020 C   0  0  0  0  0  0  0  0  0  0  0  0
    6.1410   -1.5640   -2.0200 C   0  0  0  0  0  0  0  0  0  0  0  0
    4.9070   -1.4140   -1.2530 C   0  0  0  0  0  0  0  0  0  0  0  0
    4.1160   -2.3830   -1.2050 O   0  0  0  0  0  0  0  0  0  0  0  0
    4.6050   -0.2110   -0.5800 N   0  0  0  0  0  0  0  0  0  0  0  0
    3.4330    0.0420    0.1840 C   0  0  0  0  0  0  0  0  0  0  0  0
    2.2950   -0.7100    0.1850 C   0  0  0  0  0  0  0  0  0  0  0  0
    1.1850   -0.3950    0.9920 C   0  0  0  0  0  0  0  0  0  0  0  0
    1.2050    0.6870    1.8130 C   0  0  0  0  0  0  0  0  0  0  0  0
    0.1230    1.0970    2.6800 C   0  0  0  0  0  0  0  0  0  0  0  0
    0.3660    2.1790    3.3970 O   0  0  0  0  0  0  0  0  0  0  0  0
   -1.1380    0.5740    2.9150 N   0  0  0  0  0  0  0  0  0  0  0  0
   -1.9520    1.3240    3.9230 C   0  0  0  0  0  0  0  0  0  0  0  0
   -1.6560    0.7450    5.2770 C   0  0  0  0  0  0  0  0  0  0  0  0
   -0.7930   -0.2820    5.5630 C   0  0  0  0  0  0  0  0  0  0  0  0
   -0.8510   -0.4650    6.9290 C   0  0  0  0  0  0  0  0  0  0  0  0
   -1.7490    0.4670    7.3930 C   0  0  0  0  0  0  0  0  0  0  0  0
   -2.2020    1.1630    6.3720 O   0  0  0  0  0  0  0  0  0  0  0  0
   -1.7800   -0.5530    2.3640 C   0  0  0  0  0  0  0  0  0  0  0  0
   -2.5720   -0.3210    1.0950 C   0  0  2  0  0  0  0  0  0  0  0  0
   -1.8310    0.1690    0.0320 O   0  0  0  0  0  0  0  0  0  0  0  0
   -1.5870   -0.3980   -1.2030 C   0  0  0  0  0  0  0  0  0  0  0  0
   -0.7810    0.3110   -2.1180 C   0  0  0  0  0  0  0  0  0  0  0  0
   -0.5300   -0.2360   -3.3460 C   0  0  0  0  0  0  0  0  0  0  0  0
   -1.0390   -1.4640   -3.7270 C   0  0  0  0  0  0  0  0  0  0  0  0
   -1.8330   -2.1850   -2.8540 C   0  0  0  0  0  0  0  0  0  0  0  0
   -2.0740   -1.6140   -1.6200 C   0  0  0  0  0  0  0  0  0  0  0  0
   -2.2530   -3.4580   -3.4970 C   0  0  0  0  0  0  0  0  0  0  0  0
   -1.9470   -3.2490   -4.9650 C   0  0  0  0  0  0  0  0  0  0  0  0
   -0.8630   -2.1930   -5.0110 C   0  0  0  0  0  0  0  0  0  0  0  0
   -3.8220    0.4530    1.3070 C   0  0  0  0  0  0  0  0  0  0  0  0
   -4.9910   -0.1700    1.6500 C   0  0  0  0  0  0  0  0  0  0  0  0
   -6.1620    0.5210    1.8310 C   0  0  0  0  0  0  0  0  0  0  0  0
   -6.1420    1.8890    1.6580 C   0  0  0  0  0  0  0  0  0  0  0  0
   -4.9780    2.5470    1.3120 C   0  0  0  0  0  0  0  0  0  0  0  0
   -3.8300    1.8170    1.1410 C   0  0  0  0  0  0  0  0  0  0  0  0
   -5.3180    3.9800    1.2120 C   0  0  0  0  0  0  0  0  0  0  0  0
   -6.8130    3.9070    0.9390 C   0  0  2  0  0  0  0  0  0  0  0  0
   -7.4850    5.1820    1.3230 C   0  0  0  0  0  0  0  0  0  0  0  0
   -7.1800    2.8160    1.7790 O   0  0  0  0  0  0  0  0  0  0  0  0
    2.3680    1.4360    1.7970 C   0  0  0  0  0  0  0  0  0  0  0  0
    3.4500    1.1460    1.0240 C   0  0  0  0  0  0  0  0  0  0  0  0
    6.9140   -0.5100   -2.4030 C   0  0  0  0  0  0  0  0  0  0  0  0
    8.0880   -0.6820   -3.1420 C   0  0  0  0  0  0  0  0  0  0  0  0
  1  2  1  0
  2  3  1  0
  3  4  2  0
  3 48  1  0
  4  5  1  0
  5  6  2  0
  6  7  1  0
  6 47  1  0
  7  8  2  0
  7  9  1  0
  9 10  1  0
 10 11  2  0
 10 46  1  0
 11 12  1  0
 12 13  2  0
 13 14  1  0
 13 45  1  0
 14 15  2  0
 14 16  1  0
 16 17  1  0
 16 23  1  0
 17 18  1  0
 18 19  2  0
 18 22  1  0
 19 20  1  0
 20 21  2  0
 21 22  1  0
 24 23  1  1
 24 25  1  0
 24 35  1  0
 25 26  1  0
 26 27  2  0
 26 31  1  0
 27 28  1  0
 28 29  2  0
 29 30  1  0
 29 34  1  0
 30 31  2  0
 30 32  1  0
 32 33  1  0
 33 34  1  0
 35 36  2  0
 35 40  1  0
 36 37  1  0
 37 38  2  0
 38 39  1  0
 38 44  1  0
 39 40  2  0
 39 41  1  0
 41 42  1  0
 42 43  1  1
 42 44  1  0
 45 46  2  0
 47 48  2  0
M  END
