
     RDKit          3D

 48 52  0  0  0  0  0  0  0  0999 V2000
   -6.4150   -1.3710   -5.0420 C   0  0  0  0  0  0  0  0  0  0  0  0
   -6.9250   -1.1580   -3.7580 O   0  0  0  0  0  0  0  0  0  0  0  0
   -6.3360   -0.2880   -2.8610 C   0  0  0  0  0  0  0  0  0  0  0  0
   -5.2090    0.4300   -3.1540 C   0  0  0  0  0  0  0  0  0  0  0  0
   -4.6680    1.2730   -2.2310 C   0  0  0  0  0  0  0  0  0  0  0  0
   -5.2210    1.4600   -0.9350 C   0  0  0  0  0  0  0  0  0  0  0  0
   -4.6210    2.4670   -0.0920 C   0  0  0  0  0  0  0  0  0  0  0  0
   -4.3840    2.5870    1.1550 C   0  0  0  0  0  0  0  0  0  0  0  0
   -4.6220    1.6930    2.2530 C   0  0  0  0  0  0  0  0  0  0  0  0
   -5.0950    2.2680    3.4650 C   0  0  0  0  0  0  0  0  0  0  0  0
   -5.3410    1.5060    4.5570 C   0  0  0  0  0  0  0  0  0  0  0  0
   -5.1340    0.1460    4.5040 C   0  0  0  0  0  0  0  0  0  0  0  0
   -4.6790   -0.4000    3.3440 C   0  0  0  0  0  0  0  0  0  0  0  0
   -4.4040    0.3590    2.1830 C   0  0  0  0  0  0  0  0  0  0  0  0
   -3.9310   -0.3640    1.0940 O   0  0  0  0  0  0  0  0  0  0  0  0
   -2.5350   -0.2830    0.8900 C   0  0  0  0  0  0  0  0  0  0  0  0
   -1.7550   -1.1620    1.6840 C   0  0  0  0  0  0  0  0  0  0  0  0
   -0.3860   -1.1810    1.5800 C   0  0  0  0  0  0  0  0  0  0  0  0
    0.2740   -0.3500    0.7060 C   0  0  0  0  0  0  0  0  0  0  0  0
    1.7840   -0.4140    0.6200 C   0  0  1  0  0  0  0  0  0  0  0  0
    2.2830    0.9450    0.2610 C   0  0  0  0  0  0  0  0  0  0  0  0
    3.7350    1.0120    0.2040 N   0  0  0  0  0  0  0  0  0  0  0  0
    4.3760    2.2570   -0.1280 C   0  0  0  0  0  0  0  0  0  0  0  0
    3.5870    3.2410   -0.3550 O   0  0  0  0  0  0  0  0  0  0  0  0
    5.8050    2.4140   -0.2080 C   0  0  0  0  0  0  0  0  0  0  0  0
    6.3970    3.6390   -0.4860 C   0  0  0  0  0  0  0  0  0  0  0  0
    7.7660    3.7790   -0.5620 C   0  0  0  0  0  0  0  0  0  0  0  0
    8.5980    2.6790   -0.3590 C   0  0  0  0  0  0  0  0  0  0  0  0
    9.9680    2.8070   -0.4330 O   0  0  0  0  0  0  0  0  0  0  0  0
    8.0250    1.4720   -0.0860 C   0  0  0  0  0  0  0  0  0  0  0  0
    6.6450    1.3510   -0.0130 C   0  0  0  0  0  0  0  0  0  0  0  0
    2.2350   -0.8070    1.9670 C   0  0  0  0  0  0  0  0  0  0  0  0
    1.5340   -0.3460    2.9780 O   0  0  0  0  0  0  0  0  0  0  0  0
    3.3060   -1.6110    2.3690 N   0  0  0  0  0  0  0  0  0  0  0  0
    3.5190   -1.7990    3.8450 C   0  0  0  0  0  0  0  0  0  0  0  0
    4.2630   -2.3450    1.5930 C   0  0  0  0  0  0  0  0  0  0  0  0
    2.1850   -1.3950   -0.3850 C   0  0  0  0  0  0  0  0  0  0  0  0
    2.8250   -0.9670   -1.5260 C   0  0  0  0  0  0  0  0  0  0  0  0
    3.1880   -1.8890   -2.5130 C   0  0  0  0  0  0  0  0  0  0  0  0
    2.9230   -3.2240   -2.3820 C   0  0  0  0  0  0  0  0  0  0  0  0
    3.3180   -4.1830   -3.4480 C   0  0  0  0  0  0  0  0  0  0  0  0
    2.2830   -3.6150   -1.2320 C   0  0  0  0  0  0  0  0  0  0  0  0
    1.9140   -2.7540   -0.2500 C   0  0  0  0  0  0  0  0  0  0  0  0
   -0.4400    0.5030   -0.0680 C   0  0  0  0  0  0  0  0  0  0  0  0
   -1.8490    0.5060    0.0530 C   0  0  0  0  0  0  0  0  0  0  0  0
   -6.3480    0.7400   -0.6630 C   0  0  0  0  0  0  0  0  0  0  0  0
   -7.1470    0.9240    0.5760 C   0  0  0  0  0  0  0  0  0  0  0  0
   -6.8900   -0.1300   -1.6320 C   0  0  0  0  0  0  0  0  0  0  0  0
  1  2  1  0
  2  3  1  0
  3  4  2  0
  3 48  1  0
  4  5  1  0
  5  6  2  0
  6  7  1  0
  6 46  1  0
  7  8  2  3
  8  9  1  0
  9 10  2  0
  9 14  1  0
 10 11  1  0
 11 12  2  0
 12 13  1  0
 13 14  2  0
 14 15  1  0
 15 16  1  0
 16 17  2  0
 16 45  1  0
 17 18  1  0
 18 19  2  0
 19 20  1  0
 19 44  1  0
 20 21  1  6
 20 32  1  0
 20 37  1  0
 21 22  1  0
 22 23  1  0
 23 24  2  0
 23 25  1  0
 25 26  2  0
 25 31  1  0
 26 27  1  0
 27 28  2  0
 28 29  1  0
 28 30  1  0
 30 31  2  0
 32 33  2  0
 32 34  1  0
 34 35  1  0
 34 36  1  0
 37 38  2  0
 37 43  1  0
 38 39  1  0
 39 40  2  0
 40 41  1  0
 40 42  1  0
 42 43  2  0
 44 45  2  0
 46 47  1  0
 46 48  2  0
M  END
