
     RDKit          3D

 48 53  0  0  0  0  0  0  0  0999 V2000
   -3.7730   -4.7820    2.7870 C   0  0  0  0  0  0  0  0  0  0  0  0
   -4.0930   -4.0350    1.6300 O   0  0  0  0  0  0  0  0  0  0  0  0
   -4.9390   -4.4630    0.6290 C   0  0  0  0  0  0  0  0  0  0  0  0
   -5.5740   -5.6880    0.6580 C   0  0  0  0  0  0  0  0  0  0  0  0
   -6.4030   -6.0460   -0.3730 C   0  0  0  0  0  0  0  0  0  0  0  0
   -6.6190   -5.1980   -1.4490 C   0  0  0  0  0  0  0  0  0  0  0  0
   -5.9890   -3.9630   -1.4930 C   0  0  0  0  0  0  0  0  0  0  0  0
   -5.1680   -3.6350   -0.4530 C   0  0  0  0  0  0  0  0  0  0  0  0
   -4.4980   -2.3340   -0.4880 N   0  0  0  0  0  0  0  0  0  0  0  0
   -3.1260   -2.3850   -0.7200 C   0  0  0  0  0  0  0  0  0  0  0  0
   -2.5390   -3.4950   -0.9960 O   0  0  0  0  0  0  0  0  0  0  0  0
   -2.2680   -1.2280   -0.6630 C   0  0  0  0  0  0  0  0  0  0  0  0
   -0.9980   -1.3930   -0.8990 C   0  0  0  0  0  0  0  0  0  0  0  0
    0.0270   -0.3800   -0.8890 C   0  0  0  0  0  0  0  0  0  0  0  0
   -0.2810    0.9260   -0.5890 C   0  0  0  0  0  0  0  0  0  0  0  0
    0.7350    1.8660   -0.5300 C   0  0  0  0  0  0  0  0  0  0  0  0
    2.0400    1.4910   -0.7720 C   0  0  0  0  0  0  0  0  0  0  0  0
    2.3370    0.1970   -1.0720 C   0  0  0  0  0  0  0  0  0  0  0  0
    1.3590   -0.7640   -1.1390 C   0  0  0  0  0  0  0  0  0  0  0  0
    1.6960   -2.1630   -1.4510 C   0  0  0  0  0  0  0  0  0  0  0  0
    3.0480    2.5030   -0.6660 N   0  0  0  0  0  0  0  0  0  0  0  0
    4.3520    2.0780   -0.2850 C   0  0  0  0  0  0  0  0  0  0  0  0
    5.4780    2.7250   -0.7550 C   0  0  0  0  0  0  0  0  0  0  0  0
    6.7500    2.3200   -0.3920 C   0  0  0  0  0  0  0  0  0  0  0  0
    6.9580    1.2420    0.4600 C   0  0  0  0  0  0  0  0  0  0  0  0
    8.2860    0.7780    0.8240 C   0  0  0  0  0  0  0  0  0  0  0  0
    8.6240    0.2020    2.0240 C   0  0  0  0  0  0  0  0  0  0  0  0
    9.9000   -0.2650    2.3320 C   0  0  0  0  0  0  0  0  0  0  0  0
   10.8950   -0.1450    1.3800 C   0  0  0  0  0  0  0  0  0  0  0  0
   12.2750   -0.6410    1.6720 C   0  0  0  0  0  0  0  0  0  0  0  0
   10.5870    0.4240    0.1790 C   0  0  0  0  0  0  0  0  0  0  0  0
    9.3260    0.8800   -0.1150 C   0  0  0  0  0  0  0  0  0  0  0  0
    5.8370    0.5930    0.9330 C   0  0  0  0  0  0  0  0  0  0  0  0
    4.5710    1.0190    0.5560 C   0  0  0  0  0  0  0  0  0  0  0  0
    2.7860    3.8840   -0.9030 C   0  0  0  0  0  0  0  0  0  0  0  0
    1.3500    4.2630   -0.6120 C   0  0  0  0  0  0  0  0  0  0  0  0
    0.5300    3.2020   -0.2390 O   0  0  0  0  0  0  0  0  0  0  0  0
   -5.2660   -1.1750   -0.3230 C   0  0  0  0  0  0  0  0  0  0  0  0
   -5.8000   -0.7870    0.9050 C   0  0  0  0  0  0  0  0  0  0  0  0
   -6.6100    0.3140    1.0570 C   0  0  0  0  0  0  0  0  0  0  0  0
   -6.9220    1.0960   -0.0620 C   0  0  0  0  0  0  0  0  0  0  0  0
   -7.8340    2.2480    0.1420 C   0  0  0  0  0  0  0  0  0  0  0  0
   -7.3780    3.4110    0.5260 O   0  0  0  0  0  0  0  0  0  0  0  0
   -6.6140    4.2570   -0.0910 C   0  0  0  0  0  0  0  0  0  0  0  0
   -5.2060    3.8520   -0.4460 C   0  0  0  0  0  0  0  0  0  0  0  0
   -4.5630    4.9680   -1.0870 O   0  0  0  0  0  0  0  0  0  0  0  0
   -6.3810    0.6950   -1.2610 C   0  0  0  0  0  0  0  0  0  0  0  0
   -5.5720   -0.4000   -1.4300 C   0  0  0  0  0  0  0  0  0  0  0  0
  1  2  1  0
  2  3  1  0
  3  4  2  0
  3  8  1  0
  4  5  1  0
  5  6  2  0
  6  7  1  0
  7  8  2  0
  8  9  1  0
  9 10  1  0
  9 38  1  0
 10 11  2  0
 10 12  1  0
 12 13  2  3
 13 14  1  0
 14 15  2  0
 14 19  1  0
 15 16  1  0
 16 17  2  0
 16 37  1  0
 17 18  1  0
 17 21  1  0
 18 19  2  0
 19 20  1  0
 21 22  1  0
 21 35  1  0
 22 23  2  0
 22 34  1  0
 23 24  1  0
 24 25  2  0
 25 26  1  0
 25 33  1  0
 26 27  2  0
 26 32  1  0
 27 28  1  0
 28 29  2  0
 29 30  1  0
 29 31  1  0
 31 32  2  0
 33 34  2  0
 35 36  1  0
 36 37  1  0
 38 39  2  0
 38 48  1  0
 39 40  1  0
 40 41  2  0
 41 42  1  0
 41 47  1  0
 42 43  1  0
 43 44  1  0
 44 45  1  0
 45 46  1  0
 47 48  2  0
M  END
