
     RDKit          3D

 49 54  0  0  0  0  0  0  0  0999 V2000
   -3.9020    6.6630    0.9640 C   0  0  0  0  0  0  0  0  0  0  0  0
   -3.7450    5.2900    0.9450 O   0  0  0  0  0  0  0  0  0  0  0  0
   -2.8660    4.6730    0.0730 C   0  0  0  0  0  0  0  0  0  0  0  0
   -2.1080    5.3600   -0.8290 C   0  0  0  0  0  0  0  0  0  0  0  0
   -1.2480    4.6420   -1.6630 C   0  0  0  0  0  0  0  0  0  0  0  0
   -1.1830    3.2720   -1.5600 C   0  0  0  0  0  0  0  0  0  0  0  0
   -1.9450    2.5630   -0.6510 C   0  0  0  0  0  0  0  0  0  0  0  0
   -1.8130    1.1160   -0.5110 C   0  0  0  0  0  0  0  0  0  0  0  0
   -2.8490    0.3270   -0.5780 C   0  0  0  0  0  0  0  0  0  0  0  0
   -4.1810    1.0030   -0.8230 C   0  0  0  0  0  0  0  0  0  0  0  0
   -4.3360    1.8650   -1.8680 C   0  0  0  0  0  0  0  0  0  0  0  0
   -5.5530    2.5010   -1.9980 C   0  0  0  0  0  0  0  0  0  0  0  0
   -6.5850    2.2870   -1.1170 C   0  0  0  0  0  0  0  0  0  0  0  0
   -6.4080    1.3960   -0.0510 C   0  0  0  0  0  0  0  0  0  0  0  0
   -5.1920    0.7760    0.0580 C   0  0  0  0  0  0  0  0  0  0  0  0
   -2.9720   -1.0480   -0.3010 N   0  0  0  0  0  0  0  0  0  0  0  0
   -4.0890   -1.7690   -0.8900 C   0  0  0  0  0  0  0  0  0  0  0  0
   -4.8620   -1.1590   -1.6780 O   0  0  0  0  0  0  0  0  0  0  0  0
   -4.3150   -3.1720   -0.5850 C   0  0  0  0  0  0  0  0  0  0  0  0
   -3.5420   -3.8540    0.2070 C   0  0  0  0  0  0  0  0  0  0  0  0
   -3.8380   -5.2870    0.4760 C   0  0  0  0  0  0  0  0  0  0  0  0
   -2.3290   -3.2830    0.8380 C   0  0  2  0  0  0  0  0  0  0  0  0
   -1.0870   -4.0570    0.5550 C   0  0  0  0  0  0  0  0  0  0  0  0
   -2.6060   -3.3870    2.3550 C   0  0  0  0  0  0  0  0  0  0  0  0
   -2.1810   -1.8200    0.5730 C   0  0  0  0  0  0  0  0  0  0  0  0
   -1.2580   -1.2770    1.2190 O   0  0  0  0  0  0  0  0  0  0  0  0
   -0.3970    0.7040   -0.4010 C   0  0  0  0  0  0  0  0  0  0  0  0
    0.1600   -0.2510   -1.2270 C   0  0  0  0  0  0  0  0  0  0  0  0
    1.5080   -0.6170   -1.0940 C   0  0  0  0  0  0  0  0  0  0  0  0
    2.2860   -0.0290   -0.1430 C   0  0  0  0  0  0  0  0  0  0  0  0
    3.6990   -0.4200   -0.0230 N   0  0  0  0  0  0  0  0  0  0  0  0
    4.1320   -1.0640    1.1130 C   0  0  0  0  0  0  0  0  0  0  0  0
    3.2240   -1.3070    2.0130 O   0  0  0  0  0  0  0  0  0  0  0  0
    5.4520   -1.5100    1.4490 C   0  0  0  0  0  0  0  0  0  0  0  0
    6.5750   -1.3470    0.6780 C   0  0  0  0  0  0  0  0  0  0  0  0
    7.8340   -1.8080    1.0600 C   0  0  0  0  0  0  0  0  0  0  0  0
    8.0240   -2.4650    2.2590 C   0  0  0  0  0  0  0  0  0  0  0  0
    9.2540   -2.9290    2.6640 O   0  0  0  0  0  0  0  0  0  0  0  0
    6.9020   -2.6300    3.0310 C   0  0  0  0  0  0  0  0  0  0  0  0
    5.6660   -2.1830    2.6650 C   0  0  0  0  0  0  0  0  0  0  0  0
    4.4250   -0.0430   -1.1790 C   0  0  0  0  0  0  0  0  0  0  0  0
    4.5560   -0.9420   -2.2120 C   0  0  0  0  0  0  0  0  0  0  0  0
    5.2090   -0.5750   -3.3590 C   0  0  0  0  0  0  0  0  0  0  0  0
    5.7330    0.6900   -3.4760 C   0  0  0  0  0  0  0  0  0  0  0  0
    5.6060    1.5980   -2.4390 C   0  0  0  0  0  0  0  0  0  0  0  0
    4.9590    1.2470   -1.2960 C   0  0  0  0  0  0  0  0  0  0  0  0
    1.7550    0.9210    0.6850 C   0  0  0  0  0  0  0  0  0  0  0  0
    0.4250    1.2790    0.5510 C   0  0  0  0  0  0  0  0  0  0  0  0
   -2.7850    3.2650    0.1630 C   0  0  0  0  0  0  0  0  0  0  0  0
  1  2  1  0
  2  3  1  0
  3  4  2  0
  3 49  1  0
  4  5  1  0
  5  6  2  0
  6  7  1  0
  7  8  1  0
  7 49  2  0
  8  9  2  3
  8 27  1  0
  9 10  1  0
  9 16  1  0
 10 11  2  0
 10 15  1  0
 11 12  1  0
 12 13  2  0
 13 14  1  0
 14 15  2  0
 16 17  1  0
 16 25  1  0
 17 18  2  0
 17 19  1  0
 19 20  2  0
 20 21  1  0
 20 22  1  0
 22 23  1  1
 22 24  1  0
 22 25  1  0
 25 26  2  0
 27 28  2  0
 27 48  1  0
 28 29  1  0
 29 30  2  0
 30 31  1  0
 30 47  1  0
 31 32  1  0
 31 41  1  0
 32 33  2  0
 32 34  1  0
 34 35  2  0
 34 40  1  0
 35 36  1  0
 36 37  2  0
 37 38  1  0
 37 39  1  0
 39 40  2  0
 41 42  2  0
 41 46  1  0
 42 43  1  0
 43 44  2  0
 44 45  1  0
 45 46  2  0
 47 48  2  0
M  END
