
     RDKit          3D

 48 53  0  0  0  0  0  0  0  0999 V2000
    0.0280    8.4920   -0.9110 C   0  0  0  0  0  0  0  0  0  0  0  0
    0.6170    7.1420   -1.2970 C   0  0  0  0  0  0  0  0  0  0  0  0
    0.3780    6.2560   -0.2190 O   0  0  0  0  0  0  0  0  0  0  0  0
    0.7980    4.9300   -0.2620 C   0  0  0  0  0  0  0  0  0  0  0  0
    1.4630    4.4250   -1.3520 C   0  0  0  0  0  0  0  0  0  0  0  0
    1.8720    3.0980   -1.3720 C   0  0  0  0  0  0  0  0  0  0  0  0
    1.5980    2.3130   -0.2830 C   0  0  0  0  0  0  0  0  0  0  0  0
    2.0120    0.9160   -0.2360 C   0  0  0  0  0  0  0  0  0  0  0  0
    3.3130    0.6360   -0.5510 C   0  0  0  0  0  0  0  0  0  0  0  0
    3.8180   -0.6560   -0.5220 C   0  0  0  0  0  0  0  0  0  0  0  0
    2.9710   -1.6810   -0.1640 C   0  0  0  0  0  0  0  0  0  0  0  0
    3.4170   -3.0940   -0.1020 C   0  0  0  0  0  0  0  0  0  0  0  0
    4.7930   -3.2500   -0.2240 O   0  0  0  0  0  0  0  0  0  0  0  0
    5.6430   -2.6680    0.7030 C   0  0  0  0  0  0  0  0  0  0  0  0
    5.2050   -1.9880    1.6780 O   0  0  0  0  0  0  0  0  0  0  0  0
    7.0820   -2.8640    0.5240 C   0  0  0  0  0  0  0  0  0  0  0  0
    7.5720   -3.6020   -0.5300 C   0  0  0  0  0  0  0  0  0  0  0  0
    8.9270   -3.7880   -0.7050 C   0  0  0  0  0  0  0  0  0  0  0  0
    9.8550   -3.2470    0.1660 C   0  0  0  0  0  0  0  0  0  0  0  0
   11.2900   -3.4940   -0.0920 C   0  0  0  0  0  0  0  0  0  0  0  0
    9.3810   -2.5040    1.2280 C   0  0  0  0  0  0  0  0  0  0  0  0
    8.0090   -2.3220    1.3940 C   0  0  0  0  0  0  0  0  0  0  0  0
    1.6760   -1.3700    0.1450 C   0  0  0  0  0  0  0  0  0  0  0  0
    1.1480   -0.1080    0.1280 C   0  0  0  0  0  0  0  0  0  0  0  0
   -0.2140    0.2240    0.3570 N   0  0  0  0  0  0  0  0  0  0  0  0
   -1.0560   -0.5860    1.1160 C   0  0  0  0  0  0  0  0  0  0  0  0
   -0.4530   -1.3410    2.1290 C   0  0  0  0  0  0  0  0  0  0  0  0
   -1.2060   -2.1060    2.9820 C   0  0  0  0  0  0  0  0  0  0  0  0
   -2.5750   -2.1150    2.8250 C   0  0  0  0  0  0  0  0  0  0  0  0
   -3.1600   -1.3630    1.8210 C   0  0  0  0  0  0  0  0  0  0  0  0
   -2.4050   -0.5800    0.9430 C   0  0  0  0  0  0  0  0  0  0  0  0
   -3.1000    0.1820   -0.0650 C   0  0  2  0  0  0  0  0  0  0  0  0
   -4.5650   -0.0650   -0.0110 N   0  0  0  0  0  0  0  0  0  0  0  0
   -5.1440   -1.2890   -0.4210 C   0  0  0  0  0  0  0  0  0  0  0  0
   -4.3720   -2.2120   -0.8420 O   0  0  0  0  0  0  0  0  0  0  0  0
   -6.5770   -1.4730   -0.3580 C   0  0  0  0  0  0  0  0  0  0  0  0
   -7.1300   -2.7390   -0.6060 C   0  0  0  0  0  0  0  0  0  0  0  0
   -8.4890   -2.9760   -0.5660 C   0  0  0  0  0  0  0  0  0  0  0  0
   -9.3430   -1.9310   -0.2710 C   0  0  0  0  0  0  0  0  0  0  0  0
  -10.7990   -2.1600   -0.2230 C   0  0  0  0  0  0  0  0  0  0  0  0
   -8.8370   -0.6920   -0.0260 C   0  0  0  0  0  0  0  0  0  0  0  0
   -7.4590   -0.4740   -0.0720 C   0  0  0  0  0  0  0  0  0  0  0  0
   -2.7000    0.0540   -1.4790 C   0  0  0  0  0  0  0  0  0  0  0  0
   -3.1520    1.4190   -2.0340 C   0  0  0  0  0  0  0  0  0  0  0  0
   -2.7130    2.2690   -1.0490 O   0  0  0  0  0  0  0  0  0  0  0  0
   -2.9950    1.7020    0.1640 C   0  0  0  0  0  0  0  0  0  0  0  0
    0.9330    2.8320    0.7990 C   0  0  0  0  0  0  0  0  0  0  0  0
    0.5210    4.1360    0.8370 C   0  0  0  0  0  0  0  0  0  0  0  0
  1  2  1  0
  2  3  1  0
  3  4  1  0
  4  5  2  0
  4 48  1  0
  5  6  1  0
  6  7  2  0
  7  8  1  0
  7 47  1  0
  8  9  2  0
  8 24  1  0
  9 10  1  0
 10 11  2  0
 11 12  1  0
 11 23  1  0
 12 13  1  0
 13 14  1  0
 14 15  2  0
 14 16  1  0
 16 17  2  0
 16 22  1  0
 17 18  1  0
 18 19  2  0
 19 20  1  0
 19 21  1  0
 21 22  2  0
 23 24  2  0
 24 25  1  0
 25 26  1  0
 26 27  2  0
 26 31  1  0
 27 28  1  0
 28 29  2  0
 29 30  1  0
 30 31  2  0
 31 32  1  0
 32 33  1  6
 32 43  1  0
 32 46  1  0
 33 34  1  0
 34 35  2  0
 34 36  1  0
 36 37  2  0
 36 42  1  0
 37 38  1  0
 38 39  2  0
 39 40  1  0
 39 41  1  0
 41 42  2  0
 43 44  1  0
 44 45  1  0
 45 46  1  0
 47 48  2  0
M  END
