
     RDKit          3D

 49 55  0  0  0  0  0  0  0  0999 V2000
   -0.6440    1.5460    2.3510 C   0  0  0  0  0  0  0  0  0  0  0  0
   -0.1020    1.3840    1.0280 N   0  0  0  0  0  0  0  0  0  0  0  0
   -0.8610    1.8780   -0.0790 C   0  0  0  0  0  0  0  0  0  0  0  0
   -0.3840    1.6920   -1.1980 O   0  0  0  0  0  0  0  0  0  0  0  0
   -2.1200    2.5590    0.2200 C   0  0  0  0  0  0  0  0  0  0  0  0
   -2.0440    3.9610    0.3620 C   0  0  0  0  0  0  0  0  0  0  0  0
   -3.1130    4.7340    0.7210 C   0  0  0  0  0  0  0  0  0  0  0  0
   -3.0300    6.1070    0.8590 C   0  0  0  0  0  0  0  0  0  0  0  0
   -4.1320    6.8480    1.2230 C   0  0  0  0  0  0  0  0  0  0  0  0
   -5.3480    6.2470    1.4600 C   0  0  0  0  0  0  0  0  0  0  0  0
   -5.4170    4.8790    1.3200 C   0  0  0  0  0  0  0  0  0  0  0  0
   -4.3190    4.0990    0.9520 C   0  0  0  0  0  0  0  0  0  0  0  0
   -4.4000    2.7450    0.8160 C   0  0  0  0  0  0  0  0  0  0  0  0
   -3.2960    1.9510    0.4440 C   0  0  0  0  0  0  0  0  0  0  0  0
   -3.5900    0.5460    0.2370 C   0  0  0  0  0  0  0  0  0  0  0  0
   -4.6660    0.1610    0.8400 O   0  0  0  0  0  0  0  0  0  0  0  0
   -2.9020   -0.4930   -0.5180 C   0  0  1  0  0  0  0  0  0  0  0  0
   -3.3200   -1.8420   -0.0030 C   0  0  0  0  0  0  0  0  0  0  0  0
   -2.3840   -2.6350    0.6970 C   0  0  0  0  0  0  0  0  0  0  0  0
   -2.7060   -3.8200    1.2960 C   0  0  0  0  0  0  0  0  0  0  0  0
   -3.9840   -4.2790    1.2270 C   0  0  0  0  0  0  0  0  0  0  0  0
   -4.9530   -3.5600    0.5570 C   0  0  0  0  0  0  0  0  0  0  0  0
   -6.2440   -4.0550    0.4560 C   0  0  0  0  0  0  0  0  0  0  0  0
   -7.1980   -3.3590   -0.2510 C   0  0  0  0  0  0  0  0  0  0  0  0
   -6.8650   -2.1750   -0.8540 C   0  0  0  0  0  0  0  0  0  0  0  0
   -5.5750   -1.7140   -0.7310 C   0  0  0  0  0  0  0  0  0  0  0  0
   -4.5780   -2.3550   -0.0410 C   0  0  0  0  0  0  0  0  0  0  0  0
   -2.8810   -0.3580   -2.2630 P   0  0  0  0  0  0  0  0  0  0  0  0
   -3.2110   -1.8070   -2.6220 O   0  0  0  0  0  0  0  0  0  0  0  0
   -4.1040    0.1580   -3.1960 O   0  0  0  0  0  0  0  0  0  0  0  0
   -1.3610   -0.5690   -3.0090 O   0  0  0  0  0  0  0  0  0  0  0  0
    1.1990    0.7770    0.8800 C   0  0  1  0  0  0  0  0  0  0  0  0
    1.2670   -0.3890   -0.0370 C   0  0  0  0  0  0  0  0  0  0  0  0
    2.7460   -0.8760    0.0190 C   0  0  0  0  0  0  0  0  0  0  0  0
    3.6390    0.1610   -0.4150 N   0  0  0  0  0  0  0  0  0  0  0  0
    5.0320    0.1260   -0.5480 C   0  0  0  0  0  0  0  0  0  0  0  0
    5.5570    1.2520   -0.9800 O   0  0  0  0  0  0  0  0  0  0  0  0
    5.9920   -0.9000   -0.3060 C   0  0  0  0  0  0  0  0  0  0  0  0
    5.6910   -2.1320    0.1830 C   0  0  0  0  0  0  0  0  0  0  0  0
    6.6900   -3.0900    0.3780 C   0  0  0  0  0  0  0  0  0  0  0  0
    8.0040   -2.8380    0.0890 C   0  0  0  0  0  0  0  0  0  0  0  0
    8.9930   -3.7860    0.2800 C   0  0  0  0  0  0  0  0  0  0  0  0
   10.3070   -3.5280   -0.0130 C   0  0  0  0  0  0  0  0  0  0  0  0
   10.6250   -2.2830   -0.5100 C   0  0  0  0  0  0  0  0  0  0  0  0
    9.6530   -1.3240   -0.7060 C   0  0  0  0  0  0  0  0  0  0  0  0
    8.3200   -1.5960   -0.4060 C   0  0  0  0  0  0  0  0  0  0  0  0
    7.3370   -0.6610   -0.5950 C   0  0  0  0  0  0  0  0  0  0  0  0
    2.9440    1.4350   -0.7670 C   0  0  0  0  0  0  0  0  0  0  0  0
    2.1940    1.8690    0.4530 C   0  0  0  0  0  0  0  0  0  0  0  0
  1  2  1  0
  2  3  1  0
 32  2  1  6
  3  4  2  0
  3  5  1  0
  5  6  2  0
  5 14  1  0
  6  7  1  0
  7  8  2  0
  7 12  1  0
  8  9  1  0
  9 10  2  0
 10 11  1  0
 11 12  2  0
 12 13  1  0
 13 14  2  0
 14 15  1  0
 15 16  2  0
 15 17  1  0
 17 18  1  0
 17 28  1  6
 18 19  2  0
 18 27  1  0
 19 20  1  0
 20 21  2  0
 21 22  1  0
 22 23  2  0
 22 27  1  0
 23 24  1  0
 24 25  2  0
 25 26  1  0
 26 27  2  0
 28 29  1  0
 28 30  1  0
 28 31  1  0
 32 33  1  0
 32 49  1  0
 33 34  1  0
 34 35  1  0
 35 36  1  0
 35 48  1  0
 36 37  2  0
 36 38  1  0
 38 39  2  0
 38 47  1  0
 39 40  1  0
 40 41  2  0
 41 42  1  0
 41 46  1  0
 42 43  2  0
 43 44  1  0
 44 45  2  0
 45 46  1  0
 46 47  2  0
 48 49  1  0
M  END
