
     RDKit          3D

 48 54  0  0  0  0  0  0  0  0999 V2000
   11.9450   -0.8570   -2.6840 C   0  0  0  0  0  0  0  0  0  0  0  0
   11.0250   -0.5470   -3.7420 O   0  0  0  0  0  0  0  0  0  0  0  0
    9.7020   -0.2930   -3.3650 C   0  0  0  0  0  0  0  0  0  0  0  0
    9.3010   -0.3380   -2.0510 C   0  0  0  0  0  0  0  0  0  0  0  0
    7.9690   -0.0810   -1.6840 C   0  0  0  0  0  0  0  0  0  0  0  0
    7.0280    0.2240   -2.6310 C   0  0  0  0  0  0  0  0  0  0  0  0
    5.6060    0.5050   -2.3190 C   0  0  0  0  0  0  0  0  0  0  0  0
    4.8750    0.9950   -3.2160 O   0  0  0  0  0  0  0  0  0  0  0  0
    5.0890    0.2280   -1.0440 N   0  0  0  0  0  0  0  0  0  0  0  0
    3.7550    0.4620   -0.6240 C   0  0  0  0  0  0  0  0  0  0  0  0
    2.8230    1.2120   -1.2800 C   0  0  0  0  0  0  0  0  0  0  0  0
    1.5390    1.3970   -0.8440 C   0  0  0  0  0  0  0  0  0  0  0  0
    1.1000    0.8000    0.3500 C   0  0  0  0  0  0  0  0  0  0  0  0
   -0.2480    1.0410    0.8120 C   0  0  0  0  0  0  0  0  0  0  0  0
   -0.8740    1.9400    0.0620 O   0  0  0  0  0  0  0  0  0  0  0  0
   -0.9870    0.5190    1.8650 N   0  0  0  0  0  0  0  0  0  0  0  0
   -0.6460   -0.4690    2.8200 C   0  0  0  0  0  0  0  0  0  0  0  0
    0.0080    0.0840    4.0580 C   0  0  0  0  0  0  0  0  0  0  0  0
    0.3630    1.4100    4.2320 C   0  0  0  0  0  0  0  0  0  0  0  0
    0.9230    1.4780    5.4880 C   0  0  0  0  0  0  0  0  0  0  0  0
    0.8860    0.2090    6.0180 C   0  0  0  0  0  0  0  0  0  0  0  0
    0.3400   -0.5590    5.1350 O   0  0  0  0  0  0  0  0  0  0  0  0
   -2.3710    1.0870    2.0460 C   0  0  0  0  0  0  0  0  0  0  0  0
   -3.2710    0.1920    1.2230 C   0  0  2  0  0  0  0  0  0  0  0  0
   -2.8660    0.2040   -0.1070 O   0  0  0  0  0  0  0  0  0  0  0  0
   -2.5680   -0.8370   -0.9270 C   0  0  0  0  0  0  0  0  0  0  0  0
   -2.1710   -0.5410   -2.2410 C   0  0  0  0  0  0  0  0  0  0  0  0
   -1.8730   -1.5930   -3.0610 C   0  0  0  0  0  0  0  0  0  0  0  0
   -1.9560   -2.8970   -2.6270 C   0  0  0  0  0  0  0  0  0  0  0  0
   -2.3420   -3.1710   -1.3520 C   0  0  0  0  0  0  0  0  0  0  0  0
   -2.6530   -2.1320   -0.4890 C   0  0  0  0  0  0  0  0  0  0  0  0
   -2.3630   -4.6430   -1.1120 C   0  0  0  0  0  0  0  0  0  0  0  0
   -1.3920   -5.1190   -2.1760 C   0  0  0  0  0  0  0  0  0  0  0  0
   -1.6930   -4.1780   -3.3220 C   0  0  0  0  0  0  0  0  0  0  0  0
   -4.6970    0.6270    1.3410 C   0  0  0  0  0  0  0  0  0  0  0  0
   -5.5370   -0.0780    2.1650 C   0  0  0  0  0  0  0  0  0  0  0  0
   -6.8640    0.2420    2.3390 C   0  0  0  0  0  0  0  0  0  0  0  0
   -7.3490    1.3480    1.6250 C   0  0  0  0  0  0  0  0  0  0  0  0
   -6.5430    2.0830    0.7880 C   0  0  0  0  0  0  0  0  0  0  0  0
   -5.2120    1.6960    0.6660 C   0  0  0  0  0  0  0  0  0  0  0  0
   -7.3390    3.1840    0.1760 C   0  0  0  0  0  0  0  0  0  0  0  0
   -8.5960    3.1650    0.9950 C   0  0  2  0  0  0  0  0  0  0  0  0
   -8.5650    4.1890    2.1270 C   0  0  0  0  0  0  0  0  0  0  0  0
   -8.6140    1.8910    1.6030 O   0  0  0  0  0  0  0  0  0  0  0  0
    2.0160    0.0360    1.0380 C   0  0  0  0  0  0  0  0  0  0  0  0
    3.3110   -0.1300    0.5650 C   0  0  0  0  0  0  0  0  0  0  0  0
    7.4370    0.2690   -3.9520 C   0  0  0  0  0  0  0  0  0  0  0  0
    8.7440    0.0160   -4.3100 C   0  0  0  0  0  0  0  0  0  0  0  0
  1  2  1  0
  2  3  1  0
  3  4  2  0
  3 48  1  0
  4  5  1  0
  5  6  2  0
  6  7  1  0
  6 47  1  0
  7  8  2  0
  7  9  1  0
  9 10  1  0
 10 11  2  0
 10 46  1  0
 11 12  1  0
 12 13  2  0
 13 14  1  0
 13 45  1  0
 14 15  2  0
 14 16  1  0
 16 17  1  0
 16 23  1  0
 17 18  1  0
 18 19  2  0
 18 22  1  0
 19 20  1  0
 20 21  2  0
 21 22  1  0
 24 23  1  1
 24 25  1  0
 24 35  1  0
 25 26  1  0
 26 27  2  0
 26 31  1  0
 27 28  1  0
 28 29  2  0
 29 30  1  0
 29 34  1  0
 30 31  2  0
 30 32  1  0
 32 33  1  0
 33 34  1  0
 35 36  2  0
 35 40  1  0
 36 37  1  0
 37 38  2  0
 38 39  1  0
 38 44  1  0
 39 40  2  0
 39 41  1  0
 41 42  1  0
 42 43  1  1
 42 44  1  0
 45 46  2  0
 47 48  2  0
M  END
