
     RDKit          3D

 48 53  0  0  0  0  0  0  0  0999 V2000
   10.9290   -1.5760   -0.1040 C   0  0  0  0  0  0  0  0  0  0  0  0
    9.5290   -2.0980    0.0090 C   0  0  0  0  0  0  0  0  0  0  0  0
    9.2010   -3.2370    0.6780 C   0  0  0  0  0  0  0  0  0  0  0  0
    7.8770   -3.6700    0.7960 C   0  0  0  0  0  0  0  0  0  0  0  0
    6.9070   -2.9280    0.2240 C   0  0  0  0  0  0  0  0  0  0  0  0
    5.5090   -3.3430    0.2430 C   0  0  0  0  0  0  0  0  0  0  0  0
    4.5340   -2.5080    0.4260 C   0  0  0  0  0  0  0  0  0  0  0  0
    4.6320   -1.1080    0.6670 C   0  0  0  0  0  0  0  0  0  0  0  0
    5.6560   -0.3930    1.3010 C   0  0  0  0  0  0  0  0  0  0  0  0
    5.6750    0.9820    1.4140 C   0  0  0  0  0  0  0  0  0  0  0  0
    4.6180    1.6720    0.8630 C   0  0  0  0  0  0  0  0  0  0  0  0
    3.5970    0.9880    0.2370 C   0  0  0  0  0  0  0  0  0  0  0  0
    3.6020   -0.3340    0.1450 C   0  0  0  0  0  0  0  0  0  0  0  0
    2.3840    1.6970   -0.1590 N   0  0  0  0  0  0  0  0  0  0  0  0
    1.1900    0.9350   -0.1280 C   0  0  0  0  0  0  0  0  0  0  0  0
   -0.0240    1.3050   -0.2680 C   0  0  0  0  0  0  0  0  0  0  0  0
   -1.1460    0.3790   -0.2570 C   0  0  0  0  0  0  0  0  0  0  0  0
   -1.1920   -0.8620   -0.7490 C   0  0  0  0  0  0  0  0  0  0  0  0
   -2.5300   -1.3750   -0.6440 C   0  0  0  0  0  0  0  0  0  0  0  0
   -2.7760   -2.7170   -1.1410 C   0  0  0  0  0  0  0  0  0  0  0  0
   -3.8630   -3.5130   -0.7940 N   0  0  0  0  0  0  0  0  0  0  0  0
   -5.2610   -3.3130   -0.8230 C   0  0  0  0  0  0  0  0  0  0  0  0
   -5.6540   -2.1630   -1.2340 O   0  0  0  0  0  0  0  0  0  0  0  0
   -6.2260   -4.3590   -0.4170 C   0  0  0  0  0  0  0  0  0  0  0  0
   -7.4780   -4.0380    0.0600 C   0  0  0  0  0  0  0  0  0  0  0  0
   -8.4030   -5.0040    0.4660 C   0  0  0  0  0  0  0  0  0  0  0  0
   -8.0960   -6.3270    0.4020 C   0  0  0  0  0  0  0  0  0  0  0  0
   -9.0300   -7.4490    0.7290 C   0  0  0  0  0  0  0  0  0  0  0  0
   -6.8440   -6.6640   -0.0820 C   0  0  0  0  0  0  0  0  0  0  0  0
   -5.9280   -5.7230   -0.4850 C   0  0  0  0  0  0  0  0  0  0  0  0
   -3.1910   -0.3990   -0.0800 O   0  0  0  0  0  0  0  0  0  0  0  0
   -2.4560    0.6490    0.1800 C   0  0  0  0  0  0  0  0  0  0  0  0
   -2.6870    1.9570    0.8240 C   0  0  0  0  0  0  0  0  0  0  0  0
   -3.4300    2.8940    0.5440 O   0  0  0  0  0  0  0  0  0  0  0  0
   -4.4000    3.8080    0.2380 C   0  0  0  0  0  0  0  0  0  0  0  0
   -5.5440    3.3510    0.1170 O   0  0  0  0  0  0  0  0  0  0  0  0
   -4.0810    5.2340    0.0850 C   0  0  0  0  0  0  0  0  0  0  0  0
   -5.0630    6.2200    0.2490 C   0  0  0  0  0  0  0  0  0  0  0  0
   -4.7540    7.5520    0.0290 C   0  0  0  0  0  0  0  0  0  0  0  0
   -3.4750    7.9260   -0.3700 C   0  0  0  0  0  0  0  0  0  0  0  0
   -3.2340    9.3830   -0.5740 C   0  0  0  0  0  0  0  0  0  0  0  0
   -2.5350    6.9720   -0.5390 C   0  0  0  0  0  0  0  0  0  0  0  0
   -2.8200    5.6450   -0.3180 C   0  0  0  0  0  0  0  0  0  0  0  0
    2.4400    3.0850   -0.4650 C   0  0  0  0  0  0  0  0  0  0  0  0
    3.7280    3.7220   -0.0970 C   0  0  0  0  0  0  0  0  0  0  0  0
    4.4870    3.0400    0.8950 O   0  0  0  0  0  0  0  0  0  0  0  0
    7.2200   -1.7320   -0.4870 C   0  0  0  0  0  0  0  0  0  0  0  0
    8.5180   -1.3210   -0.5920 C   0  0  0  0  0  0  0  0  0  0  0  0
  1  2  1  0
  2  3  2  0
  2 48  1  0
  3  4  1  0
  4  5  2  0
  5  6  1  0
  5 47  1  0
  6  7  2  3
  7  8  1  0
  8  9  2  0
  8 13  1  0
  9 10  1  0
 10 11  2  0
 11 12  1  0
 11 46  1  0
 12 13  2  0
 12 14  1  0
 14 15  1  0
 14 44  1  0
 15 16  2  3
 16 17  1  0
 17 18  1  0
 17 32  2  0
 18 19  2  0
 19 20  1  0
 19 31  1  0
 20 21  1  0
 21 22  1  0
 22 23  2  0
 22 24  1  0
 24 25  2  0
 24 30  1  0
 25 26  1  0
 26 27  2  0
 27 28  1  0
 27 29  1  0
 29 30  2  0
 31 32  1  0
 32 33  1  0
 33 34  1  0
 34 35  1  0
 35 36  2  0
 35 37  1  0
 37 38  2  0
 37 43  1  0
 38 39  1  0
 39 40  2  0
 40 41  1  0
 40 42  1  0
 42 43  2  0
 44 45  1  0
 45 46  1  0
 47 48  2  0
M  END
