
     RDKit          3D

 48 53  0  0  0  0  0  0  0  0999 V2000
    4.5580   -3.8150   -2.6440 C   0  0  0  0  0  0  0  0  0  0  0  0
    5.2990   -2.6960   -3.3340 C   0  0  2  0  0  0  0  0  0  0  0  0
    6.4790   -3.2380   -4.1030 C   0  0  0  0  0  0  0  0  0  0  0  0
    5.7480   -1.6670   -2.4370 N   0  0  0  0  0  0  0  0  0  0  0  0
    4.8740   -0.8870   -1.6380 C   0  0  0  0  0  0  0  0  0  0  0  0
    3.5020   -1.0160   -1.6440 C   0  0  0  0  0  0  0  0  0  0  0  0
    2.6630   -0.2570   -0.8660 C   0  0  0  0  0  0  0  0  0  0  0  0
    1.2040   -0.4560   -0.9300 C   0  0  0  0  0  0  0  0  0  0  0  0
    0.6120   -1.3830   -1.7460 C   0  0  0  0  0  0  0  0  0  0  0  0
   -0.7620   -1.2730   -1.5300 C   0  0  0  0  0  0  0  0  0  0  0  0
   -0.9520   -0.2980   -0.6020 C   0  0  0  0  0  0  0  0  0  0  0  0
   -2.1900    0.1680   -0.0390 C   0  0  0  0  0  0  0  0  0  0  0  0
   -3.3040   -0.5080    0.1180 C   0  0  0  0  0  0  0  0  0  0  0  0
   -3.5700   -1.8640   -0.2090 C   0  0  0  0  0  0  0  0  0  0  0  0
   -4.6450   -2.5960   -0.1210 C   0  0  0  0  0  0  0  0  0  0  0  0
   -5.9560   -2.2110    0.3570 C   0  0  0  0  0  0  0  0  0  0  0  0
   -7.0060   -2.9980    0.5100 C   0  0  0  0  0  0  0  0  0  0  0  0
   -8.1330   -2.1810    1.0170 C   0  0  0  0  0  0  0  0  0  0  0  0
   -7.8060   -0.8830    0.8490 O   0  0  0  0  0  0  0  0  0  0  0  0
   -6.4100   -0.8410    0.7140 C   0  0  0  0  0  0  0  0  0  0  0  0
   -4.4500   -4.0120   -0.5380 C   0  0  0  0  0  0  0  0  0  0  0  0
   -5.3700   -4.7840   -1.1440 C   0  0  0  0  0  0  0  0  0  0  0  0
   -5.1340   -6.1400   -1.3800 C   0  0  0  0  0  0  0  0  0  0  0  0
   -3.9570   -6.7470   -1.0100 C   0  0  0  0  0  0  0  0  0  0  0  0
   -3.0090   -5.9710   -0.3930 C   0  0  0  0  0  0  0  0  0  0  0  0
   -3.2530   -4.6140   -0.1580 C   0  0  0  0  0  0  0  0  0  0  0  0
   -2.2750    1.5870    0.4220 C   0  0  0  0  0  0  0  0  0  0  0  0
   -1.2730    2.4030    0.3200 C   0  0  0  0  0  0  0  0  0  0  0  0
   -1.2790    3.8290    0.7590 C   0  0  2  0  0  0  0  0  0  0  0  0
   -0.8930    4.6590   -0.4570 C   0  0  0  0  0  0  0  0  0  0  0  0
   -0.1330    3.9700    1.7410 C   0  0  0  0  0  0  0  0  0  0  0  0
   -2.5640    4.2140    1.3220 C   0  0  0  0  0  0  0  0  0  0  0  0
   -2.7680    5.5160    1.7890 C   0  0  0  0  0  0  0  0  0  0  0  0
   -3.9660    5.9040    2.3250 C   0  0  0  0  0  0  0  0  0  0  0  0
   -5.0180    5.0320    2.4280 C   0  0  0  0  0  0  0  0  0  0  0  0
   -4.8240    3.7520    1.9710 C   0  0  0  0  0  0  0  0  0  0  0  0
   -3.6060    3.3300    1.4180 C   0  0  0  0  0  0  0  0  0  0  0  0
   -3.4800    2.0270    0.9770 O   0  0  0  0  0  0  0  0  0  0  0  0
    0.2690    0.1370   -0.2980 O   0  0  0  0  0  0  0  0  0  0  0  0
    3.2250    0.6620   -0.0540 N   0  0  0  0  0  0  0  0  0  0  0  0
    4.5500    0.8470    0.0100 C   0  0  0  0  0  0  0  0  0  0  0  0
    5.1980    1.8660    0.9100 C   0  0  2  0  0  0  0  0  0  0  0  0
    5.7370    2.9770   -0.0160 C   0  0  0  0  0  0  0  0  0  0  0  0
    6.2790    1.3620    1.5590 O   0  0  0  0  0  0  0  0  0  0  0  0
    6.4020    1.4950    2.8940 C   0  0  0  0  0  0  0  0  0  0  0  0
    6.5330    2.9220    3.3420 C   0  0  0  0  0  0  0  0  0  0  0  0
    5.4430    3.6810    2.9930 O   0  0  0  0  0  0  0  0  0  0  0  0
    5.3800    0.0800   -0.7750 C   0  0  0  0  0  0  0  0  0  0  0  0
  2  1  1  1
  2  3  1  0
  2  4  1  0
  4  5  1  0
  5  6  2  0
  5 48  1  0
  6  7  1  0
  7  8  1  0
  7 40  2  0
  8  9  2  0
  8 39  1  0
  9 10  1  0
 10 11  2  0
 11 12  1  0
 11 39  1  0
 12 13  2  3
 12 27  1  0
 13 14  1  0
 14 15  2  3
 15 16  1  0
 15 21  1  0
 16 17  2  0
 16 20  1  0
 17 18  1  0
 18 19  1  0
 19 20  1  0
 21 22  2  0
 21 26  1  0
 22 23  1  0
 23 24  2  0
 24 25  1  0
 25 26  2  0
 27 28  2  0
 27 38  1  0
 28 29  1  0
 29 30  1  6
 29 31  1  0
 29 32  1  0
 32 33  2  0
 32 37  1  0
 33 34  1  0
 34 35  2  0
 35 36  1  0
 36 37  2  0
 37 38  1  0
 40 41  1  0
 41 42  1  0
 41 48  2  0
 42 43  1  6
 42 44  1  0
 44 45  1  0
 45 46  1  0
 46 47  1  0
M  END
