
     RDKit          3D

 17 18  0  0  0  0  0  0  0  0999 V2000
    6.0940    0.3910    0.9550 N   0  0  0  0  0  0  0  0  0  0  0  0
    5.0220   -0.3320    0.3970 C   0  0  0  0  0  0  0  0  0  0  0  0
    5.0780   -1.5810    0.3300 O   0  0  0  0  0  0  0  0  0  0  0  0
    3.8600    0.3630   -0.0980 N   0  0  0  0  0  0  0  0  0  0  0  0
    2.7760   -0.3670   -0.6620 C   0  0  0  0  0  0  0  0  0  0  0  0
    1.5830   -0.2770   -0.1220 C   0  0  0  0  0  0  0  0  0  0  0  0
    0.4450   -1.0050   -0.6660 C   0  0  1  0  0  0  0  0  0  0  0  0
   -0.6760   -0.0900   -0.9320 N   0  0  0  0  0  0  0  0  0  0  0  0
   -1.8840   -0.2380   -0.2180 C   0  0  0  0  0  0  0  0  0  0  0  0
   -2.0160   -1.1490    0.6480 O   0  0  0  0  0  0  0  0  0  0  0  0
   -3.0160    0.6030   -0.4130 N   0  0  0  0  0  0  0  0  0  0  0  0
   -4.2510    0.4330    0.3330 C   0  0  2  0  0  0  0  0  0  0  0  0
   -5.5370    0.4490   -0.5510 C   0  0  0  0  0  0  0  0  0  0  0  0
   -5.2170    1.5240    0.4740 C   0  0  0  0  0  0  0  0  0  0  0  0
    0.7500   -1.7720   -1.7720 O   0  0  0  0  0  0  0  0  0  0  0  0
    1.9620   -1.8680   -2.3270 N   0  0  0  0  0  0  0  0  0  0  0  0
    2.9760   -1.2120   -1.8330 C   0  0  0  0  0  0  0  0  0  0  0  0
  1  2  1  0
  2  3  2  0
  2  4  1  0
  4  5  1  0
  5  6  2  0
  5 17  1  0
  6  7  1  0
  7  8  1  6
  7 15  1  0
  8  9  1  0
  9 10  2  0
  9 11  1  0
 12 11  1  6
 12 13  1  0
 12 14  1  0
 13 14  1  0
 15 16  1  0
 16 17  2  0
M  END
