
     RDKit          3D

 18 19  0  0  0  0  0  0  0  0999 V2000
    4.7100   -0.8190   -0.5060 N   0  0  0  0  0  0  0  0  0  0  0  0
    3.4660   -0.1610   -0.5760 C   0  0  0  0  0  0  0  0  0  0  0  0
    2.2860   -0.5980   -0.1730 C   0  0  0  0  0  0  0  0  0  0  0  0
    2.1320   -1.8660    0.4140 O   0  0  0  0  0  0  0  0  0  0  0  0
    1.2660    0.4060   -0.4360 C   0  0  0  0  0  0  0  0  0  0  0  0
   -0.0990    0.2390   -0.1200 N   0  0  0  0  0  0  0  0  0  0  0  0
   -0.4800    0.0230    1.2250 C   0  0  0  0  0  0  0  0  0  0  0  0
    0.4100   -0.0180    2.1230 O   0  0  0  0  0  0  0  0  0  0  0  0
   -1.8920   -0.1620    1.6450 C   0  0  0  0  0  0  0  0  0  0  0  0
   -2.7690   -0.0850    0.4920 N   0  0  0  0  0  0  0  0  0  0  0  0
   -3.3650    1.0220   -0.0230 C   0  0  0  0  0  0  0  0  0  0  0  0
   -3.2190    2.1650    0.4660 O   0  0  0  0  0  0  0  0  0  0  0  0
   -4.0780    0.6050   -1.0820 N   0  0  0  0  0  0  0  0  0  0  0  0
   -3.9460   -0.6930   -1.2380 N   0  0  0  0  0  0  0  0  0  0  0  0
   -3.1250   -1.1430   -0.2550 C   0  0  0  0  0  0  0  0  0  0  0  0
   -2.7620   -2.3320   -0.0740 O   0  0  0  0  0  0  0  0  0  0  0  0
    1.8310    1.4540   -1.0000 C   0  0  0  0  0  0  0  0  0  0  0  0
    3.2750    1.1940   -1.1410 C   0  0  0  0  0  0  0  0  0  0  0  0
  1  2  1  0
  2  3  2  0
  2 18  1  0
  3  4  1  0
  3  5  1  0
  5  6  1  0
  5 17  2  0
  6  7  1  0
  7  8  2  0
  7  9  1  0
  9 10  1  0
 10 11  1  0
 10 15  1  0
 11 12  2  0
 11 13  1  0
 13 14  1  0
 14 15  1  0
 15 16  2  0
 17 18  1  0
M  END
