
     RDKit          3D

 17 17  0  0  0  0  0  0  0  0999 V2000
   -4.2680   -1.3060   -0.0360 C   0  0  0  0  0  0  0  0  0  0  0  0
   -3.2690   -0.4940    0.5990 O   0  0  0  0  0  0  0  0  0  0  0  0
   -1.9600   -0.6490    0.1690 C   0  0  0  0  0  0  0  0  0  0  0  0
   -1.4750   -1.9660   -0.0040 N   0  0  0  0  0  0  0  0  0  0  0  0
   -1.1660    0.3710   -0.0800 C   0  0  0  0  0  0  0  0  0  0  0  0
   -1.6500    1.7870    0.0940 C   0  0  0  0  0  0  0  0  0  0  0  0
   -0.8110    2.4260    1.0750 N   0  0  0  0  0  0  0  0  0  0  0  0
    0.1960    0.1170   -0.5290 C   0  0  0  0  0  0  0  0  0  0  0  0
    0.6900   -1.2160   -0.7040 N   0  0  0  0  0  0  0  0  0  0  0  0
    0.9600    1.1280   -0.7680 N   0  0  0  0  0  0  0  0  0  0  0  0
    2.2830    0.8930   -1.2030 C   0  0  0  0  0  0  0  0  0  0  0  0
    3.1910    0.4970   -0.3110 C   0  0  0  0  0  0  0  0  0  0  0  0
    4.5340    0.2140   -0.5260 O   0  0  0  0  0  0  0  0  0  0  0  0
    5.1140   -0.1660    0.6850 C   0  0  0  0  0  0  0  0  0  0  0  0
    4.2370   -0.1400    1.6320 N   0  0  0  0  0  0  0  0  0  0  0  0
    2.9730    0.2690    1.1110 C   0  0  0  0  0  0  0  0  0  0  0  0
    1.8810    0.4120    1.7280 O   0  0  0  0  0  0  0  0  0  0  0  0
  1  2  1  0
  2  3  1  0
  3  4  1  0
  3  5  2  3
  5  6  1  0
  5  8  1  0
  6  7  1  0
  8  9  1  0
  8 10  2  3
 10 11  1  0
 11 12  2  3
 12 13  1  0
 12 16  1  0
 13 14  1  0
 14 15  2  0
 15 16  1  0
 16 17  2  0
M  END
