
     RDKit          3D

 18 19  0  0  0  0  0  0  0  0999 V2000
   -4.8410    0.1420   -0.3150 N   0  0  0  0  0  0  0  0  0  0  0  0
   -3.9590    0.5370    0.7930 C   0  0  1  0  0  0  0  0  0  0  0  0
   -2.9860   -0.5820    0.9830 C   0  0  0  0  0  0  0  0  0  0  0  0
   -3.1140   -1.3940    1.9300 O   0  0  0  0  0  0  0  0  0  0  0  0
   -1.9120   -0.6930    0.0540 N   0  0  0  0  0  0  0  0  0  0  0  0
   -1.3380    0.4060   -0.5520 N   0  0  0  0  0  0  0  0  0  0  0  0
    0.0240    0.4760   -0.1560 N   0  0  0  0  0  0  0  0  0  0  0  0
    0.9760   -0.5240   -0.4720 C   0  0  0  0  0  0  0  0  0  0  0  0
    0.5320   -1.5070   -1.1440 O   0  0  0  0  0  0  0  0  0  0  0  0
    2.3790   -0.4920   -0.0850 C   0  0  0  0  0  0  0  0  0  0  0  0
    2.9100    0.4930    0.6100 C   0  0  0  0  0  0  0  0  0  0  0  0
    4.3600    0.5110    1.0000 C   0  0  0  0  0  0  0  0  0  0  0  0
    5.0490   -0.6230    0.5460 O   0  0  0  0  0  0  0  0  0  0  0  0
    4.4960   -1.6450   -0.1750 C   0  0  0  0  0  0  0  0  0  0  0  0
    3.2180   -1.6160   -0.4950 C   0  0  0  0  0  0  0  0  0  0  0  0
   -1.9500    1.6060   -0.2080 N   0  0  0  0  0  0  0  0  0  0  0  0
   -3.1900    1.7510    0.4330 C   0  0  0  0  0  0  0  0  0  0  0  0
   -3.6930    2.8830    0.7240 O   0  0  0  0  0  0  0  0  0  0  0  0
  2  1  1  6
  2  3  1  0
  2 17  1  0
  3  4  2  0
  3  5  1  0
  5  6  1  0
  6  7  1  0
  6 16  1  0
  7  8  1  0
  8  9  2  0
  8 10  1  0
 10 11  2  0
 10 15  1  0
 11 12  1  0
 12 13  1  0
 13 14  1  0
 14 15  2  0
 16 17  1  0
 17 18  2  0
M  END
