
     RDKit          3D

 18 19  0  0  0  0  0  0  0  0999 V2000
    2.0300   -2.0060   -2.0470 N   0  0  0  0  0  0  0  0  0  0  0  0
    2.9250   -1.0100   -1.6400 C   0  0  0  0  0  0  0  0  0  0  0  0
    4.1470   -1.2140   -2.0810 O   0  0  0  0  0  0  0  0  0  0  0  0
    2.7010    0.1470   -0.8460 C   0  0  0  0  0  0  0  0  0  0  0  0
    1.5240    0.5800   -0.2690 N   0  0  0  0  0  0  0  0  0  0  0  0
    0.2310    0.0410   -0.2840 C   0  0  0  0  0  0  0  0  0  0  0  0
    0.0260   -1.0030   -0.8980 O   0  0  0  0  0  0  0  0  0  0  0  0
   -0.8800    0.6390    0.3800 N   0  0  0  0  0  0  0  0  0  0  0  0
   -2.1690    0.0520    0.3340 C   0  0  1  0  0  0  0  0  0  0  0  0
   -2.6980   -0.3310    1.7150 C   0  0  0  0  0  0  0  0  0  0  0  0
   -4.1590   -0.6060    1.3590 C   0  0  0  0  0  0  0  0  0  0  0  0
   -4.4540    0.4430    0.3820 N   0  0  0  0  0  0  0  0  0  0  0  0
   -3.2350    0.9200   -0.1660 C   0  0  0  0  0  0  0  0  0  0  0  0
   -3.1110    1.9020   -0.9340 O   0  0  0  0  0  0  0  0  0  0  0  0
    3.7850    0.9340   -0.6200 C   0  0  0  0  0  0  0  0  0  0  0  0
    5.1860    0.9420   -0.9710 C   0  0  0  0  0  0  0  0  0  0  0  0
    5.4090    2.0320   -0.3320 N   0  0  0  0  0  0  0  0  0  0  0  0
    4.0910    2.0930    0.0420 O   0  0  0  0  0  0  0  0  0  0  0  0
  1  2  1  0
  2  3  2  0
  2  4  1  0
  4  5  1  0
  4 15  2  3
  5  6  1  0
  6  7  2  0
  6  8  1  0
  9  8  1  1
  9 10  1  0
  9 13  1  0
 10 11  1  0
 11 12  1  0
 12 13  1  0
 13 14  2  0
 15 16  1  0
 15 18  1  0
 16 17  2  0
 17 18  1  0
M  END
