
     RDKit          3D

 11 10  0  0  0  0  0  0  0  0999 V2000
   -0.5260   -2.0100    0.2340 C   0  0  0  0  0  0  0  0  0  0  0  0
   -0.9270   -0.6150   -0.1720 C   0  0  1  0  0  0  0  0  0  0  0  0
   -1.2160   -0.6780   -1.5570 O   0  0  0  0  0  0  0  0  0  0  0  0
   -2.2490   -0.3110    0.4870 C   0  0  0  0  0  0  0  0  0  0  0  0
   -2.7790    1.0640    0.1680 C   0  0  0  0  0  0  0  0  0  0  0  0
   -2.9760    1.2190   -1.2210 O   0  0  0  0  0  0  0  0  0  0  0  0
    0.1530    0.3260    0.1420 C   0  0  0  0  0  0  0  0  0  0  0  0
    1.4770    0.1810   -0.4520 C   0  0  2  0  0  0  0  0  0  0  0  0
    2.2530   -0.9740   -0.2510 N   0  0  0  0  0  0  0  0  0  0  0  0
    2.3310    1.3580    0.0650 C   0  0  0  0  0  0  0  0  0  0  0  0
    2.5570    1.0710    1.4200 O   0  0  0  0  0  0  0  0  0  0  0  0
  2  1  1  1
  2  3  1  0
  2  4  1  0
  2  7  1  0
  4  5  1  0
  5  6  1  0
  7  8  1  0
  8  9  1  1
  8 10  1  0
 10 11  1  0
M  CHG  1   9   1
M  END
