
     RDKit          3D

 12 11  0  0  0  0  0  0  0  0999 V2000
   -2.1470    0.2360   -1.3880 N   0  0  0  0  0  0  0  0  0  0  0  0
   -1.9980   -0.2520   -0.0540 C   0  0  1  0  0  0  0  0  0  0  0  0
   -1.3290    0.7160    0.8790 C   0  0  0  0  0  0  0  0  0  0  0  0
    0.0630    1.0960    0.4460 C   0  0  0  0  0  0  0  0  0  0  0  0
    0.9820   -0.1010    0.3590 C   0  0  0  0  0  0  0  0  0  0  0  0
    2.3350    0.4030   -0.0810 C   0  0  0  0  0  0  0  0  0  0  0  0
    3.3390   -0.7230   -0.2020 C   0  0  2  0  0  0  0  0  0  0  0  0
    3.5150   -1.3720    0.9980 O   0  0  0  0  0  0  0  0  0  0  0  0
    4.5680   -0.2570   -0.6410 O   0  0  0  0  0  0  0  0  0  0  0  0
   -3.3450   -0.5480    0.4940 C   0  0  0  0  0  0  0  0  0  0  0  0
   -3.4770   -0.9930    1.6620 O   0  0  0  0  0  0  0  0  0  0  0  0
   -4.4870   -0.3430   -0.2650 O   0  0  0  0  0  0  0  0  0  0  0  0
  2  1  1  6
  2  3  1  0
  2 10  1  0
  3  4  1  0
  4  5  1  0
  5  6  1  0
  6  7  1  0
  7  8  1  1
  7  9  1  0
 10 11  2  0
 10 12  1  0
M  CHG  1   1   1
M  END
