
     RDKit          3D

 12 11  0  0  0  0  0  0  0  0999 V2000
    0.0160   -1.3390    1.0010 C   0  0  0  0  0  0  0  0  0  0  0  0
    0.0070   -0.7420   -0.3890 C   0  0  2  0  0  0  0  0  0  0  0  0
   -0.0420   -2.0250   -1.2870 C   0  0  0  0  0  0  0  0  0  0  0  0
    1.1300   -2.7200   -0.9750 O   0  0  0  0  0  0  0  0  0  0  0  0
    1.2870   -0.0880   -0.7890 C   0  0  0  0  0  0  0  0  0  0  0  0
    1.7360    1.0480    0.0610 C   0  0  0  0  0  0  0  0  0  0  0  0
    3.0020    1.5900   -0.4110 N   0  0  0  0  0  0  0  0  0  0  0  0
   -1.1450   -0.1000   -0.7230 O   0  0  0  0  0  0  0  0  0  0  0  0
   -1.6010    0.9170    0.0350 C   0  0  1  0  0  0  0  0  0  0  0  0
   -1.7370    2.0510   -0.8000 O   0  0  0  0  0  0  0  0  0  0  0  0
   -3.0390    0.6320    0.5040 C   0  0  0  0  0  0  0  0  0  0  0  0
   -3.8810    0.4810   -0.5960 O   0  0  0  0  0  0  0  0  0  0  0  0
  2  1  1  1
  2  3  1  0
  2  5  1  0
  2  8  1  0
  3  4  1  0
  5  6  1  0
  6  7  1  0
  8  9  1  0
  9 10  1  6
  9 11  1  0
 11 12  1  0
M  CHG  1   7   1
M  END
