
     RDKit          3D

 12 11  0  0  0  0  0  0  0  0999 V2000
    4.0770    0.0530    1.2860 N   0  0  0  0  0  0  0  0  0  0  0  0
    3.2960    0.3700    0.1020 C   0  0  0  0  0  0  0  0  0  0  0  0
    1.9490   -0.3930    0.1540 C   0  0  0  0  0  0  0  0  0  0  0  0
    1.2860   -0.0520   -0.9690 O   0  0  0  0  0  0  0  0  0  0  0  0
    0.0820   -0.5500   -1.2720 C   0  0  0  0  0  0  0  0  0  0  0  0
   -0.9800   -0.1460   -0.2630 C   0  0  1  0  0  0  0  0  0  0  0  0
   -0.7070   -0.5560    1.0270 O   0  0  0  0  0  0  0  0  0  0  0  0
   -1.1810    1.3420   -0.2830 C   0  0  0  0  0  0  0  0  0  0  0  0
   -0.0270    1.9970    0.1400 O   0  0  0  0  0  0  0  0  0  0  0  0
   -2.2370   -0.9120   -0.6760 C   0  0  0  0  0  0  0  0  0  0  0  0
   -3.3400   -0.5880    0.2680 C   0  0  0  0  0  0  0  0  0  0  0  0
   -4.4610   -1.3420   -0.1620 O   0  0  0  0  0  0  0  0  0  0  0  0
  1  2  1  0
  2  3  1  0
  3  4  1  0
  4  5  1  0
  5  6  1  0
  6  7  1  1
  6  8  1  0
  6 10  1  0
  8  9  1  0
 10 11  1  0
 11 12  1  0
M  CHG  1   1   1
M  END
