
     RDKit          3D

 12 11  0  0  0  0  0  0  0  0999 V2000
   -0.8740   -1.5090    1.6210 N   0  0  0  0  0  0  0  0  0  0  0  0
   -0.3870   -1.5780    0.2830 C   0  0  0  0  0  0  0  0  0  0  0  0
   -0.3270   -0.2140   -0.4120 C   0  0  1  0  0  0  0  0  0  0  0  0
    0.0940   -0.5630   -1.8350 C   0  0  0  0  0  0  0  0  0  0  0  0
    0.1600    0.4710   -2.7060 O   0  0  0  0  0  0  0  0  0  0  0  0
   -1.7910    0.2640   -0.4900 C   0  0  0  0  0  0  0  0  0  0  0  0
   -1.9390    1.5980   -1.1380 C   0  0  0  0  0  0  0  0  0  0  0  0
   -1.2410    2.6040   -0.4730 O   0  0  0  0  0  0  0  0  0  0  0  0
    0.4060    0.6290    0.2260 O   0  0  0  0  0  0  0  0  0  0  0  0
    1.6230    0.7900    0.6140 C   0  0  0  0  0  0  0  0  0  0  0  0
    2.3070   -0.1370    1.5840 C   0  0  0  0  0  0  0  0  0  0  0  0
    3.6250    0.3920    1.7630 O   0  0  0  0  0  0  0  0  0  0  0  0
  1  2  1  0
  3  2  1  1
  3  4  1  0
  3  6  1  0
  3  9  1  0
  4  5  1  0
  6  7  1  0
  7  8  1  0
  9 10  1  0
 10 11  1  0
 11 12  1  0
M  CHG  1   1   1
M  END
