
     RDKit          3D

 22 23  0  0  0  0  0  0  0  0999 V2000
   -5.5710    0.4850    2.4300 C   0  0  0  0  0  0  0  0  0  0  0  0
   -5.2020    0.3600    1.1160 C   0  0  0  0  0  0  0  0  0  0  0  0
   -6.3470    0.3950    0.1830 C   0  0  0  0  0  0  0  0  0  0  0  0
   -3.8120    0.2040    0.8360 C   0  0  0  0  0  0  0  0  0  0  0  0
   -3.1510    0.0690   -0.3090 C   0  0  0  0  0  0  0  0  0  0  0  0
   -3.7650    0.0520   -1.6280 C   0  0  0  0  0  0  0  0  0  0  0  0
   -1.7040   -0.0580   -0.1680 C   0  0  0  0  0  0  0  0  0  0  0  0
   -0.7930   -0.2150   -1.0440 C   0  0  0  0  0  0  0  0  0  0  0  0
   -0.8070   -0.3370   -2.5120 C   0  0  0  0  0  0  0  0  0  0  0  0
    0.0590    0.8340   -3.0340 C   0  0  0  0  0  0  0  0  0  0  0  0
    1.4930    0.4960   -2.6790 C   0  0  0  0  0  0  0  0  0  0  0  0
    1.6050    0.0630   -1.3170 N   0  0  0  0  0  0  0  0  0  0  0  0
    2.7270   -0.0760   -0.6030 N   0  0  0  0  0  0  0  0  0  0  0  0
    2.4590   -0.4920    0.6390 C   0  0  0  0  0  0  0  0  0  0  0  0
    3.4370   -0.7550    1.7090 C   0  0  0  0  0  0  0  0  0  0  0  0
    4.8230   -0.4860    1.2050 C   0  0  0  0  0  0  0  0  0  0  0  0
    5.8270   -0.7310    2.2240 N   0  0  0  0  0  0  0  0  0  0  0  0
    7.3610   -0.3910    1.5350 S   0  0  1  0  0  0  0  0  0  0  0  0
    8.4230   -1.2640    2.1640 O   0  0  0  0  0  0  0  0  0  0  0  0
    7.3930   -0.6510    0.0550 O   0  0  0  0  0  0  0  0  0  0  0  0
    1.1040   -0.6180    0.6980 N   0  0  0  0  0  0  0  0  0  0  0  0
    0.6250   -0.2760   -0.4940 C   0  0  0  0  0  0  0  0  0  0  0  0
  1  2  2  0
  2  3  1  0
  2  4  1  0
  4  5  2  3
  5  6  1  0
  5  7  1  0
  7  8  2  3
  8  9  1  0
  8 22  1  0
  9 10  1  0
 10 11  1  0
 11 12  1  0
 12 13  1  0
 12 22  1  0
 13 14  2  0
 14 15  1  0
 14 21  1  0
 15 16  1  0
 16 17  1  0
 18 17  1  1
 18 19  2  0
 18 20  2  0
 21 22  2  0
M  END
