
     RDKit          3D

 12 11  0  0  0  0  0  0  0  0999 V2000
    2.1130    1.7900   -1.2550 C   0  0  0  0  0  0  0  0  0  0  0  0
    1.3640    1.1150   -0.3060 O   0  0  0  0  0  0  0  0  0  0  0  0
    0.6780    0.0280   -0.8510 C   0  0  0  0  0  0  0  0  0  0  0  0
   -0.1060   -0.6450    0.2460 C   0  0  2  0  0  0  0  0  0  0  0  0
    0.9510   -1.0050    1.3100 C   0  0  0  0  0  0  0  0  0  0  0  0
    1.9930   -1.8370    0.9050 N   0  0  0  0  0  0  0  0  0  0  0  0
   -0.6140   -1.9470   -0.3160 C   0  0  0  0  0  0  0  0  0  0  0  0
   -1.1180   -2.6980    0.7400 O   0  0  0  0  0  0  0  0  0  0  0  0
   -0.9500    0.1300    0.8510 O   0  0  0  0  0  0  0  0  0  0  0  0
   -1.9870    0.8360    0.5830 C   0  0  0  0  0  0  0  0  0  0  0  0
   -1.8940    1.9940   -0.3870 C   0  0  0  0  0  0  0  0  0  0  0  0
   -3.1770    2.5820   -0.4720 O   0  0  0  0  0  0  0  0  0  0  0  0
  1  2  1  0
  2  3  1  0
  4  3  1  6
  4  5  1  0
  4  7  1  0
  4  9  1  0
  5  6  1  0
  7  8  1  0
  9 10  1  0
 10 11  1  0
 11 12  1  0
M  CHG  1   6   1
M  END
