
     RDKit          3D

 12 11  0  0  0  0  0  0  0  0999 V2000
    3.4220   -0.1810   -0.5740 C   0  0  0  0  0  0  0  0  0  0  0  0
    2.2660    0.4810   -0.1650 O   0  0  0  0  0  0  0  0  0  0  0  0
    1.2240   -0.4550   -0.2480 C   0  0  0  0  0  0  0  0  0  0  0  0
   -0.1000    0.0980    0.1610 C   0  0  1  0  0  0  0  0  0  0  0  0
   -0.0480    0.5640    1.4810 O   0  0  0  0  0  0  0  0  0  0  0  0
   -0.6080    1.2230   -0.6820 C   0  0  0  0  0  0  0  0  0  0  0  0
    0.2730    2.4330   -0.7180 C   0  0  0  0  0  0  0  0  0  0  0  0
    0.4680    2.9820    0.5520 O   0  0  0  0  0  0  0  0  0  0  0  0
   -1.1170   -1.0420    0.1160 C   0  0  1  0  0  0  0  0  0  0  0  0
   -2.4100   -0.5280    0.5320 N   0  0  0  0  0  0  0  0  0  0  0  0
   -1.2260   -1.6480   -1.2430 C   0  0  0  0  0  0  0  0  0  0  0  0
   -2.1710   -2.6890   -1.1480 O   0  0  0  0  0  0  0  0  0  0  0  0
  1  2  1  0
  2  3  1  0
  3  4  1  0
  4  5  1  1
  4  6  1  0
  4  9  1  0
  6  7  1  0
  7  8  1  0
  9 10  1  6
  9 11  1  0
 11 12  1  0
M  CHG  1  10   1
M  END
