
     RDKit          3D

 34 37  0  0  0  0  0  0  0  0999 V2000
    3.0920   -1.3380    1.4670 O   0  0  0  0  0  0  0  0  0  0  0  0
    3.4450   -1.0410    0.2740 C   0  0  0  0  0  0  0  0  0  0  0  0
    2.8400   -1.8430   -0.6690 O   0  0  0  0  0  0  0  0  0  0  0  0
    1.9150   -2.8730   -0.3990 C   0  0  0  0  0  0  0  0  0  0  0  0
    0.7470   -2.1410    0.2670 C   0  0  0  0  0  0  0  0  0  0  0  0
    0.2420   -1.8530    1.2610 N   0  0  0  0  0  0  0  0  0  0  0  0
   -0.8450   -1.1310    1.3840 N   0  0  0  0  0  0  0  0  0  0  0  0
   -1.4560   -0.6780    0.4880 C   0  0  0  0  0  0  0  0  0  0  0  0
   -2.6280    0.1230    0.2460 N   0  0  0  0  0  0  0  0  0  0  0  0
   -3.3110    0.5890    1.2200 C   0  0  0  0  0  0  0  0  0  0  0  0
   -4.4560    1.3710    0.8770 N   0  0  0  0  0  0  0  0  0  0  0  0
   -4.3530    2.7030    0.6640 C   0  0  0  0  0  0  0  0  0  0  0  0
   -5.5920    3.1650    0.3380 C   0  0  0  0  0  0  0  0  0  0  0  0
   -6.4290    2.0750    0.3630 C   0  0  0  0  0  0  0  0  0  0  0  0
   -5.7070    0.9300    0.7060 C   0  0  0  0  0  0  0  0  0  0  0  0
   -6.2440   -0.4070    0.8270 C   0  0  0  0  0  0  0  0  0  0  0  0
   -7.5850   -0.6060    0.5280 C   0  0  0  0  0  0  0  0  0  0  0  0
   -8.1870   -1.8510    0.6290 C   0  0  0  0  0  0  0  0  0  0  0  0
   -7.4650   -2.9320    1.0330 C   0  0  0  0  0  0  0  0  0  0  0  0
   -8.2160   -4.5330    1.1740 Cl  0  0  0  0  0  0  0  0  0  0  0  0
   -6.1400   -2.7610    1.3360 C   0  0  0  0  0  0  0  0  0  0  0  0
   -5.5480   -1.4990    1.2270 C   0  0  0  0  0  0  0  0  0  0  0  0
   -0.4360   -1.2890   -0.9710 S   0  0  0  0  0  0  0  0  0  0  0  0
    4.3530   -0.0070   -0.0570 C   0  0  0  0  0  0  0  0  0  0  0  0
    4.9240    0.7270    0.8770 C   0  0  0  0  0  0  0  0  0  0  0  0
    4.7650    0.6450    2.3010 C   0  0  0  0  0  0  0  0  0  0  0  0
    5.4400    1.4910    3.0800 C   0  0  0  0  0  0  0  0  0  0  0  0
    6.2840    2.4370    2.5080 O   0  0  0  0  0  0  0  0  0  0  0  0
    4.7100    0.3240   -1.4580 C   0  0  0  0  0  0  0  0  0  0  0  0
    4.2440   -0.2980   -2.5020 C   0  0  0  0  0  0  0  0  0  0  0  0
    4.6360    0.0750   -3.8800 C   0  0  0  0  0  0  0  0  0  0  0  0
    4.9260    1.4170   -3.9550 O   0  0  0  0  0  0  0  0  0  0  0  0
    5.9540    1.7470   -3.0790 C   0  0  0  0  0  0  0  0  0  0  0  0
    5.6780    1.4600   -1.6670 C   0  0  0  0  0  0  0  0  0  0  0  0
  1  2  2  0
  2  3  1  0
  2 24  1  0
  3  4  1  0
  4  5  1  0
  5  6  2  0
  5 23  1  0
  6  7  1  0
  7  8  2  0
  8  9  1  0
  8 23  1  0
  9 10  2  3
 10 11  1  0
 11 12  1  0
 11 15  1  0
 12 13  2  0
 13 14  1  0
 14 15  2  0
 15 16  1  0
 16 17  2  0
 16 22  1  0
 17 18  1  0
 18 19  2  0
 19 20  1  0
 19 21  1  0
 21 22  2  0
 24 25  2  3
 24 29  1  0
 25 26  1  0
 26 27  2  3
 27 28  1  0
 29 30  2  0
 29 34  1  0
 30 31  1  0
 31 32  1  0
 32 33  1  0
 33 34  1  0
M  END
