
     RDKit          3D

 34 37  0  0  0  0  0  0  0  0999 V2000
   -4.7330    2.9870    1.6160 C   0  0  0  0  0  0  0  0  0  0  0  0
   -5.1390    1.5920    1.2990 C   0  0  0  0  0  0  0  0  0  0  0  0
   -4.0020    0.6970    0.8890 C   0  0  2  0  0  0  0  0  0  0  0  0
   -3.2790    1.1420   -0.3240 C   0  0  0  0  0  0  0  0  0  0  0  0
   -3.3210    0.4590   -1.4070 O   0  0  0  0  0  0  0  0  0  0  0  0
   -2.5120    2.3240   -0.3690 N   0  0  0  0  0  0  0  0  0  0  0  0
   -1.8360    2.7020   -1.5830 C   0  0  0  0  0  0  0  0  0  0  0  0
   -0.8590    1.6570   -1.9830 C   0  0  0  0  0  0  0  0  0  0  0  0
   -0.3330    0.6880   -1.5100 N   0  0  0  0  0  0  0  0  0  0  0  0
    0.5220   -0.1220   -2.0520 C   0  0  0  0  0  0  0  0  0  0  0  0
    1.1120   -1.3150   -1.3310 C   0  0  0  0  0  0  0  0  0  0  0  0
    2.4950   -1.0000   -0.9330 C   0  0  0  0  0  0  0  0  0  0  0  0
    2.9760    0.1220   -1.2290 O   0  0  0  0  0  0  0  0  0  0  0  0
    3.3060   -1.8810   -0.2400 O   0  0  0  0  0  0  0  0  0  0  0  0
    4.5910   -1.4700    0.0790 C   0  0  0  0  0  0  0  0  0  0  0  0
    5.5960   -1.8000   -0.7980 C   0  0  0  0  0  0  0  0  0  0  0  0
    5.2760   -2.7020   -2.2540 Cl  0  0  0  0  0  0  0  0  0  0  0  0
    6.8940   -1.4180   -0.5360 C   0  0  0  0  0  0  0  0  0  0  0  0
    7.1900   -0.7030    0.6050 C   0  0  0  0  0  0  0  0  0  0  0  0
    6.1760   -0.3700    1.4880 C   0  0  0  0  0  0  0  0  0  0  0  0
    4.8880   -0.7610    1.2090 C   0  0  0  0  0  0  0  0  0  0  0  0
    4.0440   -0.2730    2.3050 C   0  0  0  0  0  0  0  0  0  0  0  0
    4.7910    0.3720    3.1870 C   0  0  0  0  0  0  0  0  0  0  0  0
    6.2040    0.3710    2.7540 C   0  0  0  0  0  0  0  0  0  0  0  0
    0.8740    0.1790   -3.3690 C   0  0  0  0  0  0  0  0  0  0  0  0
    1.7710   -0.4500   -4.3180 C   0  0  0  0  0  0  0  0  0  0  0  0
   -0.1330    1.6900   -3.6820 S   0  0  0  0  0  0  0  0  0  0  0  0
   -4.5070   -0.6380    0.7600 N   0  0  0  0  0  0  0  0  0  0  0  0
   -4.1070   -1.6220    1.5790 C   0  0  0  0  0  0  0  0  0  0  0  0
   -4.5900   -2.8870    1.4500 N   0  0  0  0  0  0  0  0  0  0  0  0
   -5.4840   -3.2140    0.5040 C   0  0  0  0  0  0  0  0  0  0  0  0
   -5.9060   -2.2210   -0.3450 C   0  0  0  0  0  0  0  0  0  0  0  0
   -5.3970   -0.9230   -0.1970 C   0  0  0  0  0  0  0  0  0  0  0  0
   -5.8490   -0.0900   -1.0240 O   0  0  0  0  0  0  0  0  0  0  0  0
  1  2  1  0
  3  2  1  6
  3  4  1  0
  3 28  1  0
  4  5  2  0
  4  6  1  0
  6  7  1  0
  7  8  1  0
  8  9  2  0
  8 27  1  0
  9 10  1  0
 10 11  1  0
 10 25  2  0
 11 12  1  0
 12 13  2  0
 12 14  1  0
 14 15  1  0
 15 16  2  0
 15 21  1  0
 16 17  1  0
 16 18  1  0
 18 19  2  0
 19 20  1  0
 20 21  2  0
 20 24  1  0
 21 22  1  0
 22 23  2  0
 23 24  1  0
 25 26  1  0
 25 27  1  0
 28 29  1  0
 28 33  1  0
 29 30  2  0
 30 31  1  0
 31 32  2  0
 32 33  1  0
 33 34  2  0
M  END
