
     RDKit          3D

 34 37  0  0  0  0  0  0  0  0999 V2000
   -8.0430   -1.2380    0.0900 C   0  0  0  0  0  0  0  0  0  0  0  0
   -7.3670   -0.0940   -0.0420 C   0  0  0  0  0  0  0  0  0  0  0  0
   -8.0120    1.2200    0.1720 C   0  0  0  0  0  0  0  0  0  0  0  0
   -7.3830    2.2170   -0.6170 O   0  0  0  0  0  0  0  0  0  0  0  0
   -6.0460    2.1820   -0.9620 C   0  0  0  0  0  0  0  0  0  0  0  0
   -5.4820    3.2250   -1.3740 O   0  0  0  0  0  0  0  0  0  0  0  0
   -5.3100    0.9360   -0.8450 C   0  0  0  0  0  0  0  0  0  0  0  0
   -5.9580   -0.1380   -0.4040 C   0  0  0  0  0  0  0  0  0  0  0  0
   -5.2050   -1.4160   -0.2780 C   0  0  0  0  0  0  0  0  0  0  0  0
   -3.4590   -1.1700   -0.7770 S   0  0  0  0  0  0  0  0  0  0  0  0
   -2.6800   -0.0810    0.4410 C   0  0  0  0  0  0  0  0  0  0  0  0
   -1.3400    0.2570    0.2180 C   0  0  0  0  0  0  0  0  0  0  0  0
   -0.7010    1.0830    1.1190 C   0  0  0  0  0  0  0  0  0  0  0  0
    0.6870    1.4740    0.9220 C   0  0  0  0  0  0  0  0  0  0  0  0
    1.3730    2.3110    1.7690 C   0  0  0  0  0  0  0  0  0  0  0  0
    2.6960    2.6780    1.5380 C   0  0  0  0  0  0  0  0  0  0  0  0
    3.2930    2.1580    0.4080 C   0  0  0  0  0  0  0  0  0  0  0  0
    4.4910    2.4570    0.1470 O   0  0  0  0  0  0  0  0  0  0  0  0
    2.6300    1.3360   -0.4290 N   0  0  0  0  0  0  0  0  0  0  0  0
    3.3030    0.8250   -1.6160 C   0  0  0  0  0  0  0  0  0  0  0  0
    3.9980   -0.4530   -1.2730 C   0  0  0  0  0  0  0  0  0  0  0  0
    3.3290   -1.4970   -1.2010 O   0  0  0  0  0  0  0  0  0  0  0  0
    5.3890   -0.4290   -1.0440 N   0  0  0  0  0  0  0  0  0  0  0  0
    6.1950   -1.5470   -0.7160 C   0  0  0  0  0  0  0  0  0  0  0  0
    7.4960   -1.2610   -0.2640 C   0  0  0  0  0  0  0  0  0  0  0  0
    8.3310   -2.3030    0.0500 C   0  0  0  0  0  0  0  0  0  0  0  0
    7.8860   -3.5950   -0.0810 C   0  0  0  0  0  0  0  0  0  0  0  0
    8.9990   -4.8850    0.3350 Cl  0  0  0  0  0  0  0  0  0  0  0  0
    6.6130   -3.8860   -0.5230 C   0  0  0  0  0  0  0  0  0  0  0  0
    5.7550   -2.8220   -0.8460 C   0  0  0  0  0  0  0  0  0  0  0  0
    1.3850    1.0240   -0.1620 N   0  0  0  0  0  0  0  0  0  0  0  0
   -1.4290    1.5210    2.1860 C   0  0  0  0  0  0  0  0  0  0  0  0
   -2.7680    1.1620    2.3780 C   0  0  0  0  0  0  0  0  0  0  0  0
   -3.3720    0.3630    1.4970 N   0  0  0  0  0  0  0  0  0  0  0  0
  1  2  2  0
  2  3  1  0
  2  8  1  0
  3  4  1  0
  4  5  1  0
  5  6  2  0
  5  7  1  0
  7  8  2  0
  8  9  1  0
  9 10  1  0
 10 11  1  0
 11 12  2  0
 11 34  1  0
 12 13  1  0
 13 14  1  0
 13 32  2  0
 14 15  1  0
 14 31  2  0
 15 16  2  0
 16 17  1  0
 17 18  2  0
 17 19  1  0
 19 20  1  0
 19 31  1  0
 20 21  1  0
 21 22  2  0
 21 23  1  0
 23 24  1  0
 24 25  2  0
 24 30  1  0
 25 26  1  0
 26 27  2  0
 27 28  1  0
 27 29  1  0
 29 30  2  0
 32 33  1  0
 33 34  2  0
M  END
