
     RDKit          3D

 34 37  0  0  0  0  0  0  0  0999 V2000
    7.8460    2.0860   -2.0780 C   0  0  0  0  0  0  0  0  0  0  0  0
    6.7500    1.8500   -1.3760 C   0  0  0  0  0  0  0  0  0  0  0  0
    6.0230    0.5700   -1.6620 C   0  0  0  0  0  0  0  0  0  0  0  0
    5.9610   -0.2520   -0.4250 C   0  0  0  0  0  0  0  0  0  0  0  0
    6.9600   -1.1440   -0.1160 C   0  0  0  0  0  0  0  0  0  0  0  0
    6.8590   -1.8880    1.0410 C   0  0  0  0  0  0  0  0  0  0  0  0
    5.7920   -1.7700    1.9000 C   0  0  0  0  0  0  0  0  0  0  0  0
    5.7240   -2.5380    3.0560 C   0  0  0  0  0  0  0  0  0  0  0  0
    7.0000   -3.6580    3.4230 Cl  0  0  0  0  0  0  0  0  0  0  0  0
    4.6590   -2.4230    3.9140 C   0  0  0  0  0  0  0  0  0  0  0  0
    3.6530   -1.5470    3.6350 C   0  0  0  0  0  0  0  0  0  0  0  0
    3.6880   -0.7580    2.4800 C   0  0  0  0  0  0  0  0  0  0  0  0
    2.6120    0.1680    2.1970 C   0  0  0  0  0  0  0  0  0  0  0  0
    1.6500    0.2060    3.0670 O   0  0  0  0  0  0  0  0  0  0  0  0
    2.4330    1.0190    1.1610 O   0  0  0  0  0  0  0  0  0  0  0  0
    1.3580    1.8980    0.9450 C   0  0  0  0  0  0  0  0  0  0  0  0
    0.0720    1.1750    0.8460 C   0  0  0  0  0  0  0  0  0  0  0  0
   -0.0650   -0.1480    1.0360 N   0  0  0  0  0  0  0  0  0  0  0  0
   -1.3490   -0.4670    0.8720 N   0  0  0  0  0  0  0  0  0  0  0  0
   -2.0470    0.6400    0.5760 C   0  0  0  0  0  0  0  0  0  0  0  0
   -3.7980    0.7350    0.2610 S   0  0  0  0  0  0  0  0  0  0  0  0
   -4.0990    0.4800   -1.5120 C   0  0  1  0  0  0  0  0  0  0  0  0
   -3.7350   -0.9310   -1.9250 C   0  0  0  0  0  0  0  0  0  0  0  0
   -5.4820    0.8490   -1.8390 C   0  0  0  0  0  0  0  0  0  0  0  0
   -5.6480    1.8140   -2.6480 O   0  0  0  0  0  0  0  0  0  0  0  0
   -6.6440    0.2420   -1.3450 N   0  0  0  0  0  0  0  0  0  0  0  0
   -6.5580   -0.8680   -0.4280 C   0  0  0  0  0  0  0  0  0  0  0  0
   -7.9560   -1.1500    0.0830 C   0  0  0  0  0  0  0  0  0  0  0  0
   -8.6020    0.0030    0.5040 O   0  0  0  0  0  0  0  0  0  0  0  0
   -8.8410    0.9030   -0.5150 C   0  0  0  0  0  0  0  0  0  0  0  0
   -7.9600    0.6970   -1.7270 C   0  0  0  0  0  0  0  0  0  0  0  0
   -1.1390    1.6320    0.5690 N   0  0  0  0  0  0  0  0  0  0  0  0
    4.7560   -0.8700    1.6140 C   0  0  0  0  0  0  0  0  0  0  0  0
    4.8810   -0.1390    0.4530 C   0  0  0  0  0  0  0  0  0  0  0  0
  1  2  2  0
  2  3  1  0
  3  4  1  0
  4  5  2  0
  4 34  1  0
  5  6  1  0
  6  7  2  0
  7  8  1  0
  7 33  1  0
  8  9  1  0
  8 10  2  0
 10 11  1  0
 11 12  2  0
 12 13  1  0
 12 33  1  0
 13 14  2  0
 13 15  1  0
 15 16  1  0
 16 17  1  0
 17 18  2  0
 17 32  1  0
 18 19  1  0
 19 20  2  0
 20 21  1  0
 20 32  1  0
 21 22  1  0
 22 23  1  1
 22 24  1  0
 24 25  2  0
 24 26  1  0
 26 27  1  0
 26 31  1  0
 27 28  1  0
 28 29  1  0
 29 30  1  0
 30 31  1  0
 33 34  2  0
M  END
