
     RDKit          3D

 34 37  0  0  0  0  0  0  0  0999 V2000
    7.1050    5.9450   -0.2540 C   0  0  0  0  0  0  0  0  0  0  0  0
    7.0660    4.5800   -0.1560 O   0  0  0  0  0  0  0  0  0  0  0  0
    5.8070    4.0400   -0.2050 C   0  0  0  0  0  0  0  0  0  0  0  0
    5.9090    2.5710   -0.0900 C   0  0  0  0  0  0  0  0  0  0  0  0
    5.1780    1.5760   -0.1030 N   0  0  0  0  0  0  0  0  0  0  0  0
    5.5200    0.3380    0.0250 C   0  0  0  0  0  0  0  0  0  0  0  0
    4.5350   -0.7890   -0.0060 C   0  0  0  0  0  0  0  0  0  0  0  0
    4.9100   -1.9780    0.1210 O   0  0  0  0  0  0  0  0  0  0  0  0
    3.1660   -0.5510   -0.1770 N   0  0  0  0  0  0  0  0  0  0  0  0
    2.2560   -1.4260   -0.0590 C   0  0  0  0  0  0  0  0  0  0  0  0
    0.8870   -1.0340   -0.2640 N   0  0  0  0  0  0  0  0  0  0  0  0
    0.6020    0.3830   -0.2800 C   0  0  0  0  0  0  0  0  0  0  0  0
   -0.8460    0.5930   -0.4720 C   0  0  0  0  0  0  0  0  0  0  0  0
   -1.7810    0.7260    0.5500 C   0  0  0  0  0  0  0  0  0  0  0  0
   -3.0180    0.9070   -0.0260 C   0  0  0  0  0  0  0  0  0  0  0  0
   -4.3010    1.0920    0.4450 C   0  0  0  0  0  0  0  0  0  0  0  0
   -5.3790    1.2500   -0.4000 C   0  0  0  0  0  0  0  0  0  0  0  0
   -6.7650    1.4510    0.0570 C   0  0  0  0  0  0  0  0  0  0  0  0
   -7.6210    0.2260   -0.0720 C   0  0  1  0  0  0  0  0  0  0  0  0
   -7.1120   -0.9380    0.7200 C   0  0  0  0  0  0  0  0  0  0  0  0
   -9.0120    0.5640    0.4210 C   0  0  0  0  0  0  0  0  0  0  0  0
   -5.1460    1.2190   -1.7490 C   0  0  0  0  0  0  0  0  0  0  0  0
   -6.4600    1.4110   -2.9140 Cl  0  0  0  0  0  0  0  0  0  0  0  0
   -3.8710    1.0350   -2.2410 C   0  0  0  0  0  0  0  0  0  0  0  0
   -2.7910    0.8760   -1.3830 C   0  0  0  0  0  0  0  0  0  0  0  0
   -1.4970    0.6900   -1.6180 O   0  0  0  0  0  0  0  0  0  0  0  0
    2.4550   -2.7970    0.2660 N   0  0  0  0  0  0  0  0  0  0  0  0
    2.4720   -3.1730    1.6470 C   0  0  0  0  0  0  0  0  0  0  0  0
    2.5570   -4.6710    1.7900 C   0  0  0  0  0  0  0  0  0  0  0  0
    3.5320   -5.1270    0.9160 O   0  0  0  0  0  0  0  0  0  0  0  0
    3.1150   -5.0750   -0.4110 C   0  0  0  0  0  0  0  0  0  0  0  0
    2.6280   -3.7280   -0.8280 C   0  0  0  0  0  0  0  0  0  0  0  0
    6.8510    0.0420    0.2010 C   0  0  0  0  0  0  0  0  0  0  0  0
    7.5650    1.7240    0.1630 S   0  0  0  0  0  0  0  0  0  0  0  0
  1  2  1  0
  2  3  1  0
  3  4  1  0
  4  5  2  0
  4 34  1  0
  5  6  1  0
  6  7  1  0
  6 33  2  0
  7  8  2  0
  7  9  1  0
  9 10  2  3
 10 11  1  0
 10 27  1  0
 11 12  1  0
 12 13  1  0
 13 14  2  0
 13 26  1  0
 14 15  1  0
 15 16  2  0
 15 25  1  0
 16 17  1  0
 17 18  1  0
 17 22  2  0
 18 19  1  0
 19 20  1  1
 19 21  1  0
 22 23  1  0
 22 24  1  0
 24 25  2  0
 25 26  1  0
 27 28  1  0
 27 32  1  0
 28 29  1  0
 29 30  1  0
 30 31  1  0
 31 32  1  0
 33 34  1  0
M  END
