
     RDKit          3D

 34 37  0  0  0  0  0  0  0  0999 V2000
    9.1500    2.4430    0.3790 C   0  0  0  0  0  0  0  0  0  0  0  0
    8.1010    1.6410   -0.2920 C   0  0  0  0  0  0  0  0  0  0  0  0
    7.5800    0.5950    0.3740 N   0  0  0  0  0  0  0  0  0  0  0  0
    6.6250   -0.0930   -0.3000 C   0  0  0  0  0  0  0  0  0  0  0  0
    6.0570   -1.3110    0.3670 C   0  0  0  0  0  0  0  0  0  0  0  0
    4.6390   -1.3010    0.3390 N   0  0  0  0  0  0  0  0  0  0  0  0
    3.8880   -0.4230    1.2020 C   0  0  0  0  0  0  0  0  0  0  0  0
    4.6210    0.3310    1.9320 O   0  0  0  0  0  0  0  0  0  0  0  0
    2.4860   -0.3930    1.2530 C   0  0  0  0  0  0  0  0  0  0  0  0
    1.6290    0.3770    1.8960 C   0  0  0  0  0  0  0  0  0  0  0  0
    0.1660    0.0530    1.6750 C   0  0  0  0  0  0  0  0  0  0  0  0
   -0.8860    0.8500    2.0610 C   0  0  0  0  0  0  0  0  0  0  0  0
   -2.0130    0.1050    1.6790 C   0  0  0  0  0  0  0  0  0  0  0  0
   -3.3600    0.6350    1.9730 C   0  0  0  0  0  0  0  0  0  0  0  0
   -4.4200    1.0690    2.2080 N   0  0  0  0  0  0  0  0  0  0  0  0
   -1.6430   -1.0390    1.1070 C   0  0  0  0  0  0  0  0  0  0  0  0
   -2.4590   -2.4150    0.4450 S   0  0  0  0  0  0  0  0  0  0  0  0
   -4.1750   -2.5240    0.5620 C   0  0  0  0  0  0  0  0  0  0  0  0
   -5.0640   -1.8170   -0.3600 C   0  0  0  0  0  0  0  0  0  0  0  0
   -5.7410   -2.5670   -1.3750 C   0  0  0  0  0  0  0  0  0  0  0  0
   -6.6090   -1.9540   -2.2370 C   0  0  0  0  0  0  0  0  0  0  0  0
   -6.8010   -0.5400   -2.0770 C   0  0  0  0  0  0  0  0  0  0  0  0
   -7.6920    0.1100   -2.9600 C   0  0  0  0  0  0  0  0  0  0  0  0
   -7.8400    1.5140   -2.7620 C   0  0  0  0  0  0  0  0  0  0  0  0
   -7.1790    2.1910   -1.7910 C   0  0  0  0  0  0  0  0  0  0  0  0
   -7.3600    3.9410   -1.5460 Cl  0  0  0  0  0  0  0  0  0  0  0  0
   -6.3460    1.4580   -0.9920 C   0  0  0  0  0  0  0  0  0  0  0  0
   -6.1520    0.1000   -1.1250 C   0  0  0  0  0  0  0  0  0  0  0  0
   -5.3110   -0.5660   -0.3050 N   0  0  0  0  0  0  0  0  0  0  0  0
   -0.2930   -0.9950    1.1340 O   0  0  0  0  0  0  0  0  0  0  0  0
    6.1860    0.2030   -1.5290 C   0  0  0  0  0  0  0  0  0  0  0  0
    6.7760    1.3070   -2.1650 C   0  0  0  0  0  0  0  0  0  0  0  0
    6.3900    1.5990   -3.3040 O   0  0  0  0  0  0  0  0  0  0  0  0
    7.6980    1.9600   -1.5120 O   0  0  0  0  0  0  0  0  0  0  0  0
  1  2  1  0
  2  3  2  0
  2 34  1  0
  3  4  1  0
  4  5  1  0
  4 31  2  0
  5  6  1  0
  6  7  1  0
  7  8  2  0
  7  9  1  0
  9 10  2  3
 10 11  1  0
 11 12  2  0
 11 30  1  0
 12 13  1  0
 13 14  1  0
 13 16  2  0
 14 15  3  0
 16 17  1  0
 16 30  1  0
 17 18  1  0
 18 19  1  0
 19 20  2  0
 19 29  1  0
 20 21  1  0
 21 22  2  0
 22 23  1  0
 22 28  1  0
 23 24  2  0
 24 25  1  0
 25 26  1  0
 25 27  2  0
 27 28  1  0
 28 29  2  0
 31 32  1  0
 32 33  2  0
 32 34  1  0
M  END
