
     RDKit          3D

 34 37  0  0  0  0  0  0  0  0999 V2000
   -6.9630   -0.3110   -0.4240 C   0  0  0  0  0  0  0  0  0  0  0  0
   -6.2110   -1.2650    0.4260 C   0  0  0  0  0  0  0  0  0  0  0  0
   -4.8820   -1.3630    0.3840 C   0  0  0  0  0  0  0  0  0  0  0  0
   -4.1820   -2.2930    1.2170 C   0  0  0  0  0  0  0  0  0  0  0  0
   -2.8940   -2.5120    1.3190 C   0  0  0  0  0  0  0  0  0  0  0  0
   -2.3730   -3.7990    2.4760 Cl  0  0  0  0  0  0  0  0  0  0  0  0
   -1.8130   -1.7670    0.7660 C   0  0  0  0  0  0  0  0  0  0  0  0
   -0.6820   -2.3720    0.3260 N   0  0  0  0  0  0  0  0  0  0  0  0
    0.2070   -1.5070   -0.0750 N   0  0  0  0  0  0  0  0  0  0  0  0
    1.4720   -1.8300   -0.5880 C   0  0  0  0  0  0  0  0  0  0  0  0
    1.7770   -1.6290   -1.9180 C   0  0  0  0  0  0  0  0  0  0  0  0
    3.0080   -1.9480   -2.3950 C   0  0  0  0  0  0  0  0  0  0  0  0
    3.9860   -2.4790   -1.5810 C   0  0  0  0  0  0  0  0  0  0  0  0
    5.3070   -2.8210   -2.0970 C   0  0  0  0  0  0  0  0  0  0  0  0
    5.5440   -2.6250   -3.3030 O   0  0  0  0  0  0  0  0  0  0  0  0
    6.2840   -3.3500   -1.2880 O   0  0  0  0  0  0  0  0  0  0  0  0
    7.5880   -3.6980   -1.7540 C   0  0  0  0  0  0  0  0  0  0  0  0
    3.6680   -2.6750   -0.2540 C   0  0  0  0  0  0  0  0  0  0  0  0
    2.4520   -2.3520    0.1850 N   0  0  0  0  0  0  0  0  0  0  0  0
   -0.3490   -0.2530    0.1100 C   0  0  0  0  0  0  0  0  0  0  0  0
    0.4210    0.8590   -0.2600 N   0  0  0  0  0  0  0  0  0  0  0  0
    0.4200    2.1710    0.2640 C   0  0  0  0  0  0  0  0  0  0  0  0
   -0.2390    2.4150    1.2940 O   0  0  0  0  0  0  0  0  0  0  0  0
    1.2010    3.2730   -0.4050 C   0  0  2  0  0  0  0  0  0  0  0  0
    2.6630    2.9870   -0.4210 C   0  0  0  0  0  0  0  0  0  0  0  0
    3.2380    4.1710    0.3370 C   0  0  0  0  0  0  0  0  0  0  0  0
    2.0560    4.5500    1.2220 C   0  0  0  0  0  0  0  0  0  0  0  0
    0.9930    4.4230    0.3480 O   0  0  0  0  0  0  0  0  0  0  0  0
   -1.6050   -0.4190    0.6280 C   0  0  0  0  0  0  0  0  0  0  0  0
   -2.5510    0.6490    1.0900 C   0  0  0  0  0  0  0  0  0  0  0  0
   -3.1480    0.5500    2.2290 C   0  0  0  0  0  0  0  0  0  0  0  0
   -4.0690    1.6310    2.6310 C   0  0  0  0  0  0  0  0  0  0  0  0
   -4.6400    2.1120    0.9400 S   0  0  0  0  0  0  0  0  0  0  0  0
   -2.9850    1.7280    0.1830 C   0  0  0  0  0  0  0  0  0  0  0  0
  1  2  1  0
  2  3  2  3
  3  4  1  0
  4  5  2  3
  5  6  1  0
  5  7  1  0
  7  8  2  0
  7 29  1  0
  8  9  1  0
  9 10  1  0
  9 20  1  0
 10 11  2  0
 10 19  1  0
 11 12  1  0
 12 13  2  0
 13 14  1  0
 13 18  1  0
 14 15  2  0
 14 16  1  0
 16 17  1  0
 18 19  2  0
 20 21  1  0
 20 29  2  0
 21 22  1  0
 22 23  2  0
 24 22  1  1
 24 25  1  0
 24 28  1  0
 25 26  1  0
 26 27  1  0
 27 28  1  0
 29 30  1  0
 30 31  2  0
 30 34  1  0
 31 32  1  0
 32 33  1  0
 33 34  1  0
M  END
