
     RDKit          3D

 34 37  0  0  0  0  0  0  0  0999 V2000
    3.5530    3.1760    1.4540 C   0  0  0  0  0  0  0  0  0  0  0  0
    4.2420    2.2250    0.5110 C   0  0  0  0  0  0  0  0  0  0  0  0
    5.4670    2.4030   -0.1040 C   0  0  0  0  0  0  0  0  0  0  0  0
    5.7100    1.2900   -0.8790 C   0  0  0  0  0  0  0  0  0  0  0  0
    4.6060    0.4670   -0.7010 C   0  0  0  0  0  0  0  0  0  0  0  0
    4.4310   -0.8760   -1.3610 C   0  0  2  0  0  0  0  0  0  0  0  0
    3.1610   -0.8550   -2.1420 C   0  0  0  0  0  0  0  0  0  0  0  0
    3.0860   -1.0290   -3.3290 O   0  0  0  0  0  0  0  0  0  0  0  0
    4.2350   -2.0940   -0.0290 S   0  0  0  0  0  0  0  0  0  0  0  0
    2.7050   -1.8090    0.8530 C   0  0  0  0  0  0  0  0  0  0  0  0
    2.6590   -0.9830    1.9320 N   0  0  0  0  0  0  0  0  0  0  0  0
    1.5110   -0.7700    2.5930 C   0  0  0  0  0  0  0  0  0  0  0  0
    1.4340   -0.0090    3.5980 O   0  0  0  0  0  0  0  0  0  0  0  0
    0.3530   -1.3890    2.1860 C   0  0  0  0  0  0  0  0  0  0  0  0
    0.3960   -2.2300    1.0880 C   0  0  0  0  0  0  0  0  0  0  0  0
   -0.7580   -2.9070    0.6060 N   0  0  0  0  0  0  0  0  0  0  0  0
   -1.6380   -2.2830   -0.0960 C   0  0  0  0  0  0  0  0  0  0  0  0
   -1.4460   -0.8650   -0.3990 C   0  0  0  0  0  0  0  0  0  0  0  0
   -2.4850   -0.0440    0.0950 O   0  0  0  0  0  0  0  0  0  0  0  0
   -2.4060    1.3150   -0.1320 C   0  0  0  0  0  0  0  0  0  0  0  0
   -1.3670    1.9100   -0.8160 C   0  0  0  0  0  0  0  0  0  0  0  0
   -1.3270    3.2750   -1.0220 C   0  0  0  0  0  0  0  0  0  0  0  0
   -2.3510    4.0850   -0.5350 C   0  0  0  0  0  0  0  0  0  0  0  0
   -2.3250    5.8310   -0.7840 Cl  0  0  0  0  0  0  0  0  0  0  0  0
   -3.3740    3.4650    0.1430 C   0  0  0  0  0  0  0  0  0  0  0  0
   -3.4250    2.1150    0.3530 C   0  0  0  0  0  0  0  0  0  0  0  0
   -4.5770    1.5200    1.1020 C   0  0  0  0  0  0  0  0  0  0  0  0
   -2.7760   -3.0330   -0.5470 N   0  0  0  0  0  0  0  0  0  0  0  0
   -3.7230   -3.6080    0.2200 C   0  0  0  0  0  0  0  0  0  0  0  0
   -4.6540   -4.2400   -0.5670 C   0  0  0  0  0  0  0  0  0  0  0  0
   -4.2700   -4.0500   -1.8740 C   0  0  0  0  0  0  0  0  0  0  0  0
   -3.0980   -3.2950   -1.8250 C   0  0  0  0  0  0  0  0  0  0  0  0
    1.5670   -2.4070    0.4660 N   0  0  0  0  0  0  0  0  0  0  0  0
    3.7930    1.0720    0.1190 O   0  0  0  0  0  0  0  0  0  0  0  0
  1  2  1  0
  2  3  2  0
  2 34  1  0
  3  4  1  0
  4  5  2  0
  5  6  1  0
  5 34  1  0
  6  7  1  0
  6  9  1  1
  7  8  2  0
  9 10  1  0
 10 11  2  0
 10 33  1  0
 11 12  1  0
 12 13  2  0
 12 14  1  0
 14 15  2  0
 15 16  1  0
 15 33  1  0
 16 17  2  3
 17 18  1  0
 17 28  1  0
 18 19  1  0
 19 20  1  0
 20 21  2  0
 20 26  1  0
 21 22  1  0
 22 23  2  0
 23 24  1  0
 23 25  1  0
 25 26  2  0
 26 27  1  0
 28 29  1  0
 28 32  1  0
 29 30  2  0
 30 31  1  0
 31 32  2  0
M  END
