
     RDKit          3D

 33 36  0  0  0  0  0  0  0  0999 V2000
   10.4000   -3.0100   -0.7190 C   0  0  0  0  0  0  0  0  0  0  0  0
    9.7510   -1.7380   -0.2370 C   0  0  0  0  0  0  0  0  0  0  0  0
    7.9620   -1.8990   -0.4350 S   0  0  0  0  0  0  0  0  0  0  0  0
    7.1090   -0.4360    0.1160 C   0  0  0  0  0  0  0  0  0  0  0  0
    7.7270    0.6490    0.6170 N   0  0  0  0  0  0  0  0  0  0  0  0
    7.0170    1.6910    1.0030 N   0  0  0  0  0  0  0  0  0  0  0  0
    5.6670    1.7450    0.9280 C   0  0  0  0  0  0  0  0  0  0  0  0
    4.9360    2.9690    1.3960 C   0  0  0  0  0  0  0  0  0  0  0  0
    5.0170    0.6490    0.4200 C   0  0  0  0  0  0  0  0  0  0  0  0
    3.5380    0.6180    0.2950 C   0  0  2  0  0  0  0  0  0  0  0  0
    3.1350   -0.7550   -0.1550 C   0  0  0  0  0  0  0  0  0  0  0  0
    1.9000   -0.8210   -0.9640 C   0  0  0  0  0  0  0  0  0  0  0  0
    1.0290    0.3160   -0.7680 N   0  0  0  0  0  0  0  0  0  0  0  0
   -0.3510    0.1030   -0.5990 C   0  0  0  0  0  0  0  0  0  0  0  0
   -0.7900   -1.0960   -0.6170 O   0  0  0  0  0  0  0  0  0  0  0  0
   -1.3000    1.1850   -0.4040 C   0  0  0  0  0  0  0  0  0  0  0  0
   -1.0140    2.4730   -0.3660 N   0  0  0  0  0  0  0  0  0  0  0  0
   -2.1080    3.1470   -0.1770 N   0  0  0  0  0  0  0  0  0  0  0  0
   -3.1840    2.3100   -0.0820 C   0  0  0  0  0  0  0  0  0  0  0  0
   -4.5870    2.7890    0.0980 C   0  0  0  0  0  0  0  0  0  0  0  0
   -2.6940    1.0390   -0.2230 C   0  0  0  0  0  0  0  0  0  0  0  0
   -3.3750   -0.2710   -0.2490 C   0  0  0  0  0  0  0  0  0  0  0  0
   -4.7420   -0.2230    0.0260 N   0  0  0  0  0  0  0  0  0  0  0  0
   -5.1710    0.0360    1.3520 C   0  0  0  0  0  0  0  0  0  0  0  0
   -5.3910   -1.2300    2.1650 C   0  0  0  0  0  0  0  0  0  0  0  0
   -6.7100   -1.7650    2.0140 N   0  0  0  0  0  0  0  0  0  0  0  0
   -7.3350   -1.4780    0.7630 C   0  0  0  0  0  0  0  0  0  0  0  0
   -6.4940   -1.9050   -0.4220 C   0  0  1  0  0  0  0  0  0  0  0  0
   -7.4950   -2.2160   -1.5450 C   0  0  0  0  0  0  0  0  0  0  0  0
   -5.6640   -0.7590   -0.8890 C   0  0  0  0  0  0  0  0  0  0  0  0
    1.5430    1.6700   -0.7430 C   0  0  0  0  0  0  0  0  0  0  0  0
    3.0710    1.6250   -0.7360 C   0  0  0  0  0  0  0  0  0  0  0  0
    5.7740   -0.4020    0.0340 N   0  0  0  0  0  0  0  0  0  0  0  0
  1  2  1  0
  2  3  1  0
  3  4  1  0
  4  5  2  0
  4 33  1  0
  5  6  1  0
  6  7  2  0
  7  8  1  0
  7  9  1  0
 10  9  1  6
  9 33  2  0
 10 11  1  0
 10 32  1  0
 11 12  1  0
 12 13  1  0
 13 14  1  0
 13 31  1  0
 14 15  2  0
 14 16  1  0
 16 17  2  0
 16 21  1  0
 17 18  1  0
 18 19  1  0
 19 20  1  0
 19 21  2  0
 21 22  1  0
 22 23  1  0
 23 24  1  0
 23 30  1  0
 24 25  1  0
 25 26  1  0
 26 27  1  0
 27 28  1  0
 28 29  1  6
 28 30  1  0
 31 32  1  0
M  END
