
     RDKit          3D

 32 36  0  0  0  0  0  0  0  0999 V2000
   -5.8510    1.0400    0.4560 C   0  0  0  0  0  0  0  0  0  0  0  0
   -5.0200   -0.0640   -0.0140 C   0  0  2  0  0  0  0  0  0  0  0  0
   -6.0440   -1.1860   -0.4340 C   0  0  0  0  0  0  0  0  0  0  0  0
   -4.1930   -0.7400    0.8860 O   0  0  0  0  0  0  0  0  0  0  0  0
   -2.9890   -1.0870    0.3090 C   0  0  0  0  0  0  0  0  0  0  0  0
   -1.9770   -0.0640    0.0990 C   0  0  0  0  0  0  0  0  0  0  0  0
   -0.7960   -0.1440   -0.6060 C   0  0  0  0  0  0  0  0  0  0  0  0
   -0.2380   -1.2620   -1.3480 C   0  0  0  0  0  0  0  0  0  0  0  0
   -0.9880   -2.1810   -2.0120 C   0  0  0  0  0  0  0  0  0  0  0  0
   -0.3460   -3.2680   -2.6080 C   0  0  0  0  0  0  0  0  0  0  0  0
    1.0060   -3.4570   -2.5610 C   0  0  0  0  0  0  0  0  0  0  0  0
    1.7920   -2.5280   -1.8880 C   0  0  0  0  0  0  0  0  0  0  0  0
    3.1560   -2.6900   -1.8150 C   0  0  0  0  0  0  0  0  0  0  0  0
    3.8840   -1.7350   -1.1250 C   0  0  0  0  0  0  0  0  0  0  0  0
    3.2940   -0.6480   -0.5210 C   0  0  0  0  0  0  0  0  0  0  0  0
    3.9830    0.3600    0.1810 N   0  0  0  0  0  0  0  0  0  0  0  0
    5.3440    0.5040    0.4320 C   0  0  0  0  0  0  0  0  0  0  0  0
    5.8640    1.5920    1.1260 C   0  0  0  0  0  0  0  0  0  0  0  0
    7.1910    1.6820    1.3480 C   0  0  0  0  0  0  0  0  0  0  0  0
    8.0610    0.6920    0.8890 C   0  0  0  0  0  0  0  0  0  0  0  0
    7.5040   -0.3290    0.2280 N   0  0  0  0  0  0  0  0  0  0  0  0
    6.2270   -0.4240    0.0100 N   0  0  0  0  0  0  0  0  0  0  0  0
    1.9410   -0.5890   -0.6570 N   0  0  0  0  0  0  0  0  0  0  0  0
    1.1670   -1.4550   -1.2980 C   0  0  0  0  0  0  0  0  0  0  0  0
   -0.0950    1.0190   -0.4250 N   0  0  0  0  0  0  0  0  0  0  0  0
   -0.7670    1.8400    0.3660 C   0  0  0  0  0  0  0  0  0  0  0  0
   -0.4190    3.1110    0.8470 C   0  0  0  0  0  0  0  0  0  0  0  0
   -1.3000    3.7220    1.7050 C   0  0  0  0  0  0  0  0  0  0  0  0
   -2.4650    3.1110    2.0710 C   0  0  0  0  0  0  0  0  0  0  0  0
   -3.6100    3.8710    3.1730 Cl  0  0  0  0  0  0  0  0  0  0  0  0
   -2.7750    1.8430    1.5650 C   0  0  0  0  0  0  0  0  0  0  0  0
   -1.9380    1.2010    0.7110 C   0  0  0  0  0  0  0  0  0  0  0  0
  2  1  1  1
  2  3  1  0
  2  4  1  0
  4  5  1  0
  5  6  1  0
  6  7  2  0
  6 32  1  0
  7  8  1  0
  7 25  1  0
  8  9  2  0
  8 24  1  0
  9 10  1  0
 10 11  2  0
 11 12  1  0
 12 13  2  0
 12 24  1  0
 13 14  1  0
 14 15  2  0
 15 16  1  0
 15 23  1  0
 16 17  1  0
 17 18  2  0
 17 22  1  0
 18 19  1  0
 19 20  2  0
 20 21  1  0
 21 22  2  0
 23 24  2  0
 25 26  1  0
 26 27  2  0
 26 32  1  0
 27 28  1  0
 28 29  2  0
 29 30  1  0
 29 31  1  0
 31 32  2  0
M  END
