
     RDKit          3D

 32 36  0  0  0  0  0  0  0  0999 V2000
   -5.5150   -0.2180   -1.1640 C   0  0  0  0  0  0  0  0  0  0  0  0
   -4.9500   -0.2620    0.2310 C   0  0  0  0  0  0  0  0  0  0  0  0
   -3.8330   -1.2280    0.2410 C   0  0  0  0  0  0  0  0  0  0  0  0
   -4.0770   -2.5730    0.2450 C   0  0  0  0  0  0  0  0  0  0  0  0
   -5.4780   -3.0490    0.2440 C   0  0  0  0  0  0  0  0  0  0  0  0
   -3.0190   -3.4470    0.2510 C   0  0  0  0  0  0  0  0  0  0  0  0
   -1.7090   -3.0140    0.2530 C   0  0  0  0  0  0  0  0  0  0  0  0
   -1.4890   -1.6840    0.2490 N   0  0  0  0  0  0  0  0  0  0  0  0
   -2.5270   -0.7930    0.2430 C   0  0  0  0  0  0  0  0  0  0  0  0
   -1.9780    0.4220    0.2400 N   0  0  0  0  0  0  0  0  0  0  0  0
   -0.6380    0.3020    0.2440 C   0  0  0  0  0  0  0  0  0  0  0  0
    0.3240    1.2930    0.2420 C   0  0  0  0  0  0  0  0  0  0  0  0
   -0.0520    2.7000    0.2340 C   0  0  0  0  0  0  0  0  0  0  0  0
    0.5180    3.6650    1.0300 C   0  0  0  0  0  0  0  0  0  0  0  0
    0.1370    4.9840    0.9960 C   0  0  0  0  0  0  0  0  0  0  0  0
   -0.8690    5.3680    0.1210 C   0  0  0  0  0  0  0  0  0  0  0  0
   -1.4180    7.0340    0.0140 Cl  0  0  0  0  0  0  0  0  0  0  0  0
   -1.4620    4.4330   -0.6890 C   0  0  0  0  0  0  0  0  0  0  0  0
   -1.0560    3.1160   -0.6310 C   0  0  0  0  0  0  0  0  0  0  0  0
    1.6040    0.8890    0.2460 N   0  0  0  0  0  0  0  0  0  0  0  0
    1.9560   -0.3970    0.2520 C   0  0  0  0  0  0  0  0  0  0  0  0
    3.3360   -0.8610    0.2540 C   0  0  0  0  0  0  0  0  0  0  0  0
    3.6670   -2.1970    0.2600 C   0  0  0  0  0  0  0  0  0  0  0  0
    5.0040   -2.6110    0.2620 C   0  0  0  0  0  0  0  0  0  0  0  0
    5.3270   -3.9910    0.2680 N   0  0  0  0  0  0  0  0  0  0  0  0
    6.0170   -1.6900    0.2570 C   0  0  0  0  0  0  0  0  0  0  0  0
    5.7020   -0.3500    0.2510 C   0  0  0  0  0  0  0  0  0  0  0  0
    4.3640    0.0580    0.2490 C   0  0  0  0  0  0  0  0  0  0  0  0
    4.0360    1.3890    0.2430 O   0  0  0  0  0  0  0  0  0  0  0  0
    4.9840    2.4210    0.2380 C   0  0  0  0  0  0  0  0  0  0  0  0
    0.9860   -1.3460    0.2530 N   0  0  0  0  0  0  0  0  0  0  0  0
   -0.3160   -1.0300    0.2500 C   0  0  0  0  0  0  0  0  0  0  0  0
  1  2  1  0
  2  3  1  0
  3  4  2  0
  3  9  1  0
  4  5  1  0
  4  6  1  0
  6  7  2  0
  7  8  1  0
  8  9  1  0
  8 32  1  0
  9 10  2  0
 10 11  1  0
 11 12  2  0
 11 32  1  0
 12 13  1  0
 12 20  1  0
 13 14  2  0
 13 19  1  0
 14 15  1  0
 15 16  2  0
 16 17  1  0
 16 18  1  0
 18 19  2  0
 20 21  2  0
 21 22  1  0
 21 31  1  0
 22 23  2  0
 22 28  1  0
 23 24  1  0
 24 25  1  0
 24 26  2  0
 26 27  1  0
 27 28  2  0
 28 29  1  0
 29 30  1  0
 31 32  2  0
M  END
