
     RDKit          3D

 33 36  0  0  0  0  0  0  0  0999 V2000
   -9.5870    0.1160    0.3890 C   0  0  0  0  0  0  0  0  0  0  0  0
   -8.3090   -0.6530    0.0810 C   0  0  0  0  0  0  0  0  0  0  0  0
   -7.4570    0.0870   -0.8780 C   0  0  0  0  0  0  0  0  0  0  0  0
   -7.9960    0.3910   -2.2350 C   0  0  0  0  0  0  0  0  0  0  0  0
   -6.2480    0.4760   -0.5690 C   0  0  0  0  0  0  0  0  0  0  0  0
   -5.3320    1.2160   -1.4670 C   0  0  0  0  0  0  0  0  0  0  0  0
   -4.0620    0.4410   -1.5640 C   0  0  0  0  0  0  0  0  0  0  0  0
   -3.5280    0.1580   -0.2730 N   0  0  0  0  0  0  0  0  0  0  0  0
   -4.3920    0.0560    0.8400 C   0  0  0  0  0  0  0  0  0  0  0  0
   -5.6950    0.2010    0.7380 N   0  0  0  0  0  0  0  0  0  0  0  0
   -3.8460   -0.2290    2.1690 C   0  0  0  0  0  0  0  0  0  0  0  0
   -2.5330   -0.3770    2.2370 C   0  0  0  0  0  0  0  0  0  0  0  0
   -1.6950   -0.2690    1.1030 N   0  0  0  0  0  0  0  0  0  0  0  0
   -2.1190   -0.0250   -0.0620 C   0  0  0  0  0  0  0  0  0  0  0  0
   -1.2290    0.0480   -1.1950 N   0  0  0  0  0  0  0  0  0  0  0  0
    0.1350    0.1300   -0.9180 N   0  0  0  0  0  0  0  0  0  0  0  0
    0.7580   -0.9640   -0.2720 C   0  0  0  0  0  0  0  0  0  0  0  0
    0.0470   -1.9550    0.0310 O   0  0  0  0  0  0  0  0  0  0  0  0
    2.1860   -0.9850    0.0520 C   0  0  1  0  0  0  0  0  0  0  0  0
    3.0470   -1.0290   -1.1990 C   0  0  0  0  0  0  0  0  0  0  0  0
    2.7340    0.4950    0.9720 S   0  0  0  0  0  0  0  0  0  0  0  0
    4.5100    0.2890    1.2020 C   0  0  0  0  0  0  0  0  0  0  0  0
    5.4690    0.7120    0.3380 N   0  0  0  0  0  0  0  0  0  0  0  0
    6.6790    0.3950    0.8110 C   0  0  0  0  0  0  0  0  0  0  0  0
    7.9820    0.6540    0.2220 C   0  0  0  0  0  0  0  0  0  0  0  0
    9.1290    0.2320    0.8560 C   0  0  0  0  0  0  0  0  0  0  0  0
   10.3570    0.4910    0.2770 C   0  0  0  0  0  0  0  0  0  0  0  0
   10.4410    1.1660   -0.9280 C   0  0  0  0  0  0  0  0  0  0  0  0
    9.2870    1.5870   -1.5600 C   0  0  0  0  0  0  0  0  0  0  0  0
    8.0700    1.3310   -0.9860 C   0  0  0  0  0  0  0  0  0  0  0  0
    6.4600   -0.2280    1.9800 N   0  0  0  0  0  0  0  0  0  0  0  0
    5.1510   -0.2950    2.2220 N   0  0  0  0  0  0  0  0  0  0  0  0
    4.5540   -0.8940    3.3810 C   0  0  0  0  0  0  0  0  0  0  0  0
  1  2  1  0
  2  3  1  0
  3  4  1  0
  3  5  2  3
  5  6  1  0
  5 10  1  0
  6  7  1  0
  7  8  1  0
  8  9  1  0
  8 14  1  0
  9 10  2  0
  9 11  1  0
 11 12  2  0
 12 13  1  0
 13 14  2  0
 14 15  1  0
 15 16  1  0
 16 17  1  0
 17 18  2  0
 17 19  1  0
 19 20  1  6
 19 21  1  0
 21 22  1  0
 22 23  2  0
 22 32  1  0
 23 24  1  0
 24 25  1  0
 24 31  2  0
 25 26  2  0
 25 30  1  0
 26 27  1  0
 27 28  2  0
 28 29  1  0
 29 30  2  0
 31 32  1  0
 32 33  1  0
M  END
