
     RDKit          3D

 32 36  0  0  0  0  0  0  0  0999 V2000
    6.2580    0.8270    3.8600 O   0  0  0  0  0  0  0  0  0  0  0  0
    6.1260    0.5270    2.6260 C   0  0  0  0  0  0  0  0  0  0  0  0
    7.1540    0.5150    1.7750 N   0  0  0  0  0  0  0  0  0  0  0  0
    6.9360    0.1910    0.4890 C   0  0  0  0  0  0  0  0  0  0  0  0
    8.0030    0.2220   -0.3850 C   0  0  0  0  0  0  0  0  0  0  0  0
    7.7420   -0.0710   -1.7060 C   0  0  0  0  0  0  0  0  0  0  0  0
    6.4860   -0.3810   -2.1540 C   0  0  0  0  0  0  0  0  0  0  0  0
    5.4090   -0.4100   -1.2560 C   0  0  0  0  0  0  0  0  0  0  0  0
    5.6360   -0.1280    0.0670 C   0  0  0  0  0  0  0  0  0  0  0  0
    4.5810   -0.1200    0.9380 C   0  0  0  0  0  0  0  0  0  0  0  0
    3.1930   -0.3940    0.6440 C   0  0  0  0  0  0  0  0  0  0  0  0
    2.6700   -1.3020   -0.2150 C   0  0  0  0  0  0  0  0  0  0  0  0
    1.3020   -1.3870   -0.4740 C   0  0  0  0  0  0  0  0  0  0  0  0
    0.4150   -0.5450    0.1420 C   0  0  0  0  0  0  0  0  0  0  0  0
   -1.0220   -0.6510   -0.1440 C   0  0  0  0  0  0  0  0  0  0  0  0
   -1.5180   -1.5430   -0.9890 N   0  0  0  0  0  0  0  0  0  0  0  0
   -2.8120   -1.6620   -1.2630 C   0  0  0  0  0  0  0  0  0  0  0  0
   -3.7130   -0.7760   -0.6080 C   0  0  0  0  0  0  0  0  0  0  0  0
   -5.1210   -0.9130   -0.9150 C   0  0  0  0  0  0  0  0  0  0  0  0
   -5.5290   -1.4830   -2.0660 C   0  0  0  0  0  0  0  0  0  0  0  0
   -6.9860   -1.4750   -2.0620 C   0  0  0  0  0  0  0  0  0  0  0  0
   -7.3700   -0.8880   -0.7680 C   0  0  0  0  0  0  0  0  0  0  0  0
   -6.2600   -0.5680   -0.1310 C   0  0  0  0  0  0  0  0  0  0  0  0
   -3.2350    0.1500    0.2580 C   0  0  0  0  0  0  0  0  0  0  0  0
   -4.0090    1.1810    0.8380 N   0  0  0  0  0  0  0  0  0  0  0  0
   -3.4170    2.0800    1.8340 C   0  0  0  0  0  0  0  0  0  0  0  0
   -4.4590    3.0660    2.2740 C   0  0  0  0  0  0  0  0  0  0  0  0
   -3.7870    4.1720    3.4790 Cl  0  0  0  0  0  0  0  0  0  0  0  0
   -1.8710    0.1810    0.4690 N   0  0  0  0  0  0  0  0  0  0  0  0
    0.9180    0.3850    1.0210 C   0  0  0  0  0  0  0  0  0  0  0  0
    2.2670    0.4700    1.2750 C   0  0  0  0  0  0  0  0  0  0  0  0
    4.8850    0.2220    2.2260 N   0  0  0  0  0  0  0  0  0  0  0  0
  1  2  2  0
  2  3  1  0
  2 32  1  0
  3  4  2  0
  4  5  1  0
  4  9  1  0
  5  6  2  0
  6  7  1  0
  7  8  2  0
  8  9  1  0
  9 10  2  0
 10 11  1  0
 10 32  1  0
 11 12  2  0
 11 31  1  0
 12 13  1  0
 13 14  2  0
 14 15  1  0
 14 30  1  0
 15 16  2  0
 15 29  1  0
 16 17  1  0
 17 18  2  0
 18 19  1  0
 18 24  1  0
 19 20  2  0
 19 23  1  0
 20 21  1  0
 21 22  1  0
 22 23  2  0
 24 25  1  0
 24 29  2  0
 25 26  1  0
 26 27  1  0
 27 28  1  0
 30 31  2  0
M  END
