
     RDKit          3D

 33 36  0  0  0  0  0  0  0  0999 V2000
   -7.0680   -2.5020   -0.7220 C   0  0  0  0  0  0  0  0  0  0  0  0
   -5.6780   -2.8080   -0.2660 C   0  0  0  0  0  0  0  0  0  0  0  0
   -5.3090   -4.0370    0.0530 C   0  0  0  0  0  0  0  0  0  0  0  0
   -3.9580   -4.3480    0.4990 C   0  0  0  0  0  0  0  0  0  0  0  0
   -3.0100   -3.4220    0.6140 C   0  0  0  0  0  0  0  0  0  0  0  0
   -3.3380   -2.0860    0.2870 N   0  0  0  0  0  0  0  0  0  0  0  0
   -2.2360   -1.2290    0.4510 C   0  0  0  0  0  0  0  0  0  0  0  0
   -0.9560   -1.8150    0.8950 C   0  0  0  0  0  0  0  0  0  0  0  0
    0.0470   -0.7420    1.0950 N   0  0  0  0  0  0  0  0  0  0  0  0
    1.3510   -1.0740    1.5190 C   0  0  0  0  0  0  0  0  0  0  0  0
    1.6070   -2.2880    1.7110 O   0  0  0  0  0  0  0  0  0  0  0  0
    2.3790   -0.1310    1.7380 N   0  0  0  0  0  0  0  0  0  0  0  0
    3.6750   -0.5550    2.1650 C   0  0  2  0  0  0  0  0  0  0  0  0
    4.0490   -0.0250    3.5290 C   0  0  0  0  0  0  0  0  0  0  0  0
    4.7550   -0.3420    1.1720 C   0  0  0  0  0  0  0  0  0  0  0  0
    5.7060   -1.2530    0.8060 N   0  0  0  0  0  0  0  0  0  0  0  0
    6.5050   -0.7250   -0.1000 N   0  0  0  0  0  0  0  0  0  0  0  0
    6.1040    0.5360   -0.3520 C   0  0  0  0  0  0  0  0  0  0  0  0
    6.7290    1.5010   -1.3180 C   0  0  2  0  0  0  0  0  0  0  0  0
    6.7750    0.8520   -2.6750 C   0  0  0  0  0  0  0  0  0  0  0  0
    8.1780    1.7730   -0.8920 C   0  0  0  0  0  0  0  0  0  0  0  0
    5.0250    0.7540    0.4410 N   0  0  0  0  0  0  0  0  0  0  0  0
    4.2870    1.9860    0.4930 C   0  0  0  0  0  0  0  0  0  0  0  0
   -2.2410    0.0510    0.2320 N   0  0  0  0  0  0  0  0  0  0  0  0
   -3.2860    0.9030   -0.2070 C   0  0  0  0  0  0  0  0  0  0  0  0
   -3.0750    2.6270   -0.4330 S   0  0  0  0  0  0  0  0  0  0  0  0
   -4.7150    2.9840   -0.9630 C   0  0  0  0  0  0  0  0  0  0  0  0
   -5.2780    4.3210   -1.3470 C   0  0  0  0  0  0  0  0  0  0  0  0
   -5.3200    1.7500   -0.9310 C   0  0  0  0  0  0  0  0  0  0  0  0
   -6.7900    1.6350   -1.3340 C   0  0  0  0  0  0  0  0  0  0  0  0
   -4.5760    0.6960   -0.5430 C   0  0  0  0  0  0  0  0  0  0  0  0
   -5.1660   -0.6440   -0.4860 N   0  0  0  0  0  0  0  0  0  0  0  0
   -4.6730   -1.7690   -0.1550 C   0  0  0  0  0  0  0  0  0  0  0  0
  1  2  1  0
  2  3  2  0
  2 33  1  0
  3  4  1  0
  4  5  2  0
  5  6  1  0
  6  7  1  0
  6 33  1  0
  7  8  1  0
  7 24  2  0
  8  9  1  0
  9 10  1  0
 10 11  2  0
 10 12  1  0
 12 13  1  0
 13 14  1  1
 13 15  1  0
 15 16  2  0
 15 22  1  0
 16 17  1  0
 17 18  2  0
 18 19  1  0
 18 22  1  0
 19 20  1  6
 19 21  1  0
 22 23  1  0
 24 25  1  0
 25 26  1  0
 25 31  2  0
 26 27  1  0
 27 28  1  0
 27 29  2  0
 29 30  1  0
 29 31  1  0
 31 32  1  0
 32 33  2  0
M  END
