
     RDKit          3D

 32 36  0  0  0  0  0  0  0  0999 V2000
    4.5840   -0.8300   -2.9320 C   0  0  0  0  0  0  0  0  0  0  0  0
    4.8300   -1.5880   -1.7770 O   0  0  0  0  0  0  0  0  0  0  0  0
    3.8520   -1.6910   -0.7790 C   0  0  0  0  0  0  0  0  0  0  0  0
    2.6330   -1.0630   -0.8910 C   0  0  0  0  0  0  0  0  0  0  0  0
    1.6980   -1.1630    0.0680 C   0  0  0  0  0  0  0  0  0  0  0  0
    0.4030   -0.4760   -0.0090 C   0  0  0  0  0  0  0  0  0  0  0  0
   -0.6740   -1.2300    0.2590 N   0  0  0  0  0  0  0  0  0  0  0  0
   -1.9670   -0.8230    0.2050 C   0  0  0  0  0  0  0  0  0  0  0  0
   -2.8480   -1.6300    0.4830 N   0  0  0  0  0  0  0  0  0  0  0  0
   -4.1880   -1.7950    0.5960 C   0  0  0  0  0  0  0  0  0  0  0  0
   -4.9500   -2.2540   -0.5000 C   0  0  0  0  0  0  0  0  0  0  0  0
   -6.2770   -2.4430   -0.3980 C   0  0  0  0  0  0  0  0  0  0  0  0
   -6.9110   -2.1830    0.8070 C   0  0  0  0  0  0  0  0  0  0  0  0
   -6.2010   -1.7330    1.9040 C   0  0  0  0  0  0  0  0  0  0  0  0
   -7.0450   -1.4110    3.4280 Cl  0  0  0  0  0  0  0  0  0  0  0  0
   -4.8540   -1.5370    1.8130 C   0  0  0  0  0  0  0  0  0  0  0  0
   -2.1080    0.5180   -0.1750 C   0  0  0  0  0  0  0  0  0  0  0  0
   -3.3730    1.0350   -0.3050 C   0  0  0  0  0  0  0  0  0  0  0  0
   -3.5390    2.3400   -0.7120 C   0  0  0  0  0  0  0  0  0  0  0  0
   -2.4360    3.1110   -0.9840 C   0  0  0  0  0  0  0  0  0  0  0  0
   -1.2340    2.5520   -0.8390 N   0  0  0  0  0  0  0  0  0  0  0  0
   -1.0070    1.2870   -0.4450 C   0  0  0  0  0  0  0  0  0  0  0  0
    0.2790    0.7770   -0.3530 N   0  0  0  0  0  0  0  0  0  0  0  0
    1.2910    1.7890   -0.5200 C   0  0  2  0  0  0  0  0  0  0  0  0
    2.6530    1.5960   -0.0090 C   0  0  0  0  0  0  0  0  0  0  0  0
    3.0990    3.0360    0.4490 C   0  0  0  0  0  0  0  0  0  0  0  0
    1.9040    3.3940    1.2490 C   0  0  0  0  0  0  0  0  0  0  0  0
    0.7730    2.9950    0.3180 C   0  0  0  0  0  0  0  0  0  0  0  0
    1.9720   -1.9160    1.1890 C   0  0  0  0  0  0  0  0  0  0  0  0
    3.2090   -2.5650    1.3220 C   0  0  0  0  0  0  0  0  0  0  0  0
    4.1490   -2.4430    0.3220 C   0  0  0  0  0  0  0  0  0  0  0  0
    5.4300   -3.1100    0.4510 N   0  0  0  0  0  0  0  0  0  0  0  0
  1  2  1  0
  2  3  1  0
  3  4  2  0
  3 31  1  0
  4  5  1  0
  5  6  1  0
  5 29  2  0
  6  7  2  0
  6 23  1  0
  7  8  1  0
  8  9  2  3
  8 17  1  0
  9 10  1  0
 10 11  2  0
 10 16  1  0
 11 12  1  0
 12 13  2  0
 13 14  1  0
 14 15  1  0
 14 16  2  0
 17 18  2  0
 17 22  1  0
 18 19  1  0
 19 20  2  0
 20 21  1  0
 21 22  2  0
 22 23  1  0
 24 23  1  1
 24 25  1  0
 24 28  1  0
 25 26  1  0
 26 27  1  0
 27 28  1  0
 29 30  1  0
 30 31  2  0
 31 32  1  0
M  END
