
     RDKit          3D

 33 36  0  0  0  0  0  0  0  0999 V2000
   -6.4100    2.9590   -2.3570 C   0  0  0  0  0  0  0  0  0  0  0  0
   -6.0580    1.6400   -1.7810 C   0  0  0  0  0  0  0  0  0  0  0  0
   -6.9610    0.6090   -1.8720 C   0  0  0  0  0  0  0  0  0  0  0  0
   -6.6200   -0.6140   -1.3290 C   0  0  0  0  0  0  0  0  0  0  0  0
   -7.6200   -1.7120   -1.4460 C   0  0  0  0  0  0  0  0  0  0  0  0
   -5.4180   -0.7550   -0.7290 C   0  0  0  0  0  0  0  0  0  0  0  0
   -5.0740   -2.0770   -0.1610 C   0  0  0  0  0  0  0  0  0  0  0  0
   -4.4480    0.2690   -0.6030 C   0  0  0  0  0  0  0  0  0  0  0  0
   -3.2410   -0.0220    0.0750 N   0  0  0  0  0  0  0  0  0  0  0  0
   -2.1520    0.8240    0.1670 C   0  0  0  0  0  0  0  0  0  0  0  0
   -2.1760    1.9670   -0.4110 O   0  0  0  0  0  0  0  0  0  0  0  0
   -0.9140    0.5150    0.8900 C   0  0  0  0  0  0  0  0  0  0  0  0
    0.3220    0.8990    0.3630 C   0  0  0  0  0  0  0  0  0  0  0  0
    1.5220    0.5530    0.9750 C   0  0  0  0  0  0  0  0  0  0  0  0
    2.7700    0.9300    0.4150 N   0  0  0  0  0  0  0  0  0  0  0  0
    3.9740    0.5350    1.0690 C   0  0  0  0  0  0  0  0  0  0  0  0
    5.2080    0.8580    0.3470 C   0  0  0  0  0  0  0  0  0  0  0  0
    5.5810    2.0020   -0.3360 C   0  0  0  0  0  0  0  0  0  0  0  0
    6.8080    1.7800   -0.8280 N   0  0  0  0  0  0  0  0  0  0  0  0
    7.2590    0.5810   -0.5160 N   0  0  0  0  0  0  0  0  0  0  0  0
    8.5290   -0.0260   -0.8660 C   0  0  0  0  0  0  0  0  0  0  0  0
    9.6150    0.5800   -1.1710 N   0  0  0  0  0  0  0  0  0  0  0  0
   10.6270   -0.4120   -1.4480 C   0  0  2  0  0  0  0  0  0  0  0  0
   11.0790   -0.2490   -3.2130 S   0  0  0  0  0  0  0  0  0  0  0  0
    9.9800   -1.6750   -1.2610 N   0  0  0  0  0  0  0  0  0  0  0  0
    8.7870   -1.4180   -0.9300 N   0  0  0  0  0  0  0  0  0  0  0  0
    6.2890   -0.0040    0.2080 C   0  0  0  0  0  0  0  0  0  0  0  0
    1.4550   -0.1800    2.1210 N   0  0  0  0  0  0  0  0  0  0  0  0
    0.2970   -0.5680    2.6650 C   0  0  0  0  0  0  0  0  0  0  0  0
    0.3010   -1.3660    3.9180 C   0  0  0  0  0  0  0  0  0  0  0  0
   -0.8940   -0.2080    2.0320 C   0  0  0  0  0  0  0  0  0  0  0  0
   -2.1220   -0.6320    2.7400 C   0  0  0  0  0  0  0  0  0  0  0  0
   -4.8140    1.4690   -1.1520 C   0  0  0  0  0  0  0  0  0  0  0  0
  1  2  1  0
  2  3  2  0
  2 33  1  0
  3  4  1  0
  4  5  1  0
  4  6  2  0
  6  7  1  0
  6  8  1  0
  8  9  1  0
  8 33  2  0
  9 10  1  0
 10 11  2  0
 10 12  1  0
 12 13  2  0
 12 31  1  0
 13 14  1  0
 14 15  1  0
 14 28  2  0
 15 16  1  0
 16 17  1  0
 17 18  1  0
 17 27  2  0
 18 19  2  0
 19 20  1  0
 20 21  1  0
 20 27  1  0
 21 22  2  0
 21 26  1  0
 22 23  1  0
 23 24  1  6
 23 25  1  0
 25 26  2  0
 28 29  1  0
 29 30  1  0
 29 31  2  0
 31 32  1  0
M  END
