
     RDKit          3D

 32 36  0  0  0  0  0  0  0  0999 V2000
   -5.0070   -2.4630   -0.4000 N   0  0  0  0  0  0  0  0  0  0  0  0
   -5.6500   -1.6250    0.5330 C   0  0  0  0  0  0  0  0  0  0  0  0
   -6.7950   -2.1180    1.1440 C   0  0  0  0  0  0  0  0  0  0  0  0
   -7.4610   -1.3420    2.0610 C   0  0  0  0  0  0  0  0  0  0  0  0
   -6.9770   -0.0780    2.3620 C   0  0  0  0  0  0  0  0  0  0  0  0
   -5.8360    0.3880    1.7410 C   0  0  0  0  0  0  0  0  0  0  0  0
   -5.1370   -0.3760    0.8050 C   0  0  0  0  0  0  0  0  0  0  0  0
   -3.9590    0.1260    0.1730 N   0  0  0  0  0  0  0  0  0  0  0  0
   -4.0800    0.9710   -0.7860 C   0  0  0  0  0  0  0  0  0  0  0  0
   -5.3720    1.5190   -1.3470 C   0  0  0  0  0  0  0  0  0  0  0  0
   -4.8680    2.3950   -2.3710 N   0  0  0  0  0  0  0  0  0  0  0  0
   -3.6110    2.4080   -2.4480 N   0  0  0  0  0  0  0  0  0  0  0  0
   -3.0380    1.5530   -1.5000 N   0  0  0  0  0  0  0  0  0  0  0  0
   -1.6380    1.3470   -1.3340 C   0  0  0  0  0  0  0  0  0  0  0  0
   -1.0670    0.5190   -0.4190 C   0  0  0  0  0  0  0  0  0  0  0  0
    0.3260    0.3780   -0.3270 C   0  0  0  0  0  0  0  0  0  0  0  0
    1.1700    1.0690   -1.1550 C   0  0  0  0  0  0  0  0  0  0  0  0
    2.5250    0.9700   -1.1080 O   0  0  0  0  0  0  0  0  0  0  0  0
    3.2610    0.1620   -0.2240 C   0  0  0  0  0  0  0  0  0  0  0  0
    4.7150    0.2650   -0.4120 C   0  0  0  0  0  0  0  0  0  0  0  0
    5.1870    1.1090   -1.3970 C   0  0  0  0  0  0  0  0  0  0  0  0
    6.5540    1.1960   -1.5620 C   0  0  0  0  0  0  0  0  0  0  0  0
    7.4170    0.4480   -0.7530 C   0  0  0  0  0  0  0  0  0  0  0  0
    6.9090   -0.3840    0.2200 C   0  0  0  0  0  0  0  0  0  0  0  0
    7.7550   -1.1180    1.0160 C   0  0  0  0  0  0  0  0  0  0  0  0
    7.2780   -1.9730    2.0120 C   0  0  0  0  0  0  0  0  0  0  0  0
    5.8940   -2.0750    2.1960 C   0  0  0  0  0  0  0  0  0  0  0  0
    5.3330   -3.1460    3.4440 Cl  0  0  0  0  0  0  0  0  0  0  0  0
    5.0660   -1.3310    1.3890 C   0  0  0  0  0  0  0  0  0  0  0  0
    5.5250   -0.4870    0.4050 C   0  0  0  0  0  0  0  0  0  0  0  0
    0.5960    1.9090   -2.0830 C   0  0  0  0  0  0  0  0  0  0  0  0
   -0.7590    2.0500   -2.1790 C   0  0  0  0  0  0  0  0  0  0  0  0
  1  2  1  0
  2  3  2  0
  2  7  1  0
  3  4  1  0
  4  5  2  0
  5  6  1  0
  6  7  2  0
  7  8  1  0
  8  9  2  3
  9 10  1  0
  9 13  1  0
 10 11  1  0
 11 12  2  0
 12 13  1  0
 13 14  1  0
 14 15  2  0
 14 32  1  0
 15 16  1  0
 16 17  2  0
 17 18  1  0
 17 31  1  0
 18 19  1  0
 19 20  1  0
 20 21  2  0
 20 30  1  0
 21 22  1  0
 22 23  2  0
 23 24  1  0
 24 25  2  0
 24 30  1  0
 25 26  1  0
 26 27  2  0
 27 28  1  0
 27 29  1  0
 29 30  2  0
 31 32  2  0
M  END
