
     RDKit          3D

 33 36  0  0  0  0  0  0  0  0999 V2000
   -7.7020   -1.9960    1.0610 C   0  0  0  0  0  0  0  0  0  0  0  0
   -8.1530   -0.9100    0.1640 C   0  0  0  0  0  0  0  0  0  0  0  0
   -9.3620   -0.8590   -0.3960 C   0  0  0  0  0  0  0  0  0  0  0  0
   -9.4490    0.3680   -1.2250 C   0  0  0  0  0  0  0  0  0  0  0  0
   -8.1150    0.9750   -1.0340 C   0  0  0  0  0  0  0  0  0  0  0  0
   -7.3750    0.2330   -0.2320 C   0  0  0  0  0  0  0  0  0  0  0  0
   -6.0250    0.4720    0.2020 N   0  0  0  0  0  0  0  0  0  0  0  0
   -4.9760   -0.3560   -0.2330 C   0  0  0  0  0  0  0  0  0  0  0  0
   -5.2900   -1.5910   -1.2320 S   0  0  0  0  0  0  0  0  0  0  0  0
   -3.6570   -0.1170    0.1940 N   0  0  0  0  0  0  0  0  0  0  0  0
   -2.5880   -0.9860   -0.2660 C   0  0  0  0  0  0  0  0  0  0  0  0
   -1.2390   -0.3530   -0.2700 C   0  0  0  0  0  0  0  0  0  0  0  0
   -1.0030    0.3130    1.0700 C   0  0  1  0  0  0  0  0  0  0  0  0
    0.3620    0.9500    1.0570 C   0  0  0  0  0  0  0  0  0  0  0  0
    1.3710    0.7080    1.9710 C   0  0  0  0  0  0  0  0  0  0  0  0
    2.4000    1.4830    1.5790 N   0  0  0  0  0  0  0  0  0  0  0  0
    2.1020    2.1720    0.5090 N   0  0  0  0  0  0  0  0  0  0  0  0
    2.8650    3.1240   -0.2700 C   0  0  0  0  0  0  0  0  0  0  0  0
    3.6470    2.4760   -1.3890 C   0  0  0  0  0  0  0  0  0  0  0  0
    4.6200    1.4900   -0.8600 C   0  0  0  0  0  0  0  0  0  0  0  0
    4.7640    1.2550    0.3860 O   0  0  0  0  0  0  0  0  0  0  0  0
    5.4650    0.7330   -1.7220 N   0  0  0  0  0  0  0  0  0  0  0  0
    6.3920   -0.2090   -1.2050 C   0  0  0  0  0  0  0  0  0  0  0  0
    6.4720   -0.3850    0.1170 N   0  0  0  0  0  0  0  0  0  0  0  0
    7.3190   -1.2510    0.6660 C   0  0  0  0  0  0  0  0  0  0  0  0
    7.3680   -1.4110    2.1610 C   0  0  0  0  0  0  0  0  0  0  0  0
    8.1420   -1.9890   -0.1560 C   0  0  0  0  0  0  0  0  0  0  0  0
    8.0660   -1.8130   -1.5130 C   0  0  0  0  0  0  0  0  0  0  0  0
    8.9590   -2.6150   -2.3900 C   0  0  0  0  0  0  0  0  0  0  0  0
    7.1850   -0.9180   -2.0200 N   0  0  0  0  0  0  0  0  0  0  0  0
    0.8450    1.8390    0.1910 N   0  0  0  0  0  0  0  0  0  0  0  0
   -1.9980    1.4240    1.1900 C   0  0  0  0  0  0  0  0  0  0  0  0
   -3.4210    0.9980    1.0850 C   0  0  0  0  0  0  0  0  0  0  0  0
  1  2  1  0
  2  3  2  0
  2  6  1  0
  3  4  1  0
  4  5  1  0
  5  6  2  0
  6  7  1  0
  7  8  1  0
  8  9  2  0
  8 10  1  0
 10 11  1  0
 10 33  1  0
 11 12  1  0
 12 13  1  0
 13 14  1  6
 13 32  1  0
 14 15  1  0
 14 31  2  0
 15 16  2  0
 16 17  1  0
 17 18  1  0
 17 31  1  0
 18 19  1  0
 19 20  1  0
 20 21  2  0
 20 22  1  0
 22 23  1  0
 23 24  2  0
 23 30  1  0
 24 25  1  0
 25 26  1  0
 25 27  2  0
 27 28  1  0
 28 29  1  0
 28 30  2  0
 32 33  1  0
M  END
