
     RDKit          3D

 38 41  0  0  0  0  0  0  0  0999 V2000
   -3.1260    8.1330   -0.7280 C   0  0  0  0  0  0  0  0  0  0  0  0
   -3.3730    6.9030   -1.1690 C   0  0  0  0  0  0  0  0  0  0  0  0
   -3.2510    5.6790   -0.3090 C   0  0  0  0  0  0  0  0  0  0  0  0
   -2.3080    4.8050   -0.8510 O   0  0  0  0  0  0  0  0  0  0  0  0
   -1.8890    3.5960   -0.3790 C   0  0  0  0  0  0  0  0  0  0  0  0
   -2.3210    2.9760    0.7700 C   0  0  0  0  0  0  0  0  0  0  0  0
   -1.8510    1.7270    1.2000 C   0  0  0  0  0  0  0  0  0  0  0  0
   -0.9160    1.0640    0.4620 C   0  0  0  0  0  0  0  0  0  0  0  0
   -0.3840   -0.2410    0.8790 C   0  0  1  0  0  0  0  0  0  0  0  0
   -1.4190   -1.3430    0.8840 C   0  0  1  0  0  0  0  0  0  0  0  0
   -2.3340   -1.4750    2.0290 C   0  0  0  0  0  0  0  0  0  0  0  0
   -3.2900   -2.6430    1.9680 C   0  0  0  0  0  0  0  0  0  0  0  0
   -4.2640   -2.4850    0.8880 C   0  0  0  0  0  0  0  0  0  0  0  0
   -4.4210   -1.3950    0.3030 O   0  0  0  0  0  0  0  0  0  0  0  0
   -5.0620   -3.5510    0.4700 O   0  0  0  0  0  0  0  0  0  0  0  0
   -6.0250   -3.5240   -0.5240 C   0  0  0  0  0  0  0  0  0  0  0  0
   -7.1840   -2.5780   -0.2500 C   0  0  0  0  0  0  0  0  0  0  0  0
   -2.0190   -1.5190   -0.3270 O   0  0  0  0  0  0  0  0  0  0  0  0
   -1.6830   -2.6540   -1.0180 C   0  0  0  0  0  0  0  0  0  0  0  0
   -2.4240   -2.6790   -2.3320 C   0  0  0  0  0  0  0  0  0  0  0  0
    0.6300   -0.7070   -0.0470 N   0  0  0  0  0  0  0  0  0  0  0  0
    1.7850   -1.0350    0.6610 C   0  0  1  0  0  0  0  0  0  0  0  0
    1.8310   -2.4620    1.1760 C   0  0  0  0  0  0  0  0  0  0  0  0
    3.0500   -0.7940   -0.0370 C   0  0  0  0  0  0  0  0  0  0  0  0
    3.1870   -1.0610   -1.3990 C   0  0  0  0  0  0  0  0  0  0  0  0
    4.4050   -0.8720   -2.0280 C   0  0  0  0  0  0  0  0  0  0  0  0
    5.5110   -0.4210   -1.3460 C   0  0  0  0  0  0  0  0  0  0  0  0
    5.3820   -0.1530    0.0020 C   0  0  0  0  0  0  0  0  0  0  0  0
    4.1560   -0.3430    0.6350 C   0  0  0  0  0  0  0  0  0  0  0  0
    6.3990    0.3040    0.8140 O   0  0  0  0  0  0  0  0  0  0  0  0
    7.7950    0.1010    0.6820 C   0  0  0  0  0  0  0  0  0  0  0  0
    8.2010    0.7120   -0.6510 C   0  0  0  0  0  0  0  0  0  0  0  0
    8.0050   -0.3490   -1.7230 C   0  0  0  0  0  0  0  0  0  0  0  0
    6.6540   -0.2950   -2.1540 O   0  0  0  0  0  0  0  0  0  0  0  0
    1.6980   -0.0600    1.8430 C   0  0  0  0  0  0  0  0  0  0  0  0
    0.2830   -0.1140    2.1440 N   0  0  0  0  0  0  0  0  0  0  0  0
   -0.4610    1.6830   -0.7170 C   0  0  0  0  0  0  0  0  0  0  0  0
   -0.9320    2.9050   -1.1200 C   0  0  0  0  0  0  0  0  0  0  0  0
  1  2  2  0
  2  3  1  0
  3  4  1  0
  4  5  1  0
  5  6  2  0
  5 38  1  0
  6  7  1  0
  7  8  2  0
  9  8  1  6
  8 37  1  0
  9 10  1  0
  9 21  1  0
  9 36  1  0
 10 11  1  1
 10 18  1  0
 11 12  1  0
 12 13  1  0
 13 14  2  0
 13 15  1  0
 15 16  1  0
 16 17  1  0
 18 19  1  0
 19 20  1  0
 21 22  1  0
 22 23  1  1
 22 24  1  0
 22 35  1  0
 24 25  2  0
 24 29  1  0
 25 26  1  0
 26 27  2  0
 27 28  1  0
 27 34  1  0
 28 29  2  0
 28 30  1  0
 30 31  1  0
 31 32  1  0
 32 33  1  0
 33 34  1  0
 35 36  1  0
 37 38  2  0
M  CHG  1  36   1
M  END
