
     RDKit          3D

 39 42  0  0  0  0  0  0  0  0999 V2000
    4.2850   -5.0310    0.7800 C   0  0  0  0  0  0  0  0  0  0  0  0
    3.0750   -4.1060    0.5620 C   0  0  0  0  0  0  0  0  0  0  0  0
    3.4150   -2.7890    0.8550 O   0  0  0  0  0  0  0  0  0  0  0  0
    2.5790   -1.7440    0.6650 C   0  0  0  0  0  0  0  0  0  0  0  0
    1.3240   -1.7620    0.1760 C   0  0  0  0  0  0  0  0  0  0  0  0
    0.5390   -0.5820   -0.0100 C   0  0  0  0  0  0  0  0  0  0  0  0
   -0.6460   -0.7220   -0.4790 O   0  0  0  0  0  0  0  0  0  0  0  0
   -1.8760   -0.4110   -0.9100 C   0  0  1  0  0  0  0  0  0  0  0  0
   -2.3070   -1.1660   -2.1080 C   0  0  0  0  0  0  0  0  0  0  0  0
   -3.6780   -1.7250   -2.0890 C   0  0  0  0  0  0  0  0  0  0  0  0
   -4.6930   -0.8660   -1.4240 C   0  0  0  0  0  0  0  0  0  0  0  0
   -4.2410   -0.4220   -0.0450 C   0  0  2  0  0  0  0  0  0  0  0  0
   -5.0730   -1.0560    0.9770 N   0  0  0  0  0  0  0  0  0  0  0  0
   -5.0940   -2.4800    0.8750 C   0  0  1  0  0  0  0  0  0  0  0  0
   -5.7930   -3.2010    2.0060 C   0  0  0  0  0  0  0  0  0  0  0  0
   -6.3640   -3.2260    0.6350 C   0  0  0  0  0  0  0  0  0  0  0  0
   -4.5240    1.0540    0.0420 C   0  0  0  0  0  0  0  0  0  0  0  0
   -3.5970    1.9020    0.0020 O   0  0  0  0  0  0  0  0  0  0  0  0
   -5.8290    1.5610    0.1630 N   0  0  0  0  0  0  0  0  0  0  0  0
   -6.1440    2.9760    0.2550 C   0  0  1  0  0  0  0  0  0  0  0  0
   -5.6080    3.7750   -0.8850 C   0  0  0  0  0  0  0  0  0  0  0  0
   -7.6850    3.1240    0.1790 C   0  0  0  0  0  0  0  0  0  0  0  0
   -5.7330    3.4770    1.5980 C   0  0  0  0  0  0  0  0  0  0  0  0
   -2.8320   -0.6960    0.2730 C   0  0  0  0  0  0  0  0  0  0  0  0
    1.1530    0.6050    0.3500 C   0  0  0  0  0  0  0  0  0  0  0  0
    2.4610    0.6360    0.8650 C   0  0  0  0  0  0  0  0  0  0  0  0
    3.1360   -0.4880    1.0150 C   0  0  0  0  0  0  0  0  0  0  0  0
    4.4860   -0.6930    1.6600 C   0  0  0  0  0  0  0  0  0  0  0  0
    5.5080   -0.2850    0.9520 O   0  0  0  0  0  0  0  0  0  0  0  0
    6.3240    0.6360    0.5290 C   0  0  0  0  0  0  0  0  0  0  0  0
    6.4630    1.9110    0.9940 C   0  0  0  0  0  0  0  0  0  0  0  0
    7.3300    2.8770    0.4980 C   0  0  0  0  0  0  0  0  0  0  0  0
    8.1480    2.5310   -0.5870 C   0  0  0  0  0  0  0  0  0  0  0  0
    9.0530    3.3800   -1.1530 O   0  0  0  0  0  0  0  0  0  0  0  0
    9.4580    4.6560   -0.8730 C   0  0  0  0  0  0  0  0  0  0  0  0
    8.0140    1.2400   -1.0760 C   0  0  0  0  0  0  0  0  0  0  0  0
    7.1710    0.3270   -0.5720 C   0  0  0  0  0  0  0  0  0  0  0  0
    7.0350   -1.0000   -1.1030 O   0  0  0  0  0  0  0  0  0  0  0  0
    7.6510   -1.1730   -2.4000 C   0  0  0  0  0  0  0  0  0  0  0  0
  1  2  1  0
  2  3  1  0
  3  4  1  0
  4  5  2  0
  4 27  1  0
  5  6  1  0
  6  7  1  0
  6 25  2  0
  8  7  1  1
  8  9  1  0
  8 24  1  0
  9 10  1  0
 10 11  1  0
 11 12  1  0
 12 13  1  1
 12 17  1  0
 12 24  1  0
 14 13  1  1
 14 15  1  0
 14 16  1  0
 15 16  1  0
 17 18  2  0
 17 19  1  0
 19 20  1  0
 20 21  1  6
 20 22  1  0
 20 23  1  0
 25 26  1  0
 26 27  2  0
 27 28  1  0
 28 29  1  0
 29 30  1  0
 30 31  2  0
 30 37  1  0
 31 32  1  0
 32 33  2  0
 33 34  1  0
 33 36  1  0
 34 35  1  0
 36 37  2  0
 37 38  1  0
 38 39  1  0
M  CHG  1  13   1
M  END
