
     RDKit          3D

 26 29  0  0  0  0  0  0  0  0999 V2000
    5.5110    2.0580   -2.9120 C   0  0  0  0  0  0  0  0  0  0  0  0
    4.4640    1.4520   -2.0420 C   0  0  0  0  0  0  0  0  0  0  0  0
    3.1230    1.7020   -2.2320 C   0  0  0  0  0  0  0  0  0  0  0  0
    2.1620    1.1380   -1.4240 C   0  0  0  0  0  0  0  0  0  0  0  0
    2.4940    0.2760   -0.3620 C   0  0  0  0  0  0  0  0  0  0  0  0
    1.4480   -0.2620    0.4000 N   0  0  0  0  0  0  0  0  0  0  0  0
    1.5030   -0.9570    1.6250 C   0  0  0  0  0  0  0  0  0  0  0  0
    2.6860   -1.1120    2.1120 O   0  0  0  0  0  0  0  0  0  0  0  0
    0.3870   -1.5090    2.3890 C   0  0  0  0  0  0  0  0  0  0  0  0
   -0.9370   -1.3200    1.8190 N   0  0  1  0  0  0  0  0  0  0  0  0
   -1.4360   -0.0390    1.9890 C   0  0  0  0  0  0  0  0  0  0  0  0
   -2.4240    0.4510    1.0390 C   0  0  0  0  0  0  0  0  0  0  0  0
   -3.1190    1.6600    1.2650 C   0  0  0  0  0  0  0  0  0  0  0  0
   -4.0130    2.0930    0.3130 C   0  0  0  0  0  0  0  0  0  0  0  0
   -4.7850    3.3730    0.4940 C   0  0  0  0  0  0  0  0  0  0  0  0
   -4.2500    1.3790   -0.8560 C   0  0  0  0  0  0  0  0  0  0  0  0
   -3.5730    0.1900   -1.0880 C   0  0  0  0  0  0  0  0  0  0  0  0
   -2.6910   -0.2190   -0.1280 C   0  0  0  0  0  0  0  0  0  0  0  0
   -1.9950   -1.5010   -0.3310 C   0  0  0  0  0  0  0  0  0  0  0  0
   -1.9940   -2.3870   -1.3550 N   0  0  0  0  0  0  0  0  0  0  0  0
   -1.1770   -3.3760   -1.0770 N   0  0  0  0  0  0  0  0  0  0  0  0
   -0.6030   -3.2040    0.1240 C   0  0  0  0  0  0  0  0  0  0  0  0
    0.3690   -4.1110    0.8000 C   0  0  0  0  0  0  0  0  0  0  0  0
   -1.1370   -1.9830    0.6080 C   0  0  0  0  0  0  0  0  0  0  0  0
    3.8230    0.0380   -0.1860 C   0  0  0  0  0  0  0  0  0  0  0  0
    4.7950    0.6160   -1.0130 C   0  0  0  0  0  0  0  0  0  0  0  0
  1  2  1  0
  2  3  2  0
  2 26  1  0
  3  4  1  0
  4  5  2  0
  5  6  1  0
  5 25  1  0
  6  7  1  0
  7  8  2  0
  7  9  1  0
 10  9  1  6
 10 11  1  0
 10 24  1  0
 11 12  1  0
 12 13  2  0
 12 18  1  0
 13 14  1  0
 14 15  1  0
 14 16  2  0
 16 17  1  0
 17 18  2  0
 18 19  1  0
 19 20  1  0
 19 24  2  0
 20 21  1  0
 21 22  2  0
 22 23  1  0
 22 24  1  0
 25 26  2  0
M  CHG  1  10   1
M  END
