
     RDKit          3D

 26 29  0  0  0  0  0  0  0  0999 V2000
   -1.8980    1.9450    2.0960 C   0  0  0  0  0  0  0  0  0  0  0  0
   -2.2360    2.2930    0.6810 C   0  0  0  0  0  0  0  0  0  0  0  0
   -1.5770    1.4060   -0.3320 C   0  0  1  0  0  0  0  0  0  0  0  0
   -1.9540    1.8070   -1.6530 N   0  0  0  0  0  0  0  0  0  0  0  0
   -2.3180    3.2020   -1.7540 C   0  0  0  0  0  0  0  0  0  0  0  0
   -0.0820    1.3170   -0.1480 C   0  0  0  0  0  0  0  0  0  0  0  0
    0.0760    0.2360    0.8070 N   0  0  0  0  0  0  0  0  0  0  0  0
    1.1290    0.1220    1.7860 C   0  0  0  0  0  0  0  0  0  0  0  0
    2.4770   -0.1250    1.1510 C   0  0  1  0  0  0  0  0  0  0  0  0
    2.5390   -1.4000    0.3720 C   0  0  0  0  0  0  0  0  0  0  0  0
    3.8990   -1.5090   -0.1480 N   0  0  0  0  0  0  0  0  0  0  0  0
    4.5900   -0.3410   -0.5880 C   0  0  0  0  0  0  0  0  0  0  0  0
    5.8160   -0.4250   -1.2360 C   0  0  0  0  0  0  0  0  0  0  0  0
    6.4450    0.7270   -1.6420 C   0  0  0  0  0  0  0  0  0  0  0  0
    5.8620    1.9550   -1.4060 C   0  0  0  0  0  0  0  0  0  0  0  0
    4.6780    2.0100   -0.7790 N   0  0  0  0  0  0  0  0  0  0  0  0
    4.0320    0.8960   -0.3650 C   0  0  0  0  0  0  0  0  0  0  0  0
    2.8120    0.9410    0.2820 O   0  0  0  0  0  0  0  0  0  0  0  0
   -1.0090   -0.6510    0.5650 C   0  0  0  0  0  0  0  0  0  0  0  0
   -1.1730   -1.9850    0.8960 C   0  0  0  0  0  0  0  0  0  0  0  0
   -2.3420   -2.6070    0.5370 C   0  0  0  0  0  0  0  0  0  0  0  0
   -2.5260   -4.0410    0.8880 C   0  0  0  0  0  0  0  0  0  0  0  0
   -3.3700   -1.9700   -0.1400 C   0  0  0  0  0  0  0  0  0  0  0  0
   -4.6100   -2.7240   -0.4920 C   0  0  0  0  0  0  0  0  0  0  0  0
   -3.1980   -0.6430   -0.4650 C   0  0  0  0  0  0  0  0  0  0  0  0
   -2.0340    0.0050   -0.1170 C   0  0  0  0  0  0  0  0  0  0  0  0
  1  2  1  0
  3  2  1  1
  3  4  1  0
  3  6  1  0
  3 26  1  0
  4  5  1  0
  6  7  1  0
  7  8  1  0
  7 19  1  0
  9  8  1  6
  9 10  1  0
  9 18  1  0
 10 11  1  0
 11 12  1  0
 12 13  2  0
 12 17  1  0
 13 14  1  0
 14 15  2  0
 15 16  1  0
 16 17  2  0
 17 18  1  0
 19 20  2  0
 19 26  1  0
 20 21  1  0
 21 22  1  0
 21 23  2  0
 23 24  1  0
 23 25  1  0
 25 26  2  0
M  CHG  1   4   1
M  END
