
     RDKit          3D

 26 29  0  0  0  0  0  0  0  0999 V2000
   -3.2220    4.6620   -0.8160 C   0  0  0  0  0  0  0  0  0  0  0  0
   -2.3210    4.5460    0.3720 C   0  0  0  0  0  0  0  0  0  0  0  0
   -1.9090    3.1300    0.6990 C   0  0  0  0  0  0  0  0  0  0  0  0
   -1.1660    2.5100   -0.4610 C   0  0  0  0  0  0  0  0  0  0  0  0
   -0.7610    1.1450   -0.1660 N   0  0  0  0  0  0  0  0  0  0  0  0
    0.2650    1.1870    0.8600 C   0  0  0  0  0  0  0  0  0  0  0  0
    1.3060    0.1570    0.5890 C   0  0  0  0  0  0  0  0  0  0  0  0
    2.4950    0.8340    0.4460 C   0  0  0  0  0  0  0  0  0  0  0  0
    3.6920    0.2220    0.1920 C   0  0  0  0  0  0  0  0  0  0  0  0
    4.8010    0.9390    0.0670 O   0  0  0  0  0  0  0  0  0  0  0  0
    5.9760    0.4430   -0.1720 C   0  0  0  0  0  0  0  0  0  0  0  0
    7.2190    0.9380   -0.3390 N   0  0  0  0  0  0  0  0  0  0  0  0
    8.0630   -0.0390   -0.5650 N   0  0  0  0  0  0  0  0  0  0  0  0
    7.4460   -1.2330   -0.5650 C   0  0  0  0  0  0  0  0  0  0  0  0
    6.1150   -1.0040   -0.3210 C   0  0  0  0  0  0  0  0  0  0  0  0
    4.9590   -1.7430   -0.1910 C   0  0  0  0  0  0  0  0  0  0  0  0
    3.7410   -1.1510    0.0660 C   0  0  0  0  0  0  0  0  0  0  0  0
    2.5630   -1.8680    0.2030 C   0  0  0  0  0  0  0  0  0  0  0  0
    1.3700   -1.2180    0.4610 C   0  0  0  0  0  0  0  0  0  0  0  0
    0.3830   -2.3070    0.5370 C   0  0  0  0  0  0  0  0  0  0  0  0
   -0.9440   -1.7970    1.1140 C   0  0  0  0  0  0  0  0  0  0  0  0
   -1.6940   -1.1470   -0.0010 C   0  0  1  0  0  0  0  0  0  0  0  0
   -3.0620   -1.7840   -0.0990 C   0  0  0  0  0  0  0  0  0  0  0  0
   -3.0200   -3.2460   -0.3830 C   0  0  0  0  0  0  0  0  0  0  0  0
   -4.3760   -3.7750   -0.4590 N   0  0  0  0  0  0  0  0  0  0  0  0
   -1.9010    0.3250    0.1910 C   0  0  0  0  0  0  0  0  0  0  0  0
  1  2  1  0
  2  3  1  0
  3  4  1  0
  4  5  1  0
  5  6  1  0
  5 26  1  0
  6  7  1  0
  7  8  2  0
  7 19  1  0
  8  9  1  0
  9 10  1  0
  9 17  2  0
 10 11  1  0
 11 12  2  0
 11 15  1  0
 12 13  1  0
 13 14  2  0
 14 15  1  0
 15 16  2  0
 16 17  1  0
 17 18  1  0
 18 19  2  0
 19 20  1  0
 20 21  1  0
 21 22  1  0
 22 23  1  1
 22 26  1  0
 23 24  1  0
 24 25  1  0
M  CHG  1  25   1
M  END
