
     RDKit          3D

 26 29  0  0  0  0  0  0  0  0999 V2000
    5.3980    2.3960    2.7430 C   0  0  0  0  0  0  0  0  0  0  0  0
    4.3650    1.7910    1.8750 C   0  0  0  0  0  0  0  0  0  0  0  0
    4.5280    0.4870    1.4730 C   0  0  0  0  0  0  0  0  0  0  0  0
    3.5870   -0.1230    0.6600 C   0  0  0  0  0  0  0  0  0  0  0  0
    2.4650    0.5270    0.2210 C   0  0  0  0  0  0  0  0  0  0  0  0
    1.4490   -0.0460   -0.6560 C   0  0  0  0  0  0  0  0  0  0  0  0
    0.4240    0.7190   -0.8560 O   0  0  0  0  0  0  0  0  0  0  0  0
    1.4440   -1.2960   -1.2960 N   0  0  0  0  0  0  0  0  0  0  0  0
    2.4120   -2.3380   -1.3240 C   0  0  0  0  0  0  0  0  0  0  0  0
    1.9330   -3.3670   -2.3190 C   0  0  0  0  0  0  0  0  0  0  0  0
    0.9680   -2.5890   -3.1830 C   0  0  0  0  0  0  0  0  0  0  0  0
    0.2850   -1.7440   -2.1080 C   0  0  1  0  0  0  0  0  0  0  0  0
   -0.6710   -2.5530   -1.3070 C   0  0  0  0  0  0  0  0  0  0  0  0
   -1.2600   -1.8740   -0.1900 N   0  0  0  0  0  0  0  0  0  0  0  0
   -2.2610   -0.8860   -0.3920 C   0  0  0  0  0  0  0  0  0  0  0  0
   -2.8270   -0.6820   -1.6300 C   0  0  0  0  0  0  0  0  0  0  0  0
   -3.7840    0.3080   -1.7340 C   0  0  0  0  0  0  0  0  0  0  0  0
   -4.1850    1.0800   -0.6700 C   0  0  0  0  0  0  0  0  0  0  0  0
   -3.6150    0.8650    0.5510 C   0  0  0  0  0  0  0  0  0  0  0  0
   -2.6340   -0.1370    0.6960 C   0  0  0  0  0  0  0  0  0  0  0  0
   -3.9910    1.6470    1.7320 C   0  0  0  0  0  0  0  0  0  0  0  0
   -4.9830    2.6270    1.4780 N   0  0  0  0  0  0  0  0  0  0  0  0
   -5.5270    2.8430    0.3480 C   0  0  0  0  0  0  0  0  0  0  0  0
   -5.1770    2.0980   -0.8010 N   0  0  0  0  0  0  0  0  0  0  0  0
    2.3280    1.8590    0.6490 C   0  0  0  0  0  0  0  0  0  0  0  0
    3.2460    2.4730    1.4500 C   0  0  0  0  0  0  0  0  0  0  0  0
  1  2  1  0
  2  3  2  0
  2 26  1  0
  3  4  1  0
  4  5  2  0
  5  6  1  0
  5 25  1  0
  6  7  2  0
  6  8  1  0
  8  9  1  0
  8 12  1  0
  9 10  1  0
 10 11  1  0
 11 12  1  0
 12 13  1  1
 13 14  1  0
 14 15  1  0
 15 16  2  0
 15 20  1  0
 16 17  1  0
 17 18  2  0
 18 19  1  0
 18 24  1  0
 19 20  2  0
 19 21  1  0
 21 22  1  0
 22 23  2  0
 23 24  1  0
 25 26  2  0
M  CHG  1  22   1
M  END
