
     RDKit          3D

 26 29  0  0  0  0  0  0  0  0999 V2000
   -2.5970    1.1710   -1.0030 O   0  0  0  0  0  0  0  0  0  0  0  0
   -2.9140    0.1060   -0.3710 C   0  0  0  0  0  0  0  0  0  0  0  0
   -4.2860   -0.2560   -0.3570 N   0  0  0  0  0  0  0  0  0  0  0  0
   -5.2440    0.6060   -1.0620 C   0  0  1  0  0  0  0  0  0  0  0  0
   -6.0660   -0.1950   -2.0490 C   0  0  0  0  0  0  0  0  0  0  0  0
   -7.4240    0.4470   -1.9710 C   0  0  0  0  0  0  0  0  0  0  0  0
   -7.4090    1.3660   -0.8770 N   0  0  0  0  0  0  0  0  0  0  0  0
   -6.2930    1.0110   -0.0470 C   0  0  0  0  0  0  0  0  0  0  0  0
   -1.8760   -0.6840    0.3000 C   0  0  0  0  0  0  0  0  0  0  0  0
   -2.1450   -1.8380    0.9970 C   0  0  0  0  0  0  0  0  0  0  0  0
   -1.1840   -2.5570    1.6100 N   0  0  0  0  0  0  0  0  0  0  0  0
    0.0970   -2.1750    1.5690 C   0  0  0  0  0  0  0  0  0  0  0  0
    0.4360   -1.0140    0.8800 C   0  0  0  0  0  0  0  0  0  0  0  0
   -0.5640   -0.2680    0.2430 C   0  0  0  0  0  0  0  0  0  0  0  0
    1.8750   -0.8030    0.9740 C   0  0  0  0  0  0  0  0  0  0  0  0
    2.6020   -0.0090    0.2050 C   0  0  0  0  0  0  0  0  0  0  0  0
    4.0390    0.1340    0.3790 C   0  0  0  0  0  0  0  0  0  0  0  0
    4.7880    0.9090   -0.3610 C   0  0  0  0  0  0  0  0  0  0  0  0
    6.2120    1.0160   -0.1480 C   0  0  0  0  0  0  0  0  0  0  0  0
    6.9690    1.8560   -0.9640 C   0  0  0  0  0  0  0  0  0  0  0  0
    8.3230    1.9620   -0.7660 C   0  0  0  0  0  0  0  0  0  0  0  0
    8.9330    1.2460    0.2310 C   0  0  0  0  0  0  0  0  0  0  0  0
    8.1180    0.4270    1.0090 C   0  0  0  0  0  0  0  0  0  0  0  0
    6.8050    0.3230    0.8180 N   0  0  0  0  0  0  0  0  0  0  0  0
    2.3560   -1.6500    2.0960 C   0  0  0  0  0  0  0  0  0  0  0  0
    1.3360   -2.7700    2.1470 C   0  0  0  0  0  0  0  0  0  0  0  0
  1  2  2  0
  2  3  1  0
  2  9  1  0
  4  3  1  1
  4  5  1  0
  4  8  1  0
  5  6  1  0
  6  7  1  0
  7  8  1  0
  9 10  2  0
  9 14  1  0
 10 11  1  0
 11 12  2  0
 12 13  1  0
 12 26  1  0
 13 14  2  0
 13 15  1  0
 15 16  2  3
 15 25  1  0
 16 17  1  0
 17 18  2  3
 18 19  1  0
 19 20  2  0
 19 24  1  0
 20 21  1  0
 21 22  2  0
 22 23  1  0
 23 24  2  0
 25 26  1  0
M  CHG  1   7   1
M  END
