
     RDKit          3D

 26 29  0  0  0  0  0  0  0  0999 V2000
   -5.1850   -1.4710   -0.4920 C   0  0  0  0  0  0  0  0  0  0  0  0
   -5.0290    0.0140   -0.3190 C   0  0  0  0  0  0  0  0  0  0  0  0
   -6.0000    0.9020   -0.6870 C   0  0  0  0  0  0  0  0  0  0  0  0
   -5.7250    2.2590   -0.5530 C   0  0  0  0  0  0  0  0  0  0  0  0
   -6.7160    3.1590   -0.9510 O   0  0  0  0  0  0  0  0  0  0  0  0
   -4.5250    2.6810   -0.0550 C   0  0  0  0  0  0  0  0  0  0  0  0
   -3.5380    1.7920    0.3390 C   0  0  0  0  0  0  0  0  0  0  0  0
   -3.8260    0.4640    0.1840 C   0  0  0  0  0  0  0  0  0  0  0  0
   -2.8430   -0.6100    0.5820 C   0  0  0  0  0  0  0  0  0  0  0  0
   -1.6860   -0.6070   -0.2190 N   0  0  0  0  0  0  0  0  0  0  0  0
   -0.8400    0.4570   -0.2580 C   0  0  0  0  0  0  0  0  0  0  0  0
    0.2440    0.1150    0.8010 C   0  0  0  0  0  0  0  0  0  0  0  0
    1.1050   -0.8200    0.1110 N   0  0  1  0  0  0  0  0  0  0  0  0
    2.1230   -1.1990    1.0410 C   0  0  0  0  0  0  0  0  0  0  0  0
    3.3710   -0.4200    0.7460 C   0  0  0  0  0  0  0  0  0  0  0  0
    4.6190   -0.8620    0.8390 N   0  0  0  0  0  0  0  0  0  0  0  0
    5.4560    0.0930    0.4470 C   0  0  0  0  0  0  0  0  0  0  0  0
    6.8610    0.1600    0.3520 C   0  0  0  0  0  0  0  0  0  0  0  0
    7.4530    1.3030   -0.1100 C   0  0  0  0  0  0  0  0  0  0  0  0
    6.7020    2.3920   -0.4820 C   0  0  0  0  0  0  0  0  0  0  0  0
    5.3120    2.3510   -0.3830 C   0  0  0  0  0  0  0  0  0  0  0  0
    4.7510    1.1880    0.0860 C   0  0  0  0  0  0  0  0  0  0  0  0
    3.4480    0.8420    0.2890 N   0  0  0  0  0  0  0  0  0  0  0  0
    0.3870   -1.8960   -0.4740 C   0  0  1  0  0  0  0  0  0  0  0  0
    0.9040   -3.2840   -0.0790 C   0  0  0  0  0  0  0  0  0  0  0  0
   -1.0850   -1.9140   -0.2410 C   0  0  0  0  0  0  0  0  0  0  0  0
  1  2  1  0
  2  3  2  0
  2  8  1  0
  3  4  1  0
  4  5  1  0
  4  6  2  0
  6  7  1  0
  7  8  2  0
  8  9  1  0
  9 10  1  0
 10 11  1  0
 10 26  1  0
 11 12  1  0
 12 13  1  0
 13 14  1  1
 13 24  1  0
 14 15  1  0
 15 16  2  0
 15 23  1  0
 16 17  1  0
 17 18  2  0
 17 22  1  0
 18 19  1  0
 19 20  2  0
 20 21  1  0
 21 22  2  0
 22 23  1  0
 24 25  1  1
 24 26  1  0
M  CHG  1  13   1
M  END
