
     RDKit          3D

 20 21  0  0  0  0  0  0  0  0999 V2000
   -1.7200   -1.6610   -2.5900 O   0  0  0  0  0  0  0  0  0  0  0  0
   -2.6830   -1.1210   -2.0120 C   0  0  0  0  0  0  0  0  0  0  0  0
   -3.9110   -1.2880   -2.6430 O   0  0  0  0  0  0  0  0  0  0  0  0
   -2.6320   -0.3640   -0.7780 C   0  0  0  0  0  0  0  0  0  0  0  0
   -3.8640    0.1290   -0.2700 C   0  0  0  0  0  0  0  0  0  0  0  0
   -3.8670    0.8210    0.9140 C   0  0  0  0  0  0  0  0  0  0  0  0
   -2.6820    1.0250    1.5860 C   0  0  0  0  0  0  0  0  0  0  0  0
   -1.5510    0.5470    1.0720 N   0  0  0  0  0  0  0  0  0  0  0  0
   -1.4760   -0.1530   -0.1090 C   0  0  0  0  0  0  0  0  0  0  0  0
   -0.2100   -0.5300   -0.5870 N   0  0  0  0  0  0  0  0  0  0  0  0
    1.0000   -0.3640    0.1530 C   0  0  0  0  0  0  0  0  0  0  0  0
    1.1580   -0.5910    1.4910 C   0  0  0  0  0  0  0  0  0  0  0  0
    2.3840   -0.3360    2.1150 C   0  0  0  0  0  0  0  0  0  0  0  0
    3.4590    0.1440    1.4200 C   0  0  0  0  0  0  0  0  0  0  0  0
    3.3060    0.3790    0.0550 C   0  0  0  0  0  0  0  0  0  0  0  0
    4.4030    0.9310   -0.7810 C   0  0  1  0  0  0  0  0  0  0  0  0
    4.6650    0.0390   -1.7910 F   0  0  0  0  0  0  0  0  0  0  0  0
    3.9250    2.0790   -1.4080 F   0  0  0  0  0  0  0  0  0  0  0  0
    5.4970    1.3140   -0.0610 F   0  0  0  0  0  0  0  0  0  0  0  0
    2.0950    0.1210   -0.5420 C   0  0  0  0  0  0  0  0  0  0  0  0
  1  2  2  0
  2  3  1  0
  2  4  1  0
  4  5  2  0
  4  9  1  0
  5  6  1  0
  6  7  2  0
  7  8  1  0
  8  9  2  0
  9 10  1  0
 10 11  1  0
 11 12  2  0
 11 20  1  0
 12 13  1  0
 13 14  2  0
 14 15  1  0
 15 16  1  0
 15 20  2  0
 16 17  1  6
 16 18  1  0
 16 19  1  0
M  END
