
     RDKit          3D

 25 28  0  0  0  0  0  0  0  0999 V2000
   -4.8500    1.6860    1.6890 N   0  0  0  0  0  0  0  0  0  0  0  0
   -5.4030    0.4000    1.2880 C   0  0  0  0  0  0  0  0  0  0  0  0
   -4.9160    0.0120   -0.0990 C   0  0  2  0  0  0  0  0  0  0  0  0
   -5.4570   -1.2140   -0.4550 O   0  0  0  0  0  0  0  0  0  0  0  0
   -4.4850   -2.1880   -0.6430 C   0  0  0  0  0  0  0  0  0  0  0  0
   -3.6440   -2.3420    0.6070 C   0  0  0  0  0  0  0  0  0  0  0  0
   -2.7730   -1.0800    0.6940 C   0  0  0  0  0  0  0  0  0  0  0  0
   -3.4350   -0.0540   -0.1520 C   0  0  0  0  0  0  0  0  0  0  0  0
   -2.7810    0.7740   -0.9420 C   0  0  0  0  0  0  0  0  0  0  0  0
   -1.3380    0.8310   -1.0990 C   0  0  0  0  0  0  0  0  0  0  0  0
   -0.4980    0.7460   -0.0150 C   0  0  0  0  0  0  0  0  0  0  0  0
    0.8830    0.7850   -0.1440 C   0  0  0  0  0  0  0  0  0  0  0  0
    1.4690    0.9140   -1.3770 C   0  0  0  0  0  0  0  0  0  0  0  0
    2.8840    0.9540   -1.4860 N   0  0  0  0  0  0  0  0  0  0  0  0
    3.7430    0.8820   -0.3570 C   0  0  0  0  0  0  0  0  0  0  0  0
    4.7130    0.0070   -0.1760 C   0  0  0  0  0  0  0  0  0  0  0  0
    5.1720   -1.0910   -1.0360 C   0  0  0  0  0  0  0  0  0  0  0  0
    6.1800   -1.8430   -0.6340 C   0  0  0  0  0  0  0  0  0  0  0  0
    6.8630   -1.6290    0.6340 C   0  0  0  0  0  0  0  0  0  0  0  0
    6.4890   -0.6550    1.4440 C   0  0  0  0  0  0  0  0  0  0  0  0
    5.3920    0.1940    1.0490 N   0  0  0  0  0  0  0  0  0  0  0  0
    4.7780    1.3100    1.7160 C   0  0  0  0  0  0  0  0  0  0  0  0
    3.7470    1.7220    0.7990 N   0  0  0  0  0  0  0  0  0  0  0  0
    0.6420    1.0010   -2.4780 C   0  0  0  0  0  0  0  0  0  0  0  0
   -0.7320    0.9610   -2.3490 C   0  0  0  0  0  0  0  0  0  0  0  0
  1  2  1  0
  3  2  1  1
  3  4  1  0
  3  8  1  0
  4  5  1  0
  5  6  1  0
  6  7  1  0
  7  8  1  0
  8  9  2  3
  9 10  1  0
 10 11  2  0
 10 25  1  0
 11 12  1  0
 12 13  2  0
 13 14  1  0
 13 24  1  0
 14 15  1  0
 15 16  2  0
 15 23  1  0
 16 17  1  0
 16 21  1  0
 17 18  2  0
 18 19  1  0
 19 20  2  0
 20 21  1  0
 21 22  1  0
 22 23  1  0
 24 25  2  0
M  CHG  1   1   1
M  END
