
     RDKit          3D

 26 29  0  0  0  0  0  0  0  0999 V2000
    7.4310   -0.5900   -0.6020 C   0  0  0  0  0  0  0  0  0  0  0  0
    6.4660   -1.3710    0.1540 N   0  0  0  0  0  0  0  0  0  0  0  0
    5.3050   -0.8420    0.4090 C   0  0  0  0  0  0  0  0  0  0  0  0
    4.3440   -1.5250    1.1190 C   0  0  0  0  0  0  0  0  0  0  0  0
    3.1080   -1.0060    1.4120 C   0  0  0  0  0  0  0  0  0  0  0  0
    2.8130    0.2910    0.9620 C   0  0  0  0  0  0  0  0  0  0  0  0
    3.7820    0.9520    0.2590 C   0  0  0  0  0  0  0  0  0  0  0  0
    4.9990    0.3850   -0.0060 N   0  0  0  0  0  0  0  0  0  0  0  0
    3.2900    2.3100   -0.1370 C   0  0  0  0  0  0  0  0  0  0  0  0
    1.8010    2.1940    0.0690 C   0  0  1  0  0  0  0  0  0  0  0  0
    1.1010    1.6320   -1.1060 C   0  0  0  0  0  0  0  0  0  0  0  0
    1.3800    1.7720   -2.3320 O   0  0  0  0  0  0  0  0  0  0  0  0
   -0.0300    0.8430   -0.5700 C   0  0  0  0  0  0  0  0  0  0  0  0
   -1.1850    0.6370   -1.1660 C   0  0  0  0  0  0  0  0  0  0  0  0
   -1.4160    1.2380   -2.5020 C   0  0  0  0  0  0  0  0  0  0  0  0
   -2.2090   -0.1870   -0.5510 C   0  0  0  0  0  0  0  0  0  0  0  0
   -1.9060   -1.4320   -0.0580 C   0  0  0  0  0  0  0  0  0  0  0  0
   -2.9070   -2.1710    0.5430 C   0  0  0  0  0  0  0  0  0  0  0  0
   -4.1860   -1.6820    0.6510 C   0  0  0  0  0  0  0  0  0  0  0  0
   -4.4700   -0.4240    0.1460 C   0  0  0  0  0  0  0  0  0  0  0  0
   -5.8180    0.1680    0.2250 C   0  0  1  0  0  0  0  0  0  0  0  0
   -6.8270   -0.5820   -0.6470 C   0  0  0  0  0  0  0  0  0  0  0  0
   -6.3460    0.2980    1.6320 C   0  0  0  0  0  0  0  0  0  0  0  0
   -3.4880    0.2770   -0.4320 N   0  0  0  0  0  0  0  0  0  0  0  0
    0.4130    0.4040    0.7190 N   0  0  0  0  0  0  0  0  0  0  0  0
    1.6050    1.1310    1.1030 C   0  0  1  0  0  0  0  0  0  0  0  0
  1  2  1  0
  2  3  2  3
  3  4  1  0
  3  8  1  0
  4  5  2  0
  5  6  1  0
  6  7  2  0
  6 26  1  0
  7  8  1  0
  7  9  1  0
 10  9  1  6
 10 11  1  0
 10 26  1  0
 11 12  2  0
 11 13  1  0
 13 14  2  3
 13 25  1  0
 14 15  1  0
 14 16  1  0
 16 17  2  0
 16 24  1  0
 17 18  1  0
 18 19  2  0
 19 20  1  0
 20 21  1  0
 20 24  2  0
 21 22  1  6
 21 23  1  0
 26 25  1  6
M  CHG  1   2   1
M  END
