
     RDKit          3D

 20 21  0  0  0  0  0  0  0  0999 V2000
   -3.8630   -2.6990    1.0670 C   0  0  0  0  0  0  0  0  0  0  0  0
   -2.5680   -1.9090    0.8670 C   0  0  0  0  0  0  0  0  0  0  0  0
   -1.3410   -2.6490    1.1300 C   0  0  0  0  0  0  0  0  0  0  0  0
   -2.6240   -0.6870    0.4750 C   0  0  0  0  0  0  0  0  0  0  0  0
   -1.5600    0.2020    0.2370 N   0  0  0  0  0  0  0  0  0  0  0  0
   -1.7690    1.5710   -0.2430 C   0  0  0  0  0  0  0  0  0  0  0  0
   -2.7160    1.8880   -1.0160 O   0  0  0  0  0  0  0  0  0  0  0  0
   -0.7260    2.4530    0.3170 C   0  0  1  0  0  0  0  0  0  0  0  0
   -0.0740    3.3310   -0.7270 C   0  0  0  0  0  0  0  0  0  0  0  0
   -1.4480    3.4360    1.6160 Cl  0  0  0  0  0  0  0  0  0  0  0  0
    0.2710    1.4890    0.8540 C   0  0  0  0  0  0  0  0  0  0  0  0
   -0.1440    0.1320    0.3490 C   0  0  2  0  0  0  0  0  0  0  0  0
    0.5380   -0.1260   -0.9830 C   0  0  0  0  0  0  0  0  0  0  0  0
    2.0200   -0.1710   -0.8230 C   0  0  0  0  0  0  0  0  0  0  0  0
    2.8440    0.6290   -1.5060 C   0  0  0  0  0  0  0  0  0  0  0  0
    2.4100    1.8570   -2.6900 Cl  0  0  0  0  0  0  0  0  0  0  0  0
    4.2180    0.3030   -1.0880 C   0  0  0  0  0  0  0  0  0  0  0  0
    4.0510   -0.7720   -0.0930 C   0  0  0  0  0  0  0  0  0  0  0  0
    2.7620   -1.0520    0.0640 C   0  0  0  0  0  0  0  0  0  0  0  0
    2.1680   -2.2790    1.1720 Cl  0  0  0  0  0  0  0  0  0  0  0  0
  1  2  1  0
  2  3  1  0
  2  4  2  3
  4  5  1  0
  5  6  1  0
  5 12  1  0
  6  7  2  0
  6  8  1  0
  8  9  1  6
  8 10  1  0
  8 11  1  0
 11 12  1  0
 12 13  1  6
 13 14  1  0
 14 15  2  0
 14 19  1  0
 15 16  1  0
 15 17  1  0
 17 18  1  0
 18 19  2  0
 19 20  1  0
M  END
