
     RDKit          3D

 17 18  0  0  0  0  0  0  0  0999 V2000
   -4.4220   -1.3800   -0.0350 N   0  0  0  0  0  0  0  0  0  0  0  0
   -3.4940   -0.6240    0.7820 C   0  0  1  0  0  0  0  0  0  0  0  0
   -2.0980   -0.9930    0.5550 C   0  0  0  0  0  0  0  0  0  0  0  0
   -1.2220   -0.0820    0.1870 C   0  0  0  0  0  0  0  0  0  0  0  0
    0.1020   -0.4470   -0.0250 O   0  0  0  0  0  0  0  0  0  0  0  0
    1.1310    0.1090    0.7840 C   0  0  0  0  0  0  0  0  0  0  0  0
    2.4350   -0.4720    0.3190 C   0  0  1  0  0  0  0  0  0  0  0  0
    2.4080   -1.8610    0.3840 O   0  0  0  0  0  0  0  0  0  0  0  0
    2.6850   -0.0490   -1.1090 C   0  0  0  0  0  0  0  0  0  0  0  0
    3.6840    0.9220   -0.9980 O   0  0  0  0  0  0  0  0  0  0  0  0
    4.4460    0.6230    0.1160 C   0  0  0  0  0  0  0  0  0  0  0  0
    5.6860    0.8750    0.2500 O   0  0  0  0  0  0  0  0  0  0  0  0
    3.5740   -0.0020    1.0460 N   0  0  0  0  0  0  0  0  0  0  0  0
   -1.5620    1.3180   -0.0160 C   0  0  0  0  0  0  0  0  0  0  0  0
   -0.6260    2.2690   -0.4050 O   0  0  0  0  0  0  0  0  0  0  0  0
   -2.8290    1.6660    0.1870 C   0  0  0  0  0  0  0  0  0  0  0  0
   -3.7560    0.7330    0.5700 O   0  0  0  0  0  0  0  0  0  0  0  0
  2  1  1  6
  2  3  1  0
  2 17  1  0
  3  4  2  0
  4  5  1  0
  4 14  1  0
  5  6  1  0
  6  7  1  0
  7  8  1  6
  7  9  1  0
  7 13  1  0
  9 10  1  0
 10 11  1  0
 11 12  2  0
 11 13  1  0
 14 15  1  0
 14 16  2  0
 16 17  1  0
M  END
