
     RDKit          3D

 20 21  0  0  0  0  0  0  0  0999 V2000
    2.4820    2.3090    1.8390 C   0  0  0  0  0  0  0  0  0  0  0  0
    1.7570    1.6240    0.6870 C   0  0  0  0  0  0  0  0  0  0  0  0
    2.0260    0.1310    0.7850 C   0  0  0  0  0  0  0  0  0  0  0  0
    1.3440   -0.6020   -0.2410 C   0  0  1  0  0  0  0  0  0  0  0  0
    1.5560   -2.1000   -0.3910 C   0  0  0  0  0  0  0  0  0  0  0  0
    2.9380   -2.5170   -0.6630 C   0  0  0  0  0  0  0  0  0  0  0  0
    4.1460   -2.1500    0.5430 Cl  0  0  0  0  0  0  0  0  0  0  0  0
    0.0120   -0.2380   -0.7440 C   0  0  0  0  0  0  0  0  0  0  0  0
   -0.9820    0.0910    0.0100 C   0  0  0  0  0  0  0  0  0  0  0  0
   -2.3120    0.4630   -0.5670 C   0  0  0  0  0  0  0  0  0  0  0  0
   -3.4000    0.2940    0.1190 C   0  0  0  0  0  0  0  0  0  0  0  0
   -4.9910    0.7290   -0.5460 Cl  0  0  0  0  0  0  0  0  0  0  0  0
   -3.3940   -0.2560    1.4710 C   0  0  0  0  0  0  0  0  0  0  0  0
   -2.1700   -0.9120    1.7750 N   0  0  0  0  0  0  0  0  0  0  0  0
   -1.0100    0.0090    1.4560 C   0  0  2  0  0  0  0  0  0  0  0  0
   -1.6130    1.5560    2.1620 Cl  0  0  0  0  0  0  0  0  0  0  0  0
   -2.4120    1.0250   -1.9390 C   0  0  0  0  0  0  0  0  0  0  0  0
   -1.5630    0.1390   -2.8110 C   0  0  0  0  0  0  0  0  0  0  0  0
   -0.2740   -0.2350   -2.2060 C   0  0  0  0  0  0  0  0  0  0  0  0
    0.6680   -0.5810   -2.9650 O   0  0  0  0  0  0  0  0  0  0  0  0
  1  2  1  0
  2  3  1  0
  4  3  1  1
  4  5  1  0
  4  8  1  0
  5  6  1  0
  6  7  1  0
  8  9  2  0
  8 19  1  0
  9 10  1  0
  9 15  1  0
 10 11  2  0
 10 17  1  0
 11 12  1  0
 11 13  1  0
 13 14  1  0
 14 15  1  0
 15 16  1  1
 17 18  1  0
 18 19  1  0
 19 20  2  0
M  END
