
     RDKit          3D

 30 34  0  0  0  0  0  0  0  0999 V2000
   -4.3200    1.2440    1.3590 C   0  0  0  0  0  0  0  0  0  0  0  0
   -3.0600    1.5320    0.6350 C   0  0  1  0  0  0  0  0  0  0  0  0
   -1.8810    1.4670    1.5830 C   0  0  0  0  0  0  0  0  0  0  0  0
   -1.2330    0.1490    1.2040 C   0  0  1  0  0  0  0  0  0  0  0  0
   -1.8650   -0.9740    1.9370 C   0  0  0  0  0  0  0  0  0  0  0  0
   -1.3980    0.1400   -0.2770 C   0  0  1  0  0  0  0  0  0  0  0  0
   -0.2890    0.9990   -0.8310 C   0  0  0  0  0  0  0  0  0  0  0  0
   -0.5220    2.0160   -1.4870 O   0  0  0  0  0  0  0  0  0  0  0  0
    1.0370    0.5940   -0.5680 N   0  0  0  0  0  0  0  0  0  0  0  0
    2.2230    1.2180   -0.9680 C   0  0  0  0  0  0  0  0  0  0  0  0
    2.2410    2.4130   -1.6430 C   0  0  0  0  0  0  0  0  0  0  0  0
    3.4180    3.0600   -2.0280 C   0  0  0  0  0  0  0  0  0  0  0  0
    3.3770    4.2790   -2.7150 O   0  0  0  0  0  0  0  0  0  0  0  0
    4.6210    2.5090   -1.7360 C   0  0  0  0  0  0  0  0  0  0  0  0
    4.6300    1.3090   -1.0590 C   0  0  0  0  0  0  0  0  0  0  0  0
    3.4530    0.6570   -0.6720 C   0  0  0  0  0  0  0  0  0  0  0  0
    3.5100   -0.6350    0.0330 C   0  0  1  0  0  0  0  0  0  0  0  0
    2.8600   -1.8020   -0.6750 C   0  0  0  0  0  0  0  0  0  0  0  0
    4.8340   -1.0700    0.5860 C   0  0  0  0  0  0  0  0  0  0  0  0
    4.5400   -0.3210    1.8540 C   0  0  0  0  0  0  0  0  0  0  0  0
    3.0710   -0.4260    1.4810 C   0  0  0  0  0  0  0  0  0  0  0  0
   -1.3680   -1.2010   -0.9050 C   0  0  1  0  0  0  0  0  0  0  0  0
   -0.5860   -2.1300   -0.2290 O   0  0  0  0  0  0  0  0  0  0  0  0
   -2.7970   -1.5850   -0.9540 C   0  0  0  0  0  0  0  0  0  0  0  0
   -3.3000   -2.8700   -1.1740 C   0  0  0  0  0  0  0  0  0  0  0  0
   -4.6650   -3.0290   -1.1910 C   0  0  0  0  0  0  0  0  0  0  0  0
   -5.4650   -1.9240   -0.9920 C   0  0  0  0  0  0  0  0  0  0  0  0
   -4.9530   -0.6680   -0.7770 C   0  0  0  0  0  0  0  0  0  0  0  0
   -3.5960   -0.4850   -0.7550 C   0  0  0  0  0  0  0  0  0  0  0  0
   -2.7410    0.7120   -0.5520 C   0  0  1  0  0  0  0  0  0  0  0  0
  2  1  1  1
  2  3  1  0
  2 30  1  0
  3  4  1  0
  4  5  1  1
  4  6  1  0
  6  7  1  6
  6 22  1  0
  6 30  1  0
  7  8  2  0
  7  9  1  0
  9 10  1  0
 10 11  2  0
 10 16  1  0
 11 12  1  0
 12 13  1  0
 12 14  2  0
 14 15  1  0
 15 16  2  0
 16 17  1  0
 17 18  1  6
 17 19  1  0
 17 21  1  0
 19 20  1  0
 20 21  1  0
 22 23  1  1
 22 24  1  0
 24 25  2  0
 24 29  1  0
 25 26  1  0
 26 27  2  0
 27 28  1  0
 28 29  2  0
 30 29  1  1
M  END
