
     RDKit          3D

 30 34  0  0  0  0  0  0  0  0999 V2000
    8.0310   -2.8540    1.0260 C   0  0  0  0  0  0  0  0  0  0  0  0
    6.8380   -2.0500    0.6400 C   0  0  0  0  0  0  0  0  0  0  0  0
    5.6260   -2.6820    0.4620 C   0  0  0  0  0  0  0  0  0  0  0  0
    4.4940   -1.9740    0.1040 C   0  0  0  0  0  0  0  0  0  0  0  0
    4.5250   -0.6080   -0.0910 C   0  0  0  0  0  0  0  0  0  0  0  0
    3.3120    0.1240   -0.4700 C   0  0  0  0  0  0  0  0  0  0  0  0
    3.3460    1.2590   -1.2530 C   0  0  0  0  0  0  0  0  0  0  0  0
    2.2280    1.9670   -1.6250 C   0  0  0  0  0  0  0  0  0  0  0  0
    0.9790    1.5120   -1.1850 C   0  0  0  0  0  0  0  0  0  0  0  0
    0.8930    0.3850   -0.4020 C   0  0  0  0  0  0  0  0  0  0  0  0
    2.0600   -0.2870   -0.0600 C   0  0  0  0  0  0  0  0  0  0  0  0
   -0.3520   -0.0530    0.0260 O   0  0  0  0  0  0  0  0  0  0  0  0
   -1.3830    0.9430    0.1040 C   0  0  2  0  0  0  0  0  0  0  0  0
   -2.7440    0.2780    0.2470 C   0  0  0  0  0  0  0  0  0  0  0  0
   -3.7820    1.2620   -0.1750 C   0  0  1  0  0  0  0  0  0  0  0  0
   -5.1260    1.0920    0.4540 C   0  0  2  0  0  0  0  0  0  0  0  0
   -5.0880    1.2050    1.9000 N   0  0  0  0  0  0  0  0  0  0  0  0
   -5.7980   -0.1820    0.0850 C   0  0  0  0  0  0  0  0  0  0  0  0
   -6.9530   -0.2630   -0.5360 C   0  0  0  0  0  0  0  0  0  0  0  0
   -7.2880   -1.6840   -0.7260 C   0  0  0  0  0  0  0  0  0  0  0  0
   -6.1660   -2.4170   -0.1280 C   0  0  0  0  0  0  0  0  0  0  0  0
   -6.0400   -3.7930   -0.0700 O   0  0  0  0  0  0  0  0  0  0  0  0
   -5.3220   -1.5150    0.3310 C   0  0  0  0  0  0  0  0  0  0  0  0
   -3.2930    2.6610    0.1620 C   0  0  0  0  0  0  0  0  0  0  0  0
   -2.2450    3.0260   -0.8400 C   0  0  0  0  0  0  0  0  0  0  0  0
   -1.4110    1.7860   -1.1370 C   0  0  1  0  0  0  0  0  0  0  0  0
   -0.1540    2.2150   -1.5520 O   0  0  0  0  0  0  0  0  0  0  0  0
    5.7360    0.0270    0.0860 C   0  0  0  0  0  0  0  0  0  0  0  0
    6.8800   -0.6850    0.4480 C   0  0  0  0  0  0  0  0  0  0  0  0
    8.1860   -0.0040    0.6400 C   0  0  0  0  0  0  0  0  0  0  0  0
  1  2  1  0
  2  3  2  0
  2 29  1  0
  3  4  1  0
  4  5  2  0
  5  6  1  0
  5 28  1  0
  6  7  2  0
  6 11  1  0
  7  8  1  0
  8  9  2  0
  9 10  1  0
  9 27  1  0
 10 11  2  0
 10 12  1  0
 12 13  1  0
 13 14  1  6
 13 26  1  0
 15 14  1  1
 15 16  1  0
 15 24  1  0
 16 17  1  1
 16 18  1  0
 18 19  2  0
 18 23  1  0
 19 20  1  0
 20 21  1  0
 21 22  1  0
 21 23  2  0
 24 25  1  0
 26 25  1  1
 26 27  1  0
 28 29  2  0
 29 30  1  0
M  END
