
     RDKit          3D

 30 33  0  0  0  0  0  0  0  0999 V2000
   -2.7760   -1.9080    2.3150 C   0  0  0  0  0  0  0  0  0  0  0  0
   -1.7030   -0.9270    2.6610 C   0  0  0  0  0  0  0  0  0  0  0  0
   -0.7320   -0.5840    1.6260 C   0  0  2  0  0  0  0  0  0  0  0  0
    0.2490    0.4310    2.3170 C   0  0  0  0  0  0  0  0  0  0  0  0
    1.5030    0.3710    1.5670 C   0  0  0  0  0  0  0  0  0  0  0  0
    2.6410    0.6930    2.2030 N   0  0  0  0  0  0  0  0  0  0  0  0
    3.8150    0.6510    1.5570 C   0  0  0  0  0  0  0  0  0  0  0  0
    4.8630    0.9550    2.1660 O   0  0  0  0  0  0  0  0  0  0  0  0
    3.8750    0.2730    0.2190 C   0  0  0  0  0  0  0  0  0  0  0  0
    5.1780    0.2490   -0.4200 C   0  0  0  0  0  0  0  0  0  0  0  0
    5.5180   -0.8230   -1.2060 C   0  0  0  0  0  0  0  0  0  0  0  0
    6.7670   -0.8840   -1.8400 C   0  0  0  0  0  0  0  0  0  0  0  0
    7.6570    0.1480   -1.6660 C   0  0  0  0  0  0  0  0  0  0  0  0
    8.9970    0.0810   -2.3470 C   0  0  0  0  0  0  0  0  0  0  0  0
    7.3340    1.2320   -0.8820 C   0  0  0  0  0  0  0  0  0  0  0  0
    6.0860    1.2650   -0.2640 C   0  0  0  0  0  0  0  0  0  0  0  0
    2.7140   -0.0560   -0.4330 C   0  0  0  0  0  0  0  0  0  0  0  0
    1.5090   -0.0060    0.2540 C   0  0  0  0  0  0  0  0  0  0  0  0
    0.3090   -0.3770   -0.5320 C   0  0  0  0  0  0  0  0  0  0  0  0
   -0.9690   -0.0720    0.3130 C   0  0  1  0  0  0  0  0  0  0  0  0
   -2.1440   -0.1000   -0.5470 C   0  0  2  0  0  0  0  0  0  0  0  0
   -1.6060    0.5170   -1.8030 O   0  0  0  0  0  0  0  0  0  0  0  0
   -3.3050    0.8040   -0.3440 C   0  0  2  0  0  0  0  0  0  0  0  0
   -4.1620    0.8300    0.8240 C   0  0  0  0  0  0  0  0  0  0  0  0
   -5.2970   -0.1320    0.9360 C   0  0  0  0  0  0  0  0  0  0  0  0
   -5.4750   -1.1270   -0.1390 C   0  0  0  0  0  0  0  0  0  0  0  0
   -6.0120   -0.4320   -1.3780 C   0  0  0  0  0  0  0  0  0  0  0  0
   -4.8080   -0.0430   -2.2100 C   0  0  0  0  0  0  0  0  0  0  0  0
   -4.0410    1.0870   -1.6590 C   0  0  1  0  0  0  0  0  0  0  0  0
   -4.8130    2.2170   -1.4270 O   0  0  0  0  0  0  0  0  0  0  0  0
  1  2  1  0
  3  2  1  1
  3  4  1  0
  3 20  1  0
  4  5  1  0
  5  6  1  0
  5 18  2  0
  6  7  1  0
  7  8  2  0
  7  9  1  0
  9 10  1  0
  9 17  2  0
 10 11  2  0
 10 16  1  0
 11 12  1  0
 12 13  2  0
 13 14  1  0
 13 15  1  0
 15 16  2  0
 17 18  1  0
 18 19  1  0
 20 19  1  6
 20 21  1  0
 21 22  1  6
 21 23  1  0
 23 24  1  1
 23 29  1  0
 24 25  1  0
 25 26  1  0
 26 27  1  0
 27 28  1  0
 28 29  1  0
 29 30  1  1
M  END
