
     RDKit          3D

 30 34  0  0  0  0  0  0  0  0999 V2000
    4.7290   -0.0530    2.1620 C   0  0  0  0  0  0  0  0  0  0  0  0
    4.4540   -0.2980    0.6960 C   0  0  2  0  0  0  0  0  0  0  0  0
    4.8490    0.8850   -0.1200 C   0  0  0  0  0  0  0  0  0  0  0  0
    4.4580    0.6570   -1.5650 C   0  0  0  0  0  0  0  0  0  0  0  0
    2.9820    0.5920   -1.7540 C   0  0  0  0  0  0  0  0  0  0  0  0
    2.3160   -0.1840   -0.6370 C   0  0  0  0  0  0  0  0  0  0  0  0
    3.0070   -0.5820    0.4830 C   0  0  0  0  0  0  0  0  0  0  0  0
    2.3040   -1.2860    1.4500 C   0  0  0  0  0  0  0  0  0  0  0  0
    0.9540   -1.5940    1.3200 C   0  0  0  0  0  0  0  0  0  0  0  0
    0.2800   -1.2050    0.2230 C   0  0  0  0  0  0  0  0  0  0  0  0
    0.9840   -0.4910   -0.7580 C   0  0  0  0  0  0  0  0  0  0  0  0
    0.2350   -0.0340   -1.9500 C   0  0  0  0  0  0  0  0  0  0  0  0
   -1.1180    0.5330   -1.5960 C   0  0  2  0  0  0  0  0  0  0  0  0
   -1.0330    2.0250   -1.5320 C   0  0  0  0  0  0  0  0  0  0  0  0
   -0.0970    2.5340   -0.5630 N   0  0  0  0  0  0  0  0  0  0  0  0
    0.0870    3.9270   -0.3890 C   0  0  0  0  0  0  0  0  0  0  0  0
   -0.5400    4.7810   -1.0550 O   0  0  0  0  0  0  0  0  0  0  0  0
    1.0060    4.3810    0.5630 O   0  0  0  0  0  0  0  0  0  0  0  0
   -1.6740    0.0010   -0.3050 C   0  0  2  0  0  0  0  0  0  0  0  0
   -1.3590    0.7280    0.8130 O   0  0  0  0  0  0  0  0  0  0  0  0
   -1.1290   -1.4320   -0.1350 C   0  0  2  0  0  0  0  0  0  0  0  0
   -2.0370   -2.0250    0.7850 C   0  0  0  0  0  0  0  0  0  0  0  0
   -2.0080   -3.0780    1.6880 C   0  0  0  0  0  0  0  0  0  0  0  0
   -3.1260   -3.3770    2.4420 C   0  0  0  0  0  0  0  0  0  0  0  0
   -4.3020   -2.6780    2.3520 C   0  0  0  0  0  0  0  0  0  0  0  0
   -4.3530   -1.6310    1.4610 C   0  0  0  0  0  0  0  0  0  0  0  0
   -3.2460   -1.3290    0.7090 C   0  0  0  0  0  0  0  0  0  0  0  0
   -3.1330   -0.2640   -0.3240 C   0  0  2  0  0  0  0  0  0  0  0  0
   -3.6000   -0.8280   -1.6630 C   0  0  0  0  0  0  0  0  0  0  0  0
   -3.9760    0.9420   -0.0500 C   0  0  0  0  0  0  0  0  0  0  0  0
  2  1  1  1
  2  3  1  0
  2  7  1  0
  3  4  1  0
  4  5  1  0
  5  6  1  0
  6  7  2  0
  6 11  1  0
  7  8  1  0
  8  9  2  0
  9 10  1  0
 10 11  2  0
 21 10  1  1
 11 12  1  0
 12 13  1  0
 13 14  1  1
 13 19  1  0
 14 15  1  0
 15 16  1  0
 16 17  2  0
 16 18  1  0
 19 20  1  1
 19 21  1  0
 19 28  1  0
 21 22  1  0
 22 23  2  0
 22 27  1  0
 23 24  1  0
 24 25  2  0
 25 26  1  0
 26 27  2  0
 27 28  1  0
 28 29  1  6
 28 30  1  0
M  END
