
     RDKit          3D

 30 33  0  0  0  0  0  0  0  0999 V2000
   -4.3770   -0.8800    3.6090 C   0  0  0  0  0  0  0  0  0  0  0  0
   -3.6650   -0.6630    2.3190 C   0  0  0  0  0  0  0  0  0  0  0  0
   -2.3130   -0.4010    2.2580 C   0  0  0  0  0  0  0  0  0  0  0  0
   -1.6430   -0.1980    1.0630 C   0  0  0  0  0  0  0  0  0  0  0  0
   -0.2040    0.0770    1.0330 C   0  0  0  0  0  0  0  0  0  0  0  0
    0.5470   -0.3440   -0.0440 C   0  0  0  0  0  0  0  0  0  0  0  0
    1.9110   -0.1170   -0.1370 C   0  0  0  0  0  0  0  0  0  0  0  0
    2.5730    0.5510    0.8680 C   0  0  0  0  0  0  0  0  0  0  0  0
    4.0270    0.8260    0.8320 C   0  0  2  0  0  0  0  0  0  0  0  0
    4.3970    1.6400   -0.4080 C   0  0  0  0  0  0  0  0  0  0  0  0
    5.6110    0.9690   -1.0150 C   0  0  0  0  0  0  0  0  0  0  0  0
    6.1330    0.1130    0.0990 C   0  0  2  0  0  0  0  0  0  0  0  0
    6.7400    0.9270    1.0330 O   0  0  0  0  0  0  0  0  0  0  0  0
    7.0300   -1.0130   -0.3570 C   0  0  0  0  0  0  0  0  0  0  0  0
    8.2430   -0.5310   -1.0810 C   0  0  0  0  0  0  0  0  0  0  0  0
    7.8870    0.1780   -2.2050 O   0  0  0  0  0  0  0  0  0  0  0  0
    4.8540   -0.4120    0.7210 C   0  0  0  0  0  0  0  0  0  0  0  0
    1.8350    0.9720    1.9440 C   0  0  0  0  0  0  0  0  0  0  0  0
    0.4570    0.7460    2.0420 C   0  0  0  0  0  0  0  0  0  0  0  0
   -2.3920   -0.2670   -0.1020 C   0  0  0  0  0  0  0  0  0  0  0  0
   -3.7340   -0.5230   -0.0820 C   0  0  0  0  0  0  0  0  0  0  0  0
   -4.3580   -0.7190    1.1290 C   0  0  0  0  0  0  0  0  0  0  0  0
   -5.7380   -0.9830    1.1640 N   0  0  0  0  0  0  0  0  0  0  0  0
   -6.5470   -0.8010   -0.0210 C   0  0  0  0  0  0  0  0  0  0  0  0
   -5.8190   -1.1470   -1.2880 C   0  0  0  0  0  0  0  0  0  0  0  0
   -4.4450   -0.5760   -1.3850 C   0  0  2  0  0  0  0  0  0  0  0  0
   -3.6270   -1.5160   -2.2730 C   0  0  0  0  0  0  0  0  0  0  0  0
   -4.3870    0.7840   -2.0080 C   0  0  2  0  0  0  0  0  0  0  0  0
   -5.0270    1.8550   -1.1710 C   0  0  0  0  0  0  0  0  0  0  0  0
   -4.9520    0.7840   -3.2880 O   0  0  0  0  0  0  0  0  0  0  0  0
  1  2  1  0
  2  3  2  0
  2 22  1  0
  3  4  1  0
  4  5  1  0
  4 20  2  0
  5  6  2  0
  5 19  1  0
  6  7  1  0
  7  8  2  0
  9  8  1  6
  8 18  1  0
  9 10  1  0
  9 17  1  0
 10 11  1  0
 11 12  1  0
 12 13  1  1
 12 14  1  0
 12 17  1  0
 14 15  1  0
 15 16  1  0
 18 19  2  0
 20 21  1  0
 21 22  2  0
 21 26  1  0
 22 23  1  0
 23 24  1  0
 24 25  1  0
 25 26  1  0
 26 27  1  6
 26 28  1  0
 28 29  1  1
 28 30  1  0
M  END
