
     RDKit          3D

 30 34  0  0  0  0  0  0  0  0999 V2000
    2.0530   -0.7090    0.6110 O   0  0  0  0  0  0  0  0  0  0  0  0
    1.9770    0.0210   -0.3830 C   0  0  0  0  0  0  0  0  0  0  0  0
    0.6390    0.3720   -0.7920 N   0  0  0  0  0  0  0  0  0  0  0  0
   -0.5580   -0.1150   -0.1650 C   0  0  2  0  0  0  0  0  0  0  0  0
   -1.5160   -0.5300   -1.2540 C   0  0  0  0  0  0  0  0  0  0  0  0
   -2.8370    0.1370   -1.1730 C   0  0  1  0  0  0  0  0  0  0  0  0
   -3.8250   -0.8000   -1.8830 C   0  0  0  0  0  0  0  0  0  0  0  0
   -4.1240   -1.8740   -0.8570 C   0  0  2  0  0  0  0  0  0  0  0  0
   -5.6200   -1.7810   -0.6080 C   0  0  0  0  0  0  0  0  0  0  0  0
   -5.9110   -0.5620    0.2190 C   0  0  0  0  0  0  0  0  0  0  0  0
   -4.8660    0.5100    0.2060 C   0  0  0  0  0  0  0  0  0  0  0  0
   -3.4430    0.0670    0.2590 C   0  0  1  0  0  0  0  0  0  0  0  0
   -3.4520   -1.4150    0.4510 C   0  0  0  0  0  0  0  0  0  0  0  0
   -2.5280    0.8470    1.0840 C   0  0  0  0  0  0  0  0  0  0  0  0
   -3.0080    1.6570    2.0750 C   0  0  0  0  0  0  0  0  0  0  0  0
   -2.0950    2.4200    2.8120 C   0  0  0  0  0  0  0  0  0  0  0  0
   -0.7470    2.3640    2.5510 C   0  0  0  0  0  0  0  0  0  0  0  0
   -0.2540    1.5480    1.5550 C   0  0  0  0  0  0  0  0  0  0  0  0
   -1.1440    0.7910    0.8260 C   0  0  0  0  0  0  0  0  0  0  0  0
    3.1890    0.4860   -1.1040 C   0  0  2  0  0  0  0  0  0  0  0  0
    3.3670   -0.7180   -2.1040 C   0  0  0  0  0  0  0  0  0  0  0  0
    3.6140   -2.0130   -1.4540 C   0  0  0  0  0  0  0  0  0  0  0  0
    4.7760   -2.1140   -0.6960 O   0  0  0  0  0  0  0  0  0  0  0  0
    4.4090    0.5660   -0.2920 C   0  0  0  0  0  0  0  0  0  0  0  0
    4.6890   -0.0770    0.8850 C   0  0  0  0  0  0  0  0  0  0  0  0
    5.8950    0.1160    1.5570 C   0  0  0  0  0  0  0  0  0  0  0  0
    6.8650    0.9690    1.0700 C   0  0  0  0  0  0  0  0  0  0  0  0
    6.5760    1.6230   -0.1240 C   0  0  0  0  0  0  0  0  0  0  0  0
    5.4100    1.4400   -0.7820 C   0  0  0  0  0  0  0  0  0  0  0  0
    5.2120    2.1420   -1.9790 O   0  0  0  0  0  0  0  0  0  0  0  0
  1  2  2  0
  2  3  1  0
  2 20  1  0
  4  3  1  6
  4  5  1  0
  4 19  1  0
  6  5  1  1
  6  7  1  0
  6 12  1  0
  8  7  1  6
  8  9  1  0
  8 13  1  0
  9 10  1  0
 10 11  1  0
 12 11  1  6
 12 13  1  0
 12 14  1  0
 14 15  2  0
 14 19  1  0
 15 16  1  0
 16 17  2  0
 17 18  1  0
 18 19  2  0
 20 21  1  6
 20 24  1  0
 21 22  1  0
 22 23  1  0
 24 25  2  0
 24 29  1  0
 25 26  1  0
 26 27  2  0
 27 28  1  0
 28 29  2  0
 29 30  1  0
M  END
