
     RDKit          3D

 29 33  0  0  0  0  0  0  0  0999 V2000
   -4.2150    2.2170    1.6960 C   0  0  0  0  0  0  0  0  0  0  0  0
   -3.1370    1.2910    2.2250 C   0  0  1  0  0  0  0  0  0  0  0  0
   -3.3420   -0.1230    1.7530 C   0  0  0  0  0  0  0  0  0  0  0  0
   -3.0390   -0.2750    0.2750 C   0  0  2  0  0  0  0  0  0  0  0  0
   -4.0020   -1.2220   -0.3970 C   0  0  2  0  0  0  0  0  0  0  0  0
   -3.6390   -1.2920   -1.7390 O   0  0  0  0  0  0  0  0  0  0  0  0
   -5.4220   -0.7530   -0.3090 C   0  0  2  0  0  0  0  0  0  0  0  0
   -6.5010   -1.6050   -0.9410 C   0  0  0  0  0  0  0  0  0  0  0  0
   -6.0720   -0.3400   -1.5890 C   0  0  1  0  0  0  0  0  0  0  0  0
   -6.9540    0.8880   -1.5100 C   0  0  0  0  0  0  0  0  0  0  0  0
   -1.6620   -0.8070    0.0720 C   0  0  2  0  0  0  0  0  0  0  0  0
   -1.5200   -2.0920    0.5910 O   0  0  0  0  0  0  0  0  0  0  0  0
   -0.5960    0.1030    0.5480 C   0  0  0  0  0  0  0  0  0  0  0  0
    0.6490   -0.3470    0.0990 C   0  0  0  0  0  0  0  0  0  0  0  0
    1.8020    0.3370    0.4160 C   0  0  0  0  0  0  0  0  0  0  0  0
    3.1240   -0.1100   -0.0390 C   0  0  0  0  0  0  0  0  0  0  0  0
    3.3230   -0.7650   -1.2370 C   0  0  0  0  0  0  0  0  0  0  0  0
    4.5800   -1.1780   -1.6380 C   0  0  0  0  0  0  0  0  0  0  0  0
    5.6990   -0.9420   -0.8350 C   0  0  0  0  0  0  0  0  0  0  0  0
    5.5030   -0.2890    0.3600 C   0  0  0  0  0  0  0  0  0  0  0  0
    4.2600    0.1110    0.7400 C   0  0  0  0  0  0  0  0  0  0  0  0
    6.7500   -0.0650    1.1690 C   0  0  0  0  0  0  0  0  0  0  0  0
    7.7230    0.5790    0.1800 C   0  0  0  0  0  0  0  0  0  0  0  0
    8.1670   -0.4880   -0.7750 C   0  0  0  0  0  0  0  0  0  0  0  0
    7.0500   -1.3670   -1.2150 C   0  0  0  0  0  0  0  0  0  0  0  0
    1.6810    1.4770    1.1880 C   0  0  0  0  0  0  0  0  0  0  0  0
    0.4660    1.9440    1.6440 C   0  0  0  0  0  0  0  0  0  0  0  0
   -0.6910    1.2360    1.3120 C   0  0  0  0  0  0  0  0  0  0  0  0
   -1.8650    1.8210    1.8440 N   0  0  0  0  0  0  0  0  0  0  0  0
  2  1  1  6
  2  3  1  0
  2 29  1  0
  4  3  1  1
  4  5  1  0
  4 11  1  0
  5  6  1  6
  5  7  1  0
  7  8  1  6
  7  9  1  0
  8  9  1  0
  9 10  1  1
 11 12  1  1
 11 13  1  0
 13 14  2  0
 13 28  1  0
 14 15  1  0
 15 16  1  0
 15 26  2  0
 16 17  2  0
 16 21  1  0
 17 18  1  0
 18 19  2  0
 19 20  1  0
 19 25  1  0
 20 21  2  0
 20 22  1  0
 22 23  1  0
 23 24  1  0
 24 25  1  0
 26 27  1  0
 27 28  2  0
 28 29  1  0
M  END
