
     RDKit          3D

 22 24  0  0  0  0  0  0  0  0999 V2000
    1.1300    0.8180   -1.5110 N   0  0  0  0  0  0  0  0  0  0  0  0
    0.8420   -0.1520   -0.7360 C   0  0  0  0  0  0  0  0  0  0  0  0
   -0.5130   -0.4960   -0.5110 N   0  0  0  0  0  0  0  0  0  0  0  0
   -1.5270    0.5220   -0.6270 C   0  0  0  0  0  0  0  0  0  0  0  0
   -1.2970    1.7730   -0.4930 N   0  0  0  0  0  0  0  0  0  0  0  0
   -2.4600    2.5190   -0.6570 O   0  0  0  0  0  0  0  0  0  0  0  0
   -3.5720    1.6280   -0.4480 C   0  0  0  0  0  0  0  0  0  0  0  0
   -2.9600    0.3330   -0.9120 C   0  0  2  0  0  0  0  0  0  0  0  0
   -3.5410   -0.8210   -0.3110 N   0  0  0  0  0  0  0  0  0  0  0  0
   -3.6120   -0.9650    1.1110 C   0  0  0  0  0  0  0  0  0  0  0  0
   -4.8210   -0.6350    0.3240 C   0  0  0  0  0  0  0  0  0  0  0  0
    1.9220   -0.9240   -0.0800 C   0  0  0  0  0  0  0  0  0  0  0  0
    3.2130   -0.7040   -0.2170 C   0  0  0  0  0  0  0  0  0  0  0  0
    3.8030    0.3020   -1.0070 O   0  0  0  0  0  0  0  0  0  0  0  0
    4.3990    1.7460   -0.1680 P   0  0  0  0  0  0  0  0  0  0  0  0
    4.0540    1.6550    1.5360 O   0  0  0  0  0  0  0  0  0  0  0  0
    6.0960    1.9020   -0.4560 O   0  0  0  0  0  0  0  0  0  0  0  0
    3.9770   -1.6450    0.5650 C   0  0  0  0  0  0  0  0  0  0  0  0
    5.2400   -1.7450    0.6860 O   0  0  0  0  0  0  0  0  0  0  0  0
    3.0470   -2.4930    1.2180 N   0  0  0  0  0  0  0  0  0  0  0  0
    1.7550   -2.0450    0.8160 C   0  0  0  0  0  0  0  0  0  0  0  0
    0.6660   -2.5840    1.2150 O   0  0  0  0  0  0  0  0  0  0  0  0
  1  2  2  0
  2  3  1  0
  2 12  1  0
  3  4  1  0
  4  5  2  0
  4  8  1  0
  5  6  1  0
  6  7  1  0
  7  8  1  0
  8  9  1  1
  9 10  1  0
  9 11  1  0
 10 11  1  0
 12 13  2  0
 12 21  1  0
 13 14  1  0
 13 18  1  0
 14 15  1  0
 15 16  1  0
 15 17  1  0
 18 19  2  0
 18 20  1  0
 20 21  1  0
 21 22  2  0
M  END
