
     RDKit          3D

 23 25  0  0  0  0  0  0  0  0999 V2000
   -3.3040   -0.5100    2.2970 O   0  0  0  0  0  0  0  0  0  0  0  0
   -2.9870    0.0790    1.2430 C   0  0  0  0  0  0  0  0  0  0  0  0
   -3.8510    0.5990    0.3590 N   0  0  0  0  0  0  0  0  0  0  0  0
   -5.3030    0.6040    0.4110 C   0  0  0  0  0  0  0  0  0  0  0  0
   -5.8300   -0.6380   -0.2740 C   0  0  0  0  0  0  0  0  0  0  0  0
   -5.3790   -0.5960   -1.6020 O   0  0  0  0  0  0  0  0  0  0  0  0
   -3.1680    1.1590   -0.6590 C   0  0  0  0  0  0  0  0  0  0  0  0
   -1.8370    0.9460   -0.3380 C   0  0  0  0  0  0  0  0  0  0  0  0
   -1.7030    0.2910    0.8150 N   0  0  0  0  0  0  0  0  0  0  0  0
   -0.4510   -0.0810    1.4210 C   0  0  0  0  0  0  0  0  0  0  0  0
    0.7060    0.3420    0.6260 C   0  0  0  0  0  0  0  0  0  0  0  0
    2.0530    0.0430    1.0990 N   0  0  0  0  0  0  0  0  0  0  0  0
    2.7950   -0.6400    0.3260 C   0  0  0  0  0  0  0  0  0  0  0  0
    2.4660   -1.1300   -0.9100 O   0  0  0  0  0  0  0  0  0  0  0  0
    3.4450   -2.0530   -1.3030 C   0  0  0  0  0  0  0  0  0  0  0  0
    4.3020   -2.2200   -0.2200 O   0  0  0  0  0  0  0  0  0  0  0  0
    4.2160   -1.0910    0.5540 C   0  0  1  0  0  0  0  0  0  0  0  0
    5.0370   -0.0600    0.1810 O   0  0  0  0  0  0  0  0  0  0  0  0
    5.9660    0.6010    1.4650 P   0  0  0  0  0  0  0  0  0  0  0  0
    5.3120    2.0420    2.1220 O   0  0  0  0  0  0  0  0  0  0  0  0
    7.6360    0.6990    1.1460 O   0  0  0  0  0  0  0  0  0  0  0  0
    0.5800    0.9680   -0.4780 N   0  0  0  0  0  0  0  0  0  0  0  0
   -0.6410    1.3080   -1.0270 N   0  0  0  0  0  0  0  0  0  0  0  0
  1  2  2  0
  2  3  1  0
  2  9  1  0
  3  4  1  0
  3  7  1  0
  4  5  1  0
  5  6  1  0
  7  8  2  0
  8  9  1  0
  8 23  1  0
  9 10  1  0
 10 11  1  0
 11 12  1  0
 11 22  2  0
 12 13  2  3
 13 14  1  0
 13 17  1  0
 14 15  1  0
 15 16  1  0
 16 17  1  0
 17 18  1  6
 18 19  1  0
 19 20  1  0
 19 21  1  0
 22 23  1  0
M  END
