
     RDKit          3D

 23 24  0  0  0  0  0  0  0  0999 V2000
    0.6370    2.4500   -0.5230 C   0  0  0  0  0  0  0  0  0  0  0  0
    0.3870    1.1170    0.2060 C   0  0  2  0  0  0  0  0  0  0  0  0
    1.7520    0.6600    0.6810 C   0  0  0  0  0  0  0  0  0  0  0  0
    2.5780    0.2890   -0.4290 N   0  0  0  0  0  0  0  0  0  0  0  0
    3.9040   -0.1690   -0.1940 C   0  0  0  0  0  0  0  0  0  0  0  0
    4.3490   -0.2480    0.9890 O   0  0  0  0  0  0  0  0  0  0  0  0
    4.7710   -0.5510   -1.2380 N   0  0  0  0  0  0  0  0  0  0  0  0
    6.4350   -1.1310   -1.0260 P   0  0  0  0  0  0  0  0  0  0  0  0
    6.5700   -2.5210   -0.0320 O   0  0  0  0  0  0  0  0  0  0  0  0
    7.5100    0.1140   -0.4940 O   0  0  0  0  0  0  0  0  0  0  0  0
   -0.2400    0.1670   -0.6510 N   0  0  0  0  0  0  0  0  0  0  0  0
   -1.3830   -0.3250   -0.4140 C   0  0  0  0  0  0  0  0  0  0  0  0
   -1.9740   -1.2840   -1.3130 N   0  0  0  0  0  0  0  0  0  0  0  0
   -3.2640   -1.7970   -0.9790 C   0  0  0  0  0  0  0  0  0  0  0  0
   -3.5810   -2.9580   -1.3110 O   0  0  0  0  0  0  0  0  0  0  0  0
   -4.1670   -0.8650   -0.2290 C   0  0  1  0  0  0  0  0  0  0  0  0
   -5.3920   -1.4580    0.0570 O   0  0  0  0  0  0  0  0  0  0  0  0
   -6.4030   -0.7420   -0.5030 N   0  0  0  0  0  0  0  0  0  0  0  0
   -3.4510   -0.5080    1.0520 C   0  0  0  0  0  0  0  0  0  0  0  0
   -2.1230    0.0590    0.7680 C   0  0  0  0  0  0  0  0  0  0  0  0
   -1.6110    0.9370    1.6240 C   0  0  0  0  0  0  0  0  0  0  0  0
   -2.3190    1.3110    2.7630 O   0  0  0  0  0  0  0  0  0  0  0  0
   -0.3650    1.4570    1.3420 O   0  0  0  0  0  0  0  0  0  0  0  0
  2  1  1  6
  2  3  1  0
  2 11  1  0
  2 23  1  0
  3  4  1  0
  4  5  1  0
  5  6  2  0
  5  7  1  0
  7  8  1  0
  8  9  1  0
  8 10  1  0
 11 12  2  0
 12 13  1  0
 12 20  1  0
 13 14  1  0
 14 15  2  0
 14 16  1  0
 16 17  1  1
 16 19  1  0
 17 18  1  0
 19 20  1  0
 20 21  2  0
 21 22  1  0
 21 23  1  0
M  END
