
     RDKit          3D

 22 23  0  0  0  0  0  0  0  0999 V2000
   -1.5110   -1.2250   -2.1420 C   0  0  0  0  0  0  0  0  0  0  0  0
   -0.9220   -0.7840   -0.8030 C   0  0  1  0  0  0  0  0  0  0  0  0
   -1.5450   -1.6580    0.2560 C   0  0  0  0  0  0  0  0  0  0  0  0
   -1.2410   -3.0710    0.0070 N   0  0  0  0  0  0  0  0  0  0  0  0
    0.5540   -0.8940   -0.8790 C   0  0  0  0  0  0  0  0  0  0  0  0
    1.2670   -0.0610    0.1000 N   0  0  0  0  0  0  0  0  0  0  0  0
    2.6820   -0.1170    0.1170 C   0  0  0  0  0  0  0  0  0  0  0  0
    3.2890   -0.8860   -0.6920 O   0  0  0  0  0  0  0  0  0  0  0  0
    3.5290    0.6230    0.9750 N   0  0  0  0  0  0  0  0  0  0  0  0
    5.3190    0.4640    0.9080 P   0  0  0  0  0  0  0  0  0  0  0  0
    5.9850    1.9850    0.4160 O   0  0  0  0  0  0  0  0  0  0  0  0
    5.7370   -0.7810   -0.2210 O   0  0  0  0  0  0  0  0  0  0  0  0
    0.4770    0.7170    0.9540 C   0  0  0  0  0  0  0  0  0  0  0  0
    0.9340    1.1610    2.0320 O   0  0  0  0  0  0  0  0  0  0  0  0
   -0.8940    1.0630    0.6690 N   0  0  0  0  0  0  0  0  0  0  0  0
   -1.6970    1.7270    1.6280 C   0  0  0  0  0  0  0  0  0  0  0  0
   -1.3070    1.9080    2.8050 O   0  0  0  0  0  0  0  0  0  0  0  0
   -2.9730    2.1880    1.2130 N   0  0  0  0  0  0  0  0  0  0  0  0
   -3.3930    1.9730   -0.1220 C   0  0  0  0  0  0  0  0  0  0  0  0
   -4.2950    2.7390   -0.6150 O   0  0  0  0  0  0  0  0  0  0  0  0
   -2.7940    0.8840   -0.9120 C   0  0  0  0  0  0  0  0  0  0  0  0
   -1.3500    0.6700   -0.6460 C   0  0  2  0  0  0  0  0  0  0  0  0
  2  1  1  6
  2  3  1  0
  2  5  1  0
  2 22  1  0
  3  4  1  0
  5  6  1  0
  6  7  1  0
  6 13  1  0
  7  8  2  0
  7  9  1  0
  9 10  1  0
 10 11  1  0
 10 12  1  0
 13 14  2  0
 13 15  1  0
 15 16  1  0
 15 22  1  0
 16 17  2  0
 16 18  1  0
 18 19  1  0
 19 20  2  0
 19 21  1  0
 22 21  1  1
M  END
