
     RDKit          3D

 22 23  0  0  0  0  0  0  0  0999 V2000
    1.7810    2.1130   -2.9740 C   0  0  0  0  0  0  0  0  0  0  0  0
    1.3360    1.9490   -1.5860 N   0  0  0  0  0  0  0  0  0  0  0  0
    1.2790    0.6750   -0.9730 C   0  0  0  0  0  0  0  0  0  0  0  0
    1.6170   -0.3310   -1.6290 O   0  0  0  0  0  0  0  0  0  0  0  0
    0.8140    0.6110    0.4360 C   0  0  1  0  0  0  0  0  0  0  0  0
    2.0960    0.1960    1.2170 C   0  0  0  0  0  0  0  0  0  0  0  0
    2.4590   -1.0280    0.7010 O   0  0  0  0  0  0  0  0  0  0  0  0
    3.8600   -1.7000    1.4110 P   0  0  0  0  0  0  0  0  0  0  0  0
    5.2580   -1.5550    0.3670 O   0  0  0  0  0  0  0  0  0  0  0  0
    3.5800   -3.4210    1.6090 O   0  0  0  0  0  0  0  0  0  0  0  0
    0.4400    1.8100    0.9250 O   0  0  0  0  0  0  0  0  0  0  0  0
   -0.8060    2.2840    0.7910 C   0  0  0  0  0  0  0  0  0  0  0  0
   -1.8870    1.3580    0.3280 C   0  0  1  0  0  0  0  0  0  0  0  0
   -2.2190    1.5650   -1.1300 C   0  0  0  0  0  0  0  0  0  0  0  0
   -3.3260    0.8550   -1.5400 O   0  0  0  0  0  0  0  0  0  0  0  0
   -1.6020   -0.0240    0.6630 N   0  0  0  0  0  0  0  0  0  0  0  0
   -2.7970   -0.7320    0.9630 C   0  0  0  0  0  0  0  0  0  0  0  0
   -2.7420   -2.2040    0.6720 C   0  0  0  0  0  0  0  0  0  0  0  0
   -1.8580   -2.9420    1.5180 N   0  0  0  0  0  0  0  0  0  0  0  0
   -0.5650   -2.8160    0.9990 N   0  0  0  0  0  0  0  0  0  0  0  0
    0.1810   -1.6260    0.7880 N   0  0  0  0  0  0  0  0  0  0  0  0
   -0.2240   -0.4130    0.6400 C   0  0  0  0  0  0  0  0  0  0  0  0
  1  2  1  0
  2  3  1  0
  3  4  2  0
  3  5  1  0
  5  6  1  1
  5 11  1  0
  5 22  1  0
  6  7  1  0
  7  8  1  0
  8  9  1  0
  8 10  1  0
 11 12  1  0
 12 13  1  0
 13 14  1  6
 13 16  1  0
 14 15  1  0
 16 17  1  0
 16 22  1  0
 17 18  1  0
 18 19  1  0
 19 20  1  0
 20 21  1  0
 21 22  2  0
M  END
