
     RDKit          3D

 23 25  0  0  0  0  0  0  0  0999 V2000
    5.3900    1.4650    0.9860 N   0  0  0  0  0  0  0  0  0  0  0  0
    4.6780    0.3060    0.6070 C   0  0  0  0  0  0  0  0  0  0  0  0
    3.3330    0.3560    0.6300 N   0  0  0  0  0  0  0  0  0  0  0  0
    2.5770   -0.7060    0.2830 C   0  0  0  0  0  0  0  0  0  0  0  0
    3.2850   -1.8470   -0.0970 C   0  0  0  0  0  0  0  0  0  0  0  0
    2.3090   -2.7500   -0.3910 N   0  0  0  0  0  0  0  0  0  0  0  0
    1.1020   -2.2130   -0.2080 C   0  0  0  0  0  0  0  0  0  0  0  0
    1.2560   -0.9480    0.2090 N   0  0  0  0  0  0  0  0  0  0  0  0
    0.2170   -0.0160    0.5220 C   0  0  1  0  0  0  0  0  0  0  0  0
    0.2180    1.2020   -0.3850 C   0  0  0  0  0  0  0  0  0  0  0  0
   -1.1490    1.7690   -0.0630 C   0  0  2  0  0  0  0  0  0  0  0  0
   -1.0110    2.6290    1.0100 O   0  0  0  0  0  0  0  0  0  0  0  0
   -1.8980    0.5460    0.4080 C   0  0  1  0  0  0  0  0  0  0  0  0
   -3.1360    0.3950   -0.4380 C   0  0  0  0  0  0  0  0  0  0  0  0
   -3.8810   -0.7140   -0.1030 O   0  0  0  0  0  0  0  0  0  0  0  0
   -5.2360   -0.7450   -1.1400 P   0  0  2  0  0  0  0  0  0  0  0  0
   -4.7950   -0.9230   -2.5720 O   0  0  0  0  0  0  0  0  0  0  0  0
   -5.9890    0.7680   -0.9790 O   0  0  0  0  0  0  0  0  0  0  0  0
   -6.2850   -1.9970   -0.7520 O   0  0  0  0  0  0  0  0  0  0  0  0
   -1.0420   -0.5260    0.3040 O   0  0  0  0  0  0  0  0  0  0  0  0
    4.6550   -1.8830   -0.1160 C   0  0  0  0  0  0  0  0  0  0  0  0
    5.2500   -2.9250   -0.4630 O   0  0  0  0  0  0  0  0  0  0  0  0
    5.3600   -0.8050    0.2370 N   0  0  0  0  0  0  0  0  0  0  0  0
  1  2  1  0
  2  3  2  0
  2 23  1  0
  3  4  1  0
  4  5  2  0
  4  8  1  0
  5  6  1  0
  5 21  1  0
  6  7  2  0
  7  8  1  0
  9  8  1  6
  9 10  1  0
  9 20  1  0
 10 11  1  0
 11 12  1  1
 11 13  1  0
 13 14  1  6
 13 20  1  0
 14 15  1  0
 15 16  1  0
 16 17  2  0
 16 18  1  6
 16 19  1  0
 21 22  2  0
 21 23  1  0
M  END
