
     RDKit          3D

 19 19  0  0  0  0  0  0  0  0999 V2000
    3.4810    2.1470    2.3510 C   0  0  0  0  0  0  0  0  0  0  0  0
    2.5760    1.6650    1.3700 O   0  0  0  0  0  0  0  0  0  0  0  0
    2.4240    0.3360    1.0620 C   0  0  0  0  0  0  0  0  0  0  0  0
    3.1220   -0.5070    1.6790 O   0  0  0  0  0  0  0  0  0  0  0  0
    1.4510   -0.1320    0.0130 C   0  0  2  0  0  0  0  0  0  0  0  0
    0.0660    0.3780    0.3540 C   0  0  0  0  0  0  0  0  0  0  0  0
   -0.7780   -0.0090   -0.6790 O   0  0  0  0  0  0  0  0  0  0  0  0
   -2.0930    0.4030   -0.4860 C   0  0  2  0  0  0  0  0  0  0  0  0
   -3.0410   -0.7770   -0.4020 C   0  0  0  0  0  0  0  0  0  0  0  0
   -4.4060   -0.2240   -0.1940 C   0  0  0  0  0  0  0  0  0  0  0  0
   -5.0940   -0.6020    0.7900 O   0  0  0  0  0  0  0  0  0  0  0  0
   -4.8500    0.7020   -1.1290 O   0  0  0  0  0  0  0  0  0  0  0  0
   -3.9190    1.4560   -1.7910 O   0  0  0  0  0  0  0  0  0  0  0  0
   -2.5580    1.3160   -1.5520 C   0  0  0  0  0  0  0  0  0  0  0  0
   -1.6880    1.9420   -2.2110 O   0  0  0  0  0  0  0  0  0  0  0  0
    1.4830   -1.5660   -0.1180 N   0  0  0  0  0  0  0  0  0  0  0  0
    1.8380   -2.1910   -1.3570 C   0  0  0  0  0  0  0  0  0  0  0  0
    2.1180   -1.4330   -2.3200 O   0  0  0  0  0  0  0  0  0  0  0  0
    1.8790   -3.5680   -1.5170 O   0  0  0  0  0  0  0  0  0  0  0  0
  1  2  1  0
  2  3  1  0
  3  4  2  0
  3  5  1  0
  5  6  1  1
  5 16  1  0
  6  7  1  0
  8  7  1  6
  8  9  1  0
  8 14  1  0
  9 10  1  0
 10 11  2  0
 10 12  1  0
 12 13  1  0
 13 14  1  0
 14 15  2  0
 16 17  1  0
 17 18  2  0
 17 19  1  0
M  END
