
     RDKit          3D

 19 19  0  0  0  0  0  0  0  0999 V2000
    2.9530    1.2720    0.9630 C   0  0  0  0  0  0  0  0  0  0  0  0
    2.8020    0.0310    0.1170 C   0  0  0  0  0  0  0  0  0  0  0  0
    1.5190   -0.0950   -0.4430 O   0  0  0  0  0  0  0  0  0  0  0  0
    0.3690   -0.1820    0.2930 C   0  0  0  0  0  0  0  0  0  0  0  0
    0.4650   -0.1480    1.5500 O   0  0  0  0  0  0  0  0  0  0  0  0
   -0.9850   -0.3160   -0.3530 C   0  0  1  0  0  0  0  0  0  0  0  0
   -1.3100    0.8190   -1.2310 C   0  0  0  0  0  0  0  0  0  0  0  0
   -1.2970    2.0920   -0.7950 O   0  0  0  0  0  0  0  0  0  0  0  0
   -1.9500    2.7670    0.1390 C   0  0  0  0  0  0  0  0  0  0  0  0
   -2.8020    2.2180    0.8530 O   0  0  0  0  0  0  0  0  0  0  0  0
   -1.7450    4.1470    0.4100 O   0  0  0  0  0  0  0  0  0  0  0  0
   -0.6660   -1.5030   -1.3760 C   0  0  0  0  0  0  0  0  0  0  0  0
    0.1960   -2.4520   -0.6890 N   0  0  0  0  0  0  0  0  0  0  0  0
   -0.0180   -3.1270    0.5400 C   0  0  0  0  0  0  0  0  0  0  0  0
    0.5630   -4.2500    0.6630 O   0  0  0  0  0  0  0  0  0  0  0  0
   -0.7870   -2.7020    1.6210 O   0  0  0  0  0  0  0  0  0  0  0  0
   -1.7910   -1.7240    1.6290 O   0  0  0  0  0  0  0  0  0  0  0  0
   -2.0170   -0.8440    0.5210 C   0  0  0  0  0  0  0  0  0  0  0  0
   -3.2100   -0.5630    0.3590 O   0  0  0  0  0  0  0  0  0  0  0  0
  1  2  1  0
  2  3  1  0
  3  4  1  0
  4  5  2  0
  4  6  1  0
  6  7  1  6
  6 12  1  0
  6 18  1  0
  7  8  1  0
  8  9  1  0
  9 10  2  0
  9 11  1  0
 12 13  1  0
 13 14  1  0
 14 15  2  0
 14 16  1  0
 16 17  1  0
 17 18  1  0
 18 19  2  0
M  END
