
     RDKit          3D

 19 20  0  0  0  0  0  0  0  0999 V2000
    5.7610    0.1370    0.1790 O   0  0  0  0  0  0  0  0  0  0  0  0
    4.9130    1.0150    0.7040 O   0  0  0  0  0  0  0  0  0  0  0  0
    4.1260    0.3170    1.4990 O   0  0  0  0  0  0  0  0  0  0  0  0
    2.9580    0.2030    0.9530 O   0  0  0  0  0  0  0  0  0  0  0  0
    2.9520   -0.5630   -0.2120 C   0  0  0  0  0  0  0  0  0  0  0  0
    1.5320   -0.5990   -0.7200 C   0  0  1  0  0  0  0  0  0  0  0  0
    0.9150    0.7670   -0.8160 C   0  0  0  0  0  0  0  0  0  0  0  0
    0.4520    1.0990    0.4670 O   0  0  0  0  0  0  0  0  0  0  0  0
   -0.4350    2.1540    0.4120 C   0  0  0  0  0  0  0  0  0  0  0  0
   -1.8220    1.6130    0.6770 C   0  0  0  0  0  0  0  0  0  0  0  0
   -2.1750    0.7200   -0.3210 O   0  0  0  0  0  0  0  0  0  0  0  0
   -3.4920    0.3330   -0.2290 C   0  0  0  0  0  0  0  0  0  0  0  0
   -3.7210   -1.1330   -0.4110 C   0  0  0  0  0  0  0  0  0  0  0  0
   -2.6350   -1.8170   -0.9200 O   0  0  0  0  0  0  0  0  0  0  0  0
   -1.6480   -2.0500    0.0310 C   0  0  0  0  0  0  0  0  0  0  0  0
   -0.3340   -1.8140   -0.6250 C   0  0  0  0  0  0  0  0  0  0  0  0
    0.1380   -1.9230   -1.8210 N   0  0  0  0  0  0  0  0  0  0  0  0
    1.3930   -1.3460   -1.9000 O   0  0  0  0  0  0  0  0  0  0  0  0
    0.7230   -1.3540    0.1850 O   0  0  0  0  0  0  0  0  0  0  0  0
  1  2  1  0
  2  3  1  0
  3  4  1  0
  4  5  1  0
  6  5  1  1
  6  7  1  0
  6 18  1  0
  6 19  1  0
  7  8  1  0
  8  9  1  0
  9 10  1  0
 10 11  1  0
 11 12  1  0
 12 13  1  0
 13 14  1  0
 14 15  1  0
 15 16  1  0
 16 17  2  0
 16 19  1  0
 17 18  1  0
M  END
