
     RDKit          3D

 11 11  0  0  0  0  0  0  0  0999 V2000
    3.1180   -0.0580    0.2340 O   0  0  0  0  0  0  0  0  0  0  0  0
    2.0670    0.2130   -0.6420 C   0  0  0  0  0  0  0  0  0  0  0  0
    0.8410   -0.4640   -0.0750 C   0  0  2  0  0  0  0  0  0  0  0  0
    1.0270   -1.8440    0.0330 O   0  0  0  0  0  0  0  0  0  0  0  0
   -0.3620   -0.3070   -1.0030 C   0  0  0  0  0  0  0  0  0  0  0  0
   -1.5490   -0.6510   -0.0930 C   0  0  2  0  0  0  0  0  0  0  0  0
   -2.6550   -1.0250   -0.8030 O   0  0  0  0  0  0  0  0  0  0  0  0
   -1.7550    0.5690    0.7680 C   0  0  0  0  0  0  0  0  0  0  0  0
   -0.3710    1.0790    1.1540 C   0  0  2  0  0  0  0  0  0  0  0  0
    0.0210    2.1650    0.3970 O   0  0  0  0  0  0  0  0  0  0  0  0
    0.5690    0.0520    1.1680 O   0  0  0  0  0  0  0  0  0  0  0  0
  1  2  1  0
  2  3  1  0
  3  4  1  1
  3  5  1  0
  3 11  1  0
  5  6  1  0
  6  7  1  6
  6  8  1  0
  8  9  1  0
  9 10  1  6
  9 11  1  0
M  END
