
     RDKit          3D

 11 11  0  0  0  0  0  0  0  0999 V2000
    2.3980   -0.1330   -1.6720 O   0  0  0  0  0  0  0  0  0  0  0  0
    1.7170   -0.8060   -0.6580 C   0  0  0  0  0  0  0  0  0  0  0  0
    0.8770    0.1770    0.1650 C   0  0  2  0  0  0  0  0  0  0  0  0
    1.7800    1.1010    0.7030 O   0  0  0  0  0  0  0  0  0  0  0  0
    0.3030   -0.5870    1.3300 C   0  0  0  0  0  0  0  0  0  0  0  0
   -0.7260   -1.3930    0.8770 O   0  0  0  0  0  0  0  0  0  0  0  0
   -1.7980   -0.6270    0.4940 C   0  0  2  0  0  0  0  0  0  0  0  0
   -2.7900   -1.5320    0.0440 O   0  0  0  0  0  0  0  0  0  0  0  0
   -1.5230    0.3580   -0.5840 C   0  0  0  0  0  0  0  0  0  0  0  0
   -0.1350    0.8550   -0.6780 C   0  0  1  0  0  0  0  0  0  0  0  0
   -0.0960    2.2430   -0.3980 O   0  0  0  0  0  0  0  0  0  0  0  0
  1  2  1  0
  2  3  1  0
  3  4  1  1
  3  5  1  0
  3 10  1  0
  5  6  1  0
  6  7  1  0
  7  8  1  6
  7  9  1  0
  9 10  1  0
 10 11  1  1
M  END
