
     RDKit          3D

 12 12  0  0  0  0  0  0  0  0999 V2000
    3.0110    1.1620    0.2540 O   0  0  0  0  0  0  0  0  0  0  0  0
    2.0310    0.5260   -0.5280 C   0  0  0  0  0  0  0  0  0  0  0  0
    1.1600   -0.2540    0.4140 C   0  0  1  0  0  0  0  0  0  0  0  0
    0.5720    0.5820    1.3240 O   0  0  0  0  0  0  0  0  0  0  0  0
   -0.8000    0.5700    1.3360 C   0  0  1  0  0  0  0  0  0  0  0  0
   -1.2460    1.5350    2.2340 O   0  0  0  0  0  0  0  0  0  0  0  0
   -1.2730    0.8510   -0.0830 C   0  0  2  0  0  0  0  0  0  0  0  0
   -2.6360    1.1570   -0.0570 O   0  0  0  0  0  0  0  0  0  0  0  0
   -0.9800   -0.3860   -0.8950 C   0  0  1  0  0  0  0  0  0  0  0  0
   -0.7930   -0.1140   -2.2370 O   0  0  0  0  0  0  0  0  0  0  0  0
    0.1520   -1.1260   -0.2660 C   0  0  1  0  0  0  0  0  0  0  0  0
    0.7640   -1.9720   -1.1910 O   0  0  0  0  0  0  0  0  0  0  0  0
  1  2  1  0
  3  2  1  6
  3  4  1  0
  3 11  1  0
  4  5  1  0
  5  6  1  1
  5  7  1  0
  7  8  1  1
  7  9  1  0
  9 10  1  6
  9 11  1  0
 11 12  1  6
M  END
