
     RDKit          3D

 12 12  0  0  0  0  0  0  0  0999 V2000
   -2.9180   -1.6190   -1.1000 O   0  0  0  0  0  0  0  0  0  0  0  0
   -2.3830   -0.7810   -0.3300 C   0  0  0  0  0  0  0  0  0  0  0  0
   -3.1090    0.3550   -0.0190 O   0  0  0  0  0  0  0  0  0  0  0  0
   -1.0380   -0.9520    0.2470 C   0  0  1  0  0  0  0  0  0  0  0  0
    0.0390   -0.9880   -0.8290 C   0  0  0  0  0  0  0  0  0  0  0  0
    0.8650    0.2260   -0.4580 C   0  0  2  0  0  0  0  0  0  0  0  0
    1.4720    0.8200   -1.5270 O   0  0  0  0  0  0  0  0  0  0  0  0
    1.8190   -0.1980    0.6310 C   0  0  0  0  0  0  0  0  0  0  0  0
    2.7190   -1.1050    0.1060 O   0  0  0  0  0  0  0  0  0  0  0  0
   -0.2590    1.0820    0.1370 C   0  0  2  0  0  0  0  0  0  0  0  0
    0.2250    2.2240    0.7360 O   0  0  0  0  0  0  0  0  0  0  0  0
   -0.7610    0.1500    1.0450 O   0  0  0  0  0  0  0  0  0  0  0  0
  1  2  2  0
  2  3  1  0
  4  2  1  6
  4  5  1  0
  4 12  1  0
  5  6  1  0
  6  7  1  6
  6  8  1  0
  6 10  1  0
  8  9  1  0
 10 11  1  1
 10 12  1  0
M  END
