
     RDKit          3D

 12 12  0  0  0  0  0  0  0  0999 V2000
   -3.0260   -0.1040   -0.9270 O   0  0  0  0  0  0  0  0  0  0  0  0
   -2.7520   -0.0720    0.4250 C   0  0  0  0  0  0  0  0  0  0  0  0
   -1.2700   -0.1630    0.7320 C   0  0  1  0  0  0  0  0  0  0  0  0
   -0.7700   -1.3370    0.2360 O   0  0  0  0  0  0  0  0  0  0  0  0
    0.6050   -1.3980    0.1410 C   0  0  0  0  0  0  0  0  0  0  0  0
    1.2440   -0.1590   -0.3880 C   0  0  2  0  0  0  0  0  0  0  0  0
    2.0600   -0.3900   -1.4950 O   0  0  0  0  0  0  0  0  0  0  0  0
    2.0370    0.6110    0.6210 C   0  0  0  0  0  0  0  0  0  0  0  0
    1.3360    0.9050    1.7730 O   0  0  0  0  0  0  0  0  0  0  0  0
    0.1100    0.7510   -0.8720 C   0  0  1  0  0  0  0  0  0  0  0  0
   -0.5640    0.0300   -1.8540 O   0  0  0  0  0  0  0  0  0  0  0  0
   -0.6780    0.9770    0.2570 O   0  0  0  0  0  0  0  0  0  0  0  0
  1  2  1  0
  3  2  1  6
  3  4  1  0
  3 12  1  0
  4  5  1  0
  5  6  1  0
  6  7  1  6
  6  8  1  0
  6 10  1  0
  8  9  1  0
 10 11  1  6
 10 12  1  0
M  END
