
     RDKit          3D

 11 11  0  0  0  0  0  0  0  0999 V2000
    2.6940   -0.4960    0.1860 O   0  0  0  0  0  0  0  0  0  0  0  0
    1.6470    0.3820    0.5390 C   0  0  2  0  0  0  0  0  0  0  0  0
    1.2460    0.0430    1.8090 O   0  0  0  0  0  0  0  0  0  0  0  0
    0.5840    0.2160   -0.5080 C   0  0  1  0  0  0  0  0  0  0  0  0
    1.1540    0.5510   -1.7380 O   0  0  0  0  0  0  0  0  0  0  0  0
    0.1320   -1.2280   -0.4770 C   0  0  0  0  0  0  0  0  0  0  0  0
   -1.1850   -1.2010    0.2930 C   0  0  0  0  0  0  0  0  0  0  0  0
   -1.8090    0.0680   -0.2310 C   0  0  1  0  0  0  0  0  0  0  0  0
   -2.8420    0.5370    0.5530 O   0  0  0  0  0  0  0  0  0  0  0  0
   -0.6340    1.0400   -0.2840 C   0  0  1  0  0  0  0  0  0  0  0  0
   -0.5740    1.8530    0.8270 O   0  0  0  0  0  0  0  0  0  0  0  0
  2  1  1  6
  2  3  1  0
  2  4  1  0
  4  5  1  6
  4  6  1  0
  4 10  1  0
  6  7  1  0
  7  8  1  0
  8  9  1  1
  8 10  1  0
 10 11  1  1
M  END
