
     RDKit          3D

 11 11  0  0  0  0  0  0  0  0999 V2000
   -2.8890   -0.7410    0.3970 O   0  0  0  0  0  0  0  0  0  0  0  0
   -2.0990    0.0060   -0.4650 C   0  0  0  0  0  0  0  0  0  0  0  0
   -0.7100    0.2270    0.0840 C   0  0  2  0  0  0  0  0  0  0  0  0
   -0.7520    0.9070    1.2990 O   0  0  0  0  0  0  0  0  0  0  0  0
    0.0490    1.0820   -0.9110 C   0  0  0  0  0  0  0  0  0  0  0  0
    1.4540    1.2300   -0.3220 C   0  0  0  0  0  0  0  0  0  0  0  0
    2.0780   -0.1500   -0.3940 C   0  0  1  0  0  0  0  0  0  0  0  0
    2.9540   -0.3480    0.6630 O   0  0  0  0  0  0  0  0  0  0  0  0
    1.1580   -1.1510   -0.5570 O   0  0  0  0  0  0  0  0  0  0  0  0
    0.0490   -1.0690    0.2470 C   0  0  2  0  0  0  0  0  0  0  0  0
   -0.7990   -2.1350   -0.1310 O   0  0  0  0  0  0  0  0  0  0  0  0
  1  2  1  0
  2  3  1  0
  3  4  1  1
  3  5  1  0
  3 10  1  0
  5  6  1  0
  6  7  1  0
  7  8  1  1
  7  9  1  0
  9 10  1  0
 10 11  1  6
M  END
