
     RDKit          3D

 12 12  0  0  0  0  0  0  0  0999 V2000
    2.4200    1.1200    0.5440 O   0  0  0  0  0  0  0  0  0  0  0  0
    2.5040   -0.1970    0.1350 C   0  0  0  0  0  0  0  0  0  0  0  0
    1.3090   -0.5590   -0.7370 C   0  0  1  0  0  0  0  0  0  0  0  0
    1.4690   -1.9060   -1.1150 O   0  0  0  0  0  0  0  0  0  0  0  0
    0.0220   -0.4540    0.0470 C   0  0  1  0  0  0  0  0  0  0  0  0
    0.0750   -1.2090    1.2190 O   0  0  0  0  0  0  0  0  0  0  0  0
   -0.3000    0.9910    0.2560 C   0  0  0  0  0  0  0  0  0  0  0  0
   -1.6980    1.1020   -0.3090 C   0  0  2  0  0  0  0  0  0  0  0  0
   -2.4820    2.0020    0.3990 O   0  0  0  0  0  0  0  0  0  0  0  0
   -2.1750   -0.3170   -0.1790 C   0  0  2  0  0  0  0  0  0  0  0  0
   -2.2970   -0.6080    1.1750 O   0  0  0  0  0  0  0  0  0  0  0  0
   -1.0490   -0.9880   -0.6930 O   0  0  0  0  0  0  0  0  0  0  0  0
  1  2  1  0
  2  3  1  0
  3  4  1  1
  3  5  1  0
  5  6  1  1
  5  7  1  0
  5 12  1  0
  7  8  1  0
  8  9  1  1
  8 10  1  0
 10 11  1  1
 10 12  1  0
M  END
