
     RDKit          3D

 37 38  0  0  0  0  0  0  0  0999 V2000
   -3.5940    1.5300    0.2260 C   0  0  0  0  0  0  0  0  0  0  0  0
   -3.0570    1.3130    1.4080 C   0  0  0  0  0  0  0  0  0  0  0  0
   -1.7680    0.8380    1.5160 O   0  0  0  0  0  0  0  0  0  0  0  0
   -1.3940   -0.4420    1.6460 O   0  0  0  0  0  0  0  0  0  0  0  0
   -1.5130   -1.4280    0.7490 C   0  0  0  0  0  0  0  0  0  0  0  0
   -2.5180   -2.3540    0.8210 C   0  0  0  0  0  0  0  0  0  0  0  0
   -3.0000   -2.3930   -0.4440 C   0  0  0  0  0  0  0  0  0  0  0  0
   -4.6160   -2.3850   -0.9970 S   0  0  2  0  0  0  0  0  0  0  0  0
   -5.5340   -2.9830    0.0620 O   0  0  0  0  0  0  0  0  0  0  0  0
   -4.8100   -3.2620   -2.3030 C   0  0  0  0  0  0  0  0  0  0  0  0
   -4.7380   -4.0200   -3.2820 O   0  0  0  0  0  0  0  0  0  0  0  0
   -5.2160   -0.8370   -1.2940 O   0  0  0  0  0  0  0  0  0  0  0  0
   -6.4090   -0.9260   -1.9940 C   0  0  0  0  0  0  0  0  0  0  0  0
   -1.7470   -2.4520   -1.2030 C   0  0  0  0  0  0  0  0  0  0  0  0
   -0.7840   -1.8400   -0.4400 C   0  0  0  0  0  0  0  0  0  0  0  0
    0.5760   -1.6610   -0.8610 C   0  0  0  0  0  0  0  0  0  0  0  0
    0.7290   -2.2640   -2.6470 Cl  0  0  0  0  0  0  0  0  0  0  0  0
    1.6810   -1.2240   -0.4550 C   0  0  0  0  0  0  0  0  0  0  0  0
    2.6750   -1.3930   -1.5660 F   0  0  0  0  0  0  0  0  0  0  0  0
    2.4270   -0.6540    0.6650 C   0  0  1  0  0  0  0  0  0  0  0  0
    3.5260   -1.3610    1.0110 O   0  0  0  0  0  0  0  0  0  0  0  0
    4.6350   -1.5740    0.3550 C   0  0  0  0  0  0  0  0  0  0  0  0
    5.6380   -0.5000    0.1940 C   0  0  0  0  0  0  0  0  0  0  0  0
    5.5680    0.5400    0.8660 O   0  0  0  0  0  0  0  0  0  0  0  0
    6.6690   -0.6510   -0.7160 O   0  0  0  0  0  0  0  0  0  0  0  0
    2.8050    0.7580    0.2670 C   0  0  0  0  0  0  0  0  0  0  0  0
    2.6490    1.8180    0.9920 C   0  0  0  0  0  0  0  0  0  0  0  0
    3.1300    2.9280    0.2510 O   0  0  0  0  0  0  0  0  0  0  0  0
    3.1300    2.5190   -1.0910 N   0  0  0  0  0  0  0  0  0  0  0  0
    4.0700    3.1750   -1.7460 O   0  0  0  0  0  0  0  0  0  0  0  0
    5.3700    2.8260   -1.4000 C   0  0  0  0  0  0  0  0  0  0  0  0
    3.3810    1.1500   -0.9500 O   0  0  0  0  0  0  0  0  0  0  0  0
    1.6360   -0.5000    1.9350 C   0  0  2  0  0  0  0  0  0  0  0  0
    2.5200    0.0100    2.9180 F   0  0  0  0  0  0  0  0  0  0  0  0
    1.1630   -1.6690    2.4090 F   0  0  0  0  0  0  0  0  0  0  0  0
   -4.0180    1.6430    2.9140 P   0  0  0  0  0  0  0  0  0  0  0  0
   -3.8040    3.7320    3.5710 P   0  0  0  0  0  0  0  0  0  0  0  0
  1  2  2  0
  2  3  1  0
  2 36  1  0
  3  4  1  0
  4  5  1  0
  5  6  2  0
  5 15  1  0
  6  7  2  0
  7  8  1  0
  7 14  1  0
  8  9  2  0
  8 10  2  0
  8 12  1  6
 10 11  2  0
 12 13  1  0
 14 15  2  0
 15 16  1  0
 16 17  1  0
 16 18  2  3
 18 19  1  0
 18 20  1  0
 20 21  1  1
 20 26  1  0
 20 33  1  0
 21 22  1  0
 22 23  1  0
 23 24  2  0
 23 25  1  0
 26 27  2  0
 26 32  1  0
 27 28  1  0
 28 29  1  0
 29 30  1  0
 29 32  1  0
 30 31  1  0
 33 34  1  1
 33 35  1  0
 36 37  1  0
M  END
