
     RDKit          3D

 36 38  0  0  0  0  0  0  0  0999 V2000
   -4.7660    3.8440   -0.5130 N   0  0  0  0  0  0  0  0  0  0  0  0
   -3.8030    2.8690   -0.8480 C   0  0  0  0  0  0  0  0  0  0  0  0
   -3.0690    3.0100   -1.8730 O   0  0  0  0  0  0  0  0  0  0  0  0
   -3.6960    1.7640   -0.0170 O   0  0  0  0  0  0  0  0  0  0  0  0
   -2.7380    0.7340   -0.2950 C   0  0  2  0  0  0  0  0  0  0  0  0
   -3.5470   -0.4050   -0.5560 O   0  0  0  0  0  0  0  0  0  0  0  0
   -2.5540   -1.3530   -1.6560 P   0  0  0  0  0  0  0  0  0  0  0  0
   -2.8880   -3.0440   -1.5390 O   0  0  0  0  0  0  0  0  0  0  0  0
   -4.0780   -3.6000   -1.1260 C   0  0  0  0  0  0  0  0  0  0  0  0
   -5.0070   -2.8310   -0.8040 O   0  0  0  0  0  0  0  0  0  0  0  0
   -4.1690   -4.9850   -1.0930 O   0  0  0  0  0  0  0  0  0  0  0  0
   -0.4790   -0.9230   -0.9820 P   0  0  0  0  0  0  0  0  0  0  0  0
    0.3650   -2.7880   -0.0460 P   0  0  0  0  0  0  0  0  0  0  0  0
    1.9090   -3.1350   -0.6780 O   0  0  0  0  0  0  0  0  0  0  0  0
    2.7550   -3.2680    0.3440 O   0  0  0  0  0  0  0  0  0  0  0  0
    3.8190   -3.9400    0.0240 O   0  0  0  0  0  0  0  0  0  0  0  0
    4.6990   -3.1150   -0.4880 O   0  0  0  0  0  0  0  0  0  0  0  0
    5.5560   -2.6780    0.3940 O   0  0  0  0  0  0  0  0  0  0  0  0
    5.5720   -1.2680    0.4470 C   0  0  0  0  0  0  0  0  0  0  0  0
    4.8330   -0.7990   -0.7530 C   0  0  0  0  0  0  0  0  0  0  0  0
    5.4760   -0.7530   -1.8340 O   0  0  0  0  0  0  0  0  0  0  0  0
    3.4820   -0.4100   -0.7640 N   0  0  0  0  0  0  0  0  0  0  0  0
    2.8520    0.2940    0.3510 C   0  0  0  0  0  0  0  0  0  0  0  0
    1.5540    0.8200   -0.0470 N   0  0  0  0  0  0  0  0  0  0  0  0
    1.8250    2.2140   -0.4380 C   0  0  1  0  0  0  0  0  0  0  0  0
    2.3540    2.9440    0.6140 O   0  0  0  0  0  0  0  0  0  0  0  0
    2.8430    2.1290   -1.4140 O   0  0  0  0  0  0  0  0  0  0  0  0
    0.3450    3.0520   -1.1280 P   0  0  0  0  0  0  0  0  0  0  0  0
    0.5740    0.7700    0.9910 C   0  0  0  0  0  0  0  0  0  0  0  0
   -0.5910   -0.1340    0.7380 C   0  0  2  0  0  0  0  0  0  0  0  0
   -0.5980   -1.2260    1.6060 O   0  0  0  0  0  0  0  0  0  0  0  0
    0.4670   -1.9330    1.5010 O   0  0  0  0  0  0  0  0  0  0  0  0
   -1.9110    0.5710    0.9310 C   0  0  1  0  0  0  0  0  0  0  0  0
   -1.6890    1.8500    1.4920 O   0  0  0  0  0  0  0  0  0  0  0  0
   -2.7930   -0.1580    1.9570 C   0  0  0  0  0  0  0  0  0  0  0  0
   -3.0490   -1.4520    1.4460 O   0  0  0  0  0  0  0  0  0  0  0  0
  1  2  1  0
  2  3  2  0
  2  4  1  0
  5  4  1  1
  5  6  1  0
  5 33  1  0
  6  7  1  0
  7  8  1  0
  7 12  1  0
  8  9  1  0
  9 10  2  0
  9 11  1  0
 12 13  1  0
 12 30  1  0
 13 14  1  0
 13 32  1  0
 14 15  1  0
 15 16  1  0
 16 17  1  0
 17 18  1  0
 18 19  1  0
 19 20  1  0
 20 21  2  0
 20 22  1  0
 22 23  1  0
 23 24  1  0
 24 25  1  0
 24 29  1  0
 25 26  1  1
 25 27  1  0
 25 28  1  0
 30 29  1  1
 30 31  1  0
 30 33  1  0
 31 32  1  0
 33 34  1  1
 33 35  1  0
 35 36  1  0
M  END
