
     RDKit          3D

 37 39  0  0  0  0  0  0  0  0999 V2000
    6.8210    2.2300    0.3990 C   0  0  0  0  0  0  0  0  0  0  0  0
    6.2090    1.6370   -1.2490 P   0  0  0  0  0  0  0  0  0  0  0  0
    4.5450    1.2270   -1.2170 O   0  0  0  0  0  0  0  0  0  0  0  0
    3.9860    1.4160   -0.0170 O   0  0  0  0  0  0  0  0  0  0  0  0
    2.5900    1.6860    0.0810 C   0  0  0  0  0  0  0  0  0  0  0  0
    2.2430    3.1100    0.0950 C   0  0  0  0  0  0  0  0  0  0  0  0
    1.7290    0.7340    0.1520 C   0  0  0  0  0  0  0  0  0  0  0  0
    0.4140    0.7800    0.2460 O   0  0  0  0  0  0  0  0  0  0  0  0
   -0.5900   -0.2000    0.4040 C   0  0  0  0  0  0  0  0  0  0  0  0
   -1.8040    0.2880    0.4320 C   0  0  0  0  0  0  0  0  0  0  0  0
   -3.4080   -0.2930    0.5830 Cl  0  0  0  0  0  0  0  0  0  0  0  0
   -1.9190    1.8390    0.2350 C   0  0  1  0  0  0  0  0  0  0  0  0
   -2.5960    2.2870    1.5130 C   0  0  0  0  0  0  0  0  0  0  0  0
   -0.7260    2.4010   -0.0260 O   0  0  0  0  0  0  0  0  0  0  0  0
   -2.8240    1.9830   -0.9690 C   0  0  1  0  0  0  0  0  0  0  0  0
   -2.3090    1.4690   -2.1260 F   0  0  0  0  0  0  0  0  0  0  0  0
   -4.1650    1.4070   -0.7320 O   0  0  0  0  0  0  0  0  0  0  0  0
   -4.0200    2.7670   -1.0030 C   0  0  1  0  0  0  0  0  0  0  0  0
   -4.3800    3.6910   -0.0410 O   0  0  0  0  0  0  0  0  0  0  0  0
   -5.0760    4.6950   -0.5120 O   0  0  0  0  0  0  0  0  0  0  0  0
   -0.2060   -1.5740    0.4860 C   0  0  0  0  0  0  0  0  0  0  0  0
   -1.0970   -2.7320    0.6070 C   0  0  0  0  0  0  0  0  0  0  0  0
   -2.3570   -2.8090    0.9080 C   0  0  0  0  0  0  0  0  0  0  0  0
   -3.0990   -4.0800    0.9670 C   0  0  0  0  0  0  0  0  0  0  0  0
   -4.1890   -4.1300    1.5860 O   0  0  0  0  0  0  0  0  0  0  0  0
   -2.5760   -5.2660    0.3170 C   0  0  1  0  0  0  0  0  0  0  0  0
   -2.6450   -6.3710    1.1690 F   0  0  0  0  0  0  0  0  0  0  0  0
   -3.5610   -5.6080   -1.2340 P   0  0  0  0  0  0  0  0  0  0  0  0
   -5.0450   -6.0510   -1.0370 O   0  0  0  0  0  0  0  0  0  0  0  0
   -1.1460   -5.0890    0.0100 C   0  0  0  0  0  0  0  0  0  0  0  0
   -0.5570   -4.0010    0.1450 N   0  0  0  0  0  0  0  0  0  0  0  0
    1.0850   -1.9670    0.3780 C   0  0  0  0  0  0  0  0  0  0  0  0
    1.4270   -3.3350    0.4710 O   0  0  0  0  0  0  0  0  0  0  0  0
    1.8040   -3.7360    1.7060 F   0  0  0  0  0  0  0  0  0  0  0  0
    2.4290   -0.9110    0.1220 S   0  0  1  0  0  0  0  0  0  0  0  0
    3.1850   -1.2510   -1.4260 C   0  0  0  0  0  0  0  0  0  0  0  0
    4.2340   -1.8460   -1.4770 O   0  0  0  0  0  0  0  0  0  0  0  0
  1  2  1  0
  2  3  1  0
  3  4  1  0
  4  5  1  0
  5  6  1  0
  5  7  2  3
  7  8  1  0
  7 35  1  0
  8  9  1  0
  9 10  2  3
  9 21  1  0
 10 11  1  0
 10 12  1  0
 12 13  1  1
 12 14  1  0
 12 15  1  0
 15 16  1  6
 15 17  1  0
 15 18  1  0
 17 18  1  0
 18 19  1  1
 19 20  1  0
 21 22  1  0
 21 32  2  0
 22 23  2  0
 22 31  1  0
 23 24  1  0
 24 25  2  0
 24 26  1  0
 26 27  1  1
 26 28  1  0
 26 30  1  0
 28 29  2  0
 30 31  2  0
 32 33  1  0
 32 35  1  0
 33 34  1  0
 35 36  1  6
 36 37  2  0
M  END
