
     RDKit          3D

 37 38  0  0  0  0  0  0  0  0999 V2000
    6.2260   -3.7320    0.0620 C   0  0  0  0  0  0  0  0  0  0  0  0
    6.4280   -2.4390   -0.0370 C   0  0  0  0  0  0  0  0  0  0  0  0
    5.5640   -1.5950   -0.9090 C   0  0  0  0  0  0  0  0  0  0  0  0
    4.7470   -0.3220    0.1510 P   0  0  0  0  0  0  0  0  0  0  0  0
    5.4560   -0.2780    1.8660 C   0  0  0  0  0  0  0  0  0  0  0  0
    3.0220   -0.5690    0.2670 O   0  0  0  0  0  0  0  0  0  0  0  0
    2.1850    0.4840   -0.1590 C   0  0  0  0  0  0  0  0  0  0  0  0
    0.9370    0.5720    0.2570 C   0  0  0  0  0  0  0  0  0  0  0  0
    0.4750   -0.3940    1.1230 O   0  0  0  0  0  0  0  0  0  0  0  0
   -0.7900   -0.0030    2.3270 P   0  0  0  0  0  0  0  0  0  0  0  0
   -1.6730   -1.4350    2.7500 O   0  0  0  0  0  0  0  0  0  0  0  0
   -1.9420    1.1410    1.4910 C   0  0  0  0  0  0  0  0  0  0  0  0
   -2.9290    1.7750    2.1300 O   0  0  0  0  0  0  0  0  0  0  0  0
   -3.5130    2.9370    1.7830 F   0  0  0  0  0  0  0  0  0  0  0  0
   -1.6620    1.3100   -0.0570 S   0  0  2  0  0  0  0  0  0  0  0  0
   -2.4910    2.4340   -0.6350 O   0  0  0  0  0  0  0  0  0  0  0  0
   -2.1040   -0.2190   -0.8320 C   0  0  2  0  0  0  0  0  0  0  0  0
   -3.5330   -0.5160   -0.6980 N   0  0  0  0  0  0  0  0  0  0  0  0
   -4.4040    0.5140   -0.6860 O   0  0  0  0  0  0  0  0  0  0  0  0
   -5.1680    0.4470    0.3860 F   0  0  0  0  0  0  0  0  0  0  0  0
   -4.0330   -1.8330   -0.5830 C   0  0  0  0  0  0  0  0  0  0  0  0
   -3.4500   -2.8000   -1.2510 C   0  0  0  0  0  0  0  0  0  0  0  0
   -2.6600   -3.6960   -1.6100 O   0  0  0  0  0  0  0  0  0  0  0  0
   -5.2000   -2.1870    0.2650 C   0  0  0  0  0  0  0  0  0  0  0  0
   -5.5220   -3.6470    0.2110 C   0  0  0  0  0  0  0  0  0  0  0  0
   -1.2410   -1.3210   -0.6160 O   0  0  0  0  0  0  0  0  0  0  0  0
   -1.3860   -0.7560   -1.9680 C   0  0  0  0  0  0  0  0  0  0  0  0
   -1.0540   -0.8120   -3.1680 O   0  0  0  0  0  0  0  0  0  0  0  0
    0.0660    1.6750   -0.1910 C   0  0  1  0  0  0  0  0  0  0  0  0
    0.3960    2.7800    0.8230 C   0  0  0  0  0  0  0  0  0  0  0  0
    1.4900    3.3170    0.8170 O   0  0  0  0  0  0  0  0  0  0  0  0
    0.4280    2.1860   -1.5270 C   0  0  0  0  0  0  0  0  0  0  0  0
    0.9630    1.2370   -2.3780 F   0  0  0  0  0  0  0  0  0  0  0  0
    0.2610    3.3890   -1.9980 C   0  0  0  0  0  0  0  0  0  0  0  0
   -0.3240    4.5670   -1.3670 C   0  0  0  0  0  0  0  0  0  0  0  0
   -1.4520    5.0360   -2.0990 O   0  0  0  0  0  0  0  0  0  0  0  0
   -2.0060    6.4100   -1.2220 Cl  0  0  0  0  0  0  0  0  0  0  0  0
  1  2  2  0
  2  3  1  0
  3  4  1  0
  4  5  1  0
  4  6  1  0
  6  7  1  0
  7  8  2  3
  8  9  1  0
  8 29  1  0
  9 10  1  0
 10 11  1  0
 10 12  1  0
 12 13  1  0
 12 15  2  0
 13 14  1  0
 15 16  2  0
 15 17  1  6
 15 29  1  0
 17 18  1  6
 17 26  1  0
 17 27  1  0
 18 19  1  0
 18 21  1  0
 19 20  1  0
 21 22  2  0
 21 24  1  0
 22 23  2  0
 24 25  1  0
 26 27  1  0
 27 28  2  0
 29 30  1  1
 29 32  1  0
 30 31  2  0
 32 33  1  0
 32 34  2  3
 34 35  1  0
 35 36  1  0
 36 37  1  0
M  END
