
     RDKit          3D

 37 39  0  0  0  0  0  0  0  0999 V2000
    3.1310   -1.0280    3.2900 O   0  0  0  0  0  0  0  0  0  0  0  0
    2.3000   -0.6040    2.4810 C   0  0  0  0  0  0  0  0  0  0  0  0
    2.5330   -0.6990    1.0260 C   0  0  2  0  0  0  0  0  0  0  0  0
    1.4450   -0.2220    0.3340 O   0  0  0  0  0  0  0  0  0  0  0  0
    0.3490   -0.9920    0.5840 C   0  0  0  0  0  0  0  0  0  0  0  0
   -0.8920   -0.5290   -0.1560 C   0  0  2  0  0  0  0  0  0  0  0  0
   -0.5760   -0.5820   -2.0060 P   0  0  0  0  0  0  0  0  0  0  0  0
   -0.5650    0.6880   -2.8750 O   0  0  0  0  0  0  0  0  0  0  0  0
   -1.2840    0.8360    0.2440 C   0  0  0  0  0  0  0  0  0  0  0  0
   -0.5940    1.4650    1.0040 O   0  0  0  0  0  0  0  0  0  0  0  0
   -2.5270    1.4190   -0.2950 C   0  0  0  0  0  0  0  0  0  0  0  0
   -3.6280    0.4500   -0.0880 C   0  0  0  0  0  0  0  0  0  0  0  0
   -4.8620    0.9250   -0.0380 C   0  0  0  0  0  0  0  0  0  0  0  0
   -5.0860    2.3090   -0.1800 O   0  0  0  0  0  0  0  0  0  0  0  0
   -6.3040    2.6960   -0.7840 C   0  0  0  0  0  0  0  0  0  0  0  0
   -6.4230    2.1930   -2.0780 O   0  0  0  0  0  0  0  0  0  0  0  0
   -5.8990    0.0520    0.1520 O   0  0  0  0  0  0  0  0  0  0  0  0
   -5.6960   -1.2520    0.5950 C   0  0  0  0  0  0  0  0  0  0  0  0
   -4.4320   -1.8970    0.0800 C   0  0  0  0  0  0  0  0  0  0  0  0
   -3.3270   -0.9260    0.0460 N   0  0  0  0  0  0  0  0  0  0  0  0
   -1.9980   -1.4820    0.1550 C   0  0  1  0  0  0  0  0  0  0  0  0
   -1.9060   -2.6420   -0.6200 F   0  0  0  0  0  0  0  0  0  0  0  0
    2.7440   -2.1320    0.6820 C   0  0  0  0  0  0  0  0  0  0  0  0
    2.4980   -3.3100    1.9470 Cl  0  0  0  0  0  0  0  0  0  0  0  0
    3.1020   -2.6620   -0.4740 C   0  0  0  0  0  0  0  0  0  0  0  0
    3.3590   -1.9210   -1.6450 O   0  0  0  0  0  0  0  0  0  0  0  0
    3.8540   -0.6160   -1.7090 C   0  0  0  0  0  0  0  0  0  0  0  0
    4.1730   -0.2030   -2.9880 O   0  0  0  0  0  0  0  0  0  0  0  0
    5.8450   -0.4740   -3.5230 P   0  0  0  0  0  0  0  0  0  0  0  0
    4.0410    0.2310   -0.7100 C   0  0  0  0  0  0  0  0  0  0  0  0
    3.7980    0.0790    0.7330 C   0  0  2  0  0  0  0  0  0  0  0  0
    4.8590   -0.6490    1.2740 O   0  0  0  0  0  0  0  0  0  0  0  0
    3.7880    1.3130    1.3330 O   0  0  0  0  0  0  0  0  0  0  0  0
    4.9130    1.9270    1.0350 O   0  0  0  0  0  0  0  0  0  0  0  0
    4.7430    3.2970    0.9010 C   0  0  1  0  0  0  0  0  0  0  0  0
    5.4760    3.9370    1.8790 F   0  0  0  0  0  0  0  0  0  0  0  0
    5.0730    3.7600   -0.3560 F   0  0  0  0  0  0  0  0  0  0  0  0
  1  2  2  0
  2  3  1  0
  3  4  1  6
  3 23  1  0
  3 31  1  0
  4  5  1  0
  6  5  1  1
  6  7  1  0
  6  9  1  0
  6 21  1  0
  7  8  2  0
  9 10  2  0
  9 11  1  0
 11 12  1  0
 12 13  2  0
 12 20  1  0
 13 14  1  0
 13 17  1  0
 14 15  1  0
 15 16  1  0
 17 18  1  0
 18 19  1  0
 19 20  1  0
 20 21  1  0
 21 22  1  6
 23 24  1  0
 23 25  2  0
 25 26  1  0
 26 27  1  0
 27 28  1  0
 27 30  2  0
 28 29  1  0
 30 31  1  0
 31 32  1  1
 31 33  1  0
 33 34  1  0
 34 35  1  0
 35 36  1  1
 35 37  1  0
M  END
