
     RDKit          3D

 37 37  0  0  0  0  0  0  0  0999 V2000
   -3.1980   -4.0710    0.0280 C   0  0  0  0  0  0  0  0  0  0  0  0
   -2.5480   -2.8230    0.5260 C   0  0  2  0  0  0  0  0  0  0  0  0
   -2.9290   -1.6000   -0.3300 C   0  0  0  0  0  0  0  0  0  0  0  0
   -2.4660   -0.3610    0.4600 C   0  0  2  0  0  0  0  0  0  0  0  0
   -3.1290    0.8620   -0.0530 C   0  0  2  0  0  0  0  0  0  0  0  0
   -2.8370    1.2740   -1.4670 C   0  0  0  0  0  0  0  0  0  0  0  0
   -2.6060    0.2140   -2.3030 O   0  0  0  0  0  0  0  0  0  0  0  0
   -2.2730    0.7270   -3.9160 P   0  0  0  0  0  0  0  0  0  0  0  0
   -3.3850    1.8600    0.8500 N   0  0  0  0  0  0  0  0  0  0  0  0
   -2.5430    2.6540    1.5790 C   0  0  0  0  0  0  0  0  0  0  0  0
   -5.1030    2.1030    1.3210 P   0  0  0  0  0  0  0  0  0  0  0  0
   -1.0050   -0.3780    0.6580 C   0  0  2  0  0  0  0  0  0  0  0  0
   -0.5410   -0.6010    2.0870 C   0  0  0  0  0  0  0  0  0  0  0  0
   -0.7420    0.4710    2.9200 O   0  0  0  0  0  0  0  0  0  0  0  0
   -0.3340    0.7000    0.1210 O   0  0  0  0  0  0  0  0  0  0  0  0
    0.9630    1.0350    0.1110 C   0  0  0  0  0  0  0  0  0  0  0  0
    1.9620    0.1830    0.5310 O   0  0  0  0  0  0  0  0  0  0  0  0
    3.1740   -0.0020   -0.0890 C   0  0  0  0  0  0  0  0  0  0  0  0
    3.2460    0.0120   -1.3980 C   0  0  0  0  0  0  0  0  0  0  0  0
    2.1300    0.2060   -2.1290 F   0  0  0  0  0  0  0  0  0  0  0  0
    4.4480   -0.1700   -2.0600 O   0  0  0  0  0  0  0  0  0  0  0  0
    4.6890   -1.1850   -2.9030 F   0  0  0  0  0  0  0  0  0  0  0  0
    4.3900   -0.2140    0.6810 C   0  0  0  0  0  0  0  0  0  0  0  0
    5.6040   -0.3990    0.0590 O   0  0  0  0  0  0  0  0  0  0  0  0
    6.7240    0.3070    0.3760 O   0  0  0  0  0  0  0  0  0  0  0  0
    7.9710   -0.2790    0.1920 C   0  0  0  0  0  0  0  0  0  0  0  0
    8.0960   -1.4540   -0.2640 O   0  0  0  0  0  0  0  0  0  0  0  0
    9.0840    0.4690    0.5260 O   0  0  0  0  0  0  0  0  0  0  0  0
    4.3310   -0.2300    1.9980 C   0  0  0  0  0  0  0  0  0  0  0  0
    3.1450   -0.0510    2.6390 F   0  0  0  0  0  0  0  0  0  0  0  0
    5.7900   -0.4850    2.9190 Cl  0  0  0  0  0  0  0  0  0  0  0  0
    1.3490    2.2330   -0.3150 C   0  0  0  0  0  0  0  0  0  0  0  0
    2.6970    2.6040   -0.3350 O   0  0  0  0  0  0  0  0  0  0  0  0
    0.3680    3.1270   -0.7490 O   0  0  0  0  0  0  0  0  0  0  0  0
   -0.4210   -1.6100   -0.0800 C   0  0  0  0  0  0  0  0  0  0  0  0
   -1.0460   -2.8720    0.3790 C   0  0  0  0  0  0  0  0  0  0  0  0
   -0.4060   -3.8590    0.6150 O   0  0  0  0  0  0  0  0  0  0  0  0
  2  1  1  6
  2  3  1  0
  2 36  1  0
  4  3  1  6
  4  5  1  0
  4 12  1  0
  5  6  1  6
  5  9  1  0
  6  7  1  0
  7  8  1  0
  9 10  1  0
  9 11  1  0
 12 13  1  1
 12 15  1  0
 12 35  1  0
 13 14  1  0
 15 16  1  0
 16 17  1  0
 16 32  2  3
 17 18  1  0
 18 19  2  3
 18 23  1  0
 19 20  1  0
 19 21  1  0
 21 22  1  0
 23 24  1  0
 23 29  2  3
 24 25  1  0
 25 26  1  0
 26 27  2  0
 26 28  1  0
 29 30  1  0
 29 31  1  0
 32 33  1  0
 32 34  1  0
 35 36  1  0
 36 37  2  0
M  END
