
     RDKit          3D

 36 38  0  0  0  0  0  0  0  0999 V2000
    3.1450    1.2070   -2.0930 C   0  0  0  0  0  0  0  0  0  0  0  0
    1.8930    0.8560   -1.5200 O   0  0  0  0  0  0  0  0  0  0  0  0
    1.8120   -0.3430   -0.8660 C   0  0  0  0  0  0  0  0  0  0  0  0
    2.8250   -1.0970   -0.7850 O   0  0  0  0  0  0  0  0  0  0  0  0
    0.5710   -0.8560   -0.2120 C   0  0  2  0  0  0  0  0  0  0  0  0
   -0.5290    0.0740   -0.3610 N   0  0  0  0  0  0  0  0  0  0  0  0
   -2.0220   -0.4690    0.3870 P   0  0  0  0  0  0  0  0  0  0  0  0
   -3.3100   -0.8800   -0.8460 C   0  0  0  0  0  0  0  0  0  0  0  0
   -3.6590   -2.0660   -0.9890 O   0  0  0  0  0  0  0  0  0  0  0  0
   -3.8590    0.1360   -1.5840 O   0  0  0  0  0  0  0  0  0  0  0  0
   -2.6420    0.5250    1.7690 C   0  0  1  0  0  0  0  0  0  0  0  0
   -2.6840   -0.2140    3.0410 N   0  0  0  0  0  0  0  0  0  0  0  0
   -3.7250   -1.6390    2.9670 P   0  0  0  0  0  0  0  0  0  0  0  0
   -2.0120    1.7350    2.0090 O   0  0  0  0  0  0  0  0  0  0  0  0
   -0.7690    2.1490    1.6670 C   0  0  0  0  0  0  0  0  0  0  0  0
   -0.0660    2.8120    2.4610 O   0  0  0  0  0  0  0  0  0  0  0  0
   -0.0830    1.7450    0.0220 P   0  0  0  0  0  0  0  0  0  0  0  0
   -0.7790    2.9680   -1.1860 C   0  0  1  0  0  0  0  0  0  0  0  0
   -0.3330    4.2490   -0.8720 O   0  0  0  0  0  0  0  0  0  0  0  0
   -0.6370    2.6180   -2.6270 C   0  0  0  0  0  0  0  0  0  0  0  0
   -2.0180    2.9220   -2.6430 O   0  0  0  0  0  0  0  0  0  0  0  0
   -2.1630    2.9390   -1.3190 O   0  0  0  0  0  0  0  0  0  0  0  0
    0.8980   -1.0250    1.2540 C   0  0  2  0  0  0  0  0  0  0  0  0
    2.4870   -0.1210    1.6890 P   0  0  0  0  0  0  0  0  0  0  0  0
    3.8280   -1.2020    1.7010 O   0  0  0  0  0  0  0  0  0  0  0  0
    2.3270    0.7730    3.1460 O   0  0  0  0  0  0  0  0  0  0  0  0
    3.1450    1.8080    3.0950 O   0  0  0  0  0  0  0  0  0  0  0  0
    3.8550    1.8260    1.9890 O   0  0  0  0  0  0  0  0  0  0  0  0
    1.0630   -2.3390    1.6340 O   0  0  0  0  0  0  0  0  0  0  0  0
   -0.1240   -2.9580    1.4040 O   0  0  0  0  0  0  0  0  0  0  0  0
   -0.4410   -3.0970    0.0410 C   0  0  0  0  0  0  0  0  0  0  0  0
   -1.2780   -3.9440   -0.3520 O   0  0  0  0  0  0  0  0  0  0  0  0
    0.2770   -2.1820   -0.8830 C   0  0  2  0  0  0  0  0  0  0  0  0
    1.5350   -2.8260   -1.2930 N   0  0  0  0  0  0  0  0  0  0  0  0
   -0.4620   -2.0120   -2.0440 O   0  0  0  0  0  0  0  0  0  0  0  0
    0.1520   -1.2790   -2.9160 O   0  0  0  0  0  0  0  0  0  0  0  0
  1  2  1  0
  2  3  1  0
  3  4  2  0
  3  5  1  0
  5  6  1  1
  5 23  1  0
  5 33  1  0
  6  7  1  0
  6 17  1  0
  7  8  1  0
  7 11  1  0
  8  9  2  0
  8 10  1  0
 11 12  1  1
 11 14  1  0
 12 13  1  0
 14 15  1  0
 15 16  2  0
 15 17  1  0
 17 18  1  0
 18 19  1  6
 18 20  1  0
 18 22  1  0
 20 21  1  0
 21 22  1  0
 23 24  1  6
 23 29  1  0
 24 25  1  0
 24 26  1  0
 26 27  1  0
 27 28  1  0
 29 30  1  0
 30 31  1  0
 31 32  2  0
 31 33  1  0
 33 34  1  6
 33 35  1  0
 35 36  1  0
M  END
