
     RDKit          3D

 37 39  0  0  0  0  0  0  0  0999 V2000
    0.0020   -5.1060    0.4240 C   0  0  0  0  0  0  0  0  0  0  0  0
   -0.5650   -3.9660   -0.4910 C   0  0  1  0  0  0  0  0  0  0  0  0
   -1.9290   -3.7440   -0.0300 C   0  0  0  0  0  0  0  0  0  0  0  0
    0.4560   -2.9230   -0.5960 C   0  0  0  0  0  0  0  0  0  0  0  0
    0.3240   -1.7090   -1.3540 C   0  0  2  0  0  0  0  0  0  0  0  0
    1.5810   -0.9190   -1.3930 N   0  0  0  0  0  0  0  0  0  0  0  0
    2.1490   -0.4140    0.1100 P   0  0  0  0  0  0  0  0  0  0  0  0
    1.1120   -0.6570    1.4530 O   0  0  0  0  0  0  0  0  0  0  0  0
    1.5110    0.9880    0.0330 O   0  0  0  0  0  0  0  0  0  0  0  0
    3.6400    0.1290    0.3310 O   0  0  0  0  0  0  0  0  0  0  0  0
    4.4710   -0.3780    1.2730 C   0  0  2  0  0  0  0  0  0  0  0  0
    4.9420    0.6890    2.0610 O   0  0  0  0  0  0  0  0  0  0  0  0
    5.2050    1.7750    1.2270 C   0  0  1  0  0  0  0  0  0  0  0  0
    5.4200    3.0250    2.0500 C   0  0  0  0  0  0  0  0  0  0  0  0
    6.4020    1.4460    0.3600 C   0  0  2  0  0  0  0  0  0  0  0  0
    6.7980    2.5320   -0.4090 O   0  0  0  0  0  0  0  0  0  0  0  0
    6.0410    0.2420   -0.4650 C   0  0  1  0  0  0  0  0  0  0  0  0
    7.0040   -0.1280   -1.3760 O   0  0  0  0  0  0  0  0  0  0  0  0
    5.7250   -0.8810    0.5340 C   0  0  1  0  0  0  0  0  0  0  0  0
    6.8160   -0.9370    1.4010 O   0  0  0  0  0  0  0  0  0  0  0  0
   -0.6920   -0.6920   -1.1980 C   0  0  0  0  0  0  0  0  0  0  0  0
   -0.5480    0.3000   -2.0660 O   0  0  0  0  0  0  0  0  0  0  0  0
   -1.7660   -0.5200   -0.3500 N   0  0  0  0  0  0  0  0  0  0  0  0
   -2.6650    0.6670   -0.4630 C   0  0  1  0  0  0  0  0  0  0  0  0
   -3.9780    0.1330   -0.9580 C   0  0  0  0  0  0  0  0  0  0  0  0
   -5.0290    1.1480   -1.1200 C   0  0  0  0  0  0  0  0  0  0  0  0
   -5.3260    1.8700   -2.2920 C   0  0  0  0  0  0  0  0  0  0  0  0
   -6.3240    2.7330   -2.0600 N   0  0  0  0  0  0  0  0  0  0  0  0
   -6.7240    2.6280   -0.7700 C   0  0  0  0  0  0  0  0  0  0  0  0
   -7.7200    3.2870   -0.0660 C   0  0  0  0  0  0  0  0  0  0  0  0
   -7.9040    2.9390    1.2510 C   0  0  0  0  0  0  0  0  0  0  0  0
   -7.1110    1.9570    1.8500 C   0  0  0  0  0  0  0  0  0  0  0  0
   -6.1400    1.3260    1.1390 C   0  0  0  0  0  0  0  0  0  0  0  0
   -5.9270    1.6490   -0.1850 C   0  0  0  0  0  0  0  0  0  0  0  0
   -2.6950    1.4000    0.7850 C   0  0  0  0  0  0  0  0  0  0  0  0
   -2.1130    0.9080    1.7940 O   0  0  0  0  0  0  0  0  0  0  0  0
   -3.3360    2.6240    0.9090 O   0  0  0  0  0  0  0  0  0  0  0  0
  2  1  1  1
  2  3  1  0
  2  4  1  0
  5  4  1  1
  5  6  1  0
  5 21  1  0
  6  7  1  0
  7  8  1  0
  7  9  1  0
  7 10  1  0
 11 10  1  6
 11 12  1  0
 11 19  1  0
 12 13  1  0
 13 14  1  1
 13 15  1  0
 15 16  1  6
 15 17  1  0
 17 18  1  6
 17 19  1  0
 19 20  1  1
 21 22  2  0
 21 23  1  0
 23 24  1  0
 24 25  1  1
 24 35  1  0
 25 26  1  0
 26 27  2  0
 26 34  1  0
 27 28  1  0
 28 29  1  0
 29 30  2  0
 29 34  1  0
 30 31  1  0
 31 32  2  0
 32 33  1  0
 33 34  2  0
 35 36  2  0
 35 37  1  0
M  END
