
     RDKit          3D

 37 37  0  0  0  0  0  0  0  0999 V2000
   -8.1090    3.1470    1.2080 N   0  0  0  0  0  0  0  0  0  0  0  0
   -6.8730    3.0960    0.4920 C   0  0  0  0  0  0  0  0  0  0  0  0
   -5.9480    2.2230    0.8190 C   0  0  0  0  0  0  0  0  0  0  0  0
   -4.7040    2.1720    0.0970 C   0  0  0  0  0  0  0  0  0  0  0  0
   -3.7120    1.3410    0.3380 C   0  0  0  0  0  0  0  0  0  0  0  0
   -3.8430    0.3730    1.4170 C   0  0  0  0  0  0  0  0  0  0  0  0
   -2.9110   -0.0860    2.2350 C   0  0  0  0  0  0  0  0  0  0  0  0
   -1.9030   -0.7070    1.8050 C   0  0  0  0  0  0  0  0  0  0  0  0
   -1.1440   -0.4040    0.4640 S   0  0  2  0  0  0  0  0  0  0  0  0
   -1.9100   -1.4050   -0.5070 C   0  0  0  0  0  0  0  0  0  0  0  0
   -1.6610   -2.8370   -0.4760 C   0  0  0  0  0  0  0  0  0  0  0  0
   -2.9160   -3.6540   -0.8250 C   0  0  0  0  0  0  0  0  0  0  0  0
   -2.6470   -5.0070   -0.7870 O   0  0  0  0  0  0  0  0  0  0  0  0
    0.5590   -0.7330    0.5760 C   0  0  0  0  0  0  0  0  0  0  0  0
    1.2480   -1.1400   -0.4770 C   0  0  0  0  0  0  0  0  0  0  0  0
    2.5970   -1.4070   -0.4140 O   0  0  0  0  0  0  0  0  0  0  0  0
    3.4440   -1.3060   -1.5850 C   0  0  1  0  0  0  0  0  0  0  0  0
    3.3890    0.0700   -2.0940 C   0  0  0  0  0  0  0  0  0  0  0  0
    3.9610    0.3990   -3.1050 O   0  0  0  0  0  0  0  0  0  0  0  0
    2.4380    1.3650   -1.2050 P   0  0  0  0  0  0  0  0  0  0  0  0
    3.0790    2.4410   -0.3200 O   0  0  0  0  0  0  0  0  0  0  0  0
    4.7920   -1.7770   -1.1170 C   0  0  1  0  0  0  0  0  0  0  0  0
    4.5940   -3.1130   -0.7120 F   0  0  0  0  0  0  0  0  0  0  0  0
    5.7940   -1.8010   -2.0330 O   0  0  0  0  0  0  0  0  0  0  0  0
    6.1420   -0.6720   -2.5850 F   0  0  0  0  0  0  0  0  0  0  0  0
    5.1870   -1.1180    0.0570 O   0  0  0  0  0  0  0  0  0  0  0  0
    5.2640    0.1820   -0.1320 O   0  0  0  0  0  0  0  0  0  0  0  0
    6.0750    0.9740    1.1620 P   0  0  0  0  0  0  0  0  0  0  0  0
    7.5200    0.1760    1.6530 O   0  0  0  0  0  0  0  0  0  0  0  0
    6.4010    2.7040    0.6690 C   0  0  0  0  0  0  0  0  0  0  0  0
    5.6370    3.6640    0.9300 O   0  0  0  0  0  0  0  0  0  0  0  0
    7.5740    2.9630   -0.0420 O   0  0  0  0  0  0  0  0  0  0  0  0
    7.9390    4.5890   -0.5370 Cl  0  0  0  0  0  0  0  0  0  0  0  0
    1.3260   -0.5770    1.8450 C   0  0  0  0  0  0  0  0  0  0  0  0
    0.7470   -1.4420    2.7800 F   0  0  0  0  0  0  0  0  0  0  0  0
   -1.3510    1.1830    0.0520 O   0  0  0  0  0  0  0  0  0  0  0  0
   -2.5380    1.5030   -0.5510 C   0  0  0  0  0  0  0  0  0  0  0  0
  1  2  1  0
  2  3  2  3
  3  4  1  0
  4  5  2  3
  5  6  1  0
  5 37  1  0
  6  7  2  0
  7  8  2  0
  8  9  2  0
  9 10  2  0
  9 14  1  1
  9 36  1  0
 10 11  1  0
 11 12  1  0
 12 13  1  0
 14 15  2  3
 14 34  1  0
 15 16  1  0
 17 16  1  1
 17 18  1  0
 17 22  1  0
 18 19  2  0
 18 20  1  0
 20 21  2  0
 22 23  1  1
 22 24  1  0
 22 26  1  0
 24 25  1  0
 26 27  1  0
 27 28  1  0
 28 29  1  0
 28 30  1  0
 30 31  2  0
 30 32  1  0
 32 33  1  0
 34 35  1  0
 36 37  1  0
M  END
