
     RDKit          3D

 37 38  0  0  0  0  0  0  0  0999 V2000
   -2.9790    4.6250   -2.0780 C   0  0  0  0  0  0  0  0  0  0  0  0
   -2.0640    3.4930   -1.6840 C   0  0  0  0  0  0  0  0  0  0  0  0
   -2.7560    2.5850   -0.8330 N   0  0  0  0  0  0  0  0  0  0  0  0
   -2.0280    1.4460   -0.3780 C   0  0  2  0  0  0  0  0  0  0  0  0
   -0.8190    1.7850    0.4890 C   0  0  0  0  0  0  0  0  0  0  0  0
    0.2620    1.0410   -0.2080 C   0  0  2  0  0  0  0  0  0  0  0  0
    0.7800    1.9720   -1.1460 F   0  0  0  0  0  0  0  0  0  0  0  0
   -0.4130    0.0320   -1.0160 C   0  0  2  0  0  0  0  0  0  0  0  0
   -1.5650    0.7340   -1.4480 O   0  0  0  0  0  0  0  0  0  0  0  0
   -0.8790   -1.2370   -0.4270 C   0  0  2  0  0  0  0  0  0  0  0  0
    0.5480   -2.4660   -0.2330 P   0  0  0  0  0  0  0  0  0  0  0  0
   -1.7930   -1.9870   -1.3550 C   0  0  2  0  0  0  0  0  0  0  0  0
   -1.0170   -2.4310   -2.6050 C   0  0  0  0  0  0  0  0  0  0  0  0
   -3.0160   -1.3140   -1.8230 C   0  0  0  0  0  0  0  0  0  0  0  0
   -2.1740   -3.2260   -0.7760 O   0  0  0  0  0  0  0  0  0  0  0  0
   -1.4820   -0.9850    0.7710 O   0  0  0  0  0  0  0  0  0  0  0  0
   -1.7630   -2.0370    1.5940 C   0  0  0  0  0  0  0  0  0  0  0  0
   -1.9600   -1.4780    2.8810 O   0  0  0  0  0  0  0  0  0  0  0  0
   -0.8730   -1.6030    3.7080 C   0  0  0  0  0  0  0  0  0  0  0  0
   -0.6020   -0.3680    4.2910 O   0  0  0  0  0  0  0  0  0  0  0  0
    0.5940    0.2500    4.4970 C   0  0  0  0  0  0  0  0  0  0  0  0
    0.8700    0.8150    5.7180 F   0  0  0  0  0  0  0  0  0  0  0  0
    1.5260    0.3390    3.5730 C   0  0  0  0  0  0  0  0  0  0  0  0
    2.7130    0.9780    3.8510 O   0  0  0  0  0  0  0  0  0  0  0  0
    3.4270    0.8180    4.9700 F   0  0  0  0  0  0  0  0  0  0  0  0
    1.2420   -0.3560    2.0000 S   0  0  0  0  0  0  0  0  0  0  0  0
    1.4530    0.6600    0.5840 C   0  0  2  0  0  0  0  0  0  0  0  0
    2.1310    1.9550    1.0470 C   0  0  0  0  0  0  0  0  0  0  0  0
    1.1090    2.9600    2.0570 Cl  0  0  0  0  0  0  0  0  0  0  0  0
    2.3960    0.0850   -0.3370 O   0  0  0  0  0  0  0  0  0  0  0  0
    3.6240   -0.4120    0.0410 C   0  0  0  0  0  0  0  0  0  0  0  0
    3.9140   -0.3540    1.2770 O   0  0  0  0  0  0  0  0  0  0  0  0
    4.6010   -0.9970   -0.9040 C   0  0  1  0  0  0  0  0  0  0  0  0
    5.7380   -1.3890   -0.1910 O   0  0  0  0  0  0  0  0  0  0  0  0
    4.0890   -2.0910   -1.5910 O   0  0  0  0  0  0  0  0  0  0  0  0
    4.2800   -1.8500   -3.3000 P   0  0  0  0  0  0  0  0  0  0  0  0
    5.6760   -2.0390   -3.9750 O   0  0  0  0  0  0  0  0  0  0  0  0
  1  2  1  0
  2  3  1  0
  4  3  1  6
  4  5  1  0
  4  9  1  0
  5  6  1  0
  6  7  1  6
  6  8  1  0
  6 27  1  0
  8  9  1  1
  8 10  1  0
 10 11  1  1
 10 12  1  0
 10 16  1  0
 12 13  1  6
 12 14  1  0
 12 15  1  0
 16 17  1  0
 17 18  1  0
 18 19  1  0
 19 20  1  0
 20 21  1  0
 21 22  1  0
 21 23  2  0
 23 24  1  0
 23 26  1  0
 24 25  1  0
 26 27  1  0
 27 28  1  1
 27 30  1  0
 28 29  1  0
 30 31  1  0
 31 32  2  0
 31 33  1  0
 33 34  1  1
 33 35  1  0
 35 36  1  0
 36 37  2  0
M  END
