
     RDKit          3D

 34 36  0  0  0  0  0  0  0  0999 V2000
    3.7950    2.9070   -1.6390 C   0  0  0  0  0  0  0  0  0  0  0  0
    3.1700    3.0440   -0.2950 C   0  0  0  0  0  0  0  0  0  0  0  0
    2.4300    1.8660    0.2220 C   0  0  0  0  0  0  0  0  0  0  0  0
    1.2770    1.3990   -0.5680 C   0  0  0  0  0  0  0  0  0  0  0  0
   -0.0170    1.7590   -0.3170 N   0  0  0  0  0  0  0  0  0  0  0  0
   -0.8620    1.2170   -1.1780 C   0  0  0  0  0  0  0  0  0  0  0  0
   -2.3250    1.3950   -1.1910 C   0  0  0  0  0  0  0  0  0  0  0  0
   -2.8860    2.1050   -0.3230 O   0  0  0  0  0  0  0  0  0  0  0  0
   -3.1280    0.7740   -2.1760 N   0  0  0  0  0  0  0  0  0  0  0  0
   -4.5640    0.9120   -2.2370 C   0  0  0  0  0  0  0  0  0  0  0  0
   -5.2360    0.4000   -0.9810 C   0  0  0  0  0  0  0  0  0  0  0  0
   -4.4440   -0.0470   -0.1340 O   0  0  0  0  0  0  0  0  0  0  0  0
   -6.6640    0.4860   -0.9110 C   0  0  0  0  0  0  0  0  0  0  0  0
   -7.5560    0.1630   -0.0480 C   0  0  0  0  0  0  0  0  0  0  0  0
   -7.5710   -0.4360    1.2560 C   0  0  1  0  0  0  0  0  0  0  0  0
   -6.3100   -0.9450    1.8100 C   0  0  0  0  0  0  0  0  0  0  0  0
   -8.1950    0.6000    2.2230 C   0  0  0  0  0  0  0  0  0  0  0  0
   -9.5200    0.8730    1.7480 N   0  0  0  0  0  0  0  0  0  0  0  0
   -0.0980    0.4680   -2.0320 C   0  0  0  0  0  0  0  0  0  0  0  0
    1.2520    0.5740   -1.6590 C   0  0  0  0  0  0  0  0  0  0  0  0
    2.3580   -0.1080   -2.3420 C   0  0  0  0  0  0  0  0  0  0  0  0
    2.9190    0.4100   -3.3320 O   0  0  0  0  0  0  0  0  0  0  0  0
    2.7730   -1.3690   -1.8520 N   0  0  0  0  0  0  0  0  0  0  0  0
    2.1170   -1.9450   -0.7130 C   0  0  0  0  0  0  0  0  0  0  0  0
    3.0230   -2.4860    0.3330 C   0  0  0  0  0  0  0  0  0  0  0  0
    4.3920   -2.7150   -0.1900 C   0  0  2  0  0  0  0  0  0  0  0  0
    5.1870   -1.5190   -0.0060 N   0  0  0  0  0  0  0  0  0  0  0  0
    5.4120   -1.0320    1.3220 C   0  0  0  0  0  0  0  0  0  0  0  0
    5.2170   -1.7400    2.3680 N   0  0  0  0  0  0  0  0  0  0  0  0
    5.5240   -0.9930    3.5740 C   0  0  0  0  0  0  0  0  0  0  0  0
    5.4830    0.4520    3.1220 C   0  0  0  0  0  0  0  0  0  0  0  0
    5.8950    0.3270    1.6730 C   0  0  0  0  0  0  0  0  0  0  0  0
    4.4150   -3.1510   -1.6360 C   0  0  0  0  0  0  0  0  0  0  0  0
    3.8670   -2.0530   -2.5360 C   0  0  0  0  0  0  0  0  0  0  0  0
  1  2  1  0
  2  3  1  0
  3  4  1  0
  4  5  1  0
  4 20  2  0
  5  6  1  0
  6  7  1  0
  6 19  2  0
  7  8  2  0
  7  9  1  0
  9 10  1  0
 10 11  1  0
 11 12  2  0
 11 13  1  0
 13 14  2  3
 14 15  1  0
 15 16  1  1
 15 17  1  0
 17 18  1  0
 19 20  1  0
 20 21  1  0
 21 22  2  0
 21 23  1  0
 23 24  1  0
 23 34  1  0
 24 25  1  0
 25 26  1  0
 26 27  1  6
 26 33  1  0
 27 28  1  0
 28 29  2  0
 28 32  1  0
 29 30  1  0
 30 31  1  0
 31 32  1  0
 33 34  1  0
M  CHG  2  18   1  29   1
M  END
