
     RDKit          3D

 34 36  0  0  0  0  0  0  0  0999 V2000
   -6.9730    3.2130   -0.2570 C   0  0  0  0  0  0  0  0  0  0  0  0
   -5.6570    3.2240   -0.8180 N   0  0  0  0  0  0  0  0  0  0  0  0
   -4.6500    2.6440    0.0860 C   0  0  2  0  0  0  0  0  0  0  0  0
   -3.3250    2.8790   -0.5790 C   0  0  0  0  0  0  0  0  0  0  0  0
   -2.2450    1.9120   -0.1460 C   0  0  0  0  0  0  0  0  0  0  0  0
   -2.6280    0.6090   -0.6380 N   0  0  0  0  0  0  0  0  0  0  0  0
   -1.7010   -0.3900   -1.0220 C   0  0  0  0  0  0  0  0  0  0  0  0
   -2.1280   -1.4890   -1.4390 O   0  0  0  0  0  0  0  0  0  0  0  0
   -0.2320   -0.1960   -0.9530 C   0  0  0  0  0  0  0  0  0  0  0  0
    0.5920   -1.3850   -1.2480 C   0  0  1  0  0  0  0  0  0  0  0  0
    0.2000   -1.8090   -2.5570 O   0  0  0  0  0  0  0  0  0  0  0  0
    2.0400   -0.8840   -1.5310 C   0  0  0  0  0  0  0  0  0  0  0  0
    2.5280   -0.1530   -0.3250 C   0  0  0  0  0  0  0  0  0  0  0  0
    3.9320    0.3280   -0.5920 C   0  0  0  0  0  0  0  0  0  0  0  0
    4.4320    0.0830   -1.6840 O   0  0  0  0  0  0  0  0  0  0  0  0
    4.5560    1.0290    0.4560 N   0  0  0  0  0  0  0  0  0  0  0  0
    5.8590    1.5480    0.3630 C   0  0  0  0  0  0  0  0  0  0  0  0
    6.4680    1.9150    1.5560 C   0  0  0  0  0  0  0  0  0  0  0  0
    7.7310    2.4430    1.5080 C   0  0  0  0  0  0  0  0  0  0  0  0
    8.4100    2.6190    0.3230 C   0  0  0  0  0  0  0  0  0  0  0  0
    9.7900    3.1970    0.2970 C   0  0  0  0  0  0  0  0  0  0  0  0
    7.7710    2.2460   -0.7920 N   0  0  0  0  0  0  0  0  0  0  0  0
    6.5130    1.7160   -0.7990 C   0  0  0  0  0  0  0  0  0  0  0  0
    0.7240   -2.4760   -0.2840 C   0  0  1  0  0  0  0  0  0  0  0  0
   -0.5020   -3.1940    0.1730 C   0  0  0  0  0  0  0  0  0  0  0  0
   -0.0100   -4.2050    1.2400 C   0  0  0  0  0  0  0  0  0  0  0  0
    0.7280   -5.2470    0.6000 N   0  0  0  0  0  0  0  0  0  0  0  0
    1.0440   -4.9380   -0.7600 C   0  0  0  0  0  0  0  0  0  0  0  0
    1.6170   -3.5570   -0.9350 C   0  0  0  0  0  0  0  0  0  0  0  0
   -4.0620    0.3560   -0.7300 C   0  0  0  0  0  0  0  0  0  0  0  0
   -4.8650    1.1490    0.2420 C   0  0  1  0  0  0  0  0  0  0  0  0
   -4.7930    0.7180    1.6690 C   0  0  0  0  0  0  0  0  0  0  0  0
   -5.0040   -0.7500    1.8070 C   0  0  0  0  0  0  0  0  0  0  0  0
   -4.9260   -1.0390    3.2540 N   0  0  0  0  0  0  0  0  0  0  0  0
  1  2  1  0
  3  2  1  6
  3  4  1  0
  3 31  1  0
  4  5  1  0
  5  6  1  0
  6  7  1  0
  6 30  1  0
  7  8  2  0
  7  9  1  0
  9 10  1  0
 10 11  1  6
 10 12  1  0
 10 24  1  0
 12 13  1  0
 13 14  1  0
 14 15  2  0
 14 16  1  0
 16 17  1  0
 17 18  2  0
 17 23  1  0
 18 19  1  0
 19 20  2  0
 20 21  1  0
 20 22  1  0
 22 23  2  0
 24 25  1  6
 24 29  1  0
 25 26  1  0
 26 27  1  0
 27 28  1  0
 28 29  1  0
 30 31  1  0
 31 32  1  1
 32 33  1  0
 33 34  1  0
M  CHG  2   2   1  27   1
M  END
