
     RDKit          3D

 34 36  0  0  0  0  0  0  0  0999 V2000
   -5.1000   -3.2390   -1.0880 C   0  0  0  0  0  0  0  0  0  0  0  0
   -4.5680   -1.8620   -1.2020 N   0  0  0  0  0  0  0  0  0  0  0  0
   -3.1670   -1.8920   -1.3980 C   0  0  0  0  0  0  0  0  0  0  0  0
   -2.3070   -1.0300   -0.5210 C   0  0  1  0  0  0  0  0  0  0  0  0
   -2.7620    0.4060   -0.7290 C   0  0  0  0  0  0  0  0  0  0  0  0
   -2.2660    1.1000   -1.6400 O   0  0  0  0  0  0  0  0  0  0  0  0
   -3.7700    0.9610    0.1280 N   0  0  0  0  0  0  0  0  0  0  0  0
   -4.2650    2.2900    0.0010 C   0  0  0  0  0  0  0  0  0  0  0  0
   -3.9040    3.3000   -0.8620 C   0  0  0  0  0  0  0  0  0  0  0  0
   -4.6530    4.4270   -0.6140 C   0  0  0  0  0  0  0  0  0  0  0  0
   -5.4710    4.1210    0.3900 N   0  0  0  0  0  0  0  0  0  0  0  0
   -5.2730    2.8640    0.7830 C   0  0  0  0  0  0  0  0  0  0  0  0
   -5.9970    2.1610    1.8750 C   0  0  0  0  0  0  0  0  0  0  0  0
   -2.5110   -1.3260    0.9170 C   0  0  0  0  0  0  0  0  0  0  0  0
   -1.7740   -2.5330    1.3800 C   0  0  0  0  0  0  0  0  0  0  0  0
   -0.5350   -2.8500    0.6410 C   0  0  0  0  0  0  0  0  0  0  0  0
    0.0520   -1.7540   -0.1040 N   0  0  2  0  0  0  0  0  0  0  0  0
    0.7080   -0.7830    0.6880 C   0  0  0  0  0  0  0  0  0  0  0  0
    2.1410   -0.9210    1.0320 C   0  0  0  0  0  0  0  0  0  0  0  0
    3.1480   -0.9260    0.1020 N   0  0  0  0  0  0  0  0  0  0  0  0
    3.4530   -1.9560   -0.7890 C   0  0  0  0  0  0  0  0  0  0  0  0
    3.9450   -3.2080   -0.1420 C   0  0  0  0  0  0  0  0  0  0  0  0
    4.2870   -4.3080   -0.9300 N   0  0  0  0  0  0  0  0  0  0  0  0
    4.0390   -3.2390    1.0910 O   0  0  0  0  0  0  0  0  0  0  0  0
    3.7780    0.3310   -0.2330 C   0  0  0  0  0  0  0  0  0  0  0  0
    4.6500    0.9530    0.7700 C   0  0  2  0  0  0  0  0  0  0  0  0
    4.0010    1.2810    1.9320 O   0  0  0  0  0  0  0  0  0  0  0  0
    5.3120    2.1900    0.2260 C   0  0  0  0  0  0  0  0  0  0  0  0
    6.4800    1.9900   -0.5050 C   0  0  0  0  0  0  0  0  0  0  0  0
    7.1360    3.0830   -1.0280 C   0  0  0  0  0  0  0  0  0  0  0  0
    6.6510    4.3690   -0.8340 C   0  0  0  0  0  0  0  0  0  0  0  0
    5.4840    4.5580   -0.1020 C   0  0  0  0  0  0  0  0  0  0  0  0
    4.8150    3.4530    0.4310 C   0  0  0  0  0  0  0  0  0  0  0  0
   -0.8730   -1.0820   -0.9860 C   0  0  0  0  0  0  0  0  0  0  0  0
  1  2  1  0
  2  3  1  0
  4  3  1  6
  4  5  1  0
  4 14  1  0
  4 34  1  0
  5  6  2  0
  5  7  1  0
  7  8  1  0
  8  9  1  0
  8 12  2  0
  9 10  2  0
 10 11  1  0
 11 12  1  0
 12 13  1  0
 14 15  1  0
 15 16  1  0
 16 17  1  0
 17 18  1  1
 17 34  1  0
 18 19  1  0
 19 20  1  0
 20 21  1  0
 20 25  1  0
 21 22  1  0
 22 23  1  0
 22 24  2  0
 25 26  1  0
 26 27  1  1
 26 28  1  0
 28 29  2  0
 28 33  1  0
 29 30  1  0
 30 31  2  0
 31 32  1  0
 32 33  2  0
M  CHG  2   2   1  17   1
M  END
