
     RDKit          3D

 34 36  0  0  0  0  0  0  0  0999 V2000
   -5.2520   -1.2520   -3.8730 C   0  0  0  0  0  0  0  0  0  0  0  0
   -4.8090   -1.6060   -2.4800 C   0  0  0  0  0  0  0  0  0  0  0  0
   -3.9400   -0.6210   -1.7830 C   0  0  2  0  0  0  0  0  0  0  0  0
   -3.5380   -1.1950   -0.4530 C   0  0  0  0  0  0  0  0  0  0  0  0
   -4.0970   -2.3010    0.0210 C   0  0  0  0  0  0  0  0  0  0  0  0
   -3.7830   -2.9460    1.3070 C   0  0  0  0  0  0  0  0  0  0  0  0
   -2.6950   -2.3310    2.0590 C   0  0  2  0  0  0  0  0  0  0  0  0
   -3.0470   -2.1170    3.4820 N   0  0  0  0  0  0  0  0  0  0  0  0
   -2.1390   -1.1570    1.5050 N   0  0  0  0  0  0  0  0  0  0  0  0
   -2.5050   -0.6320    0.3760 C   0  0  0  0  0  0  0  0  0  0  0  0
   -1.7920    0.5520   -0.0470 N   0  0  0  0  0  0  0  0  0  0  0  0
   -1.8040    1.7390    0.7820 C   0  0  0  0  0  0  0  0  0  0  0  0
   -0.3880    2.0930    1.1390 C   0  0  0  0  0  0  0  0  0  0  0  0
    0.4610    0.9820    0.6470 N   0  0  0  0  0  0  0  0  0  0  0  0
    1.7590    1.2630    1.1610 C   0  0  0  0  0  0  0  0  0  0  0  0
    2.7860    0.2190    0.9200 C   0  0  0  0  0  0  0  0  0  0  0  0
    2.4820   -1.0360    0.4600 C   0  0  0  0  0  0  0  0  0  0  0  0
    3.4790   -1.9590    0.2750 C   0  0  0  0  0  0  0  0  0  0  0  0
    4.7770   -1.6190    0.5520 C   0  0  0  0  0  0  0  0  0  0  0  0
    5.8250   -2.5330    0.3760 O   0  0  0  0  0  0  0  0  0  0  0  0
    5.5250   -3.8330   -0.1000 C   0  0  0  0  0  0  0  0  0  0  0  0
    5.0890   -0.3410    1.0210 C   0  0  0  0  0  0  0  0  0  0  0  0
    6.4140   -0.0590    1.2770 O   0  0  0  0  0  0  0  0  0  0  0  0
    6.9020    1.1780    1.6740 C   0  0  0  0  0  0  0  0  0  0  0  0
    6.8140    2.2610    0.6580 C   0  0  0  0  0  0  0  0  0  0  0  0
    7.3340    3.5460    1.2020 C   0  0  0  0  0  0  0  0  0  0  0  0
    7.3230    4.6820    0.3280 N   0  0  0  0  0  0  0  0  0  0  0  0
    7.7560    3.6070    2.3690 O   0  0  0  0  0  0  0  0  0  0  0  0
    4.0890    0.5750    1.2030 C   0  0  0  0  0  0  0  0  0  0  0  0
    0.4040    1.0230   -0.8210 C   0  0  0  0  0  0  0  0  0  0  0  0
   -1.0080    0.6050   -1.2650 C   0  0  0  0  0  0  0  0  0  0  0  0
   -4.5230    0.7520   -1.5940 C   0  0  1  0  0  0  0  0  0  0  0  0
   -4.8490    1.4440   -2.8790 C   0  0  0  0  0  0  0  0  0  0  0  0
   -5.6700    0.7400   -0.6970 N   0  0  0  0  0  0  0  0  0  0  0  0
  1  2  1  0
  3  2  1  1
  3  4  1  0
  3 32  1  0
  4  5  2  0
  4 10  1  0
  5  6  1  0
  6  7  1  0
  7  8  1  1
  7  9  1  0
  9 10  2  0
 10 11  1  0
 11 12  1  0
 11 31  1  0
 12 13  1  0
 13 14  1  0
 14 15  1  0
 14 30  1  0
 15 16  1  0
 16 17  2  0
 16 29  1  0
 17 18  1  0
 18 19  2  0
 19 20  1  0
 19 22  1  0
 20 21  1  0
 22 23  1  0
 22 29  2  0
 23 24  1  0
 24 25  1  0
 25 26  1  0
 26 27  1  0
 26 28  2  0
 30 31  1  0
 32 33  1  6
 32 34  1  0
M  CHG  2   9   1  34   1
M  END
