
     RDKit          3D

 34 36  0  0  0  0  0  0  0  0999 V2000
   -1.7600   -5.8470   -2.3850 C   0  0  0  0  0  0  0  0  0  0  0  0
   -1.5150   -5.7400   -0.9120 C   0  0  0  0  0  0  0  0  0  0  0  0
   -0.7860   -4.5140   -0.5720 N   0  0  0  0  0  0  0  0  0  0  0  0
   -0.4350   -4.1820    0.7420 C   0  0  0  0  0  0  0  0  0  0  0  0
   -0.7520   -4.9710    1.6660 O   0  0  0  0  0  0  0  0  0  0  0  0
    0.2910   -2.9430    1.0840 C   0  0  2  0  0  0  0  0  0  0  0  0
   -0.5830   -1.7360    1.1190 C   0  0  0  0  0  0  0  0  0  0  0  0
   -1.2690   -1.4390   -0.1740 C   0  0  0  0  0  0  0  0  0  0  0  0
   -2.0800   -0.2290   -0.0870 N   0  0  0  0  0  0  0  0  0  0  0  0
   -3.1410   -0.1160    0.8150 C   0  0  0  0  0  0  0  0  0  0  0  0
   -3.4340   -1.0650    1.5860 O   0  0  0  0  0  0  0  0  0  0  0  0
   -3.9920    1.1260    0.9270 C   0  0  2  0  0  0  0  0  0  0  0  0
   -4.9740    0.8220    1.9620 N   0  0  2  0  0  0  0  0  0  0  0  0
   -6.0750    1.7380    2.0060 C   0  0  0  0  0  0  0  0  0  0  0  0
   -4.2860    0.8550    3.2430 C   0  0  0  0  0  0  0  0  0  0  0  0
   -4.6590    1.2910   -0.3980 C   0  0  0  0  0  0  0  0  0  0  0  0
   -4.8480    2.6620   -0.8940 C   0  0  0  0  0  0  0  0  0  0  0  0
   -4.2040    3.6990   -0.1320 N   0  0  0  0  0  0  0  0  0  0  0  0
   -2.9020    3.2530    0.3320 C   0  0  0  0  0  0  0  0  0  0  0  0
   -3.1670    2.2560    1.4070 C   0  0  0  0  0  0  0  0  0  0  0  0
    1.4920   -2.7610    0.1460 C   0  0  0  0  0  0  0  0  0  0  0  0
    2.2200   -1.5680    0.4800 N   0  0  0  0  0  0  0  0  0  0  0  0
    3.3790   -1.2470   -0.3270 C   0  0  0  0  0  0  0  0  0  0  0  0
    3.7000   -1.9950   -1.2620 O   0  0  0  0  0  0  0  0  0  0  0  0
    4.1350   -0.0790   -0.0370 N   0  0  0  0  0  0  0  0  0  0  0  0
    5.2990    0.2740   -0.8230 C   0  0  2  0  0  0  0  0  0  0  0  0
    6.4790    0.3280    0.1220 C   0  0  0  0  0  0  0  0  0  0  0  0
    7.6680    1.0450   -0.4050 C   0  0  0  0  0  0  0  0  0  0  0  0
    7.5430    1.6040   -1.7810 C   0  0  0  0  0  0  0  0  0  0  0  0
    6.2400    2.3580   -1.8540 C   0  0  0  0  0  0  0  0  0  0  0  0
    5.8830    3.5380   -2.2750 C   0  0  0  0  0  0  0  0  0  0  0  0
    4.4220    3.6840   -2.0690 C   0  0  0  0  0  0  0  0  0  0  0  0
    4.0130    2.4140   -1.4710 C   0  0  0  0  0  0  0  0  0  0  0  0
    5.0770    1.6480   -1.3490 C   0  0  0  0  0  0  0  0  0  0  0  0
  1  2  1  0
  2  3  1  0
  3  4  1  0
  4  5  2  0
  4  6  1  0
  6  7  1  6
  6 21  1  0
  7  8  1  0
  8  9  1  0
  9 10  1  0
 10 11  2  0
 12 10  1  6
 12 13  1  0
 12 16  1  0
 12 20  1  0
 13 14  1  1
 13 15  1  0
 16 17  1  0
 17 18  1  0
 18 19  1  0
 19 20  1  0
 21 22  1  0
 22 23  1  0
 23 24  2  0
 23 25  1  0
 26 25  1  1
 26 27  1  0
 26 34  1  0
 27 28  1  0
 28 29  1  0
 29 30  1  0
 30 31  2  0
 30 34  1  0
 31 32  1  0
 32 33  1  0
 33 34  2  0
M  CHG  2  13   1  18   1
M  END
