
     RDKit          3D

 34 36  0  0  0  0  0  0  0  0999 V2000
   -1.8940    2.5060   -4.6060 C   0  0  0  0  0  0  0  0  0  0  0  0
   -1.5090    1.6740   -3.6630 C   0  0  0  0  0  0  0  0  0  0  0  0
   -2.0690    0.3100   -3.5860 C   0  0  0  0  0  0  0  0  0  0  0  0
   -2.7910    0.0380   -2.2830 C   0  0  1  0  0  0  0  0  0  0  0  0
   -3.3340   -1.3430   -2.2700 C   0  0  0  0  0  0  0  0  0  0  0  0
   -3.4130   -2.0320   -0.9580 C   0  0  0  0  0  0  0  0  0  0  0  0
   -3.5540   -1.0370    0.1280 C   0  0  0  0  0  0  0  0  0  0  0  0
   -2.8700    0.1480    0.1050 C   0  0  0  0  0  0  0  0  0  0  0  0
   -3.1850    0.8250    1.1970 N   0  0  0  0  0  0  0  0  0  0  0  0
   -4.0810    0.1010    1.9570 C   0  0  0  0  0  0  0  0  0  0  0  0
   -4.7000    0.5880    3.2120 C   0  0  0  0  0  0  0  0  0  0  0  0
   -6.0360    1.2650    2.8930 C   0  0  0  0  0  0  0  0  0  0  0  0
   -5.7980    2.4680    1.9850 C   0  0  0  0  0  0  0  0  0  0  0  0
   -4.3310   -1.0730    1.3170 C   0  0  0  0  0  0  0  0  0  0  0  0
   -5.1420   -2.2390    1.6080 C   0  0  0  0  0  0  0  0  0  0  0  0
   -5.8830   -2.3150    2.8020 N   0  0  0  0  0  0  0  0  0  0  0  0
   -1.9780    0.3970   -1.0840 C   0  0  1  0  0  0  0  0  0  0  0  0
   -0.7260   -0.3010   -0.9690 N   0  0  0  0  0  0  0  0  0  0  0  0
    0.5300    0.3260   -0.7250 C   0  0  0  0  0  0  0  0  0  0  0  0
    0.5570    1.5820   -0.5990 O   0  0  0  0  0  0  0  0  0  0  0  0
    1.7890   -0.4590   -0.6180 C   0  0  0  0  0  0  0  0  0  0  0  0
    2.9800    0.4030   -0.3650 C   0  0  1  0  0  0  0  0  0  0  0  0
    2.9170    1.1930    0.8790 C   0  0  0  0  0  0  0  0  0  0  0  0
    1.9120    1.2800    1.6300 O   0  0  0  0  0  0  0  0  0  0  0  0
    4.0870    1.9050    1.2460 N   0  0  0  0  0  0  0  0  0  0  0  0
    5.4020    1.4760    0.8320 C   0  0  0  0  0  0  0  0  0  0  0  0
    6.4200    2.1640    1.1770 N   0  0  0  0  0  0  0  0  0  0  0  0
    5.4480    0.3080    0.0420 N   0  0  0  0  0  0  0  0  0  0  0  0
    6.7120   -0.2090   -0.4230 C   0  0  0  0  0  0  0  0  0  0  0  0
    7.3090   -1.2270    0.4940 C   0  0  0  0  0  0  0  0  0  0  0  0
    7.5960   -0.7370    1.8740 C   0  0  0  0  0  0  0  0  0  0  0  0
    8.1860   -1.8770    2.7180 C   0  0  0  0  0  0  0  0  0  0  0  0
    4.2440   -0.4030   -0.3260 C   0  0  0  0  0  0  0  0  0  0  0  0
    4.2730   -1.6260   -0.5940 O   0  0  0  0  0  0  0  0  0  0  0  0
  1  2  2  0
  2  3  1  0
  4  3  1  6
  4  5  1  0
  4 17  1  0
  5  6  1  0
  6  7  1  0
  7  8  2  0
  7 14  1  0
  8  9  1  0
  8 17  1  0
  9 10  1  0
 10 11  1  0
 10 14  2  0
 11 12  1  0
 12 13  1  0
 14 15  1  0
 15 16  1  0
 17 18  1  1
 18 19  1  0
 19 20  2  0
 19 21  1  0
 22 21  1  1
 22 23  1  0
 22 33  1  0
 23 24  2  0
 23 25  1  0
 25 26  1  0
 26 27  2  0
 26 28  1  0
 28 29  1  0
 28 33  1  0
 29 30  1  0
 30 31  1  0
 31 32  1  0
 33 34  2  0
M  CHG  2  16   1  27   1
M  END
