
     RDKit          3D

 29 31  0  0  0  0  0  0  0  0999 V2000
   -5.0590    1.3120   -2.0620 N   0  0  0  0  0  0  0  0  0  0  0  0
   -3.8930    0.9620   -1.3180 C   0  0  0  0  0  0  0  0  0  0  0  0
   -2.6470    1.2300   -1.8120 C   0  0  0  0  0  0  0  0  0  0  0  0
   -1.4790    0.8990   -1.1050 C   0  0  0  0  0  0  0  0  0  0  0  0
   -0.2290    1.1910   -1.6840 N   0  0  0  0  0  0  0  0  0  0  0  0
    1.0060    1.2070   -1.0390 C   0  0  0  0  0  0  0  0  0  0  0  0
    1.1270    0.9620    0.1790 O   0  0  0  0  0  0  0  0  0  0  0  0
    2.2390    1.5080   -1.7310 N   0  0  0  0  0  0  0  0  0  0  0  0
    3.4830    1.5070   -1.0060 C   0  0  0  0  0  0  0  0  0  0  0  0
    3.9460    0.0800   -0.7320 C   0  0  0  0  0  0  0  0  0  0  0  0
    3.1170   -0.9620   -1.0590 C   0  0  0  0  0  0  0  0  0  0  0  0
    4.1500   -2.3830   -0.5350 S   0  0  0  0  0  0  0  0  0  0  0  0
    5.5050   -1.3350    0.0280 C   0  0  0  0  0  0  0  0  0  0  0  0
    6.7740   -1.9690    0.6230 C   0  0  0  0  0  0  0  0  0  0  0  0
    7.6400   -0.7840    0.9590 C   0  0  0  0  0  0  0  0  0  0  0  0
    8.8940   -1.1300    1.5320 N   0  0  0  0  0  0  0  0  0  0  0  0
    9.2030   -0.7310    2.6660 O   0  0  0  0  0  0  0  0  0  0  0  0
    9.7860   -1.9090    0.8470 O   0  0  0  0  0  0  0  0  0  0  0  0
    5.0990   -0.2390   -0.2010 N   0  0  0  0  0  0  0  0  0  0  0  0
   -1.5940    0.2890    0.1150 C   0  0  0  0  0  0  0  0  0  0  0  0
   -2.8670    0.0180    0.6140 C   0  0  0  0  0  0  0  0  0  0  0  0
   -4.0000    0.3480   -0.0890 C   0  0  0  0  0  0  0  0  0  0  0  0
   -5.2840    0.0390    0.4860 C   0  0  0  0  0  0  0  0  0  0  0  0
   -5.5270    0.3150    1.8130 C   0  0  0  0  0  0  0  0  0  0  0  0
   -6.7760    0.0090    2.3570 C   0  0  0  0  0  0  0  0  0  0  0  0
   -7.6830   -0.5420    1.5580 N   0  0  0  0  0  0  0  0  0  0  0  0
   -7.5120   -0.8350    0.2670 C   0  0  0  0  0  0  0  0  0  0  0  0
   -8.5000   -1.4160   -0.5310 O   0  0  0  0  0  0  0  0  0  0  0  0
   -6.2670   -0.5320   -0.2820 C   0  0  0  0  0  0  0  0  0  0  0  0
  1  2  1  0
  2  3  2  0
  2 22  1  0
  3  4  1  0
  4  5  1  0
  4 20  2  0
  5  6  1  0
  6  7  2  0
  6  8  1  0
  8  9  1  0
  9 10  1  0
 10 11  2  0
 10 19  1  0
 11 12  1  0
 12 13  1  0
 13 14  1  0
 13 19  2  0
 14 15  1  0
 15 16  1  0
 16 17  2  0
 16 18  1  0
 20 21  1  0
 21 22  2  0
 22 23  1  0
 23 24  2  0
 23 29  1  0
 24 25  1  0
 25 26  2  0
 26 27  1  0
 27 28  1  0
 27 29  2  0
M  CHG  2  16   1  18  -1
M  END
