
     RDKit          3D

 29 31  0  0  0  0  0  0  0  0999 V2000
    8.5970   -2.0780    1.5070 N   0  0  0  0  0  0  0  0  0  0  0  0
    7.4930   -1.2700    1.1200 C   0  0  0  0  0  0  0  0  0  0  0  0
    7.4180   -0.0950    1.5660 O   0  0  0  0  0  0  0  0  0  0  0  0
    6.4700   -1.7150    0.2570 N   0  0  0  0  0  0  0  0  0  0  0  0
    5.3620   -0.8900   -0.1260 C   0  0  0  0  0  0  0  0  0  0  0  0
    4.3460   -0.9900   -0.8400 N   0  0  0  0  0  0  0  0  0  0  0  0
    3.5030   -0.0510   -1.0000 N   0  0  0  0  0  0  0  0  0  0  0  0
    3.5910    1.0720   -0.4650 C   0  0  0  0  0  0  0  0  0  0  0  0
    2.9340    2.3620   -0.3530 C   0  0  0  0  0  0  0  0  0  0  0  0
    1.6270    2.4750   -0.2740 C   0  0  0  0  0  0  0  0  0  0  0  0
    0.6940    1.3770   -0.2870 C   0  0  0  0  0  0  0  0  0  0  0  0
    1.0040    0.1830   -0.3710 O   0  0  0  0  0  0  0  0  0  0  0  0
   -0.7370    1.6790   -0.1930 N   0  0  0  0  0  0  0  0  0  0  0  0
   -1.6190    0.5350   -0.2110 C   0  0  0  0  0  0  0  0  0  0  0  0
   -3.0320    0.8870   -0.1150 C   0  0  0  0  0  0  0  0  0  0  0  0
   -3.3520    2.2410   -0.0360 C   0  0  0  0  0  0  0  0  0  0  0  0
   -4.6750    2.6370    0.0590 C   0  0  0  0  0  0  0  0  0  0  0  0
   -5.6670    1.7020    0.0740 C   0  0  0  0  0  0  0  0  0  0  0  0
   -5.3310    0.3740   -0.0040 C   0  0  0  0  0  0  0  0  0  0  0  0
   -4.0070   -0.0820   -0.1010 C   0  0  0  0  0  0  0  0  0  0  0  0
   -3.7350   -1.5020   -0.1960 C   0  0  0  0  0  0  0  0  0  0  0  0
   -4.7390   -2.3950   -0.1020 C   0  0  0  0  0  0  0  0  0  0  0  0
   -4.2520   -3.7750   -0.2250 C   0  0  0  0  0  0  0  0  0  0  0  0
   -2.8140   -3.6000   -0.4140 C   0  0  0  0  0  0  0  0  0  0  0  0
   -2.5390   -2.2780   -0.3930 C   0  0  0  0  0  0  0  0  0  0  0  0
    1.1220    3.8350   -0.1670 N   0  0  0  0  0  0  0  0  0  0  0  0
    1.0320    4.5630   -1.1660 O   0  0  0  0  0  0  0  0  0  0  0  0
    0.7320    4.3460    1.0510 O   0  0  0  0  0  0  0  0  0  0  0  0
    5.2070    0.7850    0.4820 S   0  0  0  0  0  0  0  0  0  0  0  0
  1  2  1  0
  2  3  2  0
  2  4  1  0
  4  5  1  0
  5  6  2  0
  5 29  1  0
  6  7  1  0
  7  8  2  0
  8  9  1  0
  8 29  1  0
  9 10  2  3
 10 11  1  0
 10 26  1  0
 11 12  2  0
 11 13  1  0
 13 14  1  0
 14 15  1  0
 15 16  2  0
 15 20  1  0
 16 17  1  0
 17 18  2  0
 18 19  1  0
 19 20  2  0
 20 21  1  0
 21 22  2  0
 21 25  1  0
 22 23  1  0
 23 24  1  0
 24 25  2  0
 26 27  2  0
 26 28  1  0
M  CHG  2  26   1  28  -1
M  END
