
     RDKit          3D

 28 30  0  0  0  0  0  0  0  0999 V2000
    5.1000   -2.7080   -0.3020 C   0  0  0  0  0  0  0  0  0  0  0  0
    5.5040   -1.3010   -0.1180 C   0  0  0  0  0  0  0  0  0  0  0  0
    7.0680   -0.5310   -0.5500 S   0  0  0  0  0  0  0  0  0  0  0  0
    6.5910    1.1100   -0.1050 C   0  0  0  0  0  0  0  0  0  0  0  0
    7.4350    2.3020   -0.2160 C   0  0  0  0  0  0  0  0  0  0  0  0
    7.4210    3.1910    0.8960 N   0  0  0  0  0  0  0  0  0  0  0  0
    8.1560    2.5790   -1.1990 O   0  0  0  0  0  0  0  0  0  0  0  0
    5.2810    0.9880    0.3370 C   0  0  0  0  0  0  0  0  0  0  0  0
    4.7350   -0.2100    0.3290 C   0  0  0  0  0  0  0  0  0  0  0  0
    3.3790   -0.6100    0.8990 C   0  0  0  0  0  0  0  0  0  0  0  0
    2.3480    0.1220    0.1910 N   0  0  0  0  0  0  0  0  0  0  0  0
    0.9830   -0.3040    0.4150 C   0  0  0  0  0  0  0  0  0  0  0  0
    0.6640   -1.1690    1.2100 O   0  0  0  0  0  0  0  0  0  0  0  0
   -0.0520    0.3330   -0.3950 N   0  0  0  0  0  0  0  0  0  0  0  0
   -1.3820   -0.0780   -0.2950 C   0  0  0  0  0  0  0  0  0  0  0  0
   -1.8000   -1.2580   -0.9010 C   0  0  0  0  0  0  0  0  0  0  0  0
   -3.1250   -1.6460   -0.8110 C   0  0  0  0  0  0  0  0  0  0  0  0
   -4.0340   -0.8990   -0.1430 C   0  0  0  0  0  0  0  0  0  0  0  0
   -5.4290   -1.1830   -0.1090 N   0  0  0  0  0  0  0  0  0  0  0  0
   -6.1250   -2.2470    0.1250 N   0  0  0  0  0  0  0  0  0  0  0  0
   -7.4840   -1.9980    0.0790 C   0  0  0  0  0  0  0  0  0  0  0  0
   -7.5660   -0.6590   -0.2120 C   0  0  0  0  0  0  0  0  0  0  0  0
   -6.3220   -0.1320   -0.3300 C   0  0  0  0  0  0  0  0  0  0  0  0
   -5.8850    1.1380   -0.7320 N   0  0  0  0  0  0  0  0  0  0  0  0
   -6.6730    2.2690   -0.6800 C   0  0  0  0  0  0  0  0  0  0  0  0
   -7.8680    2.2730   -0.1990 O   0  0  0  0  0  0  0  0  0  0  0  0
   -3.5850    0.2710    0.4550 C   0  0  0  0  0  0  0  0  0  0  0  0
   -2.2970    0.6940    0.3950 C   0  0  0  0  0  0  0  0  0  0  0  0
  1  2  1  0
  2  3  1  0
  2  9  2  0
  3  4  1  0
  4  5  1  0
  4  8  2  0
  5  6  1  0
  5  7  2  0
  8  9  1  0
  9 10  1  0
 10 11  1  0
 11 12  1  0
 12 13  2  0
 12 14  1  0
 14 15  1  0
 15 16  2  0
 15 28  1  0
 16 17  1  0
 17 18  2  0
 18 19  1  0
 18 27  1  0
 19 20  1  0
 19 23  1  0
 20 21  2  0
 21 22  1  0
 22 23  2  0
 23 24  1  0
 24 25  1  0
 25 26  2  0
 27 28  2  0
M  END
