
     RDKit          3D

 29 31  0  0  0  0  0  0  0  0999 V2000
   -8.8300   -0.2950   -1.1560 C   0  0  0  0  0  0  0  0  0  0  0  0
   -7.3800   -0.0030   -1.0750 C   0  0  0  0  0  0  0  0  0  0  0  0
   -6.5200   -0.2460   -2.0310 C   0  0  0  0  0  0  0  0  0  0  0  0
   -5.0920    0.0690   -1.8810 C   0  0  0  0  0  0  0  0  0  0  0  0
   -4.6380    0.6050   -0.7820 C   0  0  0  0  0  0  0  0  0  0  0  0
   -3.2020    0.9510   -0.5630 C   0  0  0  0  0  0  0  0  0  0  0  0
   -2.7410    0.1940    0.5760 N   0  0  0  0  0  0  0  0  0  0  0  0
   -1.4060    0.2910    1.0780 C   0  0  0  0  0  0  0  0  0  0  0  0
   -0.9690   -0.4400    2.1490 C   0  0  0  0  0  0  0  0  0  0  0  0
    0.3220   -0.3150    2.6000 C   0  0  0  0  0  0  0  0  0  0  0  0
    1.1900    0.5670    1.9570 C   0  0  0  0  0  0  0  0  0  0  0  0
    2.5710    0.7040    2.4630 C   0  0  0  0  0  0  0  0  0  0  0  0
    3.3760   -0.4940    2.0980 C   0  0  0  0  0  0  0  0  0  0  0  0
    3.5250   -1.5230    3.0400 C   0  0  0  0  0  0  0  0  0  0  0  0
    4.2040   -2.6230    2.7230 N   0  0  0  0  0  0  0  0  0  0  0  0
    4.7730   -2.8120    1.5180 C   0  0  0  0  0  0  0  0  0  0  0  0
    4.6330   -1.8330    0.6190 N   0  0  0  0  0  0  0  0  0  0  0  0
    3.9610   -0.7010    0.8790 C   0  0  0  0  0  0  0  0  0  0  0  0
    3.9100    0.2900   -0.1290 N   0  0  0  0  0  0  0  0  0  0  0  0
    4.4910    0.1290   -1.4350 C   0  0  0  0  0  0  0  0  0  0  0  0
    5.9880   -0.0850   -1.3850 C   0  0  0  0  0  0  0  0  0  0  0  0
    6.6190   -0.2680   -3.0550 S   0  0  2  0  0  0  0  0  0  0  0  0
    8.0900   -0.5160   -3.0310 O   0  0  0  0  0  0  0  0  0  0  0  0
    6.2550    0.9590   -3.8620 O   0  0  0  0  0  0  0  0  0  0  0  0
    5.9040   -1.5830   -3.8180 O   0  0  0  0  0  0  0  0  0  0  0  0
    0.6970    1.2620    0.9030 C   0  0  0  0  0  0  0  0  0  0  0  0
   -0.5710    1.1320    0.4680 N   0  0  0  0  0  0  0  0  0  0  0  0
   -5.5420    0.8820    0.2750 N   0  0  0  0  0  0  0  0  0  0  0  0
   -6.8970    0.5840    0.1370 N   0  0  0  0  0  0  0  0  0  0  0  0
  1  2  1  0
  2  3  2  0
  2 29  1  0
  3  4  1  0
  4  5  2  0
  5  6  1  0
  5 28  1  0
  6  7  1  0
  7  8  1  0
  8  9  2  0
  8 27  1  0
  9 10  1  0
 10 11  2  0
 11 12  1  0
 11 26  1  0
 12 13  1  0
 13 14  2  0
 13 18  1  0
 14 15  1  0
 15 16  2  0
 16 17  1  0
 17 18  2  0
 18 19  1  0
 19 20  1  0
 20 21  1  0
 21 22  1  0
 22 23  2  0
 22 24  2  0
 22 25  1  6
 26 27  2  0
 28 29  1  0
M  END
