
     RDKit          3D

 15 15  0  0  0  0  0  0  0  0999 V2000
    1.1200   -2.7670    1.1510 C   0  0  0  0  0  0  0  0  0  0  0  0
    2.1020   -1.9020    1.2840 C   0  0  0  0  0  0  0  0  0  0  0  0
    2.0970   -0.6780    0.5010 C   0  0  0  0  0  0  0  0  0  0  0  0
    3.0520    0.2290    0.5870 C   0  0  0  0  0  0  0  0  0  0  0  0
    3.0170    1.4640   -0.2240 C   0  0  0  0  0  0  0  0  0  0  0  0
    4.2040    1.5420   -1.0860 N   0  0  0  0  0  0  0  0  0  0  0  0
    1.0470   -0.4520   -0.3720 O   0  0  0  0  0  0  0  0  0  0  0  0
   -0.0900    0.2250    0.1290 C   0  0  0  0  0  0  0  0  0  0  0  0
   -1.1130    0.3680   -0.9800 C   0  0  1  0  0  0  0  0  0  0  0  0
   -1.5080   -0.8560   -1.4600 O   0  0  0  0  0  0  0  0  0  0  0  0
   -2.7000   -1.1540   -0.7610 C   0  0  0  0  0  0  0  0  0  0  0  0
   -3.3300    0.2370   -0.7220 C   0  0  1  0  0  0  0  0  0  0  0  0
   -4.2730    0.2840    0.4700 C   0  0  0  0  0  0  0  0  0  0  0  0
   -4.6700    1.6140    0.6940 O   0  0  0  0  0  0  0  0  0  0  0  0
   -2.2050    1.0200   -0.4660 O   0  0  0  0  0  0  0  0  0  0  0  0
  1  2  2  0
  2  3  1  0
  3  4  2  3
  3  7  1  0
  4  5  1  0
  5  6  1  0
  7  8  1  0
  9  8  1  1
  9 10  1  0
  9 15  1  0
 10 11  1  0
 11 12  1  0
 12 13  1  1
 12 15  1  0
 13 14  1  0
M  CHG  1   6   1
M  END
