
     RDKit          3D

 15 15  0  0  0  0  0  0  0  0999 V2000
   -4.1620    2.2400    0.2380 C   0  0  0  0  0  0  0  0  0  0  0  0
   -3.3900    1.0670   -0.2160 C   0  0  0  0  0  0  0  0  0  0  0  0
   -2.1280    0.8900    0.1540 C   0  0  0  0  0  0  0  0  0  0  0  0
   -1.3760   -0.2610   -0.2940 C   0  0  0  0  0  0  0  0  0  0  0  0
   -0.1260   -0.4590    0.0580 C   0  0  0  0  0  0  0  0  0  0  0  0
    0.6480    0.4280    0.9240 C   0  0  1  0  0  0  0  0  0  0  0  0
    1.1490   -0.2670    2.0530 O   0  0  0  0  0  0  0  0  0  0  0  0
    1.8590    1.0280    0.2330 C   0  0  1  0  0  0  0  0  0  0  0  0
    2.4470    1.8870    1.1920 O   0  0  0  0  0  0  0  0  0  0  0  0
    2.9310   -0.0170   -0.0480 C   0  0  0  0  0  0  0  0  0  0  0  0
    4.1000    0.6830   -0.5560 N   0  0  0  0  0  0  0  0  0  0  0  0
    0.4670   -1.6160   -0.4550 O   0  0  0  0  0  0  0  0  0  0  0  0
   -0.2180   -2.7830   -0.7690 C   0  0  0  0  0  0  0  0  0  0  0  0
   -1.6720   -2.5870   -1.0360 C   0  0  0  0  0  0  0  0  0  0  0  0
   -1.9980   -1.2130   -1.1410 O   0  0  0  0  0  0  0  0  0  0  0  0
  1  2  1  0
  2  3  2  3
  3  4  1  0
  4  5  2  0
  4 15  1  0
  5  6  1  0
  5 12  1  0
  6  7  1  1
  6  8  1  0
  8  9  1  1
  8 10  1  0
 10 11  1  0
 12 13  1  0
 13 14  1  0
 14 15  1  0
M  CHG  1  11   1
M  END
