
     RDKit          3D

 15 15  0  0  0  0  0  0  0  0999 V2000
   -4.8210   -1.0170   -0.9800 C   0  0  0  0  0  0  0  0  0  0  0  0
   -3.7170   -0.5090   -0.2810 O   0  0  0  0  0  0  0  0  0  0  0  0
   -2.4180   -0.5340   -0.7450 C   0  0  0  0  0  0  0  0  0  0  0  0
   -2.2100   -1.0420   -1.8630 O   0  0  0  0  0  0  0  0  0  0  0  0
   -1.3850    0.0460    0.1240 C   0  0  1  0  0  0  0  0  0  0  0  0
   -1.4370   -0.7220    1.4220 C   0  0  0  0  0  0  0  0  0  0  0  0
   -0.1370   -0.6450    2.1790 C   0  0  0  0  0  0  0  0  0  0  0  0
    0.4280    0.7260    1.8660 C   0  0  0  0  0  0  0  0  0  0  0  0
    1.0290    0.6060    0.4690 C   0  0  2  0  0  0  0  0  0  0  0  0
    1.6060    1.7820    0.0540 O   0  0  0  0  0  0  0  0  0  0  0  0
    2.9550    1.7840   -0.1220 C   0  0  0  0  0  0  0  0  0  0  0  0
    3.3970    0.7930   -1.1760 C   0  0  0  0  0  0  0  0  0  0  0  0
    4.8040    0.8610   -1.2960 O   0  0  0  0  0  0  0  0  0  0  0  0
   -0.0110    0.0840   -0.4780 C   0  0  1  0  0  0  0  0  0  0  0  0
    0.4200   -1.1960   -0.9940 N   0  0  0  0  0  0  0  0  0  0  0  0
  1  2  1  0
  2  3  1  0
  3  4  2  0
  5  3  1  6
  5  6  1  0
  5 14  1  0
  6  7  1  0
  7  8  1  0
  8  9  1  0
  9 10  1  6
  9 14  1  0
 10 11  1  0
 11 12  1  0
 12 13  1  0
 14 15  1  1
M  CHG  1  15   1
M  END
