
     RDKit          3D

 15 15  0  0  0  0  0  0  0  0999 V2000
   -3.6790   -2.0100   -0.0680 C   0  0  0  0  0  0  0  0  0  0  0  0
   -2.6660   -1.2000   -0.5530 O   0  0  0  0  0  0  0  0  0  0  0  0
   -2.2270   -0.2560    0.3470 C   0  0  2  0  0  0  0  0  0  0  0  0
   -2.2750    1.1520   -0.1750 C   0  0  0  0  0  0  0  0  0  0  0  0
   -1.4360    1.2920   -1.4030 C   0  0  0  0  0  0  0  0  0  0  0  0
   -0.7130    0.0570   -1.8100 C   0  0  0  0  0  0  0  0  0  0  0  0
   -0.0450   -0.6790   -0.7030 C   0  0  1  0  0  0  0  0  0  0  0  0
    1.3880   -0.2950   -0.5760 C   0  0  0  0  0  0  0  0  0  0  0  0
    1.8830    0.5560   -1.3550 O   0  0  0  0  0  0  0  0  0  0  0  0
    2.2170   -0.8470    0.3850 O   0  0  0  0  0  0  0  0  0  0  0  0
    3.5820   -0.5150    0.5450 C   0  0  0  0  0  0  0  0  0  0  0  0
    3.8040    0.9490    0.8570 C   0  0  0  0  0  0  0  0  0  0  0  0
    5.1860    1.1180    0.9860 O   0  0  0  0  0  0  0  0  0  0  0  0
   -0.7520   -0.5670    0.6230 C   0  0  1  0  0  0  0  0  0  0  0  0
   -0.1270    0.4840    1.3750 N   0  0  0  0  0  0  0  0  0  0  0  0
  1  2  1  0
  3  2  1  6
  3  4  1  0
  3 14  1  0
  4  5  1  0
  5  6  1  0
  6  7  1  0
  7  8  1  1
  7 14  1  0
  8  9  2  0
  8 10  1  0
 10 11  1  0
 11 12  1  0
 12 13  1  0
 14 15  1  1
M  CHG  1  15   1
M  END
