
     RDKit          3D

 15 15  0  0  0  0  0  0  0  0999 V2000
    0.8960    0.8000    1.5830 C   0  0  0  0  0  0  0  0  0  0  0  0
    0.9130    0.3830    0.1480 C   0  0  1  0  0  0  0  0  0  0  0  0
   -0.4830    0.4980   -0.4800 C   0  0  2  0  0  0  0  0  0  0  0  0
   -0.8960    1.8120   -0.3170 O   0  0  0  0  0  0  0  0  0  0  0  0
   -1.4520   -0.4430    0.1920 C   0  0  0  0  0  0  0  0  0  0  0  0
   -2.7890   -0.2790   -0.4680 C   0  0  2  0  0  0  0  0  0  0  0  0
   -3.3260    1.0480   -0.3770 N   0  0  0  0  0  0  0  0  0  0  0  0
   -3.7950   -1.2930    0.0870 C   0  0  0  0  0  0  0  0  0  0  0  0
   -3.3000   -2.5760    0.0100 O   0  0  0  0  0  0  0  0  0  0  0  0
    1.8110    1.2380   -0.7190 C   0  0  0  0  0  0  0  0  0  0  0  0
    3.2720    0.9330   -0.5340 C   0  0  0  0  0  0  0  0  0  0  0  0
    3.5590   -0.2200   -1.2730 O   0  0  0  0  0  0  0  0  0  0  0  0
    3.6560   -1.2750   -0.3620 C   0  0  0  0  0  0  0  0  0  0  0  0
    2.4670   -1.2890    0.5760 C   0  0  0  0  0  0  0  0  0  0  0  0
    1.2950   -0.9410   -0.0320 O   0  0  0  0  0  0  0  0  0  0  0  0
  2  1  1  1
  2  3  1  0
  2 10  1  0
  2 15  1  0
  3  4  1  1
  3  5  1  0
  5  6  1  0
  6  7  1  1
  6  8  1  0
  8  9  1  0
 10 11  1  0
 11 12  1  0
 12 13  1  0
 13 14  1  0
 14 15  1  0
M  CHG  1   7   1
M  END
