
     RDKit          3D

 15 15  0  0  0  0  0  0  0  0999 V2000
   -2.7630    2.2480   -0.5820 C   0  0  0  0  0  0  0  0  0  0  0  0
   -2.0970    0.8950   -0.8720 C   0  0  0  0  0  0  0  0  0  0  0  0
   -1.5750    0.3000    0.4100 C   0  0  1  0  0  0  0  0  0  0  0  0
   -2.6760    0.0960    1.3670 N   0  0  0  0  0  0  0  0  0  0  0  0
   -0.8030   -0.9460    0.2580 C   0  0  1  0  0  0  0  0  0  0  0  0
   -1.5730   -2.1520   -0.1770 C   0  0  0  0  0  0  0  0  0  0  0  0
    0.4200   -0.6900   -0.5890 C   0  0  0  0  0  0  0  0  0  0  0  0
    1.5610   -0.7700    0.4070 C   0  0  2  0  0  0  0  0  0  0  0  0
    2.7340   -1.1870   -0.1390 O   0  0  0  0  0  0  0  0  0  0  0  0
    3.7420   -0.2870    0.1640 C   0  0  0  0  0  0  0  0  0  0  0  0
    3.4890    1.0870   -0.3870 C   0  0  0  0  0  0  0  0  0  0  0  0
    3.3800    1.0400   -1.7870 O   0  0  0  0  0  0  0  0  0  0  0  0
    0.9880   -1.7770    1.3750 C   0  0  0  0  0  0  0  0  0  0  0  0
    1.5650   -2.7920    1.8630 O   0  0  0  0  0  0  0  0  0  0  0  0
   -0.2960   -1.2860    1.5650 O   0  0  0  0  0  0  0  0  0  0  0  0
  1  2  1  0
  2  3  1  0
  3  4  1  1
  3  5  1  0
  5  6  1  6
  5  7  1  0
  5 15  1  0
  7  8  1  0
  8  9  1  6
  8 13  1  0
  9 10  1  0
 10 11  1  0
 11 12  1  0
 13 14  2  0
 13 15  1  0
M  CHG  1   4   1
M  END
