
     RDKit          3D

 15 16  0  0  0  0  0  0  0  0999 V2000
   -2.0510    0.9560    1.5500 N   0  0  0  0  0  0  0  0  0  0  0  0
   -2.2570    0.2940    0.2740 C   0  0  1  0  0  0  0  0  0  0  0  0
   -3.7310   -0.0040    0.0920 C   0  0  0  0  0  0  0  0  0  0  0  0
   -4.1950   -0.8270    1.0990 O   0  0  0  0  0  0  0  0  0  0  0  0
   -1.7520    1.1320   -0.8750 C   0  0  0  0  0  0  0  0  0  0  0  0
   -0.6830    0.2710   -1.5610 C   0  0  0  0  0  0  0  0  0  0  0  0
   -0.1510   -0.5170   -0.3940 C   0  0  2  0  0  0  0  0  0  0  0  0
    0.6960   -1.5100   -0.6920 O   0  0  0  0  0  0  0  0  0  0  0  0
    1.9590   -1.5470   -0.2260 C   0  0  0  0  0  0  0  0  0  0  0  0
    2.7990   -0.4060   -0.7080 C   0  0  2  0  0  0  0  0  0  0  0  0
    4.2100   -0.4660   -0.1610 C   0  0  0  0  0  0  0  0  0  0  0  0
    4.2390    0.5040    0.8210 O   0  0  0  0  0  0  0  0  0  0  0  0
    3.1930    1.3710    0.5880 C   0  0  0  0  0  0  0  0  0  0  0  0
    2.3740    0.8360   -0.3640 O   0  0  0  0  0  0  0  0  0  0  0  0
   -1.4410   -0.9800    0.2610 C   0  0  0  0  0  0  0  0  0  0  0  0
  2  1  1  1
  2  3  1  0
  2  5  1  0
  2 15  1  0
  3  4  1  0
  5  6  1  0
  6  7  1  0
  7  8  1  6
  7 15  1  0
  8  9  1  0
 10  9  1  1
 10 11  1  0
 10 14  1  0
 11 12  1  0
 12 13  1  0
 13 14  1  0
M  CHG  1   1   1
M  END
