
     RDKit          3D

 24 27  0  0  0  0  0  0  0  0999 V2000
   -2.3100   -2.7340   -1.6790 C   0  0  0  0  0  0  0  0  0  0  0  0
   -1.8670   -1.7210   -0.9830 C   0  0  0  0  0  0  0  0  0  0  0  0
   -2.4780   -0.3190   -0.9930 C   0  0  0  0  0  0  0  0  0  0  0  0
   -2.2820   -0.0010    0.4780 C   0  0  1  0  0  0  0  0  0  0  0  0
   -0.8410   -0.3140    0.6310 C   0  0  0  0  0  0  0  0  0  0  0  0
    0.0630    0.4500    1.1920 C   0  0  0  0  0  0  0  0  0  0  0  0
    1.4110    0.0190    1.2750 N   0  0  0  0  0  0  0  0  0  0  0  0
    2.3260    0.1430    0.1980 C   0  0  0  0  0  0  0  0  0  0  0  0
    1.9190    0.7090   -1.0140 C   0  0  0  0  0  0  0  0  0  0  0  0
    2.8040    0.8330   -2.0650 C   0  0  0  0  0  0  0  0  0  0  0  0
    4.1060    0.3940   -1.9240 C   0  0  0  0  0  0  0  0  0  0  0  0
    4.5450   -0.1690   -0.7440 C   0  0  0  0  0  0  0  0  0  0  0  0
    5.8850   -0.6290   -0.5760 N   0  0  0  0  0  0  0  0  0  0  0  0
    3.6190   -0.2700    0.2780 C   0  0  0  0  0  0  0  0  0  0  0  0
   -0.3460    1.7340    1.6460 N   0  0  0  0  0  0  0  0  0  0  0  0
   -1.7030    2.1770    1.4900 C   0  0  0  0  0  0  0  0  0  0  0  0
   -2.0170    3.4740    1.9330 C   0  0  0  0  0  0  0  0  0  0  0  0
   -3.3050    3.9000    1.7470 C   0  0  0  0  0  0  0  0  0  0  0  0
   -4.2560    3.0940    1.1510 C   0  0  0  0  0  0  0  0  0  0  0  0
   -3.9210    1.8440    0.7340 C   0  0  0  0  0  0  0  0  0  0  0  0
   -2.6140    1.3430    0.8960 C   0  0  0  0  0  0  0  0  0  0  0  0
   -0.7510   -1.6490   -0.0580 C   0  0  0  0  0  0  0  0  0  0  0  0
    0.1940   -2.5090    0.1810 C   0  0  0  0  0  0  0  0  0  0  0  0
    0.3820   -3.8320   -0.4550 C   0  0  0  0  0  0  0  0  0  0  0  0
  1  2  2  0
  2  3  1  0
  2 22  1  0
  4  3  1  6
  4  5  1  0
  4 21  1  0
  5  6  2  0
  5 22  1  0
  6  7  1  0
  6 15  1  0
  7  8  1  0
  8  9  2  0
  8 14  1  0
  9 10  1  0
 10 11  2  0
 11 12  1  0
 12 13  1  0
 12 14  2  0
 15 16  1  0
 16 17  2  0
 16 21  1  0
 17 18  1  0
 18 19  2  0
 19 20  1  0
 20 21  2  0
 22 23  2  3
 23 24  1  0
M  END
