
     RDKit          3D

 23 26  0  0  0  0  0  0  0  0999 V2000
   -1.2740    3.1580   -0.5850 C   0  0  0  0  0  0  0  0  0  0  0  0
   -1.7850    2.4740    0.6580 C   0  0  0  0  0  0  0  0  0  0  0  0
   -2.4290    1.1580    0.3640 C   0  0  0  0  0  0  0  0  0  0  0  0
   -3.8060    1.0600    0.3820 C   0  0  0  0  0  0  0  0  0  0  0  0
   -4.4660   -0.1230    0.1210 C   0  0  0  0  0  0  0  0  0  0  0  0
   -3.7160   -1.2440   -0.1670 C   0  0  0  0  0  0  0  0  0  0  0  0
   -2.3420   -1.1670   -0.1910 C   0  0  0  0  0  0  0  0  0  0  0  0
   -1.6920    0.0320    0.0740 C   0  0  0  0  0  0  0  0  0  0  0  0
   -0.2900    0.0680    0.0390 N   0  0  0  0  0  0  0  0  0  0  0  0
    0.4780   -1.1380   -0.2490 C   0  0  0  0  0  0  0  0  0  0  0  0
    1.9270   -0.8050   -0.2150 C   0  0  0  0  0  0  0  0  0  0  0  0
    2.7410   -0.7630    0.9210 C   0  0  0  0  0  0  0  0  0  0  0  0
    4.0280   -0.4190    0.5680 C   0  0  0  0  0  0  0  0  0  0  0  0
    5.1850   -0.2480    1.3100 C   0  0  0  0  0  0  0  0  0  0  0  0
    6.3320    0.1030    0.6510 C   0  0  0  0  0  0  0  0  0  0  0  0
    6.3170    0.2790   -0.7320 C   0  0  0  0  0  0  0  0  0  0  0  0
    7.5010    0.6410   -1.4120 N   0  0  0  0  0  0  0  0  0  0  0  0
    5.1560    0.1030   -1.4470 C   0  0  0  0  0  0  0  0  0  0  0  0
    3.9960   -0.2490   -0.8010 C   0  0  0  0  0  0  0  0  0  0  0  0
    2.7310   -0.4860   -1.2320 N   0  0  0  0  0  0  0  0  0  0  0  0
   -4.6340   -2.4040   -0.4140 C   0  0  0  0  0  0  0  0  0  0  0  0
   -5.8090   -1.9880    0.4840 C   0  0  0  0  0  0  0  0  0  0  0  0
   -5.9080   -0.5150    0.0700 C   0  0  0  0  0  0  0  0  0  0  0  0
  1  2  1  0
  2  3  1  0
  3  4  2  0
  3  8  1  0
  4  5  1  0
  5  6  2  0
  5 23  1  0
  6  7  1  0
  6 21  1  0
  7  8  2  0
  8  9  1  0
  9 10  1  0
 10 11  1  0
 11 12  2  0
 11 20  1  0
 12 13  1  0
 13 14  2  0
 13 19  1  0
 14 15  1  0
 15 16  2  0
 16 17  1  0
 16 18  1  0
 18 19  2  0
 19 20  1  0
 21 22  1  0
 22 23  1  0
M  END
