
     RDKit          3D

 24 26  0  0  0  0  0  0  0  0999 V2000
   -0.8370    3.4660    1.1100 C   0  0  0  0  0  0  0  0  0  0  0  0
   -0.9990    2.2610    0.6880 C   0  0  0  0  0  0  0  0  0  0  0  0
   -2.2860    1.5250    0.8150 C   0  0  0  0  0  0  0  0  0  0  0  0
   -3.3250    2.0810    1.4130 C   0  0  0  0  0  0  0  0  0  0  0  0
   -2.3060    0.1910    0.2670 C   0  0  0  0  0  0  0  0  0  0  0  0
   -3.5470   -0.1760   -0.0830 C   0  0  0  0  0  0  0  0  0  0  0  0
   -3.9960   -1.4580   -0.6730 C   0  0  0  0  0  0  0  0  0  0  0  0
   -3.4810   -2.6460    0.1110 C   0  0  0  0  0  0  0  0  0  0  0  0
   -2.0280   -2.8380   -0.2530 C   0  0  0  0  0  0  0  0  0  0  0  0
   -1.2440   -1.9680    0.5520 N   0  0  0  0  0  0  0  0  0  0  0  0
   -0.2060   -2.5650    1.2890 C   0  0  0  0  0  0  0  0  0  0  0  0
   -1.0970   -0.6520    0.0860 C   0  0  2  0  0  0  0  0  0  0  0  0
    0.1860    0.0210    0.4500 C   0  0  1  0  0  0  0  0  0  0  0  0
    1.2530   -0.5340   -0.3380 N   0  0  0  0  0  0  0  0  0  0  0  0
    2.6220   -0.2590   -0.1270 C   0  0  0  0  0  0  0  0  0  0  0  0
    3.0560    0.5700    0.8890 C   0  0  0  0  0  0  0  0  0  0  0  0
    4.3800    0.8400    1.1060 C   0  0  0  0  0  0  0  0  0  0  0  0
    5.2970    0.2560    0.2720 C   0  0  0  0  0  0  0  0  0  0  0  0
    4.9220   -0.5800   -0.7580 C   0  0  0  0  0  0  0  0  0  0  0  0
    3.5650   -0.8320   -0.9480 C   0  0  0  0  0  0  0  0  0  0  0  0
    3.1880   -1.6940   -2.0120 N   0  0  0  0  0  0  0  0  0  0  0  0
    0.0510    1.4760    0.0160 C   0  0  0  0  0  0  0  0  0  0  0  0
    0.7660    2.0200   -0.9080 C   0  0  0  0  0  0  0  0  0  0  0  0
    0.6370    3.4040   -1.3850 C   0  0  0  0  0  0  0  0  0  0  0  0
  1  2  2  0
  2  3  1  0
  2 22  1  0
  3  4  2  0
  3  5  1  0
  5  6  2  0
  5 12  1  0
  6  7  1  0
  7  8  1  0
  8  9  1  0
  9 10  1  0
 10 11  1  0
 12 10  1  1
 12 13  1  0
 13 14  1  6
 13 22  1  0
 14 15  1  0
 15 16  2  0
 15 20  1  0
 16 17  1  0
 17 18  2  0
 18 19  1  0
 19 20  2  0
 20 21  1  0
 22 23  2  3
 23 24  1  0
M  END
