
     RDKit          3D

 23 26  0  0  0  0  0  0  0  0999 V2000
    6.2760   -2.6560   -0.7840 C   0  0  0  0  0  0  0  0  0  0  0  0
    5.3320   -1.5730   -0.3440 C   0  0  0  0  0  0  0  0  0  0  0  0
    5.8170   -0.2930   -0.1780 C   0  0  0  0  0  0  0  0  0  0  0  0
    4.9830    0.7240    0.2210 C   0  0  0  0  0  0  0  0  0  0  0  0
    3.6380    0.4520    0.4600 C   0  0  0  0  0  0  0  0  0  0  0  0
    3.1540   -0.8240    0.2960 C   0  0  0  0  0  0  0  0  0  0  0  0
    1.7610   -1.1410    0.5120 C   0  0  0  0  0  0  0  0  0  0  0  0
    0.7140   -0.5290    0.0330 C   0  0  0  0  0  0  0  0  0  0  0  0
   -0.7290   -0.9090    0.3020 C   0  0  0  0  0  0  0  0  0  0  0  0
   -1.3210    0.4620    0.3500 C   0  0  2  0  0  0  0  0  0  0  0  0
   -2.7670    0.5810    0.2540 C   0  0  0  0  0  0  0  0  0  0  0  0
   -3.2090    1.8910   -0.0240 C   0  0  0  0  0  0  0  0  0  0  0  0
   -4.5370    2.1880   -0.1670 C   0  0  0  0  0  0  0  0  0  0  0  0
   -5.4650    1.1730   -0.0340 C   0  0  0  0  0  0  0  0  0  0  0  0
   -5.0290   -0.1220    0.2420 C   0  0  0  0  0  0  0  0  0  0  0  0
   -6.0450   -1.1250    0.3650 N   0  0  0  0  0  0  0  0  0  0  0  0
   -3.6880   -0.4260    0.3870 C   0  0  0  0  0  0  0  0  0  0  0  0
   -3.2430   -1.7260    0.6790 N   0  0  0  0  0  0  0  0  0  0  0  0
   -2.1550    2.9200   -0.1410 C   0  0  0  0  0  0  0  0  0  0  0  0
   -0.9600    2.4190   -0.9200 C   0  0  0  0  0  0  0  0  0  0  0  0
   -0.7800    1.0110   -0.9060 N   0  0  0  0  0  0  0  0  0  0  0  0
    0.6180    0.6080   -0.8830 C   0  0  0  0  0  0  0  0  0  0  0  0
    4.0050   -1.8170   -0.1030 C   0  0  0  0  0  0  0  0  0  0  0  0
  1  2  1  0
  2  3  2  0
  2 23  1  0
  3  4  1  0
  4  5  2  0
  5  6  1  0
  6  7  1  0
  6 23  2  0
  7  8  2  3
  8  9  1  0
  8 22  1  0
 10  9  1  6
 10 11  1  0
 10 21  1  0
 11 12  2  0
 11 17  1  0
 12 13  1  0
 12 19  1  0
 13 14  2  0
 14 15  1  0
 15 16  1  0
 15 17  2  0
 17 18  1  0
 19 20  1  0
 20 21  1  0
 21 22  1  0
M  END
