
     RDKit          3D

 24 27  0  0  0  0  0  0  0  0999 V2000
   -5.6430    2.2070    1.1680 C   0  0  0  0  0  0  0  0  0  0  0  0
   -4.7950    1.2620    0.4220 C   0  0  0  0  0  0  0  0  0  0  0  0
   -3.5950    0.7300    0.8240 C   0  0  0  0  0  0  0  0  0  0  0  0
   -3.1070   -0.1170   -0.1670 C   0  0  0  0  0  0  0  0  0  0  0  0
   -1.8600   -0.8530   -0.0910 C   0  0  0  0  0  0  0  0  0  0  0  0
   -0.6610   -0.1670   -0.0750 C   0  0  0  0  0  0  0  0  0  0  0  0
    0.5770   -0.7670    0.0090 C   0  0  0  0  0  0  0  0  0  0  0  0
    1.7580    0.0790    0.0090 C   0  0  1  0  0  0  0  0  0  0  0  0
    2.2090    0.2330    1.4660 C   0  0  0  0  0  0  0  0  0  0  0  0
    3.1010    1.4800    1.4480 C   0  0  0  0  0  0  0  0  0  0  0  0
    4.2570    1.1240    0.5850 C   0  0  0  0  0  0  0  0  0  0  0  0
    5.4680    1.7210    0.8460 C   0  0  0  0  0  0  0  0  0  0  0  0
    6.6060    1.4470    0.0940 C   0  0  0  0  0  0  0  0  0  0  0  0
    6.4620    0.5380   -0.9390 C   0  0  0  0  0  0  0  0  0  0  0  0
    5.2640   -0.0460   -1.1920 C   0  0  0  0  0  0  0  0  0  0  0  0
    4.1400    0.2120   -0.4630 C   0  0  0  0  0  0  0  0  0  0  0  0
    2.8770   -0.4000   -0.7350 N   0  0  0  0  0  0  0  0  0  0  0  0
    0.5920   -2.1500    0.0810 C   0  0  0  0  0  0  0  0  0  0  0  0
   -0.5880   -2.8670    0.0670 C   0  0  0  0  0  0  0  0  0  0  0  0
   -1.8080   -2.2320   -0.0180 C   0  0  0  0  0  0  0  0  0  0  0  0
   -2.9940   -2.9720   -0.0340 N   0  0  0  0  0  0  0  0  0  0  0  0
   -4.0450   -0.0760   -1.1630 C   0  0  0  0  0  0  0  0  0  0  0  0
   -3.9570   -0.8360   -2.4400 C   0  0  0  0  0  0  0  0  0  0  0  0
   -5.0560    0.7630   -0.7890 N   0  0  0  0  0  0  0  0  0  0  0  0
  1  2  1  0
  2  3  2  0
  2 24  1  0
  3  4  1  0
  4  5  1  0
  4 22  2  0
  5  6  2  0
  5 20  1  0
  6  7  1  0
  8  7  1  1
  7 18  2  0
  8  9  1  0
  8 17  1  0
  9 10  1  0
 10 11  1  0
 11 12  2  0
 11 16  1  0
 12 13  1  0
 13 14  2  0
 14 15  1  0
 15 16  2  0
 16 17  1  0
 18 19  1  0
 19 20  2  0
 20 21  1  0
 22 23  1  0
 22 24  1  0
M  END
