
     RDKit          3D

 24 27  0  0  0  0  0  0  0  0999 V2000
    4.1220    1.4560    0.8180 C   0  0  0  0  0  0  0  0  0  0  0  0
    4.7390    1.1310   -0.4980 C   0  0  0  0  0  0  0  0  0  0  0  0
    3.8450    0.7230   -1.6060 C   0  0  0  0  0  0  0  0  0  0  0  0
    3.0100   -0.4540   -1.3880 C   0  0  0  0  0  0  0  0  0  0  0  0
    3.4830   -1.7060   -1.7510 C   0  0  0  0  0  0  0  0  0  0  0  0
    2.7770   -2.8450   -1.5090 C   0  0  0  0  0  0  0  0  0  0  0  0
    1.5350   -2.7200   -0.8720 C   0  0  0  0  0  0  0  0  0  0  0  0
    1.0610   -1.4850   -0.5120 C   0  0  0  0  0  0  0  0  0  0  0  0
   -0.1760   -1.3980    0.0950 C   0  0  0  0  0  0  0  0  0  0  0  0
   -0.7350   -0.1980    0.4680 C   0  0  0  0  0  0  0  0  0  0  0  0
   -2.0430   -0.1000    1.1300 C   0  0  2  0  0  0  0  0  0  0  0  0
   -2.7010   -1.4710    1.2890 C   0  0  0  0  0  0  0  0  0  0  0  0
   -3.3100   -2.0160    0.0660 C   0  0  0  0  0  0  0  0  0  0  0  0
   -3.5330   -1.1260   -1.0880 C   0  0  0  0  0  0  0  0  0  0  0  0
   -3.3980    0.1850   -0.9650 C   0  0  0  0  0  0  0  0  0  0  0  0
   -3.6180    1.0210   -2.0740 N   0  0  0  0  0  0  0  0  0  0  0  0
   -3.0040    0.7340    0.3530 C   0  0  0  0  0  0  0  0  0  0  0  0
   -3.3690    1.7650    1.0270 C   0  0  0  0  0  0  0  0  0  0  0  0
   -2.7480    1.8160    2.3560 C   0  0  0  0  0  0  0  0  0  0  0  0
   -1.8990    0.5820    2.4320 C   0  0  0  0  0  0  0  0  0  0  0  0
    0.0140    0.9280    0.2000 C   0  0  0  0  0  0  0  0  0  0  0  0
   -0.4670    2.0710    0.5140 N   0  0  0  0  0  0  0  0  0  0  0  0
    1.2370    0.8320   -0.4000 N   0  0  0  0  0  0  0  0  0  0  0  0
    1.7830   -0.3440   -0.7630 C   0  0  0  0  0  0  0  0  0  0  0  0
  1  2  1  0
  2  3  1  0
  3  4  1  0
  4  5  2  0
  4 24  1  0
  5  6  1  0
  6  7  2  0
  7  8  1  0
  8  9  1  0
  8 24  2  0
  9 10  2  0
 11 10  1  6
 10 21  1  0
 11 12  1  0
 11 17  1  0
 11 20  1  0
 12 13  1  0
 13 14  1  0
 14 15  2  0
 15 16  1  0
 15 17  1  0
 17 18  2  0
 18 19  1  0
 19 20  1  0
 21 22  2  0
 21 23  1  0
 23 24  1  0
M  END
