
     RDKit          3D

 24 27  0  0  0  0  0  0  0  0999 V2000
    2.3460   -0.0680    2.2630 C   0  0  0  0  0  0  0  0  0  0  0  0
    2.0620   -0.6880    0.9020 C   0  0  1  0  0  0  0  0  0  0  0  0
    2.8390   -0.0610   -0.1660 C   0  0  0  0  0  0  0  0  0  0  0  0
    2.5810   -0.3110   -1.4970 C   0  0  0  0  0  0  0  0  0  0  0  0
    3.3190    0.2780   -2.5110 C   0  0  0  0  0  0  0  0  0  0  0  0
    4.3540    1.1490   -2.2200 C   0  0  0  0  0  0  0  0  0  0  0  0
    4.6190    1.4060   -0.8950 C   0  0  0  0  0  0  0  0  0  0  0  0
    5.6800    2.2990   -0.5890 N   0  0  0  0  0  0  0  0  0  0  0  0
    3.8740    0.8120    0.1230 C   0  0  0  0  0  0  0  0  0  0  0  0
    2.3280   -2.1100    1.0370 N   0  0  0  0  0  0  0  0  0  0  0  0
    1.2550   -2.5490    1.9040 C   0  0  0  0  0  0  0  0  0  0  0  0
    0.1280   -1.6810    1.5970 N   0  0  0  0  0  0  0  0  0  0  0  0
    0.5960   -0.6920    0.6870 C   0  0  0  0  0  0  0  0  0  0  0  0
   -0.1550    0.0230   -0.1150 C   0  0  0  0  0  0  0  0  0  0  0  0
   -1.5880   -0.1110   -0.2040 C   0  0  0  0  0  0  0  0  0  0  0  0
   -2.2180   -1.3550   -0.2120 C   0  0  0  0  0  0  0  0  0  0  0  0
   -3.5900   -1.4900   -0.2840 C   0  0  0  0  0  0  0  0  0  0  0  0
   -4.3980   -0.3640   -0.3540 C   0  0  0  0  0  0  0  0  0  0  0  0
   -5.7800   -0.4730   -0.4260 C   0  0  0  0  0  0  0  0  0  0  0  0
   -6.5790    0.6470   -0.4930 C   0  0  0  0  0  0  0  0  0  0  0  0
   -5.9910    1.8890   -0.4880 C   0  0  0  0  0  0  0  0  0  0  0  0
   -4.6170    1.9940   -0.4160 C   0  0  0  0  0  0  0  0  0  0  0  0
   -3.8060    0.8620   -0.3480 C   0  0  0  0  0  0  0  0  0  0  0  0
   -2.4310    0.9910   -0.2750 C   0  0  0  0  0  0  0  0  0  0  0  0
  2  1  1  1
  2  3  1  0
  2 10  1  0
  2 13  1  0
  3  4  2  0
  3  9  1  0
  4  5  1  0
  5  6  2  0
  6  7  1  0
  7  8  1  0
  7  9  2  0
 10 11  1  0
 11 12  1  0
 12 13  1  0
 13 14  2  3
 14 15  1  0
 15 16  2  0
 15 24  1  0
 16 17  1  0
 17 18  2  0
 18 19  1  0
 18 23  1  0
 19 20  2  0
 20 21  1  0
 21 22  2  0
 22 23  1  0
 23 24  2  0
M  END
