
     RDKit          3D

 24 27  0  0  0  0  0  0  0  0999 V2000
   -3.1920    1.6720    1.6990 C   0  0  0  0  0  0  0  0  0  0  0  0
   -3.8660    1.8650    0.3360 C   0  0  0  0  0  0  0  0  0  0  0  0
   -4.1980    0.5330   -0.2250 C   0  0  0  0  0  0  0  0  0  0  0  0
   -5.4910    0.0740   -0.2000 C   0  0  0  0  0  0  0  0  0  0  0  0
   -5.8560   -1.1620   -0.7070 C   0  0  0  0  0  0  0  0  0  0  0  0
   -4.8760   -1.9640   -1.2600 C   0  0  0  0  0  0  0  0  0  0  0  0
   -3.5710   -1.4830   -1.2760 C   0  0  0  0  0  0  0  0  0  0  0  0
   -3.2120   -0.2670   -0.7780 C   0  0  0  0  0  0  0  0  0  0  0  0
   -1.8670    0.2610   -0.7920 C   0  0  0  0  0  0  0  0  0  0  0  0
   -0.8070   -0.4480   -0.5310 C   0  0  0  0  0  0  0  0  0  0  0  0
    0.6010    0.0140   -0.5250 C   0  0  0  0  0  0  0  0  0  0  0  0
    1.3160   -0.7540    0.2680 C   0  0  0  0  0  0  0  0  0  0  0  0
    2.7490   -0.5160    0.4560 C   0  0  0  0  0  0  0  0  0  0  0  0
    3.3290    0.4680   -0.1650 C   0  0  0  0  0  0  0  0  0  0  0  0
    4.7850    0.6710    0.0550 C   0  0  0  0  0  0  0  0  0  0  0  0
    5.6160   -0.0670    0.8580 C   0  0  0  0  0  0  0  0  0  0  0  0
    6.9040    0.4540    0.7830 C   0  0  0  0  0  0  0  0  0  0  0  0
    6.8090    1.5220   -0.0890 C   0  0  0  0  0  0  0  0  0  0  0  0
    5.5340    1.6250   -0.5060 N   0  0  0  0  0  0  0  0  0  0  0  0
    2.6380    1.3880   -1.0640 C   0  0  0  0  0  0  0  0  0  0  0  0
    1.2460    1.0820   -1.1890 N   0  0  0  0  0  0  0  0  0  0  0  0
    0.4260   -1.7940    0.8750 C   0  0  0  0  0  0  0  0  0  0  0  0
   -0.6990   -1.8800   -0.1620 C   0  0  2  0  0  0  0  0  0  0  0  0
   -0.1550   -2.6770   -1.2520 N   0  0  0  0  0  0  0  0  0  0  0  0
  1  2  1  0
  2  3  1  0
  3  4  2  0
  3  8  1  0
  4  5  1  0
  5  6  2  0
  6  7  1  0
  7  8  2  0
  8  9  1  0
  9 10  2  3
 10 11  1  0
 10 23  1  0
 11 12  2  0
 11 21  1  0
 12 13  1  0
 12 22  1  0
 13 14  2  0
 14 15  1  0
 14 20  1  0
 15 16  2  0
 15 19  1  0
 16 17  1  0
 17 18  2  0
 18 19  1  0
 20 21  1  0
 22 23  1  0
 23 24  1  6
M  END
