
     RDKit          3D

 11 11  0  0  0  0  0  0  0  0999 V2000
    4.0360   -0.7970    0.2040 O   0  0  0  0  0  0  0  0  0  0  0  0
    2.8320   -0.1430    0.4660 C   0  0  0  0  0  0  0  0  0  0  0  0
    1.8170   -0.7610   -0.2690 O   0  0  0  0  0  0  0  0  0  0  0  0
    0.5050   -0.3120   -0.1990 C   0  0  0  0  0  0  0  0  0  0  0  0
    0.1720    0.7580    0.6000 C   0  0  0  0  0  0  0  0  0  0  0  0
   -1.1390    1.2000    0.6650 C   0  0  0  0  0  0  0  0  0  0  0  0
   -2.1530    0.6000   -0.0550 C   0  0  0  0  0  0  0  0  0  0  0  0
   -3.4800    1.0540    0.0150 O   0  0  0  0  0  0  0  0  0  0  0  0
   -1.8180   -0.4720   -0.8550 C   0  0  0  0  0  0  0  0  0  0  0  0
   -2.8460   -1.0680   -1.5760 O   0  0  0  0  0  0  0  0  0  0  0  0
   -0.5040   -0.9120   -0.9170 C   0  0  0  0  0  0  0  0  0  0  0  0
  1  2  1  0
  2  3  1  0
  3  4  1  0
  4  5  2  0
  4 11  1  0
  5  6  1  0
  6  7  2  0
  7  8  1  0
  7  9  1  0
  9 10  1  0
  9 11  2  0
M  END
