
     RDKit          3D

 10 10  0  0  0  0  0  0  0  0999 V2000
   -0.1170    2.2690   -0.6280 O   0  0  0  0  0  0  0  0  0  0  0  0
    1.0250    1.5520   -0.2920 C   0  0  0  0  0  0  0  0  0  0  0  0
    0.7030    0.0660   -0.1140 C   0  0  1  0  0  0  0  0  0  0  0  0
    2.0510   -0.6010    0.1650 C   0  0  0  0  0  0  0  0  0  0  0  0
    1.9400   -1.9740    0.2350 O   0  0  0  0  0  0  0  0  0  0  0  0
   -0.1500   -0.1770    1.0790 C   0  0  0  0  0  0  0  0  0  0  0  0
   -1.6010    0.1590    0.8920 C   0  0  0  0  0  0  0  0  0  0  0  0
   -2.0620   -0.2760   -0.4710 C   0  0  0  0  0  0  0  0  0  0  0  0
   -1.0170   -0.9960   -1.2610 C   0  0  0  0  0  0  0  0  0  0  0  0
    0.2050   -0.3780   -1.2990 O   0  0  0  0  0  0  0  0  0  0  0  0
  1  2  1  0
  3  2  1  6
  3  4  1  0
  3  6  1  0
  3 10  1  0
  4  5  1  0
  6  7  1  0
  7  8  1  0
  8  9  1  0
  9 10  1  0
M  END
