
     RDKit          3D

 10 10  0  0  0  0  0  0  0  0999 V2000
   -0.6560    2.3780   -0.2260 O   0  0  0  0  0  0  0  0  0  0  0  0
   -1.4900    1.2360   -0.3020 C   0  0  0  0  0  0  0  0  0  0  0  0
   -0.5500    0.0480   -0.2830 C   0  0  2  0  0  0  0  0  0  0  0  0
   -1.2610   -1.2700   -0.3580 C   0  0  0  0  0  0  0  0  0  0  0  0
   -2.1260   -1.4240    0.7170 O   0  0  0  0  0  0  0  0  0  0  0  0
    0.2310    0.1390    1.0060 C   0  0  0  0  0  0  0  0  0  0  0  0
    1.3900   -0.8270    1.0260 C   0  0  0  0  0  0  0  0  0  0  0  0
    2.2320   -0.5020   -0.2120 C   0  0  0  0  0  0  0  0  0  0  0  0
    1.4990   -0.6040   -1.3630 O   0  0  0  0  0  0  0  0  0  0  0  0
    0.4100    0.2450   -1.4340 C   0  0  0  0  0  0  0  0  0  0  0  0
  1  2  1  0
  3  2  1  1
  3  4  1  0
  3  6  1  0
  3 10  1  0
  4  5  1  0
  6  7  1  0
  7  8  1  0
  8  9  1  0
  9 10  1  0
M  END
