
     RDKit          3D

 10 10  0  0  0  0  0  0  0  0999 V2000
    3.2520   -1.2790   -0.4250 O   0  0  0  0  0  0  0  0  0  0  0  0
    3.3490    0.1000   -0.5730 C   0  0  0  0  0  0  0  0  0  0  0  0
    2.2880    0.7430    0.3100 C   0  0  0  0  0  0  0  0  0  0  0  0
    1.0450    0.2940   -0.0990 O   0  0  0  0  0  0  0  0  0  0  0  0
    0.0470    0.8590    0.6840 C   0  0  0  0  0  0  0  0  0  0  0  0
   -1.2540    0.3420    0.2020 C   0  0  0  0  0  0  0  0  0  0  0  0
   -2.1000   -0.3450    0.9410 C   0  0  0  0  0  0  0  0  0  0  0  0
   -3.2720   -0.6750    0.1030 C   0  0  0  0  0  0  0  0  0  0  0  0
   -2.7440   -0.4840   -1.2970 C   0  0  0  0  0  0  0  0  0  0  0  0
   -1.7470    0.5160   -1.0850 O   0  0  0  0  0  0  0  0  0  0  0  0
  1  2  1  0
  2  3  1  0
  3  4  1  0
  4  5  1  0
  5  6  1  0
  6  7  2  0
  6 10  1  0
  7  8  1  0
  8  9  1  0
  9 10  1  0
M  END
