
     RDKit          3D

 11 11  0  0  0  0  0  0  0  0999 V2000
   -0.7580    2.0090    0.7640 C   0  0  0  0  0  0  0  0  0  0  0  0
   -1.2020    0.5810    0.6120 C   0  0  0  0  0  0  0  0  0  0  0  0
   -2.0920   -0.0280    1.3990 O   0  0  0  0  0  0  0  0  0  0  0  0
   -2.2910   -1.2510    1.0450 C   0  0  0  0  0  0  0  0  0  0  0  0
   -1.5030   -1.5270   -0.0480 C   0  0  0  0  0  0  0  0  0  0  0  0
   -1.3690   -2.6870   -0.7770 O   0  0  0  0  0  0  0  0  0  0  0  0
   -0.8060   -0.3300   -0.3120 C   0  0  0  0  0  0  0  0  0  0  0  0
    0.1010   -0.1950   -1.3470 O   0  0  0  0  0  0  0  0  0  0  0  0
    1.4510   -0.5160   -1.2160 C   0  0  0  0  0  0  0  0  0  0  0  0
    2.1420    0.3150   -0.1970 C   0  0  0  0  0  0  0  0  0  0  0  0
    2.0610    1.6500   -0.5860 O   0  0  0  0  0  0  0  0  0  0  0  0
  1  2  1  0
  2  3  1  0
  2  7  2  0
  3  4  1  0
  4  5  2  0
  5  6  1  0
  5  7  1  0
  7  8  1  0
  8  9  1  0
  9 10  1  0
 10 11  1  0
M  END
