
     RDKit          3D

 10 10  0  0  0  0  0  0  0  0999 V2000
    2.9330    0.6120    0.2400 C   0  0  0  0  0  0  0  0  0  0  0  0
    2.0240    0.0450    1.0760 O   0  0  0  0  0  0  0  0  0  0  0  0
    1.0530   -0.7520    0.5770 C   0  0  0  0  0  0  0  0  0  0  0  0
    0.1370   -0.0870   -0.4160 C   0  0  1  0  0  0  0  0  0  0  0  0
    0.8990    0.3190   -1.5030 O   0  0  0  0  0  0  0  0  0  0  0  0
   -0.8030   -1.1600   -0.9270 C   0  0  0  0  0  0  0  0  0  0  0  0
   -1.9570   -1.1860    0.0600 C   0  0  0  0  0  0  0  0  0  0  0  0
   -2.7200   -0.0660   -0.2490 O   0  0  0  0  0  0  0  0  0  0  0  0
   -2.0530    1.1210   -0.0720 C   0  0  0  0  0  0  0  0  0  0  0  0
   -0.6150    1.0490    0.2110 C   0  0  0  0  0  0  0  0  0  0  0  0
  1  2  1  0
  2  3  1  0
  3  4  1  0
  4  5  1  6
  4  6  1  0
  4 10  1  0
  6  7  1  0
  7  8  1  0
  8  9  1  0
  9 10  1  0
M  END
