
     RDKit          3D

 11 11  0  0  0  0  0  0  0  0999 V2000
    3.6520   -1.6750   -0.7500 O   0  0  0  0  0  0  0  0  0  0  0  0
    2.4930   -1.0580   -0.6310 C   0  0  0  0  0  0  0  0  0  0  0  0
    1.4120   -0.4840   -0.5190 O   0  0  0  0  0  0  0  0  0  0  0  0
    0.2870    0.1220   -0.4130 C   0  0  0  0  0  0  0  0  0  0  0  0
   -0.1220    1.1040   -1.3380 C   0  0  0  0  0  0  0  0  0  0  0  0
   -1.3100    1.7370   -1.2270 C   0  0  0  0  0  0  0  0  0  0  0  0
   -2.1900    1.4680   -0.2140 C   0  0  0  0  0  0  0  0  0  0  0  0
   -1.8230    0.5090    0.7190 C   0  0  0  0  0  0  0  0  0  0  0  0
   -2.7280    0.2650    1.7210 O   0  0  0  0  0  0  0  0  0  0  0  0
   -0.6350   -0.1360    0.6240 C   0  0  0  0  0  0  0  0  0  0  0  0
   -0.2340   -1.1070    1.5500 O   0  0  0  0  0  0  0  0  0  0  0  0
  1  2  1  0
  2  3  1  0
  3  4  1  0
  4  5  2  0
  4 10  1  0
  5  6  1  0
  6  7  2  0
  7  8  1  0
  8  9  1  0
  8 10  2  0
 10 11  1  0
M  END
