
     RDKit          3D

 11 11  0  0  0  0  0  0  0  0999 V2000
   -3.8220    0.4970    0.4610 C   0  0  0  0  0  0  0  0  0  0  0  0
   -2.4260    0.2920    0.0200 C   0  0  0  0  0  0  0  0  0  0  0  0
   -2.1040   -0.0610   -1.2040 O   0  0  0  0  0  0  0  0  0  0  0  0
   -0.7930   -0.1690   -1.3090 C   0  0  0  0  0  0  0  0  0  0  0  0
   -0.2070    0.1250   -0.0960 C   0  0  0  0  0  0  0  0  0  0  0  0
    1.1450    0.1250    0.2100 O   0  0  0  0  0  0  0  0  0  0  0  0
    2.0670   -0.2040   -0.7920 C   0  0  0  0  0  0  0  0  0  0  0  0
    3.4890   -0.1660   -0.3320 C   0  0  0  0  0  0  0  0  0  0  0  0
    3.7320   -1.0540    0.7100 O   0  0  0  0  0  0  0  0  0  0  0  0
   -1.2550    0.4190    0.7510 C   0  0  0  0  0  0  0  0  0  0  0  0
   -1.1530    0.7720    2.0730 O   0  0  0  0  0  0  0  0  0  0  0  0
  1  2  1  0
  2  3  1  0
  2 10  2  0
  3  4  1  0
  4  5  2  0
  5  6  1  0
  5 10  1  0
  6  7  1  0
  7  8  1  0
  8  9  1  0
 10 11  1  0
M  END
