
     RDKit          3D

 28 30  0  0  0  0  0  0  0  0999 V2000
    8.6880    0.8240   -0.9150 C   0  0  0  0  0  0  0  0  0  0  0  0
    7.5160    1.7340   -0.7020 C   0  0  0  0  0  0  0  0  0  0  0  0
    6.5590    1.4080    0.1460 C   0  0  0  0  0  0  0  0  0  0  0  0
    5.4730    2.2900    0.3200 N   0  0  0  0  0  0  0  0  0  0  0  0
    4.3230    1.8240    0.6260 C   0  0  0  0  0  0  0  0  0  0  0  0
    3.1760    2.7420    0.8110 C   0  0  0  0  0  0  0  0  0  0  0  0
    1.9250    1.8610    0.6480 C   0  0  0  0  0  0  0  0  0  0  0  0
    1.9590    0.9030    1.7930 C   0  0  1  0  0  0  0  0  0  0  0  0
    3.1500   -0.0010    1.7780 C   0  0  0  0  0  0  0  0  0  0  0  0
    4.1130    0.4350    0.7900 N   0  0  0  0  0  0  0  0  0  0  0  0
    1.3930    1.4190    3.0630 C   0  0  0  0  0  0  0  0  0  0  0  0
    0.7050    0.3190    2.3910 C   0  0  1  0  0  0  0  0  0  0  0  0
   -0.4810    0.5500    1.5720 N   0  0  0  0  0  0  0  0  0  0  0  0
   -1.4840   -0.4250    1.4020 C   0  0  0  0  0  0  0  0  0  0  0  0
   -1.2640   -1.5160    2.0370 O   0  0  0  0  0  0  0  0  0  0  0  0
   -2.6960   -0.2560    0.5770 C   0  0  0  0  0  0  0  0  0  0  0  0
   -3.5300   -1.2710    0.5920 C   0  0  0  0  0  0  0  0  0  0  0  0
   -4.7890   -1.4030   -0.0980 C   0  0  0  0  0  0  0  0  0  0  0  0
   -5.7660   -0.4540    0.0160 C   0  0  0  0  0  0  0  0  0  0  0  0
   -6.9430   -0.6460   -0.7090 C   0  0  0  0  0  0  0  0  0  0  0  0
   -7.1460   -1.7320   -1.5160 C   0  0  0  0  0  0  0  0  0  0  0  0
   -6.1150   -2.6810   -1.6010 C   0  0  0  0  0  0  0  0  0  0  0  0
   -4.9440   -2.5190   -0.8990 C   0  0  0  0  0  0  0  0  0  0  0  0
   -3.9520   -3.4840   -1.0160 O   0  0  0  0  0  0  0  0  0  0  0  0
   -4.0610   -4.6250   -1.8080 C   0  0  0  0  0  0  0  0  0  0  0  0
   -2.8900    0.9610   -0.2120 C   0  0  0  0  0  0  0  0  0  0  0  0
   -1.9270    1.1360   -1.3610 C   0  0  0  0  0  0  0  0  0  0  0  0
   -2.0020    0.0670   -2.3160 N   0  0  0  0  0  0  0  0  0  0  0  0
  1  2  1  0
  2  3  2  3
  3  4  1  0
  4  5  2  3
  5  6  1  0
  5 10  1  0
  6  7  1  0
  8  7  1  6
  8  9  1  0
  8 11  1  0
  8 12  1  0
  9 10  1  0
 11 12  1  0
 12 13  1  6
 13 14  1  0
 14 15  2  0
 14 16  1  0
 16 17  2  3
 16 26  1  0
 17 18  1  0
 18 19  2  0
 18 23  1  0
 19 20  1  0
 20 21  2  0
 21 22  1  0
 22 23  2  0
 23 24  1  0
 24 25  1  0
 26 27  1  0
 27 28  1  0
M  CHG  2   4   1  28   1
M  END
