
     RDKit          3D

 28 30  0  0  0  0  0  0  0  0999 V2000
   -7.1360   -0.7110    2.3340 C   0  0  0  0  0  0  0  0  0  0  0  0
   -5.6310   -0.5460    2.0950 C   0  0  0  0  0  0  0  0  0  0  0  0
   -5.5020   -0.1700    0.6130 C   0  0  2  0  0  0  0  0  0  0  0  0
   -6.2750    1.1210    0.4320 C   0  0  0  0  0  0  0  0  0  0  0  0
   -6.1510   -1.3160   -0.1490 C   0  0  0  0  0  0  0  0  0  0  0  0
   -6.0470   -1.0830   -1.6170 C   0  0  0  0  0  0  0  0  0  0  0  0
   -4.9360   -0.1860   -2.0350 C   0  0  0  0  0  0  0  0  0  0  0  0
   -3.7780   -0.2420   -1.1530 N   0  0  1  0  0  0  0  0  0  0  0  0
   -2.8210    0.7190   -1.7140 C   0  0  0  0  0  0  0  0  0  0  0  0
   -1.4430    0.4320   -1.2410 C   0  0  0  0  0  0  0  0  0  0  0  0
   -1.2190   -0.5220   -0.4670 O   0  0  0  0  0  0  0  0  0  0  0  0
   -0.3940    1.2690   -1.6900 N   0  0  0  0  0  0  0  0  0  0  0  0
    0.9770    1.1010   -1.3100 C   0  0  0  0  0  0  0  0  0  0  0  0
    1.5060    0.1930   -0.5110 C   0  0  0  0  0  0  0  0  0  0  0  0
    2.9590    0.3730   -0.3850 C   0  0  0  0  0  0  0  0  0  0  0  0
    3.7860   -0.3760    0.3040 C   0  0  0  0  0  0  0  0  0  0  0  0
    5.1980   -0.1780    0.4160 C   0  0  0  0  0  0  0  0  0  0  0  0
    5.7990    1.0080    0.7790 C   0  0  0  0  0  0  0  0  0  0  0  0
    7.1620    1.1870    0.8510 C   0  0  0  0  0  0  0  0  0  0  0  0
    7.9890    0.1280    0.5470 C   0  0  0  0  0  0  0  0  0  0  0  0
    9.4760    0.2510    0.6020 C   0  0  0  0  0  0  0  0  0  0  0  0
    9.9120   -0.0690    1.9500 N   0  0  0  0  0  0  0  0  0  0  0  0
    7.4270   -1.0700    0.1820 C   0  0  0  0  0  0  0  0  0  0  0  0
    6.0630   -1.2320    0.1150 C   0  0  0  0  0  0  0  0  0  0  0  0
    3.2680    1.5200   -1.2170 C   0  0  0  0  0  0  0  0  0  0  0  0
    4.4020    2.0630   -1.4340 O   0  0  0  0  0  0  0  0  0  0  0  0
    2.0300    1.9430   -1.7700 N   0  0  0  0  0  0  0  0  0  0  0  0
   -4.0810    0.0470    0.2120 C   0  0  0  0  0  0  0  0  0  0  0  0
  1  2  1  0
  2  3  1  0
  3  4  1  1
  3  5  1  0
  3 28  1  0
  5  6  1  0
  6  7  1  0
  7  8  1  0
  8  9  1  6
  8 28  1  0
  9 10  1  0
 10 11  2  0
 10 12  1  0
 12 13  1  0
 13 14  2  0
 13 27  1  0
 14 15  1  0
 15 16  2  3
 15 25  1  0
 16 17  1  0
 17 18  2  0
 17 24  1  0
 18 19  1  0
 19 20  2  0
 20 21  1  0
 20 23  1  0
 21 22  1  0
 23 24  2  0
 25 26  2  0
 25 27  1  0
M  CHG  2   8   1  22   1
M  END
