
     RDKit          3D

 28 30  0  0  0  0  0  0  0  0999 V2000
   -3.9590   -0.5630    2.8760 C   0  0  0  0  0  0  0  0  0  0  0  0
   -3.9420    0.5070    1.9380 N   0  0  0  0  0  0  0  0  0  0  0  0
   -3.5250    0.1090    0.5890 C   0  0  2  0  0  0  0  0  0  0  0  0
   -4.5940   -0.7510   -0.0410 C   0  0  0  0  0  0  0  0  0  0  0  0
   -5.8390    0.0580   -0.1110 C   0  0  0  0  0  0  0  0  0  0  0  0
   -6.0990    0.8790   -1.2150 C   0  0  0  0  0  0  0  0  0  0  0  0
   -7.2490    1.6340   -1.3160 C   0  0  0  0  0  0  0  0  0  0  0  0
   -8.1970    1.6080   -0.3210 C   0  0  0  0  0  0  0  0  0  0  0  0
   -7.9600    0.8060    0.7750 C   0  0  0  0  0  0  0  0  0  0  0  0
   -6.7950    0.0450    0.8700 C   0  0  0  0  0  0  0  0  0  0  0  0
   -2.1940   -0.5010    0.5920 C   0  0  0  0  0  0  0  0  0  0  0  0
   -1.7490   -0.8250    1.7540 O   0  0  0  0  0  0  0  0  0  0  0  0
   -1.3650   -0.7660   -0.5230 N   0  0  0  0  0  0  0  0  0  0  0  0
   -1.5090   -0.5250   -1.9390 C   0  0  0  0  0  0  0  0  0  0  0  0
   -1.1870   -1.9290   -2.4810 C   0  0  0  0  0  0  0  0  0  0  0  0
    0.0110   -2.3300   -1.6450 C   0  0  0  0  0  0  0  0  0  0  0  0
   -0.0550   -1.4130   -0.4600 C   0  0  1  0  0  0  0  0  0  0  0  0
    0.9640   -0.3330   -0.4880 C   0  0  0  0  0  0  0  0  0  0  0  0
    0.5940    0.8920   -0.5450 O   0  0  0  0  0  0  0  0  0  0  0  0
    2.3540   -0.5890   -0.4550 N   0  0  0  0  0  0  0  0  0  0  0  0
    3.2940    0.4960   -0.4840 C   0  0  0  0  0  0  0  0  0  0  0  0
    4.7170    0.0430   -0.4420 C   0  0  1  0  0  0  0  0  0  0  0  0
    5.5890    1.3020   -0.4800 C   0  0  0  0  0  0  0  0  0  0  0  0
    5.7910    1.7260    0.9630 C   0  0  0  0  0  0  0  0  0  0  0  0
    6.8930    0.8140    1.5150 C   0  0  2  0  0  0  0  0  0  0  0  0
    8.1020    1.1800    0.7820 N   0  0  0  0  0  0  0  0  0  0  0  0
    6.4960   -0.5950    1.1490 C   0  0  0  0  0  0  0  0  0  0  0  0
    5.0440   -0.7180    0.8100 C   0  0  0  0  0  0  0  0  0  0  0  0
  1  2  1  0
  2  3  1  0
  3  4  1  1
  3 11  1  0
  4  5  1  0
  5  6  2  0
  5 10  1  0
  6  7  1  0
  7  8  2  0
  8  9  1  0
  9 10  2  0
 11 12  2  0
 11 13  1  0
 13 14  1  0
 13 17  1  0
 14 15  1  0
 15 16  1  0
 16 17  1  0
 17 18  1  6
 18 19  2  0
 18 20  1  0
 20 21  1  0
 22 21  1  1
 22 23  1  0
 22 28  1  0
 23 24  1  0
 24 25  1  0
 25 26  1  6
 25 27  1  0
 27 28  1  0
M  CHG  2   2   1  26   1
M  END
