
     RDKit          3D

 28 29  0  0  0  0  0  0  0  0999 V2000
    1.6800    2.9340   -2.1160 C   0  0  0  0  0  0  0  0  0  0  0  0
    1.7530    3.4800   -0.7320 C   0  0  0  0  0  0  0  0  0  0  0  0
    1.0290    2.6530    0.2470 C   0  0  0  0  0  0  0  0  0  0  0  0
    1.4430    1.2620    0.5150 C   0  0  1  0  0  0  0  0  0  0  0  0
    0.4650    0.7710    1.6060 C   0  0  0  0  0  0  0  0  0  0  0  0
    0.3070    1.7200    2.6510 O   0  0  0  0  0  0  0  0  0  0  0  0
   -0.9330    1.2670    3.2270 C   0  0  0  0  0  0  0  0  0  0  0  0
   -2.1230    1.6670    2.4530 C   0  0  0  0  0  0  0  0  0  0  0  0
   -2.9010    0.5090    1.7940 C   0  0  1  0  0  0  0  0  0  0  0  0
   -4.2780    0.5380    2.5380 C   0  0  0  0  0  0  0  0  0  0  0  0
   -3.1770    0.8400    0.3890 C   0  0  0  0  0  0  0  0  0  0  0  0
   -3.1640   -0.1640   -0.6760 C   0  0  0  0  0  0  0  0  0  0  0  0
   -4.5070   -0.3010   -1.3860 C   0  0  0  0  0  0  0  0  0  0  0  0
   -2.1920   -0.9680   -1.0670 C   0  0  0  0  0  0  0  0  0  0  0  0
   -2.1550   -1.9770   -2.1510 C   0  0  0  0  0  0  0  0  0  0  0  0
   -2.8270   -2.0300   -3.2520 N   0  0  0  0  0  0  0  0  0  0  0  0
   -1.1120   -2.9510   -1.7960 C   0  0  0  0  0  0  0  0  0  0  0  0
   -0.7860   -4.0060   -2.5220 N   0  0  0  0  0  0  0  0  0  0  0  0
   -0.5720   -2.5410   -0.5870 N   0  0  0  0  0  0  0  0  0  0  0  0
   -0.8640   -1.1120   -0.4140 C   0  0  1  0  0  0  0  0  0  0  0  0
    0.1890   -0.3460   -1.0580 C   0  0  0  0  0  0  0  0  0  0  0  0
    0.0040   -0.2660   -2.3320 O   0  0  0  0  0  0  0  0  0  0  0  0
    1.3380    0.2990   -0.5570 N   0  0  0  0  0  0  0  0  0  0  0  0
    2.6160   -0.0390   -1.2270 C   0  0  0  0  0  0  0  0  0  0  0  0
    3.2710   -1.2620   -0.6880 C   0  0  0  0  0  0  0  0  0  0  0  0
    3.6730   -1.2590    0.7390 C   0  0  1  0  0  0  0  0  0  0  0  0
    4.3060   -2.6390    1.0400 C   0  0  0  0  0  0  0  0  0  0  0  0
    4.8560   -0.2940    0.9010 C   0  0  0  0  0  0  0  0  0  0  0  0
  1  2  1  0
  2  3  1  0
  4  3  1  6
  4  5  1  0
  4 23  1  0
  5  6  1  0
  6  7  1  0
  7  8  1  0
  8  9  1  0
  9 10  1  1
  9 11  1  0
 11 12  1  0
 12 13  1  0
 12 14  2  0
 14 15  1  0
 14 20  1  0
 15 16  2  0
 15 17  1  0
 17 18  2  0
 17 19  1  0
 20 19  1  6
 20 21  1  0
 21 22  2  0
 21 23  1  0
 23 24  1  0
 24 25  1  0
 25 26  1  0
 26 27  1  6
 26 28  1  0
M  CHG  2  16   1  18   1
M  END
