
     RDKit          3D

 28 30  0  0  0  0  0  0  0  0999 V2000
   -4.7210   -3.3650    0.0020 C   0  0  0  0  0  0  0  0  0  0  0  0
   -3.2710   -3.3660    0.3860 C   0  0  0  0  0  0  0  0  0  0  0  0
   -2.7130   -2.0380    0.7160 C   0  0  0  0  0  0  0  0  0  0  0  0
   -2.6670   -0.9790   -0.3310 C   0  0  1  0  0  0  0  0  0  0  0  0
   -4.0420   -0.6560   -0.8070 C   0  0  0  0  0  0  0  0  0  0  0  0
   -4.5540   -1.0780   -1.8690 O   0  0  0  0  0  0  0  0  0  0  0  0
   -4.8590    0.1970   -0.0230 O   0  0  0  0  0  0  0  0  0  0  0  0
   -4.2670    1.3380    0.5900 C   0  0  2  0  0  0  0  0  0  0  0  0
   -5.0970    1.8040    1.7690 C   0  0  0  0  0  0  0  0  0  0  0  0
   -4.2050    2.4200   -0.4650 C   0  0  0  0  0  0  0  0  0  0  0  0
   -5.5150    2.7650   -0.9650 N   0  0  0  0  0  0  0  0  0  0  0  0
   -2.9300    0.9380    1.1000 C   0  0  0  0  0  0  0  0  0  0  0  0
   -2.0950    0.1860    0.2570 N   0  0  0  0  0  0  0  0  0  0  0  0
   -0.8670    0.6940   -0.0970 C   0  0  1  0  0  0  0  0  0  0  0  0
    0.0220    0.8700    1.1450 C   0  0  0  0  0  0  0  0  0  0  0  0
    1.4610    0.8800    0.6860 C   0  0  0  0  0  0  0  0  0  0  0  0
    1.7820   -0.4970    0.3150 N   0  0  2  0  0  0  0  0  0  0  0  0
    3.1550   -0.6230   -0.0340 C   0  0  0  0  0  0  0  0  0  0  0  0
    3.6650   -1.8460   -0.4160 C   0  0  0  0  0  0  0  0  0  0  0  0
    5.0020   -2.0030   -0.7620 C   0  0  0  0  0  0  0  0  0  0  0  0
    5.8660   -0.9250   -0.7330 C   0  0  0  0  0  0  0  0  0  0  0  0
    5.3790    0.3080   -0.3530 C   0  0  0  0  0  0  0  0  0  0  0  0
    6.2610    1.4270   -0.3140 N   0  0  0  0  0  0  0  0  0  0  0  0
    7.6740    1.3200   -0.5750 C   0  0  0  0  0  0  0  0  0  0  0  0
    8.4210    0.4610    0.3890 C   0  0  0  0  0  0  0  0  0  0  0  0
    4.0430    0.4300   -0.0150 C   0  0  0  0  0  0  0  0  0  0  0  0
    0.8920   -0.9890   -0.6990 C   0  0  0  0  0  0  0  0  0  0  0  0
   -0.0800    0.0730   -1.1800 C   0  0  0  0  0  0  0  0  0  0  0  0
  1  2  1  0
  2  3  1  0
  4  3  1  1
  4  5  1  0
  4 13  1  0
  5  6  2  0
  5  7  1  0
  7  8  1  0
  8  9  1  1
  8 10  1  0
  8 12  1  0
 10 11  1  0
 12 13  1  0
 14 13  1  1
 14 15  1  0
 14 28  1  0
 15 16  1  0
 16 17  1  0
 17 18  1  6
 17 27  1  0
 18 19  2  0
 18 26  1  0
 19 20  1  0
 20 21  2  0
 21 22  1  0
 22 23  1  0
 22 26  2  0
 23 24  1  0
 24 25  1  0
 27 28  1  0
M  CHG  2  11   1  17   1
M  END
