
     RDKit          3D

 28 29  0  0  0  0  0  0  0  0999 V2000
   -4.0270    2.0100    2.0140 C   0  0  0  0  0  0  0  0  0  0  0  0
   -4.8650    1.5870    1.1080 C   0  0  0  0  0  0  0  0  0  0  0  0
   -6.3100    1.7800    1.3850 C   0  0  0  0  0  0  0  0  0  0  0  0
   -4.4900    0.9190   -0.1570 C   0  0  0  0  0  0  0  0  0  0  0  0
   -5.4660    0.5830   -0.9440 C   0  0  0  0  0  0  0  0  0  0  0  0
   -5.5200   -0.0740   -2.2390 C   0  0  0  0  0  0  0  0  0  0  0  0
   -3.0750    0.6250   -0.4510 C   0  0  2  0  0  0  0  0  0  0  0  0
   -2.7980    0.7220   -1.8490 N   0  0  0  0  0  0  0  0  0  0  0  0
   -2.4530   -0.5060    0.2790 C   0  0  1  0  0  0  0  0  0  0  0  0
   -3.0510   -1.8590    0.0960 C   0  0  0  0  0  0  0  0  0  0  0  0
   -4.4170   -2.0100    0.5200 N   0  0  0  0  0  0  0  0  0  0  0  0
   -1.0360   -0.6230    0.1730 N   0  0  0  0  0  0  0  0  0  0  0  0
   -0.3730   -0.9970   -1.0540 C   0  0  0  0  0  0  0  0  0  0  0  0
    0.5770   -2.1530   -0.8670 C   0  0  0  0  0  0  0  0  0  0  0  0
    1.6640   -1.9460    0.0740 C   0  0  0  0  0  0  0  0  0  0  0  0
    2.4940   -2.9210    0.0630 O   0  0  0  0  0  0  0  0  0  0  0  0
    2.0290   -0.9300    1.0000 N   0  0  0  0  0  0  0  0  0  0  0  0
    3.4170   -0.8780    1.4110 C   0  0  0  0  0  0  0  0  0  0  0  0
    4.2740   -0.0100    0.5440 C   0  0  1  0  0  0  0  0  0  0  0  0
    5.6920   -0.0680    1.1150 C   0  0  0  0  0  0  0  0  0  0  0  0
    6.6660    0.7400    0.3420 C   0  0  0  0  0  0  0  0  0  0  0  0
    6.2900    1.0690   -1.0510 C   0  0  2  0  0  0  0  0  0  0  0  0
    5.7950    2.5170   -1.1790 C   0  0  0  0  0  0  0  0  0  0  0  0
    5.3530    0.1320   -1.7210 C   0  0  0  0  0  0  0  0  0  0  0  0
    4.3940   -0.5850   -0.8520 C   0  0  0  0  0  0  0  0  0  0  0  0
    1.1280    0.0470    1.5580 C   0  0  0  0  0  0  0  0  0  0  0  0
   -0.3110   -0.3650    1.3790 C   0  0  0  0  0  0  0  0  0  0  0  0
   -1.0030   -0.5120    2.4420 O   0  0  0  0  0  0  0  0  0  0  0  0
  1  2  2  0
  2  3  1  0
  2  4  1  0
  4  5  2  3
  4  7  1  0
  5  6  1  0
  7  8  1  6
  7  9  1  0
  9 10  1  6
  9 12  1  0
 10 11  1  0
 12 13  1  0
 12 27  1  0
 13 14  1  0
 14 15  1  0
 15 16  2  0
 15 17  1  0
 17 18  1  0
 17 26  1  0
 19 18  1  1
 19 20  1  0
 19 25  1  0
 20 21  1  0
 21 22  1  0
 22 23  1  1
 22 24  1  0
 24 25  1  0
 26 27  1  0
 27 28  2  0
M  CHG  2   8   1  11   1
M  END
