
     RDKit          3D

 28 30  0  0  0  0  0  0  0  0999 V2000
    6.9900    1.6740    0.1330 C   0  0  0  0  0  0  0  0  0  0  0  0
    6.3440    0.4000   -0.4090 C   0  0  2  0  0  0  0  0  0  0  0  0
    6.5330    0.4390   -1.9220 C   0  0  0  0  0  0  0  0  0  0  0  0
    4.8560    0.4670   -0.1590 C   0  0  0  0  0  0  0  0  0  0  0  0
    4.5480    0.5820    1.3180 C   0  0  0  0  0  0  0  0  0  0  0  0
    3.1060    0.6390    1.5750 C   0  0  0  0  0  0  0  0  0  0  0  0
    2.1390   -0.1430    1.2850 C   0  0  0  0  0  0  0  0  0  0  0  0
    1.9780   -1.4050    0.6050 C   0  0  0  0  0  0  0  0  0  0  0  0
    0.7350   -1.6700    0.0040 C   0  0  0  0  0  0  0  0  0  0  0  0
   -0.3330   -0.6960   -0.1360 C   0  0  0  0  0  0  0  0  0  0  0  0
   -0.1140    0.6370   -0.2180 C   0  0  0  0  0  0  0  0  0  0  0  0
   -1.1900    1.5370   -0.2790 C   0  0  0  0  0  0  0  0  0  0  0  0
   -2.4890    1.0900   -0.2580 C   0  0  0  0  0  0  0  0  0  0  0  0
   -2.7250   -0.2630   -0.1760 C   0  0  0  0  0  0  0  0  0  0  0  0
   -1.6400   -1.1450   -0.1150 C   0  0  0  0  0  0  0  0  0  0  0  0
   -4.1910   -0.5030   -0.1690 C   0  0  1  0  0  0  0  0  0  0  0  0
   -4.5600   -1.6350    0.6390 N   0  0  0  0  0  0  0  0  0  0  0  0
   -4.7090    0.8060    0.3680 C   0  0  2  0  0  0  0  0  0  0  0  0
   -6.0870    1.0420    0.1130 N   0  0  2  0  0  0  0  0  0  0  0  0
   -6.6610    0.2430   -0.9280 C   0  0  0  0  0  0  0  0  0  0  0  0
   -6.2870    2.4560   -0.2000 C   0  0  0  0  0  0  0  0  0  0  0  0
   -3.7880    1.8000   -0.3080 C   0  0  0  0  0  0  0  0  0  0  0  0
    0.5380   -2.9400   -0.4620 N   0  0  0  0  0  0  0  0  0  0  0  0
    1.4540   -3.9080   -0.3750 C   0  0  0  0  0  0  0  0  0  0  0  0
    1.2190   -5.0750   -0.8260 O   0  0  0  0  0  0  0  0  0  0  0  0
    2.6250   -3.6280    0.1970 N   0  0  0  0  0  0  0  0  0  0  0  0
    2.9210   -2.4050    0.6930 C   0  0  0  0  0  0  0  0  0  0  0  0
    4.0460   -2.2260    1.2210 O   0  0  0  0  0  0  0  0  0  0  0  0
  2  1  1  1
  2  3  1  0
  2  4  1  0
  4  5  1  0
  5  6  1  0
  6  7  2  3
  7  8  1  0
  8  9  2  0
  8 27  1  0
  9 10  1  0
  9 23  1  0
 10 11  2  0
 10 15  1  0
 11 12  1  0
 12 13  2  0
 13 14  1  0
 13 22  1  0
 14 15  2  0
 14 16  1  0
 16 17  1  1
 16 18  1  0
 18 19  1  0
 18 22  1  6
 19 20  1  6
 19 21  1  0
 23 24  1  0
 24 25  2  0
 24 26  1  0
 26 27  1  0
 27 28  2  0
M  CHG  2  17   1  19   1
M  END
