
     RDKit          3D

  7  6  0  0  0  0  0  0  0  0999 V2000
   -1.5830    0.9890    0.5740 O   0  0  0  0  0  0  0  0  0  0  0  0
   -1.6800   -0.1570    0.0880 C   0  0  0  0  0  0  0  0  0  0  0  0
   -2.9240   -0.6330   -0.2640 O   0  0  0  0  0  0  0  0  0  0  0  0
   -0.4750   -0.9720   -0.0980 C   0  0  0  0  0  0  0  0  0  0  0  0
    0.7040   -0.2620    0.3430 N   0  0  0  0  0  0  0  0  0  0  0  0
    1.1150    0.8400   -0.1600 C   0  0  0  0  0  0  0  0  0  0  0  0
    2.2590    1.3950    0.3720 O   0  0  0  0  0  0  0  0  0  0  0  0
  1  2  2  0
  2  3  1  0
  2  4  1  0
  4  5  1  0
  5  6  2  3
  6  7  1  0
M  CHG  1   3  -1
M  END
