
     RDKit          3D

  7  6  0  0  0  0  0  0  0  0999 V2000
   -1.4970   -0.2880   -0.1230 C   0  0  0  0  0  0  0  0  0  0  0  0
   -0.0790   -0.6460    0.1440 C   0  0  0  0  0  0  0  0  0  0  0  0
    0.8920    0.2330    0.0670 C   0  0  0  0  0  0  0  0  0  0  0  0
    0.6770    1.5890   -0.2740 N   0  0  0  0  0  0  0  0  0  0  0  0
    0.3840    2.4860    0.5160 O   0  0  0  0  0  0  0  0  0  0  0  0
    2.1900   -0.1590    0.3260 O   0  0  0  0  0  0  0  0  0  0  0  0
    2.9320   -0.8790   -0.5230 O   0  0  0  0  0  0  0  0  0  0  0  0
  1  2  1  0
  2  3  2  3
  3  4  1  0
  3  6  1  0
  4  5  2  0
  6  7  1  0
M  CHG  1   7  -1
M  END
