
     RDKit          3D

  7  6  0  0  0  0  0  0  0  0999 V2000
   -0.9480    0.9070   -1.7720 O   0  0  0  0  0  0  0  0  0  0  0  0
    0.2470    0.7150   -1.4290 C   0  0  0  0  0  0  0  0  0  0  0  0
    0.6340    0.0870   -0.1820 C   0  0  0  0  0  0  0  0  0  0  0  0
   -0.2790   -0.3120    0.6510 C   0  0  0  0  0  0  0  0  0  0  0  0
   -1.6130   -0.1350    0.3430 O   0  0  0  0  0  0  0  0  0  0  0  0
    0.1290   -0.9060    1.8280 O   0  0  0  0  0  0  0  0  0  0  0  0
   -0.8200   -1.3760    2.6720 O   0  0  0  0  0  0  0  0  0  0  0  0
  1  2  2  0
  2  3  1  0
  3  4  2  3
  4  5  1  0
  4  6  1  0
  6  7  1  0
M  CHG  2   5  -1   7  -1
M  END
