
     RDKit          3D

 43 46  0  0  0  0  0  0  0  0999 V2000
   11.0300    0.3450    0.1940 C   0  0  0  0  0  0  0  0  0  0  0  0
    9.6170    0.0550    0.6450 C   0  0  0  0  0  0  0  0  0  0  0  0
    8.9250    1.3040    0.6610 O   0  0  0  0  0  0  0  0  0  0  0  0
    7.5850    1.3320    1.0500 C   0  0  0  0  0  0  0  0  0  0  0  0
    7.0490    0.2570    1.3650 O   0  0  0  0  0  0  0  0  0  0  0  0
    6.8140    2.4800    1.1070 O   0  0  0  0  0  0  0  0  0  0  0  0
    5.4710    2.5110    1.4980 C   0  0  0  0  0  0  0  0  0  0  0  0
    4.6220    1.6880    0.6200 C   0  0  0  0  0  0  0  0  0  0  0  0
    4.8700    0.9730   -0.4140 O   0  0  0  0  0  0  0  0  0  0  0  0
    3.7560    0.3920   -0.8950 C   0  0  0  0  0  0  0  0  0  0  0  0
    3.7690   -0.3640   -1.9280 N   0  0  0  0  0  0  0  0  0  0  0  0
    2.7070    0.7410   -0.1340 N   0  0  0  0  0  0  0  0  0  0  0  0
    1.3820    0.4320   -0.1940 C   0  0  0  0  0  0  0  0  0  0  0  0
    0.8750   -0.4520   -0.9950 C   0  0  0  0  0  0  0  0  0  0  0  0
    1.3280   -1.3520   -2.0170 C   0  0  0  0  0  0  0  0  0  0  0  0
    1.7850   -2.6610   -1.7840 C   0  0  0  0  0  0  0  0  0  0  0  0
    2.1230   -3.2280   -2.9480 N   0  0  0  0  0  0  0  0  0  0  0  0
    1.8850   -2.2990   -3.8930 C   0  0  0  0  0  0  0  0  0  0  0  0
    1.4240   -1.2160   -3.3320 O   0  0  0  0  0  0  0  0  0  0  0  0
    0.5370    0.9990    0.7700 C   0  0  0  0  0  0  0  0  0  0  0  0
   -0.7490    1.0840    0.7090 C   0  0  0  0  0  0  0  0  0  0  0  0
   -1.7560    0.7320   -0.2160 C   0  0  0  0  0  0  0  0  0  0  0  0
   -3.0760    0.9100    0.0370 C   0  0  0  0  0  0  0  0  0  0  0  0
   -4.1300    0.5740   -0.8540 N   0  0  0  0  0  0  0  0  0  0  0  0
   -5.2790    0.8670   -0.3570 C   0  0  0  0  0  0  0  0  0  0  0  0
   -6.5270    0.6490   -1.0110 N   0  0  0  0  0  0  0  0  0  0  0  0
   -6.8100   -0.5060   -1.7990 C   0  0  2  0  0  0  0  0  0  0  0  0
   -6.8000   -1.8220   -1.0670 C   0  0  0  0  0  0  0  0  0  0  0  0
   -7.7020   -1.9510   -0.0570 O   0  0  0  0  0  0  0  0  0  0  0  0
   -7.5570   -1.1770    1.0530 C   0  0  0  0  0  0  0  0  0  0  0  0
   -6.2790   -1.5050    1.8220 C   0  0  0  0  0  0  0  0  0  0  0  0
   -6.2230   -0.6610    2.9150 O   0  0  0  0  0  0  0  0  0  0  0  0
   -5.1420   -0.8700    3.6480 O   0  0  0  0  0  0  0  0  0  0  0  0
   -5.8910   -0.6430   -2.9720 C   0  0  0  0  0  0  0  0  0  0  0  0
   -4.9870    0.1350   -3.2830 O   0  0  0  0  0  0  0  0  0  0  0  0
   -6.1350   -1.7920   -3.7580 O   0  0  0  0  0  0  0  0  0  0  0  0
   -5.0940    1.4250    0.9130 O   0  0  0  0  0  0  0  0  0  0  0  0
   -3.7120    1.4700    1.1980 C   0  0  0  0  0  0  0  0  0  0  0  0
   -3.2130    1.9200    2.2700 O   0  0  0  0  0  0  0  0  0  0  0  0
    1.1770    1.8410    1.7440 C   0  0  0  0  0  0  0  0  0  0  0  0
    0.5240    2.3980    2.6740 N   0  0  0  0  0  0  0  0  0  0  0  0
    2.4630    2.0550    1.7000 O   0  0  0  0  0  0  0  0  0  0  0  0
    3.2400    1.5460    0.8050 C   0  0  0  0  0  0  0  0  0  0  0  0
  1  2  1  0
  2  3  1  0
  3  4  1  0
  4  5  2  0
  4  6  1  0
  6  7  1  0
  7  8  1  0
  8  9  1  0
  8 43  2  0
  9 10  1  0
 10 11  2  0
 10 12  1  0
 12 13  1  0
 12 43  1  0
 13 14  2  3
 13 20  1  0
 14 15  1  0
 15 16  2  0
 15 19  1  0
 16 17  1  0
 17 18  2  0
 18 19  1  0
 20 21  2  3
 20 40  1  0
 21 22  1  0
 22 23  2  3
 23 24  1  0
 23 38  1  0
 24 25  2  0
 25 26  1  0
 25 37  1  0
 26 27  1  0
 27 28  1  1
 27 34  1  0
 28 29  1  0
 29 30  1  0
 30 31  1  0
 31 32  1  0
 32 33  1  0
 34 35  2  0
 34 36  1  0
 37 38  1  0
 38 39  2  0
 40 41  2  0
 40 42  1  0
 42 43  1  0
M  END
