
     RDKit          3D

 43 46  0  0  0  0  0  0  0  0999 V2000
   -2.9040    6.5980   -0.7680 C   0  0  0  0  0  0  0  0  0  0  0  0
   -3.3600    5.6210   -1.6920 O   0  0  0  0  0  0  0  0  0  0  0  0
   -4.4030    4.8090   -1.3430 N   0  0  0  0  0  0  0  0  0  0  0  0
   -4.1060    3.6470   -0.8100 C   0  0  0  0  0  0  0  0  0  0  0  0
   -2.7220    3.2660   -0.6120 C   0  0  0  0  0  0  0  0  0  0  0  0
   -2.3510    2.1260   -0.0780 C   0  0  0  0  0  0  0  0  0  0  0  0
   -3.3670    1.1870    0.3440 C   0  0  0  0  0  0  0  0  0  0  0  0
   -3.3770   -0.1210    0.0320 C   0  0  0  0  0  0  0  0  0  0  0  0
   -2.4060   -0.7310   -0.7380 O   0  0  0  0  0  0  0  0  0  0  0  0
   -2.3820   -2.0860   -0.3430 C   0  0  2  0  0  0  0  0  0  0  0  0
   -1.6730   -2.8720   -1.3880 C   0  0  0  0  0  0  0  0  0  0  0  0
   -0.2650   -2.3320   -1.5090 C   0  0  0  0  0  0  0  0  0  0  0  0
    0.7640   -3.4100   -1.5920 C   0  0  0  0  0  0  0  0  0  0  0  0
    1.5190   -3.6320   -0.4000 N   0  0  0  0  0  0  0  0  0  0  0  0
    1.5010   -2.9060    0.8020 C   0  0  0  0  0  0  0  0  0  0  0  0
    1.4580   -3.6060    1.8820 O   0  0  0  0  0  0  0  0  0  0  0  0
    1.5240   -1.5480    0.9560 O   0  0  0  0  0  0  0  0  0  0  0  0
    2.4110   -0.6300    0.3410 C   0  0  1  0  0  0  0  0  0  0  0  0
    1.6670    0.4560   -0.0480 O   0  0  0  0  0  0  0  0  0  0  0  0
    1.1350    1.2100    0.9620 C   0  0  2  0  0  0  0  0  0  0  0  0
    1.8260    0.9830    2.2960 C   0  0  0  0  0  0  0  0  0  0  0  0
    3.3140    0.9680    2.0270 C   0  0  0  0  0  0  0  0  0  0  0  0
    3.5950   -0.2800    1.2070 C   0  0  2  0  0  0  0  0  0  0  0  0
    4.8100   -0.1210    0.4520 N   0  0  0  0  0  0  0  0  0  0  0  0
    5.1220    0.8180   -0.6020 C   0  0  0  0  0  0  0  0  0  0  0  0
    6.6400    0.9320   -0.5910 C   0  0  0  0  0  0  0  0  0  0  0  0
    7.0360   -0.3920   -0.1930 N   0  0  0  0  0  0  0  0  0  0  0  0
    8.2380   -1.0530   -0.5440 C   0  0  0  0  0  0  0  0  0  0  0  0
    8.1630   -2.1590   -1.1910 N   0  0  0  0  0  0  0  0  0  0  0  0
    5.9820   -0.9050    0.6210 C   0  0  0  0  0  0  0  0  0  0  0  0
    6.0760   -1.9070    1.3800 O   0  0  0  0  0  0  0  0  0  0  0  0
   -0.3670    1.1380    1.0670 C   0  0  0  0  0  0  0  0  0  0  0  0
   -1.0240    1.8590    0.0630 O   0  0  0  0  0  0  0  0  0  0  0  0
   -3.8000   -2.3740   -0.2430 N   0  0  0  0  0  0  0  0  0  0  0  0
   -4.5710   -3.5080   -0.6240 C   0  0  0  0  0  0  0  0  0  0  0  0
   -4.6760   -4.4650    0.3830 O   0  0  0  0  0  0  0  0  0  0  0  0
   -5.4200   -5.4480   -0.1340 O   0  0  0  0  0  0  0  0  0  0  0  0
   -4.3160   -1.1950    0.3720 C   0  0  0  0  0  0  0  0  0  0  0  0
   -5.3780   -1.0850    1.0770 O   0  0  0  0  0  0  0  0  0  0  0  0
   -5.1980    2.8760   -0.4820 O   0  0  0  0  0  0  0  0  0  0  0  0
   -6.5110    3.2380   -0.6730 C   0  0  0  0  0  0  0  0  0  0  0  0
   -6.7390    4.3580   -1.1860 O   0  0  0  0  0  0  0  0  0  0  0  0
   -7.5270    2.3630   -0.2950 O   0  0  0  0  0  0  0  0  0  0  0  0
  1  2  1  0
  2  3  1  0
  3  4  2  3
  4  5  1  0
  4 40  1  0
  5  6  2  3
  6  7  1  0
  6 33  1  0
  7  8  2  0
  8  9  1  0
  8 38  1  0
  9 10  1  0
 10 11  1  6
 10 34  1  0
 11 12  1  0
 12 13  1  0
 13 14  1  0
 14 15  1  0
 15 16  2  0
 15 17  1  0
 18 17  1  1
 18 19  1  0
 18 23  1  0
 19 20  1  0
 20 21  1  1
 20 32  1  0
 21 22  1  0
 22 23  1  0
 23 24  1  6
 24 25  1  0
 24 30  1  0
 25 26  1  0
 26 27  1  0
 27 28  1  0
 27 30  1  0
 28 29  2  0
 30 31  2  0
 32 33  1  0
 34 35  1  0
 34 38  1  0
 35 36  1  0
 36 37  1  0
 38 39  2  0
 40 41  1  0
 41 42  2  0
 41 43  1  0
M  END
