
     RDKit          3D

 44 48  0  0  0  0  0  0  0  0999 V2000
   11.2260    1.0360   -0.8230 N   0  0  0  0  0  0  0  0  0  0  0  0
   10.1260    0.2270   -1.1570 C   0  0  0  0  0  0  0  0  0  0  0  0
   10.1670   -0.4980   -2.1750 O   0  0  0  0  0  0  0  0  0  0  0  0
    8.9460    0.2400   -0.3140 C   0  0  0  0  0  0  0  0  0  0  0  0
    8.8840    1.0460    0.8140 C   0  0  0  0  0  0  0  0  0  0  0  0
    7.7470    1.0220    1.5760 C   0  0  0  0  0  0  0  0  0  0  0  0
    6.7000    0.2030    1.2070 C   0  0  0  0  0  0  0  0  0  0  0  0
    6.7430   -0.5810    0.1210 N   0  0  0  0  0  0  0  0  0  0  0  0
    5.6740   -1.4430   -0.2940 C   0  0  2  0  0  0  0  0  0  0  0  0
    4.6670   -0.7740   -0.9650 O   0  0  0  0  0  0  0  0  0  0  0  0
    3.4880   -1.4590   -0.8190 C   0  0  2  0  0  0  0  0  0  0  0  0
    2.2870   -0.5330   -0.7130 C   0  0  0  0  0  0  0  0  0  0  0  0
    2.2330    0.2180   -1.8850 O   0  0  0  0  0  0  0  0  0  0  0  0
    0.9240    1.2890   -1.8730 P   0  0  1  0  0  0  0  0  0  0  0  0
    1.4610    2.6400   -1.4410 O   0  0  0  0  0  0  0  0  0  0  0  0
    0.2940    1.3340   -3.4330 O   0  0  0  0  0  0  0  0  0  0  0  0
   -0.2220    0.7010   -0.7920 O   0  0  0  0  0  0  0  0  0  0  0  0
   -0.3030    1.6010    0.6290 P   0  0  1  0  0  0  0  0  0  0  0  0
    0.3280    0.7390    1.7290 O   0  0  0  0  0  0  0  0  0  0  0  0
    0.6310    3.0020    0.5400 O   0  0  0  0  0  0  0  0  0  0  0  0
   -1.8820    1.9080    1.1110 O   0  0  0  0  0  0  0  0  0  0  0  0
   -2.7990    1.6720    0.0880 C   0  0  0  0  0  0  0  0  0  0  0  0
   -4.2050    1.9440    0.5170 C   0  0  1  0  0  0  0  0  0  0  0  0
   -5.0990    1.7100   -0.4960 O   0  0  0  0  0  0  0  0  0  0  0  0
   -6.3550    1.5080    0.0630 C   0  0  1  0  0  0  0  0  0  0  0  0
   -7.0070    0.4460   -0.6100 N   0  0  0  0  0  0  0  0  0  0  0  0
   -6.6600   -0.0440   -1.8110 C   0  0  0  0  0  0  0  0  0  0  0  0
   -7.4790   -1.0490   -2.1690 N   0  0  0  0  0  0  0  0  0  0  0  0
   -8.3870   -1.2200   -1.1740 C   0  0  0  0  0  0  0  0  0  0  0  0
   -9.4490   -2.0760   -0.9820 C   0  0  0  0  0  0  0  0  0  0  0  0
   -9.7670   -3.0410   -1.9660 N   0  0  0  0  0  0  0  0  0  0  0  0
  -10.1470   -1.9510    0.1600 N   0  0  0  0  0  0  0  0  0  0  0  0
   -9.8160   -1.0120    1.0910 C   0  0  0  0  0  0  0  0  0  0  0  0
   -8.7790   -0.1780    0.9000 N   0  0  0  0  0  0  0  0  0  0  0  0
   -8.0700   -0.2810   -0.2240 C   0  0  0  0  0  0  0  0  0  0  0  0
   -6.1750    1.3150    1.5350 C   0  0  2  0  0  0  0  0  0  0  0  0
   -6.2830    2.5340    2.2020 O   0  0  0  0  0  0  0  0  0  0  0  0
   -4.6830    0.9540    1.5790 C   0  0  2  0  0  0  0  0  0  0  0  0
   -4.1250    1.1860    2.8110 O   0  0  0  0  0  0  0  0  0  0  0  0
    3.5730   -2.2850    0.4200 C   0  0  1  0  0  0  0  0  0  0  0  0
    3.1930   -3.6190    0.2000 O   0  0  0  0  0  0  0  0  0  0  0  0
    5.0040   -2.1610    0.8200 C   0  0  1  0  0  0  0  0  0  0  0  0
    5.5260   -3.4700    0.9170 O   0  0  0  0  0  0  0  0  0  0  0  0
    7.8650   -0.5440   -0.6130 C   0  0  0  0  0  0  0  0  0  0  0  0
  1  2  1  0
  2  3  2  0
  2  4  1  0
  4  5  2  0
  4 44  1  0
  5  6  1  0
  6  7  2  0
  7  8  1  0
  9  8  1  1
  8 44  2  0
  9 10  1  0
  9 42  1  0
 10 11  1  0
 11 12  1  1
 11 40  1  0
 12 13  1  0
 13 14  1  0
 14 15  2  0
 14 16  1  6
 14 17  1  0
 17 18  1  0
 18 19  2  0
 18 20  1  6
 18 21  1  0
 21 22  1  0
 23 22  1  6
 23 24  1  0
 23 38  1  0
 24 25  1  0
 25 26  1  6
 25 36  1  0
 26 27  1  0
 26 35  1  0
 27 28  2  0
 28 29  1  0
 29 30  2  0
 29 35  1  0
 30 31  1  0
 30 32  1  0
 32 33  2  0
 33 34  1  0
 34 35  2  0
 36 37  1  1
 36 38  1  0
 38 39  1  1
 40 41  1  6
 40 42  1  0
 42 43  1  6
M  CHG  2   8   1  16  -1
M  END
