
     RDKit          3D

 43 45  0  0  0  0  0  0  0  0999 V2000
    7.0600   -1.7870    2.4090 C   0  0  0  0  0  0  0  0  0  0  0  0
    7.1510   -0.6060    1.4680 C   0  0  0  0  0  0  0  0  0  0  0  0
    5.8970   -0.5870    0.7120 N   0  0  0  0  0  0  0  0  0  0  0  0
    5.6290   -1.2430   -0.5300 C   0  0  0  0  0  0  0  0  0  0  0  0
    4.1470   -1.1120   -0.7230 C   0  0  0  0  0  0  0  0  0  0  0  0
    3.6930   -0.0700    0.1640 N   0  0  0  0  0  0  0  0  0  0  0  0
    2.5160    0.6140    0.1110 O   0  0  0  0  0  0  0  0  0  0  0  0
    1.3390    0.0770   -0.4700 C   0  0  0  0  0  0  0  0  0  0  0  0
    1.5110   -1.0790   -0.9200 O   0  0  0  0  0  0  0  0  0  0  0  0
    0.1460    0.8260   -0.4980 N   0  0  0  0  0  0  0  0  0  0  0  0
    0.1510    2.1630    0.0320 C   0  0  0  0  0  0  0  0  0  0  0  0
    0.1020    3.0670   -1.1950 C   0  0  0  0  0  0  0  0  0  0  0  0
   -0.6260    2.4420   -2.2720 N   0  0  0  0  0  0  0  0  0  0  0  0
   -1.2770    1.1920   -2.2660 C   0  0  0  0  0  0  0  0  0  0  0  0
   -1.9900    0.8910   -3.2360 O   0  0  0  0  0  0  0  0  0  0  0  0
   -1.0520    0.3030   -1.0680 C   0  0  1  0  0  0  0  0  0  0  0  0
   -0.9440   -1.1270   -1.5220 C   0  0  0  0  0  0  0  0  0  0  0  0
   -1.0290   -1.3930   -2.7370 O   0  0  0  0  0  0  0  0  0  0  0  0
   -0.7560   -2.1560   -0.5880 N   0  0  0  0  0  0  0  0  0  0  0  0
   -0.6450   -3.5350   -0.8520 C   0  0  0  0  0  0  0  0  0  0  0  0
   -0.9010   -4.1140   -2.0670 C   0  0  0  0  0  0  0  0  0  0  0  0
   -0.7560   -5.4890   -2.2580 C   0  0  0  0  0  0  0  0  0  0  0  0
   -0.3500   -6.2830   -1.2090 C   0  0  0  0  0  0  0  0  0  0  0  0
   -0.0840   -5.7370    0.0270 C   0  0  0  0  0  0  0  0  0  0  0  0
   -0.2340   -4.3790    0.1880 C   0  0  0  0  0  0  0  0  0  0  0  0
   -2.2690    0.3540   -0.1700 C   0  0  2  0  0  0  0  0  0  0  0  0
   -3.4390   -0.3230   -0.8870 C   0  0  0  0  0  0  0  0  0  0  0  0
   -3.8700   -1.4410   -0.4990 O   0  0  0  0  0  0  0  0  0  0  0  0
   -4.0720    0.2360   -1.9730 O   0  0  0  0  0  0  0  0  0  0  0  0
   -5.1530   -0.3930   -2.6350 C   0  0  0  0  0  0  0  0  0  0  0  0
   -2.7920    1.7240    0.0550 C   0  0  0  0  0  0  0  0  0  0  0  0
   -2.9030    2.4940   -0.9250 O   0  0  0  0  0  0  0  0  0  0  0  0
   -3.1710    2.1860    1.3160 O   0  0  0  0  0  0  0  0  0  0  0  0
   -3.6570    3.4740    1.4660 C   0  0  0  0  0  0  0  0  0  0  0  0
   -3.7350    4.1770    0.4310 O   0  0  0  0  0  0  0  0  0  0  0  0
   -4.0670    4.0220    2.7500 C   0  0  0  0  0  0  0  0  0  0  0  0
   -3.9870    3.2950    3.7630 O   0  0  0  0  0  0  0  0  0  0  0  0
   -4.5510    5.3460    2.8860 N   0  0  0  0  0  0  0  0  0  0  0  0
   -4.9410    5.8800    4.1490 C   0  0  0  0  0  0  0  0  0  0  0  0
   -4.8640    5.1660    5.2000 O   0  0  0  0  0  0  0  0  0  0  0  0
   -5.4130    7.1750    4.2930 O   0  0  0  0  0  0  0  0  0  0  0  0
    4.7130    0.1240    1.1280 C   0  0  0  0  0  0  0  0  0  0  0  0
    4.6630    0.7920    2.1940 O   0  0  0  0  0  0  0  0  0  0  0  0
  1  2  1  0
  2  3  1  0
  3  4  1  0
  3 42  1  0
  4  5  1  0
  5  6  1  0
  6  7  1  0
  6 42  1  0
  7  8  1  0
  8  9  2  0
  8 10  1  0
 10 11  1  0
 10 16  1  0
 11 12  1  0
 12 13  1  0
 13 14  1  0
 14 15  2  0
 14 16  1  0
 16 17  1  6
 16 26  1  0
 17 18  2  0
 17 19  1  0
 19 20  1  0
 20 21  2  0
 20 25  1  0
 21 22  1  0
 22 23  2  0
 23 24  1  0
 24 25  2  0
 26 27  1  6
 26 31  1  0
 27 28  2  0
 27 29  1  0
 29 30  1  0
 31 32  2  0
 31 33  1  0
 33 34  1  0
 34 35  2  0
 34 36  1  0
 36 37  2  0
 36 38  1  0
 38 39  1  0
 39 40  2  0
 39 41  1  0
 42 43  2  0
M  END
