
     RDKit          3D

 43 45  0  0  0  0  0  0  0  0999 V2000
   -4.1540    1.4800   -1.1600 C   0  0  0  0  0  0  0  0  0  0  0  0
   -3.3280    0.5750   -2.0370 C   0  0  1  0  0  0  0  0  0  0  0  0
   -2.4830    1.4360   -2.9620 C   0  0  0  0  0  0  0  0  0  0  0  0
   -2.5400   -0.3330   -1.3160 O   0  0  0  0  0  0  0  0  0  0  0  0
   -1.5600    0.0680   -0.4030 C   0  0  0  0  0  0  0  0  0  0  0  0
   -1.4050    1.2840   -0.2480 O   0  0  0  0  0  0  0  0  0  0  0  0
   -0.8100   -1.0130    0.2820 C   0  0  2  0  0  0  0  0  0  0  0  0
   -1.7670   -1.8280    1.0600 C   0  0  0  0  0  0  0  0  0  0  0  0
   -1.0560   -2.9970    1.6410 C   0  0  0  0  0  0  0  0  0  0  0  0
    0.4050   -2.9560    1.4570 N   0  0  0  0  0  0  0  0  0  0  0  0
    1.0460   -1.6960    1.7070 C   0  0  0  0  0  0  0  0  0  0  0  0
    0.3950   -0.4990    1.0360 C   0  0  2  0  0  0  0  0  0  0  0  0
   -0.0480    0.4780    2.1110 C   0  0  0  0  0  0  0  0  0  0  0  0
    0.1510    1.7140    1.9580 O   0  0  0  0  0  0  0  0  0  0  0  0
   -0.6850    0.1140    3.3040 N   0  0  0  0  0  0  0  0  0  0  0  0
   -1.0900    1.1230    4.2940 C   0  0  0  0  0  0  0  0  0  0  0  0
   -2.0590    2.1140    3.7470 C   0  0  0  0  0  0  0  0  0  0  0  0
   -3.2340    1.5460    3.2980 O   0  0  0  0  0  0  0  0  0  0  0  0
    1.2090    0.1820    0.0270 C   0  0  0  0  0  0  0  0  0  0  0  0
    1.2080    1.6420    0.1290 N   0  0  0  0  0  0  0  0  0  0  0  0
    2.2810    2.3140    0.1190 C   0  0  0  0  0  0  0  0  0  0  0  0
    3.5020    1.6690    0.0100 O   0  0  0  0  0  0  0  0  0  0  0  0
    2.2130    3.7800    0.2250 C   0  0  0  0  0  0  0  0  0  0  0  0
    2.8000    4.4190   -0.9400 N   0  0  0  0  0  0  0  0  0  0  0  0
    2.8190    5.8430   -1.0040 C   0  0  0  0  0  0  0  0  0  0  0  0
    2.3260    6.4840   -0.0510 O   0  0  0  0  0  0  0  0  0  0  0  0
    3.3850    6.4370   -2.1260 O   0  0  0  0  0  0  0  0  0  0  0  0
    1.8890   -0.2810   -0.8860 N   0  0  0  0  0  0  0  0  0  0  0  0
    2.2900   -1.4590   -1.4830 C   0  0  0  0  0  0  0  0  0  0  0  0
    2.1230   -1.7450   -2.8460 C   0  0  0  0  0  0  0  0  0  0  0  0
    2.5530   -2.9150   -3.4300 C   0  0  0  0  0  0  0  0  0  0  0  0
    3.1760   -3.8410   -2.6180 C   0  0  0  0  0  0  0  0  0  0  0  0
    3.3470   -3.5780   -1.2830 C   0  0  0  0  0  0  0  0  0  0  0  0
    2.9070   -2.4320   -0.8010 N   0  0  0  0  0  0  0  0  0  0  0  0
    3.9990   -4.5640   -0.3800 C   0  0  0  0  0  0  0  0  0  0  0  0
    4.9040   -5.2410   -0.8830 O   0  0  0  0  0  0  0  0  0  0  0  0
    3.5390   -4.6420    0.9480 O   0  0  0  0  0  0  0  0  0  0  0  0
    2.3120   -4.5700    1.3850 O   0  0  0  0  0  0  0  0  0  0  0  0
    1.0900   -4.1700    1.0690 C   0  0  0  0  0  0  0  0  0  0  0  0
    0.3170   -4.8870    0.3170 O   0  0  0  0  0  0  0  0  0  0  0  0
   -4.2520   -0.2050   -2.9000 C   0  0  0  0  0  0  0  0  0  0  0  0
   -5.0490    0.4240   -3.6270 O   0  0  0  0  0  0  0  0  0  0  0  0
   -4.2780   -1.5880   -2.9410 O   0  0  0  0  0  0  0  0  0  0  0  0
  2  1  1  1
  2  3  1  0
  2  4  1  0
  2 41  1  0
  4  5  1  0
  5  6  2  0
  7  5  1  1
  7  8  1  0
  7 12  1  0
  8  9  1  0
  9 10  1  0
 10 11  1  0
 10 39  1  0
 11 12  1  0
 12 13  1  1
 12 19  1  0
 13 14  2  0
 13 15  1  0
 15 16  1  0
 16 17  1  0
 17 18  1  0
 19 20  1  0
 19 28  2  0
 20 21  2  3
 21 22  1  0
 21 23  1  0
 23 24  1  0
 24 25  1  0
 25 26  2  0
 25 27  1  0
 28 29  1  0
 29 30  2  0
 29 34  1  0
 30 31  1  0
 31 32  2  0
 32 33  1  0
 33 34  2  0
 33 35  1  0
 35 36  2  0
 35 37  1  0
 37 38  1  0
 38 39  1  0
 39 40  2  0
 41 42  2  0
 41 43  1  0
M  END
