
     RDKit          3D

 43 47  0  0  0  0  0  0  0  0999 V2000
   -7.2920    0.8820    1.9810 O   0  0  0  0  0  0  0  0  0  0  0  0
   -6.2740    0.5350    2.6170 C   0  0  0  0  0  0  0  0  0  0  0  0
   -5.2750   -0.2830    1.9590 C   0  0  0  0  0  0  0  0  0  0  0  0
   -5.3070   -0.3020    0.4360 C   0  0  1  0  0  0  0  0  0  0  0  0
   -4.2350   -1.1210    0.0070 O   0  0  0  0  0  0  0  0  0  0  0  0
   -2.9000   -0.7900    0.1330 C   0  0  0  0  0  0  0  0  0  0  0  0
   -2.0750   -1.5200    0.9650 C   0  0  0  0  0  0  0  0  0  0  0  0
   -0.7450   -1.2470    1.1660 C   0  0  0  0  0  0  0  0  0  0  0  0
   -0.1950   -0.2000    0.5190 C   0  0  0  0  0  0  0  0  0  0  0  0
    1.1370    0.2080    0.5920 N   0  0  0  0  0  0  0  0  0  0  0  0
    2.0960   -0.5690   -0.3410 C   0  0  0  0  0  0  0  0  0  0  0  0
    1.5170   -1.4460   -0.9050 O   0  0  0  0  0  0  0  0  0  0  0  0
    3.3220   -0.0170   -0.2580 N   0  0  0  0  0  0  0  0  0  0  0  0
    3.8810   -0.5340   -1.8710 C   0  0  0  0  0  0  0  0  0  0  0  0
    3.0690   -1.1420   -2.4140 O   0  0  0  0  0  0  0  0  0  0  0  0
    5.1880   -0.0240   -2.0530 C   0  0  0  0  0  0  0  0  0  0  0  0
    5.5630    0.7150   -3.2050 C   0  0  0  0  0  0  0  0  0  0  0  0
    6.7940    1.0650   -3.0670 N   0  0  0  0  0  0  0  0  0  0  0  0
    7.3180    0.6380   -1.9280 N   0  0  0  0  0  0  0  0  0  0  0  0
    8.4320    0.6100   -1.1680 C   0  0  0  0  0  0  0  0  0  0  0  0
    8.0940   -0.1010   -0.0560 C   0  0  0  0  0  0  0  0  0  0  0  0
    8.9910   -0.4390    1.1130 C   0  0  2  0  0  0  0  0  0  0  0  0
    8.2160   -0.6940    2.3380 C   0  0  0  0  0  0  0  0  0  0  0  0
    8.0960    0.5410    2.9300 O   0  0  0  0  0  0  0  0  0  0  0  0
    8.9310    1.4380    2.2350 C   0  0  0  0  0  0  0  0  0  0  0  0
    9.7610    0.6900    1.4060 O   0  0  0  0  0  0  0  0  0  0  0  0
    6.8410   -0.4720   -0.1470 O   0  0  0  0  0  0  0  0  0  0  0  0
    6.3200   -0.0380   -1.2870 C   0  0  0  0  0  0  0  0  0  0  0  0
   -1.0020    0.5470   -0.3300 C   0  0  0  0  0  0  0  0  0  0  0  0
   -2.3350    0.2910   -0.5510 C   0  0  0  0  0  0  0  0  0  0  0  0
   -3.0390    1.0910   -1.5840 C   0  0  0  0  0  0  0  0  0  0  0  0
   -2.9250    0.5720   -2.8550 O   0  0  0  0  0  0  0  0  0  0  0  0
   -3.4550   -0.6840   -3.0810 C   0  0  0  0  0  0  0  0  0  0  0  0
   -4.9360   -0.7420   -3.2150 C   0  0  0  0  0  0  0  0  0  0  0  0
   -5.6180    0.4300   -2.9590 O   0  0  0  0  0  0  0  0  0  0  0  0
   -6.7430    0.6540   -2.1840 C   0  0  0  0  0  0  0  0  0  0  0  0
   -7.3380    1.7450   -2.3920 O   0  0  0  0  0  0  0  0  0  0  0  0
   -7.2780   -0.1930   -1.2000 N   0  0  0  0  0  0  0  0  0  0  0  0
   -6.5500   -0.8450   -0.1420 C   0  0  0  0  0  0  0  0  0  0  0  0
   -7.0240   -1.9200    0.2800 O   0  0  0  0  0  0  0  0  0  0  0  0
   -6.1160    0.9290    3.9500 N   0  0  0  0  0  0  0  0  0  0  0  0
   -6.9630    1.6600    4.6610 O   0  0  0  0  0  0  0  0  0  0  0  0
   -8.2090    1.2910    4.4960 O   0  0  0  0  0  0  0  0  0  0  0  0
  1  2  2  0
  2  3  1  0
  2 41  1  0
  4  3  1  1
  4  5  1  0
  4 39  1  0
  5  6  1  0
  6  7  2  0
  6 30  1  0
  7  8  1  0
  8  9  2  0
  9 10  1  0
  9 29  1  0
 10 11  1  0
 11 12  2  0
 11 13  1  0
 13 14  1  0
 14 15  2  0
 14 16  1  0
 16 17  1  0
 16 28  2  0
 17 18  2  0
 18 19  1  0
 19 20  1  0
 19 28  1  0
 20 21  2  0
 22 21  1  6
 21 27  1  0
 22 23  1  0
 22 26  1  0
 23 24  1  0
 24 25  1  0
 25 26  1  0
 27 28  1  0
 29 30  2  0
 30 31  1  0
 31 32  1  0
 32 33  1  0
 33 34  1  0
 34 35  1  0
 35 36  1  0
 36 37  2  0
 36 38  1  0
 38 39  1  0
 39 40  2  0
 41 42  1  0
 42 43  1  0
M  END
