
     RDKit          3D

 43 46  0  0  0  0  0  0  0  0999 V2000
    1.3930    6.7700    1.8440 C   0  0  0  0  0  0  0  0  0  0  0  0
    0.5130    5.7810    1.1140 C   0  0  0  0  0  0  0  0  0  0  0  0
    1.3080    4.9610    0.2460 O   0  0  0  0  0  0  0  0  0  0  0  0
    0.6350    3.9720   -0.5180 C   0  0  0  0  0  0  0  0  0  0  0  0
   -0.5990    3.8770   -0.3920 O   0  0  0  0  0  0  0  0  0  0  0  0
    1.2950    3.1550   -1.3600 O   0  0  0  0  0  0  0  0  0  0  0  0
    0.9080    2.1480   -2.1800 C   0  0  0  0  0  0  0  0  0  0  0  0
    0.3230    0.9080   -1.6310 C   0  0  1  0  0  0  0  0  0  0  0  0
    1.1980    0.1410   -0.6910 C   0  0  0  0  0  0  0  0  0  0  0  0
    2.4840   -0.3410   -1.2630 C   0  0  0  0  0  0  0  0  0  0  0  0
    3.3900    0.5900   -1.6650 O   0  0  0  0  0  0  0  0  0  0  0  0
    3.9220    1.3490   -0.6260 C   0  0  0  0  0  0  0  0  0  0  0  0
    4.6760    0.4700    0.3620 C   0  0  0  0  0  0  0  0  0  0  0  0
    5.7470   -0.2010   -0.2940 O   0  0  0  0  0  0  0  0  0  0  0  0
    6.5720   -1.0680    0.4340 C   0  0  0  0  0  0  0  0  0  0  0  0
    6.2960   -1.1930    1.6540 O   0  0  0  0  0  0  0  0  0  0  0  0
    7.6450   -1.7570   -0.1600 N   0  0  0  0  0  0  0  0  0  0  0  0
    8.5140   -2.6580    0.5240 C   0  0  0  0  0  0  0  0  0  0  0  0
    7.9130   -3.8830    1.1050 C   0  0  0  0  0  0  0  0  0  0  0  0
    6.9500   -3.5830    2.0430 O   0  0  0  0  0  0  0  0  0  0  0  0
   -1.0950    1.0420   -1.1090 C   0  0  0  0  0  0  0  0  0  0  0  0
   -1.7350   -0.2570   -1.3070 N   0  0  0  0  0  0  0  0  0  0  0  0
   -2.9180   -0.8150   -0.8020 C   0  0  0  0  0  0  0  0  0  0  0  0
   -3.1830   -2.0400   -1.1460 O   0  0  0  0  0  0  0  0  0  0  0  0
   -3.8830   -0.2380    0.0370 N   0  0  0  0  0  0  0  0  0  0  0  0
   -3.9140    1.0970    0.5390 C   0  0  0  0  0  0  0  0  0  0  0  0
   -3.7550    1.0620    2.0520 C   0  0  0  0  0  0  0  0  0  0  0  0
   -4.4050   -0.0650    2.5730 O   0  0  0  0  0  0  0  0  0  0  0  0
   -5.4940   -0.4290    1.7800 C   0  0  0  0  0  0  0  0  0  0  0  0
   -5.0150   -1.1030    0.5020 C   0  0  1  0  0  0  0  0  0  0  0  0
   -6.0150   -1.0930   -0.5630 C   0  0  0  0  0  0  0  0  0  0  0  0
   -7.0260   -2.0360   -0.5350 O   0  0  0  0  0  0  0  0  0  0  0  0
   -6.9690   -3.4250   -0.5770 C   0  0  0  0  0  0  0  0  0  0  0  0
   -7.8390   -4.3010   -1.1440 C   0  0  0  0  0  0  0  0  0  0  0  0
   -7.3580   -5.5100   -0.9220 O   0  0  0  0  0  0  0  0  0  0  0  0
   -6.2420   -5.4400   -0.2510 N   0  0  0  0  0  0  0  0  0  0  0  0
   -5.9400   -4.1550   -0.0010 C   0  0  0  0  0  0  0  0  0  0  0  0
   -4.7850   -3.7260    0.7130 N   0  0  0  0  0  0  0  0  0  0  0  0
   -4.4050   -2.3660    0.8740 C   0  0  0  0  0  0  0  0  0  0  0  0
   -3.2830   -2.2420    1.4770 O   0  0  0  0  0  0  0  0  0  0  0  0
   -0.8670   -0.9510   -2.2380 C   0  0  0  0  0  0  0  0  0  0  0  0
   -0.8770   -2.1780   -2.5430 O   0  0  0  0  0  0  0  0  0  0  0  0
    0.0300   -0.0110   -2.7760 N   0  0  0  0  0  0  0  0  0  0  0  0
  1  2  1  0
  2  3  1  0
  3  4  1  0
  4  5  2  0
  4  6  1  0
  6  7  1  0
  8  7  1  6
  8  9  1  0
  8 21  1  0
  8 43  1  0
  9 10  1  0
 10 11  1  0
 11 12  1  0
 12 13  1  0
 13 14  1  0
 14 15  1  0
 15 16  2  0
 15 17  1  0
 17 18  1  0
 18 19  1  0
 19 20  1  0
 21 22  1  0
 22 23  1  0
 22 41  1  0
 23 24  2  0
 23 25  1  0
 25 26  1  0
 25 30  1  0
 26 27  1  0
 27 28  1  0
 28 29  1  0
 30 29  1  1
 30 31  1  0
 30 39  1  0
 31 32  1  0
 32 33  1  0
 33 34  2  0
 33 37  1  0
 34 35  1  0
 35 36  1  0
 36 37  2  0
 37 38  1  0
 38 39  1  0
 39 40  2  0
 41 42  2  0
 41 43  1  0
M  END
