
     RDKit          3D

 43 47  0  0  0  0  0  0  0  0999 V2000
   -1.1350   -4.0910    0.2900 O   0  0  0  0  0  0  0  0  0  0  0  0
   -1.2180   -2.9320    0.8240 C   0  0  0  0  0  0  0  0  0  0  0  0
   -1.2270   -1.8140   -0.0450 N   0  0  0  0  0  0  0  0  0  0  0  0
   -1.5350   -0.4780    0.3990 C   0  0  0  0  0  0  0  0  0  0  0  0
   -1.2830    0.5610   -0.6170 C   0  0  1  0  0  0  0  0  0  0  0  0
   -2.4580    0.5430   -1.5820 C   0  0  0  0  0  0  0  0  0  0  0  0
   -3.6920    0.5860   -0.8570 O   0  0  0  0  0  0  0  0  0  0  0  0
   -4.9050    0.5760   -1.5300 C   0  0  0  0  0  0  0  0  0  0  0  0
   -4.9220    0.5290   -2.7880 O   0  0  0  0  0  0  0  0  0  0  0  0
   -6.2040    0.6180   -0.8190 C   0  0  2  0  0  0  0  0  0  0  0  0
   -6.9560    1.8560   -1.1750 C   0  0  0  0  0  0  0  0  0  0  0  0
   -6.7730    2.6860   -0.0820 O   0  0  0  0  0  0  0  0  0  0  0  0
   -6.7680    1.7930    0.9870 C   0  0  0  0  0  0  0  0  0  0  0  0
   -6.0720    0.6690    0.5500 O   0  0  0  0  0  0  0  0  0  0  0  0
   -1.3290    1.9280    0.0670 C   0  0  0  0  0  0  0  0  0  0  0  0
   -0.3550    2.7840   -0.3810 O   0  0  0  0  0  0  0  0  0  0  0  0
   -0.2800    2.9150   -1.7480 C   0  0  0  0  0  0  0  0  0  0  0  0
    0.0610    1.5690   -2.3520 C   0  0  0  0  0  0  0  0  0  0  0  0
   -0.0240    0.5100   -1.3210 N   0  0  0  0  0  0  0  0  0  0  0  0
    1.0390   -0.3820   -1.1410 C   0  0  0  0  0  0  0  0  0  0  0  0
    1.5020   -0.8880   -2.2220 O   0  0  0  0  0  0  0  0  0  0  0  0
    1.6890   -0.8120    0.1060 C   0  0  2  0  0  0  0  0  0  0  0  0
    3.0750   -0.2150    0.1390 C   0  0  0  0  0  0  0  0  0  0  0  0
    3.4810    0.5250    1.2550 C   0  0  0  0  0  0  0  0  0  0  0  0
    4.7390    1.0750    1.3450 C   0  0  0  0  0  0  0  0  0  0  0  0
    5.6510    0.9150    0.3290 C   0  0  0  0  0  0  0  0  0  0  0  0
    6.9420    1.4560    0.3790 O   0  0  0  0  0  0  0  0  0  0  0  0
    7.9610    0.7970    0.8900 O   0  0  0  0  0  0  0  0  0  0  0  0
    8.7260    1.5650    1.6320 O   0  0  0  0  0  0  0  0  0  0  0  0
    9.1200    2.6130    0.9270 O   0  0  0  0  0  0  0  0  0  0  0  0
    5.2610    0.1970   -0.7580 C   0  0  0  0  0  0  0  0  0  0  0  0
    3.9860   -0.3660   -0.8590 C   0  0  0  0  0  0  0  0  0  0  0  0
    1.9090   -2.2370    0.2280 N   0  0  0  0  0  0  0  0  0  0  0  0
    2.1010   -3.1430   -0.7410 C   0  0  0  0  0  0  0  0  0  0  0  0
    2.2670   -4.3730   -0.1210 C   0  0  0  0  0  0  0  0  0  0  0  0
    2.1730   -4.1820    1.1840 N   0  0  0  0  0  0  0  0  0  0  0  0
    1.9490   -2.8540    1.4360 C   0  0  0  0  0  0  0  0  0  0  0  0
    1.7990   -2.2410    2.7020 N   0  0  0  0  0  0  0  0  0  0  0  0
    0.6710   -1.5490    3.1870 C   0  0  0  0  0  0  0  0  0  0  0  0
    0.9020   -0.4280    3.7680 O   0  0  0  0  0  0  0  0  0  0  0  0
   -0.7220   -1.9530    3.1070 C   0  0  0  0  0  0  0  0  0  0  0  0
   -1.5500   -1.4000    3.9370 O   0  0  0  0  0  0  0  0  0  0  0  0
   -1.2920   -2.8820    2.2290 N   0  0  0  0  0  0  0  0  0  0  0  0
  1  2  2  0
  2  3  1  0
  2 43  1  0
  3  4  1  0
  4  5  1  0
  5  6  1  6
  5 15  1  0
  5 19  1  0
  6  7  1  0
  7  8  1  0
  8  9  2  0
 10  8  1  6
 10 11  1  0
 10 14  1  0
 11 12  1  0
 12 13  1  0
 13 14  1  0
 15 16  1  0
 16 17  1  0
 17 18  1  0
 18 19  1  0
 19 20  1  0
 20 21  2  0
 20 22  1  0
 22 23  1  6
 22 33  1  0
 23 24  2  0
 23 32  1  0
 24 25  1  0
 25 26  2  0
 26 27  1  0
 26 31  1  0
 27 28  1  0
 28 29  1  0
 29 30  1  0
 31 32  2  0
 33 34  1  0
 33 37  1  0
 34 35  2  0
 35 36  1  0
 36 37  2  0
 37 38  1  0
 38 39  1  0
 39 40  2  0
 39 41  1  0
 41 42  2  0
 41 43  1  0
M  END
