
     RDKit          3D

 13 12  0  0  0  0  0  0  0  0999 V2000
   -3.0730   -1.6800    0.9170 C   0  0  0  0  0  0  0  0  0  0  0  0
   -1.7840   -1.1950    0.5890 O   0  0  0  0  0  0  0  0  0  0  0  0
   -1.4810   -0.8760   -0.7430 C   0  0  0  0  0  0  0  0  0  0  0  0
   -2.4080   -1.0430   -1.5760 O   0  0  0  0  0  0  0  0  0  0  0  0
   -0.1410   -0.3700   -1.1430 C   0  0  0  0  0  0  0  0  0  0  0  0
    0.6780    0.0290   -0.0410 N   0  0  0  0  0  0  0  0  0  0  0  0
    2.0920    0.1460   -0.3900 C   0  0  0  0  0  0  0  0  0  0  0  0
    2.6950   -1.2330   -0.6380 C   0  0  0  0  0  0  0  0  0  0  0  0
    4.0390   -1.0240   -0.9610 O   0  0  0  0  0  0  0  0  0  0  0  0
    0.3550    1.4160    0.3870 C   0  0  0  0  0  0  0  0  0  0  0  0
   -1.3570    1.6320    0.9850 P   0  0  0  0  0  0  0  0  0  0  0  0
   -1.2650    1.9180    2.7150 O   0  0  0  0  0  0  0  0  0  0  0  0
   -1.9710    3.1390    0.3140 O   0  0  0  0  0  0  0  0  0  0  0  0
  1  2  1  0
  2  3  1  0
  3  4  2  0
  3  5  1  0
  5  6  1  0
  6  7  1  0
  6 10  1  0
  7  8  1  0
  8  9  1  0
 10 11  1  0
 11 12  1  0
 11 13  1  0
M  END
