
     RDKit          3D

 13 12  0  0  0  0  0  0  0  0999 V2000
   -0.9630    3.3080    1.5060 C   0  0  0  0  0  0  0  0  0  0  0  0
   -0.7940    2.5020    0.2410 C   0  0  0  0  0  0  0  0  0  0  0  0
   -0.5040    1.1700    0.6150 O   0  0  0  0  0  0  0  0  0  0  0  0
   -0.3620    0.4940   -0.5260 O   0  0  0  0  0  0  0  0  0  0  0  0
   -0.2190   -0.8830   -0.5670 C   0  0  0  0  0  0  0  0  0  0  0  0
   -1.2830   -1.7280   -1.0870 C   0  0  0  0  0  0  0  0  0  0  0  0
   -2.3570   -1.1960   -1.5070 N   0  0  0  0  0  0  0  0  0  0  0  0
   -3.3700   -1.9690   -2.0000 O   0  0  0  0  0  0  0  0  0  0  0  0
   -4.4100   -2.3870   -1.2880 O   0  0  0  0  0  0  0  0  0  0  0  0
    0.8860   -1.4270   -0.1340 C   0  0  0  0  0  0  0  0  0  0  0  0
    1.9990   -0.5790    0.4070 C   0  0  0  0  0  0  0  0  0  0  0  0
    3.4840   -0.8870   -0.6420 P   0  0  0  0  0  0  0  0  0  0  0  0
    4.9490   -0.9440    0.2780 O   0  0  0  0  0  0  0  0  0  0  0  0
  1  2  1  0
  2  3  1  0
  3  4  1  0
  4  5  1  0
  5  6  1  0
  5 10  2  3
  6  7  2  3
  7  8  1  0
  8  9  1  0
 10 11  1  0
 11 12  1  0
 12 13  1  0
M  END
