
     RDKit          3D

 10  9  0  0  0  0  0  0  0  0999 V2000
    1.7710   -0.8820   -0.7700 O   0  0  0  0  0  0  0  0  0  0  0  0
    1.5900   -0.1780    0.2740 C   0  0  0  0  0  0  0  0  0  0  0  0
    0.2710   -0.1130    0.9480 C   0  0  0  0  0  0  0  0  0  0  0  0
   -0.5620   -0.8360    0.1300 O   0  0  0  0  0  0  0  0  0  0  0  0
   -1.6740    0.0540   -0.6380 P   0  0  0  0  0  0  0  0  0  0  0  0
   -1.5780   -0.7300   -1.9800 O   0  0  0  0  0  0  0  0  0  0  0  0
   -1.9390    1.0240    0.4850 O   0  0  0  0  0  0  0  0  0  0  0  0
   -3.2800   -0.2860   -0.6630 O   0  0  0  0  0  0  0  0  0  0  0  0
    2.6720    0.5010    0.7670 N   0  0  0  0  0  0  0  0  0  0  0  0
    3.9060    0.4340    0.1610 O   0  0  0  0  0  0  0  0  0  0  0  0
  1  2  2  0
  2  3  1  0
  2  9  1  0
  3  4  1  0
  4  5  1  0
  5  6  1  0
  5  7  1  0
  5  8  1  0
  9 10  1  0
M  END
