
     RDKit          3D

 13 12  0  0  0  0  0  0  0  0999 V2000
    4.4800    1.1860    0.1610 C   0  0  0  0  0  0  0  0  0  0  0  0
    3.6550    0.2160   -0.6500 C   0  0  0  0  0  0  0  0  0  0  0  0
    2.5880    0.8620   -1.2840 O   0  0  0  0  0  0  0  0  0  0  0  0
    1.4590    0.7180   -0.6420 O   0  0  0  0  0  0  0  0  0  0  0  0
    1.2400   -0.5390   -0.2540 O   0  0  0  0  0  0  0  0  0  0  0  0
   -0.0340   -0.9440    0.0980 C   0  0  0  0  0  0  0  0  0  0  0  0
   -0.3420   -2.2630    0.6990 C   0  0  0  0  0  0  0  0  0  0  0  0
   -0.9880   -0.0980   -0.0910 N   0  0  0  0  0  0  0  0  0  0  0  0
   -2.3710   -0.3640    0.2080 C   0  0  2  0  0  0  0  0  0  0  0  0
   -3.1280   -0.7850   -1.0210 C   0  0  0  0  0  0  0  0  0  0  0  0
   -3.1190    1.1590    0.9580 P   0  0  0  0  0  0  0  0  0  0  0  0
   -4.1430    1.9620   -0.1730 O   0  0  0  0  0  0  0  0  0  0  0  0
   -1.9090    2.2590    1.5190 O   0  0  0  0  0  0  0  0  0  0  0  0
  1  2  1  0
  2  3  1  0
  3  4  1  0
  4  5  1  0
  5  6  1  0
  6  7  1  0
  6  8  2  3
  8  9  1  0
  9 10  1  6
  9 11  1  0
 11 12  1  0
 11 13  1  0
M  END
