
     RDKit          3D

 13 12  0  0  0  0  0  0  0  0999 V2000
   -4.7060   -0.0080    0.0240 C   0  0  0  0  0  0  0  0  0  0  0  0
   -3.3150    0.1780   -0.1840 O   0  0  0  0  0  0  0  0  0  0  0  0
   -2.4150   -0.8630   -0.2450 C   0  0  0  0  0  0  0  0  0  0  0  0
   -2.8050   -2.0430   -0.1150 O   0  0  0  0  0  0  0  0  0  0  0  0
   -0.9780   -0.5940   -0.4650 C   0  0  1  0  0  0  0  0  0  0  0  0
   -0.5440   -1.2760   -1.7540 C   0  0  0  0  0  0  0  0  0  0  0  0
   -0.7670    0.7790   -0.5810 O   0  0  0  0  0  0  0  0  0  0  0  0
    0.1310    1.1990    0.4080 C   0  0  0  0  0  0  0  0  0  0  0  0
    1.3660    0.4800    0.2060 N   0  0  0  0  0  0  0  0  0  0  0  0
    2.3420    0.8720    1.2040 C   0  0  0  0  0  0  0  0  0  0  0  0
    3.9420   -0.0040    1.0090 P   0  0  0  0  0  0  0  0  0  0  0  0
    3.7880   -1.3280   -0.0930 O   0  0  0  0  0  0  0  0  0  0  0  0
    5.2540    1.0340    0.6360 O   0  0  0  0  0  0  0  0  0  0  0  0
  1  2  1  0
  2  3  1  0
  3  4  2  0
  3  5  1  0
  5  6  1  6
  5  7  1  0
  7  8  1  0
  8  9  1  0
  9 10  1  0
 10 11  1  0
 11 12  1  0
 11 13  1  0
M  END
