
     RDKit          3D

 13 12  0  0  0  0  0  0  0  0999 V2000
    1.4280    2.5990   -1.1620 C   0  0  0  0  0  0  0  0  0  0  0  0
    1.1980    1.8750   -0.0170 O   0  0  0  0  0  0  0  0  0  0  0  0
    1.4880    0.2010   -0.1510 P   0  0  0  0  0  0  0  0  0  0  0  0
    0.1410   -0.7400   -0.9560 C   0  0  0  0  0  0  0  0  0  0  0  0
   -1.0490   -0.8510   -0.1340 N   0  0  0  0  0  0  0  0  0  0  0  0
   -2.0920   -1.5900   -0.7780 C   0  0  0  0  0  0  0  0  0  0  0  0
   -1.5320    0.4440    0.2360 C   0  0  0  0  0  0  0  0  0  0  0  0
   -2.7420    0.3480    1.0720 C   0  0  0  0  0  0  0  0  0  0  0  0
   -3.1930   -0.7790    1.3540 O   0  0  0  0  0  0  0  0  0  0  0  0
   -3.3840    1.4850    1.5480 O   0  0  0  0  0  0  0  0  0  0  0  0
    1.9120   -0.4650    1.3860 O   0  0  0  0  0  0  0  0  0  0  0  0
    2.8270   -1.4930    1.1710 C   0  0  0  0  0  0  0  0  0  0  0  0
    3.9440   -0.9430    0.5370 O   0  0  0  0  0  0  0  0  0  0  0  0
  1  2  1  0
  2  3  1  0
  3  4  1  0
  3 11  1  0
  4  5  1  0
  5  6  1  0
  5  7  1  0
  7  8  1  0
  8  9  2  0
  8 10  1  0
 11 12  1  0
 12 13  1  0
M  END
