
     RDKit          3D

 12 11  0  0  0  0  0  0  0  0999 V2000
   -1.2470    1.1040   -1.6740 C   0  0  0  0  0  0  0  0  0  0  0  0
   -1.4440    0.8280   -0.1830 C   0  0  1  0  0  0  0  0  0  0  0  0
   -2.9150    0.4590   -0.0600 C   0  0  0  0  0  0  0  0  0  0  0  0
   -0.5640   -0.1690    0.2410 N   0  0  0  0  0  0  0  0  0  0  0  0
   -1.0000   -1.2630    0.9980 C   0  0  0  0  0  0  0  0  0  0  0  0
   -1.9950   -1.9570    0.2940 O   0  0  0  0  0  0  0  0  0  0  0  0
    0.7830    0.1470    0.1110 C   0  0  0  0  0  0  0  0  0  0  0  0
    1.8030   -0.8530    0.5460 C   0  0  2  0  0  0  0  0  0  0  0  0
    1.8130   -1.1350    1.8940 O   0  0  0  0  0  0  0  0  0  0  0  0
    3.4600   -0.2490   -0.0470 P   0  0  0  0  0  0  0  0  0  0  0  0
    3.6680    1.4140    0.3780 O   0  0  0  0  0  0  0  0  0  0  0  0
    3.3850   -0.3370   -1.7970 O   0  0  0  0  0  0  0  0  0  0  0  0
  2  1  1  6
  2  3  1  0
  2  4  1  0
  4  5  1  0
  4  7  1  0
  5  6  1  0
  7  8  1  0
  8  9  1  1
  8 10  1  0
 10 11  1  0
 10 12  1  0
M  END
