
     RDKit          3D

 12 11  0  0  0  0  0  0  0  0999 V2000
   -4.0820   -0.2660    0.4880 C   0  0  0  0  0  0  0  0  0  0  0  0
   -2.7880    0.4270    0.7440 C   0  0  0  0  0  0  0  0  0  0  0  0
   -1.5950   -0.3160    0.1180 C   0  0  0  0  0  0  0  0  0  0  0  0
   -0.4490    0.4640    0.4180 N   0  0  0  0  0  0  0  0  0  0  0  0
    0.8140   -0.0250   -0.0840 C   0  0  2  0  0  0  0  0  0  0  0  0
    1.1700   -1.3490    0.5590 C   0  0  0  0  0  0  0  0  0  0  0  0
    2.3800   -1.7770    0.0630 O   0  0  0  0  0  0  0  0  0  0  0  0
    1.8160    1.0220    0.1740 C   0  0  0  0  0  0  0  0  0  0  0  0
    1.5620    1.9520    0.9340 O   0  0  0  0  0  0  0  0  0  0  0  0
    3.4630    1.0160   -0.6130 P   0  0  0  0  0  0  0  0  0  0  0  0
    3.5930   -0.3940   -1.6480 O   0  0  0  0  0  0  0  0  0  0  0  0
    3.7180    2.4550   -1.5580 O   0  0  0  0  0  0  0  0  0  0  0  0
  1  2  1  0
  2  3  1  0
  3  4  1  0
  4  5  1  0
  5  6  1  1
  5  8  1  0
  6  7  1  0
  8  9  2  0
  8 10  1  0
 10 11  1  0
 10 12  1  0
M  END
