
     RDKit          3D

 13 12  0  0  0  0  0  0  0  0999 V2000
    4.6450    0.4290   -0.2950 C   0  0  0  0  0  0  0  0  0  0  0  0
    3.3760    0.0120   -0.7930 O   0  0  0  0  0  0  0  0  0  0  0  0
    2.2290    0.2090   -0.0300 C   0  0  0  0  0  0  0  0  0  0  0  0
    2.3390    0.7470    1.0790 O   0  0  0  0  0  0  0  0  0  0  0  0
    0.8880   -0.2200   -0.5370 C   0  0  0  0  0  0  0  0  0  0  0  0
   -0.0800    0.0580    0.4910 N   0  0  0  0  0  0  0  0  0  0  0  0
    0.1830   -0.8470    1.5980 C   0  0  0  0  0  0  0  0  0  0  0  0
   -1.4120   -0.1600    0.0340 C   0  0  2  0  0  0  0  0  0  0  0  0
   -1.8540    0.7350   -1.0930 C   0  0  0  0  0  0  0  0  0  0  0  0
   -3.1750    0.4570   -1.4700 O   0  0  0  0  0  0  0  0  0  0  0  0
   -2.6050    0.0880    1.4500 P   0  0  0  0  0  0  0  0  0  0  0  0
   -3.6530    1.4320    1.1680 O   0  0  0  0  0  0  0  0  0  0  0  0
   -3.5220   -1.3560    1.7340 O   0  0  0  0  0  0  0  0  0  0  0  0
  1  2  1  0
  2  3  1  0
  3  4  2  0
  3  5  1  0
  5  6  1  0
  6  7  1  0
  6  8  1  0
  8  9  1  6
  8 11  1  0
  9 10  1  0
 11 12  1  0
 11 13  1  0
M  END
