
     RDKit          3D

 13 12  0  0  0  0  0  0  0  0999 V2000
   -4.3050    1.3910    0.3630 C   0  0  0  0  0  0  0  0  0  0  0  0
   -3.2150    1.0410   -0.4290 O   0  0  0  0  0  0  0  0  0  0  0  0
   -2.3080    0.0480   -0.2100 C   0  0  0  0  0  0  0  0  0  0  0  0
   -2.4410   -0.6600    0.8260 O   0  0  0  0  0  0  0  0  0  0  0  0
   -1.1730   -0.2490   -1.1190 C   0  0  0  0  0  0  0  0  0  0  0  0
   -0.3420   -1.4080   -0.6690 C   0  0  2  0  0  0  0  0  0  0  0  0
   -1.1970   -2.5260   -0.6300 O   0  0  0  0  0  0  0  0  0  0  0  0
    0.2120   -1.2820    0.6350 N   0  0  0  0  0  0  0  0  0  0  0  0
    1.1100   -0.2190    0.8500 C   0  0  0  0  0  0  0  0  0  0  0  0
    2.4360   -0.2980    0.1580 C   0  0  0  0  0  0  0  0  0  0  0  0
    3.3970    1.2190    0.6370 P   0  0  0  0  0  0  0  0  0  0  0  0
    3.7170    2.1840   -0.7620 O   0  0  0  0  0  0  0  0  0  0  0  0
    4.8560    0.8050    1.4330 O   0  0  0  0  0  0  0  0  0  0  0  0
  1  2  1  0
  2  3  1  0
  3  4  2  0
  3  5  1  0
  5  6  1  0
  6  7  1  1
  6  8  1  0
  8  9  1  0
  9 10  1  0
 10 11  1  0
 11 12  1  0
 11 13  1  0
M  END
