
     RDKit          3D

 21 21  0  0  0  0  0  0  0  0999 V2000
    5.6380    0.4360    0.6210 C   0  0  0  0  0  0  0  0  0  0  0  0
    4.1900    0.3480    0.2870 C   0  0  0  0  0  0  0  0  0  0  0  0
    3.6650   -0.8300    0.2400 N   0  0  0  0  0  0  0  0  0  0  0  0
    3.4020    1.4410    0.0310 O   0  0  0  0  0  0  0  0  0  0  0  0
    2.0750    1.4030    0.2110 O   0  0  0  0  0  0  0  0  0  0  0  0
    1.2390    1.5690   -1.2950 P   0  0  0  0  0  0  0  0  0  0  0  0
   -0.3930    0.4850   -1.6610 P   0  0  0  0  0  0  0  0  0  0  0  0
   -0.9600   -0.6830   -0.3400 C   0  0  0  0  0  0  0  0  0  0  0  0
   -2.0170   -0.2150    0.4130 C   0  0  0  0  0  0  0  0  0  0  0  0
   -2.6980    1.0660    0.2430 C   0  0  2  0  0  0  0  0  0  0  0  0
   -3.3660    1.0710   -1.1240 C   0  0  0  0  0  0  0  0  0  0  0  0
   -1.8090    2.2710    0.3900 C   0  0  0  0  0  0  0  0  0  0  0  0
   -3.7790    1.1950    1.2520 C   0  0  0  0  0  0  0  0  0  0  0  0
   -4.0950    0.4170    2.0960 O   0  0  0  0  0  0  0  0  0  0  0  0
   -2.5150   -1.3280    1.6470 P   0  0  0  0  0  0  0  0  0  0  0  0
   -1.5590   -2.7960    1.6520 C   0  0  0  0  0  0  0  0  0  0  0  0
   -0.5830   -2.8140    0.6840 C   0  0  0  0  0  0  0  0  0  0  0  0
    0.1170   -3.8930    0.6920 O   0  0  0  0  0  0  0  0  0  0  0  0
   -0.3340   -1.8450   -0.2040 N   0  0  0  0  0  0  0  0  0  0  0  0
    0.7550   -2.1360   -1.1110 C   0  0  0  0  0  0  0  0  0  0  0  0
    1.0890   -1.3090   -1.9950 O   0  0  0  0  0  0  0  0  0  0  0  0
  1  2  1  0
  2  3  2  0
  2  4  1  0
  4  5  1  0
  5  6  1  0
  6  7  2  3
  7  8  1  0
  8  9  2  0
  8 19  1  0
  9 10  1  0
  9 15  1  0
 10 11  1  6
 10 12  1  0
 10 13  1  0
 13 14  2  0
 15 16  2  0
 16 17  1  0
 17 18  2  0
 17 19  1  0
 19 20  1  0
 20 21  2  0
M  END
