
     RDKit          3D

 21 21  0  0  0  0  0  0  0  0999 V2000
   -4.8370   -1.5420   -1.0750 C   0  0  0  0  0  0  0  0  0  0  0  0
   -4.6830   -0.0850   -1.4000 C   0  0  1  0  0  0  0  0  0  0  0  0
   -6.3400    0.7340   -1.7030 P   0  0  0  0  0  0  0  0  0  0  0  0
   -4.0590    0.6210   -0.3660 O   0  0  0  0  0  0  0  0  0  0  0  0
   -2.8010    0.3770    0.1280 C   0  0  0  0  0  0  0  0  0  0  0  0
   -2.6680   -0.2270    1.2760 C   0  0  0  0  0  0  0  0  0  0  0  0
   -3.8020   -0.6150    1.9800 O   0  0  0  0  0  0  0  0  0  0  0  0
   -1.3940   -0.5050    1.8360 N   0  0  0  0  0  0  0  0  0  0  0  0
   -0.2760   -0.1050    1.1070 N   0  0  0  0  0  0  0  0  0  0  0  0
   -0.4350    0.5550   -0.1470 C   0  0  0  0  0  0  0  0  0  0  0  0
    0.7240    0.9450   -0.8540 O   0  0  0  0  0  0  0  0  0  0  0  0
    2.1540   -0.0210   -0.6360 P   0  0  0  0  0  0  0  0  0  0  0  0
    3.0990    0.1520    0.7020 N   0  0  0  0  0  0  0  0  0  0  0  0
    4.2400   -0.6640    0.8090 C   0  0  0  0  0  0  0  0  0  0  0  0
    5.4110   -0.2010    0.3750 C   0  0  0  0  0  0  0  0  0  0  0  0
    6.5840   -1.0480    0.4880 C   0  0  0  0  0  0  0  0  0  0  0  0
    6.5350   -2.2040    0.9810 O   0  0  0  0  0  0  0  0  0  0  0  0
    5.5040    1.1280   -0.1980 C   0  0  0  0  0  0  0  0  0  0  0  0
    6.7690    1.5860   -0.6490 N   0  0  0  0  0  0  0  0  0  0  0  0
    4.5210    1.8980   -0.3180 O   0  0  0  0  0  0  0  0  0  0  0  0
   -1.6340    0.7890   -0.6210 C   0  0  0  0  0  0  0  0  0  0  0  0
  2  1  1  1
  2  3  1  0
  2  4  1  0
  4  5  1  0
  5  6  2  0
  5 21  1  0
  6  7  1  0
  6  8  1  0
  8  9  1  0
  9 10  1  0
 10 11  1  0
 10 21  2  0
 11 12  1  0
 12 13  2  3
 13 14  1  0
 14 15  2  3
 15 16  1  0
 15 18  1  0
 16 17  2  0
 18 19  1  0
 18 20  2  0
M  END
