
     RDKit          3D

 21 23  0  0  0  0  0  0  0  0999 V2000
   -4.8230    0.4000   -1.1490 C   0  0  0  0  0  0  0  0  0  0  0  0
   -3.5370   -0.3630   -0.7510 C   0  0  0  0  0  0  0  0  0  0  0  0
   -2.8410    0.1920    0.2210 O   0  0  0  0  0  0  0  0  0  0  0  0
   -1.8370    0.2520    1.0520 C   0  0  0  0  0  0  0  0  0  0  0  0
   -0.5760   -0.0890    0.8970 C   0  0  0  0  0  0  0  0  0  0  0  0
    0.2640   -0.6460   -0.1780 C   0  0  0  0  0  0  0  0  0  0  0  0
   -0.3220   -1.4480   -0.9690 N   0  0  0  0  0  0  0  0  0  0  0  0
    1.6780   -0.3010   -0.2880 N   0  0  0  0  0  0  0  0  0  0  0  0
    2.3570   -0.8240   -1.2920 N   0  0  0  0  0  0  0  0  0  0  0  0
    1.6480   -1.7180   -2.2100 C   0  0  0  0  0  0  0  0  0  0  0  0
    3.6130   -0.6330   -1.5680 O   0  0  0  0  0  0  0  0  0  0  0  0
    4.4610    0.3730   -0.5580 P   0  0  0  0  0  0  0  0  0  0  0  0
    5.9870    1.1220   -0.9110 O   0  0  0  0  0  0  0  0  0  0  0  0
    3.4270    0.9720    0.7030 C   0  0  0  0  0  0  0  0  0  0  0  0
    3.8800    1.7540    1.5760 O   0  0  0  0  0  0  0  0  0  0  0  0
    2.1630    0.5240    0.6330 N   0  0  0  0  0  0  0  0  0  0  0  0
    1.3260    1.0540    1.7100 C   0  0  0  0  0  0  0  0  0  0  0  0
    1.5130    2.1500    2.2280 O   0  0  0  0  0  0  0  0  0  0  0  0
    0.2010    0.1850    2.1690 C   0  0  1  0  0  0  0  0  0  0  0  0
   -0.7890    0.7320    3.0440 C   0  0  0  0  0  0  0  0  0  0  0  0
   -1.9700    0.7830    2.4460 C   0  0  0  0  0  0  0  0  0  0  0  0
  1  2  1  0
  2  3  1  0
  3  4  1  0
  4  5  2  0
  4 21  1  0
  5  6  1  0
  5 19  1  0
  6  7  2  0
  6  8  1  0
  8  9  1  0
  8 16  1  0
  9 10  1  0
  9 11  1  0
 11 12  1  0
 12 13  1  0
 12 14  1  0
 14 15  2  0
 14 16  1  0
 16 17  1  0
 17 18  2  0
 17 19  1  0
 19 20  1  1
 20 21  2  0
M  END
