
     RDKit          3D

 21 21  0  0  0  0  0  0  0  0999 V2000
    5.8200    0.2330    1.9830 C   0  0  0  0  0  0  0  0  0  0  0  0
    4.9200   -0.9470    1.6960 C   0  0  0  0  0  0  0  0  0  0  0  0
    4.9080   -1.2210    0.2740 N   0  0  0  0  0  0  0  0  0  0  0  0
    4.2760   -0.4460   -0.5420 C   0  0  0  0  0  0  0  0  0  0  0  0
    4.2560   -0.7140   -1.9890 C   0  0  0  0  0  0  0  0  0  0  0  0
    3.6390    0.0460   -2.7620 O   0  0  0  0  0  0  0  0  0  0  0  0
    3.3900    1.0090    0.1080 P   0  0  0  0  0  0  0  0  0  0  0  0
    1.7440    1.0480    0.0370 C   0  0  0  0  0  0  0  0  0  0  0  0
    1.0400   -0.0400   -0.5240 N   0  0  0  0  0  0  0  0  0  0  0  0
   -0.3480   -0.2190   -0.2570 C   0  0  0  0  0  0  0  0  0  0  0  0
   -1.1940    0.5670   -0.8640 C   0  0  0  0  0  0  0  0  0  0  0  0
   -0.7400    1.5570   -1.7500 O   0  0  0  0  0  0  0  0  0  0  0  0
   -2.6290    0.4590   -0.6550 C   0  0  0  0  0  0  0  0  0  0  0  0
   -3.2090   -0.4660    0.1830 C   0  0  0  0  0  0  0  0  0  0  0  0
   -4.5850   -0.5490    0.3620 C   0  0  0  0  0  0  0  0  0  0  0  0
   -5.1390   -1.5030    1.2220 O   0  0  0  0  0  0  0  0  0  0  0  0
   -6.5330   -1.5620    1.3820 C   0  0  0  0  0  0  0  0  0  0  0  0
   -5.3370    0.3270   -0.3270 N   0  0  0  0  0  0  0  0  0  0  0  0
   -4.7870    1.2180   -1.1340 N   0  0  0  0  0  0  0  0  0  0  0  0
   -3.4720    1.3420   -1.3440 C   0  0  0  0  0  0  0  0  0  0  0  0
   -2.9440    2.3060   -2.2110 O   0  0  0  0  0  0  0  0  0  0  0  0
  1  2  1  0
  2  3  1  0
  3  4  2  3
  4  5  1  0
  4  7  1  0
  5  6  2  0
  7  8  2  3
  8  9  1  0
  9 10  1  0
 10 11  2  3
 11 12  1  0
 11 13  1  0
 13 14  2  0
 13 20  1  0
 14 15  1  0
 15 16  1  0
 15 18  2  0
 16 17  1  0
 18 19  1  0
 19 20  2  0
 20 21  1  0
M  END
