
     RDKit          3D

 28 30  0  0  0  0  0  0  0  0999 V2000
    3.4840    3.4550    0.8160 N   0  0  0  0  0  0  0  0  0  0  0  0
    3.9520    2.1030    0.7270 C   0  0  0  0  0  0  0  0  0  0  0  0
    3.1630    1.1140    0.2700 N   0  0  0  0  0  0  0  0  0  0  0  0
    3.6460   -0.1580    0.2000 C   0  0  0  0  0  0  0  0  0  0  0  0
    4.9390   -0.4090    0.6010 C   0  0  0  0  0  0  0  0  0  0  0  0
    5.1750   -1.7230    0.4380 N   0  0  0  0  0  0  0  0  0  0  0  0
    4.0570   -2.2580   -0.0480 C   0  0  0  0  0  0  0  0  0  0  0  0
    3.1040   -1.3220   -0.2040 N   0  0  0  0  0  0  0  0  0  0  0  0
    1.7960   -1.5730   -0.7030 C   0  0  2  0  0  0  0  0  0  0  0  0
    0.7950   -0.8260   -0.1330 O   0  0  0  0  0  0  0  0  0  0  0  0
   -0.3320   -1.3450   -0.7680 C   0  0  2  0  0  0  0  0  0  0  0  0
   -1.6070   -0.7850   -0.2590 C   0  0  0  0  0  0  0  0  0  0  0  0
   -1.5740    0.5970   -0.4720 O   0  0  0  0  0  0  0  0  0  0  0  0
   -2.8270    1.3580    0.0010 P   0  0  0  0  0  0  0  0  0  0  0  0
   -3.8840    0.5020   -0.8830 O   0  0  0  0  0  0  0  0  0  0  0  0
   -2.4780    0.8660    1.5630 O   0  0  0  0  0  0  0  0  0  0  0  0
   -3.9150    2.2700    0.6120 O   0  0  0  0  0  0  0  0  0  0  0  0
   -5.4210    2.0630    0.5370 P   0  0  0  0  0  0  0  0  0  0  0  0
   -5.8150    3.3850    1.3840 O   0  0  0  0  0  0  0  0  0  0  0  0
   -5.3210    0.6190    1.2970 O   0  0  0  0  0  0  0  0  0  0  0  0
   -5.3010    2.1140   -1.1470 O   0  0  0  0  0  0  0  0  0  0  0  0
   -0.1810   -2.8310   -0.4490 C   0  0  1  0  0  0  0  0  0  0  0  0
   -0.8150   -3.5590   -1.4330 O   0  0  0  0  0  0  0  0  0  0  0  0
    1.3260   -2.9920   -0.4760 C   0  0  1  0  0  0  0  0  0  0  0  0
    1.6730   -3.7570   -1.6100 O   0  0  0  0  0  0  0  0  0  0  0  0
    5.7500    0.6000    1.0690 C   0  0  0  0  0  0  0  0  0  0  0  0
    6.9440    0.3660    1.4380 O   0  0  0  0  0  0  0  0  0  0  0  0
    5.2260    1.8380    1.1180 N   0  0  0  0  0  0  0  0  0  0  0  0
  1  2  1  0
  2  3  2  0
  2 28  1  0
  3  4  1  0
  4  5  2  0
  4  8  1  0
  5  6  1  0
  5 26  1  0
  6  7  2  0
  7  8  1  0
  9  8  1  1
  9 10  1  0
  9 24  1  0
 10 11  1  0
 11 12  1  1
 11 22  1  0
 12 13  1  0
 13 14  1  0
 14 15  1  0
 14 16  1  0
 14 17  1  0
 17 18  1  0
 18 19  1  0
 18 20  1  0
 18 21  1  0
 22 23  1  6
 22 24  1  0
 24 25  1  6
 26 27  2  0
 26 28  1  0
M  END
