
     RDKit          3D

 21 22  0  0  0  0  0  0  0  0999 V2000
    4.9020   -0.2720   -1.0200 C   0  0  0  0  0  0  0  0  0  0  0  0
    5.3740   -0.3380    0.4200 C   0  0  0  0  0  0  0  0  0  0  0  0
    4.2190   -0.8740    1.2370 C   0  0  0  0  0  0  0  0  0  0  0  0
    3.0740    0.0580    1.0880 C   0  0  0  0  0  0  0  0  0  0  0  0
    3.1870    1.3850    1.4760 O   0  0  0  0  0  0  0  0  0  0  0  0
    1.9480   -0.3710    0.5880 C   0  0  0  0  0  0  0  0  0  0  0  0
    0.5280    0.7100    0.3840 P   0  0  0  0  0  0  0  0  0  0  0  0
    1.0060    2.3380   -0.1460 O   0  0  0  0  0  0  0  0  0  0  0  0
   -0.1980    3.0540    0.0440 O   0  0  0  0  0  0  0  0  0  0  0  0
   -1.4650    2.4590    0.2470 C   0  0  0  0  0  0  0  0  0  0  0  0
   -2.0260    1.9820    1.3300 C   0  0  0  0  0  0  0  0  0  0  0  0
   -2.2210    0.5480    1.2200 O   0  0  0  0  0  0  0  0  0  0  0  0
   -2.0810   -0.0560   -0.0590 C   0  0  1  0  0  0  0  0  0  0  0  0
   -2.4120   -1.4520    0.0360 N   0  0  0  0  0  0  0  0  0  0  0  0
   -3.6810   -1.7750    0.5740 C   0  0  0  0  0  0  0  0  0  0  0  0
   -4.8430   -1.3880   -0.3060 C   0  0  0  0  0  0  0  0  0  0  0  0
   -3.0760    0.5210   -1.0210 N   0  0  0  0  0  0  0  0  0  0  0  0
   -2.5510    2.2820   -1.2720 P   0  0  0  0  0  0  0  0  0  0  0  0
   -3.8600    3.3440   -1.3050 O   0  0  0  0  0  0  0  0  0  0  0  0
   -0.7720    0.0450   -0.6070 N   0  0  0  0  0  0  0  0  0  0  0  0
   -0.2940   -1.0930   -1.3120 C   0  0  0  0  0  0  0  0  0  0  0  0
  1  2  1  0
  2  3  1  0
  3  4  1  0
  4  5  1  0
  4  6  2  3
  6  7  1  0
  7  8  1  0
  7 20  1  0
  8  9  1  0
  9 10  1  0
 10 11  2  0
 10 18  1  0
 11 12  1  0
 12 13  1  0
 13 14  1  1
 13 17  1  0
 13 20  1  0
 14 15  1  0
 15 16  1  0
 17 18  1  0
 18 19  1  0
 20 21  1  0
M  END
