
     RDKit          3D

 21 22  0  0  0  0  0  0  0  0999 V2000
   -5.9210   -0.4430    0.0050 C   0  0  0  0  0  0  0  0  0  0  0  0
   -4.9690   -1.5680   -0.1730 C   0  0  0  0  0  0  0  0  0  0  0  0
   -3.6710   -1.4480    0.0770 C   0  0  0  0  0  0  0  0  0  0  0  0
   -2.7540   -2.6030   -0.1160 C   0  0  0  0  0  0  0  0  0  0  0  0
   -3.0620   -0.1770    0.5580 C   0  0  0  0  0  0  0  0  0  0  0  0
   -1.7800    0.4650   -0.5950 P   0  0  0  0  0  0  0  0  0  0  0  0
   -0.8700    1.9550   -0.0770 C   0  0  1  0  0  0  0  0  0  0  0  0
   -1.1190    2.4260    1.2790 N   0  0  0  0  0  0  0  0  0  0  0  0
   -0.0800    0.6410   -0.2300 C   0  0  2  0  0  0  0  0  0  0  0  0
    0.8780    0.6010   -1.4130 C   0  0  0  0  0  0  0  0  0  0  0  0
    0.5340    1.7160   -2.3580 C   0  0  0  0  0  0  0  0  0  0  0  0
    0.5590    0.2210    1.0440 C   0  0  0  0  0  0  0  0  0  0  0  0
   -0.0530    0.1800    2.1440 O   0  0  0  0  0  0  0  0  0  0  0  0
    1.8870   -0.1470    1.0430 O   0  0  0  0  0  0  0  0  0  0  0  0
    2.5450   -0.5390    2.1400 O   0  0  0  0  0  0  0  0  0  0  0  0
    4.2260   -0.1330    2.0550 P   0  0  0  0  0  0  0  0  0  0  0  0
    4.4740    1.3110    1.0880 O   0  0  0  0  0  0  0  0  0  0  0  0
    5.4690    1.0530    0.2110 N   0  0  0  0  0  0  0  0  0  0  0  0
    5.1330    0.2010   -0.7550 O   0  0  0  0  0  0  0  0  0  0  0  0
    5.8140   -1.0240   -0.6580 C   0  0  0  0  0  0  0  0  0  0  0  0
    5.3620   -1.7350    1.0130 P   0  0  0  0  0  0  0  0  0  0  0  0
  1  2  1  0
  2  3  2  3
  3  4  1  0
  3  5  1  0
  5  6  1  0
  6  7  1  0
  6  9  1  0
  7  8  1  1
  7  9  1  0
  9 10  1  6
  9 12  1  0
 10 11  1  0
 12 13  2  0
 12 14  1  0
 14 15  1  0
 15 16  1  0
 16 17  1  0
 16 21  1  0
 17 18  1  0
 18 19  1  0
 19 20  1  0
 20 21  1  0
M  END
