
     RDKit          3D

 21 23  0  0  0  0  0  0  0  0999 V2000
   -5.4500   -1.6400   -1.0490 C   0  0  0  0  0  0  0  0  0  0  0  0
   -4.9730   -0.2870   -0.5250 C   0  0  2  0  0  0  0  0  0  0  0  0
   -5.1470    0.7150   -1.4440 O   0  0  0  0  0  0  0  0  0  0  0  0
   -3.5550   -0.4570   -0.1140 C   0  0  0  0  0  0  0  0  0  0  0  0
   -2.5880    0.2420   -0.6560 C   0  0  0  0  0  0  0  0  0  0  0  0
   -1.4100    0.1800   -0.0550 C   0  0  0  0  0  0  0  0  0  0  0  0
   -0.2020    0.7820   -0.6570 C   0  0  0  0  0  0  0  0  0  0  0  0
    0.9790    0.4760    0.2110 C   0  0  1  0  0  0  0  0  0  0  0  0
    2.1460    1.0830   -0.2000 O   0  0  0  0  0  0  0  0  0  0  0  0
    3.4040   -0.0980   -0.5080 P   0  0  0  0  0  0  0  0  0  0  0  0
    4.4340   -0.2420    1.0050 C   0  0  0  0  0  0  0  0  0  0  0  0
    4.0070   -0.4680    2.1470 O   0  0  0  0  0  0  0  0  0  0  0  0
    5.7300   -0.0540    0.6220 O   0  0  0  0  0  0  0  0  0  0  0  0
    6.0320    1.0910   -0.0350 N   0  0  0  0  0  0  0  0  0  0  0  0
    5.0550    1.0000   -1.5830 P   0  0  0  0  0  0  0  0  0  0  0  0
    5.9330   -0.1560   -2.6460 N   0  0  0  0  0  0  0  0  0  0  0  0
    0.6000    0.8890    1.6350 C   0  0  0  0  0  0  0  0  0  0  0  0
   -0.2880   -0.1110    2.1040 O   0  0  0  0  0  0  0  0  0  0  0  0
   -1.2970   -0.4960    1.2320 C   0  0  0  0  0  0  0  0  0  0  0  0
   -2.1580   -1.4470    1.5160 C   0  0  0  0  0  0  0  0  0  0  0  0
   -3.2990   -1.4300    0.9140 N   0  0  0  0  0  0  0  0  0  0  0  0
  2  1  1  6
  2  3  1  0
  2  4  1  0
  4  5  2  0
  4 21  1  0
  5  6  2  0
  6  7  1  0
  6 19  1  0
  7  8  1  0
  8  9  1  6
  8 17  1  0
  9 10  1  0
 10 11  1  0
 10 15  1  0
 11 12  2  0
 11 13  1  0
 13 14  1  0
 14 15  1  0
 15 16  1  0
 17 18  1  0
 18 19  1  0
 19 20  2  0
 20 21  2  0
M  END
