
     RDKit          3D

 21 22  0  0  0  0  0  0  0  0999 V2000
    4.8790    0.3850    1.0820 C   0  0  0  0  0  0  0  0  0  0  0  0
    3.7380    1.2700    1.4310 C   0  0  0  0  0  0  0  0  0  0  0  0
    2.4980    1.0250    0.6380 C   0  0  0  0  0  0  0  0  0  0  0  0
    1.3630    0.6750    1.1720 C   0  0  0  0  0  0  0  0  0  0  0  0
    0.1290    0.4210    0.4910 N   0  0  0  0  0  0  0  0  0  0  0  0
   -1.0870    0.8570    1.0350 N   0  0  0  0  0  0  0  0  0  0  0  0
   -2.0670    1.2030    0.2900 C   0  0  0  0  0  0  0  0  0  0  0  0
   -3.2820    1.6390    0.8170 O   0  0  0  0  0  0  0  0  0  0  0  0
   -3.4240    1.8780    2.2170 C   0  0  0  0  0  0  0  0  0  0  0  0
   -1.8300    1.1110   -1.0740 O   0  0  0  0  0  0  0  0  0  0  0  0
   -1.0420    0.1190   -1.5140 N   0  0  0  0  0  0  0  0  0  0  0  0
   -1.7040   -0.7200   -2.4150 C   0  0  0  0  0  0  0  0  0  0  0  0
   -2.8650    0.0870   -3.0270 C   0  0  0  0  0  0  0  0  0  0  0  0
    0.0550   -0.2940   -0.7680 C   0  0  2  0  0  0  0  0  0  0  0  0
    0.1550   -1.7700   -0.4830 C   0  0  2  0  0  0  0  0  0  0  0  0
    0.2190   -2.5270   -1.6590 O   0  0  0  0  0  0  0  0  0  0  0  0
   -0.8350   -2.2970    0.4580 C   0  0  0  0  0  0  0  0  0  0  0  0
   -1.0580   -1.7360    1.7300 N   0  0  0  0  0  0  0  0  0  0  0  0
   -1.5300   -3.2960    0.1390 O   0  0  0  0  0  0  0  0  0  0  0  0
    1.6000    0.1410   -1.7510 P   0  0  0  0  0  0  0  0  0  0  0  0
    2.5820    1.1850   -0.7340 O   0  0  0  0  0  0  0  0  0  0  0  0
  1  2  1  0
  2  3  1  0
  3  4  2  0
  3 21  1  0
  4  5  1  0
  5  6  1  0
  5 14  1  0
  6  7  2  0
  7  8  1  0
  7 10  1  0
  8  9  1  0
 10 11  1  0
 11 12  1  0
 11 14  1  0
 12 13  1  0
 14 15  1  0
 14 20  1  6
 15 16  1  6
 15 17  1  0
 17 18  1  0
 17 19  2  0
 20 21  1  0
M  END
