
     RDKit          3D

 13 12  0  0  0  0  0  0  0  0999 V2000
    4.2150    1.2860    0.5430 C   0  0  0  0  0  0  0  0  0  0  0  0
    3.3780    0.1480    0.5840 O   0  0  0  0  0  0  0  0  0  0  0  0
    2.0810    0.2660    0.0030 C   0  0  0  0  0  0  0  0  0  0  0  0
    1.7800    1.3520   -0.4950 O   0  0  0  0  0  0  0  0  0  0  0  0
    1.2650   -0.9460    0.0770 C   0  0  0  0  0  0  0  0  0  0  0  0
   -0.0190   -0.8370   -0.4410 N   0  0  0  0  0  0  0  0  0  0  0  0
   -0.7920   -2.0570   -0.3990 C   0  0  0  0  0  0  0  0  0  0  0  0
   -0.7570    0.3440   -0.4270 C   0  0  2  0  0  0  0  0  0  0  0  0
   -1.0270    0.8970    0.9680 C   0  0  0  0  0  0  0  0  0  0  0  0
   -1.7310    0.0120    1.7420 O   0  0  0  0  0  0  0  0  0  0  0  0
   -2.4290    0.1170   -1.2350 P   0  0  0  0  0  0  0  0  0  0  0  0
   -3.3530    1.5540   -0.9090 O   0  0  0  0  0  0  0  0  0  0  0  0
   -3.2590   -1.2730   -0.6940 O   0  0  0  0  0  0  0  0  0  0  0  0
  1  2  1  0
  2  3  1  0
  3  4  2  0
  3  5  1  0
  5  6  1  0
  6  7  1  0
  6  8  1  0
  8  9  1  1
  8 11  1  0
  9 10  1  0
 11 12  1  0
 11 13  1  0
M  END
