
     RDKit          3D

 12 11  0  0  0  0  0  0  0  0999 V2000
   -2.7290   -1.1610   -0.4630 C   0  0  0  0  0  0  0  0  0  0  0  0
   -1.7710   -0.3330    0.4070 C   0  0  2  0  0  0  0  0  0  0  0  0
   -2.5740    0.7790    0.9870 C   0  0  0  0  0  0  0  0  0  0  0  0
   -0.6290   -0.0480   -0.3200 N   0  0  0  0  0  0  0  0  0  0  0  0
   -0.5900    0.7040   -1.4630 C   0  0  0  0  0  0  0  0  0  0  0  0
   -1.0390    2.0150   -1.3980 O   0  0  0  0  0  0  0  0  0  0  0  0
    0.5740   -0.3330    0.3690 C   0  0  0  0  0  0  0  0  0  0  0  0
    1.8530   -0.1030   -0.3780 C   0  0  2  0  0  0  0  0  0  0  0  0
    1.9310   -0.8900   -1.5260 O   0  0  0  0  0  0  0  0  0  0  0  0
    3.3060   -0.6590    0.6870 P   0  0  0  0  0  0  0  0  0  0  0  0
    3.7720    0.6430    1.7010 O   0  0  0  0  0  0  0  0  0  0  0  0
    4.5560   -1.2090   -0.3480 O   0  0  0  0  0  0  0  0  0  0  0  0
  2  1  1  6
  2  3  1  0
  2  4  1  0
  4  5  1  0
  4  7  1  0
  5  6  1  0
  7  8  1  0
  8  9  1  6
  8 10  1  0
 10 11  1  0
 10 12  1  0
M  END
