
     RDKit          3D

 13 13  0  0  0  0  0  0  0  0999 V2000
    4.4100   -1.1230   -0.3140 O   0  0  0  0  0  0  0  0  0  0  0  0
    4.0490    0.4870    0.2960 P   0  0  0  0  0  0  0  0  0  0  0  0
    4.6990    1.6440   -0.8190 O   0  0  0  0  0  0  0  0  0  0  0  0
    2.1760    0.6580    0.3180 C   0  0  0  0  0  0  0  0  0  0  0  0
    1.5550   -0.5610    0.9220 C   0  0  0  0  0  0  0  0  0  0  0  0
    0.1150   -0.4800    0.9590 N   0  0  0  0  0  0  0  0  0  0  0  0
   -0.3870   -0.5360   -0.3800 C   0  0  0  0  0  0  0  0  0  0  0  0
   -1.8770   -0.5800   -0.4280 C   0  0  2  0  0  0  0  0  0  0  0  0
   -2.5010    0.6550    0.1640 C   0  0  0  0  0  0  0  0  0  0  0  0
   -4.0020    0.3370    0.2760 C   0  0  0  0  0  0  0  0  0  0  0  0
   -4.1350   -0.7750    1.1040 O   0  0  0  0  0  0  0  0  0  0  0  0
   -2.9750   -1.3360    1.3790 O   0  0  0  0  0  0  0  0  0  0  0  0
   -2.3830   -1.7070    0.2450 O   0  0  0  0  0  0  0  0  0  0  0  0
  1  2  1  0
  2  3  1  0
  2  4  1  0
  4  5  1  0
  5  6  1  0
  6  7  1  0
  8  7  1  1
  8  9  1  0
  8 13  1  0
  9 10  1  0
 10 11  1  0
 11 12  1  0
 12 13  1  0
M  END
