
     RDKit          3D

 10  9  0  0  0  0  0  0  0  0999 V2000
    1.8640    1.0240    1.1870 O   0  0  0  0  0  0  0  0  0  0  0  0
    1.6680    0.5560    0.0210 C   0  0  0  0  0  0  0  0  0  0  0  0
    0.3730   -0.0140   -0.4200 C   0  0  0  0  0  0  0  0  0  0  0  0
   -0.4620    0.0990    0.6700 O   0  0  0  0  0  0  0  0  0  0  0  0
   -1.8940   -0.4200    0.4860 P   0  0  0  0  0  0  0  0  0  0  0  0
   -2.1130    0.6970   -0.7310 O   0  0  0  0  0  0  0  0  0  0  0  0
   -1.5100   -1.9400    0.1420 O   0  0  0  0  0  0  0  0  0  0  0  0
   -2.1990    0.0600    2.0550 O   0  0  0  0  0  0  0  0  0  0  0  0
    2.7910    0.6080   -0.8690 N   0  0  0  0  0  0  0  0  0  0  0  0
    3.9540    1.1340   -0.4330 O   0  0  0  0  0  0  0  0  0  0  0  0
  1  2  2  0
  2  3  1  0
  2  9  1  0
  3  4  1  0
  4  5  1  0
  5  6  1  0
  5  7  1  0
  5  8  1  0
  9 10  1  0
M  END
