
     RDKit          3D

 13 12  0  0  0  0  0  0  0  0999 V2000
    4.9010    0.7960    0.7400 C   0  0  0  0  0  0  0  0  0  0  0  0
    3.5060    0.2800    0.4610 C   0  0  0  0  0  0  0  0  0  0  0  0
    3.0190   -0.4020    1.5870 O   0  0  0  0  0  0  0  0  0  0  0  0
    1.8050   -0.8630    1.3730 O   0  0  0  0  0  0  0  0  0  0  0  0
    1.3030   -0.1970    0.3510 O   0  0  0  0  0  0  0  0  0  0  0  0
   -0.0360   -0.1900   -0.0020 C   0  0  0  0  0  0  0  0  0  0  0  0
   -0.3900    0.4830   -1.2700 C   0  0  0  0  0  0  0  0  0  0  0  0
   -0.8540   -0.7660    0.7980 N   0  0  0  0  0  0  0  0  0  0  0  0
   -2.2660   -0.8880    0.6530 C   0  0  2  0  0  0  0  0  0  0  0  0
   -2.6600   -1.9850   -0.2780 C   0  0  0  0  0  0  0  0  0  0  0  0
   -3.0740    0.6990    0.1250 P   0  0  0  0  0  0  0  0  0  0  0  0
   -4.7680    0.7010    0.4890 O   0  0  0  0  0  0  0  0  0  0  0  0
   -2.3640    2.0400    0.9710 O   0  0  0  0  0  0  0  0  0  0  0  0
  1  2  1  0
  2  3  1  0
  3  4  1  0
  4  5  1  0
  5  6  1  0
  6  7  1  0
  6  8  2  3
  8  9  1  0
  9 10  1  6
  9 11  1  0
 11 12  1  0
 11 13  1  0
M  END
