
     RDKit          3D

 12 11  0  0  0  0  0  0  0  0999 V2000
    2.9650    1.6000    0.5650 C   0  0  0  0  0  0  0  0  0  0  0  0
    2.4270    1.0240   -0.7410 C   0  0  0  0  0  0  0  0  0  0  0  0
    1.5080   -0.0800   -0.5070 C   0  0  0  0  0  0  0  0  0  0  0  0
    0.3080    0.2560    0.2820 N   0  0  0  0  0  0  0  0  0  0  0  0
   -0.3580   -1.0330    0.5240 C   0  0  2  0  0  0  0  0  0  0  0  0
   -0.6300   -1.8580   -0.6630 C   0  0  0  0  0  0  0  0  0  0  0  0
   -1.1340   -3.1200   -0.1920 O   0  0  0  0  0  0  0  0  0  0  0  0
   -1.7160   -0.4990    1.0200 C   0  0  0  0  0  0  0  0  0  0  0  0
   -2.2530   -0.9580    1.9430 O   0  0  0  0  0  0  0  0  0  0  0  0
   -2.4060    0.8540    0.0660 P   0  0  0  0  0  0  0  0  0  0  0  0
   -2.9400    0.6810   -1.4940 O   0  0  0  0  0  0  0  0  0  0  0  0
   -3.5610    1.7670    1.0650 O   0  0  0  0  0  0  0  0  0  0  0  0
  1  2  1  0
  2  3  1  0
  3  4  1  0
  4  5  1  0
  5  6  1  6
  5  8  1  0
  6  7  1  0
  8  9  2  0
  8 10  1  0
 10 11  1  0
 10 12  1  0
M  END
