
     RDKit          3D

 35 38  0  0  0  0  0  0  0  0999 V2000
   -0.8870    4.4010   -1.9920 C   0  0  0  0  0  0  0  0  0  0  0  0
   -1.4020    3.7510   -0.7260 C   0  0  0  0  0  0  0  0  0  0  0  0
   -0.6720    2.5120   -0.4310 N   0  0  0  0  0  0  0  0  0  0  0  0
    0.4980    2.4660    0.3720 C   0  0  0  0  0  0  0  0  0  0  0  0
    1.0180    3.4520    0.9190 O   0  0  0  0  0  0  0  0  0  0  0  0
    0.9370    1.0920    0.4180 C   0  0  2  0  0  0  0  0  0  0  0  0
    2.2410    0.8340   -0.1190 N   0  0  0  0  0  0  0  0  0  0  0  0
    3.2940    0.2140    0.6190 C   0  0  0  0  0  0  0  0  0  0  0  0
    3.0210   -0.0980    1.7720 O   0  0  0  0  0  0  0  0  0  0  0  0
    4.5690   -0.0300    0.0710 N   0  0  0  0  0  0  0  0  0  0  0  0
    5.6480   -0.6370    0.7470 C   0  0  0  0  0  0  0  0  0  0  0  0
    5.6240   -1.0800    2.0280 C   0  0  0  0  0  0  0  0  0  0  0  0
    6.7500   -1.6690    2.6070 C   0  0  0  0  0  0  0  0  0  0  0  0
    7.9080   -1.8200    1.9100 C   0  0  0  0  0  0  0  0  0  0  0  0
    7.9700   -1.3840    0.6130 C   0  0  0  0  0  0  0  0  0  0  0  0
    9.1410   -1.5280   -0.1180 C   0  0  0  0  0  0  0  0  0  0  0  0
    9.1940   -1.0990   -1.3870 N   0  0  0  0  0  0  0  0  0  0  0  0
    8.1500   -0.5320   -1.9820 C   0  0  0  0  0  0  0  0  0  0  0  0
    6.9660   -0.3840   -1.2540 C   0  0  0  0  0  0  0  0  0  0  0  0
    6.8540   -0.7990    0.0340 C   0  0  0  0  0  0  0  0  0  0  0  0
   -0.0580    0.3700   -0.4070 C   0  0  0  0  0  0  0  0  0  0  0  0
    0.0030   -1.1290   -0.6440 C   0  0  0  0  0  0  0  0  0  0  0  0
   -0.9730    1.1970   -0.8870 C   0  0  0  0  0  0  0  0  0  0  0  0
   -2.0660    0.7350   -1.7540 C   0  0  0  0  0  0  0  0  0  0  0  0
   -3.4480    0.8650   -1.2430 C   0  0  0  0  0  0  0  0  0  0  0  0
   -3.6890    0.1510   -0.0060 N   0  0  0  0  0  0  0  0  0  0  0  0
   -5.0290   -0.4120    0.0340 C   0  0  1  0  0  0  0  0  0  0  0  0
   -5.1210   -1.7070   -0.7290 C   0  0  0  0  0  0  0  0  0  0  0  0
   -4.1740   -2.6790   -0.0830 C   0  0  0  0  0  0  0  0  0  0  0  0
   -4.3830   -2.2600    1.6550 S   0  0  1  0  0  0  0  0  0  0  0  0
   -5.1420   -3.3230    2.3760 O   0  0  0  0  0  0  0  0  0  0  0  0
   -3.0760   -1.9540    2.2930 O   0  0  0  0  0  0  0  0  0  0  0  0
   -5.3750   -0.7690    1.4710 C   0  0  2  0  0  0  0  0  0  0  0  0
   -6.8310   -1.1180    1.5990 C   0  0  0  0  0  0  0  0  0  0  0  0
   -4.9560    0.2840    2.4450 C   0  0  0  0  0  0  0  0  0  0  0  0
  1  2  1  0
  2  3  1  0
  3  4  1  0
  3 23  1  0
  4  5  2  0
  4  6  1  0
  6  7  1  6
  6 21  1  0
  7  8  1  0
  8  9  2  0
  8 10  1  0
 10 11  1  0
 11 12  2  0
 11 20  1  0
 12 13  1  0
 13 14  2  0
 14 15  1  0
 15 16  2  0
 15 20  1  0
 16 17  1  0
 17 18  2  0
 18 19  1  0
 19 20  2  0
 21 22  1  0
 21 23  2  0
 23 24  1  0
 24 25  1  0
 25 26  1  0
 27 26  1  1
 27 28  1  0
 27 33  1  0
 28 29  1  0
 30 29  1  6
 30 31  2  0
 30 32  2  0
 30 33  1  0
 33 34  1  6
 33 35  1  0
M  CHG  1  26   1
M  END
