
     RDKit          3D

 36 39  0  0  0  0  0  0  0  0999 V2000
   -0.6600    4.1260    1.6900 C   0  0  0  0  0  0  0  0  0  0  0  0
    0.4280    3.3040    2.3330 C   0  0  0  0  0  0  0  0  0  0  0  0
    0.3510    1.8970    1.9090 N   0  0  0  0  0  0  0  0  0  0  0  0
    0.4790    1.6000    0.5390 C   0  0  0  0  0  0  0  0  0  0  0  0
    0.6560    2.5570   -0.2610 O   0  0  0  0  0  0  0  0  0  0  0  0
    0.4220    0.2390   -0.0380 C   0  0  0  0  0  0  0  0  0  0  0  0
    0.2380   -0.7540    0.7440 C   0  0  0  0  0  0  0  0  0  0  0  0
    0.1530   -2.2250    0.3940 C   0  0  0  0  0  0  0  0  0  0  0  0
   -1.0240   -2.8510    0.5650 C   0  0  0  0  0  0  0  0  0  0  0  0
   -2.3500   -2.2230    0.9200 C   0  0  0  0  0  0  0  0  0  0  0  0
   -3.0920   -2.8780    1.6720 O   0  0  0  0  0  0  0  0  0  0  0  0
   -2.7850   -0.9830    0.4600 N   0  0  0  0  0  0  0  0  0  0  0  0
   -3.9790   -0.2950    0.7250 C   0  0  0  0  0  0  0  0  0  0  0  0
   -4.9310   -0.7890    1.5770 C   0  0  0  0  0  0  0  0  0  0  0  0
   -6.1300   -0.1040    1.8480 C   0  0  0  0  0  0  0  0  0  0  0  0
   -6.3170    1.0930    1.2220 C   0  0  0  0  0  0  0  0  0  0  0  0
   -5.3680    1.6210    0.3530 C   0  0  0  0  0  0  0  0  0  0  0  0
   -4.1990    0.9280    0.1030 C   0  0  0  0  0  0  0  0  0  0  0  0
   -3.4460    1.5960   -0.7420 C   0  0  0  0  0  0  0  0  0  0  0  0
   -4.1640    2.8430   -1.0900 C   0  0  0  0  0  0  0  0  0  0  0  0
   -5.4060    2.7540   -0.3190 C   0  0  0  0  0  0  0  0  0  0  0  0
   -1.0580   -4.2470    0.3230 C   0  0  0  0  0  0  0  0  0  0  0  0
    0.5920   -4.6100   -0.1410 S   0  0  0  0  0  0  0  0  0  0  0  0
    1.2640   -2.8650    0.0120 C   0  0  0  0  0  0  0  0  0  0  0  0
    2.6390   -2.6160   -0.2580 C   0  0  0  0  0  0  0  0  0  0  0  0
    3.3970   -3.5930   -0.6910 O   0  0  0  0  0  0  0  0  0  0  0  0
    3.3460   -1.4210   -0.1200 N   0  0  0  0  0  0  0  0  0  0  0  0
    4.7400   -1.2850   -0.4390 C   0  0  0  0  0  0  0  0  0  0  0  0
    5.3180   -0.5000   -1.3140 C   0  0  0  0  0  0  0  0  0  0  0  0
    6.7440   -0.7030   -1.2910 N   0  0  2  0  0  0  0  0  0  0  0  0
    7.0910   -1.1840   -2.5950 C   0  0  0  0  0  0  0  0  0  0  0  0
    6.9450   -1.6790   -0.3220 N   0  0  0  0  0  0  0  0  0  0  0  0
    5.7950   -2.0450    0.2000 C   0  0  0  0  0  0  0  0  0  0  0  0
    0.5070    0.1510   -1.4730 C   0  0  0  0  0  0  0  0  0  0  0  0
    0.3690   -1.0620   -2.2960 C   0  0  0  0  0  0  0  0  0  0  0  0
    0.7240    1.2550   -2.1040 O   0  0  0  0  0  0  0  0  0  0  0  0
  1  2  1  0
  2  3  1  0
  3  4  1  0
  4  5  2  0
  4  6  1  0
  6  7  2  3
  6 34  1  0
  7  8  1  0
  8  9  1  0
  8 24  2  0
  9 10  1  0
  9 22  2  0
 10 11  2  0
 10 12  1  0
 12 13  1  0
 13 14  2  0
 13 18  1  0
 14 15  1  0
 15 16  2  0
 16 17  1  0
 17 18  1  0
 17 21  2  0
 18 19  2  0
 19 20  1  0
 20 21  1  0
 22 23  1  0
 23 24  1  0
 24 25  1  0
 25 26  2  0
 25 27  1  0
 27 28  1  0
 28 29  2  0
 28 33  1  0
 29 30  1  0
 30 31  1  6
 30 32  1  0
 32 33  2  0
 34 35  1  0
 34 36  2  0
M  CHG  1  30   1
M  END
