
     RDKit          3D

 36 39  0  0  0  0  0  0  0  0999 V2000
   -6.0700    2.4290   -0.9230 C   0  0  0  0  0  0  0  0  0  0  0  0
   -5.8840    0.9900   -0.4360 C   0  0  0  0  0  0  0  0  0  0  0  0
   -5.2100    0.8980    0.7630 N   0  0  0  0  0  0  0  0  0  0  0  0
   -5.9180    1.4040    1.9010 C   0  0  0  0  0  0  0  0  0  0  0  0
   -4.0160    0.2400    1.0050 C   0  0  0  0  0  0  0  0  0  0  0  0
   -2.7950    0.8580    0.4510 C   0  0  2  0  0  0  0  0  0  0  0  0
   -2.6740    1.0110   -1.0270 C   0  0  0  0  0  0  0  0  0  0  0  0
   -1.5090    1.8730   -1.2510 N   0  0  0  0  0  0  0  0  0  0  0  0
   -1.2480    2.3500   -2.5380 C   0  0  0  0  0  0  0  0  0  0  0  0
   -2.1480    1.9840   -3.6540 C   0  0  0  0  0  0  0  0  0  0  0  0
   -0.2610    3.0910   -2.7830 O   0  0  0  0  0  0  0  0  0  0  0  0
   -0.6240    2.2290   -0.1630 C   0  0  0  0  0  0  0  0  0  0  0  0
   -0.2940    0.9800    0.6650 C   0  0  0  0  0  0  0  0  0  0  0  0
   -1.5100    0.1830    0.9250 C   0  0  0  0  0  0  0  0  0  0  0  0
   -1.5240   -0.9920    1.4680 C   0  0  0  0  0  0  0  0  0  0  0  0
   -0.5010   -1.8390    1.9960 C   0  0  0  0  0  0  0  0  0  0  0  0
   -0.9180   -2.9900    2.4310 O   0  0  0  0  0  0  0  0  0  0  0  0
    0.8720   -1.6490    2.1290 N   0  0  0  0  0  0  0  0  0  0  0  0
    1.8510   -2.5190    2.6580 C   0  0  0  0  0  0  0  0  0  0  0  0
    1.4870   -3.4420    3.6480 C   0  0  0  0  0  0  0  0  0  0  0  0
    2.4620   -4.1670    4.3290 C   0  0  0  0  0  0  0  0  0  0  0  0
    3.7790   -3.9630    4.0160 C   0  0  0  0  0  0  0  0  0  0  0  0
    4.1590   -3.0680    3.0510 C   0  0  0  0  0  0  0  0  0  0  0  0
    3.1770   -2.3330    2.3540 C   0  0  0  0  0  0  0  0  0  0  0  0
    3.6000   -1.5420    1.2260 C   0  0  0  0  0  0  0  0  0  0  0  0
    2.8700   -1.2420    0.1820 C   0  0  0  0  0  0  0  0  0  0  0  0
    3.2690   -0.4310   -0.9510 C   0  0  0  0  0  0  0  0  0  0  0  0
    4.4630    0.1340   -1.0790 C   0  0  0  0  0  0  0  0  0  0  0  0
    4.7140    0.9440   -2.3320 C   0  0  0  0  0  0  0  0  0  0  0  0
    4.3060    0.2500   -3.5090 N   0  0  0  0  0  0  0  0  0  0  0  0
    3.0250   -0.3670   -3.4010 C   0  0  0  0  0  0  0  0  0  0  0  0
    2.3340   -0.1680   -2.0770 C   0  0  0  0  0  0  0  0  0  0  0  0
    5.4770    0.0630   -0.1160 N   0  0  0  0  0  0  0  0  0  0  0  0
    5.2860   -1.0000    1.2220 S   0  0  1  0  0  0  0  0  0  0  0  0
    5.5780   -0.2230    2.4740 O   0  0  0  0  0  0  0  0  0  0  0  0
    6.2290   -2.1790    1.0630 O   0  0  0  0  0  0  0  0  0  0  0  0
  1  2  1  0
  2  3  1  0
  3  4  1  0
  3  5  1  0
  6  5  1  6
  6  7  1  0
  6 14  1  0
  7  8  1  0
  8  9  1  0
  8 12  1  0
  9 10  1  0
  9 11  2  0
 12 13  1  0
 13 14  1  0
 14 15  2  3
 15 16  1  0
 16 17  2  0
 16 18  1  0
 18 19  1  0
 19 20  2  0
 19 24  1  0
 20 21  1  0
 21 22  2  0
 22 23  1  0
 23 24  2  0
 24 25  1  0
 25 26  2  0
 25 34  1  0
 26 27  1  0
 27 28  2  0
 27 32  1  0
 28 29  1  0
 28 33  1  0
 29 30  1  0
 30 31  1  0
 31 32  1  0
 34 33  1  6
 34 35  2  0
 34 36  2  0
M  CHG  1  30   1
M  END
