
     RDKit          3D

 36 39  0  0  0  0  0  0  0  0999 V2000
   -3.6840   -3.1890   -1.9710 C   0  0  0  0  0  0  0  0  0  0  0  0
   -2.8580   -2.3160   -1.0500 C   0  0  0  0  0  0  0  0  0  0  0  0
   -3.5130   -1.0160   -0.8190 C   0  0  0  0  0  0  0  0  0  0  0  0
   -3.0970    0.1560   -1.4380 C   0  0  0  0  0  0  0  0  0  0  0  0
   -3.7400    1.3450   -1.1910 C   0  0  0  0  0  0  0  0  0  0  0  0
   -3.2970    2.5760   -1.8440 C   0  0  0  0  0  0  0  0  0  0  0  0
   -2.2440    3.3170   -1.0930 C   0  0  2  0  0  0  0  0  0  0  0  0
   -1.0400    2.5830   -0.8920 N   0  0  0  0  0  0  0  0  0  0  0  0
   -0.5020    2.0440    0.2910 C   0  0  0  0  0  0  0  0  0  0  0  0
   -1.0850    2.1240    1.3830 O   0  0  0  0  0  0  0  0  0  0  0  0
    0.7770    1.3530    0.3090 N   0  0  0  0  0  0  0  0  0  0  0  0
    1.2780    0.7960    1.5460 C   0  0  0  0  0  0  0  0  0  0  0  0
    2.5840    0.1450    1.3980 C   0  0  0  0  0  0  0  0  0  0  0  0
    3.0780   -0.3880    2.4530 O   0  0  0  0  0  0  0  0  0  0  0  0
    3.3550    0.0410    0.2260 N   0  0  0  0  0  0  0  0  0  0  0  0
    4.6090   -0.6270    0.1950 C   0  0  0  0  0  0  0  0  0  0  0  0
    5.5450   -0.8970   -0.6090 N   0  0  0  0  0  0  0  0  0  0  0  0
    6.5970   -1.5410   -0.4080 C   0  0  0  0  0  0  0  0  0  0  0  0
    6.7700   -2.0590    0.9580 C   0  0  0  0  0  0  0  0  0  0  0  0
    5.2990   -1.4770    1.7170 S   0  0  0  0  0  0  0  0  0  0  0  0
    7.9550   -2.8180    1.2840 C   0  0  0  0  0  0  0  0  0  0  0  0
    9.1980   -2.2460    0.6730 C   0  0  0  0  0  0  0  0  0  0  0  0
    9.0160   -1.5990   -0.5860 N   0  0  2  0  0  0  0  0  0  0  0  0
    9.2020   -0.1590   -0.4970 C   0  0  0  0  0  0  0  0  0  0  0  0
    7.7750   -1.9280   -1.2590 C   0  0  0  0  0  0  0  0  0  0  0  0
   -2.7520    4.1020    0.0590 C   0  0  0  0  0  0  0  0  0  0  0  0
   -2.2230    4.2600    1.1700 O   0  0  0  0  0  0  0  0  0  0  0  0
   -3.9940    4.7770   -0.0790 O   0  0  0  0  0  0  0  0  0  0  0  0
   -4.5240    5.5440    0.9880 C   0  0  0  0  0  0  0  0  0  0  0  0
   -4.8010    1.3410   -0.3190 C   0  0  0  0  0  0  0  0  0  0  0  0
   -5.2550    0.1880    0.3270 C   0  0  0  0  0  0  0  0  0  0  0  0
   -4.5880   -0.9810    0.0560 C   0  0  0  0  0  0  0  0  0  0  0  0
   -5.0770   -2.2050    0.7600 C   0  0  0  0  0  0  0  0  0  0  0  0
   -6.5900   -2.2150    0.6650 C   0  0  0  0  0  0  0  0  0  0  0  0
   -7.2320   -1.0120    1.2680 C   0  0  0  0  0  0  0  0  0  0  0  0
   -6.4070    0.2290    1.2600 C   0  0  0  0  0  0  0  0  0  0  0  0
  1  2  1  0
  2  3  1  0
  3  4  2  0
  3 32  1  0
  4  5  1  0
  5  6  1  0
  5 30  2  0
  7  6  1  1
  7  8  1  0
  7 26  1  0
  8  9  1  0
  9 10  2  0
  9 11  1  0
 11 12  1  0
 12 13  1  0
 13 14  2  0
 13 15  1  0
 15 16  1  0
 16 17  2  0
 16 20  1  0
 17 18  1  0
 18 19  2  0
 18 25  1  0
 19 20  1  0
 19 21  1  0
 21 22  1  0
 22 23  1  0
 23 24  1  1
 23 25  1  0
 26 27  2  0
 26 28  1  0
 28 29  1  0
 30 31  1  0
 31 32  2  0
 31 36  1  0
 32 33  1  0
 33 34  1  0
 34 35  1  0
 35 36  1  0
M  CHG  1  23   1
M  END
