
     RDKit          3D

 36 38  0  0  0  0  0  0  0  0999 V2000
   -5.7770   -2.7340    1.2530 C   0  0  0  0  0  0  0  0  0  0  0  0
   -5.8500   -1.4460    1.2870 C   0  0  0  0  0  0  0  0  0  0  0  0
   -7.1030   -0.7350    1.7610 C   0  0  0  0  0  0  0  0  0  0  0  0
   -6.6530    0.0300    3.0270 C   0  0  0  0  0  0  0  0  0  0  0  0
   -5.4990    0.8940    2.6250 C   0  0  0  0  0  0  0  0  0  0  0  0
   -4.6340    0.6010    1.6840 C   0  0  0  0  0  0  0  0  0  0  0  0
   -4.7290   -0.6220    0.9070 C   0  0  0  0  0  0  0  0  0  0  0  0
   -3.9880   -0.9460   -0.1250 C   0  0  0  0  0  0  0  0  0  0  0  0
   -4.2580   -2.1550   -0.9600 C   0  0  0  0  0  0  0  0  0  0  0  0
   -3.7590    1.8230    1.4730 C   0  0  0  0  0  0  0  0  0  0  0  0
   -3.0470    2.1760    0.2940 N   0  0  0  0  0  0  0  0  0  0  0  0
   -1.7720    1.6190    0.1160 C   0  0  0  0  0  0  0  0  0  0  0  0
   -1.4670    0.8990    1.1750 O   0  0  0  0  0  0  0  0  0  0  0  0
   -0.9070    1.8030   -1.0220 C   0  0  2  0  0  0  0  0  0  0  0  0
   -1.5880    1.4850   -2.2960 C   0  0  0  0  0  0  0  0  0  0  0  0
   -0.6550    1.6950   -3.4590 C   0  0  0  0  0  0  0  0  0  0  0  0
    0.7620    0.5860   -3.2650 S   0  0  0  0  0  0  0  0  0  0  0  0
    0.1580   -1.1170   -3.4280 C   0  0  0  0  0  0  0  0  0  0  0  0
    0.3580    1.1300   -0.7980 N   0  0  0  0  0  0  0  0  0  0  0  0
    1.5470    1.8480   -0.5300 C   0  0  0  0  0  0  0  0  0  0  0  0
    1.4640    3.1120   -0.4860 O   0  0  0  0  0  0  0  0  0  0  0  0
    2.8200    1.1540   -0.3140 C   0  0  0  0  0  0  0  0  0  0  0  0
    2.9920   -0.2030   -0.4850 C   0  0  0  0  0  0  0  0  0  0  0  0
    4.3040   -0.4850   -0.1910 C   0  0  0  0  0  0  0  0  0  0  0  0
    4.8790    0.7350    0.1520 C   0  0  0  0  0  0  0  0  0  0  0  0
    6.2710    0.9180    0.5430 C   0  0  0  0  0  0  0  0  0  0  0  0
    6.6530    2.0630    0.8810 O   0  0  0  0  0  0  0  0  0  0  0  0
    7.1890   -0.1860    0.5440 N   0  0  0  0  0  0  0  0  0  0  0  0
    8.5250    0.0290    0.9420 C   0  0  0  0  0  0  0  0  0  0  0  0
    9.4730   -1.0660    0.9270 C   0  0  0  0  0  0  0  0  0  0  0  0
    9.4440   -2.3120    0.5960 C   0  0  0  0  0  0  0  0  0  0  0  0
    8.2800   -3.0440    0.0730 C   0  0  0  0  0  0  0  0  0  0  0  0
    3.9650    1.6590    0.0620 O   0  0  0  0  0  0  0  0  0  0  0  0
   -4.1730    2.6760    2.2500 N   0  0  0  0  0  0  0  0  0  0  0  0
   -5.2270    2.2720    3.0400 C   0  0  0  0  0  0  0  0  0  0  0  0
   -5.7600    2.9330    3.9740 N   0  0  0  0  0  0  0  0  0  0  0  0
  1  2  2  0
  2  3  1  0
  2  7  1  0
  3  4  1  0
  4  5  1  0
  5  6  2  0
  5 35  1  0
  6  7  1  0
  6 10  1  0
  7  8  2  3
  8  9  1  0
 10 11  1  0
 10 34  2  0
 11 12  1  0
 12 13  2  0
 12 14  1  0
 14 15  1  6
 14 19  1  0
 15 16  1  0
 16 17  1  0
 17 18  1  0
 19 20  1  0
 20 21  2  0
 20 22  1  0
 22 23  2  0
 22 33  1  0
 23 24  1  0
 24 25  2  0
 25 26  1  0
 25 33  1  0
 26 27  2  0
 26 28  1  0
 28 29  1  0
 29 30  1  0
 30 31  2  3
 31 32  1  0
 34 35  1  0
 35 36  2  0
M  CHG  1  36   1
M  END
