
     RDKit          3D

 36 39  0  0  0  0  0  0  0  0999 V2000
   -4.0990   -4.7130   -2.2140 C   0  0  0  0  0  0  0  0  0  0  0  0
   -3.6310   -3.5560   -1.4080 C   0  0  0  0  0  0  0  0  0  0  0  0
   -3.7550   -3.5490   -0.0210 C   0  0  0  0  0  0  0  0  0  0  0  0
   -3.3150   -2.4660    0.7160 C   0  0  0  0  0  0  0  0  0  0  0  0
   -2.7450   -1.3660    0.1090 C   0  0  0  0  0  0  0  0  0  0  0  0
   -2.3820   -0.2120    0.9030 C   0  0  0  0  0  0  0  0  0  0  0  0
   -1.2590    0.3070    1.2330 C   0  0  0  0  0  0  0  0  0  0  0  0
    0.0410   -0.1800    0.8730 C   0  0  0  0  0  0  0  0  0  0  0  0
    1.0400    0.5560    1.2650 O   0  0  0  0  0  0  0  0  0  0  0  0
    0.3500   -1.3530    0.1570 N   0  0  0  0  0  0  0  0  0  0  0  0
    1.6980   -1.6190   -0.0900 N   0  0  0  0  0  0  0  0  0  0  0  0
    2.4040   -0.9480   -0.9750 C   0  0  0  0  0  0  0  0  0  0  0  0
    1.7580    0.1430   -1.7570 C   0  0  0  0  0  0  0  0  0  0  0  0
    2.7890    0.0280   -3.2830 S   0  0  0  0  0  0  0  0  0  0  0  0
    4.2080   -0.7030   -2.4910 C   0  0  0  0  0  0  0  0  0  0  0  0
    5.5010   -0.8350   -2.9090 C   0  0  0  0  0  0  0  0  0  0  0  0
    6.4730   -1.4420   -2.1130 C   0  0  0  0  0  0  0  0  0  0  0  0
    7.8850   -1.5880   -2.5480 C   0  0  0  0  0  0  0  0  0  0  0  0
    8.5810   -0.4230   -1.9730 N   0  0  0  0  0  0  0  0  0  0  0  0
    6.0380   -1.8960   -0.8860 C   0  0  0  0  0  0  0  0  0  0  0  0
    4.7500   -1.7650   -0.4690 C   0  0  0  0  0  0  0  0  0  0  0  0
    3.7860   -1.1520   -1.2800 C   0  0  0  0  0  0  0  0  0  0  0  0
   -1.2710    1.5340    2.0650 C   0  0  0  0  0  0  0  0  0  0  0  0
   -0.1410    2.0090    2.3790 O   0  0  0  0  0  0  0  0  0  0  0  0
   -2.3980    2.1990    2.5210 N   0  0  0  0  0  0  0  0  0  0  0  0
   -2.2840    3.4080    3.3360 C   0  0  2  0  0  0  0  0  0  0  0  0
   -3.0230    3.3440    4.6100 C   0  0  0  0  0  0  0  0  0  0  0  0
   -3.7480    4.6250    4.7090 C   0  0  0  0  0  0  0  0  0  0  0  0
   -4.3840    5.0400    5.7100 O   0  0  0  0  0  0  0  0  0  0  0  0
   -3.6120    5.3230    3.4860 N   0  0  0  0  0  0  0  0  0  0  0  0
   -4.2660    6.6140    3.2130 C   0  0  0  0  0  0  0  0  0  0  0  0
   -2.7720    4.5820    2.6200 C   0  0  0  0  0  0  0  0  0  0  0  0
   -2.5480    4.9670    1.4360 O   0  0  0  0  0  0  0  0  0  0  0  0
   -2.6330   -1.3990   -1.2730 C   0  0  0  0  0  0  0  0  0  0  0  0
   -3.0630   -2.4650   -2.0290 C   0  0  0  0  0  0  0  0  0  0  0  0
   -2.9460   -2.5070   -3.5160 C   0  0  0  0  0  0  0  0  0  0  0  0
  1  2  1  0
  2  3  2  0
  2 35  1  0
  3  4  1  0
  4  5  2  0
  5  6  1  0
  5 34  1  0
  6  7  2  3
  7  8  1  0
  7 23  1  0
  8  9  2  0
  8 10  1  0
 10 11  1  0
 11 12  2  3
 12 13  1  0
 12 22  1  0
 13 14  1  0
 14 15  1  0
 15 16  2  0
 15 22  1  0
 16 17  1  0
 17 18  1  0
 17 20  2  0
 18 19  1  0
 20 21  1  0
 21 22  2  0
 23 24  2  0
 23 25  1  0
 26 25  1  6
 26 27  1  0
 26 32  1  0
 27 28  1  0
 28 29  2  0
 28 30  1  0
 30 31  1  0
 30 32  1  0
 32 33  2  0
 34 35  2  0
 35 36  1  0
M  CHG  1  19   1
M  END
