
     RDKit          3D

 37 41  0  0  0  0  0  0  0  0999 V2000
   -8.0640   -0.3100    2.7220 C   0  0  0  0  0  0  0  0  0  0  0  0
   -7.0330   -0.1970    1.6540 C   0  0  0  0  0  0  0  0  0  0  0  0
   -6.9160    0.9700    1.0070 N   0  0  0  0  0  0  0  0  0  0  0  0
   -5.9970    1.1330    0.0260 C   0  0  0  0  0  0  0  0  0  0  0  0
   -5.8910    2.3350   -0.6320 C   0  0  0  0  0  0  0  0  0  0  0  0
   -4.9610    2.4950   -1.6270 C   0  0  0  0  0  0  0  0  0  0  0  0
   -4.1190    1.4720   -1.9910 C   0  0  0  0  0  0  0  0  0  0  0  0
   -3.1830    1.6360   -2.9960 C   0  0  0  0  0  0  0  0  0  0  0  0
   -2.3460    0.6070   -3.3540 C   0  0  0  0  0  0  0  0  0  0  0  0
   -2.4270   -0.5990   -2.7180 C   0  0  0  0  0  0  0  0  0  0  0  0
   -1.5210   -1.7460   -3.0840 C   0  0  0  0  0  0  0  0  0  0  0  0
   -0.5950   -2.0910   -2.0630 N   0  0  0  0  0  0  0  0  0  0  0  0
    0.4880   -1.2790   -1.6180 C   0  0  0  0  0  0  0  0  0  0  0  0
    0.9190   -0.1850   -2.2920 C   0  0  0  0  0  0  0  0  0  0  0  0
    1.9510    0.5830   -1.8250 C   0  0  0  0  0  0  0  0  0  0  0  0
    2.5580    0.2240   -0.6380 C   0  0  0  0  0  0  0  0  0  0  0  0
    2.1560   -0.8810    0.0830 C   0  0  0  0  0  0  0  0  0  0  0  0
    1.1200   -1.6150   -0.4270 C   0  0  0  0  0  0  0  0  0  0  0  0
    2.9820   -1.0330    1.3110 C   0  0  0  0  0  0  0  0  0  0  0  0
    3.9010    0.0580    1.2970 N   0  0  0  0  0  0  0  0  0  0  0  0
    4.9130    0.3460    2.3020 C   0  0  1  0  0  0  0  0  0  0  0  0
    6.3190    0.2770    1.7490 C   0  0  0  0  0  0  0  0  0  0  0  0
    6.6060   -1.0990    1.2060 C   0  0  0  0  0  0  0  0  0  0  0  0
    7.9910   -1.1570    0.6710 C   0  0  0  0  0  0  0  0  0  0  0  0
    8.3130   -0.6290   -0.4230 O   0  0  0  0  0  0  0  0  0  0  0  0
    8.9900   -1.8100    1.3830 O   0  0  0  0  0  0  0  0  0  0  0  0
    4.6310    1.6610    2.9180 C   0  0  0  0  0  0  0  0  0  0  0  0
    3.6240    2.3670    2.5850 O   0  0  0  0  0  0  0  0  0  0  0  0
    5.4400    2.2190    3.8980 O   0  0  0  0  0  0  0  0  0  0  0  0
    3.6620    0.8180    0.1270 C   0  0  0  0  0  0  0  0  0  0  0  0
    4.2820    1.8530   -0.2340 O   0  0  0  0  0  0  0  0  0  0  0  0
   -3.3610   -0.7820   -1.7060 C   0  0  0  0  0  0  0  0  0  0  0  0
   -4.2020    0.2320   -1.3370 C   0  0  0  0  0  0  0  0  0  0  0  0
   -5.1440    0.0750   -0.3320 C   0  0  0  0  0  0  0  0  0  0  0  0
   -5.2720   -1.1120    0.3350 C   0  0  0  0  0  0  0  0  0  0  0  0
   -4.5680   -2.0980    0.0910 O   0  0  0  0  0  0  0  0  0  0  0  0
   -6.2260   -1.1930    1.3130 N   0  0  0  0  0  0  0  0  0  0  0  0
  1  2  1  0
  2  3  2  0
  2 37  1  0
  3  4  1  0
  4  5  2  0
  4 34  1  0
  5  6  1  0
  6  7  2  0
  7  8  1  0
  7 33  1  0
  8  9  2  0
  9 10  1  0
 10 11  1  0
 10 32  2  0
 11 12  1  0
 12 13  1  0
 13 14  2  0
 13 18  1  0
 14 15  1  0
 15 16  2  0
 16 17  1  0
 16 30  1  0
 17 18  2  0
 17 19  1  0
 19 20  1  0
 20 21  1  0
 20 30  1  0
 21 22  1  6
 21 27  1  0
 22 23  1  0
 23 24  1  0
 24 25  2  0
 24 26  1  0
 27 28  2  0
 27 29  1  0
 30 31  2  0
 32 33  1  0
 33 34  2  0
 34 35  1  0
 35 36  2  0
 35 37  1  0
M  END
