
     RDKit          3D

 13 13  0  0  0  0  0  0  0  0999 V2000
   -0.7750   -1.5910    1.4200 O   0  0  0  0  0  0  0  0  0  0  0  0
   -0.7500   -0.9540    0.3500 C   0  0  0  0  0  0  0  0  0  0  0  0
    0.4080   -0.2420    0.0490 O   0  0  0  0  0  0  0  0  0  0  0  0
    1.5110   -0.2680    0.9650 C   0  0  0  0  0  0  0  0  0  0  0  0
    2.6380    0.5670    0.4280 C   0  0  0  0  0  0  0  0  0  0  0  0
    3.0590    0.0670   -0.8040 O   0  0  0  0  0  0  0  0  0  0  0  0
    4.0360    0.7640   -1.3030 O   0  0  0  0  0  0  0  0  0  0  0  0
    5.1440    0.5990   -0.6130 O   0  0  0  0  0  0  0  0  0  0  0  0
   -1.9170   -0.9760   -0.5340 C   0  0  2  0  0  0  0  0  0  0  0  0
   -2.5920    0.3870   -0.6350 C   0  0  0  0  0  0  0  0  0  0  0  0
   -3.5930    0.2570    0.4950 C   0  0  0  0  0  0  0  0  0  0  0  0
   -3.5810   -1.0630    0.8590 O   0  0  0  0  0  0  0  0  0  0  0  0
   -2.9140   -1.7500    0.0010 O   0  0  0  0  0  0  0  0  0  0  0  0
  1  2  2  0
  2  3  1  0
  9  2  1  1
  3  4  1  0
  4  5  1  0
  5  6  1  0
  6  7  1  0
  7  8  1  0
  9 10  1  0
  9 13  1  0
 10 11  1  0
 11 12  1  0
 12 13  1  0
M  END
