
     RDKit          3D

 13 13  0  0  0  0  0  0  0  0999 V2000
   -2.8810   -1.8910   -0.4870 O   0  0  0  0  0  0  0  0  0  0  0  0
   -2.3920   -0.8960    0.1050 C   0  0  0  0  0  0  0  0  0  0  0  0
   -3.0230    0.0060    0.9510 O   0  0  0  0  0  0  0  0  0  0  0  0
   -2.3590    1.2600    0.9100 C   0  0  0  0  0  0  0  0  0  0  0  0
   -1.2130    1.0760   -0.0980 C   0  0  0  0  0  0  0  0  0  0  0  0
   -0.9630   -0.4020    0.0560 C   0  0  2  0  0  0  0  0  0  0  0  0
   -0.2660   -0.9810   -0.9640 O   0  0  0  0  0  0  0  0  0  0  0  0
    0.8060   -1.6840   -0.4580 C   0  0  0  0  0  0  0  0  0  0  0  0
    1.8140   -0.8540    0.2850 C   0  0  1  0  0  0  0  0  0  0  0  0
    2.8060   -1.7760    0.7160 O   0  0  0  0  0  0  0  0  0  0  0  0
    2.3930    0.0830   -0.5780 O   0  0  0  0  0  0  0  0  0  0  0  0
    2.3320    1.2730   -0.0700 O   0  0  0  0  0  0  0  0  0  0  0  0
    2.1640    2.2140   -0.9750 O   0  0  0  0  0  0  0  0  0  0  0  0
  1  2  2  0
  2  3  1  0
  2  6  1  0
  3  4  1  0
  4  5  1  0
  5  6  1  0
  6  7  1  6
  7  8  1  0
  8  9  1  0
  9 10  1  6
  9 11  1  0
 11 12  1  0
 12 13  1  0
M  END
