
     RDKit          3D

 13 13  0  0  0  0  0  0  0  0999 V2000
    2.1470   -0.6810    1.7330 O   0  0  0  0  0  0  0  0  0  0  0  0
    1.5500   -0.2540    0.7180 C   0  0  0  0  0  0  0  0  0  0  0  0
    2.2810    0.2080   -0.3390 O   0  0  0  0  0  0  0  0  0  0  0  0
    3.6950    0.2480   -0.3920 C   0  0  0  0  0  0  0  0  0  0  0  0
    4.2510   -1.0260   -0.2570 O   0  0  0  0  0  0  0  0  0  0  0  0
    0.0720   -0.2360    0.6330 C   0  0  2  0  0  0  0  0  0  0  0  0
   -0.4900   -1.6590    0.5210 C   0  0  0  0  0  0  0  0  0  0  0  0
   -1.7870   -1.3300    0.0830 O   0  0  0  0  0  0  0  0  0  0  0  0
   -1.6860   -0.1790   -0.6510 C   0  0  1  0  0  0  0  0  0  0  0  0
   -2.5880    0.9330   -0.1830 C   0  0  0  0  0  0  0  0  0  0  0  0
   -3.9340    0.5630   -0.2380 O   0  0  0  0  0  0  0  0  0  0  0  0
   -4.6490    1.5800    0.1830 O   0  0  0  0  0  0  0  0  0  0  0  0
   -0.3800    0.2780   -0.5800 O   0  0  0  0  0  0  0  0  0  0  0  0
  1  2  2  0
  2  3  1  0
  6  2  1  6
  3  4  1  0
  4  5  1  0
  6  7  1  0
  6 13  1  0
  7  8  1  0
  8  9  1  0
  9 10  1  1
  9 13  1  0
 10 11  1  0
 11 12  1  0
M  END
