
     RDKit          3D

 13 13  0  0  0  0  0  0  0  0999 V2000
   -3.3780   -1.8530   -0.5760 O   0  0  0  0  0  0  0  0  0  0  0  0
   -2.7440   -0.7520   -0.7060 C   0  0  0  0  0  0  0  0  0  0  0  0
   -1.6660   -0.5110    0.2840 C   0  0  0  0  0  0  0  0  0  0  0  0
   -0.7540    0.6230   -0.1420 C   0  0  2  0  0  0  0  0  0  0  0  0
    0.0210    1.0040    0.9180 O   0  0  0  0  0  0  0  0  0  0  0  0
    1.3750    0.8900    0.7310 C   0  0  0  0  0  0  0  0  0  0  0  0
    1.8050   -0.5340    0.4370 C   0  0  0  0  0  0  0  0  0  0  0  0
    3.1920   -0.5470    0.2630 O   0  0  0  0  0  0  0  0  0  0  0  0
    3.6200   -1.7590    0.0060 O   0  0  0  0  0  0  0  0  0  0  0  0
   -1.6610    1.7330   -0.6080 C   0  0  0  0  0  0  0  0  0  0  0  0
   -1.6390    2.8740   -0.0760 O   0  0  0  0  0  0  0  0  0  0  0  0
   -2.5080    1.3930   -1.6550 O   0  0  0  0  0  0  0  0  0  0  0  0
   -3.0560    0.1480   -1.7130 O   0  0  0  0  0  0  0  0  0  0  0  0
  1  2  2  0
  2  3  1  0
  2 13  1  0
  3  4  1  0
  4  5  1  1
  4 10  1  0
  5  6  1  0
  6  7  1  0
  7  8  1  0
  8  9  1  0
 10 11  2  0
 10 12  1  0
 12 13  1  0
M  END
