
     RDKit          3D

 13 14  0  0  0  0  0  0  0  0999 V2000
   -2.1150    1.7590    1.2460 O   0  0  0  0  0  0  0  0  0  0  0  0
   -2.1070    1.5760    0.0160 C   0  0  0  0  0  0  0  0  0  0  0  0
   -1.2720    0.5890   -0.4800 O   0  0  0  0  0  0  0  0  0  0  0  0
   -0.4390   -0.2120    0.3100 C   0  0  2  0  0  0  0  0  0  0  0  0
    0.4850    0.5050    1.0320 O   0  0  0  0  0  0  0  0  0  0  0  0
    1.3870    1.2120    0.2760 C   0  0  0  0  0  0  0  0  0  0  0  0
    1.3800    0.7890   -1.0510 O   0  0  0  0  0  0  0  0  0  0  0  0
    1.5080   -0.6030   -1.1180 C   0  0  0  0  0  0  0  0  0  0  0  0
    0.2260   -1.2110   -0.6470 C   0  0  1  0  0  0  0  0  0  0  0  0
    0.3780   -2.3390    0.1130 O   0  0  0  0  0  0  0  0  0  0  0  0
   -0.7670   -2.4060    0.8410 O   0  0  0  0  0  0  0  0  0  0  0  0
   -1.1460   -1.1230    1.2090 C   0  0  0  0  0  0  0  0  0  0  0  0
   -1.9350   -0.7840    2.1250 O   0  0  0  0  0  0  0  0  0  0  0  0
  1  2  2  0
  2  3  1  0
  4  3  1  6
  4  5  1  0
  4  9  1  0
  4 12  1  0
  5  6  1  0
  6  7  1  0
  7  8  1  0
  9  8  1  1
  9 10  1  0
 10 11  1  0
 11 12  1  0
 12 13  2  0
M  END
