
     RDKit          3D

 13 13  0  0  0  0  0  0  0  0999 V2000
    0.9330   -0.0840    2.3420 O   0  0  0  0  0  0  0  0  0  0  0  0
    0.8450   -0.3100    1.1150 C   0  0  0  0  0  0  0  0  0  0  0  0
    1.9810   -0.2230    0.3380 O   0  0  0  0  0  0  0  0  0  0  0  0
    3.2290    0.1160    0.9130 C   0  0  0  0  0  0  0  0  0  0  0  0
    4.1990    0.1300   -0.1080 O   0  0  0  0  0  0  0  0  0  0  0  0
    3.8390    1.0270   -1.0020 O   0  0  0  0  0  0  0  0  0  0  0  0
   -0.4750   -0.6620    0.5480 C   0  0  1  0  0  0  0  0  0  0  0  0
   -1.5310    0.3220    0.9290 C   0  0  0  0  0  0  0  0  0  0  0  0
   -1.9160    1.1660   -0.0860 O   0  0  0  0  0  0  0  0  0  0  0  0
   -2.2360    0.5480   -1.2680 C   0  0  0  0  0  0  0  0  0  0  0  0
   -2.6240   -0.9030   -1.1140 C   0  0  0  0  0  0  0  0  0  0  0  0
   -1.4500   -1.6680   -1.1150 O   0  0  0  0  0  0  0  0  0  0  0  0
   -0.4100   -0.8840   -0.8240 O   0  0  0  0  0  0  0  0  0  0  0  0
  1  2  2  0
  2  3  1  0
  7  2  1  6
  3  4  1  0
  4  5  1  0
  5  6  1  0
  7  8  1  0
  7 13  1  0
  8  9  1  0
  9 10  1  0
 10 11  1  0
 11 12  1  0
 12 13  1  0
M  END
