
     RDKit          3D

 20 21  0  0  0  0  0  0  0  0999 V2000
   -5.4840    2.6380   -0.7140 O   0  0  0  0  0  0  0  0  0  0  0  0
   -4.5270    1.8460   -0.5000 C   0  0  0  0  0  0  0  0  0  0  0  0
   -4.3510    0.7580   -1.3270 C   0  0  0  0  0  0  0  0  0  0  0  0
   -3.2900   -0.1050   -1.0760 C   0  0  0  0  0  0  0  0  0  0  0  0
   -2.4370    0.0910   -0.0570 N   0  0  0  0  0  0  0  0  0  0  0  0
   -1.3260   -0.7560    0.2580 C   0  0  1  0  0  0  0  0  0  0  0  0
   -1.1680   -1.9150   -0.6690 C   0  0  0  0  0  0  0  0  0  0  0  0
    0.2770   -2.3440   -0.3830 C   0  0  2  0  0  0  0  0  0  0  0  0
    0.2070   -3.4830    0.4130 O   0  0  0  0  0  0  0  0  0  0  0  0
    0.7910   -1.1490    0.3960 C   0  0  1  0  0  0  0  0  0  0  0  0
    2.1590   -0.7160   -0.1040 C   0  0  0  0  0  0  0  0  0  0  0  0
    2.5120    0.4240    0.5590 O   0  0  0  0  0  0  0  0  0  0  0  0
    3.9220    1.1250    0.2400 P   0  0  0  0  0  0  0  0  0  0  0  0
    4.2280    1.5210    1.6820 O   0  0  0  0  0  0  0  0  0  0  0  0
    5.3170    0.2660    0.1020 O   0  0  0  0  0  0  0  0  0  0  0  0
    3.9860    2.7850   -0.1720 O   0  0  0  0  0  0  0  0  0  0  0  0
   -0.0900   -0.0980    0.1130 O   0  0  0  0  0  0  0  0  0  0  0  0
   -2.6530    1.1660    0.7190 C   0  0  0  0  0  0  0  0  0  0  0  0
   -1.8800    1.3970    1.6920 O   0  0  0  0  0  0  0  0  0  0  0  0
   -3.6650    2.0290    0.5160 N   0  0  0  0  0  0  0  0  0  0  0  0
  1  2  2  0
  2  3  1  0
  2 20  1  0
  3  4  2  0
  4  5  1  0
  6  5  1  6
  5 18  1  0
  6  7  1  0
  6 17  1  0
  7  8  1  0
  8  9  1  1
  8 10  1  0
 10 11  1  6
 10 17  1  0
 11 12  1  0
 12 13  1  0
 13 14  1  0
 13 15  1  0
 13 16  1  0
 18 19  2  0
 18 20  1  0
M  END
