
     RDKit          3D

 15 15  0  0  0  0  0  0  0  0999 V2000
    4.4850    1.1430   -0.0960 C   0  0  0  0  0  0  0  0  0  0  0  0
    4.0460    0.1210   -1.1090 C   0  0  0  0  0  0  0  0  0  0  0  0
    2.6990   -0.4670   -0.6540 C   0  0  1  0  0  0  0  0  0  0  0  0
    2.8430   -1.0780    0.6100 N   0  0  0  0  0  0  0  0  0  0  0  0
    1.6710    0.5910   -0.8000 C   0  0  0  0  0  0  0  0  0  0  0  0
    0.3750    0.2400   -0.5970 O   0  0  0  0  0  0  0  0  0  0  0  0
   -0.3420   -0.1610    0.4660 C   0  0  0  0  0  0  0  0  0  0  0  0
    0.2090   -0.2600    1.5790 O   0  0  0  0  0  0  0  0  0  0  0  0
   -1.7830   -0.4910    0.3400 C   0  0  2  0  0  0  0  0  0  0  0  0
   -2.1740   -0.3160   -0.9540 O   0  0  0  0  0  0  0  0  0  0  0  0
   -3.5270   -0.7190   -1.0350 C   0  0  0  0  0  0  0  0  0  0  0  0
   -4.3170    0.4470   -0.4940 C   0  0  0  0  0  0  0  0  0  0  0  0
   -3.9280    0.7190    0.9120 C   0  0  0  0  0  0  0  0  0  0  0  0
   -2.6270    0.1930    1.3630 C   0  0  1  0  0  0  0  0  0  0  0  0
   -2.7890   -0.6340    2.5010 O   0  0  0  0  0  0  0  0  0  0  0  0
  1  2  1  0
  2  3  1  0
  3  4  1  1
  3  5  1  0
  5  6  1  0
  6  7  1  0
  7  8  2  0
  9  7  1  6
  9 10  1  0
  9 14  1  0
 10 11  1  0
 11 12  1  0
 12 13  1  0
 13 14  1  0
 14 15  1  1
M  CHG  1   4   1
M  END
