
     RDKit          3D

 15 15  0  0  0  0  0  0  0  0999 V2000
    1.9080    0.1140   -1.4740 C   0  0  0  0  0  0  0  0  0  0  0  0
    1.7940   -0.2270   -0.2300 C   0  0  0  0  0  0  0  0  0  0  0  0
    3.1260   -0.5010    0.4820 C   0  0  0  0  0  0  0  0  0  0  0  0
    0.6370   -0.4050    0.6050 C   0  0  1  0  0  0  0  0  0  0  0  0
    0.6760    0.6890    1.7260 C   0  0  0  0  0  0  0  0  0  0  0  0
   -0.4020    1.5880    1.4380 N   0  0  0  0  0  0  0  0  0  0  0  0
   -0.8400    1.2820    0.0820 C   0  0  2  0  0  0  0  0  0  0  0  0
   -2.1890    1.7580   -0.2000 C   0  0  0  0  0  0  0  0  0  0  0  0
   -2.9070    2.3480    0.6490 O   0  0  0  0  0  0  0  0  0  0  0  0
   -2.7400    1.5690   -1.4590 O   0  0  0  0  0  0  0  0  0  0  0  0
   -0.7330   -0.2480    0.1550 C   0  0  1  0  0  0  0  0  0  0  0  0
   -1.2620   -0.8430   -1.0640 C   0  0  0  0  0  0  0  0  0  0  0  0
   -1.1680   -2.3280   -1.1210 C   0  0  0  0  0  0  0  0  0  0  0  0
   -1.6090   -2.8890   -2.1490 O   0  0  0  0  0  0  0  0  0  0  0  0
   -0.6310   -3.1170   -0.1240 O   0  0  0  0  0  0  0  0  0  0  0  0
  1  2  2  0
  2  3  1  0
  4  2  1  6
  4  5  1  0
  4 11  1  0
  5  6  1  0
  6  7  1  0
  7  8  1  1
  7 11  1  0
  8  9  2  0
  8 10  1  0
 11 12  1  6
 12 13  1  0
 13 14  2  0
 13 15  1  0
M  CHG  1   6   1
M  END
