
     RDKit          3D

 15 15  0  0  0  0  0  0  0  0999 V2000
    3.5650    1.8140    0.9640 C   0  0  0  0  0  0  0  0  0  0  0  0
    2.7410    1.6780   -0.1440 O   0  0  0  0  0  0  0  0  0  0  0  0
    2.9130    0.3620   -0.6290 C   0  0  0  0  0  0  0  0  0  0  0  0
    2.0440    0.1290   -1.8440 C   0  0  0  0  0  0  0  0  0  0  0  0
    0.7280    0.3070   -1.5320 O   0  0  0  0  0  0  0  0  0  0  0  0
    0.2030   -0.5460   -0.5770 C   0  0  1  0  0  0  0  0  0  0  0  0
   -0.3170    0.1800    0.6240 C   0  0  0  0  0  0  0  0  0  0  0  0
   -1.7860    0.4650    0.5910 C   0  0  2  0  0  0  0  0  0  0  0  0
   -2.0360    1.7590   -0.1650 C   0  0  0  0  0  0  0  0  0  0  0  0
   -2.3100    0.7100    2.0130 C   0  0  0  0  0  0  0  0  0  0  0  0
   -3.6500    1.1140    1.8390 O   0  0  0  0  0  0  0  0  0  0  0  0
   -2.5620   -0.5100    0.0390 O   0  0  0  0  0  0  0  0  0  0  0  0
   -1.8780   -1.7170   -0.1550 C   0  0  0  0  0  0  0  0  0  0  0  0
   -0.8510   -1.4210   -1.2310 C   0  0  2  0  0  0  0  0  0  0  0  0
   -0.2940   -2.6600   -1.6840 N   0  0  0  0  0  0  0  0  0  0  0  0
  1  2  1  0
  2  3  1  0
  3  4  1  0
  4  5  1  0
  6  5  1  6
  6  7  1  0
  6 14  1  0
  7  8  1  0
  8  9  1  6
  8 10  1  0
  8 12  1  0
 10 11  1  0
 12 13  1  0
 13 14  1  0
 14 15  1  1
M  CHG  1  15   1
M  END
