
     RDKit          3D

 15 15  0  0  0  0  0  0  0  0999 V2000
    5.5080    0.5250    1.1870 C   0  0  0  0  0  0  0  0  0  0  0  0
    4.2060    0.7640    0.7080 O   0  0  0  0  0  0  0  0  0  0  0  0
    3.2070   -0.2000    0.6900 C   0  0  0  0  0  0  0  0  0  0  0  0
    3.4840   -1.3290    1.1220 O   0  0  0  0  0  0  0  0  0  0  0  0
    1.8850    0.2050    0.1540 C   0  0  0  0  0  0  0  0  0  0  0  0
    0.9620   -0.8040    0.1740 O   0  0  0  0  0  0  0  0  0  0  0  0
   -0.2680   -0.4150   -0.3250 C   0  0  1  0  0  0  0  0  0  0  0  0
   -0.1970    0.0640   -1.7530 C   0  0  0  0  0  0  0  0  0  0  0  0
    0.2770   -0.9250   -2.6050 O   0  0  0  0  0  0  0  0  0  0  0  0
   -1.1980   -1.6290   -0.3350 C   0  0  0  0  0  0  0  0  0  0  0  0
   -2.5580   -1.2700   -0.8390 C   0  0  0  0  0  0  0  0  0  0  0  0
   -3.1340   -0.0450   -0.2070 C   0  0  0  0  0  0  0  0  0  0  0  0
   -2.2960    0.3290    0.9730 C   0  0  2  0  0  0  0  0  0  0  0  0
   -2.7960    1.5160    1.6640 N   0  0  0  0  0  0  0  0  0  0  0  0
   -0.8710    0.6050    0.5930 C   0  0  0  0  0  0  0  0  0  0  0  0
  1  2  1  0
  2  3  1  0
  3  4  2  0
  3  5  1  0
  5  6  1  0
  6  7  1  0
  7  8  1  6
  7 10  1  0
  7 15  1  0
  8  9  1  0
 10 11  1  0
 11 12  1  0
 12 13  1  0
 13 14  1  6
 13 15  1  0
M  CHG  1  14   1
M  END
