
     RDKit          3D

 15 15  0  0  0  0  0  0  0  0999 V2000
    4.7550   -0.0320    0.7740 C   0  0  0  0  0  0  0  0  0  0  0  0
    4.3240    0.0720   -0.5090 O   0  0  0  0  0  0  0  0  0  0  0  0
    3.0400   -0.2260   -0.8140 C   0  0  0  0  0  0  0  0  0  0  0  0
    1.9740    0.5850   -0.1560 C   0  0  2  0  0  0  0  0  0  0  0  0
    1.8380    0.4490    1.3130 C   0  0  0  0  0  0  0  0  0  0  0  0
    0.4790    0.2150    1.5130 O   0  0  0  0  0  0  0  0  0  0  0  0
    0.1680   -0.5680    0.4240 C   0  0  1  0  0  0  0  0  0  0  0  0
   -1.2640   -0.8920    0.2670 C   0  0  2  0  0  0  0  0  0  0  0  0
   -1.4100   -1.7210   -0.9310 N   0  0  0  0  0  0  0  0  0  0  0  0
   -2.1960    0.2620    0.2620 C   0  0  1  0  0  0  0  0  0  0  0  0
   -3.6160   -0.2960    0.0890 C   0  0  0  0  0  0  0  0  0  0  0  0
   -2.1550    0.9520    1.6010 C   0  0  0  0  0  0  0  0  0  0  0  0
   -1.9850    1.2280   -0.8750 C   0  0  0  0  0  0  0  0  0  0  0  0
   -2.1440    0.6140   -2.1150 O   0  0  0  0  0  0  0  0  0  0  0  0
    0.7020    0.1570   -0.6420 O   0  0  0  0  0  0  0  0  0  0  0  0
  1  2  1  0
  2  3  1  0
  4  3  1  6
  4  5  1  0
  4 15  1  0
  5  6  1  0
  7  6  1  1
  7  8  1  0
  7 15  1  0
  8  9  1  6
  8 10  1  0
 10 11  1  6
 10 12  1  0
 10 13  1  0
 13 14  1  0
M  CHG  1   9   1
M  END
