
     RDKit          3D

 15 15  0  0  0  0  0  0  0  0999 V2000
   -5.9290    0.0930   -0.4160 C   0  0  0  0  0  0  0  0  0  0  0  0
   -4.5790   -0.5920   -0.3930 C   0  0  0  0  0  0  0  0  0  0  0  0
   -3.6400    0.3710    0.0520 O   0  0  0  0  0  0  0  0  0  0  0  0
   -2.2700    0.0490    0.1870 C   0  0  0  0  0  0  0  0  0  0  0  0
   -1.9800   -1.1140   -0.1110 O   0  0  0  0  0  0  0  0  0  0  0  0
   -1.2900    1.0350    0.6460 C   0  0  0  0  0  0  0  0  0  0  0  0
   -0.0050    0.6040    0.7350 O   0  0  0  0  0  0  0  0  0  0  0  0
    0.5970    0.1460   -0.4060 C   0  0  1  0  0  0  0  0  0  0  0  0
    1.6570    1.2220   -0.7570 C   0  0  0  0  0  0  0  0  0  0  0  0
    2.6590    1.3510    0.3460 C   0  0  0  0  0  0  0  0  0  0  0  0
    3.2670    0.0240    0.7430 C   0  0  2  0  0  0  0  0  0  0  0  0
    4.0530   -0.5210   -0.3190 N   0  0  0  0  0  0  0  0  0  0  0  0
    2.1340   -0.8770    1.1710 C   0  0  2  0  0  0  0  0  0  0  0  0
    2.6250   -2.0550    1.7020 O   0  0  0  0  0  0  0  0  0  0  0  0
    1.3000   -1.1510   -0.0890 C   0  0  0  0  0  0  0  0  0  0  0  0
  1  2  1  0
  2  3  1  0
  3  4  1  0
  4  5  2  0
  4  6  1  0
  6  7  1  0
  8  7  1  1
  8  9  1  0
  8 15  1  0
  9 10  1  0
 10 11  1  0
 11 12  1  6
 11 13  1  0
 13 14  1  6
 13 15  1  0
M  CHG  1  12   1
M  END
