
     RDKit          3D

 15 15  0  0  0  0  0  0  0  0999 V2000
   -2.6990   -1.6000    0.9500 C   0  0  0  0  0  0  0  0  0  0  0  0
   -2.4070   -0.8310   -0.1650 O   0  0  0  0  0  0  0  0  0  0  0  0
   -1.8420    0.3850    0.1240 C   0  0  2  0  0  0  0  0  0  0  0  0
   -2.7750    1.5260   -0.2840 C   0  0  0  0  0  0  0  0  0  0  0  0
   -2.1940    2.7580    0.0120 O   0  0  0  0  0  0  0  0  0  0  0  0
   -0.5600    0.5980   -0.5890 C   0  0  2  0  0  0  0  0  0  0  0  0
   -0.7920    0.5350   -2.0180 N   0  0  0  0  0  0  0  0  0  0  0  0
    0.5450   -0.3450   -0.2440 C   0  0  1  0  0  0  0  0  0  0  0  0
    0.3080   -1.7430   -0.7030 C   0  0  0  0  0  0  0  0  0  0  0  0
    1.7930    0.2650   -0.9020 C   0  0  0  0  0  0  0  0  0  0  0  0
    2.2910    1.3330    0.0380 C   0  0  0  0  0  0  0  0  0  0  0  0
    3.3840    0.9220    0.7410 O   0  0  0  0  0  0  0  0  0  0  0  0
    3.2000   -0.1110    1.6060 C   0  0  0  0  0  0  0  0  0  0  0  0
    2.0360   -0.9970    1.3290 C   0  0  0  0  0  0  0  0  0  0  0  0
    0.8430   -0.3600    1.1260 O   0  0  0  0  0  0  0  0  0  0  0  0
  1  2  1  0
  2  3  1  0
  3  4  1  6
  3  6  1  0
  4  5  1  0
  6  7  1  6
  6  8  1  0
  8  9  1  6
  8 10  1  0
  8 15  1  0
 10 11  1  0
 11 12  1  0
 12 13  1  0
 13 14  1  0
 14 15  1  0
M  CHG  1   7   1
M  END
