
     RDKit          3D

 15 15  0  0  0  0  0  0  0  0999 V2000
   -3.0640   -2.2470   -0.3060 C   0  0  0  0  0  0  0  0  0  0  0  0
   -2.7040   -0.8060    0.0770 C   0  0  0  0  0  0  0  0  0  0  0  0
   -1.4490   -0.5720   -0.4230 O   0  0  0  0  0  0  0  0  0  0  0  0
   -0.9330    0.6800   -0.1830 C   0  0  2  0  0  0  0  0  0  0  0  0
   -1.8530    1.7260   -0.7790 C   0  0  0  0  0  0  0  0  0  0  0  0
   -1.3100    3.0710   -0.5300 N   0  0  0  0  0  0  0  0  0  0  0  0
    0.3870    0.7870   -0.9040 C   0  0  0  0  0  0  0  0  0  0  0  0
    1.5170    0.1300   -0.1540 C   0  0  2  0  0  0  0  0  0  0  0  0
    2.6960    0.6810   -0.6340 O   0  0  0  0  0  0  0  0  0  0  0  0
    1.5570   -1.3580   -0.3620 C   0  0  0  0  0  0  0  0  0  0  0  0
    2.5820   -1.9460    0.3310 O   0  0  0  0  0  0  0  0  0  0  0  0
    3.8570   -1.5680    0.0570 C   0  0  0  0  0  0  0  0  0  0  0  0
    1.4330    0.3690    1.3350 C   0  0  0  0  0  0  0  0  0  0  0  0
    0.0440    0.0890    1.8210 C   0  0  0  0  0  0  0  0  0  0  0  0
   -0.8190    0.9670    1.1740 O   0  0  0  0  0  0  0  0  0  0  0  0
  1  2  1  0
  2  3  1  0
  3  4  1  0
  4  5  1  6
  4  7  1  0
  4 15  1  0
  5  6  1  0
  7  8  1  0
  8  9  1  6
  8 10  1  0
  8 13  1  0
 10 11  1  0
 11 12  1  0
 13 14  1  0
 14 15  1  0
M  CHG  1   6   1
M  END
