
     RDKit          3D

 22 21  0  0  0  0  0  0  0  0999 V2000
    2.2880   -2.2170    1.3060 C   0  0  0  0  0  0  0  0  0  0  0  0
    2.0290   -1.0700    0.3470 C   0  0  2  0  0  0  0  0  0  0  0  0
    2.9730   -1.3490   -0.8340 C   0  0  0  0  0  0  0  0  0  0  0  0
    2.5120    0.1740    1.0400 C   0  0  0  0  0  0  0  0  0  0  0  0
    2.3850    1.3810    0.4360 O   0  0  0  0  0  0  0  0  0  0  0  0
    2.8840    1.9940   -0.6470 C   0  0  0  0  0  0  0  0  0  0  0  0
    2.5280    3.3360   -1.0550 N   0  0  0  0  0  0  0  0  0  0  0  0
    3.7070    1.3880   -1.3620 O   0  0  0  0  0  0  0  0  0  0  0  0
    0.6780   -0.9340   -0.1560 C   0  0  0  0  0  0  0  0  0  0  0  0
    0.6060   -0.4770   -1.9000 Cl  0  0  0  0  0  0  0  0  0  0  0  0
   -0.4970   -1.0460    0.4020 C   0  0  0  0  0  0  0  0  0  0  0  0
   -1.6510   -0.8410   -0.4230 O   0  0  0  0  0  0  0  0  0  0  0  0
   -2.4470    0.2910   -0.3890 C   0  0  1  0  0  0  0  0  0  0  0  0
   -1.7180    1.5880   -0.7210 C   0  0  0  0  0  0  0  0  0  0  0  0
   -2.6500    2.6340   -0.6130 O   0  0  0  0  0  0  0  0  0  0  0  0
   -3.4180    0.1610   -1.4150 O   0  0  0  0  0  0  0  0  0  0  0  0
   -4.1760   -0.9360   -1.2200 N   0  0  0  0  0  0  0  0  0  0  0  0
   -3.1540    0.5130    0.7670 O   0  0  0  0  0  0  0  0  0  0  0  0
   -3.8970    1.5810    0.7690 O   0  0  0  0  0  0  0  0  0  0  0  0
   -0.8240   -1.3510    1.7710 C   0  0  0  0  0  0  0  0  0  0  0  0
   -2.2040   -1.4630    2.1770 N   0  0  0  0  0  0  0  0  0  0  0  0
   -0.0050   -1.5340    2.6820 O   0  0  0  0  0  0  0  0  0  0  0  0
  2  1  1  1
  2  3  1  0
  2  4  1  0
  2  9  1  0
  4  5  1  0
  5  6  1  0
  6  7  1  0
  6  8  2  0
  9 10  1  0
  9 11  2  3
 11 12  1  0
 11 20  1  0
 12 13  1  0
 13 14  1  6
 13 16  1  0
 13 18  1  0
 14 15  1  0
 16 17  1  0
 18 19  1  0
 20 21  1  0
 20 22  2  0
M  END
