
     RDKit          3D

 22 21  0  0  0  0  0  0  0  0999 V2000
    1.6550    3.8660   -0.5920 C   0  0  0  0  0  0  0  0  0  0  0  0
    1.7100    2.4840   -0.2530 O   0  0  0  0  0  0  0  0  0  0  0  0
    1.3890    1.4780   -1.1480 C   0  0  0  0  0  0  0  0  0  0  0  0
    1.0360    1.8120   -2.3060 O   0  0  0  0  0  0  0  0  0  0  0  0
    1.4510    0.0660   -0.7850 C   0  0  2  0  0  0  0  0  0  0  0  0
    0.9970   -0.7600   -1.8090 O   0  0  0  0  0  0  0  0  0  0  0  0
    0.8310   -0.3220    0.5080 C   0  0  0  0  0  0  0  0  0  0  0  0
   -0.5240   -0.2800    0.6030 O   0  0  0  0  0  0  0  0  0  0  0  0
   -1.1440    0.9190    0.4080 C   0  0  0  0  0  0  0  0  0  0  0  0
   -2.6080    0.7500    0.5810 C   0  0  0  0  0  0  0  0  0  0  0  0
   -3.4200    1.7140    0.4500 O   0  0  0  0  0  0  0  0  0  0  0  0
   -3.1140   -0.5290    0.9020 N   0  0  0  0  0  0  0  0  0  0  0  0
   -4.5620   -0.6730    1.0680 C   0  0  1  0  0  0  0  0  0  0  0  0
   -5.2240   -0.5690   -0.1420 O   0  0  0  0  0  0  0  0  0  0  0  0
   -4.7900   -1.9540    1.5710 O   0  0  0  0  0  0  0  0  0  0  0  0
   -4.9750    0.2950    1.9910 O   0  0  0  0  0  0  0  0  0  0  0  0
    2.9630   -0.2430   -0.6140 C   0  0  2  0  0  0  0  0  0  0  0  0
    3.7820    0.1940   -2.1180 Cl  0  0  0  0  0  0  0  0  0  0  0  0
    3.0840   -1.6250   -0.2760 N   0  0  0  0  0  0  0  0  0  0  0  0
    3.6040   -1.9850    0.9930 C   0  0  0  0  0  0  0  0  0  0  0  0
    3.7230   -3.3500    1.3230 N   0  0  0  0  0  0  0  0  0  0  0  0
    3.9690   -1.1200    1.8470 O   0  0  0  0  0  0  0  0  0  0  0  0
  1  2  1  0
  2  3  1  0
  3  4  2  0
  3  5  1  0
  5  6  1  6
  5  7  1  0
  5 17  1  0
  7  8  1  0
  8  9  1  0
  9 10  1  0
 10 11  2  0
 10 12  1  0
 12 13  1  0
 13 14  1  6
 13 15  1  0
 13 16  1  0
 17 18  1  6
 17 19  1  0
 19 20  1  0
 20 21  1  0
 20 22  2  0
M  END
