
     RDKit          3D

 22 22  0  0  0  0  0  0  0  0999 V2000
   -2.7370    2.2170   -2.2420 N   0  0  0  0  0  0  0  0  0  0  0  0
   -1.9770    1.1020   -1.7320 C   0  0  0  0  0  0  0  0  0  0  0  0
   -1.5820    0.1910   -2.4980 O   0  0  0  0  0  0  0  0  0  0  0  0
   -1.6680    1.0030   -0.4310 O   0  0  0  0  0  0  0  0  0  0  0  0
   -1.0320    0.1400    0.3880 C   0  0  1  0  0  0  0  0  0  0  0  0
   -1.0250    1.2520    1.9740 Cl  0  0  0  0  0  0  0  0  0  0  0  0
   -1.8330   -0.9510    0.9540 C   0  0  0  0  0  0  0  0  0  0  0  0
   -2.5480   -1.9310    0.1500 C   0  0  0  0  0  0  0  0  0  0  0  0
   -3.1900   -3.0690    0.8160 N   0  0  0  0  0  0  0  0  0  0  0  0
   -2.6890   -1.9350   -1.0230 O   0  0  0  0  0  0  0  0  0  0  0  0
    0.4110   -0.0550    0.2300 C   0  0  0  0  0  0  0  0  0  0  0  0
    1.3040    0.8830    0.5840 C   0  0  0  0  0  0  0  0  0  0  0  0
    0.8920    2.1260    1.1340 N   0  0  0  0  0  0  0  0  0  0  0  0
    2.7830    0.6880    0.3970 C   0  0  2  0  0  0  0  0  0  0  0  0
    3.4640    1.3330    1.4320 O   0  0  0  0  0  0  0  0  0  0  0  0
    3.2220    1.2080   -0.9140 C   0  0  0  0  0  0  0  0  0  0  0  0
    4.0870    2.1140   -0.9460 O   0  0  0  0  0  0  0  0  0  0  0  0
    2.7240    0.7430   -2.1160 O   0  0  0  0  0  0  0  0  0  0  0  0
    3.1490   -0.7790    0.4730 C   0  0  0  0  0  0  0  0  0  0  0  0
    2.3660   -1.4020   -0.5450 O   0  0  0  0  0  0  0  0  0  0  0  0
    0.9630   -1.2490   -0.3590 C   0  0  0  0  0  0  0  0  0  0  0  0
    0.2050   -2.1750   -0.7190 O   0  0  0  0  0  0  0  0  0  0  0  0
  1  2  1  0
  2  3  2  0
  2  4  1  0
  4  5  1  0
  5  6  1  1
  5  7  1  0
  5 11  1  0
  7  8  1  0
  8  9  1  0
  8 10  2  0
 11 12  2  0
 11 21  1  0
 12 13  1  0
 12 14  1  0
 14 15  1  1
 14 16  1  0
 14 19  1  0
 16 17  2  0
 16 18  1  0
 19 20  1  0
 20 21  1  0
 21 22  2  0
M  CHG  1   9   1
M  END
