
     RDKit          3D

 21 23  0  0  0  0  0  0  0  0999 V2000
    6.7230   -0.0160   -0.2230 N   0  0  0  0  0  0  0  0  0  0  0  0
    5.4050   -1.1070   -0.1910 S   0  0  2  0  0  0  0  0  0  0  0  0
    5.9510   -2.4720    0.1440 O   0  0  0  0  0  0  0  0  0  0  0  0
    4.7250   -1.2280   -1.5240 O   0  0  0  0  0  0  0  0  0  0  0  0
    4.2760   -0.6510    0.9860 O   0  0  0  0  0  0  0  0  0  0  0  0
    2.9480   -0.4190    0.7280 C   0  0  0  0  0  0  0  0  0  0  0  0
    2.5130    0.8540    0.3830 C   0  0  0  0  0  0  0  0  0  0  0  0
    1.1620    1.0590    0.1280 C   0  0  0  0  0  0  0  0  0  0  0  0
    0.3080   -0.0080    0.2280 C   0  0  0  0  0  0  0  0  0  0  0  0
   -0.9880    0.2140   -0.0230 C   0  0  0  0  0  0  0  0  0  0  0  0
   -1.9850   -0.7900    0.0340 C   0  0  0  0  0  0  0  0  0  0  0  0
   -1.4470   -2.0470    0.3900 C   0  0  0  0  0  0  0  0  0  0  0  0
   -2.2780   -3.0000    0.4640 O   0  0  0  0  0  0  0  0  0  0  0  0
   -0.1740   -2.2280    0.6310 O   0  0  0  0  0  0  0  0  0  0  0  0
    0.7050   -1.2820    0.5660 C   0  0  0  0  0  0  0  0  0  0  0  0
    2.0590   -1.4770    0.8190 C   0  0  0  0  0  0  0  0  0  0  0  0
   -3.4250   -0.8230   -0.2230 C   0  0  0  0  0  0  0  0  0  0  0  0
   -4.3890    0.1470    0.3570 C   0  0  0  0  0  0  0  0  0  0  0  0
   -4.0950    1.6160   -0.1370 C   0  0  0  0  0  0  0  0  0  0  0  0
   -2.7420    1.7550   -0.2610 C   0  0  0  0  0  0  0  0  0  0  0  0
   -1.3270    1.6820   -0.3410 C   0  0  0  0  0  0  0  0  0  0  0  0
  2  1  1  6
  2  3  2  0
  2  4  2  0
  2  5  1  0
  5  6  1  0
  6  7  2  0
  6 16  1  0
  7  8  1  0
  8  9  2  0
  9 10  1  0
  9 15  1  0
 10 11  2  0
 10 21  1  0
 11 12  1  0
 11 17  1  0
 12 13  2  0
 12 14  1  0
 14 15  1  0
 15 16  2  0
 17 18  1  0
 18 19  1  0
 19 20  1  0
 20 21  1  0
M  END
