
     RDKit          3D

 22 21  0  0  0  0  0  0  0  0999 V2000
   -4.3370   -2.8920   -0.6050 N   0  0  0  0  0  0  0  0  0  0  0  0
   -2.9210   -2.8220   -0.3890 C   0  0  0  0  0  0  0  0  0  0  0  0
   -2.4510   -1.3680   -0.3310 C   0  0  2  0  0  0  0  0  0  0  0  0
   -2.7570   -0.7330   -1.5430 O   0  0  0  0  0  0  0  0  0  0  0  0
   -0.9600   -1.4130   -0.1240 C   0  0  0  0  0  0  0  0  0  0  0  0
   -0.4420    0.0310   -0.0340 C   0  0  2  0  0  0  0  0  0  0  0  0
   -0.6550    0.7810   -1.0680 O   0  0  0  0  0  0  0  0  0  0  0  0
   -1.2870    1.8790   -1.3330 C   0  0  0  0  0  0  0  0  0  0  0  0
   -0.8130    3.1510   -0.7070 C   0  0  2  0  0  0  0  0  0  0  0  0
   -1.7210    4.5430   -1.4960 Cl  0  0  0  0  0  0  0  0  0  0  0  0
    0.5590    3.4600   -1.0130 N   0  0  0  0  0  0  0  0  0  0  0  0
    0.9790    4.5620   -0.9290 O   0  0  0  0  0  0  0  0  0  0  0  0
   -1.0820    3.2880    0.6840 N   0  0  0  0  0  0  0  0  0  0  0  0
   -0.7330    4.5380    1.1330 O   0  0  0  0  0  0  0  0  0  0  0  0
    0.3970    4.4390    1.8160 O   0  0  0  0  0  0  0  0  0  0  0  0
    1.0350   -0.0810    0.4120 C   0  0  2  0  0  0  0  0  0  0  0  0
    1.5710    1.1340    0.7710 O   0  0  0  0  0  0  0  0  0  0  0  0
    1.8860   -0.6640   -0.7050 C   0  0  0  0  0  0  0  0  0  0  0  0
    3.1770   -0.8000   -0.2600 O   0  0  0  0  0  0  0  0  0  0  0  0
    3.3880   -1.6120    0.8160 C   0  0  0  0  0  0  0  0  0  0  0  0
    4.9080   -1.5930    1.0720 C   0  0  0  0  0  0  0  0  0  0  0  0
    5.3090   -0.2770    1.3400 O   0  0  0  0  0  0  0  0  0  0  0  0
  1  2  1  0
  2  3  1  0
  3  4  1  6
  3  5  1  0
  6  5  1  6
  6  7  1  0
  6 16  1  0
  7  8  1  0
  8  9  1  0
  9 10  1  6
  9 11  1  0
  9 13  1  0
 11 12  2  0
 13 14  1  0
 14 15  1  0
 16 17  1  6
 16 18  1  0
 18 19  1  0
 19 20  1  0
 20 21  1  0
 21 22  1  0
M  CHG  1   1   1
M  END
