
     RDKit          3D

 23 23  0  0  0  0  0  0  0  0999 V2000
    5.5050   -1.3490    0.4640 N   0  0  0  0  0  0  0  0  0  0  0  0
    4.2950   -0.6140    0.6390 C   0  0  0  0  0  0  0  0  0  0  0  0
    3.6250   -0.9360    1.6520 O   0  0  0  0  0  0  0  0  0  0  0  0
    3.9810    0.3970   -0.3470 C   0  0  0  0  0  0  0  0  0  0  0  0
    2.8370    1.1060   -0.1990 O   0  0  0  0  0  0  0  0  0  0  0  0
    1.6580    0.3950   -0.1960 C   0  0  0  0  0  0  0  0  0  0  0  0
    0.5350    1.3990   -0.0200 C   0  0  2  0  0  0  0  0  0  0  0  0
    0.6160    2.5270   -1.3920 Cl  0  0  0  0  0  0  0  0  0  0  0  0
    0.7310    2.2300    1.2380 C   0  0  0  0  0  0  0  0  0  0  0  0
    1.9130    2.9270    1.1830 O   0  0  0  0  0  0  0  0  0  0  0  0
   -0.8350    0.7330    0.0100 C   0  0  1  0  0  0  0  0  0  0  0  0
   -1.7430    1.8010    0.1790 O   0  0  0  0  0  0  0  0  0  0  0  0
   -1.1500    0.0220   -1.2520 C   0  0  0  0  0  0  0  0  0  0  0  0
   -2.3910   -0.4870   -1.3480 O   0  0  0  0  0  0  0  0  0  0  0  0
   -2.8600   -1.4330   -0.5170 C   0  0  1  0  0  0  0  0  0  0  0  0
   -2.0650   -2.6560   -0.5010 N   0  0  0  0  0  0  0  0  0  0  0  0
   -3.2270   -1.0040    0.8620 C   0  0  0  0  0  0  0  0  0  0  0  0
   -2.7130   -1.5100    1.8700 O   0  0  0  0  0  0  0  0  0  0  0  0
   -4.2250    0.0370    0.9410 N   0  0  0  0  0  0  0  0  0  0  0  0
   -5.1420    0.0970   -0.0550 O   0  0  0  0  0  0  0  0  0  0  0  0
   -5.2800   -1.0770   -0.6930 O   0  0  0  0  0  0  0  0  0  0  0  0
   -4.2210   -1.8370   -1.1180 C   0  0  0  0  0  0  0  0  0  0  0  0
   -4.3130   -2.7790   -1.9190 O   0  0  0  0  0  0  0  0  0  0  0  0
  1  2  1  0
  2  3  2  0
  2  4  1  0
  4  5  1  0
  5  6  1  0
  6  7  1  0
  7  8  1  6
  7  9  1  0
  7 11  1  0
  9 10  1  0
 11 12  1  6
 11 13  1  0
 13 14  1  0
 14 15  1  0
 15 16  1  1
 15 17  1  0
 15 22  1  0
 17 18  2  0
 17 19  1  0
 19 20  1  0
 20 21  1  0
 21 22  1  0
 22 23  2  0
M  END
