
     RDKit          3D

 22 22  0  0  0  0  0  0  0  0999 V2000
    3.0930   -2.4310    0.5190 N   0  0  0  0  0  0  0  0  0  0  0  0
    1.8110   -1.9500    0.8580 C   0  0  0  0  0  0  0  0  0  0  0  0
    1.2730   -2.2890    1.9300 O   0  0  0  0  0  0  0  0  0  0  0  0
    1.1030   -1.0410   -0.0600 C   0  0  1  0  0  0  0  0  0  0  0  0
   -0.1470   -0.6770    0.4520 O   0  0  0  0  0  0  0  0  0  0  0  0
   -0.7840    0.0570   -0.5770 C   0  0  1  0  0  0  0  0  0  0  0  0
   -0.7750   -1.0200   -2.0020 Cl  0  0  0  0  0  0  0  0  0  0  0  0
   -2.2090    0.3530   -0.1740 C   0  0  1  0  0  0  0  0  0  0  0  0
   -2.9060   -0.9840    0.0400 C   0  0  0  0  0  0  0  0  0  0  0  0
   -4.2800   -0.8230    0.4320 N   0  0  0  0  0  0  0  0  0  0  0  0
   -2.3140    1.1060    1.1130 C   0  0  0  0  0  0  0  0  0  0  0  0
   -1.6820    2.3450    1.1080 O   0  0  0  0  0  0  0  0  0  0  0  0
   -2.8850    1.1450   -1.2540 C   0  0  0  0  0  0  0  0  0  0  0  0
   -2.9220    0.4740   -2.4710 O   0  0  0  0  0  0  0  0  0  0  0  0
    0.0520    1.2380   -0.8920 C   0  0  0  0  0  0  0  0  0  0  0  0
    1.1820    1.3080   -0.0410 O   0  0  0  0  0  0  0  0  0  0  0  0
    1.9540    0.1870   -0.3430 C   0  0  1  0  0  0  0  0  0  0  0  0
    3.0910    0.2200    0.5130 O   0  0  0  0  0  0  0  0  0  0  0  0
    4.3840    0.2700    0.0300 C   0  0  0  0  0  0  0  0  0  0  0  0
    4.5460    0.2860   -1.2200 O   0  0  0  0  0  0  0  0  0  0  0  0
    5.5280    0.3030    0.8750 N   0  0  0  0  0  0  0  0  0  0  0  0
    6.7890    0.3520    0.3900 O   0  0  0  0  0  0  0  0  0  0  0  0
  1  2  1  0
  2  3  2  0
  4  2  1  1
  4  5  1  0
  4 17  1  0
  5  6  1  0
  6  7  1  6
  6  8  1  0
  6 15  1  0
  8  9  1  1
  8 11  1  0
  8 13  1  0
  9 10  1  0
 11 12  1  0
 13 14  1  0
 15 16  1  0
 16 17  1  0
 17 18  1  1
 18 19  1  0
 19 20  2  0
 19 21  1  0
 21 22  1  0
M  CHG  1  10   1
M  END
