
     RDKit          3D

 23 22  0  0  0  0  0  0  0  0999 V2000
   -6.8310    1.0060   -1.0910 N   0  0  0  0  0  0  0  0  0  0  0  0
   -5.8000    0.3760   -1.8470 C   0  0  0  0  0  0  0  0  0  0  0  0
   -5.2600    0.9680   -2.8040 O   0  0  0  0  0  0  0  0  0  0  0  0
   -5.3340   -0.9910   -1.5290 C   0  0  2  0  0  0  0  0  0  0  0  0
   -6.0180   -1.5340   -0.4410 O   0  0  0  0  0  0  0  0  0  0  0  0
   -3.8450   -0.9290   -1.1380 C   0  0  1  0  0  0  0  0  0  0  0  0
   -2.9790   -0.2740   -2.5190 Cl  0  0  0  0  0  0  0  0  0  0  0  0
   -3.7580   -0.0980    0.0910 C   0  0  0  0  0  0  0  0  0  0  0  0
   -2.5090    0.0670    0.6180 O   0  0  0  0  0  0  0  0  0  0  0  0
   -1.4290    0.7280    0.1050 C   0  0  0  0  0  0  0  0  0  0  0  0
   -1.4840    1.3200   -1.0030 O   0  0  0  0  0  0  0  0  0  0  0  0
   -0.2060    0.7320    0.8720 N   0  0  0  0  0  0  0  0  0  0  0  0
    0.9590    1.4080    0.3840 C   0  0  0  0  0  0  0  0  0  0  0  0
    2.0420    1.3240    1.2220 O   0  0  0  0  0  0  0  0  0  0  0  0
    2.4680    0.0410    1.4690 C   0  0  2  0  0  0  0  0  0  0  0  0
    2.4990   -0.1960    2.9740 C   0  0  0  0  0  0  0  0  0  0  0  0
    3.4020    0.7570    3.4890 O   0  0  0  0  0  0  0  0  0  0  0  0
    3.9110   -0.0690    0.9940 C   0  0  0  0  0  0  0  0  0  0  0  0
    3.9220    0.2090   -0.3520 O   0  0  0  0  0  0  0  0  0  0  0  0
    5.1820    0.1450   -0.9220 C   0  0  1  0  0  0  0  0  0  0  0  0
    5.0310    0.5040   -2.3280 N   0  0  0  0  0  0  0  0  0  0  0  0
    6.0880    1.0260   -0.3700 O   0  0  0  0  0  0  0  0  0  0  0  0
    5.7310   -1.1230   -0.8860 O   0  0  0  0  0  0  0  0  0  0  0  0
  1  2  1  0
  2  3  2  0
  2  4  1  0
  4  5  1  1
  4  6  1  0
  6  7  1  6
  6  8  1  0
  8  9  1  0
  9 10  1  0
 10 11  2  0
 10 12  1  0
 12 13  1  0
 13 14  1  0
 14 15  1  0
 15 16  1  1
 15 18  1  0
 16 17  1  0
 18 19  1  0
 19 20  1  0
 20 21  1  6
 20 22  1  0
 20 23  1  0
M  END
