
     RDKit          3D

 23 22  0  0  0  0  0  0  0  0999 V2000
    7.4390    0.7780   -1.3640 N   0  0  0  0  0  0  0  0  0  0  0  0
    6.2880    1.3480   -0.9420 O   0  0  0  0  0  0  0  0  0  0  0  0
    5.3420    0.3810   -0.5550 C   0  0  0  0  0  0  0  0  0  0  0  0
    4.2170    1.0510   -0.1460 O   0  0  0  0  0  0  0  0  0  0  0  0
    3.1850    0.2490    0.2690 C   0  0  0  0  0  0  0  0  0  0  0  0
    2.0450    1.1330    0.6780 C   0  0  0  0  0  0  0  0  0  0  0  0
    0.8520    0.2650    1.1560 C   0  0  0  0  0  0  0  0  0  0  0  0
    1.2200   -0.7060    2.5400 Cl  0  0  0  0  0  0  0  0  0  0  0  0
   -0.2340    0.3760    0.4940 C   0  0  0  0  0  0  0  0  0  0  0  0
   -0.1350    1.3090   -0.5900 O   0  0  0  0  0  0  0  0  0  0  0  0
   -1.5760   -0.3030    0.6580 C   0  0  0  0  0  0  0  0  0  0  0  0
   -1.5570   -1.3240    1.5900 N   0  0  0  0  0  0  0  0  0  0  0  0
   -2.4110   -2.3490    1.9900 C   0  0  0  0  0  0  0  0  0  0  0  0
   -2.0690   -3.2560    3.0630 N   0  0  0  0  0  0  0  0  0  0  0  0
   -3.4790   -2.5170    1.4450 O   0  0  0  0  0  0  0  0  0  0  0  0
   -2.4670    0.0720   -0.1780 C   0  0  0  0  0  0  0  0  0  0  0  0
   -1.9020    1.1000   -1.1140 O   0  0  0  0  0  0  0  0  0  0  0  0
   -3.8470   -0.1750   -0.4820 C   0  0  0  0  0  0  0  0  0  0  0  0
   -4.7140   -0.9810    0.1970 O   0  0  0  0  0  0  0  0  0  0  0  0
   -4.3810    0.4680   -1.5690 C   0  0  0  0  0  0  0  0  0  0  0  0
   -3.6190    1.2950   -2.3100 O   0  0  0  0  0  0  0  0  0  0  0  0
   -5.6980    0.2380   -1.8630 O   0  0  0  0  0  0  0  0  0  0  0  0
   -6.2320    0.7300   -2.9680 O   0  0  0  0  0  0  0  0  0  0  0  0
  1  2  1  0
  2  3  1  0
  3  4  1  0
  4  5  1  0
  5  6  1  0
  6  7  1  0
  7  8  1  0
  7  9  2  3
  9 10  1  0
  9 11  1  0
 11 12  1  0
 11 16  2  3
 12 13  1  0
 13 14  1  0
 13 15  2  0
 16 17  1  0
 16 18  1  0
 18 19  1  0
 18 20  2  3
 20 21  1  0
 20 22  1  0
 22 23  1  0
M  END
