
     RDKit          3D

 17 18  0  0  0  0  0  0  0  0999 V2000
   -5.4290   -0.2250    0.7660 C   0  0  0  0  0  0  0  0  0  0  0  0
   -3.9150   -0.6040    0.6810 C   0  0  0  0  0  0  0  0  0  0  0  0
   -3.1460    0.6440    0.5110 C   0  0  0  0  0  0  0  0  0  0  0  0
   -1.6810    0.6350    0.4700 C   0  0  0  0  0  0  0  0  0  0  0  0
   -0.9170   -0.0960   -0.5400 C   0  0  1  0  0  0  0  0  0  0  0  0
   -1.0770   -1.5710   -0.5500 C   0  0  0  0  0  0  0  0  0  0  0  0
   -1.2150    0.4180   -1.8920 N   0  0  0  0  0  0  0  0  0  0  0  0
    0.5510    0.1830   -0.3240 C   0  0  0  0  0  0  0  0  0  0  0  0
    0.9670    1.4880   -0.4530 C   0  0  0  0  0  0  0  0  0  0  0  0
    2.3140    1.8090   -0.2960 C   0  0  0  0  0  0  0  0  0  0  0  0
    2.8130    3.4870   -0.4660 Cl  0  0  0  0  0  0  0  0  0  0  0  0
    3.1970    0.8000   -0.0120 C   0  0  0  0  0  0  0  0  0  0  0  0
    2.8030   -0.4960    0.1210 C   0  0  0  0  0  0  0  0  0  0  0  0
    1.4580   -0.7870   -0.0400 C   0  0  0  0  0  0  0  0  0  0  0  0
    3.9570   -1.3710    0.4100 C   0  0  0  0  0  0  0  0  0  0  0  0
    5.1230   -0.4620    0.6810 C   0  0  0  0  0  0  0  0  0  0  0  0
    4.6720    0.8750    0.1950 C   0  0  0  0  0  0  0  0  0  0  0  0
  1  2  1  0
  2  3  1  0
  3  4  1  0
  4  5  1  0
  5  6  1  6
  5  7  1  0
  5  8  1  0
  8  9  2  0
  8 14  1  0
  9 10  1  0
 10 11  1  0
 10 12  2  0
 12 13  1  0
 12 17  1  0
 13 14  2  0
 13 15  1  0
 15 16  1  0
 16 17  1  0
M  CHG  1   7   1
M  END
