
     RDKit          3D

 17 18  0  0  0  0  0  0  0  0999 V2000
    4.6820    0.2590    0.2880 C   0  0  0  0  0  0  0  0  0  0  0  0
    3.5900    0.7350   -0.6690 C   0  0  0  0  0  0  0  0  0  0  0  0
    2.4200    1.2360    0.0270 C   0  0  0  0  0  0  0  0  0  0  0  0
    1.1770    0.8800    0.0400 C   0  0  0  0  0  0  0  0  0  0  0  0
    0.5230   -0.2000   -0.6820 C   0  0  0  0  0  0  0  0  0  0  0  0
   -0.7840   -0.4540   -0.5840 C   0  0  0  0  0  0  0  0  0  0  0  0
   -1.7140    0.3140    0.2520 C   0  0  0  0  0  0  0  0  0  0  0  0
   -1.7840    1.6930    0.0450 C   0  0  0  0  0  0  0  0  0  0  0  0
   -2.5950    2.4880    0.7870 C   0  0  0  0  0  0  0  0  0  0  0  0
   -3.3680    1.9260    1.7660 C   0  0  0  0  0  0  0  0  0  0  0  0
   -4.4350    2.9410    2.7490 Cl  0  0  0  0  0  0  0  0  0  0  0  0
   -3.3180    0.5700    1.9900 C   0  0  0  0  0  0  0  0  0  0  0  0
   -2.4850   -0.2490    1.2290 C   0  0  0  0  0  0  0  0  0  0  0  0
   -2.4720   -1.6570    1.5430 N   0  0  0  0  0  0  0  0  0  0  0  0
   -1.2050   -1.5640   -1.4600 C   0  0  0  0  0  0  0  0  0  0  0  0
    0.0690   -2.1030   -2.0150 C   0  0  0  0  0  0  0  0  0  0  0  0
    1.1740   -1.1800   -1.6170 C   0  0  0  0  0  0  0  0  0  0  0  0
  1  2  1  0
  2  3  1  0
  3  4  2  3
  4  5  1  0
  5  6  2  0
  5 17  1  0
  6  7  1  0
  6 15  1  0
  7  8  2  0
  7 13  1  0
  8  9  1  0
  9 10  2  0
 10 11  1  0
 10 12  1  0
 12 13  2  0
 13 14  1  0
 15 16  1  0
 16 17  1  0
M  CHG  1  14   1
M  END
