
     RDKit          3D

 17 18  0  0  0  0  0  0  0  0999 V2000
   -4.0360    1.0870    0.7520 C   0  0  0  0  0  0  0  0  0  0  0  0
   -3.8680   -0.2230    0.0600 C   0  0  0  0  0  0  0  0  0  0  0  0
   -5.0650   -1.0030   -0.3560 C   0  0  0  0  0  0  0  0  0  0  0  0
   -2.6650   -0.7040   -0.1900 C   0  0  0  0  0  0  0  0  0  0  0  0
   -1.4820    0.0770    0.2260 C   0  0  0  0  0  0  0  0  0  0  0  0
   -0.2750   -0.3690   -0.0060 C   0  0  0  0  0  0  0  0  0  0  0  0
    0.9040    0.3520    0.3790 C   0  0  0  0  0  0  0  0  0  0  0  0
    0.8060    1.5660    1.0200 C   0  0  0  0  0  0  0  0  0  0  0  0
    1.9800    2.2200    1.3700 C   0  0  0  0  0  0  0  0  0  0  0  0
    3.1800    1.6990    1.0980 N   0  0  0  0  0  0  0  0  0  0  0  0
    3.2780    0.5040    0.4670 C   0  0  0  0  0  0  0  0  0  0  0  0
    4.5460   -0.0230    0.1920 C   0  0  0  0  0  0  0  0  0  0  0  0
    4.7150   -1.2280   -0.4440 C   0  0  0  0  0  0  0  0  0  0  0  0
    6.3080   -1.8890   -0.7880 Cl  0  0  0  0  0  0  0  0  0  0  0  0
    3.5920   -1.9290   -0.8180 C   0  0  0  0  0  0  0  0  0  0  0  0
    2.3150   -1.4180   -0.5520 C   0  0  0  0  0  0  0  0  0  0  0  0
    2.1570   -0.2090    0.0870 C   0  0  0  0  0  0  0  0  0  0  0  0
  1  2  1  0
  2  3  1  0
  2  4  2  3
  4  5  1  0
  5  6  2  3
  6  7  1  0
  7  8  2  0
  7 17  1  0
  8  9  1  0
  9 10  2  0
 10 11  1  0
 11 12  2  0
 11 17  1  0
 12 13  1  0
 13 14  1  0
 13 15  2  0
 15 16  1  0
 16 17  2  0
M  CHG  1  10   1
M  END
