
     RDKit          3D

 17 18  0  0  0  0  0  0  0  0999 V2000
   -3.1990   -1.6060    0.3340 C   0  0  0  0  0  0  0  0  0  0  0  0
   -2.1330   -0.7680   -0.3860 C   0  0  0  0  0  0  0  0  0  0  0  0
   -2.0250    0.5090    0.3290 C   0  0  0  0  0  0  0  0  0  0  0  0
   -0.9040    0.9450    0.8130 C   0  0  0  0  0  0  0  0  0  0  0  0
    0.3580    0.2640    0.7280 C   0  0  0  0  0  0  0  0  0  0  0  0
    1.3330    0.9040   -0.0650 C   0  0  0  0  0  0  0  0  0  0  0  0
    2.5910    0.3520   -0.1650 C   0  0  0  0  0  0  0  0  0  0  0  0
    3.5720    0.9500   -0.9300 C   0  0  0  0  0  0  0  0  0  0  0  0
    4.8470    0.4230   -1.0500 C   0  0  0  0  0  0  0  0  0  0  0  0
    5.1120   -0.7320   -0.3750 C   0  0  0  0  0  0  0  0  0  0  0  0
    4.1360   -1.3430    0.3980 C   0  0  0  0  0  0  0  0  0  0  0  0
    2.8630   -0.8170    0.5180 C   0  0  0  0  0  0  0  0  0  0  0  0
    1.9020   -1.4400    1.2960 C   0  0  0  0  0  0  0  0  0  0  0  0
    0.6260   -0.8800    1.3980 C   0  0  0  0  0  0  0  0  0  0  0  0
   -0.4930   -1.6970    2.4460 Cl  0  0  0  0  0  0  0  0  0  0  0  0
   -3.2780    1.3270    0.5030 C   0  0  0  0  0  0  0  0  0  0  0  0
   -3.8660    1.7140   -0.7470 N   0  0  0  0  0  0  0  0  0  0  0  0
  1  2  1  0
  2  3  1  0
  3  4  2  3
  3 16  1  0
  4  5  1  0
  5  6  2  0
  5 14  1  0
  6  7  1  0
  7  8  2  0
  7 12  1  0
  8  9  1  0
  9 10  2  0
 10 11  1  0
 11 12  2  0
 12 13  1  0
 13 14  2  0
 14 15  1  0
 16 17  1  0
M  CHG  1  17   1
M  END
