
     RDKit          3D

 17 18  0  0  0  0  0  0  0  0999 V2000
   -2.8730    2.3510    0.6790 C   0  0  0  0  0  0  0  0  0  0  0  0
   -2.8040    0.9510    0.3720 N   0  0  0  0  0  0  0  0  0  0  0  0
   -2.0710    0.4880   -0.8230 C   0  0  0  0  0  0  0  0  0  0  0  0
   -1.1230   -0.5780   -0.5570 C   0  0  0  0  0  0  0  0  0  0  0  0
   -1.5240   -1.8920   -0.8620 C   0  0  0  0  0  0  0  0  0  0  0  0
   -2.9000   -2.2040   -1.2310 C   0  0  0  0  0  0  0  0  0  0  0  0
   -4.0010   -2.2740    0.2140 Cl  0  0  0  0  0  0  0  0  0  0  0  0
   -0.6260   -2.9250   -0.7940 C   0  0  0  0  0  0  0  0  0  0  0  0
    0.6860   -2.7240   -0.4340 C   0  0  0  0  0  0  0  0  0  0  0  0
    1.0870   -1.4420   -0.1410 C   0  0  0  0  0  0  0  0  0  0  0  0
    2.4600   -1.2990    0.1340 C   0  0  0  0  0  0  0  0  0  0  0  0
    2.9550   -0.0080    0.3480 C   0  0  0  0  0  0  0  0  0  0  0  0
    4.4230    0.1690    0.6330 C   0  0  0  0  0  0  0  0  0  0  0  0
    2.1070    1.0330    0.2810 C   0  0  0  0  0  0  0  0  0  0  0  0
    2.6220    2.4030    0.3940 C   0  0  0  0  0  0  0  0  0  0  0  0
    0.7530    0.8870    0.0190 C   0  0  0  0  0  0  0  0  0  0  0  0
    0.2000   -0.3670   -0.2000 C   0  0  0  0  0  0  0  0  0  0  0  0
  1  2  1  0
  2  3  1  0
  3  4  1  0
  4  5  2  0
  4 17  1  0
  5  6  1  0
  5  8  1  0
  6  7  1  0
  8  9  2  0
  9 10  1  0
 10 11  2  0
 10 17  1  0
 11 12  1  0
 12 13  1  0
 12 14  2  0
 14 15  1  0
 14 16  1  0
 16 17  2  0
M  CHG  1   2   1
M  END
