
     RDKit          3D

 22 22  0  0  0  0  0  0  0  0999 V2000
    0.4500   -3.7530    1.5640 O   0  0  0  0  0  0  0  0  0  0  0  0
    0.8640   -3.0610    0.5580 C   0  0  0  0  0  0  0  0  0  0  0  0
    0.1950   -3.3180   -0.6600 N   0  0  0  0  0  0  0  0  0  0  0  0
   -0.3520   -2.3820   -1.5760 C   0  0  0  0  0  0  0  0  0  0  0  0
    0.0840   -2.4710   -2.7880 O   0  0  0  0  0  0  0  0  0  0  0  0
   -1.2960   -1.4080   -1.2560 O   0  0  0  0  0  0  0  0  0  0  0  0
   -2.3040   -1.4810   -0.3210 C   0  0  0  0  0  0  0  0  0  0  0  0
   -2.3860   -0.3030    0.5830 C   0  0  0  0  0  0  0  0  0  0  0  0
   -3.0540   -0.3440    1.6050 O   0  0  0  0  0  0  0  0  0  0  0  0
   -1.6790    0.9890    0.3200 C   0  0  2  0  0  0  0  0  0  0  0  0
   -2.7680    2.0380    0.1020 C   0  0  0  0  0  0  0  0  0  0  0  0
   -3.6130    2.0470    1.2240 O   0  0  0  0  0  0  0  0  0  0  0  0
   -4.5560    2.9340    1.0690 O   0  0  0  0  0  0  0  0  0  0  0  0
   -0.8250    0.9730   -0.8030 N   0  0  0  0  0  0  0  0  0  0  0  0
    0.4290    0.6100   -0.6400 O   0  0  0  0  0  0  0  0  0  0  0  0
    0.8090    0.1480    0.5870 C   0  0  0  0  0  0  0  0  0  0  0  0
    1.9750   -0.7750    0.5090 C   0  0  0  0  0  0  0  0  0  0  0  0
    3.1190   -0.2730    0.1220 C   0  0  0  0  0  0  0  0  0  0  0  0
    3.2600    1.1480   -0.2260 C   0  0  0  0  0  0  0  0  0  0  0  0
    4.2150    1.7800    0.6100 O   0  0  0  0  0  0  0  0  0  0  0  0
    4.3470    3.0350    0.3120 O   0  0  0  0  0  0  0  0  0  0  0  0
    1.9100   -2.1690    0.8470 N   0  0  0  0  0  0  0  0  0  0  0  0
  1  2  2  0
  2  3  1  0
  2 22  1  0
  3  4  1  0
  4  5  2  0
  4  6  1  0
  6  7  1  0
  7  8  1  0
  8  9  2  0
  8 10  1  0
 10 11  1  6
 10 14  1  0
 11 12  1  0
 12 13  1  0
 14 15  1  0
 15 16  1  0
 16 17  1  0
 17 18  2  3
 17 22  1  0
 18 19  1  0
 19 20  1  0
 20 21  1  0
M  END
