
     RDKit          3D

 22 22  0  0  0  0  0  0  0  0999 V2000
    0.8450   -1.2550   -0.8970 N   0  0  0  0  0  0  0  0  0  0  0  0
    0.4170   -0.0740   -0.7330 C   0  0  0  0  0  0  0  0  0  0  0  0
    1.4220    0.9150   -0.9080 O   0  0  0  0  0  0  0  0  0  0  0  0
    2.7260    0.5910   -1.1110 O   0  0  0  0  0  0  0  0  0  0  0  0
    3.6080    0.2200   -0.1350 C   0  0  0  0  0  0  0  0  0  0  0  0
    3.1730    0.1740    1.0590 O   0  0  0  0  0  0  0  0  0  0  0  0
    4.9470   -0.0980   -0.4520 N   0  0  0  0  0  0  0  0  0  0  0  0
    5.8620   -0.4850    0.5690 C   0  0  0  0  0  0  0  0  0  0  0  0
    7.2110   -0.8120    0.2990 N   0  0  0  0  0  0  0  0  0  0  0  0
    5.4020   -0.5220    1.7550 O   0  0  0  0  0  0  0  0  0  0  0  0
   -0.9380    0.3420   -0.3990 C   0  0  0  0  0  0  0  0  0  0  0  0
   -2.0010   -0.3930   -0.1950 C   0  0  0  0  0  0  0  0  0  0  0  0
   -2.1430   -1.8280   -0.2410 C   0  0  0  0  0  0  0  0  0  0  0  0
   -1.1890   -2.5780   -0.4960 O   0  0  0  0  0  0  0  0  0  0  0  0
   -3.3610   -2.4320   -0.0010 O   0  0  0  0  0  0  0  0  0  0  0  0
   -3.1660    0.5040    0.1180 C   0  0  0  0  0  0  0  0  0  0  0  0
   -4.2440    0.2070    0.7920 C   0  0  0  0  0  0  0  0  0  0  0  0
   -5.3080    1.1340    1.0380 C   0  0  0  0  0  0  0  0  0  0  0  0
   -6.3140    0.7460    1.7100 O   0  0  0  0  0  0  0  0  0  0  0  0
   -5.2970    2.4170    0.5830 O   0  0  0  0  0  0  0  0  0  0  0  0
   -2.7450    1.7890   -0.5150 C   0  0  0  0  0  0  0  0  0  0  0  0
   -1.3350    1.6900   -0.2330 O   0  0  0  0  0  0  0  0  0  0  0  0
  1  2  2  0
  2  3  1  0
  2 11  1  0
  3  4  1  0
  4  5  1  0
  5  6  2  0
  5  7  1  0
  7  8  1  0
  8  9  1  0
  8 10  2  0
 11 12  2  0
 11 22  1  0
 12 13  1  0
 12 16  1  0
 13 14  2  0
 13 15  1  0
 16 17  2  3
 16 21  1  0
 17 18  1  0
 18 19  2  0
 18 20  1  0
 21 22  1  0
M  END
