
     RDKit          3D

 22 22  0  0  0  0  0  0  0  0999 V2000
    2.7390    2.2060   -0.7210 O   0  0  0  0  0  0  0  0  0  0  0  0
    3.3980    1.2240   -1.1340 C   0  0  0  0  0  0  0  0  0  0  0  0
    4.7670    1.2140   -1.0280 O   0  0  0  0  0  0  0  0  0  0  0  0
    2.6850    0.0800   -1.7340 C   0  0  0  0  0  0  0  0  0  0  0  0
    1.9640   -0.6810   -0.6420 C   0  0  2  0  0  0  0  0  0  0  0  0
    1.1940   -1.8700   -1.1880 C   0  0  0  0  0  0  0  0  0  0  0  0
    0.7070   -2.6000   -0.0440 N   0  0  0  0  0  0  0  0  0  0  0  0
    0.8710   -2.0120    1.2350 C   0  0  0  0  0  0  0  0  0  0  0  0
    0.9530   -2.7500    2.2650 O   0  0  0  0  0  0  0  0  0  0  0  0
    0.9430   -0.6150    1.3750 O   0  0  0  0  0  0  0  0  0  0  0  0
    1.1930    0.1570    0.2380 N   0  0  0  0  0  0  0  0  0  0  0  0
   -0.1230    0.3600   -0.3840 C   0  0  0  0  0  0  0  0  0  0  0  0
   -0.9400    1.3320    0.4320 C   0  0  1  0  0  0  0  0  0  0  0  0
   -1.6270    0.8760    1.5350 N   0  0  0  0  0  0  0  0  0  0  0  0
   -2.7500    0.0830    1.5540 C   0  0  0  0  0  0  0  0  0  0  0  0
   -2.6470   -1.3140    1.0890 C   0  0  0  0  0  0  0  0  0  0  0  0
   -3.9580   -1.9130    1.2430 O   0  0  0  0  0  0  0  0  0  0  0  0
   -3.7990   -3.1450    0.8040 O   0  0  0  0  0  0  0  0  0  0  0  0
   -0.2700    2.5730    0.5540 O   0  0  0  0  0  0  0  0  0  0  0  0
   -0.5730    3.7070   -0.1510 C   0  0  0  0  0  0  0  0  0  0  0  0
   -1.5540    3.5830   -0.9790 O   0  0  0  0  0  0  0  0  0  0  0  0
    0.0760    4.9240   -0.0370 O   0  0  0  0  0  0  0  0  0  0  0  0
  1  2  2  0
  2  3  1  0
  2  4  1  0
  5  4  1  6
  5  6  1  0
  5 11  1  0
  6  7  1  0
  7  8  1  0
  8  9  2  0
  8 10  1  0
 10 11  1  0
 11 12  1  0
 13 12  1  1
 13 14  1  0
 13 19  1  0
 14 15  1  0
 15 16  1  0
 16 17  1  0
 17 18  1  0
 19 20  1  0
 20 21  2  0
 20 22  1  0
M  END
