
     RDKit          3D

 22 22  0  0  0  0  0  0  0  0999 V2000
    2.6660   -1.5610   -0.0820 O   0  0  0  0  0  0  0  0  0  0  0  0
    2.7220   -0.5210    0.5890 C   0  0  0  0  0  0  0  0  0  0  0  0
    3.9590    0.1280    0.7790 N   0  0  0  0  0  0  0  0  0  0  0  0
    5.1390   -0.4820    0.2610 C   0  0  0  0  0  0  0  0  0  0  0  0
    6.3360    0.5510    0.2960 C   0  0  0  0  0  0  0  0  0  0  0  0
    6.2780    0.9280    1.6070 O   0  0  0  0  0  0  0  0  0  0  0  0
    7.4400    0.7430    2.2160 O   0  0  0  0  0  0  0  0  0  0  0  0
    1.5440    0.0470    1.1630 O   0  0  0  0  0  0  0  0  0  0  0  0
    0.3420   -0.6400    0.6530 C   0  0  0  0  0  0  0  0  0  0  0  0
    0.3260    0.1030   -0.7200 C   0  0  0  0  0  0  0  0  0  0  0  0
   -0.7320   -0.2240   -1.6050 N   0  0  0  0  0  0  0  0  0  0  0  0
   -2.1140   -0.0200   -1.2070 C   0  0  0  0  0  0  0  0  0  0  0  0
   -2.3630    0.4520   -0.1190 O   0  0  0  0  0  0  0  0  0  0  0  0
   -3.1100   -0.4210   -2.1530 O   0  0  0  0  0  0  0  0  0  0  0  0
   -4.4690   -0.1160   -1.6270 C   0  0  1  0  0  0  0  0  0  0  0  0
   -4.6320   -0.8600   -0.4340 N   0  0  0  0  0  0  0  0  0  0  0  0
   -5.5660   -0.4160    0.3780 C   0  0  0  0  0  0  0  0  0  0  0  0
   -5.7550   -1.1070    1.5650 O   0  0  0  0  0  0  0  0  0  0  0  0
   -6.3810    0.7540    0.0260 C   0  0  0  0  0  0  0  0  0  0  0  0
   -5.5320    1.7690   -0.5080 O   0  0  0  0  0  0  0  0  0  0  0  0
   -4.3830    1.3450   -1.1980 C   0  0  0  0  0  0  0  0  0  0  0  0
   -3.4130    2.1090   -1.4250 O   0  0  0  0  0  0  0  0  0  0  0  0
  1  2  2  0
  2  3  1  0
  2  8  1  0
  3  4  1  0
  4  5  1  0
  5  6  1  0
  6  7  1  0
  8  9  1  0
  9 10  1  0
 10 11  1  0
 11 12  1  0
 12 13  2  0
 12 14  1  0
 15 14  1  1
 15 16  1  0
 15 21  1  0
 16 17  2  0
 17 18  1  0
 17 19  1  0
 19 20  1  0
 20 21  1  0
 21 22  2  0
M  END
