
     RDKit          3D

 22 23  0  0  0  0  0  0  0  0999 V2000
    4.0880    0.6700    1.3770 O   0  0  0  0  0  0  0  0  0  0  0  0
    4.0840    0.0690    0.2720 C   0  0  0  0  0  0  0  0  0  0  0  0
    5.2950   -0.4190   -0.4220 C   0  0  0  0  0  0  0  0  0  0  0  0
    6.4110   -0.1110    0.3280 O   0  0  0  0  0  0  0  0  0  0  0  0
    7.5090   -0.5220   -0.2460 O   0  0  0  0  0  0  0  0  0  0  0  0
    2.8510   -0.1460   -0.3270 O   0  0  0  0  0  0  0  0  0  0  0  0
    1.6350    0.2840    0.2610 C   0  0  0  0  0  0  0  0  0  0  0  0
    0.5250   -0.1460   -0.7130 C   0  0  1  0  0  0  0  0  0  0  0  0
    0.6080   -1.5470   -0.8210 O   0  0  0  0  0  0  0  0  0  0  0  0
    0.1670   -2.3290    0.2230 C   0  0  0  0  0  0  0  0  0  0  0  0
    0.7670   -3.3830    0.5350 O   0  0  0  0  0  0  0  0  0  0  0  0
   -0.9930   -1.8670    0.9090 N   0  0  0  0  0  0  0  0  0  0  0  0
   -1.6150   -0.6460    0.4800 C   0  0  0  0  0  0  0  0  0  0  0  0
   -2.8570   -0.5620    0.7530 N   0  0  0  0  0  0  0  0  0  0  0  0
   -3.8220    0.4750    0.4990 C   0  0  0  0  0  0  0  0  0  0  0  0
   -4.7300    0.6650    1.4040 N   0  0  0  0  0  0  0  0  0  0  0  0
   -5.6450    1.6560    1.1510 O   0  0  0  0  0  0  0  0  0  0  0  0
   -6.8370    1.3510    0.5980 O   0  0  0  0  0  0  0  0  0  0  0  0
   -3.8350    1.3220   -0.7220 C   0  0  0  0  0  0  0  0  0  0  0  0
   -2.5530    1.8390   -0.8880 O   0  0  0  0  0  0  0  0  0  0  0  0
   -1.6460    0.8860   -1.3680 C   0  0  0  0  0  0  0  0  0  0  0  0
   -0.7800    0.3620   -0.2170 C   0  0  2  0  0  0  0  0  0  0  0  0
  1  2  2  0
  2  3  1  0
  2  6  1  0
  3  4  1  0
  4  5  1  0
  6  7  1  0
  8  7  1  1
  8  9  1  0
  8 22  1  0
  9 10  1  0
 10 11  2  0
 10 12  1  0
 12 13  1  0
 13 14  2  0
 13 22  1  0
 14 15  1  0
 15 16  2  3
 15 19  1  0
 16 17  1  0
 17 18  1  0
 19 20  1  0
 20 21  1  0
 22 21  1  6
M  END
