
     RDKit          3D

 22 23  0  0  0  0  0  0  0  0999 V2000
   -4.4350    3.1180    1.4980 O   0  0  0  0  0  0  0  0  0  0  0  0
   -3.4850    3.6310    0.8230 C   0  0  0  0  0  0  0  0  0  0  0  0
   -3.6110    4.8940    0.2710 O   0  0  0  0  0  0  0  0  0  0  0  0
   -2.3480    2.8350    0.6950 O   0  0  0  0  0  0  0  0  0  0  0  0
   -2.2870    1.6040    1.2610 O   0  0  0  0  0  0  0  0  0  0  0  0
   -1.4270    0.6100    0.8020 C   0  0  0  0  0  0  0  0  0  0  0  0
   -1.3900   -0.6050    1.3740 N   0  0  0  0  0  0  0  0  0  0  0  0
   -0.5590   -1.5720    0.9350 C   0  0  0  0  0  0  0  0  0  0  0  0
    0.2870   -1.3410   -0.1270 C   0  0  0  0  0  0  0  0  0  0  0  0
    0.2500   -0.0930   -0.7160 C   0  0  0  0  0  0  0  0  0  0  0  0
    1.1150    0.0960   -1.7790 O   0  0  0  0  0  0  0  0  0  0  0  0
    1.1280    1.3500   -2.4250 C   0  0  0  0  0  0  0  0  0  0  0  0
    1.5000    2.4910   -1.5100 C   0  0  0  0  0  0  0  0  0  0  0  0
    2.7820    2.2110   -1.0270 O   0  0  0  0  0  0  0  0  0  0  0  0
    3.2130    3.1460   -0.2130 O   0  0  0  0  0  0  0  0  0  0  0  0
   -0.6000    0.8320   -0.2350 N   0  0  0  0  0  0  0  0  0  0  0  0
    1.2020   -2.2270   -0.7010 O   0  0  0  0  0  0  0  0  0  0  0  0
    1.6960   -3.4370   -0.1880 C   0  0  0  0  0  0  0  0  0  0  0  0
    2.4810   -4.0640   -0.9390 O   0  0  0  0  0  0  0  0  0  0  0  0
    1.3840   -4.0320    1.1310 C   0  0  0  0  0  0  0  0  0  0  0  0
   -0.0960   -4.0840    1.3750 C   0  0  0  0  0  0  0  0  0  0  0  0
   -0.6730   -2.7840    1.6720 N   0  0  0  0  0  0  0  0  0  0  0  0
  1  2  2  0
  2  3  1  0
  2  4  1  0
  4  5  1  0
  5  6  1  0
  6  7  2  0
  6 16  1  0
  7  8  1  0
  8  9  2  0
  8 22  1  0
  9 10  1  0
  9 17  1  0
 10 11  1  0
 10 16  2  0
 11 12  1  0
 12 13  1  0
 13 14  1  0
 14 15  1  0
 17 18  1  0
 18 19  2  0
 18 20  1  0
 20 21  1  0
 21 22  1  0
M  END
