
     RDKit          3D

 22 24  0  0  0  0  0  0  0  0999 V2000
   -7.5010    0.4710    1.5990 O   0  0  0  0  0  0  0  0  0  0  0  0
   -6.3570    0.1310    1.1980 C   0  0  0  0  0  0  0  0  0  0  0  0
   -5.7610   -1.1390    1.3240 N   0  0  0  0  0  0  0  0  0  0  0  0
   -4.5730   -1.1470    0.8010 C   0  0  0  0  0  0  0  0  0  0  0  0
   -3.4900   -1.9120    0.5580 N   0  0  0  0  0  0  0  0  0  0  0  0
   -2.5410   -1.2040   -0.0780 C   0  0  0  0  0  0  0  0  0  0  0  0
   -3.0620    0.0560   -0.2340 C   0  0  0  0  0  0  0  0  0  0  0  0
   -4.3360    0.1230    0.3080 C   0  0  0  0  0  0  0  0  0  0  0  0
   -5.4480    0.9390    0.5490 O   0  0  0  0  0  0  0  0  0  0  0  0
   -2.2400    1.0850   -0.9040 C   0  0  0  0  0  0  0  0  0  0  0  0
   -1.4630    0.4650   -1.8710 O   0  0  0  0  0  0  0  0  0  0  0  0
   -0.5720   -0.4050   -1.1930 C   0  0  1  0  0  0  0  0  0  0  0  0
    0.1180    0.3990   -0.2600 O   0  0  0  0  0  0  0  0  0  0  0  0
    1.5060    0.5200   -0.4110 C   0  0  0  0  0  0  0  0  0  0  0  0
    2.0780   -0.0800   -1.3530 O   0  0  0  0  0  0  0  0  0  0  0  0
    2.2740    1.2810    0.4450 O   0  0  0  0  0  0  0  0  0  0  0  0
    3.6710    1.4530    0.3670 C   0  0  0  0  0  0  0  0  0  0  0  0
    4.3250    0.1030    0.5240 C   0  0  0  0  0  0  0  0  0  0  0  0
    5.7240    0.3070    0.4430 O   0  0  0  0  0  0  0  0  0  0  0  0
    6.3270   -0.8570    0.5770 O   0  0  0  0  0  0  0  0  0  0  0  0
    6.8680   -1.2520   -0.5610 O   0  0  0  0  0  0  0  0  0  0  0  0
   -1.3500   -1.4560   -0.5250 N   0  0  0  0  0  0  0  0  0  0  0  0
  1  2  2  0
  2  3  1  0
  2  9  1  0
  3  4  2  0
  4  5  1  0
  4  8  1  0
  5  6  1  0
  6  7  1  0
  6 22  2  0
  7  8  2  0
  7 10  1  0
  8  9  1  0
 10 11  1  0
 11 12  1  0
 12 13  1  1
 12 22  1  0
 13 14  1  0
 14 15  2  0
 14 16  1  0
 16 17  1  0
 17 18  1  0
 18 19  1  0
 19 20  1  0
 20 21  1  0
M  END
