
     RDKit          3D

 14 14  0  0  0  0  0  0  0  0999 V2000
   -1.6490   -1.4100    0.4890 C   0  0  0  0  0  0  0  0  0  0  0  0
   -0.4060   -0.5580    0.1810 C   0  0  2  0  0  0  0  0  0  0  0  0
    0.7570   -1.3860    0.6710 C   0  0  0  0  0  0  0  0  0  0  0  0
    2.0520   -0.7550    0.4640 C   0  0  0  0  0  0  0  0  0  0  0  0
    2.8920   -1.2220   -0.3530 O   0  0  0  0  0  0  0  0  0  0  0  0
    2.4600    0.3970    1.1400 O   0  0  0  0  0  0  0  0  0  0  0  0
    3.6470    0.9570    0.9320 O   0  0  0  0  0  0  0  0  0  0  0  0
    3.6780    1.6060   -0.2160 O   0  0  0  0  0  0  0  0  0  0  0  0
   -0.5030    0.6100    0.9330 O   0  0  0  0  0  0  0  0  0  0  0  0
   -1.7040    1.2560    0.6670 C   0  0  0  0  0  0  0  0  0  0  0  0
   -1.8090    1.4600   -0.8010 C   0  0  0  0  0  0  0  0  0  0  0  0
   -2.4850    2.3880   -1.2920 O   0  0  0  0  0  0  0  0  0  0  0  0
   -1.1310    0.5880   -1.6230 O   0  0  0  0  0  0  0  0  0  0  0  0
   -0.3030   -0.3580   -1.1690 O   0  0  0  0  0  0  0  0  0  0  0  0
  2  1  1  6
  2  3  1  0
  2  9  1  0
  2 14  1  0
  3  4  1  0
  4  5  2  0
  4  6  1  0
  6  7  1  0
  7  8  1  0
  9 10  1  0
 10 11  1  0
 11 12  2  0
 11 13  1  0
 13 14  1  0
M  END
