
     RDKit          3D

 14 14  0  0  0  0  0  0  0  0999 V2000
    3.6430   -0.1160    1.8970 O   0  0  0  0  0  0  0  0  0  0  0  0
    3.1540    0.1680    0.7980 C   0  0  0  0  0  0  0  0  0  0  0  0
    3.8400    0.5450   -0.3440 O   0  0  0  0  0  0  0  0  0  0  0  0
    2.9880    1.2580   -1.1630 O   0  0  0  0  0  0  0  0  0  0  0  0
    1.7450    1.3480   -0.5610 C   0  0  0  0  0  0  0  0  0  0  0  0
    0.8380    2.1910   -0.7390 O   0  0  0  0  0  0  0  0  0  0  0  0
    1.7040    0.1880    0.3850 C   0  0  1  0  0  0  0  0  0  0  0  0
    1.4720   -0.9970   -0.2530 O   0  0  0  0  0  0  0  0  0  0  0  0
    0.4240   -1.6730    0.3360 C   0  0  0  0  0  0  0  0  0  0  0  0
   -0.8820   -0.9550    0.2790 C   0  0  0  0  0  0  0  0  0  0  0  0
   -1.2210   -0.7420   -1.0790 O   0  0  0  0  0  0  0  0  0  0  0  0
   -2.4590   -0.0630   -1.0360 C   0  0  0  0  0  0  0  0  0  0  0  0
   -2.1900    1.1260   -0.3220 O   0  0  0  0  0  0  0  0  0  0  0  0
   -3.2800    1.8510   -0.2160 O   0  0  0  0  0  0  0  0  0  0  0  0
  1  2  2  0
  2  3  1  0
  2  7  1  0
  3  4  1  0
  4  5  1  0
  5  6  2  0
  5  7  1  0
  7  8  1  6
  8  9  1  0
  9 10  1  0
 10 11  1  0
 11 12  1  0
 12 13  1  0
 13 14  1  0
M  END
