
     RDKit          3D

 14 14  0  0  0  0  0  0  0  0999 V2000
   -1.4800   -1.9040    1.9810 O   0  0  0  0  0  0  0  0  0  0  0  0
   -0.8980   -1.3980    1.0090 C   0  0  0  0  0  0  0  0  0  0  0  0
    0.4650   -1.3680    0.8850 O   0  0  0  0  0  0  0  0  0  0  0  0
    1.1710   -1.2280   -0.3450 C   0  0  2  0  0  0  0  0  0  0  0  0
    2.3030   -0.2640   -0.0750 C   0  0  0  0  0  0  0  0  0  0  0  0
    1.8760    1.0490   -0.1660 O   0  0  0  0  0  0  0  0  0  0  0  0
    2.7990    1.8890    0.1320 O   0  0  0  0  0  0  0  0  0  0  0  0
    3.2800    2.5150   -0.8920 O   0  0  0  0  0  0  0  0  0  0  0  0
    0.2230   -0.5150   -1.3260 C   0  0  0  0  0  0  0  0  0  0  0  0
   -1.0540   -1.0290   -1.2770 O   0  0  0  0  0  0  0  0  0  0  0  0
   -1.6760   -0.8410   -0.0820 C   0  0  2  0  0  0  0  0  0  0  0  0
   -2.0190    0.6640    0.1210 C   0  0  0  0  0  0  0  0  0  0  0  0
   -2.8220    0.6400    1.2740 O   0  0  0  0  0  0  0  0  0  0  0  0
   -4.0240    1.0660    1.0260 O   0  0  0  0  0  0  0  0  0  0  0  0
  1  2  2  0
  2  3  1  0
  2 11  1  0
  3  4  1  0
  4  5  1  1
  4  9  1  0
  5  6  1  0
  6  7  1  0
  7  8  1  0
  9 10  1  0
 10 11  1  0
 11 12  1  1
 12 13  1  0
 13 14  1  0
M  END
