
     RDKit          3D

 10  9  0  0  0  0  0  0  0  0999 V2000
   -3.3680    1.3310    1.0760 O   0  0  0  0  0  0  0  0  0  0  0  0
   -2.7570    0.1780    0.5680 C   0  0  0  0  0  0  0  0  0  0  0  0
   -1.4860    0.6210   -0.1270 C   0  0  0  0  0  0  0  0  0  0  0  0
   -0.7930   -0.4560   -0.6740 O   0  0  0  0  0  0  0  0  0  0  0  0
    0.2850    0.0280   -1.2490 O   0  0  0  0  0  0  0  0  0  0  0  0
    1.2940   -0.9060   -1.2460 C   0  0  1  0  0  0  0  0  0  0  0  0
    1.7380   -1.1610   -2.5540 O   0  0  0  0  0  0  0  0  0  0  0  0
    2.7110   -0.2590   -0.2180 P   0  0  0  0  0  0  0  0  0  0  0  0
    2.2090    1.1650    0.6320 O   0  0  0  0  0  0  0  0  0  0  0  0
    3.2870   -1.4810    0.8530 O   0  0  0  0  0  0  0  0  0  0  0  0
  1  2  1  0
  2  3  1  0
  3  4  1  0
  4  5  1  0
  5  6  1  0
  6  7  1  6
  6  8  1  0
  8  9  1  0
  8 10  1  0
M  END
