
     RDKit          3D

 14 14  0  0  0  0  0  0  0  0999 V2000
   -2.3800    0.9530   -0.8300 O   0  0  0  0  0  0  0  0  0  0  0  0
   -1.2990    1.0160   -0.2330 C   0  0  0  0  0  0  0  0  0  0  0  0
   -0.7170    2.2030    0.0480 O   0  0  0  0  0  0  0  0  0  0  0  0
   -1.1540    3.3680   -0.2910 O   0  0  0  0  0  0  0  0  0  0  0  0
   -0.6440   -0.3300    0.1760 C   0  0  1  0  0  0  0  0  0  0  0  0
    0.5060    0.0050    0.8240 O   0  0  0  0  0  0  0  0  0  0  0  0
    1.4860    0.5890    0.1380 C   0  0  0  0  0  0  0  0  0  0  0  0
    2.5870   -0.1690   -0.5220 C   0  0  0  0  0  0  0  0  0  0  0  0
    3.2570   -0.7750    0.5490 O   0  0  0  0  0  0  0  0  0  0  0  0
    4.4640   -0.1160    0.5850 O   0  0  0  0  0  0  0  0  0  0  0  0
   -1.5330   -0.8690    1.1210 O   0  0  0  0  0  0  0  0  0  0  0  0
   -2.5180   -1.4960    0.3350 C   0  0  0  0  0  0  0  0  0  0  0  0
   -1.8880   -1.6980   -1.0220 C   0  0  0  0  0  0  0  0  0  0  0  0
   -0.6110   -1.1370   -0.8930 O   0  0  0  0  0  0  0  0  0  0  0  0
  1  2  2  0
  2  3  1  0
  2  5  1  0
  3  4  1  0
  5  6  1  1
  5 11  1  0
  5 14  1  0
  6  7  1  0
  7  8  1  0
  8  9  1  0
  9 10  1  0
 11 12  1  0
 12 13  1  0
 13 14  1  0
M  END
