
     RDKit          3D

 12 11  0  0  0  0  0  0  0  0999 V2000
   -2.8350    0.8830   -1.7380 O   0  0  0  0  0  0  0  0  0  0  0  0
   -2.7780   -0.4210   -1.2240 C   0  0  0  0  0  0  0  0  0  0  0  0
   -2.1580   -0.2950    0.1840 C   0  0  2  0  0  0  0  0  0  0  0  0
   -2.9780    0.5490    0.9000 O   0  0  0  0  0  0  0  0  0  0  0  0
   -0.7590    0.2760   -0.0500 C   0  0  2  0  0  0  0  0  0  0  0  0
   -0.5710    0.6380   -1.3450 O   0  0  0  0  0  0  0  0  0  0  0  0
    0.2170   -0.7470    0.5040 C   0  0  0  0  0  0  0  0  0  0  0  0
    1.4370   -0.5700   -0.1180 O   0  0  0  0  0  0  0  0  0  0  0  0
    2.6950   -0.0020    0.7180 P   0  0  0  0  0  0  0  0  0  0  0  0
    2.5780    1.4800    1.4310 O   0  0  0  0  0  0  0  0  0  0  0  0
    3.3280    0.5330   -0.5760 O   0  0  0  0  0  0  0  0  0  0  0  0
    4.1000   -0.8770    0.9790 O   0  0  0  0  0  0  0  0  0  0  0  0
  1  2  1  0
  2  3  1  0
  3  4  1  1
  3  5  1  0
  5  6  1  6
  5  7  1  0
  7  8  1  0
  8  9  1  0
  9 10  1  0
  9 11  1  0
  9 12  1  0
M  END
