
     RDKit          3D

 10  9  0  0  0  0  0  0  0  0999 V2000
    1.0930   -0.9340   -1.4540 O   0  0  0  0  0  0  0  0  0  0  0  0
    1.6270   -0.1650   -0.6150 C   0  0  0  0  0  0  0  0  0  0  0  0
    3.0830   -0.2930   -0.3830 C   0  0  0  0  0  0  0  0  0  0  0  0
    3.5540    0.5990    0.5530 O   0  0  0  0  0  0  0  0  0  0  0  0
    0.8960    0.7850    0.0870 O   0  0  0  0  0  0  0  0  0  0  0  0
   -0.4060    0.8690   -0.1480 O   0  0  0  0  0  0  0  0  0  0  0  0
   -1.1090   -0.1710    0.4570 C   0  0  0  0  0  0  0  0  0  0  0  0
   -2.8670   -0.0010    0.1010 P   0  0  0  0  0  0  0  0  0  0  0  0
   -3.4470    1.5280   -0.2990 O   0  0  0  0  0  0  0  0  0  0  0  0
   -3.9240   -1.1440    0.6850 O   0  0  0  0  0  0  0  0  0  0  0  0
  1  2  2  0
  2  3  1  0
  2  5  1  0
  3  4  1  0
  5  6  1  0
  6  7  1  0
  7  8  1  0
  8  9  1  0
  8 10  1  0
M  END
