
     RDKit          3D

 10  9  0  0  0  0  0  0  0  0999 V2000
   -3.6090    0.2970    0.3780 O   0  0  0  0  0  0  0  0  0  0  0  0
   -2.6080   -0.0410   -0.5200 C   0  0  0  0  0  0  0  0  0  0  0  0
   -1.3500    0.6750   -0.1190 C   0  0  2  0  0  0  0  0  0  0  0  0
   -1.6270    2.0500   -0.1640 O   0  0  0  0  0  0  0  0  0  0  0  0
   -0.2880    0.4280   -0.9650 O   0  0  0  0  0  0  0  0  0  0  0  0
    0.8160   -0.0910   -0.3120 C   0  0  0  0  0  0  0  0  0  0  0  0
    1.8180   -0.2970   -1.2720 O   0  0  0  0  0  0  0  0  0  0  0  0
    3.2590   -0.9440   -0.5980 P   0  0  0  0  0  0  0  0  0  0  0  0
    2.9900   -2.1860    0.5490 O   0  0  0  0  0  0  0  0  0  0  0  0
    4.3170    0.2970   -0.0160 O   0  0  0  0  0  0  0  0  0  0  0  0
  1  2  1  0
  2  3  1  0
  3  4  1  6
  3  5  1  0
  5  6  1  0
  6  7  1  0
  7  8  1  0
  8  9  1  0
  8 10  1  0
M  END
