
     RDKit          3D

 28 29  0  0  0  0  0  0  0  0999 V2000
   -0.0210   -2.0730    1.2470 C   0  0  0  0  0  0  0  0  0  0  0  0
   -0.9070   -0.9080    0.9660 C   0  0  1  0  0  0  0  0  0  0  0  0
   -0.4600    0.0390   -0.0910 C   0  0  0  0  0  0  0  0  0  0  0  0
    0.7490    0.7400    0.0370 N   0  0  0  0  0  0  0  0  0  0  0  0
    2.0220    0.1360    0.0400 C   0  0  0  0  0  0  0  0  0  0  0  0
    2.2520   -1.0810   -0.0830 O   0  0  0  0  0  0  0  0  0  0  0  0
    3.1890    1.0420    0.2060 C   0  0  0  0  0  0  0  0  0  0  0  0
    4.3900    0.2740    0.1860 N   0  0  0  0  0  0  0  0  0  0  0  0
    5.6930    0.8300    0.3210 C   0  0  0  0  0  0  0  0  0  0  0  0
    5.7870    2.0580    0.4640 O   0  0  0  0  0  0  0  0  0  0  0  0
    6.8470   -0.0450    0.2870 C   0  0  0  0  0  0  0  0  0  0  0  0
    8.1520    0.3770    0.4090 C   0  0  0  0  0  0  0  0  0  0  0  0
    8.9280   -0.7790    0.3210 C   0  0  0  0  0  0  0  0  0  0  0  0
    8.0940   -1.8520    0.1520 C   0  0  0  0  0  0  0  0  0  0  0  0
    6.8420   -1.3850    0.1340 N   0  0  0  0  0  0  0  0  0  0  0  0
   -2.2220   -1.3960    0.5460 N   0  0  0  0  0  0  0  0  0  0  0  0
   -3.2930   -0.5650    0.2050 C   0  0  0  0  0  0  0  0  0  0  0  0
   -3.6770    0.1970    1.2050 C   0  0  0  0  0  0  0  0  0  0  0  0
   -4.7170    1.2060    1.3630 C   0  0  0  0  0  0  0  0  0  0  0  0
   -5.4180    2.0010    0.5360 C   0  0  0  0  0  0  0  0  0  0  0  0
   -6.3440    2.8310    1.2240 N   0  0  0  0  0  0  0  0  0  0  0  0
   -5.3950    2.1570   -0.9130 C   0  0  0  0  0  0  0  0  0  0  0  0
   -4.9980    1.3870   -1.9240 C   0  0  0  0  0  0  0  0  0  0  0  0
   -4.4090    0.0370   -2.0270 C   0  0  0  0  0  0  0  0  0  0  0  0
   -3.7340   -0.7420   -1.1950 C   0  0  0  0  0  0  0  0  0  0  0  0
   -3.3380   -2.0560   -1.7620 C   0  0  2  0  0  0  0  0  0  0  0  0
   -3.7860   -2.0830   -3.0830 F   0  0  0  0  0  0  0  0  0  0  0  0
   -4.1800   -3.4040   -0.9500 Cl  0  0  0  0  0  0  0  0  0  0  0  0
  2  1  1  6
  2  3  1  0
  2 16  1  0
  3  4  1  0
  4  5  1  0
  5  6  2  0
  5  7  1  0
  7  8  1  0
  8  9  1  0
  9 10  2  0
  9 11  1  0
 11 12  2  0
 11 15  1  0
 12 13  1  0
 13 14  2  0
 14 15  1  0
 16 17  1  0
 17 18  2  0
 17 25  1  0
 18 19  1  0
 19 20  2  0
 20 21  1  0
 20 22  1  0
 22 23  2  0
 23 24  1  0
 24 25  2  0
 25 26  1  0
 26 27  1  6
 26 28  1  0
M  CHG  1  21   1
M  END
