
     RDKit          3D

 27 29  0  0  0  0  0  0  0  0999 V2000
    1.2240   -1.0450    0.2760 N   0  0  0  0  0  0  0  0  0  0  0  0
    2.1540   -0.8450   -0.5240 C   0  0  0  0  0  0  0  0  0  0  0  0
    1.9700   -1.4700   -1.8220 N   0  0  0  0  0  0  0  0  0  0  0  0
    0.7310   -1.3630   -2.5510 C   0  0  0  0  0  0  0  0  0  0  0  0
    0.4740    0.0120   -3.0110 C   0  0  0  0  0  0  0  0  0  0  0  0
    1.7460    0.7140   -4.0330 Cl  0  0  0  0  0  0  0  0  0  0  0  0
   -0.5710    0.7510   -2.7480 C   0  0  0  0  0  0  0  0  0  0  0  0
   -1.6880    0.2990   -1.9300 C   0  0  0  0  0  0  0  0  0  0  0  0
   -2.1530    1.0900   -0.8850 C   0  0  0  0  0  0  0  0  0  0  0  0
   -3.2260    0.7340   -0.0900 C   0  0  0  0  0  0  0  0  0  0  0  0
   -3.8840   -0.4700   -0.3320 C   0  0  0  0  0  0  0  0  0  0  0  0
   -5.0290   -0.9310    0.4570 C   0  0  2  0  0  0  0  0  0  0  0  0
   -6.2580   -0.1280    0.0840 C   0  0  0  0  0  0  0  0  0  0  0  0
   -6.4950    0.7900    1.2370 C   0  0  0  0  0  0  0  0  0  0  0  0
   -5.8280    0.2220    2.3860 N   0  0  0  0  0  0  0  0  0  0  0  0
   -4.8720   -0.7400    1.9280 C   0  0  0  0  0  0  0  0  0  0  0  0
   -3.4270   -1.2550   -1.3660 C   0  0  0  0  0  0  0  0  0  0  0  0
   -2.3390   -0.8790   -2.1620 C   0  0  0  0  0  0  0  0  0  0  0  0
    3.3200   -0.4720    0.0730 N   0  0  0  0  0  0  0  0  0  0  0  0
    4.3660    0.3910   -0.2150 C   0  0  0  0  0  0  0  0  0  0  0  0
    4.1070    1.0080   -1.2890 O   0  0  0  0  0  0  0  0  0  0  0  0
    5.5360    0.5510    0.5890 C   0  0  0  0  0  0  0  0  0  0  0  0
    5.8170   -0.0760    1.7080 C   0  0  0  0  0  0  0  0  0  0  0  0
    7.0360    0.2150    2.3710 N   0  0  0  0  0  0  0  0  0  0  0  0
    7.7200    1.4210    2.0280 C   0  0  0  0  0  0  0  0  0  0  0  0
    6.9590    2.2460    1.1990 O   0  0  0  0  0  0  0  0  0  0  0  0
    6.5140    1.5490    0.0880 C   0  0  0  0  0  0  0  0  0  0  0  0
  1  2  2  0
  2  3  1  0
  2 19  1  0
  3  4  1  0
  4  5  1  0
  5  6  1  0
  5  7  2  3
  7  8  1  0
  8  9  2  0
  8 18  1  0
  9 10  1  0
 10 11  2  0
 12 11  1  6
 11 17  1  0
 12 13  1  0
 12 16  1  0
 13 14  1  0
 14 15  1  0
 15 16  1  0
 17 18  2  0
 19 20  1  0
 20 21  2  0
 20 22  1  0
 22 23  2  0
 22 27  1  0
 23 24  1  0
 24 25  1  0
 25 26  1  0
 26 27  1  0
M  CHG  1  15   1
M  END
