
     RDKit          3D

 28 30  0  0  0  0  0  0  0  0999 V2000
    8.9150   -0.0940    1.0740 C   0  0  0  0  0  0  0  0  0  0  0  0
    7.4440   -0.0650    0.8570 C   0  0  0  0  0  0  0  0  0  0  0  0
    6.6760    0.5150    1.8350 C   0  0  0  0  0  0  0  0  0  0  0  0
    7.2210    1.0490    2.9640 F   0  0  0  0  0  0  0  0  0  0  0  0
    5.2940    0.5410    1.6280 C   0  0  0  0  0  0  0  0  0  0  0  0
    4.7060    0.0170    0.5080 C   0  0  0  0  0  0  0  0  0  0  0  0
    3.2640    0.0430    0.2920 C   0  0  0  0  0  0  0  0  0  0  0  0
    2.4240    0.5940    1.1990 C   0  0  0  0  0  0  0  0  0  0  0  0
    1.0680    0.6010    0.9620 C   0  0  0  0  0  0  0  0  0  0  0  0
    0.4960    0.0510   -0.2030 C   0  0  0  0  0  0  0  0  0  0  0  0
   -0.8920    0.1020   -0.4010 N   0  0  0  0  0  0  0  0  0  0  0  0
   -1.5640   -0.6320   -1.3870 C   0  0  0  0  0  0  0  0  0  0  0  0
   -0.9620   -1.3970   -2.1630 O   0  0  0  0  0  0  0  0  0  0  0  0
   -3.0440   -0.5440   -1.5680 C   0  0  2  0  0  0  0  0  0  0  0  0
   -3.4250   -1.4120   -2.6540 N   0  0  0  0  0  0  0  0  0  0  0  0
   -3.3760    0.9100   -1.8560 C   0  0  0  0  0  0  0  0  0  0  0  0
   -4.7760    1.0090   -1.2690 C   0  0  0  0  0  0  0  0  0  0  0  0
   -4.6030    0.3100    0.0410 C   0  0  1  0  0  0  0  0  0  0  0  0
   -5.8520   -0.0190    0.6840 N   0  0  0  0  0  0  0  0  0  0  0  0
   -6.2210    0.4220    1.9680 C   0  0  0  0  0  0  0  0  0  0  0  0
   -7.4670    0.0670    2.5560 N   0  0  0  0  0  0  0  0  0  0  0  0
   -5.4170    1.1530    2.6110 O   0  0  0  0  0  0  0  0  0  0  0  0
   -3.7810   -0.8930   -0.3020 C   0  0  0  0  0  0  0  0  0  0  0  0
    1.3950   -0.4870   -1.0750 C   0  0  0  0  0  0  0  0  0  0  0  0
    2.7420   -0.4860   -0.8250 N   0  0  0  0  0  0  0  0  0  0  0  0
    5.5280   -0.5680   -0.4670 C   0  0  0  0  0  0  0  0  0  0  0  0
    6.8870   -0.6050   -0.2860 C   0  0  0  0  0  0  0  0  0  0  0  0
    7.9240   -1.3360   -1.5060 Cl  0  0  0  0  0  0  0  0  0  0  0  0
  1  2  1  0
  2  3  2  0
  2 27  1  0
  3  4  1  0
  3  5  1  0
  5  6  2  0
  6  7  1  0
  6 26  1  0
  7  8  2  0
  7 25  1  0
  8  9  1  0
  9 10  2  0
 10 11  1  0
 10 24  1  0
 11 12  1  0
 12 13  2  0
 12 14  1  0
 14 15  1  6
 14 16  1  0
 14 23  1  0
 16 17  1  0
 17 18  1  0
 18 19  1  6
 18 23  1  0
 19 20  1  0
 20 21  1  0
 20 22  2  0
 24 25  2  0
 26 27  2  0
 27 28  1  0
M  CHG  1  15   1
M  END
