
     RDKit          3D

 27 29  0  0  0  0  0  0  0  0999 V2000
   -6.0910    1.0610    1.5730 C   0  0  0  0  0  0  0  0  0  0  0  0
   -4.9080    0.9790    0.6530 C   0  0  0  0  0  0  0  0  0  0  0  0
   -4.3920    2.1200    0.0960 C   0  0  0  0  0  0  0  0  0  0  0  0
   -4.9670    3.3170    0.3900 F   0  0  0  0  0  0  0  0  0  0  0  0
   -3.3060    2.0370   -0.7470 C   0  0  0  0  0  0  0  0  0  0  0  0
   -2.7580    0.7910   -1.0140 C   0  0  0  0  0  0  0  0  0  0  0  0
   -3.2670   -0.3730   -0.4620 C   0  0  0  0  0  0  0  0  0  0  0  0
   -4.3540   -0.2460    0.3780 C   0  0  0  0  0  0  0  0  0  0  0  0
   -5.0200   -1.6690    1.1190 Cl  0  0  0  0  0  0  0  0  0  0  0  0
   -2.5070   -1.4770   -0.9240 N   0  0  0  0  0  0  0  0  0  0  0  0
   -2.8670   -2.8210   -1.0630 C   0  0  0  0  0  0  0  0  0  0  0  0
   -1.9220   -3.8190   -1.4850 N   0  0  0  0  0  0  0  0  0  0  0  0
   -4.0200   -3.2230   -0.8290 O   0  0  0  0  0  0  0  0  0  0  0  0
   -1.1950   -0.9220   -1.2820 C   0  0  2  0  0  0  0  0  0  0  0  0
   -0.3160   -0.7920   -0.0690 C   0  0  0  0  0  0  0  0  0  0  0  0
    1.0110   -0.2310   -0.4820 C   0  0  0  0  0  0  0  0  0  0  0  0
    1.9100   -0.0900    0.6780 N   0  0  0  0  0  0  0  0  0  0  0  0
    2.9130    0.8620    0.3520 C   0  0  1  0  0  0  0  0  0  0  0  0
    2.6180    2.0880    1.0750 N   0  0  0  0  0  0  0  0  0  0  0  0
    4.2950    0.5020    0.5990 C   0  0  0  0  0  0  0  0  0  0  0  0
    5.1350    1.4340    1.2200 C   0  0  0  0  0  0  0  0  0  0  0  0
    6.4460    1.0930    1.4580 C   0  0  0  0  0  0  0  0  0  0  0  0
    6.9210   -0.1460    1.0880 C   0  0  0  0  0  0  0  0  0  0  0  0
    6.0750   -1.0070    0.4950 N   0  0  0  0  0  0  0  0  0  0  0  0
    4.7940   -0.7310    0.2390 C   0  0  0  0  0  0  0  0  0  0  0  0
    3.9230   -1.6160   -0.3730 O   0  0  0  0  0  0  0  0  0  0  0  0
   -1.6000    0.4300   -1.8560 C   0  0  0  0  0  0  0  0  0  0  0  0
  1  2  1  0
  2  3  2  0
  2  8  1  0
  3  4  1  0
  3  5  1  0
  5  6  2  0
  6  7  1  0
  6 27  1  0
  7  8  2  0
  7 10  1  0
  8  9  1  0
 10 11  1  0
 10 14  1  0
 11 12  1  0
 11 13  2  0
 14 15  1  1
 14 27  1  0
 15 16  1  0
 16 17  1  0
 17 18  1  0
 18 19  1  1
 18 20  1  0
 20 21  2  0
 20 25  1  0
 21 22  1  0
 22 23  2  0
 23 24  1  0
 24 25  2  0
 25 26  1  0
M  CHG  1  17   1
M  END
