
     RDKit          3D

 28 30  0  0  0  0  0  0  0  0999 V2000
    0.0440   -1.5830    1.6350 O   0  0  0  0  0  0  0  0  0  0  0  0
    1.2040   -1.3610    1.2190 C   0  0  0  0  0  0  0  0  0  0  0  0
    2.0160   -2.4350    1.0440 N   0  0  0  0  0  0  0  0  0  0  0  0
    3.2730   -2.2360    0.5970 C   0  0  0  0  0  0  0  0  0  0  0  0
    4.0410   -3.2210    0.4280 O   0  0  0  0  0  0  0  0  0  0  0  0
    3.7260   -0.9940    0.3270 N   0  0  0  0  0  0  0  0  0  0  0  0
    5.0880   -0.8020   -0.1570 C   0  0  0  0  0  0  0  0  0  0  0  0
    5.9470   -0.6280    0.9090 O   0  0  0  0  0  0  0  0  0  0  0  0
    7.2740   -0.4550    0.5760 C   0  0  0  0  0  0  0  0  0  0  0  0
    7.4790    0.7610   -0.2830 C   0  0  0  0  0  0  0  0  0  0  0  0
    7.0330    1.8720    0.4310 O   0  0  0  0  0  0  0  0  0  0  0  0
    2.9250    0.0720    0.5000 C   0  0  0  0  0  0  0  0  0  0  0  0
    1.6300   -0.0900    0.9560 C   0  0  0  0  0  0  0  0  0  0  0  0
    0.7550    1.0580    1.1400 C   0  0  0  0  0  0  0  0  0  0  0  0
   -0.2600    1.2580    0.0850 C   0  0  0  0  0  0  0  0  0  0  0  0
    0.0580    1.9210   -1.1070 C   0  0  0  0  0  0  0  0  0  0  0  0
   -0.8700    2.1300   -2.1060 C   0  0  0  0  0  0  0  0  0  0  0  0
   -2.1600    1.6730   -1.9340 C   0  0  0  0  0  0  0  0  0  0  0  0
   -2.4840    1.0190   -0.7650 C   0  0  0  0  0  0  0  0  0  0  0  0
   -3.7780    0.5700   -0.6130 O   0  0  0  0  0  0  0  0  0  0  0  0
   -4.2820   -0.1120    0.5070 C   0  0  0  0  0  0  0  0  0  0  0  0
   -5.7030   -0.4020    0.2550 C   0  0  0  0  0  0  0  0  0  0  0  0
   -6.1130   -1.5730   -0.3200 C   0  0  0  0  0  0  0  0  0  0  0  0
   -7.4690   -1.8320   -0.5550 C   0  0  0  0  0  0  0  0  0  0  0  0
   -8.3790   -0.8680   -0.1880 C   0  0  0  0  0  0  0  0  0  0  0  0
   -7.9980    0.3320    0.3980 C   0  0  0  0  0  0  0  0  0  0  0  0
   -6.6480    0.5340    0.6060 C   0  0  0  0  0  0  0  0  0  0  0  0
   -1.5370    0.8100    0.2460 C   0  0  0  0  0  0  0  0  0  0  0  0
  1  2  2  0
  2  3  1  0
  2 13  1  0
  3  4  1  0
  4  5  2  0
  4  6  1  0
  6  7  1  0
  6 12  1  0
  7  8  1  0
  8  9  1  0
  9 10  1  0
 10 11  1  0
 12 13  2  0
 13 14  1  0
 14 15  1  0
 15 16  2  0
 15 28  1  0
 16 17  1  0
 17 18  2  0
 18 19  1  0
 19 20  1  0
 19 28  2  0
 20 21  1  0
 21 22  1  0
 22 23  2  0
 22 27  1  0
 23 24  1  0
 24 25  2  0
 25 26  1  0
 26 27  2  0
M  END
