
     RDKit          3D

 28 30  0  0  0  0  0  0  0  0999 V2000
    8.7310    1.9020    0.5810 N   0  0  0  0  0  0  0  0  0  0  0  0
    7.8380    1.1060   -0.2120 C   0  0  0  0  0  0  0  0  0  0  0  0
    8.2880    0.2170   -1.0530 N   0  0  0  0  0  0  0  0  0  0  0  0
    6.4300    1.2700   -0.0970 N   0  0  0  0  0  0  0  0  0  0  0  0
    5.5310    0.1770    0.0070 C   0  0  0  0  0  0  0  0  0  0  0  0
    5.9690   -1.1030    0.2250 C   0  0  0  0  0  0  0  0  0  0  0  0
    5.0220   -2.0960    0.2960 C   0  0  0  0  0  0  0  0  0  0  0  0
    5.4360   -3.3700    0.5110 F   0  0  0  0  0  0  0  0  0  0  0  0
    3.6450   -1.8360    0.1540 C   0  0  0  0  0  0  0  0  0  0  0  0
    3.1950   -0.5640   -0.0630 C   0  0  0  0  0  0  0  0  0  0  0  0
    1.8440   -0.2040   -0.1970 N   0  0  0  0  0  0  0  0  0  0  0  0
    0.7710   -1.0270    0.1790 C   0  0  0  0  0  0  0  0  0  0  0  0
    0.9330   -2.1610    0.6760 O   0  0  0  0  0  0  0  0  0  0  0  0
   -0.6080   -0.5360   -0.0210 C   0  0  0  0  0  0  0  0  0  0  0  0
   -0.7610    0.6010   -0.5200 O   0  0  0  0  0  0  0  0  0  0  0  0
   -1.6700   -1.3650    0.3580 N   0  0  0  0  0  0  0  0  0  0  0  0
   -3.0070   -1.0240    0.2310 C   0  0  0  0  0  0  0  0  0  0  0  0
   -3.9750   -2.0280    0.3520 C   0  0  0  0  0  0  0  0  0  0  0  0
   -5.3170   -1.7570    0.2530 C   0  0  0  0  0  0  0  0  0  0  0  0
   -5.7580   -0.4650    0.0280 C   0  0  0  0  0  0  0  0  0  0  0  0
   -4.8210    0.5190   -0.0910 C   0  0  0  0  0  0  0  0  0  0  0  0
   -3.4620    0.2300    0.0110 C   0  0  0  0  0  0  0  0  0  0  0  0
   -5.2450    1.9450   -0.3380 C   0  0  0  0  0  0  0  0  0  0  0  0
   -6.6220    2.0830    0.2740 C   0  0  2  0  0  0  0  0  0  0  0  0
   -6.5420    1.3830    1.9060 Cl  0  0  0  0  0  0  0  0  0  0  0  0
   -7.5240    1.1610   -0.5490 C   0  0  0  0  0  0  0  0  0  0  0  0
   -7.2320   -0.2380   -0.0690 C   0  0  0  0  0  0  0  0  0  0  0  0
    4.1820    0.4280   -0.1310 C   0  0  0  0  0  0  0  0  0  0  0  0
  1  2  1  0
  2  3  2  0
  2  4  1  0
  4  5  1  0
  5  6  2  0
  5 28  1  0
  6  7  1  0
  7  8  1  0
  7  9  2  0
  9 10  1  0
 10 11  1  0
 10 28  2  0
 11 12  1  0
 12 13  2  0
 12 14  1  0
 14 15  2  0
 14 16  1  0
 16 17  1  0
 17 18  2  0
 17 22  1  0
 18 19  1  0
 19 20  2  0
 20 21  1  0
 20 27  1  0
 21 22  2  0
 21 23  1  0
 23 24  1  0
 24 25  1  1
 24 26  1  0
 26 27  1  0
M  CHG  1   3   1
M  END
