
     RDKit          3D

 11 11  0  0  0  0  0  0  0  0999 V2000
   -3.1840   -0.3040    0.2030 C   0  0  0  0  0  0  0  0  0  0  0  0
   -2.1110    0.6390    0.1360 O   0  0  0  0  0  0  0  0  0  0  0  0
   -0.8010    0.1280    0.0490 C   0  0  0  0  0  0  0  0  0  0  0  0
   -0.5630   -1.2290    0.0280 C   0  0  0  0  0  0  0  0  0  0  0  0
    0.7190   -1.7250   -0.0570 C   0  0  0  0  0  0  0  0  0  0  0  0
    1.8160   -0.8770   -0.1260 C   0  0  0  0  0  0  0  0  0  0  0  0
    3.0690   -1.4060   -0.2100 O   0  0  0  0  0  0  0  0  0  0  0  0
    1.5860    0.4790   -0.1060 C   0  0  0  0  0  0  0  0  0  0  0  0
    2.6320    1.3750   -0.1710 O   0  0  0  0  0  0  0  0  0  0  0  0
    0.2800    0.9720   -0.0190 C   0  0  0  0  0  0  0  0  0  0  0  0
    0.0290    2.3670    0.0030 N   0  0  0  0  0  0  0  0  0  0  0  0
  1  2  1  0
  2  3  1  0
  3  4  2  0
  3 10  1  0
  4  5  1  0
  5  6  2  0
  6  7  1  0
  6  8  1  0
  8  9  1  0
  8 10  2  0
 10 11  1  0
M  END
