
     RDKit          3D

 11 11  0  0  0  0  0  0  0  0999 V2000
   -4.0010    0.5610    0.3390 N   0  0  0  0  0  0  0  0  0  0  0  0
   -2.9960   -0.2760   -0.2210 C   0  0  0  0  0  0  0  0  0  0  0  0
   -3.3530   -1.2510   -0.9400 O   0  0  0  0  0  0  0  0  0  0  0  0
   -1.5920    0.0540    0.0780 C   0  0  0  0  0  0  0  0  0  0  0  0
   -0.6810   -0.8370   -0.5250 O   0  0  0  0  0  0  0  0  0  0  0  0
    0.6770   -0.5870   -0.2850 C   0  0  0  0  0  0  0  0  0  0  0  0
    1.2970    0.4320   -0.8490 C   0  0  0  0  0  0  0  0  0  0  0  0
    2.6870    0.4460   -0.4230 C   0  0  0  0  0  0  0  0  0  0  0  0
    3.6380    1.4040   -0.8370 O   0  0  0  0  0  0  0  0  0  0  0  0
    2.8890   -0.5660    0.3940 C   0  0  0  0  0  0  0  0  0  0  0  0
    1.6250   -1.3120    0.5530 C   0  0  0  0  0  0  0  0  0  0  0  0
  1  2  1  0
  2  3  2  0
  2  4  1  0
  4  5  1  0
  5  6  1  0
  6  7  2  0
  6 11  1  0
  7  8  1  0
  8  9  1  0
  8 10  2  0
 10 11  1  0
M  END
