
     RDKit          3D

 11 11  0  0  0  0  0  0  0  0999 V2000
   -3.1090   -1.1660   -0.0490 O   0  0  0  0  0  0  0  0  0  0  0  0
   -2.8230    0.0270   -0.2510 C   0  0  0  0  0  0  0  0  0  0  0  0
   -3.8020    0.9660   -0.5280 O   0  0  0  0  0  0  0  0  0  0  0  0
   -1.4070    0.4550   -0.1950 C   0  0  0  0  0  0  0  0  0  0  0  0
   -0.5090   -0.7260    0.1210 C   0  0  1  0  0  0  0  0  0  0  0  0
   -0.6420   -1.6910   -0.8540 O   0  0  0  0  0  0  0  0  0  0  0  0
    0.8820   -0.2210    0.1570 C   0  0  0  0  0  0  0  0  0  0  0  0
    2.0090   -0.9980    0.1150 C   0  0  0  0  0  0  0  0  0  0  0  0
    3.1150   -0.1920    0.1690 C   0  0  0  0  0  0  0  0  0  0  0  0
    2.6370    1.1010    0.2450 C   0  0  0  0  0  0  0  0  0  0  0  0
    1.2990    1.0520    0.2370 N   0  0  0  0  0  0  0  0  0  0  0  0
  1  2  2  0
  2  3  1  0
  2  4  1  0
  4  5  1  0
  5  6  1  6
  5  7  1  0
  7  8  2  0
  7 11  1  0
  8  9  1  0
  9 10  2  0
 10 11  1  0
M  END
