
     RDKit          3D

 11 11  0  0  0  0  0  0  0  0999 V2000
    2.6880    0.9260    0.1500 N   0  0  0  0  0  0  0  0  0  0  0  0
    1.9430   -0.3090    0.0600 C   0  0  0  0  0  0  0  0  0  0  0  0
    0.4850   -0.0670   -0.0340 C   0  0  0  0  0  0  0  0  0  0  0  0
   -0.0020    1.2450   -0.0280 C   0  0  0  0  0  0  0  0  0  0  0  0
   -1.3660    1.4290   -0.1170 C   0  0  0  0  0  0  0  0  0  0  0  0
   -1.9480    2.6880   -0.1190 O   0  0  0  0  0  0  0  0  0  0  0  0
   -2.1930    0.3300   -0.2080 C   0  0  0  0  0  0  0  0  0  0  0  0
   -1.6940   -0.9680   -0.2130 C   0  0  0  0  0  0  0  0  0  0  0  0
   -2.5450   -2.0660   -0.3060 O   0  0  0  0  0  0  0  0  0  0  0  0
   -0.3520   -1.1560   -0.1250 C   0  0  0  0  0  0  0  0  0  0  0  0
    0.1890   -2.4280   -0.1270 O   0  0  0  0  0  0  0  0  0  0  0  0
  1  2  1  0
  2  3  1  0
  3  4  2  0
  3 10  1  0
  4  5  1  0
  5  6  1  0
  5  7  2  0
  7  8  1  0
  8  9  1  0
  8 10  2  0
 10 11  1  0
M  END
