
     RDKit          3D

 11 10  0  0  0  0  0  0  0  0999 V2000
   -2.4840   -1.3140    0.8630 C   0  0  0  0  0  0  0  0  0  0  0  0
   -1.9830   -0.2070    0.0680 C   0  0  0  0  0  0  0  0  0  0  0  0
   -0.8690    0.3100   -0.2520 C   0  0  0  0  0  0  0  0  0  0  0  0
   -1.0180    1.5340   -1.1720 C   0  0  0  0  0  0  0  0  0  0  0  0
    0.4760   -0.0050    0.0620 C   0  0  0  0  0  0  0  0  0  0  0  0
    0.8790   -1.1130    0.9160 C   0  0  0  0  0  0  0  0  0  0  0  0
    0.0790   -1.8720    1.4370 O   0  0  0  0  0  0  0  0  0  0  0  0
    2.2520   -1.3430    1.1690 O   0  0  0  0  0  0  0  0  0  0  0  0
    1.5210    0.7120   -0.4130 C   0  0  0  0  0  0  0  0  0  0  0  0
    2.8610    0.3260   -0.0450 N   0  0  0  0  0  0  0  0  0  0  0  0
    1.4340    1.8000   -1.2320 O   0  0  0  0  0  0  0  0  0  0  0  0
  1  2  1  0
  2  3  2  3
  3  4  1  0
  3  5  1  0
  5  6  1  0
  5  9  2  3
  6  7  2  0
  6  8  1  0
  9 10  1  0
  9 11  1  0
M  END
