
     RDKit          3D

 11 11  0  0  0  0  0  0  0  0999 V2000
   -1.9590   -1.1750    1.3170 N   0  0  0  0  0  0  0  0  0  0  0  0
   -1.2110   -0.2890    0.4790 C   0  0  0  0  0  0  0  0  0  0  0  0
    0.1130   -0.5350    0.1840 C   0  0  0  0  0  0  0  0  0  0  0  0
    0.8280    0.3240   -0.6250 C   0  0  0  0  0  0  0  0  0  0  0  0
    2.1660    0.0800   -0.9260 O   0  0  0  0  0  0  0  0  0  0  0  0
    2.8470   -1.0310   -0.4330 C   0  0  0  0  0  0  0  0  0  0  0  0
    2.8960   -1.0780    0.9630 O   0  0  0  0  0  0  0  0  0  0  0  0
    0.1640    1.4270   -1.1190 C   0  0  0  0  0  0  0  0  0  0  0  0
   -1.1590    1.6640   -0.8180 C   0  0  0  0  0  0  0  0  0  0  0  0
   -1.8820    0.8120   -0.0110 C   0  0  0  0  0  0  0  0  0  0  0  0
   -3.2180    1.0230    0.3110 O   0  0  0  0  0  0  0  0  0  0  0  0
  1  2  1  0
  2  3  2  0
  2 10  1  0
  3  4  1  0
  4  5  1  0
  4  8  2  0
  5  6  1  0
  6  7  1  0
  8  9  1  0
  9 10  2  0
 10 11  1  0
M  END
