
     RDKit          3D

 11 11  0  0  0  0  0  0  0  0999 V2000
    0.0190    1.9870    0.3960 N   0  0  0  0  0  0  0  0  0  0  0  0
   -0.3320    0.6410    0.1280 C   0  0  0  0  0  0  0  0  0  0  0  0
   -1.6600    0.3170   -0.0110 C   0  0  0  0  0  0  0  0  0  0  0  0
   -2.6090    1.3050    0.1150 O   0  0  0  0  0  0  0  0  0  0  0  0
   -1.9590   -1.0000   -0.2710 C   0  0  0  0  0  0  0  0  0  0  0  0
   -0.9550   -1.9510   -0.3860 C   0  0  0  0  0  0  0  0  0  0  0  0
    0.3660   -1.6160   -0.2460 C   0  0  0  0  0  0  0  0  0  0  0  0
    0.6700   -0.2970    0.0150 C   0  0  0  0  0  0  0  0  0  0  0  0
    2.0820    0.0860    0.1690 C   0  0  0  0  0  0  0  0  0  0  0  0
    2.3390    1.2810    0.4040 O   0  0  0  0  0  0  0  0  0  0  0  0
    3.1140   -0.8020    0.0670 O   0  0  0  0  0  0  0  0  0  0  0  0
  1  2  1  0
  2  3  2  0
  2  8  1  0
  3  4  1  0
  3  5  1  0
  5  6  2  0
  6  7  1  0
  7  8  2  0
  8  9  1  0
  9 10  2  0
  9 11  1  0
M  END
