
     RDKit          3D

 36 38  0  0  0  0  0  0  0  0999 V2000
    6.9470    0.3770    1.9640 C   0  0  0  0  0  0  0  0  0  0  0  0
    5.7520   -0.0870    1.4180 O   0  0  0  0  0  0  0  0  0  0  0  0
    5.7510    0.1020    0.0300 C   0  0  2  0  0  0  0  0  0  0  0  0
    4.5330    0.9270   -0.3910 C   0  0  1  0  0  0  0  0  0  0  0  0
    5.0760    2.2650   -0.8550 C   0  0  0  0  0  0  0  0  0  0  0  0
    4.0810    3.1280   -1.2670 O   0  0  0  0  0  0  0  0  0  0  0  0
    3.8640    0.3630   -1.4540 O   0  0  0  0  0  0  0  0  0  0  0  0
    3.1610   -0.7990   -1.0860 C   0  0  2  0  0  0  0  0  0  0  0  0
    2.0440   -0.4060   -0.4110 O   0  0  0  0  0  0  0  0  0  0  0  0
    0.8420   -0.6360   -1.0390 C   0  0  2  0  0  0  0  0  0  0  0  0
    0.0200    0.5910   -1.2710 C   0  0  1  0  0  0  0  0  0  0  0  0
   -0.8370    0.4460   -2.5260 C   0  0  0  0  0  0  0  0  0  0  0  0
    0.0160    0.0120   -3.5580 O   0  0  0  0  0  0  0  0  0  0  0  0
   -0.7400    1.0150   -0.2150 O   0  0  0  0  0  0  0  0  0  0  0  0
   -1.5740    0.0190    0.2820 C   0  0  2  0  0  0  0  0  0  0  0  0
   -2.5050    0.5280    1.1870 O   0  0  0  0  0  0  0  0  0  0  0  0
   -3.7990    0.2290    0.8590 C   0  0  2  0  0  0  0  0  0  0  0  0
   -4.7020    1.3980    0.6240 C   0  0  1  0  0  0  0  0  0  0  0  0
   -4.0990    2.5310   -0.1340 C   0  0  0  0  0  0  0  0  0  0  0  0
   -2.9840    2.9770    0.5690 O   0  0  0  0  0  0  0  0  0  0  0  0
   -5.8960    0.8630   -0.0400 N   0  0  0  0  0  0  0  0  0  0  0  0
   -6.4080   -0.3880    0.4150 C   0  0  0  0  0  0  0  0  0  0  0  0
   -7.6440   -0.6650    0.1780 N   0  0  0  0  0  0  0  0  0  0  0  0
   -8.4920    0.1800   -0.4880 O   0  0  0  0  0  0  0  0  0  0  0  0
   -5.5900   -1.3870    1.1460 C   0  0  2  0  0  0  0  0  0  0  0  0
   -6.3750   -2.1630    1.9960 O   0  0  0  0  0  0  0  0  0  0  0  0
   -4.5080   -0.6510    1.8920 C   0  0  1  0  0  0  0  0  0  0  0  0
   -3.6560   -1.4810    2.5750 O   0  0  0  0  0  0  0  0  0  0  0  0
   -0.6490   -1.0020    0.9380 C   0  0  2  0  0  0  0  0  0  0  0  0
    0.2980   -0.3720    1.7470 O   0  0  0  0  0  0  0  0  0  0  0  0
    0.0950   -1.6590   -0.2080 C   0  0  1  0  0  0  0  0  0  0  0  0
   -0.7560   -2.4390   -0.9890 O   0  0  0  0  0  0  0  0  0  0  0  0
    4.1060   -1.6550   -0.3010 C   0  0  2  0  0  0  0  0  0  0  0  0
    3.9660   -1.5140    1.0660 O   0  0  0  0  0  0  0  0  0  0  0  0
    5.5570   -1.2700   -0.6260 C   0  0  1  0  0  0  0  0  0  0  0  0
    5.7240   -1.0890   -1.9830 O   0  0  0  0  0  0  0  0  0  0  0  0
  1  2  1  0
  3  2  1  1
  3  4  1  0
  3 35  1  0
  4  5  1  6
  4  7  1  0
  5  6  1  0
  7  8  1  0
  8  9  1  1
  8 33  1  0
 10  9  1  1
 10 11  1  0
 10 31  1  0
 11 12  1  6
 11 14  1  0
 12 13  1  0
 14 15  1  0
 15 16  1  1
 15 29  1  0
 17 16  1  1
 17 18  1  0
 17 27  1  0
 18 19  1  6
 18 21  1  0
 19 20  1  0
 21 22  1  0
 22 23  2  3
 22 25  1  0
 23 24  1  0
 25 26  1  1
 25 27  1  0
 27 28  1  6
 29 30  1  1
 29 31  1  0
 31 32  1  6
 33 34  1  1
 33 35  1  0
 35 36  1  6
M  END
