
     RDKit          3D

 46 53  0  0  0  0  0  0  0  0999 V2000
   -1.9720    8.7720    0.2560 C   0  0  0  0  0  0  0  0  0  0  0  0
   -2.5900    7.8800   -0.7980 C   0  0  0  0  0  0  0  0  0  0  0  0
   -3.1050    6.6320   -0.1760 C   0  0  0  0  0  0  0  0  0  0  0  0
   -2.0160    5.7860    0.3340 N   0  0  0  0  0  0  0  0  0  0  0  0
   -2.5980    4.7960    1.2080 C   0  0  0  0  0  0  0  0  0  0  0  0
   -2.4080    3.3940    0.7760 C   0  0  0  0  0  0  0  0  0  0  0  0
   -3.2740    2.9070   -0.1950 N   0  0  0  0  0  0  0  0  0  0  0  0
   -3.0370    1.5920   -0.3800 C   0  0  0  0  0  0  0  0  0  0  0  0
   -2.0410    1.2510    0.4380 N   0  0  0  0  0  0  0  0  0  0  0  0
   -1.6790    2.3670    1.1280 N   0  0  0  0  0  0  0  0  0  0  0  0
   -1.5520   -0.1000    0.4850 C   0  0  2  0  0  0  0  0  0  0  0  0
   -0.1920   -0.1950   -0.0460 C   0  0  0  0  0  0  0  0  0  0  0  0
    0.8080    0.4180    0.6810 C   0  0  0  0  0  0  0  0  0  0  0  0
    2.1530    0.3570    0.3450 C   0  0  0  0  0  0  0  0  0  0  0  0
    2.5220   -0.3510   -0.7700 C   0  0  0  0  0  0  0  0  0  0  0  0
    3.8930   -0.5400   -1.1090 N   0  0  0  0  0  0  0  0  0  0  0  0
    4.8940   -0.7010   -0.1230 C   0  0  0  0  0  0  0  0  0  0  0  0
    4.5270   -0.6840    1.0870 O   0  0  0  0  0  0  0  0  0  0  0  0
    6.3200   -0.8960   -0.4750 C   0  0  1  0  0  0  0  0  0  0  0  0
    6.8650    0.2740   -1.2550 C   0  0  0  0  0  0  0  0  0  0  0  0
    7.6230    1.2480   -0.4170 C   0  0  0  0  0  0  0  0  0  0  0  0
    7.4820    2.4820   -0.6120 O   0  0  0  0  0  0  0  0  0  0  0  0
    8.5120    0.7970    0.6170 N   0  0  0  0  0  0  0  0  0  0  0  0
    9.6450    1.5940    1.0620 C   0  0  0  0  0  0  0  0  0  0  0  0
    8.2140   -0.4580    1.1810 C   0  0  0  0  0  0  0  0  0  0  0  0
    8.9320   -0.9370    2.0960 O   0  0  0  0  0  0  0  0  0  0  0  0
    7.0840   -1.1940    0.7180 N   0  0  0  0  0  0  0  0  0  0  0  0
    1.5450   -0.9690   -1.5210 C   0  0  0  0  0  0  0  0  0  0  0  0
    0.1910   -0.9020   -1.1740 C   0  0  0  0  0  0  0  0  0  0  0  0
   -2.4870   -1.0510   -0.1800 C   0  0  0  0  0  0  0  0  0  0  0  0
   -3.4570   -0.7100   -0.9920 C   0  0  0  0  0  0  0  0  0  0  0  0
   -4.3220   -1.7870   -1.6300 C   0  0  0  0  0  0  0  0  0  0  0  0
   -4.6440   -2.8320   -0.6030 C   0  0  1  0  0  0  0  0  0  0  0  0
   -5.4480   -3.9530   -1.1870 C   0  0  0  0  0  0  0  0  0  0  0  0
   -5.5780   -5.1000   -0.2300 C   0  0  0  0  0  0  0  0  0  0  0  0
   -4.2310   -5.7150    0.1000 C   0  0  0  0  0  0  0  0  0  0  0  0
   -3.2320   -4.6630    0.4160 C   0  0  0  0  0  0  0  0  0  0  0  0
   -3.4010   -3.3720    0.0230 C   0  0  0  0  0  0  0  0  0  0  0  0
   -2.4200   -2.4290    0.3570 C   0  0  0  0  0  0  0  0  0  0  0  0
   -1.3080   -2.8280    1.0870 C   0  0  0  0  0  0  0  0  0  0  0  0
   -1.1580   -4.1490    1.4800 C   0  0  0  0  0  0  0  0  0  0  0  0
   -0.2130   -4.8340    2.1900 C   0  0  0  0  0  0  0  0  0  0  0  0
   -0.5610   -6.1640    2.3120 C   0  0  0  0  0  0  0  0  0  0  0  0
   -1.7420   -6.2710    1.6530 N   0  0  0  0  0  0  0  0  0  0  0  0
   -2.1060   -5.0840    1.1550 C   0  0  0  0  0  0  0  0  0  0  0  0
   -3.7840    0.6370   -1.1380 N   0  0  0  0  0  0  0  0  0  0  0  0
  1  2  1  0
  2  3  1  0
  3  4  1  0
  4  5  1  0
  5  6  1  0
  6  7  1  0
  6 10  2  0
  7  8  2  0
  8  9  1  0
  8 46  1  0
  9 10  1  0
  9 11  1  0
 11 12  1  6
 11 30  1  0
 12 13  2  0
 12 29  1  0
 13 14  1  0
 14 15  2  0
 15 16  1  0
 15 28  1  0
 16 17  1  0
 17 18  2  0
 19 17  1  1
 19 20  1  0
 19 27  1  0
 20 21  1  0
 21 22  2  0
 21 23  1  0
 23 24  1  0
 23 25  1  0
 25 26  2  0
 25 27  1  0
 28 29  2  0
 30 31  2  0
 30 39  1  0
 31 32  1  0
 31 46  1  0
 33 32  1  6
 33 34  1  0
 33 38  1  0
 34 35  1  0
 35 36  1  0
 36 37  1  0
 37 38  2  0
 37 45  1  0
 38 39  1  0
 39 40  2  0
 40 41  1  0
 41 42  1  0
 41 45  2  0
 42 43  2  0
 43 44  1  0
 44 45  1  0
M  END
