
     RDKit          3D

 46 52  0  0  0  0  0  0  0  0999 V2000
   10.1140    2.9280   -1.2410 C   0  0  0  0  0  0  0  0  0  0  0  0
   10.0800    2.1900    0.0390 C   0  0  0  0  0  0  0  0  0  0  0  0
    9.1020    1.3360    0.3500 C   0  0  0  0  0  0  0  0  0  0  0  0
    9.0950    0.6230    1.6170 C   0  0  0  0  0  0  0  0  0  0  0  0
   10.0260    0.7610    2.5760 N   0  0  0  0  0  0  0  0  0  0  0  0
    9.7260   -0.0330    3.5860 N   0  0  0  0  0  0  0  0  0  0  0  0
    8.6020   -0.6970    3.3020 C   0  0  0  0  0  0  0  0  0  0  0  0
    8.1570   -0.3040    2.0350 C   0  0  0  0  0  0  0  0  0  0  0  0
    7.0110   -0.7800    1.3660 N   0  0  0  0  0  0  0  0  0  0  0  0
    7.0670   -1.4600    0.0770 C   0  0  0  0  0  0  0  0  0  0  0  0
    5.9180   -1.0920   -0.7980 C   0  0  0  0  0  0  0  0  0  0  0  0
    4.6060   -1.1750   -0.0610 N   0  0  0  0  0  0  0  0  0  0  0  0
    3.4970   -0.8670   -0.8290 C   0  0  0  0  0  0  0  0  0  0  0  0
    3.7970   -0.5940   -2.0930 O   0  0  0  0  0  0  0  0  0  0  0  0
    2.0970   -0.7900   -0.5340 C   0  0  0  0  0  0  0  0  0  0  0  0
    1.5730   -0.8050    0.7150 C   0  0  0  0  0  0  0  0  0  0  0  0
    0.2150   -0.8090    0.9360 C   0  0  0  0  0  0  0  0  0  0  0  0
   -0.7020   -0.7960   -0.1300 C   0  0  0  0  0  0  0  0  0  0  0  0
   -0.1350   -0.7770   -1.3840 C   0  0  0  0  0  0  0  0  0  0  0  0
    1.2090   -0.7740   -1.6440 C   0  0  0  0  0  0  0  0  0  0  0  0
   -1.2370   -0.7760   -2.1840 N   0  0  0  0  0  0  0  0  0  0  0  0
   -2.3790   -0.7930   -1.4670 C   0  0  0  0  0  0  0  0  0  0  0  0
   -2.0550   -0.8060   -0.2040 N   0  0  0  0  0  0  0  0  0  0  0  0
   -2.9430   -0.8530    0.9580 C   0  0  0  0  0  0  0  0  0  0  0  0
   -4.1530   -1.6310    0.7300 C   0  0  0  0  0  0  0  0  0  0  0  0
   -3.7910   -2.9100    0.5460 O   0  0  0  0  0  0  0  0  0  0  0  0
   -5.4930   -1.4070    0.6570 N   0  0  0  0  0  0  0  0  0  0  0  0
   -6.4900   -0.5430    1.2200 C   0  0  0  0  0  0  0  0  0  0  0  0
   -7.6780   -1.2400    1.5860 C   0  0  0  0  0  0  0  0  0  0  0  0
   -8.7810   -0.6610    2.1500 C   0  0  0  0  0  0  0  0  0  0  0  0
   -8.7310    0.6810    2.3760 C   0  0  0  0  0  0  0  0  0  0  0  0
   -7.6000    1.3740    2.0320 C   0  0  0  0  0  0  0  0  0  0  0  0
   -7.6480    2.8540    2.3490 C   0  0  0  0  0  0  0  0  0  0  0  0
   -6.4400    0.8100    1.4440 C   0  0  0  0  0  0  0  0  0  0  0  0
   -5.4090    1.7550    1.1730 N   0  0  0  0  0  0  0  0  0  0  0  0
   -4.5430    2.0270    0.1250 C   0  0  0  0  0  0  0  0  0  0  0  0
   -4.0980    3.2870    0.0670 O   0  0  0  0  0  0  0  0  0  0  0  0
   -3.9800    1.3240   -0.9270 N   0  0  0  0  0  0  0  0  0  0  0  0
   -4.4100    0.5540   -2.0170 C   0  0  2  0  0  0  0  0  0  0  0  0
   -5.8620    0.3870   -2.2910 C   0  0  0  0  0  0  0  0  0  0  0  0
   -5.9690   -0.0090   -3.7640 C   0  0  0  0  0  0  0  0  0  0  0  0
   -4.6590   -0.2910   -4.4050 C   0  0  0  0  0  0  0  0  0  0  0  0
   -3.6620   -1.0610   -3.6160 C   0  0  0  0  0  0  0  0  0  0  0  0
   -3.7290   -0.7940   -2.1180 C   0  0  1  0  0  0  0  0  0  0  0  0
    4.7620   -1.6040    1.2930 C   0  0  0  0  0  0  0  0  0  0  0  0
    5.6970   -0.6000    1.9750 C   0  0  0  0  0  0  0  0  0  0  0  0
  1  2  1  0
  2  3  2  3
  3  4  1  0
  4  5  1  0
  4  8  2  0
  5  6  1  0
  6  7  2  0
  7  8  1  0
  8  9  1  0
  9 10  1  0
  9 46  1  0
 10 11  1  0
 11 12  1  0
 12 13  1  0
 12 45  1  0
 13 14  2  0
 13 15  1  0
 15 16  2  0
 15 20  1  0
 16 17  1  0
 17 18  2  0
 18 19  1  0
 18 23  1  0
 19 20  2  0
 19 21  1  0
 21 22  2  0
 22 23  1  0
 22 44  1  0
 23 24  1  0
 24 25  1  0
 25 26  2  0
 25 27  1  0
 27 28  1  0
 28 29  2  0
 28 34  1  0
 29 30  1  0
 30 31  2  0
 31 32  1  0
 32 33  1  0
 32 34  2  0
 34 35  1  0
 35 36  1  0
 36 37  2  0
 36 38  1  0
 38 39  1  0
 39 40  1  1
 39 44  1  0
 40 41  1  0
 41 42  1  0
 42 43  1  0
 44 43  1  6
 45 46  1  0
M  END
