
     RDKit          3D

 45 48  0  0  0  0  0  0  0  0999 V2000
    1.6410    4.8180    1.5240 C   0  0  0  0  0  0  0  0  0  0  0  0
    2.0740    3.7960    2.5770 C   0  0  2  0  0  0  0  0  0  0  0  0
    3.1810    3.0640    2.0740 O   0  0  0  0  0  0  0  0  0  0  0  0
    4.4260    3.1990    2.6690 C   0  0  0  0  0  0  0  0  0  0  0  0
    4.4780    4.0120    3.6540 O   0  0  0  0  0  0  0  0  0  0  0  0
    5.6270    2.4950    2.2500 C   0  0  0  0  0  0  0  0  0  0  0  0
    5.5840    1.6460    1.2560 C   0  0  0  0  0  0  0  0  0  0  0  0
    6.7490    0.8820    0.7610 C   0  0  0  0  0  0  0  0  0  0  0  0
    7.9660    1.1340    1.3530 C   0  0  0  0  0  0  0  0  0  0  0  0
    9.2680    0.1780    0.7330 S   0  0  0  0  0  0  0  0  0  0  0  0
    8.7660   -0.8880   -0.4940 C   0  0  0  0  0  0  0  0  0  0  0  0
    9.5610   -1.6900   -1.0940 O   0  0  0  0  0  0  0  0  0  0  0  0
    7.4590   -0.8350   -0.7980 N   0  0  0  0  0  0  0  0  0  0  0  0
    7.0240   -1.7560   -1.8300 C   0  0  0  0  0  0  0  0  0  0  0  0
    7.3300   -3.0880   -1.7410 C   0  0  0  0  0  0  0  0  0  0  0  0
    6.9030   -3.9370   -2.7290 C   0  0  0  0  0  0  0  0  0  0  0  0
    6.1860   -3.4620   -3.7860 N   0  0  0  0  0  0  0  0  0  0  0  0
    5.8930   -2.1690   -3.8690 C   0  0  0  0  0  0  0  0  0  0  0  0
    6.3070   -1.2610   -2.8810 C   0  0  0  0  0  0  0  0  0  0  0  0
    6.5480   -0.0410   -0.2370 C   0  0  0  0  0  0  0  0  0  0  0  0
    5.3490   -0.1530   -0.6820 O   0  0  0  0  0  0  0  0  0  0  0  0
    0.9140    2.8990    2.7640 C   0  0  0  0  0  0  0  0  0  0  0  0
    0.9960    1.7000    2.3270 O   0  0  0  0  0  0  0  0  0  0  0  0
   -0.2610    3.2620    3.3810 O   0  0  0  0  0  0  0  0  0  0  0  0
   -1.3830    2.4330    3.5620 C   0  0  0  0  0  0  0  0  0  0  0  0
   -2.0440    2.0420    2.2790 C   0  0  0  0  0  0  0  0  0  0  0  0
   -2.9660    1.2060    2.3570 O   0  0  0  0  0  0  0  0  0  0  0  0
   -1.6260    2.6100    1.0690 N   0  0  0  0  0  0  0  0  0  0  0  0
   -2.1860    2.3140   -0.2070 C   0  0  0  0  0  0  0  0  0  0  0  0
   -1.7590    3.0340   -1.3290 C   0  0  0  0  0  0  0  0  0  0  0  0
   -2.2480    2.8190   -2.5950 C   0  0  0  0  0  0  0  0  0  0  0  0
   -3.2080    1.8420   -2.7580 C   0  0  0  0  0  0  0  0  0  0  0  0
   -3.6770    1.0960   -1.7120 C   0  0  0  0  0  0  0  0  0  0  0  0
   -4.6970    0.0760   -1.8960 C   0  0  0  0  0  0  0  0  0  0  0  0
   -5.1750   -0.1240   -3.0380 O   0  0  0  0  0  0  0  0  0  0  0  0
   -5.1710   -0.7010   -0.8420 O   0  0  0  0  0  0  0  0  0  0  0  0
   -6.1580   -1.6900   -0.9880 C   0  0  2  0  0  0  0  0  0  0  0  0
   -7.1610   -1.8010    0.1390 C   0  0  0  0  0  0  0  0  0  0  0  0
   -6.9960   -3.3140    0.0390 C   0  0  1  0  0  0  0  0  0  0  0  0
   -7.0540   -4.0640    1.3350 C   0  0  0  0  0  0  0  0  0  0  0  0
   -7.8390   -3.7950   -0.9560 O   0  0  0  0  0  0  0  0  0  0  0  0
   -5.6210   -3.0610   -0.5360 C   0  0  2  0  0  0  0  0  0  0  0  0
   -4.5570   -2.8630    0.4930 C   0  0  0  0  0  0  0  0  0  0  0  0
   -5.2470   -3.9350   -1.7160 C   0  0  0  0  0  0  0  0  0  0  0  0
   -3.1380    1.3640   -0.4480 C   0  0  0  0  0  0  0  0  0  0  0  0
  2  1  1  6
  2  3  1  0
  2 22  1  0
  3  4  1  0
  4  5  2  0
  4  6  1  0
  6  7  2  3
  7  8  1  0
  8  9  2  0
  8 20  1  0
  9 10  1  0
 10 11  1  0
 11 12  2  0
 11 13  1  0
 13 14  1  0
 13 20  1  0
 14 15  2  0
 14 19  1  0
 15 16  1  0
 16 17  2  0
 17 18  1  0
 18 19  2  0
 20 21  2  0
 22 23  2  0
 22 24  1  0
 24 25  1  0
 25 26  1  0
 26 27  2  0
 26 28  1  0
 28 29  1  0
 29 30  2  0
 29 45  1  0
 30 31  1  0
 31 32  2  0
 32 33  1  0
 33 34  1  0
 33 45  2  0
 34 35  2  0
 34 36  1  0
 37 36  1  1
 37 38  1  0
 37 42  1  0
 38 39  1  0
 39 40  1  1
 39 41  1  0
 39 42  1  0
 42 43  1  1
 42 44  1  0
M  END
