
     RDKit          3D

 46 52  0  0  0  0  0  0  0  0999 V2000
    2.4710   -5.5120    0.2520 C   0  0  0  0  0  0  0  0  0  0  0  0
    1.8380   -4.1700    0.2780 C   0  0  0  0  0  0  0  0  0  0  0  0
    1.7310   -3.4400   -0.8670 C   0  0  0  0  0  0  0  0  0  0  0  0
    1.1350   -2.1800   -0.8330 C   0  0  0  0  0  0  0  0  0  0  0  0
    0.6450   -1.6420    0.3320 C   0  0  0  0  0  0  0  0  0  0  0  0
    0.0450   -0.3630    0.3800 N   0  0  0  0  0  0  0  0  0  0  0  0
   -0.0050    0.5520   -0.7810 C   0  0  1  0  0  0  0  0  0  0  0  0
   -0.7460    1.7140   -0.4170 N   0  0  0  0  0  0  0  0  0  0  0  0
   -1.9510    1.6850    0.3340 C   0  0  0  0  0  0  0  0  0  0  0  0
   -2.3690    2.8380    0.7040 O   0  0  0  0  0  0  0  0  0  0  0  0
   -2.7070    0.5390    0.7020 N   0  0  0  0  0  0  0  0  0  0  0  0
   -3.3750    0.6550    2.0290 C   0  0  0  0  0  0  0  0  0  0  0  0
   -4.7490    1.2570    1.8620 C   0  0  2  0  0  0  0  0  0  0  0  0
   -5.4710    1.1230    3.1990 C   0  0  0  0  0  0  0  0  0  0  0  0
   -6.9080    1.4160    2.7500 C   0  0  0  0  0  0  0  0  0  0  0  0
   -6.8120    1.1830    1.2430 C   0  0  0  0  0  0  0  0  0  0  0  0
   -5.5860    0.5080    1.0440 O   0  0  0  0  0  0  0  0  0  0  0  0
   -2.8790   -0.6450   -0.0670 C   0  0  0  0  0  0  0  0  0  0  0  0
   -2.7630   -1.8230    0.6740 C   0  0  0  0  0  0  0  0  0  0  0  0
   -2.9470   -3.0710    0.1290 C   0  0  0  0  0  0  0  0  0  0  0  0
   -3.2590   -3.1990   -1.1990 C   0  0  0  0  0  0  0  0  0  0  0  0
   -3.3760   -2.0530   -1.9410 C   0  0  0  0  0  0  0  0  0  0  0  0
   -3.1920   -0.7520   -1.4110 C   0  0  0  0  0  0  0  0  0  0  0  0
   -3.3750    0.2920   -2.3510 N   0  0  0  0  0  0  0  0  0  0  0  0
   -2.5440    1.2870   -2.9030 C   0  0  0  0  0  0  0  0  0  0  0  0
   -2.8830    2.4970   -2.5490 O   0  0  0  0  0  0  0  0  0  0  0  0
   -1.4190    1.2740   -3.7700 N   0  0  0  0  0  0  0  0  0  0  0  0
   -0.2230    0.6110   -3.8420 N   0  0  0  0  0  0  0  0  0  0  0  0
    1.1650    0.8390   -3.5980 C   0  0  0  0  0  0  0  0  0  0  0  0
    1.9490    0.9510   -4.7540 N   0  0  0  0  0  0  0  0  0  0  0  0
    3.2340    1.1850   -4.8020 C   0  0  0  0  0  0  0  0  0  0  0  0
    3.9690    1.3480   -3.7010 N   0  0  0  0  0  0  0  0  0  0  0  0
    3.2970    1.2540   -2.5330 C   0  0  0  0  0  0  0  0  0  0  0  0
    4.0980    1.3970   -1.4440 N   0  0  0  0  0  0  0  0  0  0  0  0
    3.5800    1.2950   -0.2250 C   0  0  0  0  0  0  0  0  0  0  0  0
    4.4600    1.4580    0.9740 C   0  0  2  0  0  0  0  0  0  0  0  0
    4.7480    2.9690    1.0640 C   0  0  0  0  0  0  0  0  0  0  0  0
    5.5970    3.1640    2.2560 C   0  0  0  0  0  0  0  0  0  0  0  0
    6.4380    2.2660    2.6740 C   0  0  0  0  0  0  0  0  0  0  0  0
    6.6260    0.9720    2.0020 C   0  0  0  0  0  0  0  0  0  0  0  0
    5.7660    0.7540    0.8120 C   0  0  0  0  0  0  0  0  0  0  0  0
    2.2300    1.0430   -0.0740 C   0  0  0  0  0  0  0  0  0  0  0  0
    1.4000    0.8950   -1.1630 C   0  0  0  0  0  0  0  0  0  0  0  0
    1.9050    1.0000   -2.4440 C   0  0  0  0  0  0  0  0  0  0  0  0
    0.7640   -2.4000    1.4780 C   0  0  0  0  0  0  0  0  0  0  0  0
    1.3580   -3.6630    1.4610 C   0  0  0  0  0  0  0  0  0  0  0  0
  1  2  1  0
  2  3  2  0
  2 46  1  0
  3  4  1  0
  4  5  2  0
  5  6  1  0
  5 45  1  0
  7  6  1  1
  7  8  1  0
  7 43  1  0
  8  9  1  0
  9 10  2  0
  9 11  1  0
 11 12  1  0
 11 18  1  0
 13 12  1  1
 13 14  1  0
 13 17  1  0
 14 15  1  0
 15 16  1  0
 16 17  1  0
 18 19  2  0
 18 23  1  0
 19 20  1  0
 20 21  2  0
 21 22  1  0
 22 23  2  0
 23 24  1  0
 24 25  1  0
 25 26  2  0
 25 27  1  0
 27 28  1  0
 28 29  1  0
 29 30  1  0
 29 44  2  0
 30 31  2  0
 31 32  1  0
 32 33  2  0
 33 34  1  0
 33 44  1  0
 34 35  2  0
 36 35  1  6
 35 42  1  0
 36 37  1  0
 36 41  1  0
 37 38  1  0
 38 39  2  0
 39 40  1  0
 40 41  1  0
 42 43  2  0
 43 44  1  0
 45 46  2  0
M  END
