
     RDKit          3D

 46 50  0  0  0  0  0  0  0  0999 V2000
    4.4180   -1.6040    3.1520 C   0  0  0  0  0  0  0  0  0  0  0  0
    4.7010   -2.1200    1.7990 C   0  0  0  0  0  0  0  0  0  0  0  0
    4.8320   -0.9450    0.8200 C   0  0  0  0  0  0  0  0  0  0  0  0
    5.8650   -0.8480   -0.0830 C   0  0  0  0  0  0  0  0  0  0  0  0
    7.0880   -1.6530   -0.2200 C   0  0  0  0  0  0  0  0  0  0  0  0
    5.4990    0.1560   -0.9250 N   0  0  0  0  0  0  0  0  0  0  0  0
    4.3540    0.5830   -0.5380 N   0  0  0  0  0  0  0  0  0  0  0  0
    3.8430   -0.1490    0.6710 C   0  0  0  0  0  0  0  0  0  0  0  0
    2.8130    0.7640    1.1840 N   0  0  0  0  0  0  0  0  0  0  0  0
    1.6540    0.4710    0.1690 C   0  0  0  0  0  0  0  0  0  0  0  0
    1.3440   -0.7690    0.4450 N   0  0  0  0  0  0  0  0  0  0  0  0
    0.5900   -1.6550   -0.2990 C   0  0  0  0  0  0  0  0  0  0  0  0
    0.2370   -1.0600   -1.4600 C   0  0  0  0  0  0  0  0  0  0  0  0
    0.5380    0.2820   -1.8220 C   0  0  0  0  0  0  0  0  0  0  0  0
    0.1170    0.5150   -3.1140 O   0  0  0  0  0  0  0  0  0  0  0  0
   -0.4090   -0.3190   -4.0310 C   0  0  0  0  0  0  0  0  0  0  0  0
    1.2650    1.1420   -0.9080 C   0  0  0  0  0  0  0  0  0  0  0  0
    1.1490    2.6350   -1.0400 C   0  0  2  0  0  0  0  0  0  0  0  0
    1.8360    3.4320   -2.0400 C   0  0  0  0  0  0  0  0  0  0  0  0
    0.9770    3.3220    0.2820 N   0  0  0  0  0  0  0  0  0  0  0  0
    1.0070    4.6150    0.6610 C   0  0  0  0  0  0  0  0  0  0  0  0
    1.9550    5.1560    1.3480 O   0  0  0  0  0  0  0  0  0  0  0  0
   -0.1040    5.6010    0.3010 N   0  0  0  0  0  0  0  0  0  0  0  0
   -1.4230    4.9650    0.5690 C   0  0  0  0  0  0  0  0  0  0  0  0
   -1.9860    4.1750   -0.3910 C   0  0  0  0  0  0  0  0  0  0  0  0
   -2.9980    3.2240   -0.0900 C   0  0  0  0  0  0  0  0  0  0  0  0
   -3.5050    3.0290    1.1900 C   0  0  0  0  0  0  0  0  0  0  0  0
   -2.9520    3.8370    2.1720 C   0  0  0  0  0  0  0  0  0  0  0  0
   -1.9010    4.8050    1.8280 C   0  0  0  0  0  0  0  0  0  0  0  0
   -4.5000    1.9500    1.5180 C   0  0  0  0  0  0  0  0  0  0  0  0
   -4.1460    0.7240    1.8910 C   0  0  0  0  0  0  0  0  0  0  0  0
   -2.9620   -0.0340    1.3490 C   0  0  0  0  0  0  0  0  0  0  0  0
   -3.4240   -0.9020    0.2310 C   0  0  0  0  0  0  0  0  0  0  0  0
   -4.1800   -0.2270   -0.7200 C   0  0  0  0  0  0  0  0  0  0  0  0
   -4.7170   -0.8810   -1.8160 C   0  0  0  0  0  0  0  0  0  0  0  0
   -4.4940   -2.2350   -1.9460 C   0  0  0  0  0  0  0  0  0  0  0  0
   -3.7360   -2.8650   -0.9830 C   0  0  0  0  0  0  0  0  0  0  0  0
   -3.7770   -4.3850   -1.1680 C   0  0  0  0  0  0  0  0  0  0  0  0
   -4.7600   -5.0090   -0.3320 C   0  0  0  0  0  0  0  0  0  0  0  0
   -5.5740   -5.5110    0.3750 N   0  0  0  0  0  0  0  0  0  0  0  0
   -3.1670   -2.2740    0.1100 C   0  0  0  0  0  0  0  0  0  0  0  0
   -2.3330   -3.0390    1.0370 C   0  0  0  0  0  0  0  0  0  0  0  0
   -3.0500   -3.9200    1.7440 O   0  0  0  0  0  0  0  0  0  0  0  0
   -0.9170   -2.9600    1.2210 N   0  0  0  0  0  0  0  0  0  0  0  0
    0.2540   -2.8770    0.4050 N   0  0  0  0  0  0  0  0  0  0  0  0
    1.1350   -4.0880    0.5570 C   0  0  0  0  0  0  0  0  0  0  0  0
  1  2  1  0
  2  3  1  0
  3  4  1  0
  3  8  2  0
  4  5  1  0
  4  6  2  0
  6  7  1  0
  7  8  1  0
  8  9  1  0
  9 10  1  0
 10 11  2  0
 10 17  1  0
 11 12  1  0
 12 13  2  0
 12 45  1  0
 13 14  1  0
 14 15  1  0
 14 17  2  0
 15 16  1  0
 17 18  1  0
 18 19  1  1
 18 20  1  0
 20 21  1  0
 21 22  2  0
 21 23  1  0
 23 24  1  0
 24 25  2  0
 24 29  1  0
 25 26  1  0
 26 27  2  0
 27 28  1  0
 27 30  1  0
 28 29  2  0
 30 31  2  0
 31 32  1  0
 32 33  1  0
 33 34  2  0
 33 41  1  0
 34 35  1  0
 35 36  2  0
 36 37  1  0
 37 38  1  0
 37 41  2  0
 38 39  1  0
 39 40  3  0
 41 42  1  0
 42 43  2  0
 42 44  1  0
 44 45  1  0
 45 46  1  0
M  END
