
     RDKit          3D

 46 53  0  0  0  0  0  0  0  0999 V2000
   -4.8880   -1.8850   -2.0270 O   0  0  0  0  0  0  0  0  0  0  0  0
   -4.1440   -1.3210   -1.1800 C   0  0  0  0  0  0  0  0  0  0  0  0
   -2.9510   -1.9930   -0.7600 N   0  0  0  0  0  0  0  0  0  0  0  0
   -1.5850   -1.7140   -1.1490 C   0  0  0  0  0  0  0  0  0  0  0  0
   -0.5990   -2.6520   -1.4150 C   0  0  0  0  0  0  0  0  0  0  0  0
    0.7630   -2.3250   -1.6410 C   0  0  0  0  0  0  0  0  0  0  0  0
    1.2110   -1.0390   -1.6170 C   0  0  0  0  0  0  0  0  0  0  0  0
    0.2700   -0.0900   -1.3780 C   0  0  0  0  0  0  0  0  0  0  0  0
   -1.1030   -0.4130   -1.1450 C   0  0  0  0  0  0  0  0  0  0  0  0
    2.6250   -0.6510   -1.6650 N   0  0  0  0  0  0  0  0  0  0  0  0
    3.3940   -0.5940   -0.6160 C   0  0  0  0  0  0  0  0  0  0  0  0
    4.7780   -0.1840   -0.8570 C   0  0  0  0  0  0  0  0  0  0  0  0
    5.8720   -0.5550   -0.1550 N   0  0  0  0  0  0  0  0  0  0  0  0
    6.9870    0.0100   -0.6500 C   0  0  0  0  0  0  0  0  0  0  0  0
    8.3760   -0.1580   -0.1470 C   0  0  1  0  0  0  0  0  0  0  0  0
    9.2640   -0.7530   -1.1910 C   0  0  0  0  0  0  0  0  0  0  0  0
    9.8590    0.3520   -2.0220 C   0  0  0  0  0  0  0  0  0  0  0  0
   10.8130    1.1720   -1.1980 C   0  0  0  0  0  0  0  0  0  0  0  0
   10.4440    1.1610    0.2720 C   0  0  0  0  0  0  0  0  0  0  0  0
    8.9360    1.1580    0.3490 C   0  0  0  0  0  0  0  0  0  0  0  0
    6.5560    0.7490   -1.6880 N   0  0  0  0  0  0  0  0  0  0  0  0
    5.2450    0.6390   -1.8180 N   0  0  0  0  0  0  0  0  0  0  0  0
    3.0130   -0.9000    0.7270 N   0  0  0  0  0  0  0  0  0  0  0  0
    1.7280   -0.7110    1.3760 C   0  0  0  0  0  0  0  0  0  0  0  0
    1.2410   -1.9630    1.8470 C   0  0  0  0  0  0  0  0  0  0  0  0
   -0.0210   -2.1620    2.3510 C   0  0  0  0  0  0  0  0  0  0  0  0
   -0.8220   -1.0340    2.3740 C   0  0  0  0  0  0  0  0  0  0  0  0
   -2.1210   -0.8490    2.7520 N   0  0  0  0  0  0  0  0  0  0  0  0
   -2.3770    0.4400    2.5160 C   0  0  0  0  0  0  0  0  0  0  0  0
   -1.3280    1.0230    2.0360 O   0  0  0  0  0  0  0  0  0  0  0  0
   -0.3570    0.1710    1.9250 C   0  0  0  0  0  0  0  0  0  0  0  0
    0.9250    0.3950    1.4190 C   0  0  0  0  0  0  0  0  0  0  0  0
   -3.6390    1.2080    2.7170 C   0  0  2  0  0  0  0  0  0  0  0  0
   -4.5700    0.5000    3.6270 C   0  0  0  0  0  0  0  0  0  0  0  0
   -5.0670   -0.6890    3.0110 N   0  0  0  0  0  0  0  0  0  0  0  0
   -5.1300   -0.8420    1.6090 C   0  0  0  0  0  0  0  0  0  0  0  0
   -5.5650   -1.8920    1.1410 O   0  0  0  0  0  0  0  0  0  0  0  0
   -4.7000    0.1930    0.7090 N   0  0  0  0  0  0  0  0  0  0  0  0
   -4.3370    1.4230    1.3710 C   0  0  0  0  0  0  0  0  0  0  0  0
   -4.6280    0.0150   -0.7170 C   0  0  2  0  0  0  0  0  0  0  0  0
   -5.9000    0.4500   -1.4150 C   0  0  2  0  0  0  0  0  0  0  0  0
   -6.2600    1.8800   -1.0430 C   0  0  0  0  0  0  0  0  0  0  0  0
   -7.4770    1.8800   -0.1460 C   0  0  0  0  0  0  0  0  0  0  0  0
   -8.6820    1.4130   -0.9420 C   0  0  0  0  0  0  0  0  0  0  0  0
   -8.2520    0.3090   -1.9170 C   0  0  0  0  0  0  0  0  0  0  0  0
   -7.0910   -0.4220   -1.1950 C   0  0  0  0  0  0  0  0  0  0  0  0
  1  2  2  0
  2  3  1  0
  2 40  1  0
  3  4  1  0
  4  5  2  0
  4  9  1  0
  5  6  1  0
  6  7  2  0
  7  8  1  0
  7 10  1  0
  8  9  2  0
 10 11  2  0
 11 12  1  0
 11 23  1  0
 12 13  2  0
 12 22  1  0
 13 14  1  0
 15 14  1  6
 14 21  2  0
 15 16  1  0
 15 20  1  0
 16 17  1  0
 17 18  1  0
 18 19  1  0
 19 20  1  0
 21 22  1  0
 23 24  1  0
 24 25  2  0
 24 32  1  0
 25 26  1  0
 26 27  2  0
 27 28  1  0
 27 31  1  0
 28 29  2  0
 29 30  1  0
 29 33  1  0
 30 31  1  0
 31 32  2  0
 33 34  1  1
 33 39  1  0
 34 35  1  0
 35 36  1  0
 36 37  2  0
 36 38  1  0
 38 39  1  0
 40 38  1  1
 40 41  1  0
 41 42  1  1
 41 46  1  0
 42 43  1  0
 43 44  1  0
 44 45  1  0
 45 46  1  0
M  END
