
     RDKit          3D

 30 33  0  0  0  0  0  0  0  0999 V2000
    3.6260    1.8360   -4.3680 C   0  0  0  0  0  0  0  0  0  0  0  0
    2.9170    1.7990   -3.1520 O   0  0  0  0  0  0  0  0  0  0  0  0
    3.0110    0.7620   -2.2440 C   0  0  0  0  0  0  0  0  0  0  0  0
    3.7840   -0.1880   -2.5610 O   0  0  0  0  0  0  0  0  0  0  0  0
    2.2920    0.6900   -0.9700 C   0  0  2  0  0  0  0  0  0  0  0  0
    2.6260   -0.5460   -0.2910 N   0  0  0  0  0  0  0  0  0  0  0  0
    3.2990   -0.5610    0.9670 C   0  0  0  0  0  0  0  0  0  0  0  0
    3.6110    0.5190    1.5040 O   0  0  0  0  0  0  0  0  0  0  0  0
    3.6090   -1.7830    1.5940 N   0  0  0  0  0  0  0  0  0  0  0  0
    4.4520   -1.8500    3.1730 P   0  0  0  0  0  0  0  0  0  0  0  0
    6.0690   -2.4340    2.9080 O   0  0  0  0  0  0  0  0  0  0  0  0
    4.4790   -0.2660    3.8920 O   0  0  0  0  0  0  0  0  0  0  0  0
    0.8640    0.9070   -1.0630 N   0  0  0  0  0  0  0  0  0  0  0  0
    0.2090   -0.1010   -1.8690 C   0  0  0  0  0  0  0  0  0  0  0  0
   -1.1700   -0.4840   -1.5130 C   0  0  0  0  0  0  0  0  0  0  0  0
   -1.4540   -0.3760   -0.0460 C   0  0  2  0  0  0  0  0  0  0  0  0
   -2.9370   -0.0430    0.2260 C   0  0  2  0  0  0  0  0  0  0  0  0
   -3.1920    1.0900   -0.5490 O   0  0  0  0  0  0  0  0  0  0  0  0
   -4.4780    0.9040   -1.6570 P   0  0  0  0  0  0  0  0  0  0  0  0
   -6.0460    0.9930   -0.8770 O   0  0  0  0  0  0  0  0  0  0  0  0
   -4.4170    2.2570   -2.7740 O   0  0  0  0  0  0  0  0  0  0  0  0
   -2.8480    0.3190    1.7010 C   0  0  1  0  0  0  0  0  0  0  0  0
   -3.1090   -0.8340    2.4410 O   0  0  0  0  0  0  0  0  0  0  0  0
   -4.3720   -0.6430    3.5860 P   0  0  0  0  0  0  0  0  0  0  0  0
   -4.2480   -1.7880    4.8900 O   0  0  0  0  0  0  0  0  0  0  0  0
   -5.9370   -0.8330    2.8240 O   0  0  0  0  0  0  0  0  0  0  0  0
   -1.4290    0.7400    1.8390 C   0  0  0  0  0  0  0  0  0  0  0  0
   -0.1730    1.0490    1.5660 N   0  0  0  0  0  0  0  0  0  0  0  0
    0.3610    0.9730    0.1950 N   0  0  0  0  0  0  0  0  0  0  0  0
   -0.8910    0.7820    0.5250 N   0  0  2  0  0  0  0  0  0  0  0  0
  1  2  1  0
  2  3  1  0
  3  4  2  0
  3  5  1  0
  5  6  1  6
  5 13  1  0
  6  7  1  0
  7  8  2  0
  7  9  1  0
  9 10  1  0
 10 11  1  0
 10 12  1  0
 13 14  1  0
 13 29  1  0
 14 15  1  0
 16 15  1  6
 16 17  1  0
 16 30  1  0
 17 18  1  6
 17 22  1  0
 18 19  1  0
 19 20  1  0
 19 21  1  0
 22 23  1  1
 22 27  1  0
 23 24  1  0
 24 25  1  0
 24 26  1  0
 27 28  2  0
 27 30  1  0
 28 29  1  0
 28 30  1  0
 30 29  1  6
M  CHG  2  28   1  30   1
M  END
