
     RDKit          3D

 30 31  0  0  0  0  0  0  0  0999 V2000
   -6.0570    1.6070    0.5250 O   0  0  0  0  0  0  0  0  0  0  0  0
   -4.6030    1.2130    0.8890 P   0  0  0  0  0  0  0  0  0  0  0  0
   -3.2540    2.3890    0.3190 C   0  0  1  0  0  0  0  0  0  0  0  0
   -3.4950    3.6630    0.7310 O   0  0  0  0  0  0  0  0  0  0  0  0
   -3.8330    3.8250    2.4190 P   0  0  0  0  0  0  0  0  0  0  0  0
   -5.2400    4.8870    2.5450 O   0  0  0  0  0  0  0  0  0  0  0  0
   -4.3510    2.3150    3.1130 O   0  0  0  0  0  0  0  0  0  0  0  0
   -1.9310    1.8650    0.5310 N   0  0  0  0  0  0  0  0  0  0  0  0
   -1.6410    0.8180   -0.1400 C   0  0  0  0  0  0  0  0  0  0  0  0
   -0.3300    0.3150    0.0520 O   0  0  0  0  0  0  0  0  0  0  0  0
    0.2750   -0.6840   -0.7600 C   0  0  1  0  0  0  0  0  0  0  0  0
    1.7310   -0.7220   -0.7600 C   0  0  0  0  0  0  0  0  0  0  0  0
    2.3970   -1.1070    0.4740 N   0  0  0  0  0  0  0  0  0  0  0  0
    3.8300   -0.9950    0.1060 C   0  0  0  0  0  0  0  0  0  0  0  0
    4.6160   -0.4500    1.2440 C   0  0  0  0  0  0  0  0  0  0  0  0
    5.8790   -0.1190    0.6810 O   0  0  0  0  0  0  0  0  0  0  0  0
    6.1240    1.5920    1.0960 P   0  0  0  0  0  0  0  0  0  0  0  0
    6.7010    2.3780   -0.3360 O   0  0  0  0  0  0  0  0  0  0  0  0
    7.1210    1.7320    2.4360 O   0  0  0  0  0  0  0  0  0  0  0  0
   -0.3860   -2.0310   -0.3830 C   0  0  2  0  0  0  0  0  0  0  0  0
    0.4660   -3.1630   -0.8180 C   0  0  0  0  0  0  0  0  0  0  0  0
    1.6160   -3.2090   -1.1170 O   0  0  0  0  0  0  0  0  0  0  0  0
   -0.2540   -4.4320   -0.8820 N   0  0  0  0  0  0  0  0  0  0  0  0
    0.4150   -5.5050   -1.4090 O   0  0  0  0  0  0  0  0  0  0  0  0
   -1.6020   -2.0890   -1.1930 N   0  0  0  0  0  0  0  0  0  0  0  0
   -2.6450   -1.1220   -1.4100 C   0  0  0  0  0  0  0  0  0  0  0  0
   -3.6750   -1.5080   -1.9780 O   0  0  0  0  0  0  0  0  0  0  0  0
   -2.6390    0.2300   -0.9720 N   0  0  0  0  0  0  0  0  0  0  0  0
   -3.7470    1.0240   -1.5290 C   0  0  0  0  0  0  0  0  0  0  0  0
   -3.4310    2.3950   -1.1580 N   0  0  0  0  0  0  0  0  0  0  0  0
  1  2  2  0
  2  3  1  0
  3  4  1  1
  3  8  1  0
  3 30  1  0
  4  5  1  0
  5  6  1  0
  5  7  1  0
  8  9  2  0
  9 10  1  0
  9 28  1  0
 10 11  1  0
 11 12  1  1
 11 20  1  0
 12 13  1  0
 13 14  1  0
 14 15  1  0
 15 16  1  0
 16 17  1  0
 17 18  1  0
 17 19  1  0
 20 21  1  6
 20 25  1  0
 21 22  2  0
 21 23  1  0
 23 24  1  0
 25 26  1  0
 26 27  2  0
 26 28  1  0
 28 29  1  0
 29 30  1  0
M  END
