
     RDKit          3D

 30 32  0  0  0  0  0  0  0  0999 V2000
   -6.6160    1.4930   -0.5940 O   0  0  0  0  0  0  0  0  0  0  0  0
   -5.4470    1.4110   -1.5960 P   0  0  0  0  0  0  0  0  0  0  0  0
   -3.6650    1.2400   -1.0220 C   0  0  2  0  0  0  0  0  0  0  0  0
   -3.7100    0.8160    0.2750 O   0  0  0  0  0  0  0  0  0  0  0  0
   -3.1120   -0.4080    0.4990 C   0  0  2  0  0  0  0  0  0  0  0  0
   -3.2480   -0.6870    1.8650 O   0  0  0  0  0  0  0  0  0  0  0  0
   -2.5030    0.1920    2.4890 O   0  0  0  0  0  0  0  0  0  0  0  0
   -1.3500    0.3710    1.7710 C   0  0  0  0  0  0  0  0  0  0  0  0
   -1.6110   -0.2830    0.4050 C   0  0  1  0  0  0  0  0  0  0  0  0
   -0.9100   -1.5270    0.4350 N   0  0  0  0  0  0  0  0  0  0  0  0
    0.5220   -1.4560    0.3670 C   0  0  0  0  0  0  0  0  0  0  0  0
    1.2580   -2.5010    0.3940 O   0  0  0  0  0  0  0  0  0  0  0  0
    1.1850   -0.2100    0.2640 N   0  0  0  0  0  0  0  0  0  0  0  0
    2.5780   -0.1490    0.1980 C   0  0  0  0  0  0  0  0  0  0  0  0
    3.4170   -1.2100    0.2220 N   0  0  0  0  0  0  0  0  0  0  0  0
    4.6390   -0.7280    0.1390 N   0  0  0  0  0  0  0  0  0  0  0  0
    4.5940    0.6050    0.0630 C   0  0  0  0  0  0  0  0  0  0  0  0
    5.7190    1.4780   -0.0380 N   0  0  0  0  0  0  0  0  0  0  0  0
    7.3820    0.7940   -0.0730 P   0  0  0  0  0  0  0  0  0  0  0  0
    7.4160   -0.5640   -1.1520 O   0  0  0  0  0  0  0  0  0  0  0  0
    8.5160    1.9630   -0.6400 O   0  0  0  0  0  0  0  0  0  0  0  0
    3.3200    0.9710    0.0990 N   0  0  0  0  0  0  0  0  0  0  0  0
   -1.4780   -2.8220    0.5310 C   0  0  0  0  0  0  0  0  0  0  0  0
   -0.9250   -3.7140    1.2780 O   0  0  0  0  0  0  0  0  0  0  0  0
   -2.7050   -3.2670   -0.1810 C   0  0  0  0  0  0  0  0  0  0  0  0
   -3.6760   -1.7440   -0.5950 P   0  0  0  0  0  0  0  0  0  0  0  0
   -5.3690   -2.0560   -0.4720 O   0  0  0  0  0  0  0  0  0  0  0  0
   -3.0920    2.6050   -1.0750 C   0  0  0  0  0  0  0  0  0  0  0  0
   -2.9370    3.2290   -2.1620 O   0  0  0  0  0  0  0  0  0  0  0  0
   -2.7140    3.2160    0.1010 O   0  0  0  0  0  0  0  0  0  0  0  0
  1  2  2  0
  2  3  1  0
  3  4  1  1
  3 28  1  0
  5  4  1  6
  5  6  1  0
  5  9  1  0
  5 26  1  0
  6  7  1  0
  7  8  1  0
  9  8  1  1
  9 10  1  0
 10 11  1  0
 10 23  1  0
 11 12  2  0
 11 13  1  0
 13 14  1  0
 14 15  2  0
 14 22  1  0
 15 16  1  0
 16 17  2  0
 17 18  1  0
 17 22  1  0
 18 19  1  0
 19 20  1  0
 19 21  1  0
 23 24  2  0
 23 25  1  0
 25 26  1  0
 26 27  1  0
 28 29  2  0
 28 30  1  0
M  END
