
     RDKit          3D

 30 31  0  0  0  0  0  0  0  0999 V2000
    5.4190   -0.6910   -0.8210 N   0  0  0  0  0  0  0  0  0  0  0  0
    4.6770   -0.5410    0.2180 C   0  0  0  0  0  0  0  0  0  0  0  0
    5.1950   -0.8320    1.5080 N   0  0  0  0  0  0  0  0  0  0  0  0
    6.9560   -1.0870    1.7550 P   0  0  0  0  0  0  0  0  0  0  0  0
    7.4970   -0.8980    3.1960 O   0  0  0  0  0  0  0  0  0  0  0  0
    3.3520   -0.0700    0.0260 N   0  0  0  0  0  0  0  0  0  0  0  0
    2.4320   -0.5030   -0.8260 N   0  0  0  0  0  0  0  0  0  0  0  0
    1.2910    0.1920   -0.7250 C   0  0  0  0  0  0  0  0  0  0  0  0
    0.0030    0.0920   -1.4560 C   0  0  2  0  0  0  0  0  0  0  0  0
    0.1170   -0.4370   -2.7260 O   0  0  0  0  0  0  0  0  0  0  0  0
    0.7770   -2.0100   -2.7960 P   0  0  0  0  0  0  0  0  0  0  0  0
   -0.4030   -3.2550   -3.0570 O   0  0  0  0  0  0  0  0  0  0  0  0
    2.0560   -2.1360   -3.9710 O   0  0  0  0  0  0  0  0  0  0  0  0
   -0.4850    1.5620   -1.5610 C   0  0  0  0  0  0  0  0  0  0  0  0
   -0.8300    1.7390   -0.2220 O   0  0  0  0  0  0  0  0  0  0  0  0
   -1.6090    0.5860    0.0350 C   0  0  1  0  0  0  0  0  0  0  0  0
   -1.4980    0.2090    1.5050 C   0  0  0  0  0  0  0  0  0  0  0  0
   -2.2800   -0.9530    1.8440 N   0  0  0  0  0  0  0  0  0  0  0  0
   -2.2300   -1.3420    3.2310 C   0  0  0  0  0  0  0  0  0  0  0  0
   -1.5510   -0.7120    4.0770 O   0  0  0  0  0  0  0  0  0  0  0  0
   -2.9560   -2.4500    3.6510 O   0  0  0  0  0  0  0  0  0  0  0  0
   -3.0090    0.9640   -0.3210 C   0  0  0  0  0  0  0  0  0  0  0  0
   -3.9560   -0.0070   -0.1240 O   0  0  0  0  0  0  0  0  0  0  0  0
   -5.4850    0.7220   -0.5990 P   0  0  0  0  0  0  0  0  0  0  0  0
   -5.7630    1.9980    0.5740 O   0  0  0  0  0  0  0  0  0  0  0  0
   -5.2660    1.5510   -2.1330 O   0  0  0  0  0  0  0  0  0  0  0  0
   -1.0430   -0.4210   -0.7030 O   0  0  0  0  0  0  0  0  0  0  0  0
    1.5530    1.0960    0.2520 N   0  0  0  0  0  0  0  0  0  0  0  0
    2.7860    0.9400    0.7020 C   0  0  0  0  0  0  0  0  0  0  0  0
    3.3720    1.7020    1.7030 O   0  0  0  0  0  0  0  0  0  0  0  0
  1  2  2  0
  2  3  1  0
  2  6  1  0
  3  4  1  0
  4  5  2  0
  6  7  1  0
  6 29  1  0
  7  8  2  0
  8  9  1  0
  8 28  1  0
  9 10  1  6
  9 14  1  0
  9 27  1  0
 10 11  1  0
 11 12  1  0
 11 13  1  0
 14 15  1  0
 15 16  1  0
 16 17  1  1
 16 22  1  0
 16 27  1  0
 17 18  1  0
 18 19  1  0
 19 20  2  0
 19 21  1  0
 22 23  1  0
 23 24  1  0
 24 25  1  0
 24 26  1  0
 28 29  2  0
 29 30  1  0
M  END
