
     RDKit          3D

 30 31  0  0  0  0  0  0  0  0999 V2000
    8.8010    3.2610   -0.1100 O   0  0  0  0  0  0  0  0  0  0  0  0
    8.8700    1.8150   -0.6610 P   0  0  0  0  0  0  0  0  0  0  0  0
    7.2670    0.8420   -0.8130 C   0  0  0  0  0  0  0  0  0  0  0  0
    6.1820    1.4840   -0.0290 C   0  0  0  0  0  0  0  0  0  0  0  0
    4.9300    0.7710   -0.1180 N   0  0  0  0  0  0  0  0  0  0  0  0
    4.9200   -0.4750    0.5450 C   0  0  1  0  0  0  0  0  0  0  0  0
    4.6870   -0.3190    1.9310 O   0  0  0  0  0  0  0  0  0  0  0  0
    4.0440   -1.5470    0.0030 C   0  0  0  0  0  0  0  0  0  0  0  0
    2.6380   -1.3850    0.1860 N   0  0  0  0  0  0  0  0  0  0  0  0
    1.7970   -0.3880   -0.3500 C   0  0  0  0  0  0  0  0  0  0  0  0
    2.2320    0.4850   -1.0980 O   0  0  0  0  0  0  0  0  0  0  0  0
    0.3530   -0.3860   -0.0110 C   0  0  0  0  0  0  0  0  0  0  0  0
   -0.6330    0.3790   -0.4730 N   0  0  0  0  0  0  0  0  0  0  0  0
   -1.7350    0.0370    0.1580 O   0  0  0  0  0  0  0  0  0  0  0  0
   -1.5050   -0.9150    1.0050 C   0  0  0  0  0  0  0  0  0  0  0  0
   -2.4680   -1.5760    1.9080 C   0  0  0  0  0  0  0  0  0  0  0  0
   -3.4430   -2.2620    1.1690 O   0  0  0  0  0  0  0  0  0  0  0  0
   -4.3260   -1.6170    0.3130 C   0  0  0  0  0  0  0  0  0  0  0  0
   -4.7900   -0.4630    0.6500 N   0  0  0  0  0  0  0  0  0  0  0  0
   -5.6900    0.3700   -0.0470 C   0  0  2  0  0  0  0  0  0  0  0  0
   -5.0440    1.4240   -0.7240 O   0  0  0  0  0  0  0  0  0  0  0  0
   -5.9640    2.1470   -1.3380 O   0  0  0  0  0  0  0  0  0  0  0  0
   -6.7380    1.2000    1.2980 P   0  0  0  0  0  0  0  0  0  0  0  0
   -5.8680    1.2880    2.7730 O   0  0  0  0  0  0  0  0  0  0  0  0
   -7.3450    2.7010    0.7420 O   0  0  0  0  0  0  0  0  0  0  0  0
   -6.6020   -0.2080   -0.8840 O   0  0  0  0  0  0  0  0  0  0  0  0
   -5.8160   -1.3210   -1.9630 P   0  0  0  0  0  0  0  0  0  0  0  0
   -4.8320   -0.4290   -3.0890 O   0  0  0  0  0  0  0  0  0  0  0  0
   -4.6850   -2.2490   -0.9030 N   0  0  0  0  0  0  0  0  0  0  0  0
   -0.1980   -1.2010    0.9180 N   0  0  0  0  0  0  0  0  0  0  0  0
  1  2  2  0
  2  3  1  0
  3  4  1  0
  4  5  1  0
  5  6  1  0
  6  7  1  1
  6  8  1  0
  8  9  1  0
  9 10  1  0
 10 11  2  0
 10 12  1  0
 12 13  2  0
 12 30  1  0
 13 14  1  0
 14 15  1  0
 15 16  1  0
 15 30  2  0
 16 17  1  0
 17 18  1  0
 18 19  2  0
 18 29  1  0
 19 20  1  0
 20 21  1  6
 20 23  1  0
 20 26  1  0
 21 22  1  0
 23 24  1  0
 23 25  1  0
 26 27  1  0
 27 28  1  0
 27 29  1  0
M  END
