
     RDKit          3D

 31 32  0  0  0  0  0  0  0  0999 V2000
   -2.4660   -4.3360    0.2670 C   0  0  0  0  0  0  0  0  0  0  0  0
   -3.4010   -3.5480   -0.6320 C   0  0  0  0  0  0  0  0  0  0  0  0
   -2.8120   -2.3500   -1.0770 O   0  0  0  0  0  0  0  0  0  0  0  0
   -2.3780   -1.3430   -0.1970 C   0  0  0  0  0  0  0  0  0  0  0  0
   -2.8310   -1.2740    1.0140 N   0  0  0  0  0  0  0  0  0  0  0  0
   -2.2560   -0.1960    1.6840 N   0  0  0  0  0  0  0  0  0  0  0  0
   -1.8670    0.7480    0.6420 C   0  0  1  0  0  0  0  0  0  0  0  0
   -3.0580    1.4570    0.2910 N   0  0  0  0  0  0  0  0  0  0  0  0
   -3.5680    2.4480    1.1430 C   0  0  0  0  0  0  0  0  0  0  0  0
   -4.6100    3.0650    0.8430 O   0  0  0  0  0  0  0  0  0  0  0  0
   -2.9650    2.7950    2.3420 O   0  0  0  0  0  0  0  0  0  0  0  0
   -3.9000    1.0770   -1.2300 P   0  0  0  0  0  0  0  0  0  0  0  0
   -5.2180   -0.0510   -0.9500 O   0  0  0  0  0  0  0  0  0  0  0  0
   -4.6120    2.4910   -1.9320 O   0  0  0  0  0  0  0  0  0  0  0  0
   -0.4530    1.8130    1.0880 P   0  0  0  0  0  0  0  0  0  0  0  0
   -0.3490    2.1770    2.7570 O   0  0  0  0  0  0  0  0  0  0  0  0
   -0.5620    3.2760    0.1520 O   0  0  0  0  0  0  0  0  0  0  0  0
   -1.4370   -0.2660   -0.3860 C   0  0  1  0  0  0  0  0  0  0  0  0
   -0.1120   -0.7170   -0.0300 N   0  0  0  0  0  0  0  0  0  0  0  0
    0.7600    0.1810   -0.7280 C   0  0  0  0  0  0  0  0  0  0  0  0
    2.1800    0.3990   -0.3720 C   0  0  0  0  0  0  0  0  0  0  0  0
    2.6780   -0.2230    0.5860 O   0  0  0  0  0  0  0  0  0  0  0  0
    2.9370    1.3110   -1.1330 N   0  0  0  0  0  0  0  0  0  0  0  0
    4.3040    1.6180   -0.9160 C   0  0  0  0  0  0  0  0  0  0  0  0
    5.2850    0.5120   -1.0820 C   0  0  0  0  0  0  0  0  0  0  0  0
    5.0270   -0.5210   -0.2080 O   0  0  0  0  0  0  0  0  0  0  0  0
    6.2240   -1.7540   -0.4760 P   0  0  0  0  0  0  0  0  0  0  0  0
    6.5100   -2.6710    0.9640 O   0  0  0  0  0  0  0  0  0  0  0  0
    7.6590   -0.9890   -1.0560 O   0  0  0  0  0  0  0  0  0  0  0  0
    0.0760    0.7150   -1.6610 N   0  0  0  0  0  0  0  0  0  0  0  0
   -1.2380    0.2390   -1.6600 O   0  0  0  0  0  0  0  0  0  0  0  0
  1  2  1  0
  2  3  1  0
  3  4  1  0
  4  5  2  0
  4 18  1  0
  5  6  1  0
  6  7  1  0
  7  8  1  6
  7 15  1  0
  7 18  1  0
  8  9  1  0
  8 12  1  0
  9 10  2  0
  9 11  1  0
 12 13  1  0
 12 14  1  0
 15 16  1  0
 15 17  1  0
 18 19  1  1
 18 31  1  0
 19 20  1  0
 20 21  1  0
 20 30  2  0
 21 22  2  0
 21 23  1  0
 23 24  1  0
 24 25  1  0
 25 26  1  0
 26 27  1  0
 27 28  1  0
 27 29  1  0
 30 31  1  0
M  END
