
     RDKit          3D

 31 32  0  0  0  0  0  0  0  0999 V2000
   -0.9790   -0.1060    1.0820 N   0  0  0  0  0  0  0  0  0  0  0  0
   -1.7880    0.1540    0.1050 C   0  0  0  0  0  0  0  0  0  0  0  0
   -2.7830    1.1230    0.4130 N   0  0  0  0  0  0  0  0  0  0  0  0
   -3.6520    1.1180    2.0070 P   0  0  0  0  0  0  0  0  0  0  0  0
   -5.1110    0.1990    1.7650 O   0  0  0  0  0  0  0  0  0  0  0  0
   -4.0750    2.7250    2.4280 O   0  0  0  0  0  0  0  0  0  0  0  0
   -5.7880    2.9080    2.6070 P   0  0  0  0  0  0  0  0  0  0  0  0
   -6.2680    2.9020    4.2710 O   0  0  0  0  0  0  0  0  0  0  0  0
   -6.6560    1.7360    1.6790 O   0  0  0  0  0  0  0  0  0  0  0  0
   -1.6740   -0.4510   -1.1650 N   0  0  0  0  0  0  0  0  0  0  0  0
   -2.6090   -0.1370   -2.1880 C   0  0  0  0  0  0  0  0  0  0  0  0
   -2.4600   -0.7490   -3.4880 N   0  0  0  0  0  0  0  0  0  0  0  0
   -3.5400    0.6490   -1.9690 O   0  0  0  0  0  0  0  0  0  0  0  0
   -0.5800   -1.3810   -1.4790 C   0  0  1  0  0  0  0  0  0  0  0  0
    0.7540   -0.8030   -1.3020 C   0  0  0  0  0  0  0  0  0  0  0  0
    1.6520   -0.6760   -2.2500 N   0  0  0  0  0  0  0  0  0  0  0  0
    2.7940   -0.1060   -1.7890 O   0  0  0  0  0  0  0  0  0  0  0  0
    2.7410   -0.2250   -0.3790 C   0  0  1  0  0  0  0  0  0  0  0  0
    3.3130    1.0530    0.1880 C   0  0  0  0  0  0  0  0  0  0  0  0
    4.6630    1.2820   -0.2120 N   0  0  0  0  0  0  0  0  0  0  0  0
    5.9080    0.8620    0.4470 C   0  0  0  0  0  0  0  0  0  0  0  0
    6.8790    1.9110   -0.0370 C   0  0  0  0  0  0  0  0  0  0  0  0
    6.4420    2.0850   -1.3920 O   0  0  0  0  0  0  0  0  0  0  0  0
    5.0470    1.9970   -1.3810 C   0  0  0  0  0  0  0  0  0  0  0  0
    4.3130    2.4850   -2.2770 O   0  0  0  0  0  0  0  0  0  0  0  0
    1.3590   -0.2810   -0.1660 O   0  0  0  0  0  0  0  0  0  0  0  0
   -0.7670   -2.7490   -0.8820 C   0  0  2  0  0  0  0  0  0  0  0  0
   -1.9810   -3.2690   -1.3670 O   0  0  0  0  0  0  0  0  0  0  0  0
   -0.5350   -2.9210    0.9090 P   0  0  0  0  0  0  0  0  0  0  0  0
   -1.3620   -4.3740    1.4350 O   0  0  0  0  0  0  0  0  0  0  0  0
    1.1560   -3.1720    1.3000 O   0  0  0  0  0  0  0  0  0  0  0  0
  1  2  2  0
  2  3  1  0
  2 10  1  0
  3  4  1  0
  4  5  1  0
  4  6  1  0
  6  7  1  0
  7  8  1  0
  7  9  1  0
 10 11  1  0
 14 10  1  1
 11 12  1  0
 11 13  2  0
 14 15  1  0
 14 27  1  0
 15 16  2  0
 15 26  1  0
 16 17  1  0
 17 18  1  0
 18 19  1  1
 18 26  1  0
 19 20  1  0
 20 21  1  0
 20 24  1  0
 21 22  1  0
 22 23  1  0
 23 24  1  0
 24 25  2  0
 27 28  1  1
 27 29  1  0
 29 30  1  0
 29 31  1  0
M  END
