
     RDKit          3D

 11 11  0  0  0  0  0  0  0  0999 V2000
    2.8570   -0.5680    0.4910 O   0  0  0  0  0  0  0  0  0  0  0  0
    2.0290   -0.0500   -0.5760 C   0  0  0  0  0  0  0  0  0  0  0  0
    0.6070    0.0540   -0.0930 C   0  0  0  0  0  0  0  0  0  0  0  0
   -0.1020   -1.0290    0.3830 C   0  0  0  0  0  0  0  0  0  0  0  0
   -1.4360   -1.0340    0.6650 C   0  0  0  0  0  0  0  0  0  0  0  0
   -2.0990   -2.1400    1.1450 O   0  0  0  0  0  0  0  0  0  0  0  0
   -2.0690    0.1530    0.4550 C   0  0  0  0  0  0  0  0  0  0  0  0
   -1.3970    1.2890   -0.0180 C   0  0  0  0  0  0  0  0  0  0  0  0
   -1.9960    2.4760   -0.2300 F   0  0  0  0  0  0  0  0  0  0  0  0
    0.0080    1.2460   -0.3130 C   0  0  0  0  0  0  0  0  0  0  0  0
    0.5710    2.4310   -0.8370 O   0  0  0  0  0  0  0  0  0  0  0  0
  1  2  1  0
  2  3  1  0
  3  4  2  0
  3 10  1  0
  4  5  1  0
  5  6  1  0
  5  7  2  0
  7  8  1  0
  8  9  1  0
  8 10  2  0
 10 11  1  0
M  END
