
     RDKit          3D

 11 11  0  0  0  0  0  0  0  0999 V2000
    2.8920    0.1710    1.0150 C   0  0  0  0  0  0  0  0  0  0  0  0
    1.7880    0.9160    0.5100 O   0  0  0  0  0  0  0  0  0  0  0  0
    0.5890    0.2750    0.1730 C   0  0  0  0  0  0  0  0  0  0  0  0
    0.4260   -1.0860    0.3120 C   0  0  0  0  0  0  0  0  0  0  0  0
   -0.7630   -1.6950   -0.0260 C   0  0  0  0  0  0  0  0  0  0  0  0
   -1.8450   -0.9810   -0.5180 C   0  0  0  0  0  0  0  0  0  0  0  0
   -3.0050   -1.6020   -0.8450 F   0  0  0  0  0  0  0  0  0  0  0  0
   -1.6600    0.3800   -0.6500 C   0  0  0  0  0  0  0  0  0  0  0  0
   -2.7260    1.1510   -1.1450 O   0  0  0  0  0  0  0  0  0  0  0  0
   -0.4770    0.9970   -0.3150 C   0  0  0  0  0  0  0  0  0  0  0  0
   -0.3230    2.3870   -0.4630 O   0  0  0  0  0  0  0  0  0  0  0  0
  1  2  1  0
  2  3  1  0
  3  4  2  0
  3 10  1  0
  4  5  1  0
  5  6  2  0
  6  7  1  0
  6  8  1  0
  8  9  1  0
  8 10  2  0
 10 11  1  0
M  END
