
     RDKit          3D

 26 28  0  0  0  0  0  0  0  0999 V2000
    4.4940   -3.0840   -1.3770 C   0  0  0  0  0  0  0  0  0  0  0  0
    4.4480   -1.8850   -1.8300 C   0  0  0  0  0  0  0  0  0  0  0  0
    3.8040   -0.7440   -1.0590 C   0  0  0  0  0  0  0  0  0  0  0  0
    3.8880    0.3740   -1.7080 C   0  0  0  0  0  0  0  0  0  0  0  0
    3.4550    1.7270   -1.4390 C   0  0  0  0  0  0  0  0  0  0  0  0
    3.2560   -1.1840    0.1880 C   0  0  0  0  0  0  0  0  0  0  0  0
    2.5510   -0.5070    1.2390 C   0  0  0  0  0  0  0  0  0  0  0  0
    1.2720    0.1210    1.0330 N   0  0  0  0  0  0  0  0  0  0  0  0
    1.0020    1.4140    0.9740 C   0  0  0  0  0  0  0  0  0  0  0  0
    1.9520    2.2130    1.2090 O   0  0  0  0  0  0  0  0  0  0  0  0
   -0.2160    1.9570    0.6920 N   0  0  0  0  0  0  0  0  0  0  0  0
   -1.2210    1.1040    0.4570 C   0  0  0  0  0  0  0  0  0  0  0  0
   -1.0120   -0.2710    0.5050 C   0  0  0  0  0  0  0  0  0  0  0  0
   -2.0750   -1.1420    0.2580 C   0  0  0  0  0  0  0  0  0  0  0  0
   -3.3180   -0.6760   -0.0300 C   0  0  0  0  0  0  0  0  0  0  0  0
   -4.3730   -1.5520   -0.2750 O   0  0  0  0  0  0  0  0  0  0  0  0
   -4.1670   -2.9470   -0.2280 C   0  0  0  0  0  0  0  0  0  0  0  0
   -3.4950    0.6900   -0.0700 C   0  0  0  0  0  0  0  0  0  0  0  0
   -4.7700    1.1500   -0.3660 C   0  0  0  0  0  0  0  0  0  0  0  0
   -4.9880    2.5110   -0.4160 C   0  0  0  0  0  0  0  0  0  0  0  0
   -6.6090    3.0880   -0.7910 Cl  0  0  0  0  0  0  0  0  0  0  0  0
   -3.9830    3.4150   -0.1820 C   0  0  0  0  0  0  0  0  0  0  0  0
   -2.7060    2.9580    0.1140 C   0  0  0  0  0  0  0  0  0  0  0  0
   -2.4750    1.6110    0.1670 C   0  0  0  0  0  0  0  0  0  0  0  0
    0.2320   -0.7510    0.7930 C   0  0  0  0  0  0  0  0  0  0  0  0
    0.3970   -1.9910    0.8300 O   0  0  0  0  0  0  0  0  0  0  0  0
  1  2  2  0
  2  3  1  0
  3  4  2  3
  3  6  1  0
  4  5  1  0
  6  7  1  0
  7  8  1  0
  8  9  1  0
  8 25  1  0
  9 10  2  0
  9 11  1  0
 11 12  1  0
 12 13  2  0
 12 24  1  0
 13 14  1  0
 13 25  1  0
 14 15  2  0
 15 16  1  0
 15 18  1  0
 16 17  1  0
 18 19  2  0
 18 24  1  0
 19 20  1  0
 20 21  1  0
 20 22  2  0
 22 23  1  0
 23 24  2  0
 25 26  2  0
M  END
