
     RDKit          3D

 10 10  0  0  0  0  0  0  0  0999 V2000
    0.3260   -2.3970    0.2880 O   0  0  0  0  0  0  0  0  0  0  0  0
   -0.4020   -1.3630    0.2410 C   0  0  0  0  0  0  0  0  0  0  0  0
   -1.7540   -1.4300    0.6040 O   0  0  0  0  0  0  0  0  0  0  0  0
   -2.6850   -0.4490    0.1990 C   0  0  0  0  0  0  0  0  0  0  0  0
   -2.1130    0.9300    0.1590 C   0  0  0  0  0  0  0  0  0  0  0  0
   -0.7040    0.9950   -0.2180 C   0  0  0  0  0  0  0  0  0  0  0  0
    0.0850   -0.0580   -0.1820 C   0  0  0  0  0  0  0  0  0  0  0  0
    1.4950    0.1130   -0.5860 C   0  0  0  0  0  0  0  0  0  0  0  0
    2.3830   -0.2430    0.5610 C   0  0  0  0  0  0  0  0  0  0  0  0
    3.7140   -0.0620    0.1280 O   0  0  0  0  0  0  0  0  0  0  0  0
  1  2  2  0
  2  3  1  0
  2  7  1  0
  3  4  1  0
  4  5  1  0
  5  6  1  0
  6  7  2  0
  7  8  1  0
  8  9  1  0
  9 10  1  0
M  END
