
     RDKit          3D

 21 24  0  0  0  0  0  0  0  0999 V2000
    6.2810   -1.2470   -0.0220 O   0  0  0  0  0  0  0  0  0  0  0  0
    5.0350   -0.6560    0.0870 C   0  0  0  0  0  0  0  0  0  0  0  0
    4.8760    0.6620    0.4830 C   0  0  0  0  0  0  0  0  0  0  0  0
    3.5960    1.1980    0.5740 C   0  0  0  0  0  0  0  0  0  0  0  0
    2.4900    0.4390    0.2780 C   0  0  0  0  0  0  0  0  0  0  0  0
    1.1670    0.6420    0.2640 N   0  0  0  0  0  0  0  0  0  0  0  0
    0.5000   -0.4370   -0.1050 C   0  0  0  0  0  0  0  0  0  0  0  0
   -0.9440   -0.6860   -0.2650 C   0  0  0  0  0  0  0  0  0  0  0  0
   -1.3350   -1.9710   -0.6820 C   0  0  0  0  0  0  0  0  0  0  0  0
   -2.6530   -2.2760   -0.8520 C   0  0  0  0  0  0  0  0  0  0  0  0
   -3.5790   -1.2850   -0.6000 C   0  0  0  0  0  0  0  0  0  0  0  0
   -3.2280   -0.0150   -0.1900 C   0  0  0  0  0  0  0  0  0  0  0  0
   -4.1660    0.9540    0.0540 C   0  0  0  0  0  0  0  0  0  0  0  0
   -5.5000    0.6860   -0.1050 O   0  0  0  0  0  0  0  0  0  0  0  0
   -3.7850    2.2350    0.4690 C   0  0  0  0  0  0  0  0  0  0  0  0
   -2.4690    2.5550    0.6430 C   0  0  0  0  0  0  0  0  0  0  0  0
   -1.5260    1.5630    0.3920 C   0  0  0  0  0  0  0  0  0  0  0  0
   -1.8710    0.2980   -0.0160 C   0  0  0  0  0  0  0  0  0  0  0  0
    1.4470   -1.3430   -0.3290 O   0  0  0  0  0  0  0  0  0  0  0  0
    2.6420   -0.8720   -0.1160 C   0  0  0  0  0  0  0  0  0  0  0  0
    3.9280   -1.4120   -0.2080 C   0  0  0  0  0  0  0  0  0  0  0  0
  1  2  1  0
  2  3  2  0
  2 21  1  0
  3  4  1  0
  4  5  2  0
  5  6  1  0
  5 20  1  0
  6  7  2  0
  7  8  1  0
  7 19  1  0
  8  9  2  0
  8 18  1  0
  9 10  1  0
 10 11  2  0
 11 12  1  0
 12 13  2  0
 12 18  1  0
 13 14  1  0
 13 15  1  0
 15 16  2  0
 16 17  1  0
 17 18  2  0
 19 20  1  0
 20 21  2  0
M  END
