
     RDKit          3D

 11 11  0  0  0  0  0  0  0  0999 V2000
   -1.9100    2.1590    0.1320 O   0  0  0  0  0  0  0  0  0  0  0  0
   -1.9070    0.7870    0.1120 C   0  0  0  0  0  0  0  0  0  0  0  0
   -0.5770    0.1870   -0.0170 C   0  0  0  0  0  0  0  0  0  0  0  0
    0.6060    0.8620   -0.1130 C   0  0  0  0  0  0  0  0  0  0  0  0
    1.8180    0.2230   -0.2310 C   0  0  0  0  0  0  0  0  0  0  0  0
    3.0040    0.9380   -0.3270 O   0  0  0  0  0  0  0  0  0  0  0  0
    1.8610   -1.1550   -0.2560 C   0  0  0  0  0  0  0  0  0  0  0  0
    3.0420   -1.7790   -0.3710 F   0  0  0  0  0  0  0  0  0  0  0  0
    0.6890   -1.8690   -0.1610 C   0  0  0  0  0  0  0  0  0  0  0  0
   -0.5110   -1.2080   -0.0430 C   0  0  0  0  0  0  0  0  0  0  0  0
   -1.6560   -1.9720    0.0480 O   0  0  0  0  0  0  0  0  0  0  0  0
  1  2  1  0
  2  3  1  0
  3  4  2  0
  3 10  1  0
  4  5  1  0
  5  6  1  0
  5  7  2  0
  7  8  1  0
  7  9  1  0
  9 10  2  0
 10 11  1  0
M  END
