
     RDKit          3D

 10 10  0  0  0  0  0  0  0  0999 V2000
    4.5920   -0.0050    0.1320 C   0  0  0  0  0  0  0  0  0  0  0  0
    3.1790    0.1450    0.6980 C   0  0  0  0  0  0  0  0  0  0  0  0
    2.1280   -0.1700   -0.3500 C   0  0  0  0  0  0  0  0  0  0  0  0
    0.8360    0.0610    0.2390 N   0  0  0  0  0  0  0  0  0  0  0  0
   -0.2470   -0.2540   -0.6550 C   0  0  0  0  0  0  0  0  0  0  0  0
   -1.5540    0.2290   -0.0870 C   0  0  1  0  0  0  0  0  0  0  0  0
   -2.6830   -0.0410   -1.0590 C   0  0  0  0  0  0  0  0  0  0  0  0
   -3.8610    0.0680   -0.0920 C   0  0  0  0  0  0  0  0  0  0  0  0
   -3.2790   -0.5160    1.1570 C   0  0  0  0  0  0  0  0  0  0  0  0
   -1.9000   -0.3180    1.1080 O   0  0  0  0  0  0  0  0  0  0  0  0
  1  2  1  0
  2  3  1  0
  3  4  1  0
  4  5  1  0
  6  5  1  6
  6  7  1  0
  6 10  1  0
  7  8  1  0
  8  9  1  0
  9 10  1  0
M  END
