
     RDKit          3D

 10 10  0  0  0  0  0  0  0  0999 V2000
    3.8260   -0.1960   -0.4200 C   0  0  0  0  0  0  0  0  0  0  0  0
    2.9710    0.9660   -0.3320 N   0  0  0  0  0  0  0  0  0  0  0  0
    1.5810    0.8370   -0.2650 C   0  0  0  0  0  0  0  0  0  0  0  0
    1.0230   -0.2500    0.2440 C   0  0  0  0  0  0  0  0  0  0  0  0
   -0.4330   -0.3740    0.3090 C   0  0  0  0  0  0  0  0  0  0  0  0
   -1.1190   -1.4580    0.8180 C   0  0  0  0  0  0  0  0  0  0  0  0
   -2.4540   -1.1390    0.6760 C   0  0  0  0  0  0  0  0  0  0  0  0
   -2.5170    0.1260    0.0860 C   0  0  0  0  0  0  0  0  0  0  0  0
   -3.7720    0.8530   -0.2460 C   0  0  0  0  0  0  0  0  0  0  0  0
   -1.2830    0.5280   -0.1070 O   0  0  0  0  0  0  0  0  0  0  0  0
  1  2  1  0
  2  3  1  0
  3  4  2  3
  4  5  1  0
  5  6  2  0
  5 10  1  0
  6  7  1  0
  7  8  2  0
  8  9  1  0
  8 10  1  0
M  END
