
     RDKit          3D

 10 10  0  0  0  0  0  0  0  0999 V2000
    3.3340    0.6020   -0.1740 C   0  0  0  0  0  0  0  0  0  0  0  0
    1.8850    0.7130   -0.3660 C   0  0  0  0  0  0  0  0  0  0  0  0
    1.0040   -0.1560    0.1000 C   0  0  0  0  0  0  0  0  0  0  0  0
    1.5390   -1.3290    0.8750 C   0  0  0  0  0  0  0  0  0  0  0  0
   -0.3880   -0.0290   -0.0960 N   0  0  0  0  0  0  0  0  0  0  0  0
   -1.0200    1.2170    0.2040 C   0  0  0  0  0  0  0  0  0  0  0  0
   -2.4620    1.2960   -0.0880 C   0  0  0  0  0  0  0  0  0  0  0  0
   -3.1870    0.1660   -0.0590 O   0  0  0  0  0  0  0  0  0  0  0  0
   -2.5460   -1.0170    0.0860 C   0  0  0  0  0  0  0  0  0  0  0  0
   -1.2100   -1.1150   -0.5920 C   0  0  0  0  0  0  0  0  0  0  0  0
  1  2  1  0
  2  3  2  3
  3  4  1  0
  3  5  1  0
  5  6  1  0
  5 10  1  0
  6  7  1  0
  7  8  1  0
  8  9  1  0
  9 10  1  0
M  END
