
     RDKit          3D

 10 10  0  0  0  0  0  0  0  0999 V2000
   -2.5690    0.2540   -1.2960 C   0  0  0  0  0  0  0  0  0  0  0  0
   -1.9510   -0.1980    0.0310 C   0  0  2  0  0  0  0  0  0  0  0  0
   -2.7430    0.4640    1.1300 C   0  0  0  0  0  0  0  0  0  0  0  0
   -0.6280    0.2140    0.0180 O   0  0  0  0  0  0  0  0  0  0  0  0
    0.2290   -0.8510    0.0790 C   0  0  0  0  0  0  0  0  0  0  0  0
    1.6310   -0.3620    0.0630 C   0  0  0  0  0  0  0  0  0  0  0  0
    1.9930    0.9630   -0.0030 C   0  0  0  0  0  0  0  0  0  0  0  0
    3.3670    1.0470    0.0010 C   0  0  0  0  0  0  0  0  0  0  0  0
    3.8200   -0.2530    0.0700 C   0  0  0  0  0  0  0  0  0  0  0  0
    2.7700   -1.0900    0.1070 N   0  0  0  0  0  0  0  0  0  0  0  0
  2  1  1  6
  2  3  1  0
  2  4  1  0
  4  5  1  0
  5  6  1  0
  6  7  2  0
  6 10  1  0
  7  8  1  0
  8  9  2  0
  9 10  1  0
M  END
