
     RDKit          3D

 10 10  0  0  0  0  0  0  0  0999 V2000
   -2.2090    1.7520    0.8690 O   0  0  0  0  0  0  0  0  0  0  0  0
   -2.6460    1.1870   -0.1600 C   0  0  0  0  0  0  0  0  0  0  0  0
   -2.2650   -0.1630   -0.4560 N   0  0  0  0  0  0  0  0  0  0  0  0
   -1.3770   -0.8780    0.4250 C   0  0  0  0  0  0  0  0  0  0  0  0
    0.0470   -0.4610    0.2700 C   0  0  0  0  0  0  0  0  0  0  0  0
    0.7950   -0.9630   -0.8030 C   0  0  0  0  0  0  0  0  0  0  0  0
    2.1080   -0.5810   -0.9420 C   0  0  0  0  0  0  0  0  0  0  0  0
    2.7090    0.2750   -0.0660 C   0  0  0  0  0  0  0  0  0  0  0  0
    1.9910    0.7790    0.9940 C   0  0  0  0  0  0  0  0  0  0  0  0
    0.6770    0.3990    1.1360 C   0  0  0  0  0  0  0  0  0  0  0  0
  1  2  2  0
  2  3  1  0
  3  4  1  0
  4  5  1  0
  5  6  2  0
  5 10  1  0
  6  7  1  0
  7  8  2  0
  8  9  1  0
  9 10  2  0
M  END
