
     RDKit          3D

 10 10  0  0  0  0  0  0  0  0999 V2000
    2.7560   -0.5150    0.2240 C   0  0  0  0  0  0  0  0  0  0  0  0
    1.5920   -0.3870   -0.6920 C   0  0  0  0  0  0  0  0  0  0  0  0
    1.6390    0.5410   -1.6150 C   0  0  0  0  0  0  0  0  0  0  0  0
    2.7240    1.3710   -1.7400 O   0  0  0  0  0  0  0  0  0  0  0  0
    0.4590   -1.2610   -0.5550 N   0  0  0  0  0  0  0  0  0  0  0  0
   -0.7660   -0.8440    0.0240 C   0  0  2  0  0  0  0  0  0  0  0  0
   -1.4290    0.3130   -0.7060 C   0  0  0  0  0  0  0  0  0  0  0  0
   -2.6140    0.5350    0.2480 C   0  0  0  0  0  0  0  0  0  0  0  0
   -2.0180    0.3140    1.6250 C   0  0  0  0  0  0  0  0  0  0  0  0
   -0.6180   -0.2290    1.3980 C   0  0  0  0  0  0  0  0  0  0  0  0
  1  2  1  0
  2  3  2  3
  2  5  1  0
  3  4  1  0
  6  5  1  6
  6  7  1  0
  6 10  1  0
  7  8  1  0
  8  9  1  0
  9 10  1  0
M  END
