
     RDKit          3D

 10 10  0  0  0  0  0  0  0  0999 V2000
    3.4340    1.8080   -0.0910 C   0  0  0  0  0  0  0  0  0  0  0  0
    2.3080    1.0850   -0.1510 C   0  0  0  0  0  0  0  0  0  0  0  0
    2.2070    0.0180   -1.0960 C   0  0  0  0  0  0  0  0  0  0  0  0
    1.3010   -0.8220   -1.3860 C   0  0  0  0  0  0  0  0  0  0  0  0
   -0.0200   -1.0510   -0.8750 C   0  0  0  0  0  0  0  0  0  0  0  0
   -0.7070   -2.0180   -1.4040 O   0  0  0  0  0  0  0  0  0  0  0  0
   -0.7220   -0.3830    0.1360 N   0  0  0  0  0  0  0  0  0  0  0  0
   -2.0710   -0.7610    0.5210 C   0  0  1  0  0  0  0  0  0  0  0  0
   -2.4220   -0.6190    2.0100 C   0  0  0  0  0  0  0  0  0  0  0  0
   -3.0350    0.2700    0.9830 C   0  0  0  0  0  0  0  0  0  0  0  0
  1  2  2  0
  2  3  1  0
  3  4  2  3
  4  5  1  0
  5  6  2  0
  5  7  1  0
  8  7  1  1
  8  9  1  0
  8 10  1  0
  9 10  1  0
M  END
