
     RDKit          3D

 33 36  0  0  0  0  0  0  0  0999 V2000
   10.3990    2.2870    1.1540 C   0  0  0  0  0  0  0  0  0  0  0  0
    9.2380    1.4930    0.7630 N   0  0  0  0  0  0  0  0  0  0  0  0
    9.0930    1.0590   -0.5010 C   0  0  0  0  0  0  0  0  0  0  0  0
    8.0290    0.2930   -0.9160 C   0  0  0  0  0  0  0  0  0  0  0  0
    7.0330   -0.0660    0.0060 C   0  0  0  0  0  0  0  0  0  0  0  0
    5.9340   -0.9000   -0.4540 C   0  0  0  0  0  0  0  0  0  0  0  0
    5.7790   -1.1410   -1.6760 O   0  0  0  0  0  0  0  0  0  0  0  0
    4.9930   -1.4800    0.4630 N   0  0  0  0  0  0  0  0  0  0  0  0
    3.9400   -2.3170   -0.0780 C   0  0  0  0  0  0  0  0  0  0  0  0
    3.0520   -1.5630   -1.0250 C   0  0  0  0  0  0  0  0  0  0  0  0
    2.9820   -0.3250   -0.9000 O   0  0  0  0  0  0  0  0  0  0  0  0
    2.3350   -2.2030   -2.0060 O   0  0  0  0  0  0  0  0  0  0  0  0
    1.4740   -1.6000   -2.9280 C   0  0  0  0  0  0  0  0  0  0  0  0
    0.3040   -0.9420   -2.2720 C   0  0  0  0  0  0  0  0  0  0  0  0
   -0.0180   -0.2300   -1.4640 N   0  0  0  0  0  0  0  0  0  0  0  0
   -1.2190    0.1850   -1.0800 C   0  0  0  0  0  0  0  0  0  0  0  0
   -2.2500   -0.3680   -1.8180 C   0  0  0  0  0  0  0  0  0  0  0  0
   -1.4270   -1.4120   -2.9760 S   0  0  0  0  0  0  0  0  0  0  0  0
   -3.6870   -0.0680   -1.5750 C   0  0  0  0  0  0  0  0  0  0  0  0
   -3.7660    0.2150   -0.0820 C   0  0  2  0  0  0  0  0  0  0  0  0
   -3.1060   -0.9830    0.5920 C   0  0  0  0  0  0  0  0  0  0  0  0
   -5.0950    0.3040    0.3970 N   0  0  0  0  0  0  0  0  0  0  0  0
   -5.9350    1.3140   -0.1140 C   0  0  0  0  0  0  0  0  0  0  0  0
   -7.2740    0.7170   -0.5630 C   0  0  0  0  0  0  0  0  0  0  0  0
   -7.9310   -0.1120    0.4940 C   0  0  0  0  0  0  0  0  0  0  0  0
   -7.0140   -1.1410    1.1200 C   0  0  0  0  0  0  0  0  0  0  0  0
   -6.3780   -0.4920    2.3270 C   0  0  0  0  0  0  0  0  0  0  0  0
   -5.1400    0.2560    1.8280 C   0  0  0  0  0  0  0  0  0  0  0  0
   -2.9260    1.4640    0.0910 C   0  0  0  0  0  0  0  0  0  0  0  0
   -1.4800    1.1360    0.0390 C   0  0  0  0  0  0  0  0  0  0  0  0
    7.2010    0.3880    1.2870 C   0  0  0  0  0  0  0  0  0  0  0  0
    8.2970    1.1630    1.6660 C   0  0  0  0  0  0  0  0  0  0  0  0
    8.3980    1.5530    2.8690 O   0  0  0  0  0  0  0  0  0  0  0  0
  1  2  1  0
  2  3  1  0
  2 32  1  0
  3  4  2  0
  4  5  1  0
  5  6  1  0
  5 31  2  0
  6  7  2  0
  6  8  1  0
  8  9  1  0
  9 10  1  0
 10 11  2  0
 10 12  1  0
 12 13  1  0
 13 14  1  0
 14 15  2  0
 14 18  1  0
 15 16  1  0
 16 17  2  0
 16 30  1  0
 17 18  1  0
 17 19  1  0
 19 20  1  0
 20 21  1  1
 20 22  1  0
 20 29  1  0
 22 23  1  0
 22 28  1  0
 23 24  1  0
 24 25  1  0
 25 26  1  0
 26 27  1  0
 27 28  1  0
 29 30  1  0
 31 32  1  0
 32 33  2  0
M  END
