
     RDKit          3D

 33 36  0  0  0  0  0  0  0  0999 V2000
    6.8930    1.0120   -1.7040 C   0  0  0  0  0  0  0  0  0  0  0  0
    7.0520    0.0280   -0.6290 C   0  0  0  0  0  0  0  0  0  0  0  0
    7.9690   -0.9780   -0.7830 C   0  0  0  0  0  0  0  0  0  0  0  0
    8.0890   -1.8930    0.2480 C   0  0  0  0  0  0  0  0  0  0  0  0
    7.3240   -1.7810    1.3530 N   0  0  0  0  0  0  0  0  0  0  0  0
    6.4160   -0.7750    1.5020 C   0  0  0  0  0  0  0  0  0  0  0  0
    5.7160   -0.6910    2.5410 O   0  0  0  0  0  0  0  0  0  0  0  0
    6.2650    0.1450    0.5120 C   0  0  0  0  0  0  0  0  0  0  0  0
    5.3260    1.2220    0.6140 C   0  0  0  0  0  0  0  0  0  0  0  0
    5.7480    2.3350    1.0150 O   0  0  0  0  0  0  0  0  0  0  0  0
    3.9620    1.0650    0.2760 C   0  0  0  0  0  0  0  0  0  0  0  0
    3.0560   -0.4540    0.3550 S   0  0  0  0  0  0  0  0  0  0  0  0
    1.4500    0.3300   -0.2820 C   0  0  0  0  0  0  0  0  0  0  0  0
    0.2690   -0.6070   -0.4080 C   0  0  0  0  0  0  0  0  0  0  0  0
   -0.4550   -0.5550    0.9110 C   0  0  0  0  0  0  0  0  0  0  0  0
   -1.6230   -1.4760    0.9050 C   0  0  0  0  0  0  0  0  0  0  0  0
   -1.4030   -2.7500    1.3540 C   0  0  0  0  0  0  0  0  0  0  0  0
   -2.4210   -3.6090    1.3470 N   0  0  0  0  0  0  0  0  0  0  0  0
   -3.6080   -3.2280    0.9140 C   0  0  0  0  0  0  0  0  0  0  0  0
   -3.9080   -1.9310    0.4360 C   0  0  0  0  0  0  0  0  0  0  0  0
   -5.2350   -1.6960   -0.0600 C   0  0  0  0  0  0  0  0  0  0  0  0
   -5.9700   -2.7590   -0.2200 O   0  0  0  0  0  0  0  0  0  0  0  0
   -5.8800   -0.5000   -0.4070 N   0  0  0  0  0  0  0  0  0  0  0  0
   -5.3530    0.8380   -0.2390 C   0  0  0  0  0  0  0  0  0  0  0  0
   -6.3470    1.9460   -0.1900 C   0  0  0  0  0  0  0  0  0  0  0  0
   -7.7720    1.5340   -0.0520 C   0  0  0  0  0  0  0  0  0  0  0  0
   -8.1730    0.5180   -1.0690 C   0  0  0  0  0  0  0  0  0  0  0  0
   -7.1840   -0.5760   -1.0550 C   0  0  0  0  0  0  0  0  0  0  0  0
   -7.4610   -1.6810   -1.6460 O   0  0  0  0  0  0  0  0  0  0  0  0
   -2.8600   -1.0660    0.4500 C   0  0  0  0  0  0  0  0  0  0  0  0
    1.8220    1.4240   -0.4190 N   0  0  0  0  0  0  0  0  0  0  0  0
    3.0020    1.9420   -0.1950 C   0  0  0  0  0  0  0  0  0  0  0  0
    3.3790    3.3880   -0.4100 C   0  0  0  0  0  0  0  0  0  0  0  0
  1  2  1  0
  2  3  1  0
  2  8  2  0
  3  4  2  0
  4  5  1  0
  5  6  1  0
  6  7  2  0
  6  8  1  0
  8  9  1  0
  9 10  2  0
  9 11  1  0
 11 12  1  0
 11 32  2  0
 12 13  1  0
 13 14  1  0
 13 31  2  0
 14 15  1  0
 15 16  1  0
 16 17  2  0
 16 30  1  0
 17 18  1  0
 18 19  2  0
 19 20  1  0
 20 21  1  0
 20 30  2  0
 21 22  2  0
 21 23  1  0
 23 24  1  0
 23 28  1  0
 24 25  1  0
 25 26  1  0
 26 27  1  0
 27 28  1  0
 28 29  2  0
 31 32  1  0
 32 33  1  0
M  END
