
     RDKit          3D

 33 35  0  0  0  0  0  0  0  0999 V2000
   -8.1240    3.2130   -0.1130 C   0  0  0  0  0  0  0  0  0  0  0  0
   -7.2930    2.2470    0.2710 C   0  0  0  0  0  0  0  0  0  0  0  0
   -7.6930    0.8800   -0.0200 C   0  0  0  0  0  0  0  0  0  0  0  0
   -6.9580   -0.1400    0.3010 C   0  0  0  0  0  0  0  0  0  0  0  0
   -5.6290   -0.0440    0.9910 C   0  0  0  0  0  0  0  0  0  0  0  0
   -4.8280   -1.0740    0.4460 N   0  0  0  0  0  0  0  0  0  0  0  0
   -3.4400   -1.0840    0.5240 C   0  0  1  0  0  0  0  0  0  0  0  0
   -2.9330   -1.5890   -0.8560 C   0  0  0  0  0  0  0  0  0  0  0  0
   -1.4540   -1.8010   -0.8460 C   0  0  0  0  0  0  0  0  0  0  0  0
   -0.8310   -0.4850   -0.6290 N   0  0  0  0  0  0  0  0  0  0  0  0
    0.5790   -0.3810   -0.7060 C   0  0  0  0  0  0  0  0  0  0  0  0
    1.3000   -1.4150   -0.9550 O   0  0  0  0  0  0  0  0  0  0  0  0
    1.2920    0.8050   -0.5250 N   0  0  0  0  0  0  0  0  0  0  0  0
    2.7270    0.8720   -0.5390 C   0  0  0  0  0  0  0  0  0  0  0  0
    3.4090   -0.1440   -0.7650 O   0  0  0  0  0  0  0  0  0  0  0  0
    3.3850    2.1650   -0.2750 C   0  0  0  0  0  0  0  0  0  0  0  0
    4.7850    2.1190   -0.1500 O   0  0  0  0  0  0  0  0  0  0  0  0
    5.3630    1.3450    0.8220 C   0  0  0  0  0  0  0  0  0  0  0  0
    4.6250    0.6550    1.5680 O   0  0  0  0  0  0  0  0  0  0  0  0
    6.8450    1.2840    1.0530 C   0  0  0  0  0  0  0  0  0  0  0  0
    7.5410    2.0130   -0.0510 C   0  0  0  0  0  0  0  0  0  0  0  0
    9.2740    2.2080    0.1790 S   0  0  0  0  0  0  0  0  0  0  0  0
   10.1890    0.6920    0.1760 C   0  0  0  0  0  0  0  0  0  0  0  0
   11.5330    0.6080    0.3810 C   0  0  0  0  0  0  0  0  0  0  0  0
   12.0000   -0.7810    0.3200 C   0  0  0  0  0  0  0  0  0  0  0  0
   10.7610   -1.5360    0.0450 C   0  0  0  0  0  0  0  0  0  0  0  0
    9.7480   -0.6750   -0.0310 C   0  0  0  0  0  0  0  0  0  0  0  0
   -1.7460    0.5790   -0.3380 C   0  0  0  0  0  0  0  0  0  0  0  0
   -2.6840    0.1470    0.7970 C   0  0  0  0  0  0  0  0  0  0  0  0
   -5.4130   -2.3570    0.7160 C   0  0  0  0  0  0  0  0  0  0  0  0
   -6.5580   -2.5340   -0.2750 C   0  0  0  0  0  0  0  0  0  0  0  0
   -7.4760   -1.4460   -0.0260 N   0  0  0  0  0  0  0  0  0  0  0  0
   -8.8920   -1.6770   -0.1110 C   0  0  0  0  0  0  0  0  0  0  0  0
  1  2  2  0
  2  3  1  0
  3  4  2  3
  4  5  1  0
  4 32  1  0
  5  6  1  0
  7  6  1  6
  6 30  1  0
  7  8  1  0
  7 29  1  0
  8  9  1  0
  9 10  1  0
 10 11  1  0
 10 28  1  0
 11 12  2  0
 11 13  1  0
 13 14  1  0
 14 15  2  0
 14 16  1  0
 16 17  1  0
 17 18  1  0
 18 19  2  0
 18 20  1  0
 20 21  1  0
 21 22  1  0
 22 23  1  0
 23 24  2  0
 23 27  1  0
 24 25  1  0
 25 26  1  0
 26 27  2  0
 28 29  1  0
 30 31  1  0
 31 32  1  0
 32 33  1  0
M  END
