
     RDKit          3D

 33 35  0  0  0  0  0  0  0  0999 V2000
    7.6860   -1.0800    3.0810 C   0  0  0  0  0  0  0  0  0  0  0  0
    7.5110    0.3980    3.3400 C   0  0  0  0  0  0  0  0  0  0  0  0
    6.6130    0.9840    2.4400 O   0  0  0  0  0  0  0  0  0  0  0  0
    6.3850    2.3570    2.4820 C   0  0  0  0  0  0  0  0  0  0  0  0
    7.0060    3.0370    3.3160 O   0  0  0  0  0  0  0  0  0  0  0  0
    5.4220    2.9730    1.5440 C   0  0  0  0  0  0  0  0  0  0  0  0
    4.4250    2.0610    0.9380 C   0  0  1  0  0  0  0  0  0  0  0  0
    4.9550    0.9390    0.1010 C   0  0  0  0  0  0  0  0  0  0  0  0
    3.7350    0.3750   -0.6510 C   0  0  0  0  0  0  0  0  0  0  0  0
    2.9320   -0.4410    0.3230 C   0  0  2  0  0  0  0  0  0  0  0  0
    3.3860   -1.8300    0.1710 N   0  0  0  0  0  0  0  0  0  0  0  0
    3.0540   -2.6370    1.2980 C   0  0  0  0  0  0  0  0  0  0  0  0
    1.4710   -0.3290    0.0650 C   0  0  0  0  0  0  0  0  0  0  0  0
    0.9950    0.8520    0.0630 O   0  0  0  0  0  0  0  0  0  0  0  0
    0.5970   -1.3860   -0.1670 N   0  0  0  0  0  0  0  0  0  0  0  0
   -0.7960   -1.3630   -0.4050 C   0  0  0  0  0  0  0  0  0  0  0  0
   -1.5080   -2.5580   -0.2110 C   0  0  0  0  0  0  0  0  0  0  0  0
   -2.8710   -2.6010   -0.4180 C   0  0  0  0  0  0  0  0  0  0  0  0
   -3.5810   -1.4840   -0.8180 C   0  0  0  0  0  0  0  0  0  0  0  0
   -2.8930   -0.2960   -1.0170 C   0  0  0  0  0  0  0  0  0  0  0  0
   -1.5170   -0.2550   -0.8080 C   0  0  0  0  0  0  0  0  0  0  0  0
   -3.8800    0.6840   -1.4290 N   0  0  0  0  0  0  0  0  0  0  0  0
   -5.0790    0.2160   -0.7780 C   0  0  1  0  0  0  0  0  0  0  0  0
   -6.3480    0.8560   -1.1080 C   0  0  0  0  0  0  0  0  0  0  0  0
   -6.8120    0.8230   -2.4540 N   0  0  1  0  0  0  0  0  0  0  0  0
   -7.5170   -0.3800   -2.8380 C   0  0  0  0  0  0  0  0  0  0  0  0
   -8.3700   -0.9720   -1.7570 C   0  0  0  0  0  0  0  0  0  0  0  0
   -7.7590    1.9200   -2.5950 C   0  0  0  0  0  0  0  0  0  0  0  0
   -7.5970    2.4150   -4.0630 C   0  0  0  0  0  0  0  0  0  0  0  0
   -7.4750    2.7630   -5.0490 N   0  0  0  0  0  0  0  0  0  0  0  0
   -4.9700   -1.2070   -1.0920 N   0  0  0  0  0  0  0  0  0  0  0  0
    3.2230   -0.0220    1.7210 C   0  0  0  0  0  0  0  0  0  0  0  0
    3.5030    1.4240    1.9630 C   0  0  0  0  0  0  0  0  0  0  0  0
  1  2  1  0
  2  3  1  0
  3  4  1  0
  4  5  2  0
  4  6  1  0
  7  6  1  1
  7  8  1  0
  7 33  1  0
  8  9  1  0
  9 10  1  0
 10 11  1  1
 10 13  1  0
 10 32  1  0
 11 12  1  0
 13 14  2  0
 13 15  1  0
 15 16  1  0
 16 17  2  0
 16 21  1  0
 17 18  1  0
 18 19  2  0
 19 20  1  0
 19 31  1  0
 20 21  2  0
 20 22  1  0
 22 23  1  0
 23 24  1  6
 23 31  1  0
 25 24  1  1
 25 26  1  0
 25 28  1  0
 26 27  1  0
 28 29  1  0
 29 30  3  0
 32 33  1  0
M  CHG  2  11   1  25   1
M  END
