
     RDKit          3D

 33 35  0  0  0  0  0  0  0  0999 V2000
   -4.4550    0.0480    3.5890 C   0  0  0  0  0  0  0  0  0  0  0  0
   -3.4960    0.0990    2.3720 C   0  0  0  0  0  0  0  0  0  0  0  0
   -3.7860    1.1720    1.5450 N   0  0  0  0  0  0  0  0  0  0  0  0
   -3.9080    1.0940    0.1390 C   0  0  1  0  0  0  0  0  0  0  0  0
   -2.6780    0.7660   -0.6320 C   0  0  1  0  0  0  0  0  0  0  0  0
   -1.5750    1.8200   -0.3780 C   0  0  0  0  0  0  0  0  0  0  0  0
   -0.4160    1.5560   -1.3070 C   0  0  0  0  0  0  0  0  0  0  0  0
    0.1690    0.3060   -0.8720 N   0  0  0  0  0  0  0  0  0  0  0  0
    1.4820   -0.0360   -1.3260 C   0  0  0  0  0  0  0  0  0  0  0  0
    2.0240    0.8020   -2.0740 O   0  0  0  0  0  0  0  0  0  0  0  0
    2.1450   -1.2720   -0.9400 C   0  0  0  0  0  0  0  0  0  0  0  0
    3.3120   -1.7510   -1.7210 C   0  0  0  0  0  0  0  0  0  0  0  0
    4.4640   -0.9370   -1.8480 N   0  0  0  0  0  0  0  0  0  0  0  0
    4.7220   -0.1500   -2.9070 C   0  0  0  0  0  0  0  0  0  0  0  0
    3.9320   -0.1660   -3.9000 O   0  0  0  0  0  0  0  0  0  0  0  0
    5.7930    0.6730   -3.0000 N   0  0  0  0  0  0  0  0  0  0  0  0
    6.6770    0.7490   -2.0240 C   0  0  0  0  0  0  0  0  0  0  0  0
    7.6960    1.4890   -2.0350 O   0  0  0  0  0  0  0  0  0  0  0  0
    6.4800   -0.0330   -0.9070 C   0  0  0  0  0  0  0  0  0  0  0  0
    7.3600   -0.0160    0.1220 N   0  0  0  0  0  0  0  0  0  0  0  0
    7.2230   -0.7710    1.2210 C   0  0  0  0  0  0  0  0  0  0  0  0
    8.1950   -0.7490    2.3510 C   0  0  0  0  0  0  0  0  0  0  0  0
    7.7950    0.1610    3.3970 N   0  0  0  0  0  0  0  0  0  0  0  0
    6.1390   -1.6130    1.3260 C   0  0  0  0  0  0  0  0  0  0  0  0
    5.2050   -1.6600    0.2830 C   0  0  0  0  0  0  0  0  0  0  0  0
    5.3780   -0.8680   -0.8310 C   0  0  0  0  0  0  0  0  0  0  0  0
   -0.6480   -0.4980    0.0000 C   0  0  0  0  0  0  0  0  0  0  0  0
   -2.0790   -0.5540   -0.5860 C   0  0  0  0  0  0  0  0  0  0  0  0
   -5.1890    0.5820   -0.4110 C   0  0  2  0  0  0  0  0  0  0  0  0
   -5.0900    0.5910   -1.9290 C   0  0  0  0  0  0  0  0  0  0  0  0
   -6.3150    1.5510   -0.0890 C   0  0  0  0  0  0  0  0  0  0  0  0
   -5.5750   -0.8300   -0.0500 C   0  0  0  0  0  0  0  0  0  0  0  0
   -6.9240   -1.1150   -0.7420 C   0  0  0  0  0  0  0  0  0  0  0  0
  1  2  1  0
  2  3  1  0
  4  3  1  1
  4  5  1  0
  4 29  1  0
  5  6  1  1
  5 28  1  0
  6  7  1  0
  7  8  1  0
  8  9  1  0
  8 27  1  0
  9 10  2  0
  9 11  1  0
 11 12  1  0
 12 13  1  0
 13 14  1  0
 13 26  1  0
 14 15  2  0
 14 16  1  0
 16 17  1  0
 17 18  2  0
 17 19  1  0
 19 20  2  0
 19 26  1  0
 20 21  1  0
 21 22  1  0
 21 24  2  0
 22 23  1  0
 24 25  1  0
 25 26  2  0
 27 28  1  0
 29 30  1  6
 29 31  1  0
 29 32  1  0
 32 33  1  0
M  CHG  2   3   1  23   1
M  END
