
     RDKit          3D

 33 36  0  0  0  0  0  0  0  0999 V2000
   -8.3970   -0.3890   -1.7700 C   0  0  0  0  0  0  0  0  0  0  0  0
   -7.3890   -0.1890   -0.6980 C   0  0  0  0  0  0  0  0  0  0  0  0
   -7.7730   -0.4030    0.6000 C   0  0  0  0  0  0  0  0  0  0  0  0
   -6.8140   -0.2070    1.5550 C   0  0  0  0  0  0  0  0  0  0  0  0
   -7.1550   -0.4190    2.9870 C   0  0  0  0  0  0  0  0  0  0  0  0
   -5.5400    0.1790    1.2570 C   0  0  0  0  0  0  0  0  0  0  0  0
   -5.1680    0.3920   -0.0810 C   0  0  0  0  0  0  0  0  0  0  0  0
   -3.7990    0.7960   -0.3800 C   0  0  0  0  0  0  0  0  0  0  0  0
   -2.5920    0.9610    0.9220 S   0  0  0  0  0  0  0  0  0  0  0  0
   -1.2370    1.4520   -0.0620 C   0  0  0  0  0  0  0  0  0  0  0  0
    0.1170    1.7580    0.4350 C   0  0  0  0  0  0  0  0  0  0  0  0
    1.0020    0.6600    0.4910 N   0  0  0  0  0  0  0  0  0  0  0  0
    0.6260   -0.4300    1.3130 C   0  0  0  0  0  0  0  0  0  0  0  0
    1.9150   -1.1160    1.7870 C   0  0  0  0  0  0  0  0  0  0  0  0
    2.9840   -0.8350    0.8500 N   0  0  0  0  0  0  0  0  0  0  0  0
    4.3070   -0.5960    1.2740 C   0  0  0  0  0  0  0  0  0  0  0  0
    4.5440   -0.6330    2.5160 O   0  0  0  0  0  0  0  0  0  0  0  0
    5.4260   -0.3070    0.3580 C   0  0  0  0  0  0  0  0  0  0  0  0
    6.7130   -0.0970    1.1260 C   0  0  0  0  0  0  0  0  0  0  0  0
    7.7940    0.1830    0.2210 N   0  0  0  0  0  0  0  0  0  0  0  0
    8.6430   -0.7870   -0.3740 C   0  0  0  0  0  0  0  0  0  0  0  0
    8.6100   -2.0420   -0.2250 O   0  0  0  0  0  0  0  0  0  0  0  0
    9.6010   -0.1480   -1.2130 N   0  0  0  0  0  0  0  0  0  0  0  0
    9.3680    1.2360   -1.1590 C   0  0  0  0  0  0  0  0  0  0  0  0
   10.0350    2.0960   -1.7840 O   0  0  0  0  0  0  0  0  0  0  0  0
    8.2380    1.4470   -0.2630 C   0  0  0  0  0  0  0  0  0  0  0  0
    7.7500    2.5790    0.0230 O   0  0  0  0  0  0  0  0  0  0  0  0
    2.6210   -0.8120   -0.5620 C   0  0  0  0  0  0  0  0  0  0  0  0
    1.6380    0.3200   -0.7430 C   0  0  0  0  0  0  0  0  0  0  0  0
   -1.7730    1.4610   -1.2920 C   0  0  0  0  0  0  0  0  0  0  0  0
   -3.0710    1.1310   -1.4730 C   0  0  0  0  0  0  0  0  0  0  0  0
   -3.7340    1.1330   -2.8520 C   0  0  0  0  0  0  0  0  0  0  0  0
   -6.0870    0.2080   -1.0380 C   0  0  0  0  0  0  0  0  0  0  0  0
  1  2  1  0
  2  3  2  0
  2 33  1  0
  3  4  1  0
  4  5  1  0
  4  6  2  0
  6  7  1  0
  7  8  1  0
  7 33  2  0
  8  9  1  0
  8 31  2  0
  9 10  1  0
 10 11  1  0
 10 30  2  0
 11 12  1  0
 12 13  1  0
 12 29  1  0
 13 14  1  0
 14 15  1  0
 15 16  1  0
 15 28  1  0
 16 17  2  0
 16 18  1  0
 18 19  1  0
 19 20  1  0
 20 21  1  0
 20 26  1  0
 21 22  2  0
 21 23  1  0
 23 24  1  0
 24 25  2  0
 24 26  1  0
 26 27  2  0
 28 29  1  0
 30 31  1  0
 31 32  1  0
M  END
