
     RDKit          3D

 32 33  0  0  0  0  0  0  0  0999 V2000
   -2.5990    2.9810    1.6950 C   0  0  0  0  0  0  0  0  0  0  0  0
   -2.0080    2.5760    0.4010 C   0  0  0  0  0  0  0  0  0  0  0  0
   -0.5140    3.0310    0.2860 C   0  0  0  0  0  0  0  0  0  0  0  0
   -0.4110    4.4910    0.5380 C   0  0  0  0  0  0  0  0  0  0  0  0
   -0.9280    5.3310   -0.4930 N   0  0  0  0  0  0  0  0  0  0  0  0
   -2.0330    6.1880   -0.0810 C   0  0  0  0  0  0  0  0  0  0  0  0
    0.2970    2.0940    0.1460 C   0  0  0  0  0  0  0  0  0  0  0  0
   -0.3320    0.7280    0.1500 N   0  0  0  0  0  0  0  0  0  0  0  0
   -0.5500    0.0110    1.3560 C   0  0  0  0  0  0  0  0  0  0  0  0
   -1.0850   -1.3570    1.2360 C   0  0  0  0  0  0  0  0  0  0  0  0
   -2.3580   -1.6300    0.7240 N   0  0  2  0  0  0  0  0  0  0  0  0
   -2.3750   -1.6300   -0.7120 C   0  0  0  0  0  0  0  0  0  0  0  0
   -3.3370   -2.6000   -1.3450 C   0  0  0  0  0  0  0  0  0  0  0  0
   -4.2530   -3.2940   -0.4030 C   0  0  0  0  0  0  0  0  0  0  0  0
   -5.1740   -2.4190    0.3770 C   0  0  0  0  0  0  0  0  0  0  0  0
   -4.5920   -1.7400    1.5650 C   0  0  0  0  0  0  0  0  0  0  0  0
   -3.4380   -0.8060    1.2160 C   0  0  0  0  0  0  0  0  0  0  0  0
    1.7350    2.0540   -0.2200 C   0  0  0  0  0  0  0  0  0  0  0  0
    2.2770    0.8190   -0.1950 C   0  0  0  0  0  0  0  0  0  0  0  0
    3.5790    0.3750   -0.4670 C   0  0  0  0  0  0  0  0  0  0  0  0
    4.5400    1.0690   -0.8170 O   0  0  0  0  0  0  0  0  0  0  0  0
    3.9190   -1.0500   -0.3430 N   0  0  0  0  0  0  0  0  0  0  0  0
    2.8770   -1.9280    0.0770 C   0  0  0  0  0  0  0  0  0  0  0  0
    3.2740   -3.3330    0.3750 C   0  0  1  0  0  0  0  0  0  0  0  0
    2.4820   -4.3210   -0.4810 C   0  0  0  0  0  0  0  0  0  0  0  0
    4.6140   -3.6240    0.1660 O   0  0  0  0  0  0  0  0  0  0  0  0
    5.1130   -3.0120   -0.9700 C   0  0  2  0  0  0  0  0  0  0  0  0
    6.4610   -3.5870   -1.3510 C   0  0  0  0  0  0  0  0  0  0  0  0
    5.2310   -1.5220   -0.6340 C   0  0  0  0  0  0  0  0  0  0  0  0
    2.5520    3.1250   -0.6630 C   0  0  0  0  0  0  0  0  0  0  0  0
    2.1020    4.4640   -0.8280 N   0  0  0  0  0  0  0  0  0  0  0  0
    3.7960    2.9940   -0.9630 O   0  0  0  0  0  0  0  0  0  0  0  0
  1  2  1  0
  2  3  1  0
  3  4  1  0
  3  7  2  3
  4  5  1  0
  5  6  1  0
  7  8  1  0
  7 18  1  0
  8  9  1  0
  9 10  1  0
 11 10  1  6
 11 12  1  0
 11 17  1  0
 12 13  1  0
 13 14  1  0
 14 15  1  0
 15 16  1  0
 16 17  1  0
 18 19  2  3
 18 30  1  0
 19 20  1  0
 20 21  2  0
 20 22  1  0
 22 23  1  0
 22 29  1  0
 23 24  1  0
 24 25  1  6
 24 26  1  0
 26 27  1  0
 27 28  1  1
 27 29  1  0
 30 31  1  0
 30 32  2  0
M  CHG  2   5   1  11   1
M  END
