
     RDKit          3D

 33 36  0  0  0  0  0  0  0  0999 V2000
   -4.1460    0.8270    1.7160 C   0  0  0  0  0  0  0  0  0  0  0  0
   -3.7870   -0.4820    1.2140 N   0  0  0  0  0  0  0  0  0  0  0  0
   -2.5130   -0.6810    0.6600 C   0  0  0  0  0  0  0  0  0  0  0  0
   -1.5140    0.2530    0.7270 C   0  0  0  0  0  0  0  0  0  0  0  0
   -0.2820    0.0850    0.1550 C   0  0  0  0  0  0  0  0  0  0  0  0
    0.7820    1.0760    0.1970 N   0  0  0  0  0  0  0  0  0  0  0  0
    0.3730    2.4280    0.1900 C   0  0  0  0  0  0  0  0  0  0  0  0
    0.1520    3.0020   -1.1860 C   0  0  0  0  0  0  0  0  0  0  0  0
    0.3880    2.2860   -2.1600 O   0  0  0  0  0  0  0  0  0  0  0  0
   -0.3140    4.3090   -1.2690 N   0  0  0  0  0  0  0  0  0  0  0  0
   -0.6030    4.8840   -2.5600 C   0  0  0  0  0  0  0  0  0  0  0  0
   -0.9020    6.3670   -2.5150 C   0  0  0  0  0  0  0  0  0  0  0  0
   -1.7690    6.5840   -1.4190 O   0  0  0  0  0  0  0  0  0  0  0  0
   -0.9650    6.4880   -0.2790 C   0  0  0  0  0  0  0  0  0  0  0  0
   -0.4920    5.0770   -0.0580 C   0  0  0  0  0  0  0  0  0  0  0  0
    2.0970    0.6050    0.1880 C   0  0  0  0  0  0  0  0  0  0  0  0
    2.9450    1.5900   -0.0990 O   0  0  0  0  0  0  0  0  0  0  0  0
    2.6980   -0.6920    0.3980 C   0  0  0  0  0  0  0  0  0  0  0  0
    1.6060   -1.0670    1.7530 C   0  0  0  0  0  0  0  0  0  0  0  0
    2.0560   -2.5920    2.2510 S   0  0  0  0  0  0  0  0  0  0  0  0
    3.4050   -2.8350    1.0320 C   0  0  0  0  0  0  0  0  0  0  0  0
    4.2650   -4.0090    0.8950 C   0  0  2  0  0  0  0  0  0  0  0  0
    4.6600   -4.5680    2.2580 C   0  0  0  0  0  0  0  0  0  0  0  0
    5.5230   -3.5930    0.1760 C   0  0  0  0  0  0  0  0  0  0  0  0
    3.1770   -1.7260    0.5650 N   0  0  0  0  0  0  0  0  0  0  0  0
   -0.0800   -1.1030   -0.5060 C   0  0  0  0  0  0  0  0  0  0  0  0
   -1.0580   -2.1030   -0.6120 C   0  0  0  0  0  0  0  0  0  0  0  0
   -2.2760   -1.8950   -0.0320 C   0  0  0  0  0  0  0  0  0  0  0  0
   -3.3440   -2.8760   -0.1130 C   0  0  0  0  0  0  0  0  0  0  0  0
   -3.1100   -4.1020   -0.9010 C   0  0  0  0  0  0  0  0  0  0  0  0
   -1.6980   -4.4950   -1.1560 C   0  0  0  0  0  0  0  0  0  0  0  0
   -0.7810   -3.3520   -1.2890 C   0  0  0  0  0  0  0  0  0  0  0  0
    0.2740   -3.3930   -1.9790 O   0  0  0  0  0  0  0  0  0  0  0  0
  1  2  1  0
  2  3  1  0
  3  4  2  0
  3 28  1  0
  4  5  1  0
  5  6  1  0
  5 26  2  0
  6  7  1  0
  6 16  1  0
  7  8  1  0
  8  9  2  0
  8 10  1  0
 10 11  1  0
 10 15  1  0
 11 12  1  0
 12 13  1  0
 13 14  1  0
 14 15  1  0
 16 17  2  0
 16 18  1  0
 18 19  2  0
 18 25  1  0
 19 20  1  0
 20 21  1  0
 21 22  1  0
 21 25  2  0
 22 23  1  1
 22 24  1  0
 26 27  1  0
 27 28  2  0
 27 32  1  0
 28 29  1  0
 29 30  1  0
 30 31  1  0
 31 32  1  0
 32 33  2  0
M  END
