
     RDKit          3D

 20 22  0  0  0  0  0  0  0  0999 V2000
    0.7320   -2.4390   -1.5930 C   0  0  0  0  0  0  0  0  0  0  0  0
   -0.5070   -1.6540   -1.3420 C   0  0  0  0  0  0  0  0  0  0  0  0
   -1.6450   -2.2180   -1.6790 C   0  0  0  0  0  0  0  0  0  0  0  0
   -2.9630   -1.6220   -1.5220 C   0  0  0  0  0  0  0  0  0  0  0  0
   -2.9390   -0.3240   -0.8160 C   0  0  1  0  0  0  0  0  0  0  0  0
   -3.8460   -0.3810    0.3940 C   0  0  0  0  0  0  0  0  0  0  0  0
   -4.3240    0.4880    1.2440 C   0  0  0  0  0  0  0  0  0  0  0  0
   -4.1940    1.9500    1.4170 C   0  0  0  0  0  0  0  0  0  0  0  0
   -3.1590    2.7740    1.2300 C   0  0  0  0  0  0  0  0  0  0  0  0
   -1.7680    2.5350    0.7850 C   0  0  0  0  0  0  0  0  0  0  0  0
   -1.2430    1.5280    0.1110 C   0  0  0  0  0  0  0  0  0  0  0  0
   -1.6400    0.2560   -0.5030 C   0  0  0  0  0  0  0  0  0  0  0  0
   -0.4700   -0.3490   -0.7230 C   0  0  0  0  0  0  0  0  0  0  0  0
    0.7080    0.2450   -0.3780 O   0  0  0  0  0  0  0  0  0  0  0  0
    1.5540   -0.1720    0.6700 C   0  0  0  0  0  0  0  0  0  0  0  0
    2.7850    0.7040    0.7900 C   0  0  2  0  0  0  0  0  0  0  0  0
    3.6140    0.6160   -0.4490 C   0  0  0  0  0  0  0  0  0  0  0  0
    4.9170    0.0220    0.0310 C   0  0  0  0  0  0  0  0  0  0  0  0
    4.8650    0.3070    1.5040 C   0  0  0  0  0  0  0  0  0  0  0  0
    3.5360    0.2020    1.8450 O   0  0  0  0  0  0  0  0  0  0  0  0
  1  2  1  0
  2  3  2  0
  2 13  1  0
  3  4  1  0
  5  4  1  1
  5  6  1  0
  5 12  1  0
  6  7  2  0
  7  8  1  0
  8  9  2  0
  9 10  1  0
 10 11  2  0
 11 12  1  0
 12 13  2  0
 13 14  1  0
 14 15  1  0
 16 15  1  6
 16 17  1  0
 16 20  1  0
 17 18  1  0
 18 19  1  0
 19 20  1  0
M  END
