
     RDKit          3D

 24 26  0  0  0  0  0  0  0  0999 V2000
    5.6070    1.7890    2.5870 C   0  0  0  0  0  0  0  0  0  0  0  0
    4.4740    2.0650    1.7950 O   0  0  0  0  0  0  0  0  0  0  0  0
    3.7470    1.0880    1.1520 C   0  0  0  0  0  0  0  0  0  0  0  0
    4.1340   -0.2320    1.2790 C   0  0  0  0  0  0  0  0  0  0  0  0
    3.4110   -1.2200    0.6370 C   0  0  0  0  0  0  0  0  0  0  0  0
    2.3130   -0.8950   -0.1230 C   0  0  0  0  0  0  0  0  0  0  0  0
    1.5740   -1.8660   -0.7750 O   0  0  0  0  0  0  0  0  0  0  0  0
    1.8230   -3.2350   -0.7530 C   0  0  0  0  0  0  0  0  0  0  0  0
    1.9450    0.4300   -0.2370 C   0  0  0  0  0  0  0  0  0  0  0  0
    0.7510    0.7360   -1.0760 C   0  0  0  0  0  0  0  0  0  0  0  0
   -0.5060    0.3980   -0.3780 C   0  0  0  0  0  0  0  0  0  0  0  0
   -0.5660   -0.0300    0.9240 C   0  0  0  0  0  0  0  0  0  0  0  0
   -1.7380   -0.3240    1.5130 N   0  0  0  0  0  0  0  0  0  0  0  0
   -2.9090   -0.2240    0.8880 C   0  0  0  0  0  0  0  0  0  0  0  0
   -4.0730   -0.5230    1.4910 N   0  0  0  0  0  0  0  0  0  0  0  0
   -5.2540   -0.4290    0.8740 C   0  0  0  0  0  0  0  0  0  0  0  0
   -6.4850   -0.7630    1.5660 N   0  0  0  0  0  0  0  0  0  0  0  0
   -5.2630   -0.0200   -0.3870 N   0  0  0  0  0  0  0  0  0  0  0  0
   -4.1520    0.3030   -1.0760 C   0  0  0  0  0  0  0  0  0  0  0  0
   -4.2420    0.7270   -2.4210 N   0  0  0  0  0  0  0  0  0  0  0  0
   -2.9310    0.2090   -0.4490 C   0  0  0  0  0  0  0  0  0  0  0  0
   -1.7110    0.5140   -1.0610 C   0  0  0  0  0  0  0  0  0  0  0  0
   -1.7310    0.9700   -2.4670 C   0  0  0  0  0  0  0  0  0  0  0  0
    2.6410    1.4440    0.3880 C   0  0  0  0  0  0  0  0  0  0  0  0
  1  2  1  0
  2  3  1  0
  3  4  2  0
  3 24  1  0
  4  5  1  0
  5  6  2  0
  6  7  1  0
  6  9  1  0
  7  8  1  0
  9 10  1  0
  9 24  2  0
 10 11  1  0
 11 12  2  0
 11 22  1  0
 12 13  1  0
 13 14  2  0
 14 15  1  0
 14 21  1  0
 15 16  2  0
 16 17  1  0
 16 18  1  0
 18 19  2  0
 19 20  1  0
 19 21  1  0
 21 22  2  0
 22 23  1  0
M  END
