
     RDKit          3D

 24 26  0  0  0  0  0  0  0  0999 V2000
    7.3200   -0.0130    1.5340 C   0  0  0  0  0  0  0  0  0  0  0  0
    6.0630   -0.5340    0.9140 C   0  0  0  0  0  0  0  0  0  0  0  0
    5.0040    0.3900    1.0440 O   0  0  0  0  0  0  0  0  0  0  0  0
    3.7580    0.0220    0.5010 C   0  0  0  0  0  0  0  0  0  0  0  0
    3.5710   -1.1530   -0.1170 N   0  0  0  0  0  0  0  0  0  0  0  0
    2.3910   -1.5110   -0.6360 C   0  0  0  0  0  0  0  0  0  0  0  0
    2.2350   -2.7810   -1.2910 N   0  0  0  0  0  0  0  0  0  0  0  0
    1.3180   -0.6080   -0.5200 C   0  0  0  0  0  0  0  0  0  0  0  0
    0.0410   -0.9830   -1.0820 C   0  0  0  0  0  0  0  0  0  0  0  0
    0.0820   -2.1760   -1.6650 O   0  0  0  0  0  0  0  0  0  0  0  0
   -1.1940   -0.3420   -1.1270 N   0  0  0  0  0  0  0  0  0  0  0  0
   -1.5260    0.9170   -0.5880 C   0  0  0  0  0  0  0  0  0  0  0  0
   -3.0240    1.1950   -0.8280 C   0  0  0  0  0  0  0  0  0  0  0  0
   -3.8120    0.0570   -0.4090 N   0  0  0  0  0  0  0  0  0  0  0  0
   -4.9920    0.2260    0.3400 C   0  0  0  0  0  0  0  0  0  0  0  0
   -6.2480    0.0840   -0.1200 C   0  0  0  0  0  0  0  0  0  0  0  0
   -7.1760    0.3450    0.9680 C   0  0  0  0  0  0  0  0  0  0  0  0
   -6.4380    0.6190    2.0010 C   0  0  0  0  0  0  0  0  0  0  0  0
   -5.1370    0.5890    1.7610 C   0  0  0  0  0  0  0  0  0  0  0  0
   -3.3640   -1.2800   -0.7770 C   0  0  0  0  0  0  0  0  0  0  0  0
   -2.2670   -1.0840   -1.8330 C   0  0  0  0  0  0  0  0  0  0  0  0
    1.4920    0.5980    0.1100 C   0  0  0  0  0  0  0  0  0  0  0  0
    2.7500    0.9380    0.6430 C   0  0  0  0  0  0  0  0  0  0  0  0
    2.9370    2.1890    1.2980 N   0  0  0  0  0  0  0  0  0  0  0  0
  1  2  1  0
  2  3  1  0
  3  4  1  0
  4  5  2  0
  4 23  1  0
  5  6  1  0
  6  7  1  0
  6  8  2  0
  8  9  1  0
  8 22  1  0
  9 10  2  0
  9 11  1  0
 11 12  1  0
 11 21  1  0
 12 13  1  0
 13 14  1  0
 14 15  1  0
 14 20  1  0
 15 16  2  0
 15 19  1  0
 16 17  1  0
 17 18  2  0
 18 19  2  0
 20 21  1  0
 22 23  2  0
 23 24  1  0
M  END
