
     RDKit          3D

 20 23  0  0  0  0  0  0  0  0999 V2000
   -4.6410   -0.9040    0.7930 C   0  0  0  0  0  0  0  0  0  0  0  0
   -3.3940   -0.6750   -0.0440 C   0  0  2  0  0  0  0  0  0  0  0  0
   -2.3050   -1.5980    0.3790 C   0  0  2  0  0  0  0  0  0  0  0  0
   -2.4360   -2.0600    1.6850 O   0  0  0  0  0  0  0  0  0  0  0  0
   -1.0640   -0.8120    0.1740 C   0  0  0  0  0  0  0  0  0  0  0  0
    0.2900   -1.1570    0.0780 C   0  0  0  0  0  0  0  0  0  0  0  0
    1.2780   -0.2140   -0.1180 C   0  0  0  0  0  0  0  0  0  0  0  0
    2.6570   -0.2610   -0.2480 C   0  0  0  0  0  0  0  0  0  0  0  0
    3.1210    1.0250   -0.4280 C   0  0  0  0  0  0  0  0  0  0  0  0
    2.0690    1.8120   -0.4070 O   0  0  0  0  0  0  0  0  0  0  0  0
    0.9660    1.1250   -0.2270 C   0  0  0  0  0  0  0  0  0  0  0  0
   -0.3630    1.4780   -0.1340 C   0  0  0  0  0  0  0  0  0  0  0  0
   -1.3590    0.5260    0.0630 C   0  0  0  0  0  0  0  0  0  0  0  0
   -2.8280    0.7110    0.1860 C   0  0  2  0  0  0  0  0  0  0  0  0
   -3.1900    1.2740    1.5260 C   0  0  0  0  0  0  0  0  0  0  0  0
   -3.2720    1.5880   -0.9500 C   0  0  0  0  0  0  0  0  0  0  0  0
    4.5940    1.2410   -0.5950 C   0  0  0  0  0  0  0  0  0  0  0  0
    5.3730    0.3760    0.3240 C   0  0  0  0  0  0  0  0  0  0  0  0
    4.7900   -0.9560    0.6200 C   0  0  0  0  0  0  0  0  0  0  0  0
    3.6280   -1.3540   -0.2290 C   0  0  0  0  0  0  0  0  0  0  0  0
  2  1  1  1
  2  3  1  0
  2 14  1  0
  3  4  1  1
  3  5  1  0
  5  6  2  0
  5 13  1  0
  6  7  1  0
  7  8  1  0
  7 11  2  0
  8  9  2  0
  8 20  1  0
  9 10  1  0
  9 17  1  0
 10 11  1  0
 11 12  1  0
 12 13  2  0
 13 14  1  0
 14 15  1  1
 14 16  1  0
 17 18  1  0
 18 19  1  0
 19 20  1  0
M  END
