
     RDKit          3D

 20 22  0  0  0  0  0  0  0  0999 V2000
   -3.0300   -2.9140    1.4140 C   0  0  0  0  0  0  0  0  0  0  0  0
   -1.8590   -2.1640    0.7620 C   0  0  0  0  0  0  0  0  0  0  0  0
   -2.3860   -1.1800   -0.2110 C   0  0  0  0  0  0  0  0  0  0  0  0
   -1.3750   -0.3450   -0.9400 C   0  0  2  0  0  0  0  0  0  0  0  0
   -2.1360    0.4750   -1.8100 O   0  0  0  0  0  0  0  0  0  0  0  0
   -0.4970   -1.1860   -1.7910 C   0  0  0  0  0  0  0  0  0  0  0  0
    0.8700   -1.4420   -1.2470 C   0  0  0  0  0  0  0  0  0  0  0  0
    1.4210   -0.2370   -0.5120 C   0  0  2  0  0  0  0  0  0  0  0  0
    2.7790   -0.5230    0.0240 C   0  0  0  0  0  0  0  0  0  0  0  0
    3.4950   -1.6270   -0.0650 C   0  0  0  0  0  0  0  0  0  0  0  0
    4.7880   -1.4350    0.6280 C   0  0  0  0  0  0  0  0  0  0  0  0
    4.7180   -0.0630    1.1310 C   0  0  0  0  0  0  0  0  0  0  0  0
    3.5520    0.4490    0.7750 C   0  0  0  0  0  0  0  0  0  0  0  0
    0.5250    0.1100    0.4620 O   0  0  0  0  0  0  0  0  0  0  0  0
   -0.6240    0.6400   -0.0820 C   0  0  1  0  0  0  0  0  0  0  0  0
   -0.1680    1.8160   -0.9670 C   0  0  0  0  0  0  0  0  0  0  0  0
   -1.1770    2.9450   -0.9150 C   0  0  0  0  0  0  0  0  0  0  0  0
   -1.0730    3.6300    0.4390 C   0  0  0  0  0  0  0  0  0  0  0  0
   -0.6860    2.5610    1.4230 C   0  0  0  0  0  0  0  0  0  0  0  0
   -1.4250    1.2740    1.0080 C   0  0  0  0  0  0  0  0  0  0  0  0
  1  2  1  0
  2  3  1  0
  3  4  1  0
  4  5  1  6
  4  6  1  0
  4 15  1  0
  6  7  1  0
  7  8  1  0
  8  9  1  1
  8 14  1  0
  9 10  2  0
  9 13  1  0
 10 11  1  0
 11 12  1  0
 12 13  2  0
 14 15  1  0
 15 16  1  6
 15 20  1  0
 16 17  1  0
 17 18  1  0
 18 19  1  0
 19 20  1  0
M  END
