
     RDKit          3D

 24 26  0  0  0  0  0  0  0  0999 V2000
   -0.7130    0.4530    3.5810 C   0  0  0  0  0  0  0  0  0  0  0  0
   -0.7890    0.3580    2.2700 C   0  0  0  0  0  0  0  0  0  0  0  0
    0.2980    0.2110    1.4970 N   0  0  0  0  0  0  0  0  0  0  0  0
   -0.1390    0.1500    0.2340 C   0  0  0  0  0  0  0  0  0  0  0  0
    0.7170    0.0050   -0.7470 N   0  0  0  0  0  0  0  0  0  0  0  0
    2.1070   -0.0950   -0.5740 C   0  0  0  0  0  0  0  0  0  0  0  0
    2.7630    0.8550    0.1010 N   0  0  0  0  0  0  0  0  0  0  0  0
    4.1120    0.7940    0.2900 C   0  0  0  0  0  0  0  0  0  0  0  0
    4.7530    1.8340    1.0170 N   0  0  0  0  0  0  0  0  0  0  0  0
    4.8100   -0.2610   -0.2230 C   0  0  0  0  0  0  0  0  0  0  0  0
    6.2650   -0.3240   -0.0180 C   0  0  0  0  0  0  0  0  0  0  0  0
    6.8190    0.5920    0.6210 O   0  0  0  0  0  0  0  0  0  0  0  0
    4.1750   -1.2570   -0.9220 C   0  0  0  0  0  0  0  0  0  0  0  0
    2.7990   -1.1600   -1.0940 C   0  0  0  0  0  0  0  0  0  0  0  0
    2.1890   -2.1830   -1.8060 O   0  0  0  0  0  0  0  0  0  0  0  0
   -1.4520    0.2500    0.1700 N   0  0  0  0  0  0  0  0  0  0  0  0
   -2.2920    0.2320   -0.9670 C   0  0  2  0  0  0  0  0  0  0  0  0
   -2.8450   -1.1730   -1.2000 C   0  0  0  0  0  0  0  0  0  0  0  0
   -3.2970   -1.1610   -2.6440 C   0  0  0  0  0  0  0  0  0  0  0  0
   -2.6990    0.0610   -3.3020 C   0  0  0  0  0  0  0  0  0  0  0  0
   -1.6550    0.5800   -2.2870 C   0  0  0  0  0  0  0  0  0  0  0  0
   -1.9200    0.3870    1.4560 C   0  0  0  0  0  0  0  0  0  0  0  0
   -3.1790    0.5140    1.8000 C   0  0  0  0  0  0  0  0  0  0  0  0
   -3.7370    0.6610    3.1460 C   0  0  0  0  0  0  0  0  0  0  0  0
  1  2  2  0
  2  3  1  0
  2 22  1  0
  3  4  1  0
  4  5  2  3
  4 16  1  0
  5  6  1  0
  6  7  2  0
  6 14  1  0
  7  8  1  0
  8  9  1  0
  8 10  2  0
 10 11  1  0
 10 13  1  0
 11 12  2  0
 13 14  2  0
 14 15  1  0
 17 16  1  1
 16 22  1  0
 17 18  1  0
 17 21  1  0
 18 19  1  0
 19 20  1  0
 20 21  1  0
 22 23  2  3
 23 24  1  0
M  END
