
     RDKit          3D

 19 22  0  0  0  0  0  0  0  0999 V2000
   -1.9190   -1.6700   -0.6960 C   0  0  0  0  0  0  0  0  0  0  0  0
   -2.0020   -0.6700    0.4150 C   0  0  2  0  0  0  0  0  0  0  0  0
   -3.4050   -0.1240    0.5710 C   0  0  0  0  0  0  0  0  0  0  0  0
   -3.7850    0.6250   -0.6890 C   0  0  0  0  0  0  0  0  0  0  0  0
   -2.8860    1.8130   -0.7850 C   0  0  0  0  0  0  0  0  0  0  0  0
   -1.4490    1.3160   -0.9860 C   0  0  0  0  0  0  0  0  0  0  0  0
   -1.0760    0.5110    0.2100 C   0  0  1  0  0  0  0  0  0  0  0  0
   -1.2890    1.3460    1.3350 O   0  0  0  0  0  0  0  0  0  0  0  0
    0.3320    0.1010    0.2730 C   0  0  0  0  0  0  0  0  0  0  0  0
    1.2980    0.7270   -0.4660 C   0  0  0  0  0  0  0  0  0  0  0  0
    2.6400    0.3310   -0.4010 C   0  0  0  0  0  0  0  0  0  0  0  0
    2.9890   -0.7070    0.4240 C   0  0  0  0  0  0  0  0  0  0  0  0
    2.0160   -1.3450    1.1750 C   0  0  0  0  0  0  0  0  0  0  0  0
    0.6820   -0.9390    1.1000 C   0  0  0  0  0  0  0  0  0  0  0  0
   -0.2720   -1.5930    1.8600 O   0  0  0  0  0  0  0  0  0  0  0  0
   -1.6600   -1.3800    1.7060 C   0  0  0  0  0  0  0  0  0  0  0  0
    4.4310   -0.9640    0.3480 C   0  0  0  0  0  0  0  0  0  0  0  0
    4.9920    0.2110   -0.4120 C   0  0  0  0  0  0  0  0  0  0  0  0
    3.8200    0.8630   -1.1040 C   0  0  0  0  0  0  0  0  0  0  0  0
  2  1  1  6
  2  3  1  0
  2  7  1  0
  2 16  1  0
  3  4  1  0
  4  5  1  0
  5  6  1  0
  6  7  1  0
  7  8  1  1
  7  9  1  0
  9 10  2  0
  9 14  1  0
 10 11  1  0
 11 12  2  0
 11 19  1  0
 12 13  1  0
 12 17  1  0
 13 14  2  0
 14 15  1  0
 15 16  1  0
 17 18  1  0
 18 19  1  0
M  END
