
     RDKit          3D

 20 22  0  0  0  0  0  0  0  0999 V2000
   -2.3260    2.2540    0.8880 O   0  0  0  0  0  0  0  0  0  0  0  0
   -2.0950    0.9220    0.4790 C   0  0  1  0  0  0  0  0  0  0  0  0
   -3.4940    0.3400    0.3600 C   0  0  0  0  0  0  0  0  0  0  0  0
   -4.0870   -0.0730   -0.7360 C   0  0  0  0  0  0  0  0  0  0  0  0
   -5.4350   -0.5590   -0.3890 C   0  0  0  0  0  0  0  0  0  0  0  0
   -5.5430   -0.3610    1.0620 C   0  0  0  0  0  0  0  0  0  0  0  0
   -4.4130    0.1580    1.4820 C   0  0  0  0  0  0  0  0  0  0  0  0
   -1.3980    0.8920   -0.8540 C   0  0  1  0  0  0  0  0  0  0  0  0
   -0.0960    1.6400   -0.6850 C   0  0  0  0  0  0  0  0  0  0  0  0
    0.7990    0.9660    0.3000 C   0  0  0  0  0  0  0  0  0  0  0  0
    1.0350   -0.4790   -0.0130 C   0  0  2  0  0  0  0  0  0  0  0  0
    0.6260   -1.2310    1.1110 O   0  0  0  0  0  0  0  0  0  0  0  0
    2.5130   -0.7960   -0.1650 C   0  0  1  0  0  0  0  0  0  0  0  0
    3.1870   -0.0230   -1.2540 C   0  0  0  0  0  0  0  0  0  0  0  0
    4.6110   -0.5280   -1.3010 C   0  0  0  0  0  0  0  0  0  0  0  0
    5.2830   -0.4110   -0.1590 C   0  0  0  0  0  0  0  0  0  0  0  0
    4.5130    0.2020    0.9840 C   0  0  0  0  0  0  0  0  0  0  0  0
    3.2470   -0.6390    1.1300 C   0  0  0  0  0  0  0  0  0  0  0  0
    0.2650   -0.9820   -1.1890 C   0  0  0  0  0  0  0  0  0  0  0  0
   -1.1610   -0.5470   -1.2590 C   0  0  0  0  0  0  0  0  0  0  0  0
  2  1  1  6
  2  3  1  0
  2  8  1  0
  3  4  2  0
  3  7  1  0
  4  5  1  0
  5  6  1  0
  6  7  2  0
  8  9  1  1
  8 20  1  0
  9 10  1  0
 10 11  1  0
 11 12  1  1
 11 13  1  0
 11 19  1  0
 13 14  1  6
 13 18  1  0
 14 15  1  0
 15 16  2  0
 16 17  1  0
 17 18  1  0
 19 20  1  0
M  END
