
     RDKit          3D

 20 22  0  0  0  0  0  0  0  0999 V2000
   -3.1580    1.9480    0.0930 C   0  0  0  0  0  0  0  0  0  0  0  0
   -3.6460    0.6290   -0.4940 C   0  0  2  0  0  0  0  0  0  0  0  0
   -4.4690   -0.1610    0.4580 C   0  0  0  0  0  0  0  0  0  0  0  0
   -3.8940   -1.5320    0.7020 C   0  0  0  0  0  0  0  0  0  0  0  0
   -2.4750   -1.3890    1.0520 C   0  0  0  0  0  0  0  0  0  0  0  0
   -1.6490   -0.6790    0.2200 C   0  0  0  0  0  0  0  0  0  0  0  0
   -0.2570   -0.5570    0.5890 C   0  0  0  0  0  0  0  0  0  0  0  0
    0.0350   -1.1280    1.7410 O   0  0  0  0  0  0  0  0  0  0  0  0
    0.8880    0.0520   -0.0240 C   0  0  0  0  0  0  0  0  0  0  0  0
    0.9490    0.6720   -1.1780 C   0  0  0  0  0  0  0  0  0  0  0  0
    2.1550    1.2780   -1.7510 C   0  0  0  0  0  0  0  0  0  0  0  0
    3.3770    1.2090   -0.9330 C   0  0  0  0  0  0  0  0  0  0  0  0
    3.4230   -0.0150   -0.0590 C   0  0  1  0  0  0  0  0  0  0  0  0
    3.5000   -1.2690   -0.9180 C   0  0  0  0  0  0  0  0  0  0  0  0
    4.4990   -0.0980    0.9120 C   0  0  0  0  0  0  0  0  0  0  0  0
    3.9790   -0.1620    2.1240 C   0  0  0  0  0  0  0  0  0  0  0  0
    2.5270   -0.1200    2.0030 C   0  0  0  0  0  0  0  0  0  0  0  0
    2.1690   -0.0330    0.7660 C   0  0  0  0  0  0  0  0  0  0  0  0
   -2.3840   -0.1220   -0.9230 C   0  0  1  0  0  0  0  0  0  0  0  0
   -2.7980   -1.1620   -1.8020 O   0  0  0  0  0  0  0  0  0  0  0  0
  2  1  1  1
  2  3  1  0
  2 19  1  0
  3  4  1  0
  4  5  1  0
  5  6  2  0
  6  7  1  0
  6 19  1  0
  7  8  2  0
  7  9  1  0
  9 10  2  0
  9 18  1  0
 10 11  1  0
 11 12  1  0
 12 13  1  0
 13 14  1  6
 13 15  1  0
 13 18  1  0
 15 16  2  0
 16 17  1  0
 17 18  2  0
 19 20  1  6
M  END
