
     RDKit          3D

 33 36  0  0  0  0  0  0  0  0999 V2000
   -4.2030    1.6570   -0.5030 C   0  0  0  0  0  0  0  0  0  0  0  0
   -5.4360    1.2590   -1.1600 C   0  0  0  0  0  0  0  0  0  0  0  0
   -6.1150    0.1530   -1.1210 C   0  0  0  0  0  0  0  0  0  0  0  0
   -7.3710    0.1280   -1.9580 C   0  0  0  0  0  0  0  0  0  0  0  0
   -7.6600    1.1050   -2.6990 N   0  0  0  0  0  0  0  0  0  0  0  0
   -8.2330   -1.0390   -1.9040 C   0  0  0  0  0  0  0  0  0  0  0  0
   -7.8920   -2.0330   -1.1300 C   0  0  0  0  0  0  0  0  0  0  0  0
   -6.6940   -2.0110   -0.3340 C   0  0  0  0  0  0  0  0  0  0  0  0
   -5.8260   -0.9830   -0.3110 C   0  0  0  0  0  0  0  0  0  0  0  0
   -4.6840   -1.1370    0.6000 C   0  0  0  0  0  0  0  0  0  0  0  0
   -3.4840   -0.6670    0.7280 N   0  0  0  0  0  0  0  0  0  0  0  0
   -2.8150   -1.1370    1.7890 C   0  0  0  0  0  0  0  0  0  0  0  0
   -1.4900   -0.9370    2.3050 C   0  0  0  0  0  0  0  0  0  0  0  0
   -1.1860   -1.5370    3.3950 O   0  0  0  0  0  0  0  0  0  0  0  0
   -0.4830   -0.1380    1.7250 N   0  0  0  0  0  0  0  0  0  0  0  0
    0.8090   -0.0200    2.4270 C   0  0  0  0  0  0  0  0  0  0  0  0
    1.7950    0.8100    1.6310 C   0  0  0  0  0  0  0  0  0  0  0  0
    1.8210    0.3900    0.2410 N   0  0  0  0  0  0  0  0  0  0  0  0
    3.0460    0.2890   -0.4520 C   0  0  0  0  0  0  0  0  0  0  0  0
    3.0380   -0.0840   -1.6500 O   0  0  0  0  0  0  0  0  0  0  0  0
    4.3390    0.6080    0.1840 C   0  0  0  0  0  0  0  0  0  0  0  0
    5.5000    0.3280   -0.7760 C   0  0  0  0  0  0  0  0  0  0  0  0
    6.7670    0.6640   -0.0970 C   0  0  0  0  0  0  0  0  0  0  0  0
    6.7220    1.1430    1.0620 O   0  0  0  0  0  0  0  0  0  0  0  0
    8.0140    0.4580   -0.7220 C   0  0  0  0  0  0  0  0  0  0  0  0
    8.4400   -0.0340   -1.9300 C   0  0  0  0  0  0  0  0  0  0  0  0
    9.7190   -0.1110   -2.2530 C   0  0  0  0  0  0  0  0  0  0  0  0
   10.6640    0.3290   -1.3150 C   0  0  0  0  0  0  0  0  0  0  0  0
    9.6590    0.8710    0.0750 S   0  0  0  0  0  0  0  0  0  0  0  0
    0.5820    0.0760   -0.4200 C   0  0  0  0  0  0  0  0  0  0  0  0
   -0.5710    0.5620    0.4800 C   0  0  0  0  0  0  0  0  0  0  0  0
   -3.7470   -2.0070    2.3730 C   0  0  0  0  0  0  0  0  0  0  0  0
   -4.8000   -1.9720    1.6530 O   0  0  0  0  0  0  0  0  0  0  0  0
  1  2  1  0
  2  3  2  3
  3  4  1  0
  3  9  1  0
  4  5  2  0
  4  6  1  0
  6  7  2  0
  7  8  1  0
  8  9  2  0
  9 10  1  0
 10 11  2  0
 10 33  1  0
 11 12  1  0
 12 13  1  0
 12 32  2  0
 13 14  2  0
 13 15  1  0
 15 16  1  0
 15 31  1  0
 16 17  1  0
 17 18  1  0
 18 19  1  0
 18 30  1  0
 19 20  2  0
 19 21  1  0
 21 22  1  0
 22 23  1  0
 23 24  2  0
 23 25  1  0
 25 26  2  0
 25 29  1  0
 26 27  1  0
 27 28  2  0
 28 29  1  0
 30 31  1  0
 32 33  1  0
M  END
