
     RDKit          3D

 33 35  0  0  0  0  0  0  0  0999 V2000
   -8.2800    1.5210   -2.5440 C   0  0  0  0  0  0  0  0  0  0  0  0
   -7.3560    1.0280   -1.7240 C   0  0  0  0  0  0  0  0  0  0  0  0
   -7.7370    0.2000   -0.5970 C   0  0  0  0  0  0  0  0  0  0  0  0
   -6.7920   -0.2670    0.1910 C   0  0  0  0  0  0  0  0  0  0  0  0
   -5.3430    0.0440   -0.0580 C   0  0  0  0  0  0  0  0  0  0  0  0
   -4.5650   -0.5980    0.9330 N   0  0  0  0  0  0  0  0  0  0  0  0
   -3.1600   -0.5850    0.7510 C   0  0  1  0  0  0  0  0  0  0  0  0
   -2.6920   -1.3030   -0.4920 C   0  0  0  0  0  0  0  0  0  0  0  0
   -1.1790   -1.4530   -0.3280 C   0  0  0  0  0  0  0  0  0  0  0  0
   -0.5290   -0.1810   -0.0970 N   0  0  0  0  0  0  0  0  0  0  0  0
    0.7940   -0.0270   -0.5800 C   0  0  0  0  0  0  0  0  0  0  0  0
    1.3520   -0.9740   -1.1860 O   0  0  0  0  0  0  0  0  0  0  0  0
    1.5470    1.1910   -0.4050 N   0  0  0  0  0  0  0  0  0  0  0  0
    2.8710    1.3110   -0.9120 C   0  0  0  0  0  0  0  0  0  0  0  0
    3.4360    0.3790   -1.5230 O   0  0  0  0  0  0  0  0  0  0  0  0
    3.5990    2.5760   -0.7100 C   0  0  0  0  0  0  0  0  0  0  0  0
    4.8790    2.4660   -1.2900 O   0  0  0  0  0  0  0  0  0  0  0  0
    5.8050    1.5420   -0.9030 C   0  0  0  0  0  0  0  0  0  0  0  0
    5.5270    0.7370    0.0190 O   0  0  0  0  0  0  0  0  0  0  0  0
    7.1680    1.4440   -1.5440 C   0  0  0  0  0  0  0  0  0  0  0  0
    8.2110    2.0840   -0.6880 C   0  0  0  0  0  0  0  0  0  0  0  0
    8.2780    1.2670    0.9090 S   0  0  0  0  0  0  0  0  0  0  0  0
    8.8800   -0.3950    0.7450 C   0  0  0  0  0  0  0  0  0  0  0  0
    8.9850   -1.2250    1.7930 C   0  0  0  0  0  0  0  0  0  0  0  0
    9.5120   -2.5340    1.3550 C   0  0  0  0  0  0  0  0  0  0  0  0
    9.7050   -2.3760   -0.0880 C   0  0  0  0  0  0  0  0  0  0  0  0
    9.3340   -1.1410   -0.4000 C   0  0  0  0  0  0  0  0  0  0  0  0
   -1.1420    0.9210    0.5820 C   0  0  0  0  0  0  0  0  0  0  0  0
   -2.6340    0.8090    0.7460 C   0  0  0  0  0  0  0  0  0  0  0  0
   -5.0120   -0.4400    2.2670 C   0  0  0  0  0  0  0  0  0  0  0  0
   -6.3980   -0.8920    2.5390 C   0  0  0  0  0  0  0  0  0  0  0  0
   -7.1070   -1.0820    1.2950 N   0  0  0  0  0  0  0  0  0  0  0  0
   -8.1480   -2.0980    1.1650 C   0  0  0  0  0  0  0  0  0  0  0  0
  1  2  2  0
  2  3  1  0
  3  4  2  3
  4  5  1  0
  4 32  1  0
  5  6  1  0
  7  6  1  6
  6 30  1  0
  7  8  1  0
  7 29  1  0
  8  9  1  0
  9 10  1  0
 10 11  1  0
 10 28  1  0
 11 12  2  0
 11 13  1  0
 13 14  1  0
 14 15  2  0
 14 16  1  0
 16 17  1  0
 17 18  1  0
 18 19  2  0
 18 20  1  0
 20 21  1  0
 21 22  1  0
 22 23  1  0
 23 24  2  0
 23 27  1  0
 24 25  1  0
 25 26  1  0
 26 27  2  0
 28 29  1  0
 30 31  1  0
 31 32  1  0
 32 33  1  0
M  END
