
     RDKit          3D

 32 33  0  0  0  0  0  0  0  0999 V2000
    0.1820    5.2490    0.3840 C   0  0  0  0  0  0  0  0  0  0  0  0
    0.8950    4.2200   -0.5450 C   0  0  0  0  0  0  0  0  0  0  0  0
   -0.0820    3.2380   -1.0440 C   0  0  0  0  0  0  0  0  0  0  0  0
   -1.2530    3.8610   -1.8310 C   0  0  0  0  0  0  0  0  0  0  0  0
   -0.7020    4.7480   -2.8620 N   0  0  0  0  0  0  0  0  0  0  0  0
   -1.0580    6.1320   -2.6350 C   0  0  0  0  0  0  0  0  0  0  0  0
    0.0170    1.9650   -1.0220 C   0  0  0  0  0  0  0  0  0  0  0  0
   -1.1990    1.2840   -1.5730 N   0  0  0  0  0  0  0  0  0  0  0  0
   -2.4450    1.3390   -0.8830 C   0  0  0  0  0  0  0  0  0  0  0  0
   -2.6240    0.4920    0.3300 C   0  0  0  0  0  0  0  0  0  0  0  0
   -2.6870   -0.8920    0.0150 N   0  0  1  0  0  0  0  0  0  0  0  0
   -1.9850   -1.7120    0.9500 C   0  0  0  0  0  0  0  0  0  0  0  0
   -2.6300   -1.6290    2.3120 C   0  0  0  0  0  0  0  0  0  0  0  0
   -3.9440   -2.3250    2.4240 C   0  0  0  0  0  0  0  0  0  0  0  0
   -4.2200   -3.3420    1.3640 C   0  0  0  0  0  0  0  0  0  0  0  0
   -4.3340   -2.7260   -0.0130 C   0  0  0  0  0  0  0  0  0  0  0  0
   -4.1240   -1.2460    0.0010 C   0  0  0  0  0  0  0  0  0  0  0  0
    1.1250    1.0320   -0.8360 C   0  0  0  0  0  0  0  0  0  0  0  0
    0.8610   -0.2480   -0.7890 C   0  0  0  0  0  0  0  0  0  0  0  0
    1.4760   -1.4970   -0.6060 C   0  0  0  0  0  0  0  0  0  0  0  0
    0.5870   -2.4860   -0.9550 O   0  0  0  0  0  0  0  0  0  0  0  0
    2.6860   -2.0140   -0.1700 N   0  0  0  0  0  0  0  0  0  0  0  0
    3.7500   -1.3630    0.4970 C   0  0  0  0  0  0  0  0  0  0  0  0
    4.0900   -2.2580    1.7120 C   0  0  1  0  0  0  0  0  0  0  0  0
    4.1640   -1.3600    2.9190 C   0  0  0  0  0  0  0  0  0  0  0  0
    3.0630   -3.1760    1.9560 O   0  0  0  0  0  0  0  0  0  0  0  0
    2.9720   -4.1110    0.9230 C   0  0  2  0  0  0  0  0  0  0  0  0
    4.0870   -5.1360    1.0300 C   0  0  0  0  0  0  0  0  0  0  0  0
    2.9650   -3.4480   -0.4340 C   0  0  0  0  0  0  0  0  0  0  0  0
    2.4540    1.4560   -1.2310 C   0  0  0  0  0  0  0  0  0  0  0  0
    3.4200    0.4940   -1.6870 N   0  0  0  0  0  0  0  0  0  0  0  0
    2.8970    2.6040   -1.2330 O   0  0  0  0  0  0  0  0  0  0  0  0
  1  2  1  0
  2  3  1  0
  3  4  1  0
  3  7  2  3
  4  5  1  0
  5  6  1  0
  7  8  1  0
  7 18  1  0
  8  9  1  0
  9 10  1  0
 11 10  1  1
 11 12  1  0
 11 17  1  0
 12 13  1  0
 13 14  1  0
 14 15  1  0
 15 16  1  0
 16 17  1  0
 18 19  2  3
 18 30  1  0
 19 20  1  0
 20 21  2  0
 20 22  1  0
 22 23  1  0
 22 29  1  0
 23 24  1  0
 24 25  1  1
 24 26  1  0
 26 27  1  0
 27 28  1  6
 27 29  1  0
 30 31  1  0
 30 32  2  0
M  CHG  2   5   1  11   1
M  END
