
     RDKit          3D

 33 35  0  0  0  0  0  0  0  0999 V2000
   -9.2410   -2.6600    1.2940 C   0  0  0  0  0  0  0  0  0  0  0  0
   -8.5360   -1.7560    0.2940 C   0  0  0  0  0  0  0  0  0  0  0  0
   -8.0120   -0.6080    0.9250 O   0  0  0  0  0  0  0  0  0  0  0  0
   -7.3230    0.3100    0.1280 C   0  0  0  0  0  0  0  0  0  0  0  0
   -7.2130    0.0570   -1.0980 O   0  0  0  0  0  0  0  0  0  0  0  0
   -6.7480    1.5380    0.7460 C   0  0  0  0  0  0  0  0  0  0  0  0
   -5.2790    1.6670    0.5490 C   0  0  1  0  0  0  0  0  0  0  0  0
   -4.5010    0.5130    1.1380 C   0  0  0  0  0  0  0  0  0  0  0  0
   -3.7730   -0.2790    0.0810 C   0  0  0  0  0  0  0  0  0  0  0  0
   -2.8670    0.5900   -0.7600 C   0  0  2  0  0  0  0  0  0  0  0  0
   -2.7500   -0.0320   -2.0620 N   0  0  0  0  0  0  0  0  0  0  0  0
   -2.4770   -1.4390   -1.8870 C   0  0  0  0  0  0  0  0  0  0  0  0
   -1.5230    0.7410   -0.1260 C   0  0  0  0  0  0  0  0  0  0  0  0
   -1.4950    1.2630    1.0100 O   0  0  0  0  0  0  0  0  0  0  0  0
   -0.3170    0.3390   -0.7200 N   0  0  0  0  0  0  0  0  0  0  0  0
    0.9820    0.4380   -0.1930 C   0  0  0  0  0  0  0  0  0  0  0  0
    1.3170    0.8300    1.0720 C   0  0  0  0  0  0  0  0  0  0  0  0
    2.6290    0.8990    1.4940 C   0  0  0  0  0  0  0  0  0  0  0  0
    3.6760    0.5670    0.6350 C   0  0  0  0  0  0  0  0  0  0  0  0
    3.3700    0.1670   -0.6490 C   0  0  0  0  0  0  0  0  0  0  0  0
    2.0510    0.1090   -1.0380 C   0  0  0  0  0  0  0  0  0  0  0  0
    4.6090   -0.1150   -1.3290 N   0  0  0  0  0  0  0  0  0  0  0  0
    5.6010   -0.2610   -0.3100 C   0  0  1  0  0  0  0  0  0  0  0  0
    6.9760    0.1760   -0.7560 C   0  0  0  0  0  0  0  0  0  0  0  0
    7.8840   -0.0230    0.3610 N   0  0  1  0  0  0  0  0  0  0  0  0
    8.9720   -0.9300   -0.0130 C   0  0  0  0  0  0  0  0  0  0  0  0
    8.4020   -2.3160   -0.1300 C   0  0  0  0  0  0  0  0  0  0  0  0
    8.4320    1.2420    0.8460 C   0  0  0  0  0  0  0  0  0  0  0  0
    8.7900    1.0290    2.2580 C   0  0  0  0  0  0  0  0  0  0  0  0
    9.0930    0.8580    3.3680 N   0  0  0  0  0  0  0  0  0  0  0  0
    5.0910    0.5350    0.7720 N   0  0  0  0  0  0  0  0  0  0  0  0
   -3.4220    1.9840   -0.9580 C   0  0  0  0  0  0  0  0  0  0  0  0
   -4.9490    1.8870   -0.9010 C   0  0  0  0  0  0  0  0  0  0  0  0
  1  2  1  0
  2  3  1  0
  3  4  1  0
  4  5  2  0
  4  6  1  0
  7  6  1  6
  7  8  1  0
  7 33  1  0
  8  9  1  0
  9 10  1  0
 10 11  1  6
 10 13  1  0
 10 32  1  0
 11 12  1  0
 13 14  2  0
 13 15  1  0
 15 16  1  0
 16 17  2  0
 16 21  1  0
 17 18  1  0
 18 19  2  0
 19 20  1  0
 19 31  1  0
 20 21  2  0
 20 22  1  0
 22 23  1  0
 23 24  1  6
 23 31  1  0
 25 24  1  6
 25 26  1  0
 25 28  1  0
 26 27  1  0
 28 29  1  0
 29 30  3  0
 32 33  1  0
M  CHG  2  11   1  25   1
M  END
