
     RDKit          3D

 33 35  0  0  0  0  0  0  0  0999 V2000
    2.4480    1.9440    0.1810 C   0  0  0  0  0  0  0  0  0  0  0  0
    2.0520    0.8570   -0.6890 N   0  0  0  0  0  0  0  0  0  0  0  0
    3.0660    0.3010   -1.5730 C   0  0  0  0  0  0  0  0  0  0  0  0
    4.2260   -0.2080   -0.7870 C   0  0  0  0  0  0  0  0  0  0  0  0
    4.0700   -1.4270   -0.1550 C   0  0  0  0  0  0  0  0  0  0  0  0
    5.0430   -1.9840    0.5800 N   0  0  0  0  0  0  0  0  0  0  0  0
    6.2120   -1.3590    0.7220 C   0  0  0  0  0  0  0  0  0  0  0  0
    7.2050   -1.8930    1.4540 N   0  0  0  0  0  0  0  0  0  0  0  0
    8.3930   -1.2780    1.6110 C   0  0  0  0  0  0  0  0  0  0  0  0
    9.4130   -1.8880    2.4020 N   0  0  0  0  0  0  0  0  0  0  0  0
    8.5680   -0.0890    1.0030 N   0  0  0  0  0  0  0  0  0  0  0  0
    7.6000    0.4860    0.2580 C   0  0  0  0  0  0  0  0  0  0  0  0
    7.8690    1.7310   -0.3470 N   0  0  0  0  0  0  0  0  0  0  0  0
    6.3820   -0.1310    0.0910 C   0  0  0  0  0  0  0  0  0  0  0  0
    5.3880    0.4200   -0.6500 N   0  0  0  0  0  0  0  0  0  0  0  0
    0.7090    0.3890   -0.6380 C   0  0  0  0  0  0  0  0  0  0  0  0
    0.3320   -0.6870    0.1370 C   0  0  0  0  0  0  0  0  0  0  0  0
   -0.9700   -1.1470    0.1950 C   0  0  0  0  0  0  0  0  0  0  0  0
   -1.9560   -0.5210   -0.5430 C   0  0  0  0  0  0  0  0  0  0  0  0
   -3.3400   -0.9780   -0.5350 C   0  0  0  0  0  0  0  0  0  0  0  0
   -3.6300   -2.2100   -0.6690 O   0  0  0  0  0  0  0  0  0  0  0  0
   -4.4150   -0.0690   -0.3750 N   0  0  0  0  0  0  0  0  0  0  0  0
   -5.8170   -0.4910   -0.3630 C   0  0  1  0  0  0  0  0  0  0  0  0
   -6.3370   -0.5300    1.0270 C   0  0  0  0  0  0  0  0  0  0  0  0
   -7.7490   -0.8770    1.2680 C   0  0  0  0  0  0  0  0  0  0  0  0
   -8.7380    0.1360    0.7810 C   0  0  0  0  0  0  0  0  0  0  0  0
   -9.9370   -0.1170    0.5250 O   0  0  0  0  0  0  0  0  0  0  0  0
   -8.3260    1.4750    0.5930 O   0  0  0  0  0  0  0  0  0  0  0  0
   -6.6220    0.1040   -1.4170 C   0  0  0  0  0  0  0  0  0  0  0  0
   -6.1100    1.0490   -2.0950 O   0  0  0  0  0  0  0  0  0  0  0  0
   -7.9060   -0.2620   -1.7690 O   0  0  0  0  0  0  0  0  0  0  0  0
   -1.5920    0.5550   -1.3190 C   0  0  0  0  0  0  0  0  0  0  0  0
   -0.2780    1.0060   -1.3680 C   0  0  0  0  0  0  0  0  0  0  0  0
  1  2  1  0
  2  3  1  0
  2 16  1  0
  3  4  1  0
  4  5  2  0
  4 15  1  0
  5  6  1  0
  6  7  2  0
  7  8  1  0
  7 14  1  0
  8  9  2  0
  9 10  1  0
  9 11  1  0
 11 12  2  0
 12 13  1  0
 12 14  1  0
 14 15  2  0
 16 17  2  0
 16 33  1  0
 17 18  1  0
 18 19  2  0
 19 20  1  0
 19 32  1  0
 20 21  2  0
 20 22  1  0
 22 23  1  0
 23 24  1  1
 23 29  1  0
 24 25  1  0
 25 26  1  0
 26 27  2  0
 26 28  1  0
 29 30  2  0
 29 31  1  0
 32 33  2  0
M  END
