
     RDKit          3D

 33 36  0  0  0  0  0  0  0  0999 V2000
    5.3950    1.2560   -1.1350 C   0  0  0  0  0  0  0  0  0  0  0  0
    6.5360    0.6380   -0.3860 C   0  0  0  0  0  0  0  0  0  0  0  0
    7.8230    0.7740   -0.8850 C   0  0  0  0  0  0  0  0  0  0  0  0
    8.8630    0.2000   -0.2080 C   0  0  0  0  0  0  0  0  0  0  0  0
    8.6890   -0.4990    0.9360 N   0  0  0  0  0  0  0  0  0  0  0  0
    7.4360   -0.6280    1.4220 C   0  0  0  0  0  0  0  0  0  0  0  0
    7.2730   -1.2850    2.5030 O   0  0  0  0  0  0  0  0  0  0  0  0
    6.3590   -0.0740    0.7830 C   0  0  0  0  0  0  0  0  0  0  0  0
    4.9860   -0.1440    1.3260 C   0  0  0  0  0  0  0  0  0  0  0  0
    4.8560    0.1370    2.5470 O   0  0  0  0  0  0  0  0  0  0  0  0
    3.8540   -0.4880    0.5570 C   0  0  0  0  0  0  0  0  0  0  0  0
    2.2460    0.3940    0.6140 S   0  0  0  0  0  0  0  0  0  0  0  0
    1.4720   -0.6670   -0.6750 C   0  0  0  0  0  0  0  0  0  0  0  0
    0.1140   -0.4190   -1.2370 C   0  0  0  0  0  0  0  0  0  0  0  0
   -0.7360    0.6150   -0.6380 C   0  0  0  0  0  0  0  0  0  0  0  0
   -1.5040    0.2970    0.5810 C   0  0  0  0  0  0  0  0  0  0  0  0
   -0.9970    0.2920    1.8370 C   0  0  0  0  0  0  0  0  0  0  0  0
   -1.8320   -0.0320    2.8740 N   0  0  0  0  0  0  0  0  0  0  0  0
   -3.1030   -0.3340    2.7260 C   0  0  0  0  0  0  0  0  0  0  0  0
   -3.7170   -0.3450    1.4540 C   0  0  0  0  0  0  0  0  0  0  0  0
   -5.1000   -0.7650    1.3690 C   0  0  0  0  0  0  0  0  0  0  0  0
   -5.3880   -1.8510    1.9930 O   0  0  0  0  0  0  0  0  0  0  0  0
   -6.1030   -0.0500    0.6690 N   0  0  0  0  0  0  0  0  0  0  0  0
   -5.9080    1.2340    0.0530 C   0  0  0  0  0  0  0  0  0  0  0  0
   -6.7980    1.3800   -1.1490 C   0  0  0  0  0  0  0  0  0  0  0  0
   -8.2280    1.3020   -0.6510 C   0  0  0  0  0  0  0  0  0  0  0  0
   -8.5070   -0.1310   -0.2820 C   0  0  0  0  0  0  0  0  0  0  0  0
   -7.4320   -0.6270    0.5800 C   0  0  0  0  0  0  0  0  0  0  0  0
   -7.6400   -1.6480    1.3290 O   0  0  0  0  0  0  0  0  0  0  0  0
   -2.8850   -0.0280    0.4230 C   0  0  0  0  0  0  0  0  0  0  0  0
    2.3960   -1.4260   -0.9250 N   0  0  0  0  0  0  0  0  0  0  0  0
    3.5750   -1.4550   -0.4180 C   0  0  0  0  0  0  0  0  0  0  0  0
    4.6580   -2.4290   -0.8080 C   0  0  0  0  0  0  0  0  0  0  0  0
  1  2  1  0
  2  3  1  0
  2  8  2  0
  3  4  2  0
  4  5  1  0
  5  6  1  0
  6  7  2  0
  6  8  1  0
  8  9  1  0
  9 10  2  0
  9 11  1  0
 11 12  1  0
 11 32  2  0
 12 13  1  0
 13 14  1  0
 13 31  2  0
 14 15  1  0
 15 16  1  0
 16 17  2  0
 16 30  1  0
 17 18  1  0
 18 19  2  0
 19 20  1  0
 20 21  1  0
 20 30  2  0
 21 22  2  0
 21 23  1  0
 23 24  1  0
 23 28  1  0
 24 25  1  0
 25 26  1  0
 26 27  1  0
 27 28  1  0
 28 29  2  0
 31 32  1  0
 32 33  1  0
M  END
