
     RDKit          3D

 43 46  0  0  0  0  0  0  0  0999 V2000
   -6.1670    3.4390   -1.8140 C   0  0  0  0  0  0  0  0  0  0  0  0
   -5.9780    2.9390   -0.4930 O   0  0  0  0  0  0  0  0  0  0  0  0
   -4.9920    3.0760    0.2960 N   0  0  0  0  0  0  0  0  0  0  0  0
   -4.3850    3.4670    1.2800 C   0  0  0  0  0  0  0  0  0  0  0  0
   -2.9630    3.1370    1.5630 C   0  0  0  0  0  0  0  0  0  0  0  0
   -2.3010    2.3810    0.7030 C   0  0  0  0  0  0  0  0  0  0  0  0
   -2.8800    1.8490   -0.5160 C   0  0  0  0  0  0  0  0  0  0  0  0
   -2.8620    0.5610   -0.8840 C   0  0  0  0  0  0  0  0  0  0  0  0
   -2.2620   -0.4080   -0.0930 O   0  0  0  0  0  0  0  0  0  0  0  0
   -2.3760   -1.6770   -0.6500 C   0  0  2  0  0  0  0  0  0  0  0  0
   -1.0340   -2.3240   -0.9180 C   0  0  0  0  0  0  0  0  0  0  0  0
   -0.3660   -2.7210    0.3880 C   0  0  0  0  0  0  0  0  0  0  0  0
    0.9470   -3.3500    0.0520 C   0  0  0  0  0  0  0  0  0  0  0  0
    1.8450   -3.5370    1.1390 N   0  0  0  0  0  0  0  0  0  0  0  0
    1.9190   -2.7940    2.3410 C   0  0  0  0  0  0  0  0  0  0  0  0
    2.0090   -3.4900    3.4190 O   0  0  0  0  0  0  0  0  0  0  0  0
    1.9030   -1.4220    2.4460 O   0  0  0  0  0  0  0  0  0  0  0  0
    2.2010   -0.4980    1.4350 C   0  0  1  0  0  0  0  0  0  0  0  0
    1.2140    0.5170    1.5240 O   0  0  0  0  0  0  0  0  0  0  0  0
    1.1530    1.0620    0.2570 C   0  0  2  0  0  0  0  0  0  0  0  0
    2.5060    1.6450   -0.0830 C   0  0  0  0  0  0  0  0  0  0  0  0
    3.4550    1.5840    1.0800 C   0  0  0  0  0  0  0  0  0  0  0  0
    3.5120    0.1840    1.6420 C   0  0  2  0  0  0  0  0  0  0  0  0
    4.6500   -0.5490    1.2170 N   0  0  0  0  0  0  0  0  0  0  0  0
    5.7330   -0.9960    2.0690 C   0  0  0  0  0  0  0  0  0  0  0  0
    6.9270   -1.1960    1.2030 C   0  0  0  0  0  0  0  0  0  0  0  0
    6.4120   -1.2020   -0.1490 N   0  0  0  0  0  0  0  0  0  0  0  0
    7.1590   -1.3840   -1.3460 C   0  0  0  0  0  0  0  0  0  0  0  0
    8.4260   -1.5660   -1.2960 N   0  0  0  0  0  0  0  0  0  0  0  0
    4.9840   -0.9870   -0.0730 C   0  0  0  0  0  0  0  0  0  0  0  0
    4.2120   -1.1770   -1.0320 O   0  0  0  0  0  0  0  0  0  0  0  0
    0.1150    2.1050    0.0810 C   0  0  0  0  0  0  0  0  0  0  0  0
   -0.9590    2.0470    0.9430 O   0  0  0  0  0  0  0  0  0  0  0  0
   -3.0680   -1.5460   -1.9070 N   0  0  0  0  0  0  0  0  0  0  0  0
   -3.4000   -2.6130   -2.8540 C   0  0  0  0  0  0  0  0  0  0  0  0
   -4.6550   -3.0990   -2.4770 O   0  0  0  0  0  0  0  0  0  0  0  0
   -5.0090   -4.0700   -3.3020 O   0  0  0  0  0  0  0  0  0  0  0  0
   -3.3750   -0.1610   -2.0410 C   0  0  0  0  0  0  0  0  0  0  0  0
   -3.9900    0.3240   -3.0130 O   0  0  0  0  0  0  0  0  0  0  0  0
   -5.0380    4.2880    2.2360 O   0  0  0  0  0  0  0  0  0  0  0  0
   -6.3450    4.6910    2.1400 C   0  0  0  0  0  0  0  0  0  0  0  0
   -7.0510    4.3480    1.1760 O   0  0  0  0  0  0  0  0  0  0  0  0
   -6.9100    5.5080    3.1400 O   0  0  0  0  0  0  0  0  0  0  0  0
  1  2  1  0
  2  3  1  0
  3  4  2  3
  4  5  1  0
  4 40  1  0
  5  6  2  3
  6  7  1  0
  6 33  1  0
  7  8  2  0
  8  9  1  0
  8 38  1  0
  9 10  1  0
 10 11  1  6
 10 34  1  0
 11 12  1  0
 12 13  1  0
 13 14  1  0
 14 15  1  0
 15 16  2  0
 15 17  1  0
 18 17  1  1
 18 19  1  0
 18 23  1  0
 19 20  1  0
 20 21  1  1
 20 32  1  0
 21 22  1  0
 22 23  1  0
 23 24  1  6
 24 25  1  0
 24 30  1  0
 25 26  1  0
 26 27  1  0
 27 28  1  0
 27 30  1  0
 28 29  2  0
 30 31  2  0
 32 33  1  0
 34 35  1  0
 34 38  1  0
 35 36  1  0
 36 37  1  0
 38 39  2  0
 40 41  1  0
 41 42  2  0
 41 43  1  0
M  END
