
     RDKit          3D

 43 47  0  0  0  0  0  0  0  0999 V2000
   -7.1010   -0.2050    2.1020 O   0  0  0  0  0  0  0  0  0  0  0  0
   -6.5700   -1.2900    2.1540 C   0  0  0  0  0  0  0  0  0  0  0  0
   -5.4390   -1.7420    1.3240 C   0  0  0  0  0  0  0  0  0  0  0  0
   -5.1420   -0.6330    0.2680 C   0  0  1  0  0  0  0  0  0  0  0  0
   -4.0500   -1.0030   -0.5170 O   0  0  0  0  0  0  0  0  0  0  0  0
   -2.7680   -0.6140   -0.6240 C   0  0  0  0  0  0  0  0  0  0  0  0
   -1.7240   -1.4660   -0.2530 C   0  0  0  0  0  0  0  0  0  0  0  0
   -0.4070   -1.1050   -0.3450 C   0  0  0  0  0  0  0  0  0  0  0  0
   -0.0460    0.1390   -0.8190 C   0  0  0  0  0  0  0  0  0  0  0  0
    1.2760    0.5780   -0.8210 N   0  0  0  0  0  0  0  0  0  0  0  0
    2.0710    0.3460    0.4430 C   0  0  0  0  0  0  0  0  0  0  0  0
    1.5020   -0.2010    1.3090 O   0  0  0  0  0  0  0  0  0  0  0  0
    3.3700    0.8900    0.2340 N   0  0  0  0  0  0  0  0  0  0  0  0
    3.8900    0.7640    1.8840 C   0  0  0  0  0  0  0  0  0  0  0  0
    3.1170    0.3060    2.6060 O   0  0  0  0  0  0  0  0  0  0  0  0
    5.2060    1.2730    2.0640 C   0  0  0  0  0  0  0  0  0  0  0  0
    5.4890    2.4470    2.8030 C   0  0  0  0  0  0  0  0  0  0  0  0
    6.7870    2.6590    2.7280 N   0  0  0  0  0  0  0  0  0  0  0  0
    7.3300    1.6980    1.9900 N   0  0  0  0  0  0  0  0  0  0  0  0
    8.5150    1.2890    1.5170 C   0  0  0  0  0  0  0  0  0  0  0  0
    8.2410    0.1220    0.7830 C   0  0  0  0  0  0  0  0  0  0  0  0
    9.3000   -0.6350    0.0970 C   0  0  2  0  0  0  0  0  0  0  0  0
    9.0220   -0.7470   -1.4050 C   0  0  0  0  0  0  0  0  0  0  0  0
    9.7660   -1.8860   -1.7330 O   0  0  0  0  0  0  0  0  0  0  0  0
   10.0680   -2.5240   -0.5270 C   0  0  0  0  0  0  0  0  0  0  0  0
    9.2000   -1.9950    0.4290 O   0  0  0  0  0  0  0  0  0  0  0  0
    6.9620   -0.1200    0.8350 O   0  0  0  0  0  0  0  0  0  0  0  0
    6.4020    0.8350    1.5680 C   0  0  0  0  0  0  0  0  0  0  0  0
   -1.0700    0.9780   -1.1880 C   0  0  0  0  0  0  0  0  0  0  0  0
   -2.3940    0.6250   -1.0970 C   0  0  0  0  0  0  0  0  0  0  0  0
   -3.3590    1.6900   -1.4920 C   0  0  0  0  0  0  0  0  0  0  0  0
   -3.4820    1.9510   -2.8020 O   0  0  0  0  0  0  0  0  0  0  0  0
   -4.1450    1.1010   -3.6230 C   0  0  0  0  0  0  0  0  0  0  0  0
   -5.6430    1.0280   -3.4510 C   0  0  0  0  0  0  0  0  0  0  0  0
   -6.0890    1.8860   -2.4540 O   0  0  0  0  0  0  0  0  0  0  0  0
   -7.0380    1.5420   -1.4810 C   0  0  0  0  0  0  0  0  0  0  0  0
   -7.7410    2.4890   -1.0440 O   0  0  0  0  0  0  0  0  0  0  0  0
   -7.2250    0.2510   -1.0020 N   0  0  0  0  0  0  0  0  0  0  0  0
   -6.3160   -0.7370   -0.6520 C   0  0  0  0  0  0  0  0  0  0  0  0
   -6.4590   -1.9020   -1.1550 O   0  0  0  0  0  0  0  0  0  0  0  0
   -7.0600   -2.2760    3.1120 N   0  0  0  0  0  0  0  0  0  0  0  0
   -8.0810   -2.0000    3.9350 O   0  0  0  0  0  0  0  0  0  0  0  0
   -8.3650   -0.7100    3.9190 O   0  0  0  0  0  0  0  0  0  0  0  0
  1  2  2  0
  2  3  1  0
  2 41  1  0
  4  3  1  1
  4  5  1  0
  4 39  1  0
  5  6  1  0
  6  7  2  0
  6 30  1  0
  7  8  1  0
  8  9  2  0
  9 10  1  0
  9 29  1  0
 10 11  1  0
 11 12  2  0
 11 13  1  0
 13 14  1  0
 14 15  2  0
 14 16  1  0
 16 17  1  0
 16 28  2  0
 17 18  2  0
 18 19  1  0
 19 20  1  0
 19 28  1  0
 20 21  2  0
 22 21  1  1
 21 27  1  0
 22 23  1  0
 22 26  1  0
 23 24  1  0
 24 25  1  0
 25 26  1  0
 27 28  1  0
 29 30  2  0
 30 31  1  0
 31 32  1  0
 32 33  1  0
 33 34  1  0
 34 35  1  0
 35 36  1  0
 36 37  2  0
 36 38  1  0
 38 39  1  0
 39 40  2  0
 41 42  1  0
 42 43  1  0
M  END
