
     RDKit          3D

 43 46  0  0  0  0  0  0  0  0999 V2000
  -10.0000   -0.5860   -1.8140 C   0  0  0  0  0  0  0  0  0  0  0  0
   -9.8400    0.8620   -1.3690 C   0  0  0  0  0  0  0  0  0  0  0  0
   -9.4880    0.8570   -0.0160 O   0  0  0  0  0  0  0  0  0  0  0  0
   -8.3060    0.2100    0.3920 C   0  0  0  0  0  0  0  0  0  0  0  0
   -7.5660   -0.3630   -0.4640 O   0  0  0  0  0  0  0  0  0  0  0  0
   -7.9080    0.1700    1.7050 O   0  0  0  0  0  0  0  0  0  0  0  0
   -6.7160   -0.4850    2.0970 C   0  0  0  0  0  0  0  0  0  0  0  0
   -5.5870    0.1840    1.3830 C   0  0  0  0  0  0  0  0  0  0  0  0
   -5.6360    1.1690    0.5600 O   0  0  0  0  0  0  0  0  0  0  0  0
   -4.4020    1.4830    0.1290 C   0  0  0  0  0  0  0  0  0  0  0  0
   -4.1750    2.4210   -0.6960 N   0  0  0  0  0  0  0  0  0  0  0  0
   -3.4970    0.6710    0.6930 N   0  0  0  0  0  0  0  0  0  0  0  0
   -2.1400    0.5680    0.5940 C   0  0  0  0  0  0  0  0  0  0  0  0
   -1.3760    1.3960   -0.0220 C   0  0  0  0  0  0  0  0  0  0  0  0
   -1.5520    2.6000   -0.7790 C   0  0  0  0  0  0  0  0  0  0  0  0
   -1.5690    2.7230   -2.1790 C   0  0  0  0  0  0  0  0  0  0  0  0
   -1.7460    4.0050   -2.4610 N   0  0  0  0  0  0  0  0  0  0  0  0
   -1.8410    4.6920   -1.3260 C   0  0  0  0  0  0  0  0  0  0  0  0
   -1.7240    3.8490   -0.3440 O   0  0  0  0  0  0  0  0  0  0  0  0
   -1.5200   -0.4560    1.3480 C   0  0  0  0  0  0  0  0  0  0  0  0
   -0.3260   -0.9280    1.1790 C   0  0  0  0  0  0  0  0  0  0  0  0
    0.7470   -0.6980    0.2810 C   0  0  0  0  0  0  0  0  0  0  0  0
    1.9470   -1.3220    0.3930 C   0  0  0  0  0  0  0  0  0  0  0  0
    3.0540   -1.1340   -0.4700 N   0  0  0  0  0  0  0  0  0  0  0  0
    4.0460   -1.8660   -0.1040 C   0  0  0  0  0  0  0  0  0  0  0  0
    5.3240   -1.9330   -0.7410 N   0  0  0  0  0  0  0  0  0  0  0  0
    5.8690   -0.7870   -1.4140 C   0  0  2  0  0  0  0  0  0  0  0  0
    7.2070   -1.0270   -2.0200 C   0  0  0  0  0  0  0  0  0  0  0  0
    8.2110   -1.4040   -1.1800 O   0  0  0  0  0  0  0  0  0  0  0  0
    8.5500   -0.5440   -0.1760 C   0  0  0  0  0  0  0  0  0  0  0  0
    9.7000   -1.2020    0.6020 C   0  0  0  0  0  0  0  0  0  0  0  0
   10.1020   -0.3700    1.6540 O   0  0  0  0  0  0  0  0  0  0  0  0
   11.0740   -0.9660    2.2830 O   0  0  0  0  0  0  0  0  0  0  0  0
    5.7590    0.4650   -0.6360 C   0  0  0  0  0  0  0  0  0  0  0  0
    5.2180    0.5440    0.5010 O   0  0  0  0  0  0  0  0  0  0  0  0
    6.2750    1.6400   -1.1670 O   0  0  0  0  0  0  0  0  0  0  0  0
    3.6960   -2.5980    1.0190 O   0  0  0  0  0  0  0  0  0  0  0  0
    2.3640   -2.2850    1.3750 C   0  0  0  0  0  0  0  0  0  0  0  0
    1.7820   -2.8020    2.3580 O   0  0  0  0  0  0  0  0  0  0  0  0
   -2.3510   -1.2760    2.1590 C   0  0  0  0  0  0  0  0  0  0  0  0
   -1.9330   -2.2110    2.8890 N   0  0  0  0  0  0  0  0  0  0  0  0
   -3.6530   -1.0480    2.1540 O   0  0  0  0  0  0  0  0  0  0  0  0
   -4.2360   -0.1390    1.4730 C   0  0  0  0  0  0  0  0  0  0  0  0
  1  2  1  0
  2  3  1  0
  3  4  1  0
  4  5  2  0
  4  6  1  0
  6  7  1  0
  7  8  1  0
  8  9  1  0
  8 43  2  0
  9 10  1  0
 10 11  2  0
 10 12  1  0
 12 13  1  0
 12 43  1  0
 13 14  2  3
 13 20  1  0
 14 15  1  0
 15 16  2  0
 15 19  1  0
 16 17  1  0
 17 18  2  0
 18 19  1  0
 20 21  2  3
 20 40  1  0
 21 22  1  0
 22 23  2  3
 23 24  1  0
 23 38  1  0
 24 25  2  0
 25 26  1  0
 25 37  1  0
 26 27  1  0
 27 28  1  1
 27 34  1  0
 28 29  1  0
 29 30  1  0
 30 31  1  0
 31 32  1  0
 32 33  1  0
 34 35  2  0
 34 36  1  0
 37 38  1  0
 38 39  2  0
 40 41  2  0
 40 42  1  0
 42 43  1  0
M  END
