
     RDKit          3D

 43 46  0  0  0  0  0  0  0  0999 V2000
    0.4200   -6.2050   -0.8650 C   0  0  0  0  0  0  0  0  0  0  0  0
   -0.1070   -4.8220   -0.6910 C   0  0  0  0  0  0  0  0  0  0  0  0
    0.7920   -3.9630   -0.0160 O   0  0  0  0  0  0  0  0  0  0  0  0
    0.3740   -2.6310    0.1920 C   0  0  0  0  0  0  0  0  0  0  0  0
   -0.7580   -2.3150   -0.2390 O   0  0  0  0  0  0  0  0  0  0  0  0
    1.1070   -1.7040    0.8120 O   0  0  0  0  0  0  0  0  0  0  0  0
    0.9490   -0.4050    1.1110 C   0  0  0  0  0  0  0  0  0  0  0  0
    0.9470    0.6740    0.0990 C   0  0  1  0  0  0  0  0  0  0  0  0
    2.3500    0.8150   -0.4640 C   0  0  0  0  0  0  0  0  0  0  0  0
    2.5090    1.8580   -1.5000 C   0  0  0  0  0  0  0  0  0  0  0  0
    3.7510    2.0180   -1.9590 O   0  0  0  0  0  0  0  0  0  0  0  0
    4.4070    1.1580   -2.6870 C   0  0  0  0  0  0  0  0  0  0  0  0
    4.7090   -0.2370   -2.2730 C   0  0  0  0  0  0  0  0  0  0  0  0
    5.4450   -0.3730   -1.0910 O   0  0  0  0  0  0  0  0  0  0  0  0
    6.7080    0.1790   -1.0010 C   0  0  0  0  0  0  0  0  0  0  0  0
    7.2480    0.8130   -1.9460 O   0  0  0  0  0  0  0  0  0  0  0  0
    7.4660    0.0390    0.2190 N   0  0  0  0  0  0  0  0  0  0  0  0
    8.7750    0.6120    0.3110 C   0  0  0  0  0  0  0  0  0  0  0  0
    9.3710    0.3400    1.6740 C   0  0  0  0  0  0  0  0  0  0  0  0
   10.6310    0.8890    1.7700 O   0  0  0  0  0  0  0  0  0  0  0  0
   -0.1600    0.7910   -0.8570 C   0  0  0  0  0  0  0  0  0  0  0  0
   -1.2720    1.3790   -0.0020 N   0  0  0  0  0  0  0  0  0  0  0  0
   -2.5740    0.8960    0.0030 C   0  0  0  0  0  0  0  0  0  0  0  0
   -2.7670   -0.0340   -0.8910 O   0  0  0  0  0  0  0  0  0  0  0  0
   -3.7060    1.1920    0.7530 N   0  0  0  0  0  0  0  0  0  0  0  0
   -3.6710    2.0350    1.9270 C   0  0  0  0  0  0  0  0  0  0  0  0
   -4.7110    3.1450    1.8800 C   0  0  0  0  0  0  0  0  0  0  0  0
   -5.9650    2.5680    1.5990 O   0  0  0  0  0  0  0  0  0  0  0  0
   -5.9570    1.9320    0.3870 C   0  0  0  0  0  0  0  0  0  0  0  0
   -5.0610    0.7140    0.4270 C   0  0  1  0  0  0  0  0  0  0  0  0
   -5.1350    0.0320   -0.9260 C   0  0  0  0  0  0  0  0  0  0  0  0
   -6.5080    0.0180   -1.3560 O   0  0  0  0  0  0  0  0  0  0  0  0
   -7.6360   -0.5520   -0.8180 C   0  0  0  0  0  0  0  0  0  0  0  0
   -8.8040   -0.9160   -1.4450 C   0  0  0  0  0  0  0  0  0  0  0  0
   -9.5930   -1.4150   -0.5390 O   0  0  0  0  0  0  0  0  0  0  0  0
   -9.0210   -1.4050    0.6420 N   0  0  0  0  0  0  0  0  0  0  0  0
   -7.8090   -0.8800    0.5200 C   0  0  0  0  0  0  0  0  0  0  0  0
   -6.8770   -0.7040    1.6000 N   0  0  0  0  0  0  0  0  0  0  0  0
   -5.5420   -0.2210    1.4460 C   0  0  0  0  0  0  0  0  0  0  0  0
   -4.7200   -0.6840    2.3120 O   0  0  0  0  0  0  0  0  0  0  0  0
   -0.5590    2.4500    0.5950 C   0  0  0  0  0  0  0  0  0  0  0  0
   -1.0220    3.5890    0.8260 O   0  0  0  0  0  0  0  0  0  0  0  0
    0.7600    1.9650    0.8640 N   0  0  0  0  0  0  0  0  0  0  0  0
  1  2  1  0
  2  3  1  0
  3  4  1  0
  4  5  2  0
  4  6  1  0
  6  7  1  0
  8  7  1  1
  8  9  1  0
  8 21  1  0
  8 43  1  0
  9 10  1  0
 10 11  1  0
 11 12  1  0
 12 13  1  0
 13 14  1  0
 14 15  1  0
 15 16  2  0
 15 17  1  0
 17 18  1  0
 18 19  1  0
 19 20  1  0
 21 22  1  0
 22 23  1  0
 22 41  1  0
 23 24  2  0
 23 25  1  0
 25 26  1  0
 25 30  1  0
 26 27  1  0
 27 28  1  0
 28 29  1  0
 30 29  1  6
 30 31  1  0
 30 39  1  0
 31 32  1  0
 32 33  1  0
 33 34  2  0
 33 37  1  0
 34 35  1  0
 35 36  1  0
 36 37  2  0
 37 38  1  0
 38 39  1  0
 39 40  2  0
 41 42  2  0
 41 43  1  0
M  END
