
     RDKit          3D

 43 45  0  0  0  0  0  0  0  0999 V2000
    1.4690    1.1880   -2.3660 C   0  0  0  0  0  0  0  0  0  0  0  0
    0.5470    1.3290   -1.2050 C   0  0  1  0  0  0  0  0  0  0  0  0
    1.1970    2.2360   -0.1170 C   0  0  0  0  0  0  0  0  0  0  0  0
    2.6710    2.2750   -0.3350 C   0  0  0  0  0  0  0  0  0  0  0  0
    3.3720    1.0590    0.1790 N   0  0  0  0  0  0  0  0  0  0  0  0
    4.6040    1.4920    0.7670 C   0  0  0  0  0  0  0  0  0  0  0  0
    5.5870    1.8010   -0.3850 C   0  0  0  0  0  0  0  0  0  0  0  0
    6.7120    2.5980    0.3340 C   0  0  0  0  0  0  0  0  0  0  0  0
    7.2640    1.6460    1.1570 O   0  0  0  0  0  0  0  0  0  0  0  0
    7.2910    2.0390    2.4450 O   0  0  0  0  0  0  0  0  0  0  0  0
    2.9830   -0.2710    0.0610 C   0  0  0  0  0  0  0  0  0  0  0  0
    3.8720   -1.0940    0.4290 O   0  0  0  0  0  0  0  0  0  0  0  0
    1.6750   -0.8360   -0.4080 N   0  0  0  0  0  0  0  0  0  0  0  0
    1.9160   -2.1810   -0.7960 C   0  0  0  0  0  0  0  0  0  0  0  0
    1.4730   -3.2560    0.1640 C   0  0  2  0  0  0  0  0  0  0  0  0
    2.5860   -4.1200    0.4920 N   0  0  0  0  0  0  0  0  0  0  0  0
    2.9930   -5.1800   -0.4020 C   0  0  0  0  0  0  0  0  0  0  0  0
    2.1850   -5.2840   -1.4790 O   0  0  0  0  0  0  0  0  0  0  0  0
    3.9490   -6.0690   -0.3620 O   0  0  0  0  0  0  0  0  0  0  0  0
    0.2640   -4.0200   -0.3360 C   0  0  0  0  0  0  0  0  0  0  0  0
   -1.0630   -3.4260    0.0870 C   0  0  0  0  0  0  0  0  0  0  0  0
   -1.1240   -2.9980    1.5290 C   0  0  0  0  0  0  0  0  0  0  0  0
   -2.4380   -2.8020    1.9540 O   0  0  0  0  0  0  0  0  0  0  0  0
   -3.2820   -2.1410    1.1110 C   0  0  0  0  0  0  0  0  0  0  0  0
   -4.4100   -1.4590    1.8830 C   0  0  0  0  0  0  0  0  0  0  0  0
   -5.5270   -1.2200    1.0040 N   0  0  0  0  0  0  0  0  0  0  0  0
   -6.0750    0.0750    0.6870 C   0  0  0  0  0  0  0  0  0  0  0  0
   -7.3650    0.1890    0.7960 O   0  0  0  0  0  0  0  0  0  0  0  0
   -5.3420    1.2240    0.2630 C   0  0  0  0  0  0  0  0  0  0  0  0
   -4.0170    1.2620    0.4480 O   0  0  0  0  0  0  0  0  0  0  0  0
   -3.6300    2.3660   -0.0140 N   0  0  0  0  0  0  0  0  0  0  0  0
   -4.5880    3.1250   -0.5220 C   0  0  0  0  0  0  0  0  0  0  0  0
   -4.4620    4.2670   -1.0200 O   0  0  0  0  0  0  0  0  0  0  0  0
   -5.7470    2.3730   -0.3500 C   0  0  0  0  0  0  0  0  0  0  0  0
   -7.0030    2.7760   -0.8260 N   0  0  0  0  0  0  0  0  0  0  0  0
   -7.3850    4.1280   -0.9050 C   0  0  0  0  0  0  0  0  0  0  0  0
   -6.7010    5.1160   -0.5600 O   0  0  0  0  0  0  0  0  0  0  0  0
   -2.1870    2.7680    0.0920 C   0  0  0  0  0  0  0  0  0  0  0  0
   -1.4880    2.7870   -1.1780 C   0  0  0  0  0  0  0  0  0  0  0  0
   -1.7190    3.8420   -1.8720 O   0  0  0  0  0  0  0  0  0  0  0  0
   -0.7050    1.7310   -1.5430 O   0  0  0  0  0  0  0  0  0  0  0  0
    0.5350   -0.0130   -0.4750 C   0  0  0  0  0  0  0  0  0  0  0  0
   -0.6310   -0.1720   -0.0550 O   0  0  0  0  0  0  0  0  0  0  0  0
  2  1  1  6
  2  3  1  0
  2 41  1  0
  2 42  1  0
  3  4  1  0
  4  5  1  0
  5  6  1  0
  5 11  1  0
  6  7  1  0
  7  8  1  0
  8  9  1  0
  9 10  1  0
 11 12  2  0
 11 13  1  0
 13 14  1  0
 13 42  1  0
 14 15  1  0
 15 16  1  6
 15 20  1  0
 16 17  1  0
 17 18  2  0
 17 19  1  0
 20 21  1  0
 21 22  1  0
 22 23  1  0
 23 24  1  0
 24 25  1  0
 25 26  1  0
 26 27  1  0
 27 28  2  0
 27 29  1  0
 29 30  1  0
 29 34  2  0
 30 31  1  0
 31 32  1  0
 31 38  1  0
 32 33  2  0
 32 34  1  0
 34 35  1  0
 35 36  1  0
 36 37  2  0
 38 39  1  0
 39 40  2  0
 39 41  1  0
 42 43  2  0
M  END
