
     RDKit          3D

 43 46  0  0  0  0  0  0  0  0999 V2000
    7.3650   -0.5260    2.2410 C   0  0  0  0  0  0  0  0  0  0  0  0
    6.1030   -0.9950    1.8120 O   0  0  0  0  0  0  0  0  0  0  0  0
    5.7550   -0.7220    0.4720 C   0  0  0  0  0  0  0  0  0  0  0  0
    6.6080   -0.0330   -0.3630 C   0  0  0  0  0  0  0  0  0  0  0  0
    6.2870    0.2430   -1.6730 C   0  0  0  0  0  0  0  0  0  0  0  0
    5.0710   -0.1910   -2.1430 C   0  0  0  0  0  0  0  0  0  0  0  0
    4.1740   -0.8890   -1.3420 C   0  0  0  0  0  0  0  0  0  0  0  0
    2.8980   -1.3250   -1.8940 C   0  0  0  0  0  0  0  0  0  0  0  0
    1.7100   -0.4410   -1.6720 C   0  0  2  0  0  0  0  0  0  0  0  0
    2.0180    0.9110   -2.2950 C   0  0  0  0  0  0  0  0  0  0  0  0
    1.3590    1.3240   -3.2720 N   0  0  0  0  0  0  0  0  0  0  0  0
    0.2770    0.7190   -3.9560 C   0  0  0  0  0  0  0  0  0  0  0  0
   -0.9130    0.7070   -3.4930 N   0  0  0  0  0  0  0  0  0  0  0  0
   -1.5950    1.1500   -2.3930 C   0  0  0  0  0  0  0  0  0  0  0  0
   -2.1690    2.3390   -2.4760 O   0  0  0  0  0  0  0  0  0  0  0  0
   -1.8200    0.5910   -1.1590 O   0  0  0  0  0  0  0  0  0  0  0  0
   -2.4170   -0.5550   -0.7130 C   0  0  0  0  0  0  0  0  0  0  0  0
   -3.2920   -0.3530    0.4710 C   0  0  1  0  0  0  0  0  0  0  0  0
   -4.3680    0.4830    0.0310 O   0  0  0  0  0  0  0  0  0  0  0  0
   -5.1050   -0.0040   -1.0050 C   0  0  0  0  0  0  0  0  0  0  0  0
   -6.2530    1.0340   -1.2030 C   0  0  0  0  0  0  0  0  0  0  0  0
   -6.9910    1.1100   -0.0300 O   0  0  0  0  0  0  0  0  0  0  0  0
   -7.9730    1.9500   -0.0960 O   0  0  0  0  0  0  0  0  0  0  0  0
   -7.7390    2.7980   -1.0860 O   0  0  0  0  0  0  0  0  0  0  0  0
   -4.0440   -1.4970    0.8250 O   0  0  0  0  0  0  0  0  0  0  0  0
   -3.4790   -2.6670    1.1860 C   0  0  0  0  0  0  0  0  0  0  0  0
   -2.2370   -2.7530    1.2170 O   0  0  0  0  0  0  0  0  0  0  0  0
   -4.2040   -3.8130    1.5350 O   0  0  0  0  0  0  0  0  0  0  0  0
   -2.7260    0.3570    1.6340 C   0  0  0  0  0  0  0  0  0  0  0  0
   -3.1540    1.6330    1.5460 O   0  0  0  0  0  0  0  0  0  0  0  0
   -1.9350    0.1640    2.7510 N   0  0  0  0  0  0  0  0  0  0  0  0
   -2.6570    0.0760    4.0610 C   0  0  0  0  0  0  0  0  0  0  0  0
   -0.4860    0.0940    2.9050 C   0  0  0  0  0  0  0  0  0  0  0  0
    0.0050   -0.0380    4.0920 O   0  0  0  0  0  0  0  0  0  0  0  0
    0.5340    0.1660    1.8290 C   0  0  0  0  0  0  0  0  0  0  0  0
    0.5960   -0.5030    0.6960 C   0  0  0  0  0  0  0  0  0  0  0  0
    1.4880   -0.0530   -0.3170 N   0  0  0  0  0  0  0  0  0  0  0  0
    2.3640    1.0950   -0.1460 C   0  0  0  0  0  0  0  0  0  0  0  0
    3.0130    1.3110   -1.3040 N   0  0  0  0  0  0  0  0  0  0  0  0
    2.3560    1.8160    1.0680 N   0  0  0  0  0  0  0  0  0  0  0  0
    1.4390    1.3460    2.0430 C   0  0  0  0  0  0  0  0  0  0  0  0
    1.4320    2.0000    3.1460 O   0  0  0  0  0  0  0  0  0  0  0  0
    4.5500   -1.1360   -0.0410 C   0  0  0  0  0  0  0  0  0  0  0  0
  1  2  1  0
  2  3  1  0
  3  4  2  0
  3 43  1  0
  4  5  1  0
  5  6  2  0
  6  7  1  0
  7  8  1  0
  7 43  2  0
  9  8  1  1
  9 10  1  0
  9 37  1  0
 10 11  2  0
 10 39  1  0
 11 12  1  0
 12 13  2  0
 13 14  1  0
 14 15  2  0
 14 16  1  0
 16 17  1  0
 17 18  1  0
 18 19  1  6
 18 25  1  0
 18 29  1  0
 19 20  1  0
 20 21  1  0
 21 22  1  0
 22 23  1  0
 23 24  1  0
 25 26  1  0
 26 27  2  0
 26 28  1  0
 29 30  2  0
 29 31  1  0
 31 32  1  0
 31 33  1  0
 33 34  2  0
 33 35  1  0
 35 36  2  0
 35 41  1  0
 36 37  1  0
 37 38  1  0
 38 39  2  0
 38 40  1  0
 40 41  1  0
 41 42  2  0
M  END
