
     RDKit          3D

 43 45  0  0  0  0  0  0  0  0999 V2000
    7.0160   -1.4200   -2.1320 C   0  0  0  0  0  0  0  0  0  0  0  0
    6.5580   -2.0990   -0.8720 C   0  0  0  0  0  0  0  0  0  0  0  0
    5.1480   -1.9050   -0.6060 N   0  0  0  0  0  0  0  0  0  0  0  0
    4.0980   -2.7870   -1.0780 C   0  0  0  0  0  0  0  0  0  0  0  0
    2.8070   -2.0400   -0.8840 C   0  0  0  0  0  0  0  0  0  0  0  0
    3.0990   -1.0870    0.1690 N   0  0  0  0  0  0  0  0  0  0  0  0
    2.1780   -0.5130    1.0180 O   0  0  0  0  0  0  0  0  0  0  0  0
    0.9270   -0.0370    0.5610 C   0  0  0  0  0  0  0  0  0  0  0  0
    0.7470   -0.1910   -0.6640 O   0  0  0  0  0  0  0  0  0  0  0  0
    0.0140    0.5520    1.4780 N   0  0  0  0  0  0  0  0  0  0  0  0
    0.4520    0.6330    2.8930 C   0  0  0  0  0  0  0  0  0  0  0  0
   -0.5200    0.0370    3.8480 C   0  0  0  0  0  0  0  0  0  0  0  0
   -1.8470    0.5270    3.4710 N   0  0  0  0  0  0  0  0  0  0  0  0
   -2.0360    1.3420    2.3290 C   0  0  0  0  0  0  0  0  0  0  0  0
   -2.8510    2.2970    2.3410 O   0  0  0  0  0  0  0  0  0  0  0  0
   -1.2460    1.0610    1.0790 C   0  0  1  0  0  0  0  0  0  0  0  0
   -1.0820    2.4210    0.3960 C   0  0  0  0  0  0  0  0  0  0  0  0
   -2.0930    3.0130   -0.0300 O   0  0  0  0  0  0  0  0  0  0  0  0
    0.1940    3.0070    0.2450 N   0  0  0  0  0  0  0  0  0  0  0  0
    0.4860    4.2450   -0.3660 C   0  0  0  0  0  0  0  0  0  0  0  0
    1.7820    4.7240   -0.2960 C   0  0  0  0  0  0  0  0  0  0  0  0
    2.1810    5.9130   -0.8600 C   0  0  0  0  0  0  0  0  0  0  0  0
    1.2640    6.6820   -1.5320 C   0  0  0  0  0  0  0  0  0  0  0  0
   -0.0180    6.2370   -1.6180 C   0  0  0  0  0  0  0  0  0  0  0  0
   -0.4080    5.0300   -1.0410 C   0  0  0  0  0  0  0  0  0  0  0  0
   -1.9670    0.2110    0.1060 C   0  0  2  0  0  0  0  0  0  0  0  0
   -3.3080    0.7990   -0.2570 C   0  0  0  0  0  0  0  0  0  0  0  0
   -3.5000    1.1230   -1.4480 O   0  0  0  0  0  0  0  0  0  0  0  0
   -4.3260    0.9980    0.6330 O   0  0  0  0  0  0  0  0  0  0  0  0
   -5.5810    1.5370    0.3470 C   0  0  0  0  0  0  0  0  0  0  0  0
   -2.2140   -1.1760    0.4730 C   0  0  0  0  0  0  0  0  0  0  0  0
   -1.8160   -1.7120    1.5260 O   0  0  0  0  0  0  0  0  0  0  0  0
   -2.9430   -1.9980   -0.3850 O   0  0  0  0  0  0  0  0  0  0  0  0
   -3.2110   -3.3210   -0.0960 C   0  0  0  0  0  0  0  0  0  0  0  0
   -2.7580   -3.7680    1.0000 O   0  0  0  0  0  0  0  0  0  0  0  0
   -3.9750   -4.1750   -0.9960 C   0  0  0  0  0  0  0  0  0  0  0  0
   -4.4050   -3.6890   -2.0700 O   0  0  0  0  0  0  0  0  0  0  0  0
   -4.2540   -5.5340   -0.7110 N   0  0  0  0  0  0  0  0  0  0  0  0
   -5.0190   -6.3040   -1.6530 C   0  0  0  0  0  0  0  0  0  0  0  0
   -5.4270   -5.7530   -2.7180 O   0  0  0  0  0  0  0  0  0  0  0  0
   -5.3180   -7.6350   -1.4200 O   0  0  0  0  0  0  0  0  0  0  0  0
    4.5070   -0.8790    0.1310 C   0  0  0  0  0  0  0  0  0  0  0  0
    5.0810    0.0900    0.6820 O   0  0  0  0  0  0  0  0  0  0  0  0
  1  2  1  0
  2  3  1  0
  3  4  1  0
  3 42  1  0
  4  5  1  0
  5  6  1  0
  6  7  1  0
  6 42  1  0
  7  8  1  0
  8  9  2  0
  8 10  1  0
 10 11  1  0
 10 16  1  0
 11 12  1  0
 12 13  1  0
 13 14  1  0
 14 15  2  0
 14 16  1  0
 16 17  1  6
 16 26  1  0
 17 18  2  0
 17 19  1  0
 19 20  1  0
 20 21  2  0
 20 25  1  0
 21 22  1  0
 22 23  2  0
 23 24  1  0
 24 25  2  0
 26 27  1  1
 26 31  1  0
 27 28  2  0
 27 29  1  0
 29 30  1  0
 31 32  2  0
 31 33  1  0
 33 34  1  0
 34 35  2  0
 34 36  1  0
 36 37  2  0
 36 38  1  0
 38 39  1  0
 39 40  2  0
 39 41  1  0
 42 43  2  0
M  END
