
     RDKit          3D

 43 45  0  0  0  0  0  0  0  0999 V2000
    4.7780    1.6860   -0.5230 C   0  0  0  0  0  0  0  0  0  0  0  0
    4.2650    0.2570   -0.2870 C   0  0  2  0  0  0  0  0  0  0  0  0
    4.4020   -0.5640   -1.5500 C   0  0  0  0  0  0  0  0  0  0  0  0
    2.9390    0.3840    0.1340 O   0  0  0  0  0  0  0  0  0  0  0  0
    1.9300    0.9670   -0.5930 C   0  0  0  0  0  0  0  0  0  0  0  0
    2.2960    1.4130   -1.7400 O   0  0  0  0  0  0  0  0  0  0  0  0
    0.5250    1.1240   -0.1960 C   0  0  2  0  0  0  0  0  0  0  0  0
    0.4120    1.8430    1.0920 C   0  0  0  0  0  0  0  0  0  0  0  0
    0.4850    1.0290    2.3280 C   0  0  0  0  0  0  0  0  0  0  0  0
    0.6540   -0.4000    2.1250 N   0  0  0  0  0  0  0  0  0  0  0  0
    0.4570   -1.0620    0.8550 C   0  0  0  0  0  0  0  0  0  0  0  0
   -0.1680   -0.2380   -0.2070 C   0  0  2  0  0  0  0  0  0  0  0  0
    0.2370   -0.8450   -1.5360 C   0  0  0  0  0  0  0  0  0  0  0  0
    0.7880   -1.9510   -1.5360 O   0  0  0  0  0  0  0  0  0  0  0  0
   -0.0030   -0.1760   -2.7440 N   0  0  0  0  0  0  0  0  0  0  0  0
    0.3510   -0.6880   -4.0420 C   0  0  0  0  0  0  0  0  0  0  0  0
   -0.3040   -1.9920   -4.3760 C   0  0  0  0  0  0  0  0  0  0  0  0
   -1.6960   -1.9070   -4.3750 O   0  0  0  0  0  0  0  0  0  0  0  0
   -1.6090   -0.1200   -0.1940 C   0  0  0  0  0  0  0  0  0  0  0  0
   -2.1320    0.9400   -1.0820 N   0  0  0  0  0  0  0  0  0  0  0  0
   -3.0870    1.7110   -0.7000 C   0  0  0  0  0  0  0  0  0  0  0  0
   -3.5950    1.5070    0.5840 O   0  0  0  0  0  0  0  0  0  0  0  0
   -3.6900    2.7810   -1.5030 C   0  0  0  0  0  0  0  0  0  0  0  0
   -3.5660    4.0540   -0.8580 N   0  0  0  0  0  0  0  0  0  0  0  0
   -2.3400    4.6850   -0.5740 C   0  0  0  0  0  0  0  0  0  0  0  0
   -1.2650    4.1360   -0.9000 O   0  0  0  0  0  0  0  0  0  0  0  0
   -2.2480    5.9180    0.0640 O   0  0  0  0  0  0  0  0  0  0  0  0
   -2.4530   -0.7630    0.4040 N   0  0  0  0  0  0  0  0  0  0  0  0
   -2.6810   -1.8030    1.2860 C   0  0  0  0  0  0  0  0  0  0  0  0
   -3.5640   -2.8290    0.9210 C   0  0  0  0  0  0  0  0  0  0  0  0
   -3.8540   -3.8960    1.7370 C   0  0  0  0  0  0  0  0  0  0  0  0
   -3.2210   -3.9110    2.9600 C   0  0  0  0  0  0  0  0  0  0  0  0
   -2.3540   -2.9020    3.3170 C   0  0  0  0  0  0  0  0  0  0  0  0
   -2.1200   -1.9090    2.4910 N   0  0  0  0  0  0  0  0  0  0  0  0
   -1.6730   -2.9810    4.6420 C   0  0  0  0  0  0  0  0  0  0  0  0
   -2.3420   -3.5650    5.5220 O   0  0  0  0  0  0  0  0  0  0  0  0
   -0.4360   -2.4270    4.7440 O   0  0  0  0  0  0  0  0  0  0  0  0
    0.4940   -2.3120    3.7280 O   0  0  0  0  0  0  0  0  0  0  0  0
    1.0530   -1.1260    3.2910 C   0  0  0  0  0  0  0  0  0  0  0  0
    2.0310   -0.5370    3.9220 O   0  0  0  0  0  0  0  0  0  0  0  0
    5.0800   -0.2890    0.8170 C   0  0  0  0  0  0  0  0  0  0  0  0
    6.3140   -0.5050    0.7150 O   0  0  0  0  0  0  0  0  0  0  0  0
    4.4620   -0.5770    2.0190 O   0  0  0  0  0  0  0  0  0  0  0  0
  2  1  1  6
  2  3  1  0
  2  4  1  0
  2 41  1  0
  4  5  1  0
  5  6  2  0
  7  5  1  1
  7  8  1  0
  7 12  1  0
  8  9  1  0
  9 10  1  0
 10 11  1  0
 10 39  1  0
 11 12  1  0
 12 13  1  6
 12 19  1  0
 13 14  2  0
 13 15  1  0
 15 16  1  0
 16 17  1  0
 17 18  1  0
 19 20  1  0
 19 28  2  0
 20 21  2  3
 21 22  1  0
 21 23  1  0
 23 24  1  0
 24 25  1  0
 25 26  2  0
 25 27  1  0
 28 29  1  0
 29 30  2  0
 29 34  1  0
 30 31  1  0
 31 32  2  0
 32 33  1  0
 33 34  2  0
 33 35  1  0
 35 36  2  0
 35 37  1  0
 37 38  1  0
 38 39  1  0
 39 40  2  0
 41 42  2  0
 41 43  1  0
M  END
