
     RDKit          3D

 31 34  0  0  0  0  0  0  0  0999 V2000
   -5.7740   -1.0400   -2.8910 C   0  0  0  0  0  0  0  0  0  0  0  0
   -5.3620    0.3950   -2.7100 C   0  0  0  0  0  0  0  0  0  0  0  0
   -5.3670    0.7780   -1.2760 C   0  0  0  0  0  0  0  0  0  0  0  0
   -6.5110    1.2890   -0.7080 C   0  0  0  0  0  0  0  0  0  0  0  0
   -6.5600    1.6600    0.6130 C   0  0  0  0  0  0  0  0  0  0  0  0
   -5.4240    1.5120    1.3800 C   0  0  0  0  0  0  0  0  0  0  0  0
   -5.4630    1.8880    2.7280 O   0  0  0  0  0  0  0  0  0  0  0  0
   -6.6540    2.4010    3.2500 C   0  0  0  0  0  0  0  0  0  0  0  0
   -4.2210    0.9960    0.8590 C   0  0  0  0  0  0  0  0  0  0  0  0
   -3.1690    0.8480    1.7570 N   0  0  0  0  0  0  0  0  0  0  0  0
   -1.7870    0.6740    1.5380 C   0  0  0  0  0  0  0  0  0  0  0  0
   -1.1060    0.9880    0.3910 C   0  0  0  0  0  0  0  0  0  0  0  0
    0.2830    0.8490    0.2540 C   0  0  0  0  0  0  0  0  0  0  0  0
    1.0440    0.3790    1.2910 C   0  0  0  0  0  0  0  0  0  0  0  0
    2.4860    0.1810    1.2170 C   0  0  0  0  0  0  0  0  0  0  0  0
    3.1400   -0.4670    0.2980 C   0  0  0  0  0  0  0  0  0  0  0  0
    2.7020   -1.1680   -0.8820 C   0  0  0  0  0  0  0  0  0  0  0  0
    1.5210   -1.3060   -1.2670 O   0  0  0  0  0  0  0  0  0  0  0  0
    3.8780   -1.6830   -1.5330 N   0  0  0  0  0  0  0  0  0  0  0  0
    5.0230   -1.3230   -0.7950 C   0  0  0  0  0  0  0  0  0  0  0  0
    4.6140   -0.5960    0.3040 C   0  0  0  0  0  0  0  0  0  0  0  0
    5.5650   -0.1260    1.1890 C   0  0  0  0  0  0  0  0  0  0  0  0
    6.9040   -0.3750    0.9870 C   0  0  0  0  0  0  0  0  0  0  0  0
    7.2880   -1.1110   -0.1310 C   0  0  0  0  0  0  0  0  0  0  0  0
    8.7310   -1.3550   -0.3100 C   0  0  0  0  0  0  0  0  0  0  0  0
    6.3640   -1.5780   -1.0080 C   0  0  0  0  0  0  0  0  0  0  0  0
    6.8320   -2.3590   -2.1880 C   0  0  0  0  0  0  0  0  0  0  0  0
    0.3650    0.0690    2.4320 N   0  0  0  0  0  0  0  0  0  0  0  0
   -0.9550    0.1990    2.5680 C   0  0  0  0  0  0  0  0  0  0  0  0
   -1.5140   -0.1060    3.6480 O   0  0  0  0  0  0  0  0  0  0  0  0
   -4.2420    0.6460   -0.4570 C   0  0  0  0  0  0  0  0  0  0  0  0
  1  2  1  0
  2  3  1  0
  3  4  2  0
  3 31  1  0
  4  5  1  0
  5  6  2  0
  6  7  1  0
  6  9  1  0
  7  8  1  0
  9 10  1  0
  9 31  2  0
 10 11  1  0
 11 12  2  0
 11 29  1  0
 12 13  1  0
 13 14  2  0
 14 15  1  0
 14 28  1  0
 15 16  2  3
 16 17  1  0
 16 21  1  0
 17 18  2  0
 17 19  1  0
 19 20  1  0
 20 21  2  0
 20 26  1  0
 21 22  1  0
 22 23  2  0
 23 24  1  0
 24 25  1  0
 24 26  2  0
 26 27  1  0
 28 29  1  0
 29 30  2  0
M  END
