
     RDKit          3D

 31 34  0  0  0  0  0  0  0  0999 V2000
   -5.1310   -0.3650   -3.6040 C   0  0  0  0  0  0  0  0  0  0  0  0
   -4.1780    0.6400   -3.0130 C   0  0  0  0  0  0  0  0  0  0  0  0
   -4.2730    0.7350   -1.5810 N   0  0  0  0  0  0  0  0  0  0  0  0
   -5.1250    1.6080   -0.9980 C   0  0  0  0  0  0  0  0  0  0  0  0
   -5.1870    1.6690    0.3810 C   0  0  0  0  0  0  0  0  0  0  0  0
   -4.4160    0.8760    1.2050 C   0  0  0  0  0  0  0  0  0  0  0  0
   -3.5420   -0.0200    0.5780 C   0  0  0  0  0  0  0  0  0  0  0  0
   -2.6810   -0.9050    1.3380 C   0  0  0  0  0  0  0  0  0  0  0  0
   -2.9440   -2.1810    1.7860 C   0  0  0  0  0  0  0  0  0  0  0  0
   -4.2170   -2.9130    1.5600 C   0  0  0  0  0  0  0  0  0  0  0  0
   -1.8700   -2.6590    2.4590 N   0  0  0  0  0  0  0  0  0  0  0  0
   -0.9030   -1.7300    2.4670 C   0  0  0  0  0  0  0  0  0  0  0  0
    0.3660   -1.7080    3.0040 C   0  0  0  0  0  0  0  0  0  0  0  0
    1.1270   -0.5720    2.8320 C   0  0  0  0  0  0  0  0  0  0  0  0
    0.6660    0.5360    2.1460 C   0  0  0  0  0  0  0  0  0  0  0  0
    1.4730    1.6850    1.9880 N   0  0  0  0  0  0  0  0  0  0  0  0
    2.7710    1.7420    2.5220 C   0  0  0  0  0  0  0  0  0  0  0  0
    3.8010    1.4360    1.7630 C   0  0  0  0  0  0  0  0  0  0  0  0
    3.5960    1.0430    0.3880 C   0  0  0  0  0  0  0  0  0  0  0  0
    2.3720    1.0190   -0.0100 O   0  0  0  0  0  0  0  0  0  0  0  0
    4.5910    0.6770   -0.5790 C   0  0  0  0  0  0  0  0  0  0  0  0
    4.3090    0.3020   -1.8870 C   0  0  0  0  0  0  0  0  0  0  0  0
    5.5050    0.0320   -2.4860 C   0  0  0  0  0  0  0  0  0  0  0  0
    5.6840   -0.4100   -3.9010 C   0  0  0  0  0  0  0  0  0  0  0  0
    6.4630    0.2190   -1.6380 O   0  0  0  0  0  0  0  0  0  0  0  0
    5.9520    0.6060   -0.4870 C   0  0  0  0  0  0  0  0  0  0  0  0
    6.8010    0.9010    0.6920 C   0  0  0  0  0  0  0  0  0  0  0  0
   -0.6070    0.4890    1.6180 C   0  0  0  0  0  0  0  0  0  0  0  0
   -1.4020   -0.6240    1.7660 C   0  0  0  0  0  0  0  0  0  0  0  0
   -3.5050   -0.0550   -0.8060 C   0  0  0  0  0  0  0  0  0  0  0  0
   -2.6980   -0.8820   -1.3420 O   0  0  0  0  0  0  0  0  0  0  0  0
  1  2  1  0
  2  3  1  0
  3  4  1  0
  3 30  1  0
  4  5  2  0
  5  6  1  0
  6  7  2  0
  7  8  1  0
  7 30  1  0
  8  9  2  0
  8 29  1  0
  9 10  1  0
  9 11  1  0
 11 12  1  0
 12 13  2  0
 12 29  1  0
 13 14  1  0
 14 15  2  0
 15 16  1  0
 15 28  1  0
 16 17  1  0
 17 18  2  3
 18 19  1  0
 19 20  2  0
 19 21  1  0
 21 22  1  0
 21 26  2  0
 22 23  2  0
 23 24  1  0
 23 25  1  0
 25 26  1  0
 26 27  1  0
 28 29  2  0
 30 31  2  0
M  END
