
     RDKit          3D

 31 34  0  0  0  0  0  0  0  0999 V2000
    9.8650   -0.4070    0.2280 C   0  0  0  0  0  0  0  0  0  0  0  0
    8.5540   -1.0220   -0.1490 C   0  0  0  0  0  0  0  0  0  0  0  0
    8.3900   -2.2400   -0.7730 C   0  0  0  0  0  0  0  0  0  0  0  0
    7.0240   -2.4000   -0.9220 C   0  0  0  0  0  0  0  0  0  0  0  0
    6.4210   -1.2830   -0.3870 C   0  0  0  0  0  0  0  0  0  0  0  0
    4.9560   -1.0520   -0.3430 C   0  0  0  0  0  0  0  0  0  0  0  0
    4.5370    0.0590    0.2020 C   0  0  0  0  0  0  0  0  0  0  0  0
    3.1310    0.4210    0.3150 C   0  0  0  0  0  0  0  0  0  0  0  0
    2.8740    1.5350    0.8700 O   0  0  0  0  0  0  0  0  0  0  0  0
    2.0670   -0.3760   -0.1460 N   0  0  0  0  0  0  0  0  0  0  0  0
    0.6860   -0.1160   -0.0770 C   0  0  0  0  0  0  0  0  0  0  0  0
    0.1270    0.8750    0.6790 C   0  0  0  0  0  0  0  0  0  0  0  0
   -1.2610    1.1110    0.7010 C   0  0  0  0  0  0  0  0  0  0  0  0
   -2.0930    0.3370   -0.0490 C   0  0  0  0  0  0  0  0  0  0  0  0
   -3.5900    0.5900   -0.0870 C   0  0  0  0  0  0  0  0  0  0  0  0
   -4.3070   -0.6590   -0.2160 C   0  0  0  0  0  0  0  0  0  0  0  0
   -3.8570   -1.8550    0.2600 C   0  0  0  0  0  0  0  0  0  0  0  0
   -4.8290   -2.8930   -0.0700 C   0  0  0  0  0  0  0  0  0  0  0  0
   -5.8510   -2.2050   -0.8800 C   0  0  0  0  0  0  0  0  0  0  0  0
   -5.5340   -0.9310   -0.9360 C   0  0  0  0  0  0  0  0  0  0  0  0
   -3.9640    1.7930   -0.3830 C   0  0  0  0  0  0  0  0  0  0  0  0
   -2.9710    2.8630   -0.7300 C   0  0  0  0  0  0  0  0  0  0  0  0
   -3.6390    3.9910   -0.8190 C   0  0  0  0  0  0  0  0  0  0  0  0
   -4.9820    3.7610   -0.5570 N   0  0  0  0  0  0  0  0  0  0  0  0
   -5.2100    2.4780   -0.2880 C   0  0  0  0  0  0  0  0  0  0  0  0
   -6.4950    2.0260    0.1850 C   0  0  0  0  0  0  0  0  0  0  0  0
   -7.5620    3.0500    0.2650 N   0  0  0  0  0  0  0  0  0  0  0  0
   -6.8870    0.9430    0.5550 O   0  0  0  0  0  0  0  0  0  0  0  0
   -1.5580   -0.6600   -0.8130 C   0  0  0  0  0  0  0  0  0  0  0  0
   -0.2020   -0.9020   -0.8440 C   0  0  0  0  0  0  0  0  0  0  0  0
    7.3670   -0.5150    0.0490 O   0  0  0  0  0  0  0  0  0  0  0  0
  1  2  1  0
  2  3  2  0
  2 31  1  0
  3  4  1  0
  4  5  2  0
  5  6  1  0
  5 31  1  0
  6  7  2  3
  7  8  1  0
  8  9  2  0
  8 10  1  0
 10 11  1  0
 11 12  2  0
 11 30  1  0
 12 13  1  0
 13 14  2  0
 14 15  1  0
 14 29  1  0
 15 16  1  0
 15 21  2  3
 16 17  2  0
 16 20  1  0
 17 18  1  0
 18 19  1  0
 19 20  2  0
 21 22  1  0
 21 25  1  0
 22 23  2  0
 23 24  1  0
 24 25  2  0
 25 26  1  0
 26 27  1  0
 26 28  2  0
 29 30  2  0
M  END
