
     RDKit          3D

 31 34  0  0  0  0  0  0  0  0999 V2000
   -4.2460   -1.3910   -3.2380 C   0  0  0  0  0  0  0  0  0  0  0  0
   -3.1310   -0.8100   -2.5930 O   0  0  0  0  0  0  0  0  0  0  0  0
   -3.1020   -0.8140   -1.2070 C   0  0  0  0  0  0  0  0  0  0  0  0
   -4.1170   -1.3620   -0.4560 C   0  0  0  0  0  0  0  0  0  0  0  0
   -4.0810   -1.3630    0.9270 C   0  0  0  0  0  0  0  0  0  0  0  0
   -3.0210   -0.8120    1.6140 C   0  0  0  0  0  0  0  0  0  0  0  0
   -2.9920   -0.8180    3.1070 C   0  0  0  0  0  0  0  0  0  0  0  0
   -1.9990   -0.2600    0.8710 C   0  0  0  0  0  0  0  0  0  0  0  0
   -2.0320   -0.2580   -0.5070 C   0  0  0  0  0  0  0  0  0  0  0  0
   -1.0010    0.3000   -1.2990 N   0  0  0  0  0  0  0  0  0  0  0  0
    0.1410    0.8870   -0.5540 C   0  0  0  0  0  0  0  0  0  0  0  0
   -0.0550    2.0000    0.0340 C   0  0  0  0  0  0  0  0  0  0  0  0
    0.8310    2.8250    0.8020 C   0  0  0  0  0  0  0  0  0  0  0  0
    2.0770    2.5280    0.9360 O   0  0  0  0  0  0  0  0  0  0  0  0
    0.4200    4.0470    1.4870 C   0  0  0  0  0  0  0  0  0  0  0  0
    1.3330    4.7830    2.1940 C   0  0  0  0  0  0  0  0  0  0  0  0
    0.9800    5.9500    2.8600 C   0  0  0  0  0  0  0  0  0  0  0  0
   -0.3100    6.3590    2.7990 N   0  0  0  0  0  0  0  0  0  0  0  0
   -1.2220    5.6570    2.1140 C   0  0  0  0  0  0  0  0  0  0  0  0
   -0.8730    4.4740    1.4370 C   0  0  0  0  0  0  0  0  0  0  0  0
    1.2270   -0.0460   -0.4390 C   0  0  0  0  0  0  0  0  0  0  0  0
    1.6250   -0.7280   -1.6000 C   0  0  0  0  0  0  0  0  0  0  0  0
    2.5690   -1.7200   -1.6080 C   0  0  0  0  0  0  0  0  0  0  0  0
    3.1590   -2.0640   -0.4070 C   0  0  0  0  0  0  0  0  0  0  0  0
    2.8210   -1.4470    0.7620 C   0  0  0  0  0  0  0  0  0  0  0  0
    1.8490   -0.4380    0.7300 C   0  0  0  0  0  0  0  0  0  0  0  0
    1.5340    0.1380    1.9480 O   0  0  0  0  0  0  0  0  0  0  0  0
    4.1780   -3.1530   -0.4860 C   0  0  0  0  0  0  0  0  0  0  0  0
    3.6080   -4.1480   -1.4950 C   0  0  0  0  0  0  0  0  0  0  0  0
    3.7040   -3.5370   -2.7920 N   0  0  0  0  0  0  0  0  0  0  0  0
    2.9040   -2.3600   -2.8890 C   0  0  0  0  0  0  0  0  0  0  0  0
  1  2  1  0
  2  3  1  0
  3  4  2  0
  3  9  1  0
  4  5  1  0
  5  6  2  0
  6  7  1  0
  6  8  1  0
  8  9  2  0
  9 10  1  0
 10 11  1  0
 11 12  2  3
 11 21  1  0
 12 13  1  0
 13 14  2  0
 13 15  1  0
 15 16  2  0
 15 20  1  0
 16 17  1  0
 17 18  2  0
 18 19  1  0
 19 20  2  0
 21 22  2  0
 21 26  1  0
 22 23  1  0
 23 24  2  0
 23 31  1  0
 24 25  1  0
 24 28  1  0
 25 26  2  0
 26 27  1  0
 28 29  1  0
 29 30  1  0
 30 31  1  0
M  END
