
     RDKit          3D

 31 34  0  0  0  0  0  0  0  0999 V2000
   -5.6330    3.5500   -0.2450 C   0  0  0  0  0  0  0  0  0  0  0  0
   -5.8360    2.0910   -0.2850 C   0  0  0  0  0  0  0  0  0  0  0  0
   -7.0520    1.5170   -0.5830 C   0  0  0  0  0  0  0  0  0  0  0  0
   -7.1900    0.1640   -0.6080 C   0  0  0  0  0  0  0  0  0  0  0  0
   -8.5030   -0.4180   -0.9310 C   0  0  0  0  0  0  0  0  0  0  0  0
   -6.1180   -0.6840   -0.3360 C   0  0  0  0  0  0  0  0  0  0  0  0
   -6.3830   -2.1290   -0.3510 C   0  0  0  0  0  0  0  0  0  0  0  0
   -4.8960   -0.1420   -0.0380 C   0  0  0  0  0  0  0  0  0  0  0  0
   -3.6940   -0.9040    0.2120 C   0  0  0  0  0  0  0  0  0  0  0  0
   -3.4500   -2.2240    0.0550 C   0  0  0  0  0  0  0  0  0  0  0  0
   -2.1230   -2.4480    0.4370 C   0  0  0  0  0  0  0  0  0  0  0  0
   -1.6300   -1.2280    0.8100 C   0  0  0  0  0  0  0  0  0  0  0  0
   -0.2860   -0.9330    1.2890 C   0  0  0  0  0  0  0  0  0  0  0  0
    0.5840   -1.8350    1.4050 O   0  0  0  0  0  0  0  0  0  0  0  0
    0.0950    0.3890    1.6440 N   0  0  0  0  0  0  0  0  0  0  0  0
    1.4260    0.6990    2.1220 C   0  0  0  0  0  0  0  0  0  0  0  0
    2.4250    0.3180    1.0470 C   0  0  0  0  0  0  0  0  0  0  0  0
    2.0390   -0.1730   -0.0300 O   0  0  0  0  0  0  0  0  0  0  0  0
    3.7750    0.5450    1.3250 N   0  0  0  0  0  0  0  0  0  0  0  0
    4.8310    0.2500    0.4310 C   0  0  0  0  0  0  0  0  0  0  0  0
    4.7220   -0.1630   -0.8620 C   0  0  0  0  0  0  0  0  0  0  0  0
    5.8510   -0.4360   -1.6510 C   0  0  0  0  0  0  0  0  0  0  0  0
    7.1310   -0.3010   -1.1620 C   0  0  0  0  0  0  0  0  0  0  0  0
    7.2550    0.1140    0.1390 C   0  0  0  0  0  0  0  0  0  0  0  0
    6.1430    0.3800    0.9080 C   0  0  0  0  0  0  0  0  0  0  0  0
    8.7010    0.1830    0.4300 C   0  0  0  0  0  0  0  0  0  0  0  0
    9.2270    0.3450    1.5810 N   0  0  0  0  0  0  0  0  0  0  0  0
    9.4470    0.0350   -0.8290 C   0  0  0  0  0  0  0  0  0  0  0  0
    8.4550   -0.5300   -1.8040 C   0  0  0  0  0  0  0  0  0  0  0  0
   -2.5840   -0.3650    0.6600 O   0  0  0  0  0  0  0  0  0  0  0  0
   -4.7830    1.2710   -0.0190 C   0  0  0  0  0  0  0  0  0  0  0  0
  1  2  1  0
  2  3  2  0
  2 31  1  0
  3  4  1  0
  4  5  1  0
  4  6  2  0
  6  7  1  0
  6  8  1  0
  8  9  1  0
  8 31  2  0
  9 10  2  0
  9 30  1  0
 10 11  1  0
 11 12  2  0
 12 13  1  0
 12 30  1  0
 13 14  2  0
 13 15  1  0
 15 16  1  0
 16 17  1  0
 17 18  2  0
 17 19  1  0
 19 20  1  0
 20 21  2  0
 20 25  1  0
 21 22  1  0
 22 23  2  0
 23 24  1  0
 23 29  1  0
 24 25  2  0
 24 26  1  0
 26 27  2  0
 26 28  1  0
 28 29  1  0
M  END
