
     RDKit          3D

 15 14  0  0  0  0  0  0  0  0999 V2000
   -2.4080    0.1210   -0.4490 C   0  0  0  0  0  0  0  0  0  0  0  0
   -1.3100    0.7150   -1.2980 C   0  0  2  0  0  0  0  0  0  0  0  0
   -0.4350   -0.3490   -1.8650 C   0  0  0  0  0  0  0  0  0  0  0  0
   -0.4750    1.6930   -0.5150 C   0  0  0  0  0  0  0  0  0  0  0  0
    0.1890    1.1150    0.6740 C   0  0  1  0  0  0  0  0  0  0  0  0
    1.0610    0.0870    0.4840 O   0  0  0  0  0  0  0  0  0  0  0  0
    0.7810   -1.0670    1.1770 C   0  0  0  0  0  0  0  0  0  0  0  0
    1.8320   -2.1070    0.8620 C   0  0  0  0  0  0  0  0  0  0  0  0
    1.5840   -3.3030    1.5490 O   0  0  0  0  0  0  0  0  0  0  0  0
    2.4910   -4.1900    1.2730 O   0  0  0  0  0  0  0  0  0  0  0  0
    0.8200    2.2440    1.4590 C   0  0  0  0  0  0  0  0  0  0  0  0
    2.0100    2.0890    1.8140 O   0  0  0  0  0  0  0  0  0  0  0  0
    0.0720    3.3750    1.7450 O   0  0  0  0  0  0  0  0  0  0  0  0
   -2.1620    1.5820   -2.7160 P   0  0  0  0  0  0  0  0  0  0  0  0
   -2.8510    0.7140   -3.7940 O   0  0  0  0  0  0  0  0  0  0  0  0
  2  1  1  1
  2  3  1  0
  2  4  1  0
  2 14  1  0
  5  4  1  6
  5  6  1  0
  5 11  1  0
  6  7  1  0
  7  8  1  0
  8  9  1  0
  9 10  1  0
 11 12  2  0
 11 13  1  0
 14 15  2  0
M  END
