
     RDKit          3D

 16 15  0  0  0  0  0  0  0  0999 V2000
   -1.4310   -2.5090    2.1700 C   0  0  0  0  0  0  0  0  0  0  0  0
   -1.4390   -1.9330    0.7720 C   0  0  0  0  0  0  0  0  0  0  0  0
   -0.5840   -0.8260    0.7170 O   0  0  0  0  0  0  0  0  0  0  0  0
   -0.6330   -0.3360   -0.6010 C   0  0  1  0  0  0  0  0  0  0  0  0
   -0.1750   -1.4010   -1.5670 C   0  0  0  0  0  0  0  0  0  0  0  0
   -1.9150    0.0390   -0.9380 O   0  0  0  0  0  0  0  0  0  0  0  0
   -1.9230    0.5130   -2.2310 C   0  0  0  0  0  0  0  0  0  0  0  0
    0.5400    1.1240   -0.7080 P   0  0  0  0  0  0  0  0  0  0  0  0
    2.1670    0.4680   -0.6050 O   0  0  0  0  0  0  0  0  0  0  0  0
    2.9260    0.7410    0.5220 C   0  0  0  0  0  0  0  0  0  0  0  0
    4.3200    0.1840    0.6200 C   0  0  0  0  0  0  0  0  0  0  0  0
    2.4200    1.4430    1.4180 O   0  0  0  0  0  0  0  0  0  0  0  0
    0.1930    2.1800    0.6530 O   0  0  0  0  0  0  0  0  0  0  0  0
   -0.6490    3.2650    0.4960 C   0  0  0  0  0  0  0  0  0  0  0  0
   -1.1760    3.5090   -0.6230 O   0  0  0  0  0  0  0  0  0  0  0  0
   -0.9520    4.1280    1.5430 O   0  0  0  0  0  0  0  0  0  0  0  0
  1  2  1  0
  2  3  1  0
  3  4  1  0
  4  5  1  6
  4  6  1  0
  4  8  1  0
  6  7  1  0
  8  9  1  0
  8 13  1  0
  9 10  1  0
 10 11  1  0
 10 12  2  0
 13 14  1  0
 14 15  2  0
 14 16  1  0
M  END
