
     RDKit          3D

 16 15  0  0  0  0  0  0  0  0999 V2000
    4.2260    0.4450   -0.4190 C   0  0  0  0  0  0  0  0  0  0  0  0
    3.0390    0.5590   -1.3400 C   0  0  0  0  0  0  0  0  0  0  0  0
    2.2860   -0.6700   -1.1110 O   0  0  0  0  0  0  0  0  0  0  0  0
    1.0160   -0.1170   -0.0860 P   0  0  0  0  0  0  0  0  0  0  0  0
    1.5210   -0.2160    1.5790 O   0  0  0  0  0  0  0  0  0  0  0  0
   -0.6790   -0.5050   -0.3830 C   0  0  2  0  0  0  0  0  0  0  0  0
   -1.4710    0.5290   -0.1390 O   0  0  0  0  0  0  0  0  0  0  0  0
   -2.5520    0.9790   -0.3050 O   0  0  0  0  0  0  0  0  0  0  0  0
   -2.5300    2.3240   -0.7580 C   0  0  0  0  0  0  0  0  0  0  0  0
   -1.9040    3.1480    0.3470 C   0  0  0  0  0  0  0  0  0  0  0  0
   -0.7910    2.7670    0.7340 O   0  0  0  0  0  0  0  0  0  0  0  0
   -1.1500   -1.5990    0.6350 C   0  0  2  0  0  0  0  0  0  0  0  0
   -2.4610   -2.1540    0.2430 C   0  0  0  0  0  0  0  0  0  0  0  0
   -1.0800   -1.0830    1.9020 O   0  0  0  0  0  0  0  0  0  0  0  0
   -0.1500   -2.7490    0.6360 C   0  0  0  0  0  0  0  0  0  0  0  0
    0.9430   -2.6150    0.1250 O   0  0  0  0  0  0  0  0  0  0  0  0
  1  2  1  0
  2  3  1  0
  3  4  1  0
  4  5  1  0
  4  6  1  0
  6  7  1  1
  6 12  1  0
  7  8  1  0
  8  9  1  0
  9 10  1  0
 10 11  2  0
 12 13  1  6
 12 14  1  0
 12 15  1  0
 15 16  2  0
M  END
