
     RDKit          3D

 16 16  0  0  0  0  0  0  0  0999 V2000
    4.1320    0.3580   -0.0040 C   0  0  0  0  0  0  0  0  0  0  0  0
    3.1430   -0.0200    0.8770 O   0  0  0  0  0  0  0  0  0  0  0  0
    2.4890    0.9990    1.3750 O   0  0  0  0  0  0  0  0  0  0  0  0
    1.2130    0.9040    1.1350 O   0  0  0  0  0  0  0  0  0  0  0  0
    0.9810   -0.2800    0.4380 C   0  0  0  0  0  0  0  0  0  0  0  0
   -0.4650   -0.4480    0.1330 C   0  0  0  0  0  0  0  0  0  0  0  0
   -1.3730    0.4430    0.5000 C   0  0  0  0  0  0  0  0  0  0  0  0
   -0.9860    1.5930    1.2010 O   0  0  0  0  0  0  0  0  0  0  0  0
   -0.8500    3.0820    0.2500 P   0  0  0  0  0  0  0  0  0  0  0  0
   -0.4460    4.4240    0.8840 O   0  0  0  0  0  0  0  0  0  0  0  0
   -2.7960    0.3050    0.2150 C   0  0  0  0  0  0  0  0  0  0  0  0
   -3.6510    0.9370    0.9020 O   0  0  0  0  0  0  0  0  0  0  0  0
   -3.1950   -0.5940   -0.8970 C   0  0  0  0  0  0  0  0  0  0  0  0
   -2.3030   -1.7740   -0.8520 C   0  0  0  0  0  0  0  0  0  0  0  0
   -2.7940   -2.8730   -1.0240 O   0  0  0  0  0  0  0  0  0  0  0  0
   -0.8600   -1.6700   -0.6090 C   0  0  0  0  0  0  0  0  0  0  0  0
  1  2  1  0
  2  3  1  0
  3  4  1  0
  4  5  1  0
  5  6  1  0
  6  7  2  0
  6 16  1  0
  7  8  1  0
  7 11  1  0
  8  9  1  0
  9 10  2  0
 11 12  2  0
 11 13  1  0
 13 14  1  0
 14 15  2  0
 14 16  1  0
M  END
