
     RDKit          3D

 16 15  0  0  0  0  0  0  0  0999 V2000
    3.5310    0.3000    0.9310 C   0  0  0  0  0  0  0  0  0  0  0  0
    2.5740   -0.3760   -0.0250 C   0  0  0  0  0  0  0  0  0  0  0  0
    1.2360   -0.1430    0.3270 O   0  0  0  0  0  0  0  0  0  0  0  0
    0.4780   -0.7480   -0.5280 O   0  0  0  0  0  0  0  0  0  0  0  0
   -0.8550   -0.4170   -0.4300 C   0  0  1  0  0  0  0  0  0  0  0  0
   -1.6570   -1.1700   -1.4650 C   0  0  0  0  0  0  0  0  0  0  0  0
   -3.4300   -0.6760   -1.2720 P   0  0  0  0  0  0  0  0  0  0  0  0
   -4.6050   -1.6500   -1.5090 O   0  0  0  0  0  0  0  0  0  0  0  0
   -1.4330   -0.7680    0.9020 C   0  0  0  0  0  0  0  0  0  0  0  0
   -0.6460   -1.4040    1.9930 C   0  0  0  0  0  0  0  0  0  0  0  0
   -2.6070   -0.5290    1.1240 O   0  0  0  0  0  0  0  0  0  0  0  0
   -1.1050    1.0340   -0.6310 C   0  0  0  0  0  0  0  0  0  0  0  0
   -2.2930    1.4350   -0.5600 O   0  0  0  0  0  0  0  0  0  0  0  0
   -0.1180    1.9670   -0.8900 O   0  0  0  0  0  0  0  0  0  0  0  0
   -0.4020    3.3150   -1.0710 C   0  0  0  0  0  0  0  0  0  0  0  0
   -1.5910    3.7180   -1.0000 O   0  0  0  0  0  0  0  0  0  0  0  0
  1  2  1  0
  2  3  1  0
  3  4  1  0
  4  5  1  0
  5  6  1  6
  5  9  1  0
  5 12  1  0
  6  7  1  0
  7  8  2  0
  9 10  1  0
  9 11  2  0
 12 13  2  0
 12 14  1  0
 14 15  1  0
 15 16  2  0
M  END
