
     RDKit          3D

 15 14  0  0  0  0  0  0  0  0999 V2000
    4.3820    0.4960   -0.6940 C   0  0  0  0  0  0  0  0  0  0  0  0
    3.3270   -0.1690    0.1470 C   0  0  0  0  0  0  0  0  0  0  0  0
    2.0700    0.6290    0.1670 C   0  0  0  0  0  0  0  0  0  0  0  0
    1.9580    1.6680   -0.4290 O   0  0  0  0  0  0  0  0  0  0  0  0
    0.6480   -0.0020    1.1380 P   0  0  0  0  0  0  0  0  0  0  0  0
   -0.9190    0.1370    0.1870 C   0  0  1  0  0  0  0  0  0  0  0  0
   -0.6590    0.0640   -1.3050 C   0  0  0  0  0  0  0  0  0  0  0  0
   -1.8980   -0.9750    0.5220 C   0  0  0  0  0  0  0  0  0  0  0  0
   -1.2820   -2.1710    0.2110 O   0  0  0  0  0  0  0  0  0  0  0  0
   -2.0550   -3.2790    0.4650 C   0  0  0  0  0  0  0  0  0  0  0  0
   -1.5570    1.4380    0.5050 C   0  0  0  0  0  0  0  0  0  0  0  0
   -1.0340    2.2480    1.3070 O   0  0  0  0  0  0  0  0  0  0  0  0
   -2.7560    1.7760   -0.0920 O   0  0  0  0  0  0  0  0  0  0  0  0
   -3.3130    2.9580    0.2120 O   0  0  0  0  0  0  0  0  0  0  0  0
   -2.3740    3.8470    0.5410 O   0  0  0  0  0  0  0  0  0  0  0  0
  1  2  1  0
  2  3  1  0
  3  4  2  0
  3  5  1  0
  5  6  1  0
  6  7  1  6
  6  8  1  0
  6 11  1  0
  8  9  1  0
  9 10  1  0
 11 12  2  0
 11 13  1  0
 13 14  1  0
 14 15  1  0
M  END
