
     RDKit          3D

 33 34  0  0  0  0  0  0  0  0999 V2000
    7.0140   -2.4270   -2.6530 C   0  0  0  0  0  0  0  0  0  0  0  0
    6.3810   -1.1550   -2.1400 C   0  0  0  0  0  0  0  0  0  0  0  0
    6.0800   -1.3670   -0.7870 O   0  0  0  0  0  0  0  0  0  0  0  0
    5.3430    0.0910   -0.1660 P   0  0  0  0  0  0  0  0  0  0  0  0
    5.5420    0.1450    1.5510 O   0  0  0  0  0  0  0  0  0  0  0  0
    5.7320   -1.1240    2.0450 C   0  0  0  0  0  0  0  0  0  0  0  0
    3.5650    0.2010   -0.6250 C   0  0  2  0  0  0  0  0  0  0  0  0
    3.3380    1.4620   -1.1840 O   0  0  0  0  0  0  0  0  0  0  0  0
    2.7260    0.0350    0.6380 C   0  0  0  0  0  0  0  0  0  0  0  0
    1.2750    0.1210    0.2640 C   0  0  0  0  0  0  0  0  0  0  0  0
    0.9480    0.3000   -0.9610 O   0  0  0  0  0  0  0  0  0  0  0  0
    0.2340    0.0200    1.1560 O   0  0  0  0  0  0  0  0  0  0  0  0
   -1.0720    0.1090    0.7040 C   0  0  0  0  0  0  0  0  0  0  0  0
   -1.7880   -0.9640    0.2560 C   0  0  0  0  0  0  0  0  0  0  0  0
   -3.0850   -0.8770   -0.1930 C   0  0  0  0  0  0  0  0  0  0  0  0
   -3.8010   -2.0260   -0.6580 N   0  0  0  0  0  0  0  0  0  0  0  0
   -3.3210   -3.3640   -0.5270 C   0  0  1  0  0  0  0  0  0  0  0  0
   -3.3490   -3.7910    0.9280 C   0  0  0  0  0  0  0  0  0  0  0  0
   -4.1500   -4.3390   -1.2970 C   0  0  0  0  0  0  0  0  0  0  0  0
   -5.5390   -4.3100   -0.7880 C   0  0  0  0  0  0  0  0  0  0  0  0
   -6.3820   -3.4560   -1.1120 O   0  0  0  0  0  0  0  0  0  0  0  0
   -5.9940   -5.2890    0.1240 O   0  0  0  0  0  0  0  0  0  0  0  0
   -3.6760    0.3750   -0.1810 C   0  0  0  0  0  0  0  0  0  0  0  0
   -2.9600    1.4910    0.2760 C   0  0  0  0  0  0  0  0  0  0  0  0
   -1.6690    1.3650    0.7140 C   0  0  0  0  0  0  0  0  0  0  0  0
   -0.9520    2.4620    1.2100 N   0  0  0  0  0  0  0  0  0  0  0  0
   -1.3610    3.7990    1.0300 C   0  0  0  0  0  0  0  0  0  0  0  0
   -1.9470    4.3120   -0.1020 C   0  0  0  0  0  0  0  0  0  0  0  0
   -2.3480    5.6370   -0.2280 C   0  0  0  0  0  0  0  0  0  0  0  0
   -2.1550    6.4880    0.8200 C   0  0  0  0  0  0  0  0  0  0  0  0
   -2.5510    7.8160    0.7050 O   0  0  0  0  0  0  0  0  0  0  0  0
   -1.5690    6.0290    1.9850 C   0  0  0  0  0  0  0  0  0  0  0  0
   -1.1930    4.7300    2.0660 C   0  0  0  0  0  0  0  0  0  0  0  0
  1  2  1  0
  2  3  1  0
  3  4  1  0
  4  5  1  0
  4  7  1  0
  5  6  1  0
  7  8  1  1
  7  9  1  0
  9 10  1  0
 10 11  2  0
 10 12  1  0
 12 13  1  0
 13 14  2  0
 13 25  1  0
 14 15  1  0
 15 16  1  0
 15 23  2  0
 16 17  1  0
 17 18  1  1
 17 19  1  0
 19 20  1  0
 20 21  2  0
 20 22  1  0
 23 24  1  0
 24 25  2  0
 25 26  1  0
 26 27  1  0
 27 28  2  0
 27 33  1  0
 28 29  1  0
 29 30  2  0
 30 31  1  0
 30 32  1  0
 32 33  2  0
M  END
