
     RDKit          3D

 33 35  0  0  0  0  0  0  0  0999 V2000
    0.9680    2.1650   -0.3580 O   0  0  0  0  0  0  0  0  0  0  0  0
    1.6130    2.0380    0.7060 C   0  0  0  0  0  0  0  0  0  0  0  0
    1.1760    2.7150    1.8980 N   0  0  0  0  0  0  0  0  0  0  0  0
    0.0160    3.5460    1.9370 C   0  0  0  0  0  0  0  0  0  0  0  0
   -1.3060    2.9320    1.6750 C   0  0  0  0  0  0  0  0  0  0  0  0
   -1.7760    1.9720    2.4820 O   0  0  0  0  0  0  0  0  0  0  0  0
   -1.1710    0.7820    2.6640 C   0  0  1  0  0  0  0  0  0  0  0  0
   -0.9300    0.6500    4.0450 O   0  0  0  0  0  0  0  0  0  0  0  0
   -0.3190   -0.5660    4.3330 C   0  0  0  0  0  0  0  0  0  0  0  0
   -1.2080   -1.7540    4.1820 C   0  0  0  0  0  0  0  0  0  0  0  0
   -1.2720   -2.3120    2.7950 C   0  0  0  0  0  0  0  0  0  0  0  0
   -1.4300   -1.3890    1.7950 O   0  0  0  0  0  0  0  0  0  0  0  0
   -2.1460   -0.3000    2.2120 C   0  0  2  0  0  0  0  0  0  0  0  0
   -3.0060    0.1970    1.0820 C   0  0  0  0  0  0  0  0  0  0  0  0
   -3.9340   -0.9710    0.7180 C   0  0  0  0  0  0  0  0  0  0  0  0
   -4.8250   -0.6540   -0.3440 N   0  0  0  0  0  0  0  0  0  0  0  0
   -4.2740   -0.4460   -1.6660 C   0  0  0  0  0  0  0  0  0  0  0  0
   -3.2370   -1.1560   -2.0420 C   0  0  0  0  0  0  0  0  0  0  0  0
   -2.6350   -0.9810   -3.3830 C   0  0  0  0  0  0  0  0  0  0  0  0
   -3.2830   -0.0210   -4.1420 O   0  0  0  0  0  0  0  0  0  0  0  0
   -4.3670    0.7200   -3.7460 C   0  0  0  0  0  0  0  0  0  0  0  0
   -4.8660    0.5360   -2.5560 C   0  0  0  0  0  0  0  0  0  0  0  0
    2.7550    1.2360    0.7200 O   0  0  0  0  0  0  0  0  0  0  0  0
    3.2080    0.5660   -0.4090 C   0  0  0  0  0  0  0  0  0  0  0  0
    2.7690   -0.7150   -0.7210 C   0  0  0  0  0  0  0  0  0  0  0  0
    3.2550   -1.3090   -1.8420 C   0  0  0  0  0  0  0  0  0  0  0  0
    4.1750   -0.6620   -2.6730 C   0  0  0  0  0  0  0  0  0  0  0  0
    4.6880   -1.3380   -3.8910 C   0  0  0  0  0  0  0  0  0  0  0  0
    6.2270   -2.2960   -3.4230 P   0  0  0  0  0  0  0  0  0  0  0  0
    6.2780   -2.4960   -1.6880 O   0  0  0  0  0  0  0  0  0  0  0  0
    7.6470   -1.4660   -3.9680 O   0  0  0  0  0  0  0  0  0  0  0  0
    4.5990    0.6040   -2.3500 C   0  0  0  0  0  0  0  0  0  0  0  0
    4.1080    1.2060   -1.2160 C   0  0  0  0  0  0  0  0  0  0  0  0
  1  2  2  0
  2  3  1  0
  2 23  1  0
  3  4  1  0
  4  5  1  0
  5  6  1  0
  7  6  1  1
  7  8  1  0
  7 13  1  0
  8  9  1  0
  9 10  1  0
 10 11  1  0
 11 12  1  0
 12 13  1  0
 13 14  1  6
 14 15  1  0
 15 16  1  0
 16 17  1  0
 17 18  2  0
 17 22  1  0
 18 19  1  0
 19 20  1  0
 20 21  1  0
 21 22  2  0
 23 24  1  0
 24 25  2  0
 24 33  1  0
 25 26  1  0
 26 27  2  0
 27 28  1  0
 27 32  1  0
 28 29  1  0
 29 30  1  0
 29 31  1  0
 32 33  2  0
M  END
