
     RDKit          3D

 33 34  0  0  0  0  0  0  0  0999 V2000
   -1.1770   -3.5370   -2.6160 C   0  0  0  0  0  0  0  0  0  0  0  0
   -0.7910   -2.3400   -2.0030 O   0  0  0  0  0  0  0  0  0  0  0  0
   -1.6420   -1.6120   -1.1460 C   0  0  0  0  0  0  0  0  0  0  0  0
   -2.7870   -2.0950   -0.9530 O   0  0  0  0  0  0  0  0  0  0  0  0
   -1.2210   -0.3580   -0.5200 C   0  0  2  0  0  0  0  0  0  0  0  0
   -0.3040   -0.4190    0.6390 C   0  0  0  0  0  0  0  0  0  0  0  0
    1.0170   -1.0670    0.5030 C   0  0  1  0  0  0  0  0  0  0  0  0
    0.9230   -2.4960    0.2030 C   0  0  0  0  0  0  0  0  0  0  0  0
   -0.0410   -3.1470    0.7050 O   0  0  0  0  0  0  0  0  0  0  0  0
    1.8200   -3.1890   -0.5890 O   0  0  0  0  0  0  0  0  0  0  0  0
    1.8790   -0.3560   -0.5110 C   0  0  0  0  0  0  0  0  0  0  0  0
    3.1450   -0.1190   -0.5470 N   0  0  0  0  0  0  0  0  0  0  0  0
    4.1400   -0.4710    0.3920 C   0  0  0  0  0  0  0  0  0  0  0  0
    5.3480    0.0750    0.2280 C   0  0  0  0  0  0  0  0  0  0  0  0
    5.6460    0.9850   -0.8560 C   0  0  0  0  0  0  0  0  0  0  0  0
    6.8380    1.5120   -1.0020 C   0  0  0  0  0  0  0  0  0  0  0  0
    7.1710    2.4360   -2.0860 C   0  0  0  0  0  0  0  0  0  0  0  0
    6.2670    2.7300   -2.9110 O   0  0  0  0  0  0  0  0  0  0  0  0
    4.0270   -1.3550    1.5320 C   0  0  0  0  0  0  0  0  0  0  0  0
    5.0850   -1.6870    2.1260 O   0  0  0  0  0  0  0  0  0  0  0  0
    2.7700   -1.9270    2.0910 C   0  0  0  0  0  0  0  0  0  0  0  0
    1.6860   -0.9190    1.8840 C   0  0  0  0  0  0  0  0  0  0  0  0
   -2.4840    0.1830    0.0880 N   0  0  0  0  0  0  0  0  0  0  0  0
   -3.0510    1.3880   -0.3170 C   0  0  0  0  0  0  0  0  0  0  0  0
   -2.4590    2.0320   -1.2330 O   0  0  0  0  0  0  0  0  0  0  0  0
   -4.2710    1.8780    0.2960 C   0  0  0  0  0  0  0  0  0  0  0  0
   -4.7820    3.1210   -0.0480 C   0  0  0  0  0  0  0  0  0  0  0  0
   -5.9390    3.6350    0.5050 C   0  0  0  0  0  0  0  0  0  0  0  0
   -6.6160    2.8810    1.4380 C   0  0  0  0  0  0  0  0  0  0  0  0
   -8.1440    3.5590    2.1690 P   0  0  0  0  0  0  0  0  0  0  0  0
   -8.6350    4.9980    1.8890 O   0  0  0  0  0  0  0  0  0  0  0  0
   -6.1390    1.6510    1.7990 C   0  0  0  0  0  0  0  0  0  0  0  0
   -4.9620    1.1460    1.2270 C   0  0  0  0  0  0  0  0  0  0  0  0
  1  2  1  0
  2  3  1  0
  3  4  2  0
  3  5  1  0
  5  6  1  1
  5 23  1  0
  7  6  1  1
  7  8  1  0
  7 11  1  0
  7 22  1  0
  8  9  2  0
  8 10  1  0
 11 12  2  0
 12 13  1  0
 13 14  2  3
 13 19  1  0
 14 15  1  0
 15 16  2  3
 16 17  1  0
 17 18  2  0
 19 20  2  0
 19 21  1  0
 21 22  1  0
 23 24  1  0
 24 25  2  0
 24 26  1  0
 26 27  2  0
 26 33  1  0
 27 28  1  0
 28 29  2  0
 29 30  1  0
 29 32  1  0
 30 31  2  0
 32 33  2  0
M  END
