
     RDKit          3D

 33 35  0  0  0  0  0  0  0  0999 V2000
    6.9230    1.0040   -0.2860 C   0  0  0  0  0  0  0  0  0  0  0  0
    6.8050   -0.2140    0.0970 C   0  0  0  0  0  0  0  0  0  0  0  0
    8.0540   -0.8260    0.5150 O   0  0  0  0  0  0  0  0  0  0  0  0
    8.8450    0.0320    1.8370 P   0  0  0  0  0  0  0  0  0  0  0  0
    7.7530    0.0520    3.1790 O   0  0  0  0  0  0  0  0  0  0  0  0
   10.2440   -0.9000    2.3000 O   0  0  0  0  0  0  0  0  0  0  0  0
    5.6790   -1.0530    0.1790 C   0  0  0  0  0  0  0  0  0  0  0  0
    5.9120   -2.3290    0.6430 C   0  0  0  0  0  0  0  0  0  0  0  0
    4.3320   -0.8360   -0.1340 C   0  0  0  0  0  0  0  0  0  0  0  0
    3.4710   -1.8090    0.0450 O   0  0  0  0  0  0  0  0  0  0  0  0
    3.7370    0.2810   -0.6260 N   0  0  0  0  0  0  0  0  0  0  0  0
    2.3150    0.2710   -0.8300 C   0  0  0  0  0  0  0  0  0  0  0  0
    1.9100    1.2230   -1.5740 N   0  0  0  0  0  0  0  0  0  0  0  0
    0.4810    1.0380   -1.6920 C   0  0  0  0  0  0  0  0  0  0  0  0
   -0.6400    1.0380   -2.3200 C   0  0  0  0  0  0  0  0  0  0  0  0
   -0.7340    1.3970   -3.6550 O   0  0  0  0  0  0  0  0  0  0  0  0
   -0.3090    0.4340   -4.6160 C   0  0  0  0  0  0  0  0  0  0  0  0
   -1.7000    0.5950   -1.4250 C   0  0  0  0  0  0  0  0  0  0  0  0
   -1.1640    0.3150   -0.2280 C   0  0  0  0  0  0  0  0  0  0  0  0
   -1.8640   -0.1800    1.0130 C   0  0  1  0  0  0  0  0  0  0  0  0
   -1.9270    1.0150    1.7920 O   0  0  0  0  0  0  0  0  0  0  0  0
   -3.2420   -0.5680    0.7520 C   0  0  0  0  0  0  0  0  0  0  0  0
   -3.6280   -1.3550   -0.3150 C   0  0  0  0  0  0  0  0  0  0  0  0
   -4.9450   -1.6740   -0.5390 C   0  0  0  0  0  0  0  0  0  0  0  0
   -5.9630   -1.2360    0.2770 C   0  0  0  0  0  0  0  0  0  0  0  0
   -7.2630   -1.5780    0.0180 O   0  0  0  0  0  0  0  0  0  0  0  0
   -8.3740   -1.1980    0.7660 C   0  0  0  0  0  0  0  0  0  0  0  0
   -8.5890    0.2810    0.8590 C   0  0  0  0  0  0  0  0  0  0  0  0
   -5.5790   -0.4500    1.3440 C   0  0  0  0  0  0  0  0  0  0  0  0
   -4.2720   -0.1180    1.5880 C   0  0  0  0  0  0  0  0  0  0  0  0
    0.2150    0.6120   -0.2550 C   0  0  2  0  0  0  0  0  0  0  0  0
    0.7010    1.6410    0.7230 C   0  0  0  0  0  0  0  0  0  0  0  0
    1.1710   -0.4570   -0.4430 O   0  0  0  0  0  0  0  0  0  0  0  0
  1  2  2  0
  2  3  1  0
  2  7  1  0
  3  4  1  0
  4  5  1  0
  4  6  1  0
  7  8  2  0
  7  9  1  0
  9 10  2  0
  9 11  1  0
 11 12  1  0
 12 13  2  0
 12 33  1  0
 13 14  1  0
 14 15  2  0
 14 31  1  0
 15 16  1  0
 15 18  1  0
 16 17  1  0
 18 19  2  0
 19 20  1  0
 19 31  1  0
 20 21  1  1
 20 22  1  0
 22 23  2  0
 22 30  1  0
 23 24  1  0
 24 25  2  0
 25 26  1  0
 25 29  1  0
 26 27  1  0
 27 28  1  0
 29 30  2  0
 31 32  1  1
 31 33  1  0
M  END
