
     RDKit          3D

 32 34  0  0  0  0  0  0  0  0999 V2000
   -5.0060   -0.8900   -3.4720 N   0  0  0  0  0  0  0  0  0  0  0  0
   -5.2650   -0.1910   -2.2600 C   0  0  0  0  0  0  0  0  0  0  0  0
   -4.3450   -0.2010   -1.2780 N   0  0  0  0  0  0  0  0  0  0  0  0
   -4.5290    0.3960   -0.1100 C   0  0  0  0  0  0  0  0  0  0  0  0
   -5.6850    1.0670    0.1830 C   0  0  0  0  0  0  0  0  0  0  0  0
   -5.5540    1.5560    1.4270 N   0  0  0  0  0  0  0  0  0  0  0  0
   -4.3760    1.1970    1.8930 C   0  0  0  0  0  0  0  0  0  0  0  0
   -3.7180    0.4860    0.9940 N   0  0  0  0  0  0  0  0  0  0  0  0
   -2.4590   -0.1220    1.1100 C   0  0  2  0  0  0  0  0  0  0  0  0
   -1.5690    0.6880    1.7940 O   0  0  0  0  0  0  0  0  0  0  0  0
   -0.4190    0.0840    1.8710 C   0  0  2  0  0  0  0  0  0  0  0  0
    0.8440    0.9680    1.4490 C   0  0  0  0  0  0  0  0  0  0  0  0
    1.8100    0.4250    2.2980 O   0  0  0  0  0  0  0  0  0  0  0  0
    3.1300   -0.2580    1.6100 P   0  0  2  0  0  0  0  0  0  0  0  0
    2.9110   -1.8460    1.9070 O   0  0  0  0  0  0  0  0  0  0  0  0
    4.5540    0.0560    2.3880 O   0  0  0  0  0  0  0  0  0  0  0  0
    3.2420   -0.2220   -0.0330 O   0  0  0  0  0  0  0  0  0  0  0  0
    4.3980    0.8530   -0.6130 P   0  0  2  0  0  0  0  0  0  0  0  0
    3.8200    2.2430   -0.5690 O   0  0  0  0  0  0  0  0  0  0  0  0
    4.6890    0.4280   -2.2160 O   0  0  0  0  0  0  0  0  0  0  0  0
    5.8980    0.7300    0.2650 N   0  0  0  0  0  0  0  0  0  0  0  0
    7.1090   -0.1060   -0.6850 P   0  0  2  0  0  0  0  0  0  0  0  0
    8.0240    0.8780   -1.3500 O   0  0  0  0  0  0  0  0  0  0  0  0
    6.3000   -1.0190   -1.8670 O   0  0  0  0  0  0  0  0  0  0  0  0
    7.9620   -1.1870    0.2810 O   0  0  0  0  0  0  0  0  0  0  0  0
   -0.3830   -0.9090    0.6360 C   0  0  1  0  0  0  0  0  0  0  0  0
   -0.5840   -2.1700    1.0280 O   0  0  0  0  0  0  0  0  0  0  0  0
   -1.6060   -0.3360   -0.1250 C   0  0  1  0  0  0  0  0  0  0  0  0
   -2.0380   -1.3470   -0.9640 O   0  0  0  0  0  0  0  0  0  0  0  0
   -6.6510    1.0950   -0.8130 C   0  0  0  0  0  0  0  0  0  0  0  0
   -7.7150    1.7030   -0.6000 O   0  0  0  0  0  0  0  0  0  0  0  0
   -6.3920    0.4650   -1.9800 N   0  0  0  0  0  0  0  0  0  0  0  0
  1  2  1  0
  2  3  2  0
  2 32  1  0
  3  4  1  0
  4  5  2  0
  4  8  1  0
  5  6  1  0
  5 30  1  0
  6  7  2  0
  7  8  1  0
  9  8  1  6
  9 10  1  0
  9 28  1  0
 10 11  1  0
 11 12  1  6
 11 26  1  0
 12 13  1  0
 13 14  1  0
 14 15  2  0
 14 16  1  1
 14 17  1  0
 17 18  1  0
 18 19  2  0
 18 20  1  6
 18 21  1  0
 21 22  1  0
 22 23  2  0
 22 24  1  6
 22 25  1  0
 26 27  1  1
 26 28  1  0
 28 29  1  6
 30 31  2  0
 30 32  1  0
M  END
