
     RDKit          3D

 33 35  0  0  0  0  0  0  0  0999 V2000
    6.9640    3.3620   -1.4100 C   0  0  0  0  0  0  0  0  0  0  0  0
    6.8640    2.0560   -0.5510 C   0  0  0  0  0  0  0  0  0  0  0  0
    5.5870    1.8530   -0.1600 O   0  0  0  0  0  0  0  0  0  0  0  0
    5.1560    0.6080    0.8350 P   0  0  0  0  0  0  0  0  0  0  0  0
    6.0160   -0.8360    0.9140 O   0  0  0  0  0  0  0  0  0  0  0  0
    7.3300   -0.8040    0.6150 C   0  0  0  0  0  0  0  0  0  0  0  0
    7.3900   -1.8590   -0.5750 C   0  0  0  0  0  0  0  0  0  0  0  0
    3.3900    0.0370    0.3650 C   0  0  0  0  0  0  0  0  0  0  0  0
    3.1340   -1.2880    0.4600 C   0  0  0  0  0  0  0  0  0  0  0  0
    1.8120   -1.7320    0.3440 C   0  0  0  0  0  0  0  0  0  0  0  0
    0.8140   -0.7950    0.1400 C   0  0  0  0  0  0  0  0  0  0  0  0
   -0.5000   -1.3050    0.2010 N   0  0  0  0  0  0  0  0  0  0  0  0
   -1.5540   -0.4440    0.7480 C   0  0  0  0  0  0  0  0  0  0  0  0
   -1.2800    0.8210    1.1370 C   0  0  0  0  0  0  0  0  0  0  0  0
   -2.3190    1.7620    1.2770 C   0  0  0  0  0  0  0  0  0  0  0  0
   -3.6010    1.3370    0.9910 C   0  0  0  0  0  0  0  0  0  0  0  0
   -4.5940    2.4120    0.5310 C   0  0  0  0  0  0  0  0  0  0  0  0
   -4.3760    3.6630    1.0380 O   0  0  0  0  0  0  0  0  0  0  0  0
   -5.1250    4.6800    0.3840 C   0  0  0  0  0  0  0  0  0  0  0  0
   -5.8740    4.3270   -0.5510 O   0  0  0  0  0  0  0  0  0  0  0  0
   -5.0250    5.9860    0.7830 O   0  0  0  0  0  0  0  0  0  0  0  0
   -3.8570    0.0450    0.6270 C   0  0  0  0  0  0  0  0  0  0  0  0
   -2.8120   -0.9160    0.5010 C   0  0  0  0  0  0  0  0  0  0  0  0
   -3.1760   -2.2770    0.0240 C   0  0  1  0  0  0  0  0  0  0  0  0
   -2.4860   -3.2710    0.7410 O   0  0  0  0  0  0  0  0  0  0  0  0
   -4.3900   -2.4360    0.8510 O   0  0  0  0  0  0  0  0  0  0  0  0
   -5.4920   -2.9110    0.4090 C   0  0  0  0  0  0  0  0  0  0  0  0
   -5.5890   -3.3400   -1.0160 C   0  0  0  0  0  0  0  0  0  0  0  0
   -4.6010   -2.5170   -1.8000 C   0  0  1  0  0  0  0  0  0  0  0  0
   -5.2100   -1.2320   -2.0710 N   0  0  0  0  0  0  0  0  0  0  0  0
   -3.3360   -2.4460   -1.2260 O   0  0  0  0  0  0  0  0  0  0  0  0
    1.1240    0.5350    0.0330 C   0  0  0  0  0  0  0  0  0  0  0  0
    2.4470    0.9630    0.1490 C   0  0  0  0  0  0  0  0  0  0  0  0
  1  2  1  0
  2  3  1  0
  3  4  1  0
  4  5  1  0
  4  8  1  0
  5  6  1  0
  6  7  1  0
  8  9  2  0
  8 33  1  0
  9 10  1  0
 10 11  2  0
 11 12  1  0
 11 32  1  0
 12 13  1  0
 13 14  2  0
 13 23  1  0
 14 15  1  0
 15 16  2  0
 16 17  1  0
 16 22  1  0
 17 18  1  0
 18 19  1  0
 19 20  2  0
 19 21  1  0
 22 23  2  0
 23 24  1  0
 24 25  1  1
 24 26  1  0
 24 31  1  0
 26 27  1  0
 27 28  1  0
 28 29  1  0
 29 30  1  1
 29 31  1  0
 32 33  2  0
M  END
