
     RDKit          3D

 27 29  0  0  0  0  0  0  0  0999 V2000
   -7.4430   -1.4850    0.9590 N   0  0  0  0  0  0  0  0  0  0  0  0
   -6.0550   -1.3510    1.1200 C   0  0  0  0  0  0  0  0  0  0  0  0
   -5.4070   -1.8160    2.2050 N   0  0  0  0  0  0  0  0  0  0  0  0
   -4.0730   -1.6760    2.3390 C   0  0  0  0  0  0  0  0  0  0  0  0
   -3.3210   -1.0580    1.3850 N   0  0  0  0  0  0  0  0  0  0  0  0
   -3.9400   -0.5850    0.2940 C   0  0  0  0  0  0  0  0  0  0  0  0
   -5.3180   -0.7280    0.1530 C   0  0  0  0  0  0  0  0  0  0  0  0
   -5.6080   -0.1620   -1.0160 N   0  0  0  0  0  0  0  0  0  0  0  0
   -4.4830    0.3100   -1.5800 C   0  0  0  0  0  0  0  0  0  0  0  0
   -3.4400    0.0490   -0.7680 N   0  0  0  0  0  0  0  0  0  0  0  0
   -2.0900    0.4160   -1.0620 C   0  0  2  0  0  0  0  0  0  0  0  0
   -1.1410   -0.4010   -0.5010 O   0  0  0  0  0  0  0  0  0  0  0  0
    0.0510    0.2610   -0.8780 C   0  0  2  0  0  0  0  0  0  0  0  0
    1.2060   -0.1940   -0.0160 C   0  0  0  0  0  0  0  0  0  0  0  0
    2.3000    0.5200   -0.4800 O   0  0  0  0  0  0  0  0  0  0  0  0
    3.6970    0.3580    0.1260 P   0  0  0  0  0  0  0  0  0  0  0  0
    3.2300    1.0960    1.5340 O   0  0  0  0  0  0  0  0  0  0  0  0
    4.3840    1.2910   -1.0220 O   0  0  0  0  0  0  0  0  0  0  0  0
    5.0520    0.0340    0.7780 O   0  0  0  0  0  0  0  0  0  0  0  0
    6.2130   -0.8510    0.3280 P   0  0  0  0  0  0  0  0  0  0  0  0
    5.4470   -2.1390    1.0580 O   0  0  0  0  0  0  0  0  0  0  0  0
    7.3290   -0.0480    1.1920 O   0  0  0  0  0  0  0  0  0  0  0  0
    7.2000   -1.8740   -0.2890 O   0  0  0  0  0  0  0  0  0  0  0  0
   -0.2110    1.7380   -0.6380 C   0  0  1  0  0  0  0  0  0  0  0  0
    0.1260    2.4620   -1.7670 O   0  0  0  0  0  0  0  0  0  0  0  0
   -1.7170    1.7710   -0.4770 C   0  0  1  0  0  0  0  0  0  0  0  0
   -2.3060    2.8170   -1.1710 O   0  0  0  0  0  0  0  0  0  0  0  0
  1  2  1  0
  2  3  2  0
  2  7  1  0
  3  4  1  0
  4  5  2  0
  5  6  1  0
  6  7  2  0
  6 10  1  0
  7  8  1  0
  8  9  2  0
  9 10  1  0
 11 10  1  1
 11 12  1  0
 11 26  1  0
 12 13  1  0
 13 14  1  1
 13 24  1  0
 14 15  1  0
 15 16  1  0
 16 17  1  0
 16 18  1  0
 16 19  1  0
 19 20  1  0
 20 21  1  0
 20 22  1  0
 20 23  1  0
 24 25  1  6
 24 26  1  0
 26 27  1  6
M  END
