
     RDKit          3D

 21 22  0  0  0  0  0  0  0  0999 V2000
    0.3870    2.1660    0.9470 O   0  0  0  0  0  0  0  0  0  0  0  0
    0.3830    1.0670    0.3150 C   0  0  0  0  0  0  0  0  0  0  0  0
    1.5430    0.4090   -0.0520 O   0  0  0  0  0  0  0  0  0  0  0  0
    2.7750    0.9770    0.2850 C   0  0  0  0  0  0  0  0  0  0  0  0
    3.9240    0.1140   -0.2000 C   0  0  0  0  0  0  0  0  0  0  0  0
    5.1140    0.7270    0.1630 O   0  0  0  0  0  0  0  0  0  0  0  0
    6.4370   -0.2410   -0.3810 P   0  0  0  0  0  0  0  0  0  0  0  0
    5.9200   -1.8730   -0.7350 O   0  0  0  0  0  0  0  0  0  0  0  0
    7.7730   -0.2220    0.6950 O   0  0  0  0  0  0  0  0  0  0  0  0
   -0.8610    0.4900   -0.0280 N   0  0  0  0  0  0  0  0  0  0  0  0
   -0.9240   -0.7530   -0.7430 C   0  0  0  0  0  0  0  0  0  0  0  0
   -2.1230   -0.7890   -1.6940 C   0  0  0  0  0  0  0  0  0  0  0  0
   -3.3930   -0.4370   -1.0060 C   0  0  1  0  0  0  0  0  0  0  0  0
   -4.2740   -1.4790   -0.9370 O   0  0  0  0  0  0  0  0  0  0  0  0
   -5.4100   -1.2670   -0.3870 O   0  0  0  0  0  0  0  0  0  0  0  0
   -5.5680   -0.0710    0.2260 N   0  0  0  0  0  0  0  0  0  0  0  0
   -4.4640    0.4750    0.9040 C   0  0  0  0  0  0  0  0  0  0  0  0
   -4.5960    1.2700    1.8360 O   0  0  0  0  0  0  0  0  0  0  0  0
   -3.1450    0.0400    0.4360 C   0  0  1  0  0  0  0  0  0  0  0  0
   -2.6860   -1.0370    1.1920 O   0  0  0  0  0  0  0  0  0  0  0  0
   -2.1320    1.1420    0.3350 C   0  0  0  0  0  0  0  0  0  0  0  0
  1  2  2  0
  2  3  1  0
  2 10  1  0
  3  4  1  0
  4  5  1  0
  5  6  1  0
  6  7  1  0
  7  8  1  0
  7  9  1  0
 10 11  1  0
 10 21  1  0
 11 12  1  0
 13 12  1  1
 13 14  1  0
 13 19  1  0
 14 15  1  0
 15 16  1  0
 16 17  1  0
 17 18  2  0
 17 19  1  0
 19 20  1  1
 19 21  1  0
M  END
