
     RDKit          3D

 20 21  0  0  0  0  0  0  0  0999 V2000
   -6.7180   -0.3000   -0.4060 O   0  0  0  0  0  0  0  0  0  0  0  0
   -5.4750   -0.2900   -0.1770 C   0  0  0  0  0  0  0  0  0  0  0  0
   -4.8250   -1.2800    0.6060 N   0  0  0  0  0  0  0  0  0  0  0  0
   -3.4210   -0.9530    0.6590 C   0  0  0  0  0  0  0  0  0  0  0  0
   -3.3950    0.4740    0.2010 C   0  0  1  0  0  0  0  0  0  0  0  0
   -2.1820    0.7860   -0.6130 C   0  0  0  0  0  0  0  0  0  0  0  0
   -2.2810    1.1330   -1.8280 O   0  0  0  0  0  0  0  0  0  0  0  0
   -0.9010    0.7120   -0.0880 O   0  0  0  0  0  0  0  0  0  0  0  0
    0.2060    1.0130   -0.8870 C   0  0  1  0  0  0  0  0  0  0  0  0
    0.9420    2.1430   -0.2310 C   0  0  0  0  0  0  0  0  0  0  0  0
    0.7360    3.3300   -0.4140 O   0  0  0  0  0  0  0  0  0  0  0  0
    1.9400    1.4830    0.6570 C   0  0  0  0  0  0  0  0  0  0  0  0
    2.4020    0.3910   -0.1900 N   0  0  0  0  0  0  0  0  0  0  0  0
    3.7550   -0.0650   -0.2420 C   0  0  0  0  0  0  0  0  0  0  0  0
    4.0250   -1.4030    1.0140 P   0  0  0  0  0  0  0  0  0  0  0  0
    5.7220   -1.4110    1.4040 O   0  0  0  0  0  0  0  0  0  0  0  0
    3.6740   -2.9280    0.2380 O   0  0  0  0  0  0  0  0  0  0  0  0
    1.2420   -0.0510   -0.8840 C   0  0  0  0  0  0  0  0  0  0  0  0
    1.1750   -1.2160   -1.4060 O   0  0  0  0  0  0  0  0  0  0  0  0
   -4.5260    0.6430   -0.6200 O   0  0  0  0  0  0  0  0  0  0  0  0
  1  2  2  0
  2  3  1  0
  2 20  1  0
  3  4  1  0
  4  5  1  0
  5  6  1  6
  5 20  1  0
  6  7  2  0
  6  8  1  0
  9  8  1  1
  9 10  1  0
  9 18  1  0
 10 11  2  0
 10 12  1  0
 12 13  1  0
 13 14  1  0
 13 18  1  0
 14 15  1  0
 15 16  1  0
 15 17  1  0
 18 19  2  0
M  END
