
     RDKit          3D

 20 21  0  0  0  0  0  0  0  0999 V2000
   -2.9250   -3.1720   -1.1270 N   0  0  0  0  0  0  0  0  0  0  0  0
   -2.4900   -1.9880   -0.8800 C   0  0  0  0  0  0  0  0  0  0  0  0
   -1.1270   -1.7100   -1.2020 N   0  0  0  0  0  0  0  0  0  0  0  0
   -0.5010   -0.5850   -1.2030 C   0  0  0  0  0  0  0  0  0  0  0  0
    0.9050   -0.6310   -1.5840 C   0  0  0  0  0  0  0  0  0  0  0  0
    1.5380   -1.7430   -1.9160 C   0  0  0  0  0  0  0  0  0  0  0  0
    2.8410   -1.3790   -2.2100 O   0  0  0  0  0  0  0  0  0  0  0  0
    3.0730   -0.1510   -1.5530 C   0  0  2  0  0  0  0  0  0  0  0  0
    3.3220   -0.4370   -0.1080 C   0  0  0  0  0  0  0  0  0  0  0  0
    3.5640    0.7200    0.6340 O   0  0  0  0  0  0  0  0  0  0  0  0
    3.8480    0.3830    2.2910 P   0  0  0  0  0  0  0  0  0  0  0  0
    5.4150   -0.2870    2.5810 O   0  0  0  0  0  0  0  0  0  0  0  0
    3.6450    1.8470    3.2180 O   0  0  0  0  0  0  0  0  0  0  0  0
    1.7920    0.4510   -1.6610 O   0  0  0  0  0  0  0  0  0  0  0  0
   -1.0670    0.6330   -0.8740 O   0  0  0  0  0  0  0  0  0  0  0  0
   -2.4100    1.0160   -0.6390 C   0  0  0  0  0  0  0  0  0  0  0  0
   -3.1380    0.1000    0.2990 C   0  0  1  0  0  0  0  0  0  0  0  0
   -4.4350    0.7710    0.6960 C   0  0  0  0  0  0  0  0  0  0  0  0
   -4.2420    1.9840    1.3080 O   0  0  0  0  0  0  0  0  0  0  0  0
   -3.4390   -1.1440   -0.3250 O   0  0  0  0  0  0  0  0  0  0  0  0
  1  2  2  0
  2  3  1  0
  2 20  1  0
  3  4  2  0
  4  5  1  0
  4 15  1  0
  5  6  2  0
  5 14  1  0
  6  7  1  0
  7  8  1  0
  8  9  1  1
  8 14  1  0
  9 10  1  0
 10 11  1  0
 11 12  1  0
 11 13  1  0
 15 16  1  0
 16 17  1  0
 17 18  1  6
 17 20  1  0
 18 19  1  0
M  END
