
     RDKit          3D

 20 20  0  0  0  0  0  0  0  0999 V2000
   -1.8530    2.3220   -0.4980 N   0  0  0  0  0  0  0  0  0  0  0  0
   -2.0990    0.9630   -0.8720 C   0  0  2  0  0  0  0  0  0  0  0  0
   -3.4680    0.8010   -1.5350 C   0  0  0  0  0  0  0  0  0  0  0  0
   -4.4830    1.0220   -0.6060 O   0  0  0  0  0  0  0  0  0  0  0  0
   -4.8000   -0.3330    0.3910 P   0  0  0  0  0  0  0  0  0  0  0  0
   -5.0660   -1.7890   -0.4710 O   0  0  0  0  0  0  0  0  0  0  0  0
   -3.7120   -0.4980    1.7050 O   0  0  0  0  0  0  0  0  0  0  0  0
   -2.6520    0.3900    1.5110 C   0  0  0  0  0  0  0  0  0  0  0  0
   -1.9350   -0.0160    0.2680 C   0  0  1  0  0  0  0  0  0  0  0  0
   -2.3530   -1.2580   -0.1820 O   0  0  0  0  0  0  0  0  0  0  0  0
   -0.4610   -0.0820    0.5660 C   0  0  0  0  0  0  0  0  0  0  0  0
    0.1390    0.9360    0.9900 O   0  0  0  0  0  0  0  0  0  0  0  0
    0.2520   -1.2830    0.3720 N   0  0  0  0  0  0  0  0  0  0  0  0
    1.6580   -1.3870    0.6440 C   0  0  0  0  0  0  0  0  0  0  0  0
    2.4840   -0.4410   -0.1850 C   0  0  0  0  0  0  0  0  0  0  0  0
    3.9640   -0.5890    0.1360 C   0  0  0  0  0  0  0  0  0  0  0  0
    4.7120    0.3140   -0.6600 O   0  0  0  0  0  0  0  0  0  0  0  0
    6.0920    0.3840   -0.5640 C   0  0  0  0  0  0  0  0  0  0  0  0
    6.6900   -0.3790    0.2560 O   0  0  0  0  0  0  0  0  0  0  0  0
    6.8710    1.2500   -1.3210 O   0  0  0  0  0  0  0  0  0  0  0  0
  2  1  1  1
  2  3  1  0
  2  9  1  0
  3  4  1  0
  4  5  1  0
  5  6  1  0
  5  7  1  0
  7  8  1  0
  8  9  1  0
  9 10  1  6
  9 11  1  0
 11 12  2  0
 11 13  1  0
 13 14  1  0
 14 15  1  0
 15 16  1  0
 16 17  1  0
 17 18  1  0
 18 19  2  0
 18 20  1  0
M  END
