
     RDKit          3D

 21 22  0  0  0  0  0  0  0  0999 V2000
   -5.8040    2.5370    0.0120 O   0  0  0  0  0  0  0  0  0  0  0  0
   -5.8360    0.9360   -0.6010 P   0  0  0  0  0  0  0  0  0  0  0  0
   -4.1860    0.6490   -1.0520 O   0  0  0  0  0  0  0  0  0  0  0  0
   -3.5730   -0.5310   -0.8790 C   0  0  0  0  0  0  0  0  0  0  0  0
   -2.3830   -0.1530    0.0200 C   0  0  0  0  0  0  0  0  0  0  0  0
   -1.2770   -0.9050    0.2440 N   0  0  0  0  0  0  0  0  0  0  0  0
   -1.0740   -2.2380    0.6680 C   0  0  0  0  0  0  0  0  0  0  0  0
   -2.0580   -3.0300    0.6090 O   0  0  0  0  0  0  0  0  0  0  0  0
    0.1270   -2.7200    1.1380 O   0  0  0  0  0  0  0  0  0  0  0  0
    1.2470   -1.8820    1.2330 C   0  0  0  0  0  0  0  0  0  0  0  0
    2.1350   -2.2250    2.0090 O   0  0  0  0  0  0  0  0  0  0  0  0
    1.2830   -0.6480    0.3920 C   0  0  2  0  0  0  0  0  0  0  0  0
    1.9270   -0.8840   -0.9450 C   0  0  0  0  0  0  0  0  0  0  0  0
    3.0680   -0.0220   -0.9790 O   0  0  0  0  0  0  0  0  0  0  0  0
    2.6730    1.0460   -0.2610 C   0  0  2  0  0  0  0  0  0  0  0  0
    3.5940    2.1380   -0.0190 C   0  0  0  0  0  0  0  0  0  0  0  0
    3.4160    2.9910    0.8620 O   0  0  0  0  0  0  0  0  0  0  0  0
    4.7450    2.2670   -0.8310 O   0  0  0  0  0  0  0  0  0  0  0  0
    2.2130    0.3670    0.9850 N   0  0  0  0  0  0  0  0  0  0  0  0
   -0.0550   -0.0660    0.3630 C   0  0  0  0  0  0  0  0  0  0  0  0
   -0.2290    1.1900    0.4450 O   0  0  0  0  0  0  0  0  0  0  0  0
  1  2  2  0
  2  3  1  0
  3  4  1  0
  4  5  1  0
  5  6  1  0
  6  7  1  0
  6 20  1  0
  7  8  2  0
  7  9  1  0
  9 10  1  0
 10 11  2  0
 10 12  1  0
 12 13  1  6
 12 19  1  0
 12 20  1  0
 13 14  1  0
 14 15  1  0
 15 16  1  1
 15 19  1  0
 16 17  2  0
 16 18  1  0
 20 21  2  0
M  END
