
     RDKit          3D

 20 21  0  0  0  0  0  0  0  0999 V2000
   -3.3150   -0.6750    1.1380 N   0  0  0  0  0  0  0  0  0  0  0  0
   -2.4730   -0.3460   -0.0100 C   0  0  2  0  0  0  0  0  0  0  0  0
   -1.7340    0.8920    0.1790 C   0  0  0  0  0  0  0  0  0  0  0  0
   -0.4750    1.1660    0.1570 C   0  0  0  0  0  0  0  0  0  0  0  0
    0.6290    0.2440   -0.0770 C   0  0  0  0  0  0  0  0  0  0  0  0
    0.4950   -0.9580   -0.2890 O   0  0  0  0  0  0  0  0  0  0  0  0
    1.9930    0.7210   -0.0700 N   0  0  0  0  0  0  0  0  0  0  0  0
    3.1060   -0.1660   -0.2990 C   0  0  0  0  0  0  0  0  0  0  0  0
    4.2700    0.5840   -0.2300 O   0  0  0  0  0  0  0  0  0  0  0  0
    5.6930   -0.3280   -0.4820 P   0  0  0  0  0  0  0  0  0  0  0  0
    5.9180   -0.8370   -2.1040 O   0  0  0  0  0  0  0  0  0  0  0  0
    5.9050   -1.6050    0.6620 O   0  0  0  0  0  0  0  0  0  0  0  0
   -0.2780    2.6540    0.4190 C   0  0  0  0  0  0  0  0  0  0  0  0
   -1.5510    3.1320    0.6150 O   0  0  0  0  0  0  0  0  0  0  0  0
   -2.4920    2.1460    0.4750 C   0  0  0  0  0  0  0  0  0  0  0  0
   -3.7340    2.2960    0.5800 O   0  0  0  0  0  0  0  0  0  0  0  0
   -3.4890   -0.1800   -1.1700 C   0  0  0  0  0  0  0  0  0  0  0  0
   -3.8530   -1.4910   -1.3810 O   0  0  0  0  0  0  0  0  0  0  0  0
   -2.9260   -2.3060   -0.7630 C   0  0  0  0  0  0  0  0  0  0  0  0
   -1.8450   -1.4630   -0.4140 O   0  0  0  0  0  0  0  0  0  0  0  0
  2  1  1  1
  2  3  1  0
  2 17  1  0
  2 20  1  0
  3  4  2  0
  3 15  1  0
  4  5  1  0
  4 13  1  0
  5  6  2  0
  5  7  1  0
  7  8  1  0
  8  9  1  0
  9 10  1  0
 10 11  1  0
 10 12  1  0
 13 14  1  0
 14 15  1  0
 15 16  2  0
 17 18  1  0
 18 19  1  0
 19 20  1  0
M  END
