
     RDKit          3D

 21 21  0  0  0  0  0  0  0  0999 V2000
    0.9160   -0.7580   -0.3480 O   0  0  0  0  0  0  0  0  0  0  0  0
    0.9720    0.4520   -0.2000 C   0  0  0  0  0  0  0  0  0  0  0  0
    2.2030    1.1750   -0.4080 N   0  0  0  0  0  0  0  0  0  0  0  0
    3.3220    0.4060   -0.8610 C   0  0  0  0  0  0  0  0  0  0  0  0
    4.0130   -0.4690    0.1350 C   0  0  0  0  0  0  0  0  0  0  0  0
    4.6070    0.4020    1.1410 O   0  0  0  0  0  0  0  0  0  0  0  0
    6.2770   -0.1170    1.1880 P   0  0  0  0  0  0  0  0  0  0  0  0
    6.8200   -1.1890    2.2780 O   0  0  0  0  0  0  0  0  0  0  0  0
    6.8390   -0.2260   -0.4720 O   0  0  0  0  0  0  0  0  0  0  0  0
   -0.2250    1.1950    0.1660 N   0  0  0  0  0  0  0  0  0  0  0  0
   -1.5000    0.5070    0.1680 C   0  0  2  0  0  0  0  0  0  0  0  0
   -1.4580   -0.9030    0.6340 C   0  0  0  0  0  0  0  0  0  0  0  0
   -2.6560   -1.3790    1.1000 O   0  0  0  0  0  0  0  0  0  0  0  0
   -3.7190   -0.5000    1.1970 C   0  0  0  0  0  0  0  0  0  0  0  0
   -4.3460   -0.1120   -0.1070 C   0  0  1  0  0  0  0  0  0  0  0  0
   -5.1390   -1.1990   -0.5400 O   0  0  0  0  0  0  0  0  0  0  0  0
   -5.2530    0.9310    0.2020 O   0  0  0  0  0  0  0  0  0  0  0  0
   -5.8700    1.3360   -0.8800 O   0  0  0  0  0  0  0  0  0  0  0  0
   -3.4390    0.2970   -1.1770 C   0  0  0  0  0  0  0  0  0  0  0  0
   -4.0480    0.5600   -2.2330 O   0  0  0  0  0  0  0  0  0  0  0  0
   -1.9880    0.4550   -1.2920 C   0  0  0  0  0  0  0  0  0  0  0  0
  1  2  2  0
  2  3  1  0
  2 10  1  0
  3  4  1  0
  4  5  1  0
  5  6  1  0
  6  7  1  0
  7  8  1  0
  7  9  1  0
 11 10  1  6
 11 12  1  0
 11 21  1  0
 12 13  1  0
 13 14  1  0
 14 15  1  0
 15 16  1  6
 15 17  1  0
 15 19  1  0
 17 18  1  0
 19 20  2  0
 19 21  1  0
M  END
