
     RDKit          3D

 20 21  0  0  0  0  0  0  0  0999 V2000
   -2.1880    2.2530   -0.1020 O   0  0  0  0  0  0  0  0  0  0  0  0
   -2.5850    1.1120    0.1710 C   0  0  0  0  0  0  0  0  0  0  0  0
   -3.5180    0.9070    1.2540 N   0  0  0  0  0  0  0  0  0  0  0  0
   -4.2020   -0.3970    1.1930 C   0  0  0  0  0  0  0  0  0  0  0  0
   -4.4610   -0.7990   -0.2290 C   0  0  2  0  0  0  0  0  0  0  0  0
   -5.0450   -2.0790   -0.1800 O   0  0  0  0  0  0  0  0  0  0  0  0
   -3.2540   -0.8950   -1.0900 C   0  0  0  0  0  0  0  0  0  0  0  0
   -2.1630   -0.0350   -0.5500 N   0  0  0  0  0  0  0  0  0  0  0  0
   -0.8640   -0.3590   -0.8470 C   0  0  0  0  0  0  0  0  0  0  0  0
   -0.6990   -1.3170   -1.7010 O   0  0  0  0  0  0  0  0  0  0  0  0
    0.3510    0.2110   -0.3400 C   0  0  0  0  0  0  0  0  0  0  0  0
    0.5470    1.1390    0.5700 C   0  0  0  0  0  0  0  0  0  0  0  0
    1.9400    1.3820    0.7360 O   0  0  0  0  0  0  0  0  0  0  0  0
    2.4690    0.9600   -0.5080 C   0  0  1  0  0  0  0  0  0  0  0  0
    3.9380    0.6330   -0.4300 C   0  0  0  0  0  0  0  0  0  0  0  0
    4.2240   -0.3720    0.4560 O   0  0  0  0  0  0  0  0  0  0  0  0
    5.9040   -0.6950    0.4980 P   0  0  0  0  0  0  0  0  0  0  0  0
    6.3610   -1.8140    1.7110 O   0  0  0  0  0  0  0  0  0  0  0  0
    6.8680    0.7350    0.6020 O   0  0  0  0  0  0  0  0  0  0  0  0
    1.6670   -0.1550   -0.7650 O   0  0  0  0  0  0  0  0  0  0  0  0
  1  2  2  0
  2  3  1  0
  2  8  1  0
  3  4  1  0
  4  5  1  0
  5  6  1  1
  5  7  1  0
  7  8  1  0
  8  9  1  0
  9 10  2  0
  9 11  1  0
 11 12  2  0
 11 20  1  0
 12 13  1  0
 13 14  1  0
 14 15  1  1
 14 20  1  0
 15 16  1  0
 16 17  1  0
 17 18  1  0
 17 19  1  0
M  END
