
     RDKit          3D

 43 47  0  0  0  0  0  0  0  0999 V2000
   -6.8640    2.1240   -1.6730 O   0  0  0  0  0  0  0  0  0  0  0  0
   -6.3470    2.0350   -0.5430 C   0  0  0  0  0  0  0  0  0  0  0  0
   -5.1680    1.1320   -0.3520 C   0  0  0  0  0  0  0  0  0  0  0  0
   -4.9140    0.3990   -1.6130 C   0  0  1  0  0  0  0  0  0  0  0  0
   -3.8570   -0.4530   -1.7030 O   0  0  0  0  0  0  0  0  0  0  0  0
   -2.5690   -0.6220   -1.3810 C   0  0  0  0  0  0  0  0  0  0  0  0
   -1.5170   -0.4020   -2.2790 C   0  0  0  0  0  0  0  0  0  0  0  0
   -0.1870   -0.5720   -1.9830 C   0  0  0  0  0  0  0  0  0  0  0  0
    0.1610   -0.9830   -0.7350 C   0  0  0  0  0  0  0  0  0  0  0  0
    1.5390   -1.1710   -0.4900 N   0  0  0  0  0  0  0  0  0  0  0  0
    2.0560   -0.9030    0.7480 C   0  0  0  0  0  0  0  0  0  0  0  0
    1.2150   -0.4200    1.6310 O   0  0  0  0  0  0  0  0  0  0  0  0
    3.2650   -1.0350    1.2750 N   0  0  0  0  0  0  0  0  0  0  0  0
    4.4520   -1.1270    1.9300 C   0  0  0  0  0  0  0  0  0  0  0  0
    4.2690   -0.7790    3.1640 O   0  0  0  0  0  0  0  0  0  0  0  0
    5.6830   -1.5220    1.4290 C   0  0  0  0  0  0  0  0  0  0  0  0
    6.1350   -2.8550    1.3830 C   0  0  0  0  0  0  0  0  0  0  0  0
    7.2920   -2.8760    0.7620 N   0  0  0  0  0  0  0  0  0  0  0  0
    7.5900   -1.6180    0.4170 N   0  0  0  0  0  0  0  0  0  0  0  0
    8.5540   -0.9290   -0.1950 C   0  0  0  0  0  0  0  0  0  0  0  0
    8.1480    0.4180   -0.1660 C   0  0  0  0  0  0  0  0  0  0  0  0
    8.9470    1.5080   -0.7400 C   0  0  2  0  0  0  0  0  0  0  0  0
    9.7480    2.2480    0.3020 C   0  0  0  0  0  0  0  0  0  0  0  0
   10.0270    3.4340   -0.3300 O   0  0  0  0  0  0  0  0  0  0  0  0
    9.0890    3.6340   -1.3440 C   0  0  0  0  0  0  0  0  0  0  0  0
    8.2340    2.5240   -1.3330 O   0  0  0  0  0  0  0  0  0  0  0  0
    7.0120    0.4440    0.4340 O   0  0  0  0  0  0  0  0  0  0  0  0
    6.6420   -0.7720    0.8040 C   0  0  0  0  0  0  0  0  0  0  0  0
   -0.8350   -1.2120    0.1800 C   0  0  0  0  0  0  0  0  0  0  0  0
   -2.1690   -1.0450   -0.1020 C   0  0  0  0  0  0  0  0  0  0  0  0
   -3.1620   -1.3260    0.9940 C   0  0  0  0  0  0  0  0  0  0  0  0
   -4.2340   -2.0520    0.5500 O   0  0  0  0  0  0  0  0  0  0  0  0
   -5.1610   -2.3370    1.5190 C   0  0  0  0  0  0  0  0  0  0  0  0
   -6.4950   -2.5010    0.8010 C   0  0  0  0  0  0  0  0  0  0  0  0
   -7.2760   -1.3580    0.8610 O   0  0  0  0  0  0  0  0  0  0  0  0
   -7.7980   -0.5800   -0.1130 C   0  0  0  0  0  0  0  0  0  0  0  0
   -8.8270    0.1150    0.2210 O   0  0  0  0  0  0  0  0  0  0  0  0
   -7.3890   -0.4080   -1.4550 N   0  0  0  0  0  0  0  0  0  0  0  0
   -6.1220   -0.4400   -2.0130 C   0  0  0  0  0  0  0  0  0  0  0  0
   -5.8760   -1.2450   -2.9840 O   0  0  0  0  0  0  0  0  0  0  0  0
   -6.9080    2.7970    0.4980 N   0  0  0  0  0  0  0  0  0  0  0  0
   -7.9570    3.6260    0.4010 O   0  0  0  0  0  0  0  0  0  0  0  0
   -7.6480    4.8130    0.8930 O   0  0  0  0  0  0  0  0  0  0  0  0
  1  2  2  0
  2  3  1  0
  2 41  1  0
  4  3  1  1
  4  5  1  0
  4 39  1  0
  5  6  1  0
  6  7  2  0
  6 30  1  0
  7  8  1  0
  8  9  2  0
  9 10  1  0
  9 29  1  0
 10 11  1  0
 11 12  2  0
 11 13  1  0
 13 14  1  0
 14 15  2  0
 14 16  1  0
 16 17  1  0
 16 28  2  0
 17 18  2  0
 18 19  1  0
 19 20  1  0
 19 28  1  0
 20 21  2  0
 22 21  1  1
 21 27  1  0
 22 23  1  0
 22 26  1  0
 23 24  1  0
 24 25  1  0
 25 26  1  0
 27 28  1  0
 29 30  2  0
 30 31  1  0
 31 32  1  0
 32 33  1  0
 33 34  1  0
 34 35  1  0
 35 36  1  0
 36 37  2  0
 36 38  1  0
 38 39  1  0
 39 40  2  0
 41 42  1  0
 42 43  1  0
M  END
