
     RDKit          3D

 43 46  0  0  0  0  0  0  0  0999 V2000
    4.7890    0.6370    3.2160 C   0  0  0  0  0  0  0  0  0  0  0  0
    5.3410    1.4640    2.2070 O   0  0  0  0  0  0  0  0  0  0  0  0
    5.1590    1.2500    0.8670 C   0  0  0  0  0  0  0  0  0  0  0  0
    5.7450    2.1180   -0.0220 C   0  0  0  0  0  0  0  0  0  0  0  0
    5.6080    1.9710   -1.3970 C   0  0  0  0  0  0  0  0  0  0  0  0
    4.8630    0.9230   -1.8670 C   0  0  0  0  0  0  0  0  0  0  0  0
    4.2470    0.0110   -1.0230 C   0  0  0  0  0  0  0  0  0  0  0  0
    3.4620   -1.0960   -1.5690 C   0  0  0  0  0  0  0  0  0  0  0  0
    1.9940   -0.9350   -1.6580 C   0  0  2  0  0  0  0  0  0  0  0  0
    1.6990    0.2850   -2.5480 C   0  0  0  0  0  0  0  0  0  0  0  0
    1.1100    0.2500   -3.6450 N   0  0  0  0  0  0  0  0  0  0  0  0
    0.5290   -0.7240   -4.4530 C   0  0  0  0  0  0  0  0  0  0  0  0
   -0.6820   -1.0280   -4.3950 N   0  0  0  0  0  0  0  0  0  0  0  0
   -1.8870   -0.8170   -3.8180 C   0  0  0  0  0  0  0  0  0  0  0  0
   -2.8040   -0.1640   -4.4970 O   0  0  0  0  0  0  0  0  0  0  0  0
   -2.3830   -1.1670   -2.5890 O   0  0  0  0  0  0  0  0  0  0  0  0
   -1.7630   -1.2040   -1.3480 C   0  0  0  0  0  0  0  0  0  0  0  0
   -2.7380   -1.2470   -0.2240 C   0  0  1  0  0  0  0  0  0  0  0  0
   -3.0070    0.1180    0.0730 O   0  0  0  0  0  0  0  0  0  0  0  0
   -4.0680    0.2760    0.9360 C   0  0  0  0  0  0  0  0  0  0  0  0
   -4.2470    1.7630    1.1800 C   0  0  0  0  0  0  0  0  0  0  0  0
   -3.0980    2.3180    1.7450 O   0  0  0  0  0  0  0  0  0  0  0  0
   -3.3590    3.6090    1.9150 O   0  0  0  0  0  0  0  0  0  0  0  0
   -4.6110    3.9010    1.6210 O   0  0  0  0  0  0  0  0  0  0  0  0
   -3.9920   -1.6550   -0.8080 O   0  0  0  0  0  0  0  0  0  0  0  0
   -4.1960   -2.8110   -1.4990 C   0  0  0  0  0  0  0  0  0  0  0  0
   -3.2870   -3.6230   -1.6940 O   0  0  0  0  0  0  0  0  0  0  0  0
   -5.5020   -3.0300   -1.9800 O   0  0  0  0  0  0  0  0  0  0  0  0
   -2.4740   -2.0580    0.9370 C   0  0  0  0  0  0  0  0  0  0  0  0
   -2.6790   -3.3300    0.7690 O   0  0  0  0  0  0  0  0  0  0  0  0
   -2.0280   -1.7730    2.2640 N   0  0  0  0  0  0  0  0  0  0  0  0
   -2.7900   -2.3790    3.3780 C   0  0  0  0  0  0  0  0  0  0  0  0
   -0.8640   -0.9400    2.5580 C   0  0  0  0  0  0  0  0  0  0  0  0
   -0.8200   -0.5880    3.7690 O   0  0  0  0  0  0  0  0  0  0  0  0
    0.1730   -0.5260    1.5610 C   0  0  0  0  0  0  0  0  0  0  0  0
    0.7300   -1.2390    0.6100 C   0  0  0  0  0  0  0  0  0  0  0  0
    1.4300   -0.5350   -0.4100 N   0  0  0  0  0  0  0  0  0  0  0  0
    1.5880    0.9090   -0.4310 C   0  0  0  0  0  0  0  0  0  0  0  0
    2.2350    1.2320   -1.5600 N   0  0  0  0  0  0  0  0  0  0  0  0
    1.0280    1.6980    0.6070 N   0  0  0  0  0  0  0  0  0  0  0  0
    0.3190    0.9720    1.5990 C   0  0  0  0  0  0  0  0  0  0  0  0
   -0.2000    1.6560    2.5520 O   0  0  0  0  0  0  0  0  0  0  0  0
    4.4220    0.2140    0.3420 C   0  0  0  0  0  0  0  0  0  0  0  0
  1  2  1  0
  2  3  1  0
  3  4  2  0
  3 43  1  0
  4  5  1  0
  5  6  2  0
  6  7  1  0
  7  8  1  0
  7 43  2  0
  9  8  1  1
  9 10  1  0
  9 37  1  0
 10 11  2  0
 10 39  1  0
 11 12  1  0
 12 13  2  0
 13 14  1  0
 14 15  2  0
 14 16  1  0
 16 17  1  0
 17 18  1  0
 18 19  1  1
 18 25  1  0
 18 29  1  0
 19 20  1  0
 20 21  1  0
 21 22  1  0
 22 23  1  0
 23 24  1  0
 25 26  1  0
 26 27  2  0
 26 28  1  0
 29 30  2  0
 29 31  1  0
 31 32  1  0
 31 33  1  0
 33 34  2  0
 33 35  1  0
 35 36  2  0
 35 41  1  0
 36 37  1  0
 37 38  1  0
 38 39  2  0
 38 40  1  0
 40 41  1  0
 41 42  2  0
M  END
