
     RDKit          3D

 43 46  0  0  0  0  0  0  0  0999 V2000
    1.6710    8.2590   -1.2490 C   0  0  0  0  0  0  0  0  0  0  0  0
    1.9950    7.1790   -0.2720 C   0  0  0  0  0  0  0  0  0  0  0  0
    1.2230    5.9940   -0.5240 O   0  0  0  0  0  0  0  0  0  0  0  0
    1.3570    4.8680    0.2520 C   0  0  0  0  0  0  0  0  0  0  0  0
    2.1840    4.8840    1.2110 O   0  0  0  0  0  0  0  0  0  0  0  0
    0.6450    3.6920    0.0660 O   0  0  0  0  0  0  0  0  0  0  0  0
    0.8610    2.5750    0.9330 C   0  0  0  0  0  0  0  0  0  0  0  0
   -0.0080    1.4100    0.5570 C   0  0  1  0  0  0  0  0  0  0  0  0
    0.1880    0.3370    1.6110 C   0  0  0  0  0  0  0  0  0  0  0  0
    1.6420   -0.1040    1.6720 C   0  0  0  0  0  0  0  0  0  0  0  0
    1.9910   -0.6060    0.4250 O   0  0  0  0  0  0  0  0  0  0  0  0
    3.3440   -1.0170    0.4730 C   0  0  0  0  0  0  0  0  0  0  0  0
    3.6770   -1.5560   -0.9050 C   0  0  0  0  0  0  0  0  0  0  0  0
    5.0090   -2.0040   -0.9900 O   0  0  0  0  0  0  0  0  0  0  0  0
    6.0560   -1.1230   -0.7750 C   0  0  0  0  0  0  0  0  0  0  0  0
    5.8890    0.0900   -0.5010 O   0  0  0  0  0  0  0  0  0  0  0  0
    7.4200   -1.5730   -0.8580 N   0  0  0  0  0  0  0  0  0  0  0  0
    8.5210   -0.6640   -0.6360 C   0  0  0  0  0  0  0  0  0  0  0  0
    9.8250   -1.3910   -0.7810 C   0  0  0  0  0  0  0  0  0  0  0  0
    9.8650   -2.4210    0.1650 O   0  0  0  0  0  0  0  0  0  0  0  0
   -1.4820    1.7600    0.5930 C   0  0  0  0  0  0  0  0  0  0  0  0
   -2.0110    0.6220   -0.2320 N   0  0  0  0  0  0  0  0  0  0  0  0
   -3.1100   -0.1750    0.0910 C   0  0  0  0  0  0  0  0  0  0  0  0
   -3.6640    0.2200    1.2110 O   0  0  0  0  0  0  0  0  0  0  0  0
   -3.6690   -1.2730   -0.5690 N   0  0  0  0  0  0  0  0  0  0  0  0
   -3.1470   -1.7010   -1.8360 C   0  0  0  0  0  0  0  0  0  0  0  0
   -3.9310   -2.9430   -2.2890 C   0  0  0  0  0  0  0  0  0  0  0  0
   -3.9870   -3.8900   -1.3120 O   0  0  0  0  0  0  0  0  0  0  0  0
   -4.5250   -3.4790   -0.1380 C   0  0  0  0  0  0  0  0  0  0  0  0
   -4.7670   -1.9930    0.0070 C   0  0  1  0  0  0  0  0  0  0  0  0
   -4.9680   -1.7670    1.5010 C   0  0  0  0  0  0  0  0  0  0  0  0
   -5.7080   -2.8770    2.0580 O   0  0  0  0  0  0  0  0  0  0  0  0
   -7.0220   -3.2550    1.8650 C   0  0  0  0  0  0  0  0  0  0  0  0
   -7.8490   -3.9270    2.7100 C   0  0  0  0  0  0  0  0  0  0  0  0
   -9.0040   -4.0660    2.1070 O   0  0  0  0  0  0  0  0  0  0  0  0
   -8.9720   -3.5210    0.9180 N   0  0  0  0  0  0  0  0  0  0  0  0
   -7.7670   -3.0030    0.7140 C   0  0  0  0  0  0  0  0  0  0  0  0
   -7.2930   -2.3060   -0.4610 N   0  0  0  0  0  0  0  0  0  0  0  0
   -6.0500   -1.6530   -0.6360 C   0  0  0  0  0  0  0  0  0  0  0  0
   -6.1000   -0.6660   -1.4490 O   0  0  0  0  0  0  0  0  0  0  0  0
   -1.0970    0.6610   -1.3180 C   0  0  0  0  0  0  0  0  0  0  0  0
   -1.2840    0.5070   -2.5370 O   0  0  0  0  0  0  0  0  0  0  0  0
    0.2140    0.9350   -0.7650 N   0  0  0  0  0  0  0  0  0  0  0  0
  1  2  1  0
  2  3  1  0
  3  4  1  0
  4  5  2  0
  4  6  1  0
  6  7  1  0
  8  7  1  1
  8  9  1  0
  8 21  1  0
  8 43  1  0
  9 10  1  0
 10 11  1  0
 11 12  1  0
 12 13  1  0
 13 14  1  0
 14 15  1  0
 15 16  2  0
 15 17  1  0
 17 18  1  0
 18 19  1  0
 19 20  1  0
 21 22  1  0
 22 23  1  0
 22 41  1  0
 23 24  2  0
 23 25  1  0
 25 26  1  0
 25 30  1  0
 26 27  1  0
 27 28  1  0
 28 29  1  0
 30 29  1  1
 30 31  1  0
 30 39  1  0
 31 32  1  0
 32 33  1  0
 33 34  2  0
 33 37  1  0
 34 35  1  0
 35 36  1  0
 36 37  2  0
 37 38  1  0
 38 39  1  0
 39 40  2  0
 41 42  2  0
 41 43  1  0
M  END
