
     RDKit          3D

 43 46  0  0  0  0  0  0  0  0999 V2000
   -9.2500    4.3890    0.2860 C   0  0  0  0  0  0  0  0  0  0  0  0
   -8.6770    4.1750   -1.0860 C   0  0  0  0  0  0  0  0  0  0  0  0
   -7.6740    3.2100   -1.1190 O   0  0  0  0  0  0  0  0  0  0  0  0
   -7.8310    1.8890   -0.7140 C   0  0  0  0  0  0  0  0  0  0  0  0
   -8.9270    1.4520   -0.2740 O   0  0  0  0  0  0  0  0  0  0  0  0
   -6.7320    1.0410   -0.8000 O   0  0  0  0  0  0  0  0  0  0  0  0
   -6.8180   -0.3000   -0.3470 C   0  0  0  0  0  0  0  0  0  0  0  0
   -5.5560   -1.0420   -0.5590 C   0  0  0  0  0  0  0  0  0  0  0  0
   -5.3070   -2.0920   -1.2410 O   0  0  0  0  0  0  0  0  0  0  0  0
   -4.0290   -2.4390   -1.1470 C   0  0  0  0  0  0  0  0  0  0  0  0
   -3.4900   -3.4340   -1.7190 N   0  0  0  0  0  0  0  0  0  0  0  0
   -3.4210   -1.5600   -0.3550 N   0  0  0  0  0  0  0  0  0  0  0  0
   -2.1490   -1.3460    0.1150 C   0  0  0  0  0  0  0  0  0  0  0  0
   -1.3330   -2.3660    0.1540 C   0  0  0  0  0  0  0  0  0  0  0  0
   -1.3460   -3.7580   -0.1550 C   0  0  0  0  0  0  0  0  0  0  0  0
   -0.6030   -4.3770   -1.1260 C   0  0  0  0  0  0  0  0  0  0  0  0
   -0.8970   -5.6860   -1.0830 N   0  0  0  0  0  0  0  0  0  0  0  0
   -1.7980   -5.8290   -0.1070 C   0  0  0  0  0  0  0  0  0  0  0  0
   -2.0790   -4.6940    0.4540 O   0  0  0  0  0  0  0  0  0  0  0  0
   -1.7780   -0.2680    0.9250 C   0  0  0  0  0  0  0  0  0  0  0  0
   -0.5600    0.1160    1.0920 C   0  0  0  0  0  0  0  0  0  0  0  0
    0.7880    0.0430    0.8440 C   0  0  0  0  0  0  0  0  0  0  0  0
    1.5930   -0.4890   -0.0470 C   0  0  0  0  0  0  0  0  0  0  0  0
    3.0550   -0.3820    0.0130 N   0  0  0  0  0  0  0  0  0  0  0  0
    3.6010   -0.8030   -1.0440 C   0  0  0  0  0  0  0  0  0  0  0  0
    5.0080   -0.8150   -1.2760 N   0  0  0  0  0  0  0  0  0  0  0  0
    5.9730   -0.2640   -0.3150 C   0  0  2  0  0  0  0  0  0  0  0  0
    7.0400    0.3730   -1.1960 C   0  0  0  0  0  0  0  0  0  0  0  0
    8.0460    0.9860   -0.5020 O   0  0  0  0  0  0  0  0  0  0  0  0
    7.5260    2.0090    0.3050 C   0  0  0  0  0  0  0  0  0  0  0  0
    8.7050    2.6930    0.9910 C   0  0  0  0  0  0  0  0  0  0  0  0
    9.4860    3.2020   -0.0590 O   0  0  0  0  0  0  0  0  0  0  0  0
   10.5640    3.8170    0.4180 O   0  0  0  0  0  0  0  0  0  0  0  0
    6.6630   -1.3610    0.4080 C   0  0  0  0  0  0  0  0  0  0  0  0
    6.3730   -2.5630    0.1510 O   0  0  0  0  0  0  0  0  0  0  0  0
    7.6110   -1.0920    1.3590 O   0  0  0  0  0  0  0  0  0  0  0  0
    2.6430   -1.2510   -1.9580 O   0  0  0  0  0  0  0  0  0  0  0  0
    1.3710   -1.0650   -1.3670 C   0  0  0  0  0  0  0  0  0  0  0  0
    0.2870   -1.3480   -1.9210 O   0  0  0  0  0  0  0  0  0  0  0  0
   -2.8440    0.6080    1.2690 C   0  0  0  0  0  0  0  0  0  0  0  0
   -2.6840    1.6280    1.9990 N   0  0  0  0  0  0  0  0  0  0  0  0
   -4.0640    0.3570    0.8030 O   0  0  0  0  0  0  0  0  0  0  0  0
   -4.3540   -0.6390    0.0440 C   0  0  0  0  0  0  0  0  0  0  0  0
  1  2  1  0
  2  3  1  0
  3  4  1  0
  4  5  2  0
  4  6  1  0
  6  7  1  0
  7  8  1  0
  8  9  1  0
  8 43  2  0
  9 10  1  0
 10 11  2  0
 10 12  1  0
 12 13  1  0
 12 43  1  0
 13 14  2  3
 13 20  1  0
 14 15  1  0
 15 16  2  0
 15 19  1  0
 16 17  1  0
 17 18  2  0
 18 19  1  0
 20 21  2  3
 20 40  1  0
 21 22  1  0
 22 23  2  3
 23 24  1  0
 23 38  1  0
 24 25  2  0
 25 26  1  0
 25 37  1  0
 26 27  1  0
 27 28  1  6
 27 34  1  0
 28 29  1  0
 29 30  1  0
 30 31  1  0
 31 32  1  0
 32 33  1  0
 34 35  2  0
 34 36  1  0
 37 38  1  0
 38 39  2  0
 40 41  2  0
 40 42  1  0
 42 43  1  0
M  END
