
     RDKit          3D

 43 46  0  0  0  0  0  0  0  0999 V2000
   -6.1350   -5.7150    0.4430 C   0  0  0  0  0  0  0  0  0  0  0  0
   -4.8590   -5.1700    0.6950 O   0  0  0  0  0  0  0  0  0  0  0  0
   -4.0030   -4.8680   -0.3150 N   0  0  0  0  0  0  0  0  0  0  0  0
   -3.3470   -3.7970   -0.4510 C   0  0  0  0  0  0  0  0  0  0  0  0
   -3.4470   -2.7320    0.5010 C   0  0  0  0  0  0  0  0  0  0  0  0
   -2.7690   -1.5640    0.4190 C   0  0  0  0  0  0  0  0  0  0  0  0
   -2.9500   -0.5480    1.4450 C   0  0  0  0  0  0  0  0  0  0  0  0
   -2.9630    0.7600    1.2920 C   0  0  0  0  0  0  0  0  0  0  0  0
   -2.8020    1.4180    0.0930 O   0  0  0  0  0  0  0  0  0  0  0  0
   -3.2070    2.7650    0.1600 C   0  0  2  0  0  0  0  0  0  0  0  0
   -2.2370    3.6320   -0.6690 C   0  0  0  0  0  0  0  0  0  0  0  0
   -1.0290    2.8090   -0.9350 C   0  0  0  0  0  0  0  0  0  0  0  0
    0.2890    3.5070   -0.8180 C   0  0  0  0  0  0  0  0  0  0  0  0
    1.1390    3.2100   -1.9530 N   0  0  0  0  0  0  0  0  0  0  0  0
    1.8060    1.9760   -2.1670 C   0  0  0  0  0  0  0  0  0  0  0  0
    2.6500    1.9940   -3.1320 O   0  0  0  0  0  0  0  0  0  0  0  0
    1.5490    0.8970   -1.4040 O   0  0  0  0  0  0  0  0  0  0  0  0
    1.9120    0.5280   -0.1220 C   0  0  1  0  0  0  0  0  0  0  0  0
    0.8420    0.2750    0.7090 O   0  0  0  0  0  0  0  0  0  0  0  0
    0.1670   -0.9070    0.4870 C   0  0  2  0  0  0  0  0  0  0  0  0
    1.0770   -2.1180    0.6000 C   0  0  0  0  0  0  0  0  0  0  0  0
    2.4790   -1.5850    0.9300 C   0  0  0  0  0  0  0  0  0  0  0  0
    2.8310   -0.6790   -0.2450 C   0  0  2  0  0  0  0  0  0  0  0  0
    4.2120   -0.3520   -0.2850 N   0  0  0  0  0  0  0  0  0  0  0  0
    5.1400   -0.7160   -1.3370 C   0  0  0  0  0  0  0  0  0  0  0  0
    6.4800   -0.1580   -0.9680 C   0  0  0  0  0  0  0  0  0  0  0  0
    6.3200    0.3500    0.3990 N   0  0  0  0  0  0  0  0  0  0  0  0
    7.3850    0.7230    1.2420 C   0  0  0  0  0  0  0  0  0  0  0  0
    7.5550    0.1300    2.3640 N   0  0  0  0  0  0  0  0  0  0  0  0
    4.9330    0.3960    0.7120 C   0  0  0  0  0  0  0  0  0  0  0  0
    4.4690    1.0090    1.7130 O   0  0  0  0  0  0  0  0  0  0  0  0
   -0.6540   -0.9290   -0.7790 C   0  0  0  0  0  0  0  0  0  0  0  0
   -1.9430   -1.4250   -0.6530 O   0  0  0  0  0  0  0  0  0  0  0  0
   -3.0700    3.0800    1.5630 N   0  0  0  0  0  0  0  0  0  0  0  0
   -2.8920    4.4080    2.1560 C   0  0  0  0  0  0  0  0  0  0  0  0
   -1.5580    4.7630    2.2790 O   0  0  0  0  0  0  0  0  0  0  0  0
   -1.4990    5.9450    2.8070 O   0  0  0  0  0  0  0  0  0  0  0  0
   -3.1400    1.8630    2.2660 C   0  0  0  0  0  0  0  0  0  0  0  0
   -3.3200    1.6950    3.5000 O   0  0  0  0  0  0  0  0  0  0  0  0
   -2.5110   -3.6470   -1.5470 O   0  0  0  0  0  0  0  0  0  0  0  0
   -2.4130   -4.6800   -2.4660 C   0  0  0  0  0  0  0  0  0  0  0  0
   -3.0800   -5.7350   -2.2970 O   0  0  0  0  0  0  0  0  0  0  0  0
   -1.5730   -4.5650   -3.5920 O   0  0  0  0  0  0  0  0  0  0  0  0
  1  2  1  0
  2  3  1  0
  3  4  2  3
  4  5  1  0
  4 40  1  0
  5  6  2  3
  6  7  1  0
  6 33  1  0
  7  8  2  0
  8  9  1  0
  8 38  1  0
  9 10  1  0
 10 11  1  6
 10 34  1  0
 11 12  1  0
 12 13  1  0
 13 14  1  0
 14 15  1  0
 15 16  2  0
 15 17  1  0
 18 17  1  6
 18 19  1  0
 18 23  1  0
 19 20  1  0
 20 21  1  6
 20 32  1  0
 21 22  1  0
 22 23  1  0
 23 24  1  1
 24 25  1  0
 24 30  1  0
 25 26  1  0
 26 27  1  0
 27 28  1  0
 27 30  1  0
 28 29  2  0
 30 31  2  0
 32 33  1  0
 34 35  1  0
 34 38  1  0
 35 36  1  0
 36 37  1  0
 38 39  2  0
 40 41  1  0
 41 42  2  0
 41 43  1  0
M  END
