
     RDKit          3D

 43 47  0  0  0  0  0  0  0  0999 V2000
    1.3530   -2.9200   -2.2000 O   0  0  0  0  0  0  0  0  0  0  0  0
    1.3090   -2.2740   -1.0600 C   0  0  0  0  0  0  0  0  0  0  0  0
    1.2660   -0.9040   -1.2160 N   0  0  0  0  0  0  0  0  0  0  0  0
    1.6250    0.2440   -0.4840 C   0  0  0  0  0  0  0  0  0  0  0  0
    1.3470    0.4460    0.9220 C   0  0  1  0  0  0  0  0  0  0  0  0
    2.4140   -0.0560    1.8130 C   0  0  0  0  0  0  0  0  0  0  0  0
    3.7410    0.0690    1.4940 O   0  0  0  0  0  0  0  0  0  0  0  0
    4.5930   -0.5130    0.6230 C   0  0  0  0  0  0  0  0  0  0  0  0
    4.1480   -1.4310   -0.1080 O   0  0  0  0  0  0  0  0  0  0  0  0
    6.0300   -0.1310    0.4790 C   0  0  2  0  0  0  0  0  0  0  0  0
    6.2020    1.2830    0.0110 C   0  0  0  0  0  0  0  0  0  0  0  0
    7.1090    1.1880   -1.0420 O   0  0  0  0  0  0  0  0  0  0  0  0
    7.1170   -0.1130   -1.4770 C   0  0  0  0  0  0  0  0  0  0  0  0
    6.6040   -0.9220   -0.4960 O   0  0  0  0  0  0  0  0  0  0  0  0
    1.4720    2.0100    1.1230 C   0  0  0  0  0  0  0  0  0  0  0  0
    0.4040    2.5100    1.8390 O   0  0  0  0  0  0  0  0  0  0  0  0
    0.1770    1.8450    3.0360 C   0  0  0  0  0  0  0  0  0  0  0  0
   -0.1170    0.3540    2.8080 C   0  0  0  0  0  0  0  0  0  0  0  0
   -0.0240    0.2190    1.3560 N   0  0  0  0  0  0  0  0  0  0  0  0
   -1.1930   -0.0470    0.6810 C   0  0  0  0  0  0  0  0  0  0  0  0
   -2.2350   -0.2790    1.4600 O   0  0  0  0  0  0  0  0  0  0  0  0
   -1.7210   -0.1670   -0.6470 C   0  0  2  0  0  0  0  0  0  0  0  0
   -3.0980    0.4510   -0.8300 C   0  0  0  0  0  0  0  0  0  0  0  0
   -4.2070   -0.1300   -0.2270 C   0  0  0  0  0  0  0  0  0  0  0  0
   -5.4800    0.4280   -0.3750 C   0  0  0  0  0  0  0  0  0  0  0  0
   -5.6790    1.5700   -1.1230 C   0  0  0  0  0  0  0  0  0  0  0  0
   -6.9630    2.1170   -1.2620 O   0  0  0  0  0  0  0  0  0  0  0  0
   -7.3490    3.0240   -0.3540 O   0  0  0  0  0  0  0  0  0  0  0  0
   -6.8790    4.2240   -0.6240 O   0  0  0  0  0  0  0  0  0  0  0  0
   -7.8640    5.0800   -0.3850 O   0  0  0  0  0  0  0  0  0  0  0  0
   -4.5800    2.1360   -1.7150 C   0  0  0  0  0  0  0  0  0  0  0  0
   -3.3260    1.5850   -1.5670 C   0  0  0  0  0  0  0  0  0  0  0  0
   -1.8220   -1.4030   -1.3300 N   0  0  0  0  0  0  0  0  0  0  0  0
   -1.8620   -1.5150   -2.7000 C   0  0  0  0  0  0  0  0  0  0  0  0
   -1.9670   -2.7980   -3.0610 C   0  0  0  0  0  0  0  0  0  0  0  0
   -1.9950   -3.5170   -1.9500 N   0  0  0  0  0  0  0  0  0  0  0  0
   -1.9040   -2.6410   -0.8820 C   0  0  0  0  0  0  0  0  0  0  0  0
   -1.9080   -3.1090    0.4670 N   0  0  0  0  0  0  0  0  0  0  0  0
   -0.8760   -3.1190    1.4150 C   0  0  0  0  0  0  0  0  0  0  0  0
   -1.2810   -2.9460    2.6390 O   0  0  0  0  0  0  0  0  0  0  0  0
    0.5540   -3.2950    1.1940 C   0  0  0  0  0  0  0  0  0  0  0  0
    1.1840   -3.6440    2.2810 O   0  0  0  0  0  0  0  0  0  0  0  0
    1.3210   -3.1550    0.0450 N   0  0  0  0  0  0  0  0  0  0  0  0
  1  2  2  0
  2  3  1  0
  2 43  1  0
  3  4  1  0
  4  5  1  0
  5  6  1  1
  5 15  1  0
  5 19  1  0
  6  7  1  0
  7  8  1  0
  8  9  2  0
 10  8  1  6
 10 11  1  0
 10 14  1  0
 11 12  1  0
 12 13  1  0
 13 14  1  0
 15 16  1  0
 16 17  1  0
 17 18  1  0
 18 19  1  0
 19 20  1  0
 20 21  2  0
 20 22  1  0
 22 23  1  1
 22 33  1  0
 23 24  2  0
 23 32  1  0
 24 25  1  0
 25 26  2  0
 26 27  1  0
 26 31  1  0
 27 28  1  0
 28 29  1  0
 29 30  1  0
 31 32  2  0
 33 34  1  0
 33 37  1  0
 34 35  2  0
 35 36  1  0
 36 37  2  0
 37 38  1  0
 38 39  1  0
 39 40  2  0
 39 41  1  0
 41 42  2  0
 41 43  1  0
M  END
