
     RDKit          3D

 12 12  0  0  0  0  0  0  0  0999 V2000
    3.7710   -0.2500    0.4250 O   0  0  0  0  0  0  0  0  0  0  0  0
    2.5490   -0.2340   -0.2660 C   0  0  0  0  0  0  0  0  0  0  0  0
    1.4970    0.2070    0.7000 C   0  0  1  0  0  0  0  0  0  0  0  0
    1.8100    1.4820    1.1750 O   0  0  0  0  0  0  0  0  0  0  0  0
    0.1310    0.3040    0.0570 C   0  0  1  0  0  0  0  0  0  0  0  0
    0.1360    1.2160   -0.9940 O   0  0  0  0  0  0  0  0  0  0  0  0
   -0.3620   -1.0390   -0.3870 C   0  0  0  0  0  0  0  0  0  0  0  0
   -1.8660   -0.8690   -0.3340 C   0  0  2  0  0  0  0  0  0  0  0  0
   -2.4130   -0.5950   -1.5830 O   0  0  0  0  0  0  0  0  0  0  0  0
   -2.0360    0.3310    0.5730 C   0  0  2  0  0  0  0  0  0  0  0  0
   -2.6290    1.3830   -0.1110 O   0  0  0  0  0  0  0  0  0  0  0  0
   -0.7780    0.6520    1.0500 O   0  0  0  0  0  0  0  0  0  0  0  0
  1  2  1  0
  2  3  1  0
  3  4  1  6
  3  5  1  0
  5  6  1  6
  5  7  1  0
  5 12  1  0
  7  8  1  0
  8  9  1  6
  8 10  1  0
 10 11  1  6
 10 12  1  0
M  END
