
     RDKit          3D

 12 12  0  0  0  0  0  0  0  0999 V2000
    3.8070    0.1250   -0.1990 O   0  0  0  0  0  0  0  0  0  0  0  0
    2.8570   -0.8650   -0.2530 C   0  0  0  0  0  0  0  0  0  0  0  0
    1.5920   -0.3120    0.4250 C   0  0  1  0  0  0  0  0  0  0  0  0
    1.2450    0.7890   -0.3040 O   0  0  0  0  0  0  0  0  0  0  0  0
    0.0330    1.3550    0.0280 C   0  0  0  0  0  0  0  0  0  0  0  0
   -1.0220    0.2810   -0.0620 C   0  0  2  0  0  0  0  0  0  0  0  0
   -1.2630    0.0480   -1.4130 O   0  0  0  0  0  0  0  0  0  0  0  0
   -2.2930    0.8560    0.5400 C   0  0  0  0  0  0  0  0  0  0  0  0
   -2.1590    1.1260    1.8920 O   0  0  0  0  0  0  0  0  0  0  0  0
   -0.6230   -0.9910    0.5990 C   0  0  1  0  0  0  0  0  0  0  0  0
   -1.3700   -2.0280    0.0180 O   0  0  0  0  0  0  0  0  0  0  0  0
    0.6940   -1.3260    0.4650 O   0  0  0  0  0  0  0  0  0  0  0  0
  1  2  1  0
  3  2  1  6
  3  4  1  0
  3 12  1  0
  4  5  1  0
  5  6  1  0
  6  7  1  6
  6  8  1  0
  6 10  1  0
  8  9  1  0
 10 11  1  6
 10 12  1  0
M  END
