
     RDKit          3D

 11 11  0  0  0  0  0  0  0  0999 V2000
    1.3870   -0.1500   -1.4680 O   0  0  0  0  0  0  0  0  0  0  0  0
    1.6920   -0.1360   -0.1300 C   0  0  2  0  0  0  0  0  0  0  0  0
    2.2530   -1.3310    0.2840 O   0  0  0  0  0  0  0  0  0  0  0  0
    0.5310    0.2800    0.7420 C   0  0  1  0  0  0  0  0  0  0  0  0
    0.9630    0.2560    2.0780 O   0  0  0  0  0  0  0  0  0  0  0  0
    0.0280    1.6260    0.3390 C   0  0  0  0  0  0  0  0  0  0  0  0
   -1.3480    1.4470   -0.2330 C   0  0  0  0  0  0  0  0  0  0  0  0
   -1.5270   -0.0430   -0.4240 C   0  0  1  0  0  0  0  0  0  0  0  0
   -1.2160   -0.4650   -1.7040 O   0  0  0  0  0  0  0  0  0  0  0  0
   -0.6540   -0.6170    0.6420 C   0  0  1  0  0  0  0  0  0  0  0  0
   -0.3330   -1.9530    0.4510 O   0  0  0  0  0  0  0  0  0  0  0  0
  2  1  1  6
  2  3  1  0
  2  4  1  0
  4  5  1  1
  4  6  1  0
  4 10  1  0
  6  7  1  0
  7  8  1  0
  8  9  1  6
  8 10  1  0
 10 11  1  6
M  END
