
     RDKit          3D

 11 11  0  0  0  0  0  0  0  0999 V2000
   -2.9590   -0.5990    0.3600 O   0  0  0  0  0  0  0  0  0  0  0  0
   -2.0630    0.4310    0.2100 C   0  0  0  0  0  0  0  0  0  0  0  0
   -0.6850   -0.0660   -0.2530 C   0  0  2  0  0  0  0  0  0  0  0  0
   -0.9230   -0.6960   -1.4880 O   0  0  0  0  0  0  0  0  0  0  0  0
   -0.1970   -1.0310    0.7440 C   0  0  0  0  0  0  0  0  0  0  0  0
    1.1400   -1.0910    0.9670 O   0  0  0  0  0  0  0  0  0  0  0  0
    1.9290   -0.3930    0.0940 C   0  0  2  0  0  0  0  0  0  0  0  0
    3.2590   -0.5540    0.3700 O   0  0  0  0  0  0  0  0  0  0  0  0
    1.5030    1.0770    0.2100 C   0  0  0  0  0  0  0  0  0  0  0  0
    0.1570    1.1520   -0.4560 C   0  0  1  0  0  0  0  0  0  0  0  0
    0.4050    1.3270   -1.8370 O   0  0  0  0  0  0  0  0  0  0  0  0
  1  2  1  0
  2  3  1  0
  3  4  1  6
  3  5  1  0
  3 10  1  0
  5  6  1  0
  6  7  1  0
  7  8  1  1
  7  9  1  0
  9 10  1  0
 10 11  1  6
M  END
