
     RDKit          3D

 11 11  0  0  0  0  0  0  0  0999 V2000
   -2.7420   -0.9280   -0.4420 O   0  0  0  0  0  0  0  0  0  0  0  0
   -1.9460    0.1820   -0.8040 C   0  0  0  0  0  0  0  0  0  0  0  0
   -0.7550    0.1690    0.1490 C   0  0  2  0  0  0  0  0  0  0  0  0
   -1.3110    0.2850    1.4430 O   0  0  0  0  0  0  0  0  0  0  0  0
    0.1060    1.3930   -0.0490 C   0  0  0  0  0  0  0  0  0  0  0  0
    1.5030    1.0840    0.3960 C   0  0  0  0  0  0  0  0  0  0  0  0
    2.0710   -0.1300   -0.2740 C   0  0  1  0  0  0  0  0  0  0  0  0
    3.1440   -0.6250    0.4970 O   0  0  0  0  0  0  0  0  0  0  0  0
    1.1650   -1.0820   -0.6160 O   0  0  0  0  0  0  0  0  0  0  0  0
    0.0050   -1.1130    0.1070 C   0  0  2  0  0  0  0  0  0  0  0  0
   -0.8380   -2.0680   -0.5110 O   0  0  0  0  0  0  0  0  0  0  0  0
  1  2  1  0
  2  3  1  0
  3  4  1  1
  3  5  1  0
  3 10  1  0
  5  6  1  0
  6  7  1  0
  7  8  1  1
  7  9  1  0
  9 10  1  0
 10 11  1  6
M  END
