
     RDKit          3D

 11 11  0  0  0  0  0  0  0  0999 V2000
    2.9980   -0.9640   -0.0850 O   0  0  0  0  0  0  0  0  0  0  0  0
    2.2720    0.1660   -0.4390 C   0  0  0  0  0  0  0  0  0  0  0  0
    0.9540    0.1850    0.3220 C   0  0  2  0  0  0  0  0  0  0  0  0
    0.1990   -1.0600   -0.0490 C   0  0  0  0  0  0  0  0  0  0  0  0
   -1.1990   -0.9140    0.5210 C   0  0  2  0  0  0  0  0  0  0  0  0
   -1.8880   -2.0930    0.2600 O   0  0  0  0  0  0  0  0  0  0  0  0
   -1.8530    0.2430   -0.1600 C   0  0  1  0  0  0  0  0  0  0  0  0
   -2.8090    0.7690    0.7110 O   0  0  0  0  0  0  0  0  0  0  0  0
   -1.0090    1.1740   -0.6780 O   0  0  0  0  0  0  0  0  0  0  0  0
    0.1470    1.4040    0.0330 C   0  0  2  0  0  0  0  0  0  0  0  0
    0.9400    2.2540   -0.7540 O   0  0  0  0  0  0  0  0  0  0  0  0
  1  2  1  0
  3  2  1  6
  3  4  1  0
  3 10  1  0
  4  5  1  0
  5  6  1  6
  5  7  1  0
  7  8  1  1
  7  9  1  0
  9 10  1  0
 10 11  1  6
M  END
