
     RDKit          3D

 12 12  0  0  0  0  0  0  0  0999 V2000
   -2.7780   -2.0980   -0.1080 O   0  0  0  0  0  0  0  0  0  0  0  0
   -2.4880   -0.9000   -0.2890 C   0  0  0  0  0  0  0  0  0  0  0  0
   -3.2080   -0.1510   -1.2080 O   0  0  0  0  0  0  0  0  0  0  0  0
   -1.3730   -0.2720    0.4760 C   0  0  1  0  0  0  0  0  0  0  0  0
   -0.0510   -0.9620    0.1640 C   0  0  0  0  0  0  0  0  0  0  0  0
    0.7430    0.1550   -0.4430 C   0  0  2  0  0  0  0  0  0  0  0  0
    0.5160    0.2040   -1.7920 O   0  0  0  0  0  0  0  0  0  0  0  0
    2.2160    0.0760   -0.1430 C   0  0  0  0  0  0  0  0  0  0  0  0
    2.4930    0.0250    1.2000 O   0  0  0  0  0  0  0  0  0  0  0  0
    0.1210    1.3680    0.2170 C   0  0  2  0  0  0  0  0  0  0  0  0
    0.4380    1.4600    1.5670 O   0  0  0  0  0  0  0  0  0  0  0  0
   -1.2440    1.0420    0.1080 O   0  0  0  0  0  0  0  0  0  0  0  0
  1  2  2  0
  2  3  1  0
  4  2  1  6
  4  5  1  0
  4 12  1  0
  5  6  1  0
  6  7  1  6
  6  8  1  0
  6 10  1  0
  8  9  1  0
 10 11  1  1
 10 12  1  0
M  END
