
     RDKit          3D

 11 11  0  0  0  0  0  0  0  0999 V2000
    2.6640   -1.1350    1.0740 O   0  0  0  0  0  0  0  0  0  0  0  0
    1.9230    0.0020    0.8130 C   0  0  0  0  0  0  0  0  0  0  0  0
    0.9370   -0.2370   -0.3430 C   0  0  2  0  0  0  0  0  0  0  0  0
    1.7550   -0.5790   -1.4460 O   0  0  0  0  0  0  0  0  0  0  0  0
    0.2180    1.0070   -0.7100 C   0  0  0  0  0  0  0  0  0  0  0  0
   -1.1140    1.1610   -0.0280 C   0  0  2  0  0  0  0  0  0  0  0  0
   -0.9580    1.5570    1.3100 O   0  0  0  0  0  0  0  0  0  0  0  0
   -1.9020   -0.0940   -0.1620 C   0  0  0  0  0  0  0  0  0  0  0  0
   -1.1210   -1.3440   -0.2610 C   0  0  2  0  0  0  0  0  0  0  0  0
   -1.6740   -2.2550    0.6780 O   0  0  0  0  0  0  0  0  0  0  0  0
    0.1970   -1.3090   -0.0110 O   0  0  0  0  0  0  0  0  0  0  0  0
  1  2  1  0
  2  3  1  0
  3  4  1  6
  3  5  1  0
  3 11  1  0
  5  6  1  0
  6  7  1  1
  6  8  1  0
  8  9  1  0
  9 10  1  1
  9 11  1  0
M  END
