
     RDKit          3D

 27 27  0  0  0  0  0  0  0  0999 V2000
    0.5530   -1.8080   -2.5450 C   0  0  0  0  0  0  0  0  0  0  0  0
    0.2620   -0.4560   -2.6180 O   0  0  0  0  0  0  0  0  0  0  0  0
    0.3480    0.1070   -1.3720 C   0  0  2  0  0  0  0  0  0  0  0  0
   -0.9770    0.4550   -0.9610 O   0  0  0  0  0  0  0  0  0  0  0  0
   -1.6210   -0.0940    0.1280 C   0  0  0  0  0  0  0  0  0  0  0  0
   -1.0110   -0.9500    0.8020 O   0  0  0  0  0  0  0  0  0  0  0  0
   -2.9850    0.3540    0.4390 C   0  0  2  0  0  0  0  0  0  0  0  0
   -3.5260   -0.3620    1.6690 C   0  0  0  0  0  0  0  0  0  0  0  0
   -4.7400    0.3890    2.1080 C   0  0  1  0  0  0  0  0  0  0  0  0
   -4.2910    1.5720    2.7320 O   0  0  0  0  0  0  0  0  0  0  0  0
   -5.7380    0.6620    1.0580 C   0  0  2  0  0  0  0  0  0  0  0  0
   -6.7590   -0.3120    1.1660 O   0  0  0  0  0  0  0  0  0  0  0  0
   -5.2520    0.7850   -0.3300 C   0  0  0  0  0  0  0  0  0  0  0  0
   -3.9760    0.1090   -0.6550 C   0  0  2  0  0  0  0  0  0  0  0  0
   -4.2030   -1.2680   -0.8110 O   0  0  0  0  0  0  0  0  0  0  0  0
    1.2670    1.2820   -1.2780 C   0  0  2  0  0  0  0  0  0  0  0  0
    0.8650    2.3120   -2.1660 O   0  0  0  0  0  0  0  0  0  0  0  0
    2.7200    0.9900   -1.4750 C   0  0  1  0  0  0  0  0  0  0  0  0
    3.4160    2.1570   -1.0430 O   0  0  0  0  0  0  0  0  0  0  0  0
    3.1630   -0.0470   -0.5620 N   0  0  0  0  0  0  0  0  0  0  0  0
    3.9930   -1.0990   -1.0090 C   0  0  0  0  0  0  0  0  0  0  0  0
    4.3030   -1.0840   -2.2380 O   0  0  0  0  0  0  0  0  0  0  0  0
    4.4830   -2.1720   -0.1350 C   0  0  0  0  0  0  0  0  0  0  0  0
    4.4840   -1.9230    1.1920 O   0  0  0  0  0  0  0  0  0  0  0  0
    5.3740   -1.0640    1.7250 C   0  0  0  0  0  0  0  0  0  0  0  0
    5.4520    0.3450    1.3080 C   0  0  0  0  0  0  0  0  0  0  0  0
    6.5080    0.9280    2.0790 O   0  0  0  0  0  0  0  0  0  0  0  0
  1  2  1  0
  3  2  1  6
  3  4  1  0
  3 16  1  0
  4  5  1  0
  5  6  2  0
  7  5  1  6
  7  8  1  0
  7 14  1  0
  8  9  1  0
  9 10  1  6
  9 11  1  0
 11 12  1  6
 11 13  1  0
 13 14  1  0
 14 15  1  1
 16 17  1  6
 16 18  1  0
 18 19  1  1
 18 20  1  0
 20 21  1  0
 21 22  2  0
 21 23  1  0
 23 24  1  0
 24 25  1  0
 25 26  1  0
 26 27  1  0
M  END
