
     RDKit          3D

 26 27  0  0  0  0  0  0  0  0999 V2000
   -1.8120   -2.6710   -0.6290 C   0  0  0  0  0  0  0  0  0  0  0  0
   -2.3740   -1.5410   -1.3990 C   0  0  2  0  0  0  0  0  0  0  0  0
   -3.3350   -1.9650   -2.3590 O   0  0  0  0  0  0  0  0  0  0  0  0
   -1.3040   -0.6380   -2.0450 C   0  0  0  0  0  0  0  0  0  0  0  0
   -2.3560   -0.1400   -1.0690 C   0  0  2  0  0  0  0  0  0  0  0  0
   -1.9160    0.6010    0.1000 C   0  0  2  0  0  0  0  0  0  0  0  0
   -0.4780    0.4190    0.3830 C   0  0  0  0  0  0  0  0  0  0  0  0
    0.3150    1.4070    0.5090 O   0  0  0  0  0  0  0  0  0  0  0  0
    0.1220   -0.8140    0.5390 O   0  0  0  0  0  0  0  0  0  0  0  0
    1.4580   -1.0620    0.8300 C   0  0  0  0  0  0  0  0  0  0  0  0
    2.4360   -0.5100   -0.1070 C   0  0  0  0  0  0  0  0  0  0  0  0
    2.1250    0.1790   -1.0950 O   0  0  0  0  0  0  0  0  0  0  0  0
    3.7780   -0.7700    0.1210 O   0  0  0  0  0  0  0  0  0  0  0  0
    4.7910   -0.2770   -0.7330 C   0  0  2  0  0  0  0  0  0  0  0  0
    5.7310   -1.3670   -1.2010 C   0  0  0  0  0  0  0  0  0  0  0  0
    6.8670   -0.6150   -1.5460 O   0  0  0  0  0  0  0  0  0  0  0  0
    7.0550    0.3130   -0.5510 C   0  0  0  0  0  0  0  0  0  0  0  0
    5.7090    0.6100    0.0650 C   0  0  2  0  0  0  0  0  0  0  0  0
    5.7540    0.2900    1.4080 O   0  0  0  0  0  0  0  0  0  0  0  0
   -2.6210    0.3450    1.4040 C   0  0  1  0  0  0  0  0  0  0  0  0
   -1.9890    1.1880    2.3260 O   0  0  0  0  0  0  0  0  0  0  0  0
   -4.0720    0.7440    1.3880 C   0  0  2  0  0  0  0  0  0  0  0  0
   -4.8000   -0.0420    0.4940 O   0  0  0  0  0  0  0  0  0  0  0  0
   -4.3010    2.1800    1.0140 C   0  0  0  0  0  0  0  0  0  0  0  0
   -5.7150    2.4900    1.1050 N   0  0  0  0  0  0  0  0  0  0  0  0
   -5.9710    3.7690    0.7790 O   0  0  0  0  0  0  0  0  0  0  0  0
  2  1  1  1
  2  3  1  0
  2  4  1  0
  2  5  1  0
  5  4  1  6
  5  6  1  0
  6  7  1  1
  6 20  1  0
  7  8  2  0
  7  9  1  0
  9 10  1  0
 10 11  1  0
 11 12  2  0
 11 13  1  0
 14 13  1  1
 14 15  1  0
 14 18  1  0
 15 16  1  0
 16 17  1  0
 17 18  1  0
 18 19  1  1
 20 21  1  1
 20 22  1  0
 22 23  1  6
 22 24  1  0
 24 25  1  0
 25 26  1  0
M  END
