
     RDKit          3D

 27 28  0  0  0  0  0  0  0  0999 V2000
    7.7120    2.6280   -0.7490 C   0  0  0  0  0  0  0  0  0  0  0  0
    7.2970    1.3230   -1.1100 O   0  0  0  0  0  0  0  0  0  0  0  0
    6.3640    0.6280   -0.3280 C   0  0  0  0  0  0  0  0  0  0  0  0
    5.9260    1.2180    0.6920 O   0  0  0  0  0  0  0  0  0  0  0  0
    5.9220   -0.6600   -0.6410 N   0  0  0  0  0  0  0  0  0  0  0  0
    4.9640   -1.3710    0.1570 C   0  0  0  0  0  0  0  0  0  0  0  0
    3.6680   -0.5930    0.1780 C   0  0  2  0  0  0  0  0  0  0  0  0
    2.5980   -1.4200    0.9110 C   0  0  0  0  0  0  0  0  0  0  0  0
    1.8100   -1.9470   -0.2450 C   0  0  1  0  0  0  0  0  0  0  0  0
    2.4520   -3.0430   -0.7720 O   0  0  0  0  0  0  0  0  0  0  0  0
    0.4000   -2.3210    0.0960 C   0  0  1  0  0  0  0  0  0  0  0  0
    0.4750   -3.4080    0.9830 O   0  0  0  0  0  0  0  0  0  0  0  0
   -0.3680   -1.2610    0.6530 N   0  0  0  0  0  0  0  0  0  0  0  0
   -1.5640   -0.8510    0.0070 C   0  0  0  0  0  0  0  0  0  0  0  0
   -1.9380   -1.4350   -1.0660 O   0  0  0  0  0  0  0  0  0  0  0  0
   -2.3630    0.1700    0.4870 O   0  0  0  0  0  0  0  0  0  0  0  0
   -3.5260    0.5250   -0.1960 C   0  0  2  0  0  0  0  0  0  0  0  0
   -3.5860    1.9590   -0.6060 C   0  0  0  0  0  0  0  0  0  0  0  0
   -4.5050    2.7930    0.2350 C   0  0  0  0  0  0  0  0  0  0  0  0
   -5.7940    2.3340    0.3020 O   0  0  0  0  0  0  0  0  0  0  0  0
   -5.9050    1.0110   -0.0470 C   0  0  2  0  0  0  0  0  0  0  0  0
   -7.2450    0.4300    0.2840 C   0  0  0  0  0  0  0  0  0  0  0  0
   -8.2130    1.1370   -0.3990 O   0  0  0  0  0  0  0  0  0  0  0  0
   -4.7780    0.2470    0.6460 C   0  0  2  0  0  0  0  0  0  0  0  0
   -4.5170    0.7610    1.9150 O   0  0  0  0  0  0  0  0  0  0  0  0
    1.8910   -0.7720   -1.1970 C   0  0  0  0  0  0  0  0  0  0  0  0
    3.2510   -0.4870   -1.1380 O   0  0  0  0  0  0  0  0  0  0  0  0
  1  2  1  0
  2  3  1  0
  3  4  2  0
  3  5  1  0
  5  6  1  0
  7  6  1  6
  7  8  1  0
  7 27  1  0
  8  9  1  0
  9 10  1  6
  9 11  1  0
  9 26  1  0
 11 12  1  1
 11 13  1  0
 13 14  1  0
 14 15  2  0
 14 16  1  0
 17 16  1  1
 17 18  1  0
 17 24  1  0
 18 19  1  0
 19 20  1  0
 20 21  1  0
 21 22  1  1
 21 24  1  0
 22 23  1  0
 24 25  1  1
 26 27  1  0
M  END
