
     RDKit          3D

 26 27  0  0  0  0  0  0  0  0999 V2000
   -5.2860    0.9350    1.3550 C   0  0  0  0  0  0  0  0  0  0  0  0
   -4.6040    0.5570    0.2010 O   0  0  0  0  0  0  0  0  0  0  0  0
   -3.7920   -0.5460    0.4090 C   0  0  1  0  0  0  0  0  0  0  0  0
   -4.3930   -1.5660   -0.3980 O   0  0  0  0  0  0  0  0  0  0  0  0
   -4.6910   -2.6080    0.3740 N   0  0  0  0  0  0  0  0  0  0  0  0
   -2.4140   -0.3560   -0.2430 C   0  0  1  0  0  0  0  0  0  0  0  0
   -1.6250   -1.5670    0.0980 C   0  0  0  0  0  0  0  0  0  0  0  0
   -1.2740   -2.3640   -0.7760 O   0  0  0  0  0  0  0  0  0  0  0  0
   -1.2970   -1.7770    1.4250 O   0  0  0  0  0  0  0  0  0  0  0  0
   -2.6620   -0.2050   -1.5740 O   0  0  0  0  0  0  0  0  0  0  0  0
   -1.5590   -0.0120   -2.3330 C   0  0  0  0  0  0  0  0  0  0  0  0
   -0.8490    1.2470   -1.9160 C   0  0  0  0  0  0  0  0  0  0  0  0
   -0.5080    1.2510   -0.4430 C   0  0  2  0  0  0  0  0  0  0  0  0
    0.6290    0.5090   -0.1390 O   0  0  0  0  0  0  0  0  0  0  0  0
    1.6240    1.2680    0.3940 C   0  0  0  0  0  0  0  0  0  0  0  0
    2.8840    0.6540    0.7710 C   0  0  1  0  0  0  0  0  0  0  0  0
    3.7100    1.6850    1.3090 O   0  0  0  0  0  0  0  0  0  0  0  0
    2.8380   -0.3980    1.8490 C   0  0  0  0  0  0  0  0  0  0  0  0
    4.0970   -0.9710    1.8360 O   0  0  0  0  0  0  0  0  0  0  0  0
    4.8060   -0.5370    0.7420 C   0  0  0  0  0  0  0  0  0  0  0  0
    3.7210   -0.0340   -0.2430 C   0  0  2  0  0  0  0  0  0  0  0  0
    4.3390    0.9040   -1.2520 C   0  0  0  0  0  0  0  0  0  0  0  0
    3.1770   -1.2680   -0.8590 C   0  0  0  0  0  0  0  0  0  0  0  0
    2.0030   -1.1640   -1.5490 O   0  0  0  0  0  0  0  0  0  0  0  0
   -1.7000    0.8170    0.3820 C   0  0  1  0  0  0  0  0  0  0  0  0
   -2.5760    1.8850    0.5720 O   0  0  0  0  0  0  0  0  0  0  0  0
  1  2  1  0
  3  2  1  6
  3  4  1  0
  3  6  1  0
  4  5  1  0
  6  7  1  6
  6 10  1  0
  6 25  1  0
  7  8  2  0
  7  9  1  0
 10 11  1  0
 11 12  1  0
 12 13  1  0
 13 14  1  6
 13 25  1  0
 14 15  1  0
 15 16  1  0
 16 17  1  1
 16 18  1  0
 16 21  1  0
 18 19  1  0
 19 20  1  0
 20 21  1  0
 21 22  1  6
 21 23  1  0
 23 24  1  0
 25 26  1  6
M  END
