
     RDKit          3D

 27 28  0  0  0  0  0  0  0  0999 V2000
   -4.1540   -1.1530   -2.0850 C   0  0  0  0  0  0  0  0  0  0  0  0
   -3.2360   -1.2110   -1.0450 O   0  0  0  0  0  0  0  0  0  0  0  0
   -3.3760   -0.1480   -0.1570 C   0  0  1  0  0  0  0  0  0  0  0  0
   -3.6640   -0.6880    1.0930 O   0  0  0  0  0  0  0  0  0  0  0  0
   -2.7570   -1.7210    1.3120 C   0  0  2  0  0  0  0  0  0  0  0  0
   -3.0630   -2.2790    2.6880 C   0  0  0  0  0  0  0  0  0  0  0  0
   -2.2170   -3.3240    3.0220 O   0  0  0  0  0  0  0  0  0  0  0  0
   -1.3390   -1.2920    1.3000 C   0  0  2  0  0  0  0  0  0  0  0  0
   -1.0850   -0.5560    2.4580 O   0  0  0  0  0  0  0  0  0  0  0  0
   -0.9640   -0.3870    0.1160 C   0  0  2  0  0  0  0  0  0  0  0  0
    0.1930    0.2410    0.5320 O   0  0  0  0  0  0  0  0  0  0  0  0
    1.3390   -0.1300   -0.1780 C   0  0  2  0  0  0  0  0  0  0  0  0
    2.1780   -0.8400    0.6680 O   0  0  0  0  0  0  0  0  0  0  0  0
    3.4290   -1.1060    0.2650 C   0  0  2  0  0  0  0  0  0  0  0  0
    4.3050   -1.3700    1.4960 C   0  0  0  0  0  0  0  0  0  0  0  0
    5.6190   -1.6510    1.1160 O   0  0  0  0  0  0  0  0  0  0  0  0
    4.1130   -0.0810   -0.5730 C   0  0  2  0  0  0  0  0  0  0  0  0
    4.8260    0.7740    0.2680 O   0  0  0  0  0  0  0  0  0  0  0  0
    3.2330    0.7180   -1.4480 C   0  0  2  0  0  0  0  0  0  0  0  0
    3.8440    1.9200   -1.8470 O   0  0  0  0  0  0  0  0  0  0  0  0
    1.9640    1.1120   -0.7270 C   0  0  1  0  0  0  0  0  0  0  0  0
    1.0800    1.6940   -1.6340 O   0  0  0  0  0  0  0  0  0  0  0  0
   -2.0680    0.6160    0.0020 C   0  0  1  0  0  0  0  0  0  0  0  0
   -1.9120    1.6170   -0.9990 N   0  0  0  0  0  0  0  0  0  0  0  0
   -1.8720    2.9860   -0.6210 C   0  0  0  0  0  0  0  0  0  0  0  0
   -1.7120    4.0960   -1.5950 C   0  0  0  0  0  0  0  0  0  0  0  0
   -1.9740    3.3180    0.5990 O   0  0  0  0  0  0  0  0  0  0  0  0
  1  2  1  0
  3  2  1  6
  3  4  1  0
  3 23  1  0
  4  5  1  0
  5  6  1  1
  5  8  1  0
  6  7  1  0
  8  9  1  1
  8 10  1  0
 10 11  1  1
 10 23  1  0
 12 11  1  1
 12 13  1  0
 12 21  1  0
 13 14  1  0
 14 15  1  1
 14 17  1  0
 15 16  1  0
 17 18  1  1
 17 19  1  0
 19 20  1  1
 19 21  1  0
 21 22  1  6
 23 24  1  6
 24 25  1  0
 25 26  1  0
 25 27  2  0
M  END
