
     RDKit          3D

 26 27  0  0  0  0  0  0  0  0999 V2000
   -4.3470   -1.3470    0.8160 C   0  0  0  0  0  0  0  0  0  0  0  0
   -3.2360   -0.3510    0.4260 C   0  0  2  0  0  0  0  0  0  0  0  0
   -1.9680   -1.2190    0.4620 C   0  0  2  0  0  0  0  0  0  0  0  0
   -1.8630   -1.7030    1.7740 O   0  0  0  0  0  0  0  0  0  0  0  0
   -0.7480   -0.4370    0.1260 C   0  0  0  0  0  0  0  0  0  0  0  0
    0.4660   -1.3220    0.1760 C   0  0  1  0  0  0  0  0  0  0  0  0
    0.6660   -1.8880    1.4240 O   0  0  0  0  0  0  0  0  0  0  0  0
    0.3870   -2.3410   -0.9420 C   0  0  0  0  0  0  0  0  0  0  0  0
    0.4870   -1.4750   -2.0560 O   0  0  0  0  0  0  0  0  0  0  0  0
    1.5910   -0.7000   -1.7870 C   0  0  1  0  0  0  0  0  0  0  0  0
    1.4390    0.6010   -2.3010 O   0  0  0  0  0  0  0  0  0  0  0  0
    1.7190   -0.5590   -0.2850 C   0  0  1  0  0  0  0  0  0  0  0  0
    1.7200    0.7390    0.1370 O   0  0  0  0  0  0  0  0  0  0  0  0
    2.7920    1.1190    0.9020 C   0  0  0  0  0  0  0  0  0  0  0  0
    4.1160    0.9660    0.1880 C   0  0  0  0  0  0  0  0  0  0  0  0
    5.1800    1.3720    1.0250 O   0  0  0  0  0  0  0  0  0  0  0  0
    6.4670    1.2950    0.5240 C   0  0  0  0  0  0  0  0  0  0  0  0
    7.6250    1.6700    1.2570 N   0  0  0  0  0  0  0  0  0  0  0  0
    6.6260    0.8690   -0.6470 O   0  0  0  0  0  0  0  0  0  0  0  0
   -3.2230    0.7030    1.4630 C   0  0  0  0  0  0  0  0  0  0  0  0
   -2.9970    2.0070    1.0420 O   0  0  0  0  0  0  0  0  0  0  0  0
   -3.4820    2.4170   -0.1900 C   0  0  0  0  0  0  0  0  0  0  0  0
   -4.0960    3.5220   -0.3690 O   0  0  0  0  0  0  0  0  0  0  0  0
   -3.2450    1.4860   -1.3230 C   0  0  0  0  0  0  0  0  0  0  0  0
   -3.5340    0.0800   -0.9590 C   0  0  2  0  0  0  0  0  0  0  0  0
   -4.8680   -0.2150   -1.3300 O   0  0  0  0  0  0  0  0  0  0  0  0
  2  1  1  1
  2  3  1  0
  2 20  1  0
  2 25  1  0
  3  4  1  1
  3  5  1  0
  5  6  1  0
  6  7  1  1
  6  8  1  0
  6 12  1  0
  8  9  1  0
  9 10  1  0
 10 11  1  6
 10 12  1  0
 12 13  1  6
 13 14  1  0
 14 15  1  0
 15 16  1  0
 16 17  1  0
 17 18  1  0
 17 19  2  0
 20 21  1  0
 21 22  1  0
 22 23  2  0
 22 24  1  0
 24 25  1  0
 25 26  1  1
M  END
