
     RDKit          3D

 26 27  0  0  0  0  0  0  0  0999 V2000
   -1.6220    3.7850   -1.1020 O   0  0  0  0  0  0  0  0  0  0  0  0
   -2.0080    2.8000   -0.1940 C   0  0  0  0  0  0  0  0  0  0  0  0
   -2.8940    1.9440   -0.7990 O   0  0  0  0  0  0  0  0  0  0  0  0
   -3.3390    0.9250    0.0240 C   0  0  1  0  0  0  0  0  0  0  0  0
   -3.9780    1.4850    1.1230 O   0  0  0  0  0  0  0  0  0  0  0  0
   -4.2810    0.0890   -0.8180 C   0  0  0  0  0  0  0  0  0  0  0  0
   -4.8410   -0.9590   -0.1420 O   0  0  0  0  0  0  0  0  0  0  0  0
   -4.1490   -1.3780    0.9650 C   0  0  0  0  0  0  0  0  0  0  0  0
   -2.6490   -1.3850    0.7640 C   0  0  1  0  0  0  0  0  0  0  0  0
   -2.2100   -2.2380   -0.1770 O   0  0  0  0  0  0  0  0  0  0  0  0
   -1.3640   -3.2390    0.0940 C   0  0  0  0  0  0  0  0  0  0  0  0
    0.0160   -2.9300    0.5810 C   0  0  2  0  0  0  0  0  0  0  0  0
    0.1500   -2.2210    1.7190 O   0  0  0  0  0  0  0  0  0  0  0  0
    0.9430   -2.4370   -0.5100 C   0  0  0  0  0  0  0  0  0  0  0  0
    2.3090   -2.5430   -0.3080 N   0  0  0  0  0  0  0  0  0  0  0  0
    3.0140   -1.7600    0.6090 C   0  0  2  0  0  0  0  0  0  0  0  0
    2.6510   -2.0450    1.9340 O   0  0  0  0  0  0  0  0  0  0  0  0
    3.0230   -0.2770    0.3190 C   0  0  1  0  0  0  0  0  0  0  0  0
    3.6220   -0.0860   -1.0750 C   0  0  0  0  0  0  0  0  0  0  0  0
    3.7920    1.2570   -1.2980 O   0  0  0  0  0  0  0  0  0  0  0  0
    3.1140    2.0870   -0.4160 C   0  0  1  0  0  0  0  0  0  0  0  0
    2.9830    3.4780   -1.0090 C   0  0  0  0  0  0  0  0  0  0  0  0
    4.2570    3.9950   -1.2450 O   0  0  0  0  0  0  0  0  0  0  0  0
    1.7320    1.5620   -0.1830 C   0  0  0  0  0  0  0  0  0  0  0  0
    1.7770    0.2630    0.2940 O   0  0  0  0  0  0  0  0  0  0  0  0
   -2.1920    0.0210    0.4160 C   0  0  0  0  0  0  0  0  0  0  0  0
  1  2  1  0
  2  3  1  0
  3  4  1  0
  4  5  1  1
  4  6  1  0
  4 26  1  0
  6  7  1  0
  7  8  1  0
  8  9  1  0
  9 10  1  6
  9 26  1  0
 10 11  1  0
 11 12  1  0
 12 13  1  1
 12 14  1  0
 14 15  1  0
 15 16  1  0
 16 17  1  1
 16 18  1  0
 18 19  1  6
 18 25  1  0
 19 20  1  0
 20 21  1  0
 21 22  1  6
 21 24  1  0
 22 23  1  0
 24 25  1  0
M  END
