
     RDKit          3D

  8  8  0  0  0  0  0  0  0  0999 V2000
   -0.7340    2.5470    0.1390 O   0  0  0  0  0  0  0  0  0  0  0  0
   -0.3940    1.3210    0.0730 C   0  0  0  0  0  0  0  0  0  0  0  0
   -1.3240    0.3010    0.0560 C   0  0  0  0  0  0  0  0  0  0  0  0
   -0.9100   -1.0190   -0.0180 C   0  0  0  0  0  0  0  0  0  0  0  0
    0.3960   -1.3330   -0.0730 N   0  0  0  0  0  0  0  0  0  0  0  0
    1.2840   -0.3240   -0.0550 C   0  0  0  0  0  0  0  0  0  0  0  0
    2.5090   -0.6050   -0.1070 O   0  0  0  0  0  0  0  0  0  0  0  0
    0.9010    0.9600    0.0150 N   0  0  0  0  0  0  0  0  0  0  0  0
  1  2  2  0
  2  3  1  0
  2  8  1  0
  3  4  2  0
  4  5  1  0
  5  6  1  0
  6  7  2  0
  6  8  1  0
M  END
