
     RDKit          3D

  8  8  0  0  0  0  0  0  0  0999 V2000
   -2.1940    0.7820    0.3540 N   0  0  0  0  0  0  0  0  0  0  0  0
   -0.8500    0.4260    0.0840 C   0  0  0  0  0  0  0  0  0  0  0  0
    0.0740    1.3130    0.2740 N   0  0  0  0  0  0  0  0  0  0  0  0
    1.4130    0.8700   -0.0230 C   0  0  0  0  0  0  0  0  0  0  0  0
    2.2990    1.6890   -0.4280 O   0  0  0  0  0  0  0  0  0  0  0  0
    1.7040   -0.5520    0.1610 C   0  0  0  0  0  0  0  0  0  0  0  0
    0.6800   -1.4110   -0.0340 O   0  0  0  0  0  0  0  0  0  0  0  0
   -0.5230   -0.9200   -0.3970 C   0  0  0  0  0  0  0  0  0  0  0  0
  1  2  1  0
  2  3  2  0
  2  8  1  0
  3  4  1  0
  4  5  2  0
  4  6  1  0
  6  7  1  0
  7  8  1  0
M  END
