
     RDKit          3D

  8  8  0  0  0  0  0  0  0  0999 V2000
   -2.2730    0.0960    0.1520 C   0  0  0  0  0  0  0  0  0  0  0  0
   -1.1800   -0.9090    0.1630 C   0  0  0  0  0  0  0  0  0  0  0  0
   -1.4550   -2.1340    0.1420 O   0  0  0  0  0  0  0  0  0  0  0  0
    0.1920   -0.4370    0.1990 C   0  0  0  0  0  0  0  0  0  0  0  0
    0.6270    0.7980    0.2230 C   0  0  0  0  0  0  0  0  0  0  0  0
    2.0490    0.7900    0.2540 N   0  0  0  0  0  0  0  0  0  0  0  0
    2.4390   -0.5180   -0.0540 N   0  0  0  0  0  0  0  0  0  0  0  0
    1.3200   -1.2820    0.2120 O   0  0  0  0  0  0  0  0  0  0  0  0
  1  2  1  0
  2  3  2  0
  2  4  1  0
  4  5  2  0
  4  8  1  0
  5  6  1  0
  6  7  1  0
  7  8  1  0
M  END
