
     RDKit          3D

  8  8  0  0  0  0  0  0  0  0999 V2000
   -0.2390    2.0000   -0.1800 O   0  0  0  0  0  0  0  0  0  0  0  0
   -0.3790    0.6240   -0.1020 C   0  0  0  0  0  0  0  0  0  0  0  0
   -1.6500    0.0890   -0.2550 C   0  0  0  0  0  0  0  0  0  0  0  0
   -1.7630   -1.2460   -0.1760 N   0  0  0  0  0  0  0  0  0  0  0  0
   -0.7460   -2.0610    0.0360 N   0  0  0  0  0  0  0  0  0  0  0  0
    0.5100   -1.6160    0.1930 C   0  0  0  0  0  0  0  0  0  0  0  0
    0.6810   -0.2270    0.1190 C   0  0  0  0  0  0  0  0  0  0  0  0
    1.9650    0.2400    0.2790 O   0  0  0  0  0  0  0  0  0  0  0  0
  1  2  1  0
  2  3  2  0
  2  7  1  0
  3  4  1  0
  4  5  2  0
  5  6  1  0
  6  7  2  0
  7  8  1  0
M  END
