
     RDKit          3D

 32 37  0  0  0  0  0  0  0  0999 V2000
   -1.0560    1.2920   -0.6920 C   0  0  0  0  0  0  0  0  0  0  0  0
   -0.4480    0.1770   -0.5020 C   0  0  0  0  0  0  0  0  0  0  0  0
    0.8300    0.1130    0.2510 C   0  0  0  0  0  0  0  0  0  0  0  0
    1.7010   -0.8980   -0.4230 C   0  0  0  0  0  0  0  0  0  0  0  0
    1.2680   -1.6940   -1.4410 C   0  0  0  0  0  0  0  0  0  0  0  0
    2.1730   -2.6030   -2.0100 C   0  0  0  0  0  0  0  0  0  0  0  0
    3.4630   -2.6670   -1.5310 C   0  0  0  0  0  0  0  0  0  0  0  0
    3.8730   -1.8490   -0.4980 C   0  0  0  0  0  0  0  0  0  0  0  0
    2.9960   -0.9570    0.0650 C   0  0  0  0  0  0  0  0  0  0  0  0
    3.6720   -0.3090    1.0320 N   0  0  0  0  0  0  0  0  0  0  0  0
    4.9390   -0.7280    1.1280 C   0  0  0  0  0  0  0  0  0  0  0  0
    6.0140   -0.3820    1.9460 C   0  0  0  0  0  0  0  0  0  0  0  0
    7.1860   -1.0080    1.7850 N   0  0  0  0  0  0  0  0  0  0  0  0
    7.3480   -1.9630    0.8530 C   0  0  0  0  0  0  0  0  0  0  0  0
    6.3000   -2.3360    0.0180 C   0  0  0  0  0  0  0  0  0  0  0  0
    5.0800   -1.7110    0.1570 C   0  0  0  0  0  0  0  0  0  0  0  0
   -0.0470   -1.6500   -1.9510 O   0  0  0  0  0  0  0  0  0  0  0  0
   -1.0260   -1.1070   -1.0360 C   0  0  2  0  0  0  0  0  0  0  0  0
   -2.2970   -0.9460   -1.7610 C   0  0  0  0  0  0  0  0  0  0  0  0
   -3.4120   -0.4510   -1.0330 N   0  0  0  0  0  0  0  0  0  0  0  0
   -3.9190   -1.3380   -0.0200 C   0  0  0  0  0  0  0  0  0  0  0  0
   -5.0750   -0.6710    0.6360 C   0  0  0  0  0  0  0  0  0  0  0  0
   -5.0360    0.4290    1.4630 C   0  0  0  0  0  0  0  0  0  0  0  0
   -6.3380    0.7180    1.8600 C   0  0  0  0  0  0  0  0  0  0  0  0
   -7.1590   -0.2220    1.2610 C   0  0  0  0  0  0  0  0  0  0  0  0
   -6.3670   -1.0280    0.5430 N   0  0  0  0  0  0  0  0  0  0  0  0
   -0.5720    2.5600   -0.2000 C   0  0  0  0  0  0  0  0  0  0  0  0
   -0.5380    3.6700   -1.0550 C   0  0  0  0  0  0  0  0  0  0  0  0
   -0.1130    4.8890   -0.5910 C   0  0  0  0  0  0  0  0  0  0  0  0
    0.2870    5.0550    0.7150 C   0  0  0  0  0  0  0  0  0  0  0  0
    0.2440    3.9720    1.5150 N   0  0  0  0  0  0  0  0  0  0  0  0
   -0.1710    2.7610    1.0810 C   0  0  0  0  0  0  0  0  0  0  0  0
  1  2  2  3
  1 27  1  0
  2  3  1  0
  2 18  1  0
  3  4  1  0
  4  5  2  0
  4  9  1  0
  5  6  1  0
  5 17  1  0
  6  7  2  0
  7  8  1  0
  8  9  2  0
  8 16  1  0
  9 10  1  0
 10 11  1  0
 11 12  2  0
 11 16  1  0
 12 13  1  0
 13 14  2  0
 14 15  1  0
 15 16  2  0
 17 18  1  0
 18 19  1  6
 19 20  1  0
 20 21  1  0
 21 22  1  0
 22 23  2  0
 22 26  1  0
 23 24  1  0
 24 25  2  0
 25 26  1  0
 27 28  2  0
 27 32  1  0
 28 29  1  0
 29 30  2  0
 30 31  1  0
 31 32  2  0
M  END
