
     RDKit          3D

 32 34  0  0  0  0  0  0  0  0999 V2000
    2.8220   -0.7240    1.2740 C   0  0  0  0  0  0  0  0  0  0  0  0
    1.4010   -0.4850    0.8020 C   0  0  2  0  0  0  0  0  0  0  0  0
    1.1030    1.3000    0.5780 S   0  0  0  0  0  0  0  0  0  0  0  0
   -0.0190    1.6200   -0.7870 C   0  0  0  0  0  0  0  0  0  0  0  0
    0.5640    1.6590   -1.9690 N   0  0  0  0  0  0  0  0  0  0  0  0
    1.9270    1.4720   -2.1800 C   0  0  0  0  0  0  0  0  0  0  0  0
    2.7310    2.3270   -1.7070 O   0  0  0  0  0  0  0  0  0  0  0  0
    2.5020    0.4170   -2.8750 O   0  0  0  0  0  0  0  0  0  0  0  0
    3.9190    0.3070   -3.0430 C   0  0  2  0  0  0  0  0  0  0  0  0
    4.4560   -0.3610   -4.2710 C   0  0  0  0  0  0  0  0  0  0  0  0
    4.5580   -1.0490   -2.9690 C   0  0  0  0  0  0  0  0  0  0  0  0
   -1.4140    1.8110   -0.6490 N   0  0  0  0  0  0  0  0  0  0  0  0
   -2.1740    2.1320    0.4790 C   0  0  0  0  0  0  0  0  0  0  0  0
   -2.9620    3.1720    0.3600 O   0  0  0  0  0  0  0  0  0  0  0  0
   -2.2470    1.4960    1.7880 C   0  0  0  0  0  0  0  0  0  0  0  0
   -1.8110    2.2620    2.9670 C   0  0  0  0  0  0  0  0  0  0  0  0
   -1.2950    3.3880    3.1640 C   0  0  0  0  0  0  0  0  0  0  0  0
   -0.9840    3.7880    4.9150 Cl  0  0  0  0  0  0  0  0  0  0  0  0
   -0.8910    4.4560    2.2690 C   0  0  1  0  0  0  0  0  0  0  0  0
   -0.4000    4.1330    1.0460 F   0  0  0  0  0  0  0  0  0  0  0  0
   -1.9120    5.3950    2.0920 F   0  0  0  0  0  0  0  0  0  0  0  0
    0.1600    5.2210    2.8620 F   0  0  0  0  0  0  0  0  0  0  0  0
   -2.7640    0.2530    1.9660 C   0  0  0  0  0  0  0  0  0  0  0  0
   -3.3180   -0.6610    0.9990 C   0  0  0  0  0  0  0  0  0  0  0  0
   -2.7180   -1.5090    0.1860 C   0  0  0  0  0  0  0  0  0  0  0  0
   -3.3910   -2.4410   -0.8140 C   0  0  0  0  0  0  0  0  0  0  0  0
   -2.5040   -3.6540   -0.7150 C   0  0  0  0  0  0  0  0  0  0  0  0
   -1.1410   -3.0950   -0.6140 C   0  0  0  0  0  0  0  0  0  0  0  0
   -1.2820   -1.7890    0.0710 C   0  0  2  0  0  0  0  0  0  0  0  0
   -0.6210   -1.8840    1.3600 N   0  0  0  0  0  0  0  0  0  0  0  0
    0.4460   -1.0630    1.7770 C   0  0  0  0  0  0  0  0  0  0  0  0
    0.5920   -0.8120    3.0200 O   0  0  0  0  0  0  0  0  0  0  0  0
  2  1  1  1
  2  3  1  0
  2 31  1  0
  3  4  1  0
  4  5  2  3
  4 12  1  0
  5  6  1  0
  6  7  2  0
  6  8  1  0
  9  8  1  6
  9 10  1  0
  9 11  1  0
 10 11  1  0
 12 13  1  0
 13 14  2  0
 13 15  1  0
 15 16  1  0
 15 23  2  0
 16 17  2  3
 17 18  1  0
 17 19  1  0
 19 20  1  6
 19 21  1  0
 19 22  1  0
 23 24  1  0
 24 25  2  0
 25 26  1  0
 25 29  1  0
 26 27  1  0
 27 28  1  0
 29 28  1  1
 29 30  1  0
 30 31  1  0
 31 32  2  0
M  END
