
     RDKit          3D

 32 34  0  0  0  0  0  0  0  0999 V2000
   -5.0320    3.8760    1.4270 C   0  0  0  0  0  0  0  0  0  0  0  0
   -4.5410    2.8520    0.4940 C   0  0  0  0  0  0  0  0  0  0  0  0
   -3.5290    1.9720    0.6310 C   0  0  0  0  0  0  0  0  0  0  0  0
   -2.7590    1.9680    1.8610 N   0  0  0  0  0  0  0  0  0  0  0  0
   -3.2680    1.1250   -0.5020 C   0  0  2  0  0  0  0  0  0  0  0  0
   -4.6240    0.7930   -1.1130 C   0  0  0  0  0  0  0  0  0  0  0  0
   -4.6680   -0.4790   -1.2490 C   0  0  0  0  0  0  0  0  0  0  0  0
   -3.4170   -1.1110   -0.7580 C   0  0  0  0  0  0  0  0  0  0  0  0
   -3.1500   -2.5630   -0.6870 C   0  0  0  0  0  0  0  0  0  0  0  0
   -2.9520   -3.2820   -1.8860 N   0  0  0  0  0  0  0  0  0  0  0  0
   -3.8250   -3.5200   -2.9400 C   0  0  0  0  0  0  0  0  0  0  0  0
   -4.9880   -3.1050   -2.9570 O   0  0  0  0  0  0  0  0  0  0  0  0
   -2.6080   -0.1290   -0.3130 C   0  0  0  0  0  0  0  0  0  0  0  0
   -1.2920   -0.3050    0.2370 C   0  0  0  0  0  0  0  0  0  0  0  0
   -0.7580   -1.4240    0.3510 O   0  0  0  0  0  0  0  0  0  0  0  0
   -0.5190    0.7750    0.6840 O   0  0  0  0  0  0  0  0  0  0  0  0
    0.7770    0.6190    1.2270 C   0  0  0  0  0  0  0  0  0  0  0  0
    1.7270   -0.0000    0.2630 C   0  0  0  0  0  0  0  0  0  0  0  0
    1.2690   -0.2840   -0.8670 O   0  0  0  0  0  0  0  0  0  0  0  0
    3.0560   -0.2410    0.6280 N   0  0  0  0  0  0  0  0  0  0  0  0
    3.6290    0.0970    1.9350 C   0  0  0  0  0  0  0  0  0  0  0  0
    5.0910   -0.2260    1.8990 C   0  0  0  0  0  0  0  0  0  0  0  0
    5.3590   -0.2120    0.3890 C   0  0  0  0  0  0  0  0  0  0  0  0
    6.4060    0.2550   -0.1730 C   0  0  0  0  0  0  0  0  0  0  0  0
    6.8440    0.3700   -1.5540 C   0  0  2  0  0  0  0  0  0  0  0  0
    5.7540    0.5410   -2.3980 F   0  0  0  0  0  0  0  0  0  0  0  0
    7.7720   -0.5190   -1.9860 F   0  0  0  0  0  0  0  0  0  0  0  0
    4.1400   -0.8460   -0.1100 C   0  0  0  0  0  0  0  0  0  0  0  0
    4.0350   -1.7600   -1.0090 C   0  0  0  0  0  0  0  0  0  0  0  0
    2.7750   -2.2250   -1.3250 F   0  0  0  0  0  0  0  0  0  0  0  0
    5.3310   -2.5380   -1.8350 Cl  0  0  0  0  0  0  0  0  0  0  0  0
   -5.2610    2.4490   -1.1550 S   0  0  0  0  0  0  0  0  0  0  0  0
  1  2  1  0
  2  3  2  0
  2 32  1  0
  3  4  1  0
  5  3  1  1
  5  6  1  0
  5 13  1  0
  6  7  2  0
  6 32  1  0
  7  8  1  0
  8  9  1  0
  8 13  2  0
  9 10  1  0
 10 11  1  0
 11 12  2  0
 13 14  1  0
 14 15  2  0
 14 16  1  0
 16 17  1  0
 17 18  1  0
 18 19  2  0
 18 20  1  0
 20 21  1  0
 20 28  1  0
 21 22  1  0
 22 23  1  0
 23 24  2  3
 23 28  1  0
 24 25  1  0
 25 26  1  6
 25 27  1  0
 28 29  2  3
 29 30  1  0
 29 31  1  0
M  END
