
     RDKit          3D

 32 36  0  0  0  0  0  0  0  0999 V2000
   -5.7260    1.8310    1.9700 C   0  0  0  0  0  0  0  0  0  0  0  0
   -4.3570    1.2230    1.8810 C   0  0  0  0  0  0  0  0  0  0  0  0
   -4.2660    0.3070    0.9370 C   0  0  0  0  0  0  0  0  0  0  0  0
   -3.2160   -0.5900    0.4070 C   0  0  0  0  0  0  0  0  0  0  0  0
   -2.0280   -1.0020    0.8140 C   0  0  0  0  0  0  0  0  0  0  0  0
   -1.3770   -1.9130   -0.1090 N   0  0  0  0  0  0  0  0  0  0  0  0
   -0.1590   -1.5670   -0.7250 C   0  0  0  0  0  0  0  0  0  0  0  0
    0.4610   -0.4000   -0.5110 N   0  0  0  0  0  0  0  0  0  0  0  0
    1.6070   -0.0030   -1.0550 C   0  0  0  0  0  0  0  0  0  0  0  0
    2.3830    1.1400   -0.9580 C   0  0  0  0  0  0  0  0  0  0  0  0
    2.0770    2.2970   -0.1410 C   0  0  0  0  0  0  0  0  0  0  0  0
    0.9700    2.4190    0.6600 C   0  0  0  0  0  0  0  0  0  0  0  0
    0.7180    3.5380    1.4230 C   0  0  0  0  0  0  0  0  0  0  0  0
    1.6040    4.5690    1.3840 C   0  0  0  0  0  0  0  0  0  0  0  0
    1.3910    5.6100    2.0790 O   0  0  0  0  0  0  0  0  0  0  0  0
    2.6900    4.4400    0.5930 N   0  0  0  0  0  0  0  0  0  0  0  0
    2.9270    3.3660   -0.1360 N   0  0  0  0  0  0  0  0  0  0  0  0
    3.4260    0.9700   -1.7380 N   0  0  0  0  0  0  0  0  0  0  0  0
    3.4080   -0.2440   -2.3740 C   0  0  0  0  0  0  0  0  0  0  0  0
    4.4600   -0.6690   -3.2960 C   0  0  0  0  0  0  0  0  0  0  0  0
    2.2650   -0.8570   -1.9460 C   0  0  0  0  0  0  0  0  0  0  0  0
    1.6930   -2.0900   -2.2260 C   0  0  0  0  0  0  0  0  0  0  0  0
    2.3280   -2.9230   -3.0900 C   0  0  0  0  0  0  0  0  0  0  0  0
    1.7460   -4.1650   -3.3700 C   0  0  0  0  0  0  0  0  0  0  0  0
    0.5690   -4.5330   -2.7900 C   0  0  0  0  0  0  0  0  0  0  0  0
   -0.0700   -3.6630   -1.9040 C   0  0  0  0  0  0  0  0  0  0  0  0
    0.4730   -2.4310   -1.6040 C   0  0  0  0  0  0  0  0  0  0  0  0
   -1.2580   -0.7140    2.0150 C   0  0  0  0  0  0  0  0  0  0  0  0
   -0.1370   -1.6810    2.2120 C   0  0  0  0  0  0  0  0  0  0  0  0
   -1.3020    0.1940    2.9890 C   0  0  0  0  0  0  0  0  0  0  0  0
   -2.1890    1.3400    3.2720 C   0  0  0  0  0  0  0  0  0  0  0  0
   -3.3870    1.7280    2.8260 C   0  0  0  0  0  0  0  0  0  0  0  0
  1  2  1  0
  2  3  2  0
  2 32  1  0
  3  4  1  0
  4  5  2  0
  5  6  1  0
  5 28  1  0
  6  7  1  0
  7  8  2  0
  7 27  1  0
  8  9  1  0
  9 10  2  0
  9 21  1  0
 10 11  1  0
 10 18  1  0
 11 12  1  0
 11 17  2  0
 12 13  2  0
 13 14  1  0
 14 15  2  0
 14 16  1  0
 16 17  1  0
 18 19  1  0
 19 20  1  0
 19 21  2  0
 21 22  1  0
 22 23  2  0
 22 27  1  0
 23 24  1  0
 24 25  2  0
 25 26  1  0
 26 27  2  0
 28 29  1  0
 28 30  2  0
 30 31  1  0
 31 32  2  0
M  END
