
     RDKit          3D

 32 37  0  0  0  0  0  0  0  0999 V2000
    5.9320    0.7900    2.4950 C   0  0  0  0  0  0  0  0  0  0  0  0
    4.7790    0.4130    1.6300 C   0  0  0  0  0  0  0  0  0  0  0  0
    3.4950    0.6730    2.1470 C   0  0  0  0  0  0  0  0  0  0  0  0
    2.3780    0.4470    1.4050 C   0  0  0  0  0  0  0  0  0  0  0  0
    1.0990    0.6910    1.8770 C   0  0  0  0  0  0  0  0  0  0  0  0
    0.0810    0.4300    1.0530 N   0  0  0  0  0  0  0  0  0  0  0  0
    0.1720   -0.0490   -0.1940 C   0  0  0  0  0  0  0  0  0  0  0  0
   -0.9350   -0.3100   -1.0280 N   0  0  0  0  0  0  0  0  0  0  0  0
   -2.3080   -0.1250   -0.7310 C   0  0  0  0  0  0  0  0  0  0  0  0
   -2.8140    0.4150    0.4100 C   0  0  0  0  0  0  0  0  0  0  0  0
   -4.1700    0.5950    0.7140 C   0  0  0  0  0  0  0  0  0  0  0  0
   -4.5490    1.1920    2.0050 C   0  0  0  0  0  0  0  0  0  0  0  0
   -5.0540    0.1710   -0.2620 C   0  0  0  0  0  0  0  0  0  0  0  0
   -4.6060   -0.3810   -1.4380 C   0  0  0  0  0  0  0  0  0  0  0  0
   -3.2490   -0.5320   -1.6760 C   0  0  0  0  0  0  0  0  0  0  0  0
   -5.5460   -0.7730   -2.4920 C   0  0  0  0  0  0  0  0  0  0  0  0
   -6.9590   -0.9240   -2.1660 C   0  0  0  0  0  0  0  0  0  0  0  0
   -7.3960   -0.2350   -0.9460 C   0  0  0  0  0  0  0  0  0  0  0  0
   -8.6520    0.0210   -0.4690 N   0  0  0  0  0  0  0  0  0  0  0  0
   -8.5380    0.6200    0.6760 N   0  0  0  0  0  0  0  0  0  0  0  0
   -7.2060    0.7810    0.9950 C   0  0  0  0  0  0  0  0  0  0  0  0
   -6.4970    0.2480   -0.0170 C   0  0  0  0  0  0  0  0  0  0  0  0
    1.4330   -0.2780   -0.6290 N   0  0  0  0  0  0  0  0  0  0  0  0
    2.4960   -0.0390    0.1410 C   0  0  0  0  0  0  0  0  0  0  0  0
    3.7360   -0.3020   -0.3810 C   0  0  0  0  0  0  0  0  0  0  0  0
    4.9180   -0.0790    0.3610 C   0  0  0  0  0  0  0  0  0  0  0  0
    6.1710   -0.5030   -0.2460 C   0  0  0  0  0  0  0  0  0  0  0  0
    7.2220   -0.8700    0.4140 C   0  0  0  0  0  0  0  0  0  0  0  0
    8.5130   -1.2990   -0.2550 C   0  0  0  0  0  0  0  0  0  0  0  0
    8.4890   -1.2100   -1.6330 O   0  0  0  0  0  0  0  0  0  0  0  0
    7.3990   -0.8250   -2.3600 C   0  0  0  0  0  0  0  0  0  0  0  0
    6.2780   -0.4830   -1.7210 C   0  0  0  0  0  0  0  0  0  0  0  0
  1  2  1  0
  2  3  2  0
  2 26  1  0
  3  4  1  0
  4  5  2  0
  4 24  1  0
  5  6  1  0
  6  7  2  0
  7  8  1  0
  7 23  1  0
  8  9  1  0
  9 10  2  0
  9 15  1  0
 10 11  1  0
 11 12  1  0
 11 13  2  0
 13 14  1  0
 13 22  1  0
 14 15  2  0
 14 16  1  0
 16 17  1  0
 17 18  1  0
 18 19  1  0
 18 22  2  0
 19 20  1  0
 20 21  2  0
 21 22  1  0
 23 24  2  0
 24 25  1  0
 25 26  2  0
 26 27  1  0
 27 28  2  0
 27 32  1  0
 28 29  1  0
 29 30  1  0
 30 31  1  0
 31 32  2  0
M  END
