
     RDKit          3D

 32 37  0  0  0  0  0  0  0  0999 V2000
   -8.3630    1.2790    0.7900 C   0  0  0  0  0  0  0  0  0  0  0  0
   -7.7160   -0.0750    0.7090 C   0  0  0  0  0  0  0  0  0  0  0  0
   -6.3870   -0.0450    0.0610 C   0  0  0  0  0  0  0  0  0  0  0  0
   -5.2100   -0.1350    0.8170 C   0  0  0  0  0  0  0  0  0  0  0  0
   -3.9800   -0.1090    0.2590 C   0  0  0  0  0  0  0  0  0  0  0  0
   -2.7580   -0.2040    1.0620 C   0  0  0  0  0  0  0  0  0  0  0  0
   -2.7460   -0.3260    2.4320 C   0  0  0  0  0  0  0  0  0  0  0  0
   -1.5760   -0.4140    3.1670 C   0  0  0  0  0  0  0  0  0  0  0  0
   -0.3820   -0.3770    2.4840 C   0  0  0  0  0  0  0  0  0  0  0  0
   -0.3690   -0.2540    1.0890 C   0  0  0  0  0  0  0  0  0  0  0  0
    0.9080   -0.2180    0.4060 C   0  0  0  0  0  0  0  0  0  0  0  0
    1.0920   -0.1040   -0.9110 N   0  0  0  0  0  0  0  0  0  0  0  0
    2.4090   -0.1050   -1.2000 C   0  0  0  0  0  0  0  0  0  0  0  0
    3.0670   -0.2250    0.0030 C   0  0  0  0  0  0  0  0  0  0  0  0
    4.5140   -0.2690    0.1610 C   0  0  0  0  0  0  0  0  0  0  0  0
    5.0230   -0.3950    1.4340 C   0  0  0  0  0  0  0  0  0  0  0  0
    6.3940   -0.4390    1.5960 C   0  0  0  0  0  0  0  0  0  0  0  0
    7.1880   -0.3560    0.4930 C   0  0  0  0  0  0  0  0  0  0  0  0
    6.6750   -0.2300   -0.7800 C   0  0  0  0  0  0  0  0  0  0  0  0
    5.3360   -0.1880   -0.9230 N   0  0  0  0  0  0  0  0  0  0  0  0
    7.5040   -0.1370   -2.0040 C   0  0  0  0  0  0  0  0  0  0  0  0
    8.8860    0.3900   -1.7150 C   0  0  0  0  0  0  0  0  0  0  0  0
    9.1710    0.6050   -0.3330 N   0  0  0  0  0  0  0  0  0  0  0  0
    8.6910   -0.3960    0.5670 C   0  0  0  0  0  0  0  0  0  0  0  0
    2.1200   -0.2910    0.9540 N   0  0  0  0  0  0  0  0  0  0  0  0
   -1.5430   -0.1740    0.4470 N   0  0  0  0  0  0  0  0  0  0  0  0
   -3.9010    0.0120   -1.1190 C   0  0  0  0  0  0  0  0  0  0  0  0
   -5.0690    0.1020   -1.8830 C   0  0  0  0  0  0  0  0  0  0  0  0
   -6.3180    0.0750   -1.3040 C   0  0  0  0  0  0  0  0  0  0  0  0
   -7.3000    0.1900   -2.4150 C   0  0  0  0  0  0  0  0  0  0  0  0
   -6.5530   -0.2750   -3.5220 O   0  0  0  0  0  0  0  0  0  0  0  0
   -5.2790    0.2380   -3.3430 C   0  0  0  0  0  0  0  0  0  0  0  0
  1  2  1  0
  2  3  1  0
  3  4  2  0
  3 29  1  0
  4  5  1  0
  5  6  1  0
  5 27  2  0
  6  7  2  0
  6 26  1  0
  7  8  1  0
  8  9  2  0
  9 10  1  0
 10 11  1  0
 10 26  2  0
 11 12  2  0
 11 25  1  0
 12 13  1  0
 13 14  2  0
 14 15  1  0
 14 25  1  0
 15 16  2  0
 15 20  1  0
 16 17  1  0
 17 18  2  0
 18 19  1  0
 18 24  1  0
 19 20  2  0
 19 21  1  0
 21 22  1  0
 22 23  1  0
 23 24  1  0
 27 28  1  0
 28 29  2  0
 28 32  1  0
 29 30  1  0
 30 31  1  0
 31 32  1  0
M  END
