
     RDKit          3D

 32 37  0  0  0  0  0  0  0  0999 V2000
    2.1200   -0.9320   -1.3330 O   0  0  0  0  0  0  0  0  0  0  0  0
    1.3170   -0.8730   -0.3850 C   0  0  0  0  0  0  0  0  0  0  0  0
    1.7730   -0.6820    1.0430 C   0  0  0  0  0  0  0  0  0  0  0  0
    3.2320   -0.5460    0.9950 N   0  0  0  0  0  0  0  0  0  0  0  0
    3.7850   -0.6470    2.3320 C   0  0  0  0  0  0  0  0  0  0  0  0
    4.9650    0.2010    2.6150 C   0  0  0  0  0  0  0  0  0  0  0  0
    5.7570    0.4860    1.4160 C   0  0  0  0  0  0  0  0  0  0  0  0
    7.1200    0.4730    1.3800 C   0  0  0  0  0  0  0  0  0  0  0  0
    7.8340    0.7720    0.2370 C   0  0  0  0  0  0  0  0  0  0  0  0
    7.1110    1.0950   -0.9070 C   0  0  0  0  0  0  0  0  0  0  0  0
    5.7230    1.1150   -0.8960 C   0  0  0  0  0  0  0  0  0  0  0  0
    5.0750    0.8100    0.2640 C   0  0  0  0  0  0  0  0  0  0  0  0
    3.5770    0.7650    0.4210 C   0  0  0  0  0  0  0  0  0  0  0  0
   -0.0710   -0.9890   -0.6670 N   0  0  0  0  0  0  0  0  0  0  0  0
   -0.6870   -1.1720   -1.9160 C   0  0  0  0  0  0  0  0  0  0  0  0
   -0.0450   -1.2620   -3.1340 C   0  0  0  0  0  0  0  0  0  0  0  0
   -0.7070   -1.4340   -4.3440 C   0  0  0  0  0  0  0  0  0  0  0  0
   -2.0830   -1.5230   -4.3550 C   0  0  0  0  0  0  0  0  0  0  0  0
   -2.7320   -1.4360   -3.1610 C   0  0  0  0  0  0  0  0  0  0  0  0
   -2.0830   -1.2650   -1.9460 C   0  0  0  0  0  0  0  0  0  0  0  0
   -2.8100   -1.1960   -0.6940 C   0  0  0  0  0  0  0  0  0  0  0  0
   -2.6980   -1.9800    0.3870 N   0  0  0  0  0  0  0  0  0  0  0  0
   -3.5160   -1.6020    1.3340 N   0  0  0  0  0  0  0  0  0  0  0  0
   -4.2350   -0.5200    0.9260 C   0  0  0  0  0  0  0  0  0  0  0  0
   -3.7990   -0.2550   -0.3480 C   0  0  0  0  0  0  0  0  0  0  0  0
   -4.3080    0.8570   -1.1410 C   0  0  0  0  0  0  0  0  0  0  0  0
   -5.4090    1.6330   -0.5640 C   0  0  0  0  0  0  0  0  0  0  0  0
   -5.8070    1.3160    0.8090 C   0  0  0  0  0  0  0  0  0  0  0  0
   -6.7450    1.9250    1.6010 C   0  0  0  0  0  0  0  0  0  0  0  0
   -6.8010    1.2910    2.8080 N   0  0  0  0  0  0  0  0  0  0  0  0
   -5.8920    0.2820    2.7640 C   0  0  0  0  0  0  0  0  0  0  0  0
   -5.2720    0.2820    1.5420 C   0  0  0  0  0  0  0  0  0  0  0  0
  1  2  2  0
  2  3  1  0
  2 14  1  0
  3  4  1  0
  4  5  1  0
  4 13  1  0
  5  6  1  0
  6  7  1  0
  7  8  2  0
  7 12  1  0
  8  9  1  0
  9 10  2  0
 10 11  1  0
 11 12  2  0
 12 13  1  0
 14 15  1  0
 15 16  2  0
 15 20  1  0
 16 17  1  0
 17 18  2  0
 18 19  1  0
 19 20  2  0
 20 21  1  0
 21 22  2  0
 21 25  1  0
 22 23  1  0
 23 24  1  0
 24 25  2  0
 24 32  1  0
 25 26  1  0
 26 27  1  0
 27 28  1  0
 28 29  2  0
 28 32  1  0
 29 30  1  0
 30 31  1  0
 31 32  2  0
M  END
