
     RDKit          3D

 32 37  0  0  0  0  0  0  0  0999 V2000
   -0.6070   -2.4520    0.1590 O   0  0  0  0  0  0  0  0  0  0  0  0
   -0.5510   -2.0030    1.3300 C   0  0  0  0  0  0  0  0  0  0  0  0
    0.4040   -2.6010    2.3410 C   0  0  0  0  0  0  0  0  0  0  0  0
    1.1130   -3.6930    1.6480 C   0  0  0  0  0  0  0  0  0  0  0  0
    0.6680   -4.9790    1.9110 C   0  0  0  0  0  0  0  0  0  0  0  0
    1.2410   -6.0040    1.2780 N   0  0  0  0  0  0  0  0  0  0  0  0
    2.2440   -5.7790    0.3910 C   0  0  0  0  0  0  0  0  0  0  0  0
    2.7030   -4.5240    0.1140 C   0  0  0  0  0  0  0  0  0  0  0  0
    2.1240   -3.4290    0.7610 C   0  0  0  0  0  0  0  0  0  0  0  0
    2.6280   -2.0910    0.5160 C   0  0  0  0  0  0  0  0  0  0  0  0
    2.5710   -1.5120   -0.7600 C   0  0  0  0  0  0  0  0  0  0  0  0
    3.0750   -0.2580   -1.0020 C   0  0  0  0  0  0  0  0  0  0  0  0
    3.6610    0.4980   -0.0180 C   0  0  0  0  0  0  0  0  0  0  0  0
    4.1910    1.8440   -0.2870 C   0  0  0  0  0  0  0  0  0  0  0  0
    4.7870    2.6430    0.5770 C   0  0  0  0  0  0  0  0  0  0  0  0
    5.1560    3.8990   -0.1300 C   0  0  0  0  0  0  0  0  0  0  0  0
    4.6750    3.6780   -1.5070 C   0  0  0  0  0  0  0  0  0  0  0  0
    4.1150    2.4770   -1.5890 C   0  0  0  0  0  0  0  0  0  0  0  0
    3.7310   -0.0490    1.2520 C   0  0  0  0  0  0  0  0  0  0  0  0
    3.2190   -1.3180    1.4900 C   0  0  0  0  0  0  0  0  0  0  0  0
   -1.3720   -0.9310    1.7460 N   0  0  0  0  0  0  0  0  0  0  0  0
   -2.3040   -0.2960    0.8960 C   0  0  0  0  0  0  0  0  0  0  0  0
   -3.1140    0.7420    1.2660 N   0  0  0  0  0  0  0  0  0  0  0  0
   -3.8860    1.1190    0.2340 C   0  0  0  0  0  0  0  0  0  0  0  0
   -4.8680    1.9690   -0.2360 C   0  0  0  0  0  0  0  0  0  0  0  0
   -5.0920    1.6290   -1.5530 C   0  0  0  0  0  0  0  0  0  0  0  0
   -4.2930    0.6090   -1.9120 N   0  0  0  0  0  0  0  0  0  0  0  0
   -3.5730    0.3100   -0.8330 C   0  0  0  0  0  0  0  0  0  0  0  0
   -2.6090   -0.5310   -0.3820 N   0  0  0  0  0  0  0  0  0  0  0  0
   -6.1450    2.5170   -2.1030 C   0  0  0  0  0  0  0  0  0  0  0  0
   -6.3000    3.6370   -1.1310 C   0  0  0  0  0  0  0  0  0  0  0  0
   -5.7510    3.0910    0.1500 C   0  0  0  0  0  0  0  0  0  0  0  0
  1  2  2  0
  2  3  1  0
  2 21  1  0
  3  4  1  0
  4  5  2  0
  4  9  1  0
  5  6  1  0
  6  7  2  0
  7  8  1  0
  8  9  2  0
  9 10  1  0
 10 11  2  0
 10 20  1  0
 11 12  1  0
 12 13  2  0
 13 14  1  0
 13 19  1  0
 14 15  2  0
 14 18  1  0
 15 16  1  0
 16 17  1  0
 17 18  2  0
 19 20  2  0
 21 22  1  0
 22 23  2  0
 22 29  1  0
 23 24  1  0
 24 25  1  0
 24 28  2  0
 25 26  2  0
 25 32  1  0
 26 27  1  0
 26 30  1  0
 27 28  1  0
 28 29  1  0
 30 31  1  0
 31 32  1  0
M  END
