
     RDKit          3D

 19 19  0  0  0  0  0  0  0  0999 V2000
    5.4580   -0.9710   -0.1320 C   0  0  0  0  0  0  0  0  0  0  0  0
    4.0290   -0.5800   -0.0670 C   0  0  0  0  0  0  0  0  0  0  0  0
    3.6830    0.6510    0.1800 C   0  0  0  0  0  0  0  0  0  0  0  0
    2.2410    1.0450    0.2460 C   0  0  0  0  0  0  0  0  0  0  0  0
    1.9900    2.2870    0.4960 C   0  0  0  0  0  0  0  0  0  0  0  0
    0.3830    2.9290    0.6110 Cl  0  0  0  0  0  0  0  0  0  0  0  0
    1.2380    0.0220    0.0270 C   0  0  0  0  0  0  0  0  0  0  0  0
   -0.1960    0.3720    0.0840 C   0  0  0  0  0  0  0  0  0  0  0  0
   -0.9890   -0.9440   -0.1920 C   0  0  0  0  0  0  0  0  0  0  0  0
   -2.4670   -0.6560   -0.1480 C   0  0  2  0  0  0  0  0  0  0  0  0
   -3.1880   -1.9500   -0.4200 C   0  0  0  0  0  0  0  0  0  0  0  0
   -2.6870   -2.5160   -2.0300 Cl  0  0  0  0  0  0  0  0  0  0  0  0
   -2.7610    0.3840   -1.1370 C   0  0  0  0  0  0  0  0  0  0  0  0
   -2.4280    0.1960   -2.3360 O   0  0  0  0  0  0  0  0  0  0  0  0
   -3.3940    1.5830   -0.8240 O   0  0  0  0  0  0  0  0  0  0  0  0
   -4.1230    1.6260    0.3880 C   0  0  0  0  0  0  0  0  0  0  0  0
   -3.2930    1.0870    1.3910 O   0  0  0  0  0  0  0  0  0  0  0  0
   -2.7600   -0.1620    1.2390 C   0  0  0  0  0  0  0  0  0  0  0  0
   -2.5190   -0.8830    2.2430 O   0  0  0  0  0  0  0  0  0  0  0  0
  1  2  1  0
  2  3  2  3
  3  4  1  0
  4  5  2  3
  4  7  1  0
  5  6  1  0
  7  8  1  0
  8  9  1  0
 10  9  1  1
 10 11  1  0
 10 13  1  0
 10 18  1  0
 11 12  1  0
 13 14  2  0
 13 15  1  0
 15 16  1  0
 16 17  1  0
 17 18  1  0
 18 19  2  0
M  END
