
     RDKit          3D

 19 19  0  0  0  0  0  0  0  0999 V2000
   -4.5920   -0.7920    0.5890 C   0  0  0  0  0  0  0  0  0  0  0  0
   -3.2840   -0.8400    0.6870 C   0  0  0  0  0  0  0  0  0  0  0  0
   -2.7060   -2.0010    1.1810 O   0  0  0  0  0  0  0  0  0  0  0  0
   -1.3610   -2.2080    1.3460 C   0  0  2  0  0  0  0  0  0  0  0  0
   -0.9560   -3.6660    0.3490 Cl  0  0  0  0  0  0  0  0  0  0  0  0
   -0.9430   -2.5750    3.0480 Cl  0  0  0  0  0  0  0  0  0  0  0  0
   -0.4980   -1.0780    0.9500 C   0  0  0  0  0  0  0  0  0  0  0  0
   -0.9420    0.0580    0.4730 C   0  0  0  0  0  0  0  0  0  0  0  0
   -0.1200    1.1040    0.1070 O   0  0  0  0  0  0  0  0  0  0  0  0
    0.4720    1.3190   -1.1320 C   0  0  0  0  0  0  0  0  0  0  0  0
    1.4120    0.2360   -1.5940 C   0  0  0  0  0  0  0  0  0  0  0  0
    2.5530    0.0390   -0.6910 C   0  0  0  0  0  0  0  0  0  0  0  0
    2.6640    0.7320    0.3330 O   0  0  0  0  0  0  0  0  0  0  0  0
    3.5180   -0.9160   -0.9600 O   0  0  0  0  0  0  0  0  0  0  0  0
    4.6070   -1.0580   -0.0360 C   0  0  0  0  0  0  0  0  0  0  0  0
    5.3330    0.2500    0.0300 C   0  0  0  0  0  0  0  0  0  0  0  0
   -2.4180    0.2550    0.3050 C   0  0  0  0  0  0  0  0  0  0  0  0
   -2.7800    1.3930   -0.1660 C   0  0  0  0  0  0  0  0  0  0  0  0
   -4.1190    1.9030   -0.4480 C   0  0  0  0  0  0  0  0  0  0  0  0
  1  2  2  0
  2  3  1  0
  2 17  1  0
  3  4  1  0
  4  5  1  6
  4  6  1  0
  4  7  1  0
  7  8  2  0
  8  9  1  0
  8 17  1  0
  9 10  1  0
 10 11  1  0
 11 12  1  0
 12 13  2  0
 12 14  1  0
 14 15  1  0
 15 16  1  0
 17 18  2  3
 18 19  1  0
M  END
