
     RDKit          3D

 16 17  0  0  0  0  0  0  0  0999 V2000
    3.6540   -0.5090    1.7300 C   0  0  0  0  0  0  0  0  0  0  0  0
    3.4160   -0.3010    0.2610 C   0  0  1  0  0  0  0  0  0  0  0  0
    2.2810    0.5780   -0.1530 C   0  0  0  0  0  0  0  0  0  0  0  0
    0.9950    0.0780    0.3300 N   0  0  0  0  0  0  0  0  0  0  0  0
   -0.1840    0.7820    0.0320 C   0  0  0  0  0  0  0  0  0  0  0  0
   -0.1030    1.8360   -0.6470 O   0  0  0  0  0  0  0  0  0  0  0  0
   -1.4800    0.4070    0.4360 N   0  0  0  0  0  0  0  0  0  0  0  0
   -2.6800    1.1170    0.1380 C   0  0  2  0  0  0  0  0  0  0  0  0
   -3.7170    1.3310    1.1280 C   0  0  0  0  0  0  0  0  0  0  0  0
   -4.5300    0.1950    0.5510 C   0  0  0  0  0  0  0  0  0  0  0  0
   -3.6360    0.2630   -0.6720 C   0  0  2  0  0  0  0  0  0  0  0  0
   -2.9980   -1.3360   -1.1130 S   0  0  1  0  0  0  0  0  0  0  0  0
   -2.9510   -2.1560    0.1540 O   0  0  0  0  0  0  0  0  0  0  0  0
   -3.9130   -1.9380   -2.1300 O   0  0  0  0  0  0  0  0  0  0  0  0
    4.6990   -0.0450   -0.5370 C   0  0  0  0  0  0  0  0  0  0  0  0
    3.9530   -1.3470   -0.6590 C   0  0  0  0  0  0  0  0  0  0  0  0
  2  1  1  1
  2  3  1  0
  2 15  1  0
  2 16  1  0
  3  4  1  0
  4  5  1  0
  5  6  2  0
  5  7  1  0
  8  7  1  1
  8  9  1  0
  8 11  1  0
  9 10  1  0
 11 10  1  1
 12 11  1  1
 12 13  2  0
 12 14  2  0
 15 16  1  0
M  END
