
     RDKit          3D

 16 16  0  0  0  0  0  0  0  0999 V2000
   -2.9720   -1.7070    1.0210 C   0  0  0  0  0  0  0  0  0  0  0  0
   -1.5560   -1.4950    0.5400 C   0  0  2  0  0  0  0  0  0  0  0  0
   -0.5470   -1.4720    1.6480 C   0  0  0  0  0  0  0  0  0  0  0  0
    0.2290   -0.3470    1.7030 O   0  0  0  0  0  0  0  0  0  0  0  0
    0.9390   -0.0790    0.5260 C   0  0  1  0  0  0  0  0  0  0  0  0
    1.4400    1.3520    0.5560 C   0  0  0  0  0  0  0  0  0  0  0  0
    2.0750   -1.0350    0.4730 C   0  0  0  0  0  0  0  0  0  0  0  0
    2.9780   -0.9530   -0.6990 C   0  0  0  0  0  0  0  0  0  0  0  0
    3.8230    0.6370   -0.8610 S   0  0  0  0  0  0  0  0  0  0  0  0
    4.9550    0.8940    0.4010 O   0  0  0  0  0  0  0  0  0  0  0  0
   -0.0280   -0.1860   -0.6180 C   0  0  0  0  0  0  0  0  0  0  0  0
   -1.3990   -0.2900   -0.2250 N   0  0  0  0  0  0  0  0  0  0  0  0
   -1.9820    0.8600    0.3680 C   0  0  0  0  0  0  0  0  0  0  0  0
   -2.1460    1.9930   -0.5770 C   0  0  0  0  0  0  0  0  0  0  0  0
   -2.7070    3.2240   -0.1580 N   0  0  0  0  0  0  0  0  0  0  0  0
   -1.7940    1.9110   -1.7870 O   0  0  0  0  0  0  0  0  0  0  0  0
  2  1  1  1
  2  3  1  0
  2 12  1  0
  3  4  1  0
  4  5  1  0
  5  6  1  1
  5  7  1  0
  5 11  1  0
  7  8  1  0
  8  9  1  0
  9 10  1  0
 11 12  1  0
 12 13  1  0
 13 14  1  0
 14 15  1  0
 14 16  2  0
M  END
