
     RDKit          3D

 19 20  0  0  0  0  0  0  0  0999 V2000
    2.0860    1.8870    2.7900 Cl  0  0  0  0  0  0  0  0  0  0  0  0
    3.1410    1.1600    1.5820 C   0  0  0  0  0  0  0  0  0  0  0  0
    4.1870    1.7670    1.0900 C   0  0  0  0  0  0  0  0  0  0  0  0
    4.8260    0.8620    0.1100 C   0  0  0  0  0  0  0  0  0  0  0  0
    3.9750   -0.3290    0.1390 C   0  0  0  0  0  0  0  0  0  0  0  0
    2.9950   -0.1650    0.9900 C   0  0  0  0  0  0  0  0  0  0  0  0
    1.9610   -1.0250    1.3370 O   0  0  0  0  0  0  0  0  0  0  0  0
    1.3800   -1.9230    0.4380 C   0  0  0  0  0  0  0  0  0  0  0  0
    0.7680   -1.2030   -0.7500 C   0  0  0  0  0  0  0  0  0  0  0  0
   -0.2250   -0.3130   -0.3540 O   0  0  0  0  0  0  0  0  0  0  0  0
   -0.7160    0.2890   -1.5100 C   0  0  0  0  0  0  0  0  0  0  0  0
   -1.7390    1.2230   -1.2380 O   0  0  0  0  0  0  0  0  0  0  0  0
   -2.9230    0.9100   -0.6200 C   0  0  0  0  0  0  0  0  0  0  0  0
   -3.2210    1.4500    0.5490 C   0  0  0  0  0  0  0  0  0  0  0  0
   -4.4810    1.1640    1.2850 C   0  0  0  0  0  0  0  0  0  0  0  0
   -5.3070    0.2680    0.6080 O   0  0  0  0  0  0  0  0  0  0  0  0
   -5.0060   -0.2960   -0.6020 C   0  0  0  0  0  0  0  0  0  0  0  0
   -3.8850   -0.0090   -1.2040 C   0  0  0  0  0  0  0  0  0  0  0  0
   -3.5630   -0.7690   -2.7550 Cl  0  0  0  0  0  0  0  0  0  0  0  0
  1  2  1  0
  2  3  2  0
  2  6  1  0
  3  4  1  0
  4  5  1  0
  5  6  2  0
  6  7  1  0
  7  8  1  0
  8  9  1  0
  9 10  1  0
 10 11  1  0
 11 12  1  0
 12 13  1  0
 13 14  2  0
 13 18  1  0
 14 15  1  0
 15 16  1  0
 16 17  1  0
 17 18  2  0
 18 19  1  0
M  END
