
     RDKit          3D

 21 24  0  0  0  0  0  0  0  0999 V2000
   -0.4910   -3.4710   -0.3070 O   0  0  0  0  0  0  0  0  0  0  0  0
   -1.2810   -2.5280   -0.2160 C   0  0  0  0  0  0  0  0  0  0  0  0
   -2.7050   -2.5410   -0.2170 N   0  0  0  0  0  0  0  0  0  0  0  0
   -3.1720   -1.2120   -0.0900 C   0  0  0  0  0  0  0  0  0  0  0  0
   -4.4700   -0.7580   -0.0460 C   0  0  0  0  0  0  0  0  0  0  0  0
   -4.7580    0.5790    0.0810 C   0  0  0  0  0  0  0  0  0  0  0  0
   -3.7270    1.4540    0.1650 C   0  0  0  0  0  0  0  0  0  0  0  0
   -2.4060    1.0240    0.1230 C   0  0  0  0  0  0  0  0  0  0  0  0
   -2.1120   -0.3030   -0.0040 C   0  0  0  0  0  0  0  0  0  0  0  0
   -0.9120   -1.1110   -0.0810 C   0  0  0  0  0  0  0  0  0  0  0  0
    0.3410   -0.6510   -0.0370 C   0  0  0  0  0  0  0  0  0  0  0  0
    1.4840   -1.5440   -0.1230 N   0  0  0  0  0  0  0  0  0  0  0  0
    2.6270   -0.7050   -0.0430 C   0  0  0  0  0  0  0  0  0  0  0  0
    3.9950   -1.0100   -0.0730 C   0  0  0  0  0  0  0  0  0  0  0  0
    4.9620   -0.0370    0.0200 C   0  0  0  0  0  0  0  0  0  0  0  0
    4.6190    1.2870    0.1470 C   0  0  0  0  0  0  0  0  0  0  0  0
    3.2780    1.5980    0.1770 C   0  0  0  0  0  0  0  0  0  0  0  0
    2.2960    0.6110    0.0830 C   0  0  0  0  0  0  0  0  0  0  0  0
    0.8180    0.6900    0.0910 C   0  0  0  0  0  0  0  0  0  0  0  0
    0.2290    1.7850    0.1950 N   0  0  0  0  0  0  0  0  0  0  0  0
    0.7350    3.0240    0.3140 O   0  0  0  0  0  0  0  0  0  0  0  0
  1  2  2  0
  2  3  1  0
  2 10  1  0
  3  4  1  0
  4  5  2  0
  4  9  1  0
  5  6  1  0
  6  7  2  0
  7  8  1  0
  8  9  2  0
  9 10  1  0
 10 11  2  3
 11 12  1  0
 11 19  1  0
 12 13  1  0
 13 14  2  0
 13 18  1  0
 14 15  1  0
 15 16  2  0
 16 17  1  0
 17 18  2  0
 18 19  1  0
 19 20  2  3
 20 21  1  0
M  END
