
     RDKit          3D

 16 17  0  0  0  0  0  0  0  0999 V2000
    0.6630   -2.2420    1.4340 N   0  0  0  0  0  0  0  0  0  0  0  0
    1.1800   -0.9570    1.1410 C   0  0  0  0  0  0  0  0  0  0  0  0
    0.6610   -0.2440    0.1880 C   0  0  0  0  0  0  0  0  0  0  0  0
   -0.4430   -0.6430   -0.6490 C   0  0  1  0  0  0  0  0  0  0  0  0
   -0.9380   -2.0290   -0.6150 C   0  0  0  0  0  0  0  0  0  0  0  0
   -1.7740   -2.0840   -1.9260 C   0  0  0  0  0  0  0  0  0  0  0  0
   -2.8690   -0.6580   -1.5250 S   0  0  0  0  0  0  0  0  0  0  0  0
   -1.6580    0.2870   -0.5140 C   0  0  2  0  0  0  0  0  0  0  0  0
   -1.4440    1.5840   -1.0520 N   0  0  0  0  0  0  0  0  0  0  0  0
   -1.5390    2.7310   -0.2300 C   0  0  0  0  0  0  0  0  0  0  0  0
   -1.8190    2.5660    0.9950 O   0  0  0  0  0  0  0  0  0  0  0  0
    1.2860    1.0790   -0.0360 C   0  0  0  0  0  0  0  0  0  0  0  0
    1.3540    1.5950   -1.1800 O   0  0  0  0  0  0  0  0  0  0  0  0
    1.8340    1.7790    1.1470 C   0  0  0  0  0  0  0  0  0  0  0  0
    2.6270    0.8540    2.0360 C   0  0  0  0  0  0  0  0  0  0  0  0
    2.2710   -0.4820    1.9140 O   0  0  0  0  0  0  0  0  0  0  0  0
  1  2  1  0
  2  3  2  0
  2 16  1  0
  4  3  1  1
  3 12  1  0
  4  5  1  0
  4  8  1  0
  5  6  1  0
  6  7  1  0
  7  8  1  0
  8  9  1  6
  9 10  1  0
 10 11  2  0
 12 13  2  0
 12 14  1  0
 14 15  1  0
 15 16  1  0
M  END
