
     RDKit          3D

 16 16  0  0  0  0  0  0  0  0999 V2000
   -2.8410    2.7160   -0.3710 C   0  0  0  0  0  0  0  0  0  0  0  0
   -2.1090    1.4490   -0.7520 C   0  0  1  0  0  0  0  0  0  0  0  0
   -0.7140    1.6430   -0.9750 N   0  0  0  0  0  0  0  0  0  0  0  0
   -0.0190    0.6130   -0.5180 C   0  0  0  0  0  0  0  0  0  0  0  0
    1.7410    0.5740   -0.6560 S   0  0  0  0  0  0  0  0  0  0  0  0
    2.5490   -0.8710   -0.0540 C   0  0  0  0  0  0  0  0  0  0  0  0
    4.0750   -0.6210   -0.2300 C   0  0  0  0  0  0  0  0  0  0  0  0
    4.4520    0.6000    0.5690 C   0  0  0  0  0  0  0  0  0  0  0  0
    3.7280    1.6920    0.0880 O   0  0  0  0  0  0  0  0  0  0  0  0
   -0.8980   -0.3260    0.0350 N   0  0  0  0  0  0  0  0  0  0  0  0
   -0.6760   -1.7100    0.2810 C   0  0  0  0  0  0  0  0  0  0  0  0
   -1.4810   -2.5920   -0.6510 C   0  0  0  0  0  0  0  0  0  0  0  0
   -1.1270   -2.3230   -1.9850 O   0  0  0  0  0  0  0  0  0  0  0  0
   -2.1570    0.4110    0.3160 C   0  0  1  0  0  0  0  0  0  0  0  0
   -1.9740    0.9860    1.7080 C   0  0  0  0  0  0  0  0  0  0  0  0
   -3.2410   -0.4390    0.2420 O   0  0  0  0  0  0  0  0  0  0  0  0
  2  1  1  1
  2  3  1  0
  2 14  1  0
  3  4  2  0
  4  5  1  0
  4 10  1  0
  5  6  1  0
  6  7  1  0
  7  8  1  0
  8  9  1  0
 10 11  1  0
 10 14  1  0
 11 12  1  0
 12 13  1  0
 14 15  1  1
 14 16  1  0
M  END
