
     RDKit          3D

 16 17  0  0  0  0  0  0  0  0999 V2000
    6.1780    0.8120    0.4990 N   0  0  0  0  0  0  0  0  0  0  0  0
    4.7980    0.5670    0.5090 N   0  0  0  0  0  0  0  0  0  0  0  0
    4.2700   -0.3980   -0.3730 C   0  0  0  0  0  0  0  0  0  0  0  0
    5.0170   -0.8210   -1.3060 O   0  0  0  0  0  0  0  0  0  0  0  0
    2.9290   -1.0020   -0.2650 C   0  0  0  0  0  0  0  0  0  0  0  0
    1.7780   -0.0100    0.7120 S   0  0  0  0  0  0  0  0  0  0  0  0
    0.1130   -0.6560    0.4210 C   0  0  2  0  0  0  0  0  0  0  0  0
   -0.2010   -0.5320   -1.0430 C   0  0  0  0  0  0  0  0  0  0  0  0
   -1.5150   -1.2010   -1.3120 C   0  0  0  0  0  0  0  0  0  0  0  0
   -2.4270   -1.1050   -0.2850 O   0  0  0  0  0  0  0  0  0  0  0  0
   -2.2920    0.0170    0.5050 C   0  0  1  0  0  0  0  0  0  0  0  0
   -2.7270    1.2510   -0.2370 C   0  0  0  0  0  0  0  0  0  0  0  0
   -4.2330    1.1150   -0.1820 C   0  0  0  0  0  0  0  0  0  0  0  0
   -4.5570    0.3390    0.9020 O   0  0  0  0  0  0  0  0  0  0  0  0
   -3.4060   -0.0570    1.5460 C   0  0  0  0  0  0  0  0  0  0  0  0
   -0.9480    0.1450    1.1600 C   0  0  0  0  0  0  0  0  0  0  0  0
  1  2  1  0
  2  3  1  0
  3  4  2  0
  3  5  1  0
  5  6  1  0
  7  6  1  6
  7  8  1  0
  7 16  1  0
  8  9  1  0
  9 10  1  0
 10 11  1  0
 11 12  1  6
 11 15  1  0
 11 16  1  0
 12 13  1  0
 13 14  1  0
 14 15  1  0
M  END
