
     RDKit          3D

 15 16  0  0  0  0  0  0  0  0999 V2000
    4.9660    1.1280   -0.4860 C   0  0  0  0  0  0  0  0  0  0  0  0
    3.5380    0.7300   -0.2770 C   0  0  0  0  0  0  0  0  0  0  0  0
    2.5650    1.3860   -0.8040 N   0  0  0  0  0  0  0  0  0  0  0  0
    1.2300    1.0110   -0.6080 N   0  0  0  0  0  0  0  0  0  0  0  0
    0.9650   -0.1200    0.1940 C   0  0  0  0  0  0  0  0  0  0  0  0
   -0.4190   -0.5720    0.4450 C   0  0  0  0  0  0  0  0  0  0  0  0
   -0.6510   -1.5740    1.1550 O   0  0  0  0  0  0  0  0  0  0  0  0
   -1.4970    0.1100   -0.1070 O   0  0  0  0  0  0  0  0  0  0  0  0
   -2.7940   -0.3770    0.1730 C   0  0  1  0  0  0  0  0  0  0  0  0
   -3.7730    0.6840    0.6200 C   0  0  0  0  0  0  0  0  0  0  0  0
   -4.2450    0.7740   -0.8250 C   0  0  0  0  0  0  0  0  0  0  0  0
   -3.5610   -0.5490   -1.1290 C   0  0  0  0  0  0  0  0  0  0  0  0
    1.9330   -0.8210    0.7530 C   0  0  0  0  0  0  0  0  0  0  0  0
    1.7050   -1.9590    1.5620 N   0  0  0  0  0  0  0  0  0  0  0  0
    3.2770   -0.4190    0.5370 N   0  0  0  0  0  0  0  0  0  0  0  0
  1  2  1  0
  2  3  2  0
  2 15  1  0
  3  4  1  0
  4  5  1  0
  5  6  1  0
  5 13  2  0
  6  7  2  0
  6  8  1  0
  9  8  1  6
  9 10  1  0
  9 12  1  0
 10 11  1  0
 11 12  1  0
 13 14  1  0
 13 15  1  0
M  END
