
     RDKit          3D

 16 16  0  0  0  0  0  0  0  0999 V2000
    2.0320    3.7870    2.8200 C   0  0  0  0  0  0  0  0  0  0  0  0
    1.8740    2.4230    2.9300 C   0  0  0  0  0  0  0  0  0  0  0  0
    1.7230    1.2790    3.0290 C   0  0  0  0  0  0  0  0  0  0  0  0
    1.8650    0.2270    2.0840 N   0  0  0  0  0  0  0  0  0  0  0  0
    0.9320   -0.1070    1.1500 C   0  0  0  0  0  0  0  0  0  0  0  0
   -0.1320    0.6630    1.1540 O   0  0  0  0  0  0  0  0  0  0  0  0
    0.8980   -1.1720    0.1700 N   0  0  0  0  0  0  0  0  0  0  0  0
   -0.0850   -1.2880   -0.7220 C   0  0  0  0  0  0  0  0  0  0  0  0
   -1.0350   -2.2230   -0.6590 C   0  0  0  0  0  0  0  0  0  0  0  0
   -2.1510   -2.3350   -1.7950 N   0  0  0  0  0  0  0  0  0  0  0  0
   -2.7380   -1.2130   -2.4020 C   0  0  0  0  0  0  0  0  0  0  0  0
   -3.6980   -1.4190   -3.2160 O   0  0  0  0  0  0  0  0  0  0  0  0
   -2.3850    0.1830   -2.2450 N   0  0  0  0  0  0  0  0  0  0  0  0
   -0.9250    0.4940   -2.4500 C   0  0  0  0  0  0  0  0  0  0  0  0
    0.0230   -0.2180   -1.7340 C   0  0  0  0  0  0  0  0  0  0  0  0
    1.6740    0.1350   -2.3900 Cl  0  0  0  0  0  0  0  0  0  0  0  0
  1  2  3  0
  2  3  1  0
  3  4  1  0
  4  5  1  0
  5  6  2  0
  5  7  1  0
  7  8  1  0
  8  9  2  0
  8 15  1  0
  9 10  1  0
 10 11  1  0
 11 12  2  0
 11 13  1  0
 13 14  1  0
 14 15  2  0
 15 16  1  0
M  END
