
     RDKit          3D

 16 17  0  0  0  0  0  0  0  0999 V2000
   -4.7940    0.4370    0.4440 N   0  0  0  0  0  0  0  0  0  0  0  0
   -3.5200    0.0740   -0.0350 C   0  0  0  0  0  0  0  0  0  0  0  0
   -3.3750   -0.0870   -1.2740 O   0  0  0  0  0  0  0  0  0  0  0  0
   -2.3940   -0.1060    0.9380 C   0  0  0  0  0  0  0  0  0  0  0  0
   -1.1450   -0.4820    0.2660 C   0  0  0  0  0  0  0  0  0  0  0  0
   -0.0370    0.2470    0.3320 C   0  0  0  0  0  0  0  0  0  0  0  0
   -0.1050    1.7270    1.2750 Cl  0  0  0  0  0  0  0  0  0  0  0  0
    1.2280   -0.0910   -0.3210 C   0  0  2  0  0  0  0  0  0  0  0  0
    2.3640   -0.2250    0.6740 C   0  0  0  0  0  0  0  0  0  0  0  0
    3.4860    0.6060    0.1130 C   0  0  0  0  0  0  0  0  0  0  0  0
    2.8390    1.6090   -0.7260 N   0  0  0  0  0  0  0  0  0  0  0  0
    1.6400    1.0270   -1.2090 C   0  0  0  0  0  0  0  0  0  0  0  0
    1.0190    1.4010   -2.2340 O   0  0  0  0  0  0  0  0  0  0  0  0
    1.1570   -1.3210   -1.0610 N   0  0  0  0  0  0  0  0  0  0  0  0
   -0.0280   -2.0820   -1.1190 C   0  0  0  0  0  0  0  0  0  0  0  0
   -1.0650   -1.6750   -0.5030 N   0  0  0  0  0  0  0  0  0  0  0  0
  1  2  1  0
  2  3  2  0
  2  4  1  0
  4  5  1  0
  5  6  2  0
  5 16  1  0
  6  7  1  0
  6  8  1  0
  8  9  1  1
  8 12  1  0
  8 14  1  0
  9 10  1  0
 10 11  1  0
 11 12  1  0
 12 13  2  0
 14 15  1  0
 15 16  2  0
M  END
