
     RDKit          3D

 16 17  0  0  0  0  0  0  0  0999 V2000
   -4.9660    1.3130   -1.9180 O   0  0  0  0  0  0  0  0  0  0  0  0
   -4.1950    0.6960   -1.1260 C   0  0  0  0  0  0  0  0  0  0  0  0
   -4.7640   -0.1490   -0.1480 N   0  0  0  0  0  0  0  0  0  0  0  0
   -3.9120   -0.8540    0.7560 C   0  0  0  0  0  0  0  0  0  0  0  0
   -2.4560   -0.6300    0.5830 C   0  0  0  0  0  0  0  0  0  0  0  0
   -1.4130   -1.5180    1.7200 Cl  0  0  0  0  0  0  0  0  0  0  0  0
   -1.8800    0.1360   -0.3010 C   0  0  0  0  0  0  0  0  0  0  0  0
   -0.4810    0.3800   -0.5020 C   0  0  0  0  0  0  0  0  0  0  0  0
   -0.1380    1.1920   -1.4550 O   0  0  0  0  0  0  0  0  0  0  0  0
    0.6360   -0.1280    0.1830 N   0  0  0  0  0  0  0  0  0  0  0  0
    2.0060    0.2230   -0.1490 C   0  0  2  0  0  0  0  0  0  0  0  0
    2.8620   -0.9820   -0.4260 C   0  0  0  0  0  0  0  0  0  0  0  0
    4.2490   -0.3530   -0.2230 C   0  0  0  0  0  0  0  0  0  0  0  0
    4.0880    0.4210    0.9760 N   0  0  0  0  0  0  0  0  0  0  0  0
    2.6840    0.8040    1.0530 C   0  0  0  0  0  0  0  0  0  0  0  0
   -2.7900    0.8280   -1.1920 N   0  0  0  0  0  0  0  0  0  0  0  0
  1  2  2  0
  2  3  1  0
  2 16  1  0
  3  4  1  0
  4  5  1  0
  5  6  1  0
  5  7  2  0
  7  8  1  0
  7 16  1  0
  8  9  2  0
  8 10  1  0
 11 10  1  1
 11 12  1  0
 11 15  1  0
 12 13  1  0
 13 14  1  0
 14 15  1  0
M  END
