
     RDKit          3D

 16 17  0  0  0  0  0  0  0  0999 V2000
   -2.2190   -2.0300    0.1850 C   0  0  0  0  0  0  0  0  0  0  0  0
   -0.8530   -1.5370   -0.0150 C   0  0  2  0  0  0  0  0  0  0  0  0
   -0.0150   -1.8470    1.1430 N   0  0  0  0  0  0  0  0  0  0  0  0
    1.2940   -1.3450    1.1500 C   0  0  0  0  0  0  0  0  0  0  0  0
    2.1830   -1.8750    1.8420 O   0  0  0  0  0  0  0  0  0  0  0  0
    1.6470   -0.1600    0.3220 C   0  0  0  0  0  0  0  0  0  0  0  0
    0.6770    0.3720   -0.3950 C   0  0  0  0  0  0  0  0  0  0  0  0
    1.0010    1.5010   -1.1850 N   0  0  0  0  0  0  0  0  0  0  0  0
    2.3030    2.0610   -1.2170 C   0  0  0  0  0  0  0  0  0  0  0  0
    2.5890    3.0660   -1.9240 O   0  0  0  0  0  0  0  0  0  0  0  0
    3.3080    1.4640   -0.4260 N   0  0  0  0  0  0  0  0  0  0  0  0
    3.0500    0.2940    0.3470 C   0  0  0  0  0  0  0  0  0  0  0  0
   -0.6700   -0.1550   -0.3750 N   0  0  0  0  0  0  0  0  0  0  0  0
   -1.7740    0.6950   -0.6730 C   0  0  0  0  0  0  0  0  0  0  0  0
   -2.6090    1.0700    0.5460 C   0  0  0  0  0  0  0  0  0  0  0  0
   -3.9460    2.1110   -0.0350 Cl  0  0  0  0  0  0  0  0  0  0  0  0
  2  1  1  1
  2  3  1  0
  2 13  1  0
  3  4  1  0
  4  5  2  0
  4  6  1  0
  6  7  2  0
  6 12  1  0
  7  8  1  0
  7 13  1  0
  8  9  1  0
  9 10  2  0
  9 11  1  0
 11 12  1  0
 13 14  1  0
 14 15  1  0
 15 16  1  0
M  END
