
     RDKit          3D

 16 16  0  0  0  0  0  0  0  0999 V2000
    1.1770   -0.5070   -2.1080 C   0  0  0  0  0  0  0  0  0  0  0  0
    1.2930   -0.1330   -0.6830 C   0  0  0  0  0  0  0  0  0  0  0  0
    0.1400   -0.1930    0.1090 C   0  0  0  0  0  0  0  0  0  0  0  0
   -1.0680   -0.6090   -0.5120 N   0  0  0  0  0  0  0  0  0  0  0  0
   -2.2890   -0.7040    0.1970 C   0  0  0  0  0  0  0  0  0  0  0  0
   -2.5010   -1.7460    0.9640 C   0  0  0  0  0  0  0  0  0  0  0  0
   -1.3140   -3.0060    1.1230 Cl  0  0  0  0  0  0  0  0  0  0  0  0
   -3.3270    0.3420    0.0730 C   0  0  0  0  0  0  0  0  0  0  0  0
   -2.9240    1.6490    0.4780 N   0  0  0  0  0  0  0  0  0  0  0  0
    0.1960    0.1450    1.4440 C   0  0  0  0  0  0  0  0  0  0  0  0
   -0.8240    0.1000    2.1790 O   0  0  0  0  0  0  0  0  0  0  0  0
    1.3980    0.5290    1.9410 N   0  0  0  0  0  0  0  0  0  0  0  0
    2.4940    0.5820    1.1720 C   0  0  0  0  0  0  0  0  0  0  0  0
    3.5860    0.9490    1.6940 O   0  0  0  0  0  0  0  0  0  0  0  0
    2.4410    0.2550   -0.1240 N   0  0  0  0  0  0  0  0  0  0  0  0
    3.6320    0.3160   -0.9430 C   0  0  0  0  0  0  0  0  0  0  0  0
  1  2  1  0
  2  3  2  0
  2 15  1  0
  3  4  1  0
  3 10  1  0
  4  5  1  0
  5  6  2  3
  5  8  1  0
  6  7  1  0
  8  9  1  0
 10 11  2  0
 10 12  1  0
 12 13  1  0
 13 14  2  0
 13 15  1  0
 15 16  1  0
M  END
