
     RDKit          3D

 16 17  0  0  0  0  0  0  0  0999 V2000
    3.0430   -1.4910    0.7950 C   0  0  0  0  0  0  0  0  0  0  0  0
    2.8800   -0.1800    0.2040 N   0  0  0  0  0  0  0  0  0  0  0  0
    1.6120    0.3110   -0.2490 C   0  0  0  0  0  0  0  0  0  0  0  0
    1.6120    1.3500   -1.0440 C   0  0  0  0  0  0  0  0  0  0  0  0
    3.1450    2.0930   -1.5180 Cl  0  0  0  0  0  0  0  0  0  0  0  0
    0.3220    1.9050   -1.5490 C   0  0  0  0  0  0  0  0  0  0  0  0
   -0.6920    1.7490   -0.4740 C   0  0  0  0  0  0  0  0  0  0  0  0
   -0.8650    0.3370    0.0050 C   0  0  2  0  0  0  0  0  0  0  0  0
    0.4110   -0.4010    0.2210 C   0  0  0  0  0  0  0  0  0  0  0  0
   -1.6670   -0.3720   -0.9890 N   0  0  0  0  0  0  0  0  0  0  0  0
   -2.5580   -1.4140   -0.6370 C   0  0  0  0  0  0  0  0  0  0  0  0
   -2.9790   -2.2360   -1.4920 O   0  0  0  0  0  0  0  0  0  0  0  0
   -2.9780   -1.5260    0.7040 N   0  0  0  0  0  0  0  0  0  0  0  0
   -2.5320   -0.6330    1.6750 N   0  0  0  0  0  0  0  0  0  0  0  0
   -1.6380    0.3970    1.2740 C   0  0  0  0  0  0  0  0  0  0  0  0
   -1.5080    1.3920    2.0340 O   0  0  0  0  0  0  0  0  0  0  0  0
  1  2  1  0
  2  3  1  0
  3  4  2  0
  3  9  1  0
  4  5  1  0
  4  6  1  0
  6  7  1  0
  8  7  1  6
  8  9  1  0
  8 10  1  0
  8 15  1  0
 10 11  1  0
 11 12  2  0
 11 13  1  0
 13 14  1  0
 14 15  1  0
 15 16  2  0
M  END
