
     RDKit          3D

 16 17  0  0  0  0  0  0  0  0999 V2000
   -2.2430   -1.9620    1.1600 C   0  0  0  0  0  0  0  0  0  0  0  0
   -1.2930   -1.5790    0.3210 C   0  0  0  0  0  0  0  0  0  0  0  0
   -0.5260   -2.5100   -0.5370 C   0  0  0  0  0  0  0  0  0  0  0  0
    0.1060   -1.5950   -1.5520 C   0  0  0  0  0  0  0  0  0  0  0  0
    0.4090   -0.3630   -0.7200 C   0  0  1  0  0  0  0  0  0  0  0  0
    1.6120   -0.6580    0.1150 C   0  0  0  0  0  0  0  0  0  0  0  0
    2.0160    0.5060    0.9940 C   0  0  0  0  0  0  0  0  0  0  0  0
    2.3180    1.6160    0.2320 O   0  0  0  0  0  0  0  0  0  0  0  0
    2.7700    2.9290    1.1660 Cl  0  0  0  0  0  0  0  0  0  0  0  0
    0.5900    0.8110   -1.5820 C   0  0  0  0  0  0  0  0  0  0  0  0
    1.2150    0.7090   -2.6660 O   0  0  0  0  0  0  0  0  0  0  0  0
    0.0530    2.0930   -1.1950 N   0  0  0  0  0  0  0  0  0  0  0  0
   -0.8370    2.1800   -0.2570 C   0  0  0  0  0  0  0  0  0  0  0  0
   -1.3490    3.4550    0.1050 N   0  0  0  0  0  0  0  0  0  0  0  0
   -1.2960    0.9840    0.4000 N   0  0  0  0  0  0  0  0  0  0  0  0
   -0.8130   -0.2710    0.0610 N   0  0  0  0  0  0  0  0  0  0  0  0
  1  2  2  0
  2  3  1  0
  2 16  1  0
  3  4  1  0
  4  5  1  0
  5  6  1  1
  5 10  1  0
  5 16  1  0
  6  7  1  0
  7  8  1  0
  8  9  1  0
 10 11  2  0
 10 12  1  0
 12 13  2  0
 13 14  1  0
 13 15  1  0
 15 16  1  0
M  END
