
     RDKit          3D

 21 23  0  0  0  0  0  0  0  0999 V2000
    6.5110   -0.0900    0.1820 C   0  0  0  0  0  0  0  0  0  0  0  0
    5.1440    0.4290    0.0220 C   0  0  0  0  0  0  0  0  0  0  0  0
    4.1690   -0.4200    0.2510 C   0  0  0  0  0  0  0  0  0  0  0  0
    2.7410   -0.2410    0.1500 C   0  0  0  0  0  0  0  0  0  0  0  0
    2.0320   -1.2560    0.7500 N   0  0  0  0  0  0  0  0  0  0  0  0
    0.6910   -1.2390    0.7640 C   0  0  0  0  0  0  0  0  0  0  0  0
   -0.0570   -2.3850    1.3350 C   0  0  0  0  0  0  0  0  0  0  0  0
   -0.0120   -0.1930    0.1430 C   0  0  0  0  0  0  0  0  0  0  0  0
   -1.4090   -0.1010    0.5520 C   0  0  0  0  0  0  0  0  0  0  0  0
   -2.4220   -0.1540   -0.4590 N   0  0  0  0  0  0  0  0  0  0  0  0
   -3.6870   -0.0530    0.2540 C   0  0  1  0  0  0  0  0  0  0  0  0
   -4.7610    0.4870   -0.7010 C   0  0  0  0  0  0  0  0  0  0  0  0
   -5.9920    0.0740    0.1050 C   0  0  0  0  0  0  0  0  0  0  0  0
   -5.6940   -1.2200    0.4910 O   0  0  0  0  0  0  0  0  0  0  0  0
   -4.3170   -1.3290    0.6720 C   0  0  0  0  0  0  0  0  0  0  0  0
    0.6930    0.7670   -0.4850 C   0  0  0  0  0  0  0  0  0  0  0  0
    0.0120    1.7190   -1.3720 C   0  0  0  0  0  0  0  0  0  0  0  0
    2.0800    0.8150   -0.4870 C   0  0  0  0  0  0  0  0  0  0  0  0
    2.6700    2.0430   -0.9730 C   0  0  0  0  0  0  0  0  0  0  0  0
    3.9420    2.4600   -0.9310 C   0  0  0  0  0  0  0  0  0  0  0  0
    4.9800    1.7570   -0.3650 O   0  0  0  0  0  0  0  0  0  0  0  0
  1  2  1  0
  2  3  2  0
  2 21  1  0
  3  4  1  0
  4  5  2  0
  4 18  1  0
  5  6  1  0
  6  7  1  0
  6  8  2  0
  8  9  1  0
  8 16  1  0
  9 10  1  0
 11 10  1  6
 11 12  1  0
 11 15  1  0
 12 13  1  0
 13 14  1  0
 14 15  1  0
 16 17  1  0
 16 18  2  0
 18 19  1  0
 19 20  2  0
 20 21  1  0
M  CHG  1   5   1
M  END
