
     RDKit          3D

 21 23  0  0  0  0  0  0  0  0999 V2000
   -3.4410   -1.3630   -1.4850 C   0  0  0  0  0  0  0  0  0  0  0  0
   -2.6310   -0.1840   -1.2580 N   0  0  0  0  0  0  0  0  0  0  0  0
   -1.9050   -0.1790   -0.0580 C   0  0  2  0  0  0  0  0  0  0  0  0
   -1.0230    1.0530    0.0370 C   0  0  0  0  0  0  0  0  0  0  0  0
    0.1860    1.1990   -0.4870 C   0  0  0  0  0  0  0  0  0  0  0  0
    1.0000    2.2850    0.0120 C   0  0  0  0  0  0  0  0  0  0  0  0
    2.3260    2.5000   -0.1610 C   0  0  0  0  0  0  0  0  0  0  0  0
    3.2670    1.6560   -0.9070 C   0  0  0  0  0  0  0  0  0  0  0  0
    3.5450    0.3950   -0.7660 C   0  0  0  0  0  0  0  0  0  0  0  0
    3.2000   -0.7540    0.0350 C   0  0  0  0  0  0  0  0  0  0  0  0
    4.3380   -1.3200    0.5590 O   0  0  0  0  0  0  0  0  0  0  0  0
    1.9130   -1.3010    0.2980 N   0  0  0  0  0  0  0  0  0  0  0  0
    1.1440   -1.3300    1.5180 C   0  0  0  0  0  0  0  0  0  0  0  0
   -0.2940   -1.0150    1.4930 C   0  0  0  0  0  0  0  0  0  0  0  0
   -1.1080   -1.4370    0.3030 C   0  0  2  0  0  0  0  0  0  0  0  0
   -0.2830   -1.9310   -0.8240 C   0  0  0  0  0  0  0  0  0  0  0  0
    1.1580   -2.0240   -0.7790 C   0  0  0  0  0  0  0  0  0  0  0  0
    0.4120    3.1890    1.0380 C   0  0  0  0  0  0  0  0  0  0  0  0
    1.0860    4.1760    1.5100 O   0  0  0  0  0  0  0  0  0  0  0  0
   -0.9280    3.0160    1.5550 C   0  0  0  0  0  0  0  0  0  0  0  0
   -1.5730    1.9730    1.0470 C   0  0  0  0  0  0  0  0  0  0  0  0
  1  2  1  0
  3  2  1  6
  3  4  1  0
  3 15  1  0
  4  5  2  0
  4 21  1  0
  5  6  1  0
  6  7  2  0
  6 18  1  0
  7  8  1  0
  8  9  2  0
  9 10  1  0
 10 11  2  0
 10 12  1  0
 12 13  1  0
 12 17  1  0
 13 14  1  0
 14 15  1  0
 15 16  1  6
 16 17  1  0
 18 19  2  0
 18 20  1  0
 20 21  2  0
M  CHG  1   2   1
M  END
