
     RDKit          3D

 21 24  0  0  0  0  0  0  0  0999 V2000
   -2.2820    3.4610    0.5710 C   0  0  0  0  0  0  0  0  0  0  0  0
   -1.9310    2.0130    0.6260 C   0  0  1  0  0  0  0  0  0  0  0  0
   -2.7410    1.1700   -0.3450 C   0  0  0  0  0  0  0  0  0  0  0  0
   -2.5900   -0.1960    0.0280 N   0  0  1  0  0  0  0  0  0  0  0  0
   -3.1930   -1.0020   -1.0460 C   0  0  1  0  0  0  0  0  0  0  0  0
   -3.9570   -2.2320   -0.6660 C   0  0  0  0  0  0  0  0  0  0  0  0
   -4.6380   -1.0380   -1.2410 C   0  0  0  0  0  0  0  0  0  0  0  0
   -1.2880   -0.6570    0.2930 C   0  0  0  0  0  0  0  0  0  0  0  0
   -0.2200    0.3150    0.5670 C   0  0  1  0  0  0  0  0  0  0  0  0
    0.2370    0.2780    2.0340 C   0  0  0  0  0  0  0  0  0  0  0  0
    1.4890    0.8630    1.9380 O   0  0  0  0  0  0  0  0  0  0  0  0
    2.1320    0.1450    0.9460 C   0  0  1  0  0  0  0  0  0  0  0  0
    2.6760   -1.1250    1.5690 C   0  0  0  0  0  0  0  0  0  0  0  0
    3.4090   -1.9820    0.5430 C   0  0  0  0  0  0  0  0  0  0  0  0
    4.5590   -1.2560   -0.0570 C   0  0  0  0  0  0  0  0  0  0  0  0
    4.5300   -0.4700   -1.1830 C   0  0  0  0  0  0  0  0  0  0  0  0
    5.8050    0.0040   -1.3800 C   0  0  0  0  0  0  0  0  0  0  0  0
    6.5400   -0.4850   -0.4140 O   0  0  0  0  0  0  0  0  0  0  0  0
    5.8370   -1.2180    0.3640 N   0  0  0  0  0  0  0  0  0  0  0  0
    1.0920   -0.0880   -0.0910 C   0  0  0  0  0  0  0  0  0  0  0  0
   -0.4930    1.7330    0.2360 C   0  0  0  0  0  0  0  0  0  0  0  0
  2  1  1  6
  2  3  1  0
  2 21  1  0
  4  3  1  6
  4  5  1  0
  4  8  1  0
  5  6  1  1
  5  7  1  0
  6  7  1  0
  9  8  1  1
  9 10  1  0
  9 20  1  0
  9 21  1  0
 10 11  1  0
 11 12  1  0
 12 13  1  1
 12 20  1  0
 13 14  1  0
 14 15  1  0
 15 16  1  0
 15 19  2  0
 16 17  2  0
 17 18  1  0
 18 19  1  0
M  CHG  1   4   1
M  END
