
     RDKit          3D

 21 23  0  0  0  0  0  0  0  0999 V2000
    5.4270    0.1110    1.6190 C   0  0  0  0  0  0  0  0  0  0  0  0
    4.0150   -0.4770    1.5730 C   0  0  0  0  0  0  0  0  0  0  0  0
    3.5070   -0.2700    0.2520 N   0  0  1  0  0  0  0  0  0  0  0  0
    2.4970   -1.2440   -0.1350 C   0  0  0  0  0  0  0  0  0  0  0  0
    1.6120   -0.5970   -1.1960 C   0  0  2  0  0  0  0  0  0  0  0  0
    2.5620    0.1760   -2.0950 C   0  0  0  0  0  0  0  0  0  0  0  0
    2.9840    1.4320   -1.3280 C   0  0  0  0  0  0  0  0  0  0  0  0
    2.9590    1.0800    0.1460 C   0  0  1  0  0  0  0  0  0  0  0  0
    1.5180    0.9870    0.6400 C   0  0  0  0  0  0  0  0  0  0  0  0
    0.7330    0.3970   -0.5000 C   0  0  2  0  0  0  0  0  0  0  0  0
   -0.5380   -0.1570   -0.0790 N   0  0  0  0  0  0  0  0  0  0  0  0
   -1.7840    0.3030   -0.5390 C   0  0  0  0  0  0  0  0  0  0  0  0
   -1.6850    1.2760   -1.3810 O   0  0  0  0  0  0  0  0  0  0  0  0
   -3.0950   -0.1910   -0.1730 C   0  0  0  0  0  0  0  0  0  0  0  0
   -3.5130   -1.1910    0.6520 C   0  0  0  0  0  0  0  0  0  0  0  0
   -2.6300   -2.0980    1.4430 C   0  0  0  0  0  0  0  0  0  0  0  0
   -4.8430   -1.2440    0.6500 O   0  0  0  0  0  0  0  0  0  0  0  0
   -5.3440   -0.3320   -0.1320 C   0  0  0  0  0  0  0  0  0  0  0  0
   -6.8020   -0.0950   -0.3820 C   0  0  0  0  0  0  0  0  0  0  0  0
   -4.2830    0.3540   -0.6720 C   0  0  0  0  0  0  0  0  0  0  0  0
   -4.4210    1.4820   -1.6230 C   0  0  0  0  0  0  0  0  0  0  0  0
  1  2  1  0
  3  2  1  1
  3  4  1  0
  3  8  1  0
  4  5  1  0
  5  6  1  6
  5 10  1  0
  6  7  1  0
  8  7  1  6
  8  9  1  0
  9 10  1  0
 10 11  1  1
 11 12  1  0
 12 13  2  0
 12 14  1  0
 14 15  2  0
 14 20  1  0
 15 16  1  0
 15 17  1  0
 17 18  1  0
 18 19  1  0
 18 20  2  0
 20 21  1  0
M  CHG  1   3   1
M  END
