
     RDKit          3D

 21 23  0  0  0  0  0  0  0  0999 V2000
   -6.1510    0.5340    0.4710 C   0  0  0  0  0  0  0  0  0  0  0  0
   -4.7320    0.7460    0.0530 C   0  0  2  0  0  0  0  0  0  0  0  0
   -4.3370   -0.2960   -0.9870 C   0  0  0  0  0  0  0  0  0  0  0  0
   -3.0390    0.1660   -1.5940 C   0  0  0  0  0  0  0  0  0  0  0  0
   -2.1780    0.9210   -0.6240 C   0  0  0  0  0  0  0  0  0  0  0  0
   -2.3540    0.4980    0.7990 C   0  0  2  0  0  0  0  0  0  0  0  0
   -1.8370   -0.7790    1.1270 N   0  0  0  0  0  0  0  0  0  0  0  0
   -0.5700   -1.1060    0.5120 C   0  0  0  0  0  0  0  0  0  0  0  0
    0.5500   -0.3370    1.1090 C   0  0  0  0  0  0  0  0  0  0  0  0
    0.2880    0.4810    2.0420 O   0  0  0  0  0  0  0  0  0  0  0  0
    1.8920   -0.4920    0.6690 N   0  0  0  0  0  0  0  0  0  0  0  0
    2.1790   -1.4260   -0.3920 C   0  0  0  0  0  0  0  0  0  0  0  0
    3.3840   -1.0800   -1.2050 C   0  0  1  0  0  0  0  0  0  0  0  0
    3.0750    0.1640   -2.0310 C   0  0  0  0  0  0  0  0  0  0  0  0
    3.0510    1.2390   -0.9450 C   0  0  0  0  0  0  0  0  0  0  0  0
    3.8860    0.7240    0.1900 C   0  0  1  0  0  0  0  0  0  0  0  0
    4.9300    1.7000    0.6460 C   0  0  0  0  0  0  0  0  0  0  0  0
    2.9600    0.2980    1.3010 C   0  0  0  0  0  0  0  0  0  0  0  0
    4.5200   -0.5680   -0.3400 C   0  0  1  0  0  0  0  0  0  0  0  0
    4.8110   -1.4080    0.7130 O   0  0  0  0  0  0  0  0  0  0  0  0
   -3.8100    0.5480    1.2370 C   0  0  0  0  0  0  0  0  0  0  0  0
  2  1  1  1
  2  3  1  0
  2 21  1  0
  3  4  1  0
  4  5  1  0
  5  6  1  0
  6  7  1  6
  6 21  1  0
  7  8  1  0
  8  9  1  0
  9 10  2  0
  9 11  1  0
 11 12  1  0
 11 18  1  0
 13 12  1  1
 13 14  1  0
 13 19  1  0
 14 15  1  0
 15 16  1  0
 16 17  1  1
 16 18  1  0
 16 19  1  0
 19 20  1  1
M  CHG  1   7   1
M  END
