
     RDKit          3D

 21 23  0  0  0  0  0  0  0  0999 V2000
   -3.7870    1.9110   -1.8820 C   0  0  0  0  0  0  0  0  0  0  0  0
   -4.2650    0.8580   -1.0020 N   0  0  0  0  0  0  0  0  0  0  0  0
   -5.4390    0.8640   -0.3440 C   0  0  0  0  0  0  0  0  0  0  0  0
   -5.5270   -0.2720    0.3640 N   0  0  0  0  0  0  0  0  0  0  0  0
   -4.3910   -0.9820    0.1340 C   0  0  0  0  0  0  0  0  0  0  0  0
   -3.5790   -0.2780   -0.7310 C   0  0  0  0  0  0  0  0  0  0  0  0
   -2.2670   -0.7340   -1.2080 C   0  0  2  0  0  0  0  0  0  0  0  0
   -2.2690   -2.0720   -1.6000 O   0  0  0  0  0  0  0  0  0  0  0  0
   -1.1950   -0.5290   -0.1710 C   0  0  1  0  0  0  0  0  0  0  0  0
   -1.4490   -1.2620    1.1030 C   0  0  0  0  0  0  0  0  0  0  0  0
   -0.1900   -1.1430    1.9530 C   0  0  0  0  0  0  0  0  0  0  0  0
    0.6100   -0.0840    1.5270 O   0  0  0  0  0  0  0  0  0  0  0  0
    1.1970   -0.3700    0.2760 C   0  0  1  0  0  0  0  0  0  0  0  0
    1.6460    0.9450   -0.2970 C   0  0  0  0  0  0  0  0  0  0  0  0
    2.4460    1.7590    0.6870 C   0  0  0  0  0  0  0  0  0  0  0  0
    3.7700    2.2180    0.1170 C   0  0  0  0  0  0  0  0  0  0  0  0
    4.5480    1.1100   -0.5260 C   0  0  0  0  0  0  0  0  0  0  0  0
    4.5030   -0.1820    0.2450 C   0  0  0  0  0  0  0  0  0  0  0  0
    3.5050   -1.1600   -0.3380 C   0  0  0  0  0  0  0  0  0  0  0  0
    2.2990   -1.3400    0.5150 C   0  0  0  0  0  0  0  0  0  0  0  0
    0.1690   -0.9530   -0.6740 C   0  0  0  0  0  0  0  0  0  0  0  0
  1  2  1  0
  2  3  1  0
  2  6  1  0
  3  4  2  0
  4  5  1  0
  5  6  2  0
  6  7  1  0
  7  8  1  1
  7  9  1  0
  9 10  1  1
  9 21  1  0
 10 11  1  0
 11 12  1  0
 12 13  1  0
 13 14  1  6
 13 20  1  0
 13 21  1  0
 14 15  1  0
 15 16  1  0
 16 17  1  0
 17 18  1  0
 18 19  1  0
 19 20  1  0
M  CHG  1   4   1
M  END
