
     RDKit          3D

 21 23  0  0  0  0  0  0  0  0999 V2000
   -4.6210    0.1200    0.3560 C   0  0  0  0  0  0  0  0  0  0  0  0
   -3.3770    0.1620   -0.0550 C   0  0  0  0  0  0  0  0  0  0  0  0
   -2.9590   -0.1910   -1.3930 N   0  0  0  0  0  0  0  0  0  0  0  0
   -1.5160   -0.1010   -1.3960 C   0  0  0  0  0  0  0  0  0  0  0  0
   -1.1080   -0.2650    0.0520 C   0  0  1  0  0  0  0  0  0  0  0  0
   -1.3740   -1.6890    0.4380 C   0  0  0  0  0  0  0  0  0  0  0  0
   -0.2920   -2.5590   -0.1680 C   0  0  0  0  0  0  0  0  0  0  0  0
    1.0540   -2.0260    0.1310 C   0  0  0  0  0  0  0  0  0  0  0  0
    2.0490   -2.7840    0.0220 O   0  0  0  0  0  0  0  0  0  0  0  0
    1.2920   -0.6850    0.5420 N   0  0  0  0  0  0  0  0  0  0  0  0
    2.5480   -0.2680    1.1290 C   0  0  0  0  0  0  0  0  0  0  0  0
    3.5180    0.1910    0.1020 C   0  0  0  0  0  0  0  0  0  0  0  0
    3.3470    0.2470   -1.2070 C   0  0  0  0  0  0  0  0  0  0  0  0
    4.5750    0.7640   -1.8170 C   0  0  0  0  0  0  0  0  0  0  0  0
    5.4760    0.9950   -0.6590 C   0  0  0  0  0  0  0  0  0  0  0  0
    4.8540    0.6590    0.4600 C   0  0  0  0  0  0  0  0  0  0  0  0
    0.2250    0.2320    0.3460 C   0  0  0  0  0  0  0  0  0  0  0  0
    0.4270    1.4680    0.4260 O   0  0  0  0  0  0  0  0  0  0  0  0
   -2.1960    0.5500    0.7030 C   0  0  0  0  0  0  0  0  0  0  0  0
   -2.1200    1.3940    1.6820 C   0  0  0  0  0  0  0  0  0  0  0  0
   -3.2460    2.1640    2.2540 C   0  0  0  0  0  0  0  0  0  0  0  0
  1  2  2  0
  2  3  1  0
  2 19  1  0
  3  4  1  0
  5  4  1  6
  5  6  1  0
  5 17  1  0
  5 19  1  0
  6  7  1  0
  7  8  1  0
  8  9  2  0
  8 10  1  0
 10 11  1  0
 10 17  1  0
 11 12  1  0
 12 13  2  0
 12 16  1  0
 13 14  1  0
 14 15  1  0
 15 16  2  0
 17 18  2  0
 19 20  2  3
 20 21  1  0
M  CHG  1   3   1
M  END
