
     RDKit          3D

  9  9  0  0  0  0  0  0  0  0999 V2000
   -0.3930   -2.6300   -0.0540 O   0  0  0  0  0  0  0  0  0  0  0  0
   -0.2270   -1.3870   -0.0280 C   0  0  0  0  0  0  0  0  0  0  0  0
   -1.2620   -0.5210   -0.0110 N   0  0  0  0  0  0  0  0  0  0  0  0
   -1.0840    0.7980    0.0160 C   0  0  0  0  0  0  0  0  0  0  0  0
    0.1900    1.3430    0.0270 C   0  0  0  0  0  0  0  0  0  0  0  0
    0.3940    2.6930    0.0550 F   0  0  0  0  0  0  0  0  0  0  0  0
    1.2540    0.4630    0.0100 C   0  0  0  0  0  0  0  0  0  0  0  0
    2.4110    0.9610    0.0200 O   0  0  0  0  0  0  0  0  0  0  0  0
    1.0180   -0.8540   -0.0170 N   0  0  0  0  0  0  0  0  0  0  0  0
  1  2  2  0
  2  3  1  0
  2  9  1  0
  3  4  1  0
  4  5  2  0
  5  6  1  0
  5  7  1  0
  7  8  2  0
  7  9  1  0
M  END
