
     RDKit          3D

 21 23  0  0  0  0  0  0  0  0999 V2000
   -0.0230    1.3470    1.5410 C   0  0  0  0  0  0  0  0  0  0  0  0
    0.0850    0.1850    0.5930 C   0  0  1  0  0  0  0  0  0  0  0  0
    1.2810   -0.5640    0.9140 N   0  0  0  0  0  0  0  0  0  0  0  0
    2.1580   -0.7680   -0.2340 C   0  0  0  0  0  0  0  0  0  0  0  0
    3.4350   -0.0060   -0.1140 C   0  0  0  0  0  0  0  0  0  0  0  0
    4.6150   -0.5820   -0.1050 C   0  0  0  0  0  0  0  0  0  0  0  0
    5.8360    0.2410    0.0180 C   0  0  0  0  0  0  0  0  0  0  0  0
    5.6400    1.6010    0.1330 O   0  0  0  0  0  0  0  0  0  0  0  0
    4.4070    2.1960    0.1230 C   0  0  0  0  0  0  0  0  0  0  0  0
    3.3340    1.4310    0.0040 C   0  0  0  0  0  0  0  0  0  0  0  0
   -1.1400   -0.6050    0.3970 C   0  0  1  0  0  0  0  0  0  0  0  0
   -2.1910    0.1650   -0.1410 N   0  0  0  0  0  0  0  0  0  0  0  0
   -2.7910    1.2020    0.5570 C   0  0  0  0  0  0  0  0  0  0  0  0
   -4.2010    1.5350    0.0080 C   0  0  0  0  0  0  0  0  0  0  0  0
   -4.1860    1.6110   -1.3580 O   0  0  0  0  0  0  0  0  0  0  0  0
   -2.9120    1.6450   -1.8930 C   0  0  0  0  0  0  0  0  0  0  0  0
   -2.1260    0.4090   -1.5420 C   0  0  0  0  0  0  0  0  0  0  0  0
   -0.8280   -1.7510   -0.5700 C   0  0  0  0  0  0  0  0  0  0  0  0
   -1.9530   -2.7190   -0.4130 C   0  0  0  0  0  0  0  0  0  0  0  0
   -2.1660   -2.7070    1.0780 C   0  0  0  0  0  0  0  0  0  0  0  0
   -1.5620   -1.4220    1.6050 C   0  0  0  0  0  0  0  0  0  0  0  0
  2  1  1  1
  2  3  1  0
  2 11  1  0
  3  4  1  0
  4  5  1  0
  5  6  2  0
  5 10  1  0
  6  7  1  0
  7  8  1  0
  8  9  1  0
  9 10  2  0
 11 12  1  6
 11 18  1  0
 11 21  1  0
 12 13  1  0
 12 17  1  0
 13 14  1  0
 14 15  1  0
 15 16  1  0
 16 17  1  0
 18 19  1  0
 19 20  1  0
 20 21  1  0
M  CHG  1   3   1
M  END
