
     RDKit          3D

 21 23  0  0  0  0  0  0  0  0999 V2000
    0.9040   -1.6960   -1.0460 C   0  0  0  0  0  0  0  0  0  0  0  0
    1.0570   -0.9450    0.2540 C   0  0  2  0  0  0  0  0  0  0  0  0
   -0.2020   -0.5990    0.8470 N   0  0  0  0  0  0  0  0  0  0  0  0
   -1.1680   -0.0270   -0.0320 C   0  0  2  0  0  0  0  0  0  0  0  0
   -1.7760    1.2630    0.5120 C   0  0  0  0  0  0  0  0  0  0  0  0
   -3.1470    1.3290   -0.1100 C   0  0  1  0  0  0  0  0  0  0  0  0
   -4.1000    2.2010    0.6710 C   0  0  0  0  0  0  0  0  0  0  0  0
   -3.0640    1.8890   -1.5330 C   0  0  0  0  0  0  0  0  0  0  0  0
   -3.5900   -0.0910   -0.1400 C   0  0  0  0  0  0  0  0  0  0  0  0
   -4.6690   -0.8890   -0.1930 C   0  0  0  0  0  0  0  0  0  0  0  0
   -4.2150   -2.2920   -0.1850 C   0  0  0  0  0  0  0  0  0  0  0  0
   -2.7360   -2.1870   -0.1180 C   0  0  0  0  0  0  0  0  0  0  0  0
   -2.3950   -0.9070   -0.0930 C   0  0  0  0  0  0  0  0  0  0  0  0
    1.9060    0.2740    0.0920 C   0  0  0  0  0  0  0  0  0  0  0  0
    1.4210    1.3870    0.4110 O   0  0  0  0  0  0  0  0  0  0  0  0
    3.2340    0.2260   -0.4060 N   0  0  0  0  0  0  0  0  0  0  0  0
    3.8560   -1.0210   -0.7770 C   0  0  0  0  0  0  0  0  0  0  0  0
    5.2840   -0.9980   -0.2330 C   0  0  0  0  0  0  0  0  0  0  0  0
    5.9550    0.0780   -0.7620 O   0  0  0  0  0  0  0  0  0  0  0  0
    5.4350    1.2530   -0.1770 C   0  0  0  0  0  0  0  0  0  0  0  0
    3.9910    1.4490   -0.5540 C   0  0  0  0  0  0  0  0  0  0  0  0
  2  1  1  6
  2  3  1  0
  2 14  1  0
  4  3  1  1
  4  5  1  0
  4 13  1  0
  5  6  1  0
  6  7  1  1
  6  8  1  0
  6  9  1  0
  9 10  2  0
  9 13  1  0
 10 11  1  0
 11 12  1  0
 12 13  2  0
 14 15  2  0
 14 16  1  0
 16 17  1  0
 16 21  1  0
 17 18  1  0
 18 19  1  0
 19 20  1  0
 20 21  1  0
M  CHG  1   3   1
M  END
