
     RDKit          3D

 37 40  0  0  0  0  0  0  0  0999 V2000
   -4.0080    5.2360   -1.4410 C   0  0  0  0  0  0  0  0  0  0  0  0
   -2.5680    5.0130   -1.5980 C   0  0  0  0  0  0  0  0  0  0  0  0
   -1.8450    3.9490   -1.4770 C   0  0  0  0  0  0  0  0  0  0  0  0
   -2.1600    2.5760   -1.1440 C   0  0  0  0  0  0  0  0  0  0  0  0
   -3.3690    2.2120   -0.8940 N   0  0  0  0  0  0  0  0  0  0  0  0
   -3.7250    0.8420   -0.5570 C   0  0  0  0  0  0  0  0  0  0  0  0
   -4.9800    0.5710   -0.3310 C   0  0  0  0  0  0  0  0  0  0  0  0
   -5.9620    1.6720   -0.4350 C   0  0  0  0  0  0  0  0  0  0  0  0
   -7.2430    1.5180   -0.2280 C   0  0  0  0  0  0  0  0  0  0  0  0
   -7.8350    0.2480    0.1250 C   0  0  0  0  0  0  0  0  0  0  0  0
   -6.8830   -0.8430    0.2320 C   0  0  0  0  0  0  0  0  0  0  0  0
   -5.5450   -0.6990    0.0200 C   0  0  0  0  0  0  0  0  0  0  0  0
   -4.7270   -1.9160    0.1850 C   0  0  0  0  0  0  0  0  0  0  0  0
   -5.6300   -3.1140    0.5660 C   0  0  0  0  0  0  0  0  0  0  0  0
   -2.6400   -0.0540   -0.5260 N   0  0  0  0  0  0  0  0  0  0  0  0
   -1.2670    0.3410   -0.8060 C   0  0  0  0  0  0  0  0  0  0  0  0
   -0.2010   -0.6810   -0.7510 C   0  0  0  0  0  0  0  0  0  0  0  0
   -0.0760   -1.3210    0.6020 C   0  0  0  0  0  0  0  0  0  0  0  0
    0.9320   -2.3100    0.6980 N   0  0  0  0  0  0  0  0  0  0  0  0
    2.3190   -2.0820    0.4650 C   0  0  0  0  0  0  0  0  0  0  0  0
    2.6260   -0.9020    0.1560 O   0  0  0  0  0  0  0  0  0  0  0  0
    3.3220   -3.1710    0.5830 C   0  0  0  0  0  0  0  0  0  0  0  0
    4.6610   -2.6970    0.3040 N   0  0  0  0  0  0  0  0  0  0  0  0
    5.2400   -2.6930   -0.9870 C   0  0  0  0  0  0  0  0  0  0  0  0
    4.7220   -3.0790   -2.0750 O   0  0  0  0  0  0  0  0  0  0  0  0
    6.5530   -2.1690   -0.8960 N   0  0  0  0  0  0  0  0  0  0  0  0
    6.6740   -1.5220    0.3870 C   0  0  1  0  0  0  0  0  0  0  0  0
    8.0510   -1.7790    1.0040 C   0  0  0  0  0  0  0  0  0  0  0  0
    6.4860   -0.0780    0.2310 C   0  0  0  0  0  0  0  0  0  0  0  0
    6.1540    0.7300    1.2950 C   0  0  0  0  0  0  0  0  0  0  0  0
    5.9930    2.0940    1.0690 C   0  0  0  0  0  0  0  0  0  0  0  0
    6.1480    2.6390   -0.1310 N   0  0  0  0  0  0  0  0  0  0  0  0
    6.4700    1.8860   -1.1900 C   0  0  0  0  0  0  0  0  0  0  0  0
    6.6420    0.5070   -1.0030 C   0  0  0  0  0  0  0  0  0  0  0  0
    5.6320   -2.1690    1.1970 C   0  0  0  0  0  0  0  0  0  0  0  0
    5.5630   -2.2650    2.4370 O   0  0  0  0  0  0  0  0  0  0  0  0
   -1.0590    1.5920   -1.0970 C   0  0  0  0  0  0  0  0  0  0  0  0
  1  2  1  0
  2  3  2  3
  3  4  1  0
  4  5  2  0
  4 37  1  0
  5  6  1  0
  6  7  2  3
  6 15  1  0
  7  8  1  0
  7 12  1  0
  8  9  2  0
  9 10  1  0
 10 11  1  0
 11 12  2  0
 12 13  1  0
 13 14  1  0
 15 16  1  0
 16 17  1  0
 16 37  2  0
 17 18  1  0
 18 19  1  0
 19 20  1  0
 20 21  2  0
 20 22  1  0
 22 23  1  0
 23 24  1  0
 23 35  1  0
 24 25  2  0
 24 26  1  0
 26 27  1  0
 27 28  1  1
 27 29  1  0
 27 35  1  0
 29 30  2  0
 29 34  1  0
 30 31  1  0
 31 32  2  0
 32 33  1  0
 33 34  2  0
 35 36  2  0
M  CHG  1   5   1
M  END
