
     RDKit          3D

 37 40  0  0  0  0  0  0  0  0999 V2000
   -6.5140    3.8560   -2.7370 C   0  0  0  0  0  0  0  0  0  0  0  0
   -6.1110    2.7340   -1.8020 C   0  0  0  0  0  0  0  0  0  0  0  0
   -5.0130    2.0200   -1.8960 C   0  0  0  0  0  0  0  0  0  0  0  0
   -5.0110    1.0520   -0.8010 C   0  0  0  0  0  0  0  0  0  0  0  0
   -4.0840    0.1190   -0.5070 C   0  0  0  0  0  0  0  0  0  0  0  0
   -2.9490    0.1010   -1.4090 C   0  0  0  0  0  0  0  0  0  0  0  0
   -1.9620   -1.0020   -1.3140 C   0  0  0  0  0  0  0  0  0  0  0  0
   -1.4440   -1.2620    0.0180 N   0  0  0  0  0  0  0  0  0  0  0  0
   -0.1110   -0.9510    0.3610 C   0  0  0  0  0  0  0  0  0  0  0  0
    0.2300   -0.8620    1.5570 O   0  0  0  0  0  0  0  0  0  0  0  0
    0.9600   -0.7160   -0.6410 C   0  0  0  0  0  0  0  0  0  0  0  0
    2.2170   -0.1680    0.0030 C   0  0  1  0  0  0  0  0  0  0  0  0
    2.0000    1.1600    0.6470 C   0  0  0  0  0  0  0  0  0  0  0  0
    2.6540   -1.1170    1.1440 C   0  0  0  0  0  0  0  0  0  0  0  0
    3.3150   -0.2100   -0.9870 C   0  0  0  0  0  0  0  0  0  0  0  0
    3.0800   -0.4930   -2.1750 O   0  0  0  0  0  0  0  0  0  0  0  0
    4.6620    0.0590   -0.6230 N   0  0  0  0  0  0  0  0  0  0  0  0
    5.8020    0.0130   -1.5070 C   0  0  0  0  0  0  0  0  0  0  0  0
    7.0780    0.3460   -0.7460 C   0  0  1  0  0  0  0  0  0  0  0  0
    8.3620    0.2990   -1.5330 C   0  0  0  0  0  0  0  0  0  0  0  0
    8.2890    1.2450   -2.6140 N   0  0  0  0  0  0  0  0  0  0  0  0
    7.0050    1.2600    0.4490 C   0  0  0  0  0  0  0  0  0  0  0  0
    7.1690   -0.1940    0.6600 C   0  0  0  0  0  0  0  0  0  0  0  0
   -2.2160   -1.7800    1.0890 C   0  0  0  0  0  0  0  0  0  0  0  0
   -1.4790   -2.6360    1.8950 C   0  0  0  0  0  0  0  0  0  0  0  0
   -2.1300   -3.2060    2.9820 C   0  0  0  0  0  0  0  0  0  0  0  0
   -1.3460   -4.0740    3.7880 N   0  0  0  0  0  0  0  0  0  0  0  0
   -3.4450   -2.9320    3.2400 C   0  0  0  0  0  0  0  0  0  0  0  0
   -4.1700   -2.0840    2.4370 C   0  0  0  0  0  0  0  0  0  0  0  0
   -3.5700   -1.5030    1.3630 C   0  0  0  0  0  0  0  0  0  0  0  0
   -4.3910   -0.6630    0.6210 O   0  0  0  0  0  0  0  0  0  0  0  0
   -6.2490    1.3180   -0.0850 C   0  0  0  0  0  0  0  0  0  0  0  0
   -6.7490    0.7150    1.1750 C   0  0  0  0  0  0  0  0  0  0  0  0
   -6.0380    1.2790    2.3800 C   0  0  0  0  0  0  0  0  0  0  0  0
   -6.6050    0.5150    3.5430 C   0  0  0  0  0  0  0  0  0  0  0  0
   -7.0180   -0.0740    4.4200 N   0  0  0  0  0  0  0  0  0  0  0  0
   -6.8540    2.3060   -0.7110 N   0  0  0  0  0  0  0  0  0  0  0  0
  1  2  1  0
  2  3  2  0
  2 37  1  0
  3  4  1  0
  4  5  2  3
  4 32  1  0
  5  6  1  0
  5 31  1  0
  6  7  1  0
  7  8  1  0
  8  9  1  0
  8 24  1  0
  9 10  2  0
  9 11  1  0
 11 12  1  0
 12 13  1  1
 12 14  1  0
 12 15  1  0
 15 16  2  0
 15 17  1  0
 17 18  1  0
 19 18  1  6
 19 20  1  0
 19 22  1  0
 19 23  1  0
 20 21  1  0
 22 23  1  0
 24 25  2  0
 24 30  1  0
 25 26  1  0
 26 27  1  0
 26 28  2  0
 28 29  1  0
 29 30  2  0
 30 31  1  0
 32 33  1  0
 32 37  2  0
 33 34  1  0
 34 35  1  0
 35 36  3  0
M  CHG  1  21   1
M  END
