
     RDKit          3D

 37 40  0  0  0  0  0  0  0  0999 V2000
   -8.6610   -1.0120   -2.8290 C   0  0  0  0  0  0  0  0  0  0  0  0
   -8.3620   -0.5620   -1.6340 C   0  0  0  0  0  0  0  0  0  0  0  0
   -7.2310   -0.9550   -0.8320 C   0  0  0  0  0  0  0  0  0  0  0  0
   -6.9870   -0.4030    0.3380 C   0  0  0  0  0  0  0  0  0  0  0  0
   -7.8570    0.6090    0.8590 C   0  0  0  0  0  0  0  0  0  0  0  0
   -8.9400    1.0200    0.1790 C   0  0  0  0  0  0  0  0  0  0  0  0
   -9.3190    0.4920   -1.1110 C   0  0  0  0  0  0  0  0  0  0  0  0
   -7.3880    1.0380    2.1960 C   0  0  0  0  0  0  0  0  0  0  0  0
   -6.0420    0.4100    2.3620 C   0  0  0  0  0  0  0  0  0  0  0  0
   -5.8730   -0.5870    1.3130 C   0  0  2  0  0  0  0  0  0  0  0  0
   -4.5530   -0.5400    0.6770 N   0  0  0  0  0  0  0  0  0  0  0  0
   -4.2470   -0.0420   -0.5880 C   0  0  0  0  0  0  0  0  0  0  0  0
   -5.1840    0.4720   -1.2940 O   0  0  0  0  0  0  0  0  0  0  0  0
   -2.8940   -0.0550   -1.2210 C   0  0  2  0  0  0  0  0  0  0  0  0
   -2.8260   -1.3640   -2.0350 C   0  0  0  0  0  0  0  0  0  0  0  0
   -1.8020   -0.0480   -0.3070 N   0  0  0  0  0  0  0  0  0  0  0  0
   -0.8450    1.0050   -0.6670 C   0  0  1  0  0  0  0  0  0  0  0  0
   -0.1920    0.6410   -2.0160 C   0  0  0  0  0  0  0  0  0  0  0  0
   -1.5170    2.3240   -0.8340 C   0  0  0  0  0  0  0  0  0  0  0  0
    0.2270    1.0080    0.3470 C   0  0  0  0  0  0  0  0  0  0  0  0
    0.8030    1.9740    1.0680 N   0  0  0  0  0  0  0  0  0  0  0  0
    1.7070    1.4370    1.8420 O   0  0  0  0  0  0  0  0  0  0  0  0
    1.7800    0.1630    1.6920 C   0  0  0  0  0  0  0  0  0  0  0  0
    2.6440   -0.8180    2.3610 C   0  0  0  0  0  0  0  0  0  0  0  0
    3.7020   -1.3870    1.5830 N   0  0  0  0  0  0  0  0  0  0  0  0
    4.8580   -0.7070    1.0740 C   0  0  0  0  0  0  0  0  0  0  0  0
    4.9650    0.5040    1.3280 O   0  0  0  0  0  0  0  0  0  0  0  0
    5.8280   -1.4000    0.3200 N   0  0  0  0  0  0  0  0  0  0  0  0
    7.0540   -0.8820   -0.2380 C   0  0  1  0  0  0  0  0  0  0  0  0
    7.1600    0.5500   -0.5440 C   0  0  0  0  0  0  0  0  0  0  0  0
    8.2500    1.3040    0.1210 C   0  0  0  0  0  0  0  0  0  0  0  0
    9.5390    0.5780    0.2660 C   0  0  0  0  0  0  0  0  0  0  0  0
   10.6510    1.2770    0.2670 C   0  0  0  0  0  0  0  0  0  0  0  0
    9.4830   -0.8740    0.4150 C   0  0  0  0  0  0  0  0  0  0  0  0
   10.5880   -1.5870    0.3840 C   0  0  0  0  0  0  0  0  0  0  0  0
    8.1540   -1.4640    0.6240 C   0  0  0  0  0  0  0  0  0  0  0  0
    0.8470   -0.1470    0.7420 N   0  0  0  0  0  0  0  0  0  0  0  0
  1  2  2  0
  2  3  1  0
  2  7  1  0
  3  4  2  0
  4  5  1  0
  4 10  1  0
  5  6  2  0
  5  8  1  0
  6  7  1  0
  8  9  1  0
  9 10  1  0
 10 11  1  6
 11 12  1  0
 12 13  2  0
 12 14  1  0
 14 15  1  1
 14 16  1  0
 16 17  1  0
 17 18  1  6
 17 19  1  0
 17 20  1  0
 20 21  2  0
 20 37  1  0
 21 22  1  0
 22 23  1  0
 23 24  1  0
 23 37  2  0
 24 25  1  0
 25 26  1  0
 26 27  2  0
 26 28  1  0
 29 28  1  1
 29 30  1  0
 29 36  1  0
 30 31  1  0
 31 32  1  0
 32 33  2  0
 32 34  1  0
 34 35  2  0
 34 36  1  0
M  CHG  1  16   1
M  END
