
     RDKit          3D

 37 40  0  0  0  0  0  0  0  0999 V2000
   -6.2390   -2.8350    2.7630 C   0  0  0  0  0  0  0  0  0  0  0  0
   -5.1740   -2.2250    1.9500 N   0  0  0  0  0  0  0  0  0  0  0  0
   -5.4670   -1.9690    0.5860 C   0  0  0  0  0  0  0  0  0  0  0  0
   -6.7210   -2.3020    0.0900 C   0  0  0  0  0  0  0  0  0  0  0  0
   -7.0680   -2.0830   -1.2100 C   0  0  0  0  0  0  0  0  0  0  0  0
   -6.1630   -1.5230   -2.0530 C   0  0  0  0  0  0  0  0  0  0  0  0
   -4.9050   -1.1900   -1.5530 C   0  0  0  0  0  0  0  0  0  0  0  0
   -4.5010   -1.3860   -0.2540 C   0  0  0  0  0  0  0  0  0  0  0  0
   -3.2280   -1.0500    0.2630 N   0  0  0  0  0  0  0  0  0  0  0  0
   -2.1810   -0.4730   -0.4780 C   0  0  0  0  0  0  0  0  0  0  0  0
   -2.3060   -0.2090   -1.6840 O   0  0  0  0  0  0  0  0  0  0  0  0
   -0.9120   -0.1670    0.1550 N   0  0  0  0  0  0  0  0  0  0  0  0
    0.1140    0.4160   -0.6360 C   0  0  1  0  0  0  0  0  0  0  0  0
    0.7000    1.6730   -0.1040 C   0  0  0  0  0  0  0  0  0  0  0  0
   -0.3380    2.7520    0.0600 C   0  0  0  0  0  0  0  0  0  0  0  0
   -1.0940    3.0080    1.1440 N   0  0  0  0  0  0  0  0  0  0  0  0
   -1.9050    4.0530    0.9030 C   0  0  0  0  0  0  0  0  0  0  0  0
   -2.8580    4.7280    1.6300 C   0  0  0  0  0  0  0  0  0  0  0  0
   -3.5590    5.7980    1.1170 C   0  0  0  0  0  0  0  0  0  0  0  0
   -3.3000    6.2230   -0.1890 C   0  0  0  0  0  0  0  0  0  0  0  0
   -2.3510    5.5580   -0.9250 C   0  0  0  0  0  0  0  0  0  0  0  0
   -1.6560    4.4900   -0.4050 C   0  0  0  0  0  0  0  0  0  0  0  0
   -0.6910    3.6590   -0.8690 N   0  0  0  0  0  0  0  0  0  0  0  0
    1.2060   -0.6090   -0.7380 C   0  0  0  0  0  0  0  0  0  0  0  0
    0.8770   -1.9170   -1.0840 C   0  0  0  0  0  0  0  0  0  0  0  0
    1.8700   -2.8590   -1.1710 C   0  0  0  0  0  0  0  0  0  0  0  0
    3.1720   -2.5200   -0.9210 C   0  0  0  0  0  0  0  0  0  0  0  0
    3.5250   -1.2380   -0.5780 C   0  0  0  0  0  0  0  0  0  0  0  0
    4.9060   -0.8770   -0.3120 C   0  0  0  0  0  0  0  0  0  0  0  0
    5.2020    0.3100   -0.0060 O   0  0  0  0  0  0  0  0  0  0  0  0
    5.9760   -1.8110   -0.3790 N   0  0  0  0  0  0  0  0  0  0  0  0
    7.3210   -1.3680   -0.0990 C   0  0  2  0  0  0  0  0  0  0  0  0
    8.2410   -2.5610   -0.2440 C   0  0  0  0  0  0  0  0  0  0  0  0
    7.4740   -0.8800    1.3250 C   0  0  0  0  0  0  0  0  0  0  0  0
    7.7500   -0.3620   -1.0740 C   0  0  0  0  0  0  0  0  0  0  0  0
    6.9900   -0.0220   -1.9590 O   0  0  0  0  0  0  0  0  0  0  0  0
    2.5080   -0.2800   -0.4900 C   0  0  0  0  0  0  0  0  0  0  0  0
  1  2  1  0
  2  3  1  0
  3  4  2  0
  3  8  1  0
  4  5  1  0
  5  6  2  0
  6  7  1  0
  7  8  2  0
  8  9  1  0
  9 10  1  0
 10 11  2  0
 10 12  1  0
 12 13  1  0
 13 14  1  1
 13 24  1  0
 14 15  1  0
 15 16  1  0
 15 23  2  0
 16 17  1  0
 17 18  2  0
 17 22  1  0
 18 19  1  0
 19 20  2  0
 20 21  1  0
 21 22  2  0
 22 23  1  0
 24 25  2  0
 24 37  1  0
 25 26  1  0
 26 27  2  0
 27 28  1  0
 28 29  1  0
 28 37  2  0
 29 30  2  0
 29 31  1  0
 31 32  1  0
 32 33  1  1
 32 34  1  0
 32 35  1  0
 35 36  2  0
M  CHG  1  23   1
M  END
