
     RDKit          3D

 37 40  0  0  0  0  0  0  0  0999 V2000
   11.1790    1.7240   -2.3400 C   0  0  0  0  0  0  0  0  0  0  0  0
   10.4720    0.4420   -1.9510 C   0  0  0  0  0  0  0  0  0  0  0  0
   10.3100    0.4480   -0.4490 C   0  0  2  0  0  0  0  0  0  0  0  0
    9.6350   -0.7510    0.0290 N   0  0  0  0  0  0  0  0  0  0  0  0
    8.2130   -0.7820    0.1310 C   0  0  0  0  0  0  0  0  0  0  0  0
    7.5100   -1.9110    0.4900 C   0  0  0  0  0  0  0  0  0  0  0  0
    6.1330   -1.8940    0.5750 C   0  0  0  0  0  0  0  0  0  0  0  0
    5.3850   -0.7380    0.3030 C   0  0  0  0  0  0  0  0  0  0  0  0
    3.9820   -0.8480    0.4400 N   0  0  0  0  0  0  0  0  0  0  0  0
    3.0090    0.0680   -0.0210 C   0  0  0  0  0  0  0  0  0  0  0  0
    3.3990    1.0970   -0.6240 O   0  0  0  0  0  0  0  0  0  0  0  0
    1.5650   -0.0980    0.1540 C   0  0  0  0  0  0  0  0  0  0  0  0
    0.9710   -1.1390    0.8270 C   0  0  0  0  0  0  0  0  0  0  0  0
   -0.4130   -1.2470    0.9490 C   0  0  0  0  0  0  0  0  0  0  0  0
   -0.9750   -2.3960    1.6830 C   0  0  0  0  0  0  0  0  0  0  0  0
   -1.2500   -0.2930    0.3870 C   0  0  0  0  0  0  0  0  0  0  0  0
   -2.6460   -0.4510    0.5540 N   0  0  0  0  0  0  0  0  0  0  0  0
   -3.6600    0.3460   -0.0080 C   0  0  0  0  0  0  0  0  0  0  0  0
   -3.3820    1.3030   -0.7380 O   0  0  0  0  0  0  0  0  0  0  0  0
   -5.0740   -0.0100    0.3110 C   0  0  0  0  0  0  0  0  0  0  0  0
   -6.0440    0.8430   -0.4650 C   0  0  0  0  0  0  0  0  0  0  0  0
   -7.4350    0.4220   -0.0840 C   0  0  0  0  0  0  0  0  0  0  0  0
   -7.5680   -0.4240    0.8260 O   0  0  0  0  0  0  0  0  0  0  0  0
   -8.5720    0.9490   -0.7200 N   0  0  0  0  0  0  0  0  0  0  0  0
   -9.9150    0.6440   -0.4610 C   0  0  0  0  0  0  0  0  0  0  0  0
  -10.8820    1.2070   -1.3050 C   0  0  0  0  0  0  0  0  0  0  0  0
  -12.2240    0.9640   -1.1190 C   0  0  0  0  0  0  0  0  0  0  0  0
  -12.6710    0.1550   -0.0920 C   0  0  0  0  0  0  0  0  0  0  0  0
  -11.7380   -0.4140    0.7580 C   0  0  0  0  0  0  0  0  0  0  0  0
  -12.2130   -1.2730    1.8720 C   0  0  0  0  0  0  0  0  0  0  0  0
  -10.3960   -0.1480    0.5400 C   0  0  0  0  0  0  0  0  0  0  0  0
   -0.6180    0.7260   -0.2730 C   0  0  0  0  0  0  0  0  0  0  0  0
    0.7470    0.8120   -0.3800 N   0  0  0  0  0  0  0  0  0  0  0  0
    6.0960    0.3690   -0.0510 C   0  0  0  0  0  0  0  0  0  0  0  0
    7.4960    0.3570   -0.1390 C   0  0  0  0  0  0  0  0  0  0  0  0
    8.2140    1.6070   -0.5260 C   0  0  0  0  0  0  0  0  0  0  0  0
    9.5500    1.5730    0.0330 N   0  0  0  0  0  0  0  0  0  0  0  0
  1  2  1  0
  3  2  1  6
  3  4  1  0
  3 37  1  0
  4  5  1  0
  5  6  2  0
  5 35  1  0
  6  7  1  0
  7  8  2  0
  8  9  1  0
  8 34  1  0
  9 10  1  0
 10 11  2  0
 10 12  1  0
 12 13  2  0
 12 33  1  0
 13 14  1  0
 14 15  1  0
 14 16  2  0
 16 17  1  0
 16 32  1  0
 17 18  1  0
 18 19  2  0
 18 20  1  0
 20 21  1  0
 21 22  1  0
 22 23  2  0
 22 24  1  0
 24 25  1  0
 25 26  2  0
 25 31  1  0
 26 27  1  0
 27 28  2  0
 28 29  1  0
 29 30  1  0
 29 31  2  0
 32 33  2  0
 34 35  2  0
 35 36  1  0
 36 37  1  0
M  CHG  1  37   1
M  END
