
     RDKit          3D

 39 43  0  0  0  0  0  0  0  0999 V2000
   -1.4790   -4.0610    0.5870 C   0  0  0  0  0  0  0  0  0  0  0  0
   -1.6500   -2.6820    1.0410 C   0  0  0  0  0  0  0  0  0  0  0  0
   -1.7460   -2.4930    2.2830 O   0  0  0  0  0  0  0  0  0  0  0  0
   -1.6990   -1.5760    0.1980 N   0  0  0  0  0  0  0  0  0  0  0  0
   -1.3340   -0.2480    0.7140 C   0  0  0  0  0  0  0  0  0  0  0  0
   -1.0050    0.7010   -0.3710 C   0  0  2  0  0  0  0  0  0  0  0  0
   -0.2560    1.8500    0.2380 C   0  0  0  0  0  0  0  0  0  0  0  0
    1.0130    1.5870    0.9330 C   0  0  0  0  0  0  0  0  0  0  0  0
    2.1050    1.1000    0.1660 N   0  0  0  0  0  0  0  0  0  0  0  0
    3.3330    0.8030    0.8910 C   0  0  0  0  0  0  0  0  0  0  0  0
    3.3520    0.9930    2.1370 O   0  0  0  0  0  0  0  0  0  0  0  0
    4.4310    0.3200    0.1590 N   0  0  0  0  0  0  0  0  0  0  0  0
    5.6680   -0.0060    0.7240 C   0  0  0  0  0  0  0  0  0  0  0  0
    5.9940    0.0900    2.0280 C   0  0  0  0  0  0  0  0  0  0  0  0
    7.2820   -0.2690    2.4890 C   0  0  0  0  0  0  0  0  0  0  0  0
    8.2440   -0.7270    1.6210 C   0  0  0  0  0  0  0  0  0  0  0  0
    7.8910   -0.8150    0.3050 C   0  0  0  0  0  0  0  0  0  0  0  0
    6.6460   -0.4700   -0.1530 C   0  0  0  0  0  0  0  0  0  0  0  0
    6.6660   -0.7040   -1.6240 C   0  0  0  0  0  0  0  0  0  0  0  0
    7.7260   -1.5400   -1.8470 O   0  0  0  0  0  0  0  0  0  0  0  0
    8.6800   -1.2660   -0.8690 C   0  0  0  0  0  0  0  0  0  0  0  0
   -2.0820    1.2780   -1.2220 C   0  0  0  0  0  0  0  0  0  0  0  0
   -3.0840    2.0000   -0.5290 N   0  0  0  0  0  0  0  0  0  0  0  0
   -4.0950    1.4790    0.2870 C   0  0  0  0  0  0  0  0  0  0  0  0
   -4.2190    0.2510    0.4540 O   0  0  0  0  0  0  0  0  0  0  0  0
   -5.0480    2.3410    0.9790 C   0  0  0  0  0  0  0  0  0  0  0  0
   -5.2150    3.6280    0.5320 C   0  0  0  0  0  0  0  0  0  0  0  0
   -6.1240    4.4470    1.2090 C   0  0  0  0  0  0  0  0  0  0  0  0
   -6.8370    3.9940    2.2910 C   0  0  0  0  0  0  0  0  0  0  0  0
   -6.6310    2.6940    2.6980 C   0  0  0  0  0  0  0  0  0  0  0  0
   -5.7530    1.8540    2.0690 C   0  0  0  0  0  0  0  0  0  0  0  0
   -0.1280   -0.0740   -1.4260 C   0  0  0  0  0  0  0  0  0  0  0  0
   -1.1750   -0.9450   -2.0940 C   0  0  0  0  0  0  0  0  0  0  0  0
   -1.3920   -1.0350   -3.4160 C   0  0  0  0  0  0  0  0  0  0  0  0
   -2.4260   -1.8460   -3.8600 C   0  0  0  0  0  0  0  0  0  0  0  0
   -3.2080   -2.5380   -2.9650 C   0  0  0  0  0  0  0  0  0  0  0  0
   -3.0120   -2.4690   -1.5830 C   0  0  0  0  0  0  0  0  0  0  0  0
   -3.8930   -3.1520   -0.6120 C   0  0  0  0  0  0  0  0  0  0  0  0
   -1.9750   -1.6560   -1.1980 C   0  0  0  0  0  0  0  0  0  0  0  0
  1  2  1  0
  2  3  2  0
  2  4  1  0
  4  5  1  0
  4 39  1  0
  5  6  1  0
  6  7  1  1
  6 22  1  0
  6 32  1  0
  7  8  1  0
  8  9  1  0
  9 10  1  0
 10 11  2  0
 10 12  1  0
 12 13  1  0
 13 14  2  0
 13 18  1  0
 14 15  1  0
 15 16  2  0
 16 17  1  0
 17 18  2  0
 17 21  1  0
 18 19  1  0
 19 20  1  0
 20 21  1  0
 22 23  1  0
 23 24  1  0
 24 25  2  0
 24 26  1  0
 26 27  2  0
 26 31  1  0
 27 28  1  0
 28 29  2  0
 29 30  1  0
 30 31  2  0
 32 33  1  0
 33 34  2  0
 33 39  1  0
 34 35  1  0
 35 36  2  0
 36 37  1  0
 37 38  1  0
 37 39  2  0
M  END
