
     RDKit          3D

 39 43  0  0  0  0  0  0  0  0999 V2000
   -2.1700   -1.9920   -2.8360 C   0  0  0  0  0  0  0  0  0  0  0  0
   -2.7360   -1.0350   -1.9680 O   0  0  0  0  0  0  0  0  0  0  0  0
   -1.9410   -0.3740   -1.0730 C   0  0  0  0  0  0  0  0  0  0  0  0
   -0.5820   -0.6410   -1.0190 C   0  0  0  0  0  0  0  0  0  0  0  0
    0.2620    0.0080   -0.1290 C   0  0  0  0  0  0  0  0  0  0  0  0
    1.6550   -0.4010   -0.0700 C   0  0  0  0  0  0  0  0  0  0  0  0
    2.4980    0.0690    0.7360 O   0  0  0  0  0  0  0  0  0  0  0  0
    2.1750   -1.3940   -0.9470 N   0  0  0  0  0  0  0  0  0  0  0  0
    3.5660   -1.8180   -0.8940 C   0  0  0  0  0  0  0  0  0  0  0  0
    3.9800   -2.4000    0.4140 C   0  0  0  0  0  0  0  0  0  0  0  0
    5.4100   -2.8180    0.3930 C   0  0  0  0  0  0  0  0  0  0  0  0
    6.3890   -2.3780    1.1670 C   0  0  0  0  0  0  0  0  0  0  0  0
    7.6580   -3.0420    0.8320 C   0  0  0  0  0  0  0  0  0  0  0  0
    7.2900   -3.9570   -0.2720 C   0  0  0  0  0  0  0  0  0  0  0  0
    5.9960   -3.8110   -0.5050 C   0  0  0  0  0  0  0  0  0  0  0  0
   -0.3140    0.9260    0.6850 N   0  0  0  0  0  0  0  0  0  0  0  0
    0.4610    1.6960    1.5850 C   0  0  0  0  0  0  0  0  0  0  0  0
    0.9810    3.0260    1.1940 C   0  0  2  0  0  0  0  0  0  0  0  0
    0.0150    4.1040    0.8630 C   0  0  0  0  0  0  0  0  0  0  0  0
   -0.2850    4.2090   -0.6320 C   0  0  0  0  0  0  0  0  0  0  0  0
    0.9730    4.7990   -1.2650 C   0  0  0  0  0  0  0  0  0  0  0  0
    2.1640    4.4470   -0.4320 C   0  0  2  0  0  0  0  0  0  0  0  0
    3.3870    4.5110   -1.3560 C   0  0  0  0  0  0  0  0  0  0  0  0
    2.0250    3.0300    0.0980 C   0  0  0  0  0  0  0  0  0  0  0  0
   -1.6560    1.1890    0.6390 C   0  0  0  0  0  0  0  0  0  0  0  0
   -2.1520    2.0540    1.4390 O   0  0  0  0  0  0  0  0  0  0  0  0
   -2.4970    0.5480   -0.2390 C   0  0  0  0  0  0  0  0  0  0  0  0
   -3.9270    0.8880   -0.2140 C   0  0  2  0  0  0  0  0  0  0  0  0
   -4.3430    0.9370    1.1780 N   0  0  0  0  0  0  0  0  0  0  0  0
   -4.7170   -0.2870    1.8070 C   0  0  0  0  0  0  0  0  0  0  0  0
   -4.6640   -0.3760    3.0640 O   0  0  0  0  0  0  0  0  0  0  0  0
   -5.1510   -1.4010    0.9750 C   0  0  0  0  0  0  0  0  0  0  0  0
   -5.5350   -2.6130    1.5300 C   0  0  0  0  0  0  0  0  0  0  0  0
   -5.4750   -2.7310    3.0060 C   0  0  0  0  0  0  0  0  0  0  0  0
   -5.9510   -3.6550    0.7230 C   0  0  0  0  0  0  0  0  0  0  0  0
   -5.9690   -3.4510   -0.6420 C   0  0  0  0  0  0  0  0  0  0  0  0
   -5.5930   -2.2590   -1.2150 C   0  0  0  0  0  0  0  0  0  0  0  0
   -5.1740   -1.2050   -0.4120 C   0  0  0  0  0  0  0  0  0  0  0  0
   -4.7830    0.0360   -0.9730 N   0  0  0  0  0  0  0  0  0  0  0  0
  1  2  1  0
  2  3  1  0
  3  4  1  0
  3 27  2  0
  4  5  2  0
  5  6  1  0
  5 16  1  0
  6  7  2  0
  6  8  1  0
  8  9  1  0
  9 10  1  0
 10 11  1  0
 11 12  2  0
 11 15  1  0
 12 13  1  0
 13 14  1  0
 14 15  2  0
 16 17  1  0
 16 25  1  0
 18 17  1  6
 18 19  1  0
 18 24  1  0
 19 20  1  0
 20 21  1  0
 21 22  1  0
 22 23  1  6
 22 24  1  0
 25 26  2  0
 25 27  1  0
 28 27  1  1
 28 29  1  0
 28 39  1  0
 29 30  1  0
 30 31  2  0
 30 32  1  0
 32 33  2  0
 32 38  1  0
 33 34  1  0
 33 35  1  0
 35 36  2  0
 36 37  1  0
 37 38  2  0
 38 39  1  0
M  END
