
     RDKit          3D

 39 41  0  0  0  0  0  0  0  0999 V2000
    4.8230    0.6430    1.5680 C   0  0  0  0  0  0  0  0  0  0  0  0
    3.6410    1.3600    0.9720 C   0  0  0  0  0  0  0  0  0  0  0  0
    3.6540    2.6080    0.8960 O   0  0  0  0  0  0  0  0  0  0  0  0
    2.5210    0.6000    0.5040 N   0  0  0  0  0  0  0  0  0  0  0  0
    1.3470    1.2110   -0.0720 C   0  0  1  0  0  0  0  0  0  0  0  0
    1.2410    1.0900   -1.5270 C   0  0  0  0  0  0  0  0  0  0  0  0
    2.1200    0.8500   -2.4000 N   0  0  0  0  0  0  0  0  0  0  0  0
    3.4080    0.6390   -2.1890 O   0  0  0  0  0  0  0  0  0  0  0  0
    4.0420   -0.5230   -1.8330 C   0  0  0  0  0  0  0  0  0  0  0  0
    3.3530   -1.5470   -1.6700 O   0  0  0  0  0  0  0  0  0  0  0  0
    5.4710   -0.5550   -1.6530 N   0  0  0  0  0  0  0  0  0  0  0  0
    6.1980   -1.7010   -1.2640 C   0  0  0  0  0  0  0  0  0  0  0  0
    7.5260   -1.7550   -1.6660 C   0  0  0  0  0  0  0  0  0  0  0  0
    8.2930   -2.8110   -1.2760 C   0  0  0  0  0  0  0  0  0  0  0  0
    7.7340   -3.8120   -0.4860 C   0  0  0  0  0  0  0  0  0  0  0  0
    6.4250   -3.7460   -0.0970 C   0  0  0  0  0  0  0  0  0  0  0  0
    5.6410   -2.6760   -0.4890 C   0  0  0  0  0  0  0  0  0  0  0  0
   -0.0580    1.2730   -2.0590 O   0  0  0  0  0  0  0  0  0  0  0  0
   -1.0600    1.7970   -1.2450 C   0  0  2  0  0  0  0  0  0  0  0  0
   -1.0650    3.3040   -1.1380 C   0  0  0  0  0  0  0  0  0  0  0  0
   -2.0850    3.7510   -0.2960 O   0  0  0  0  0  0  0  0  0  0  0  0
   -1.1750    1.1510    0.1130 C   0  0  1  0  0  0  0  0  0  0  0  0
   -2.1270    0.1800    0.2000 O   0  0  0  0  0  0  0  0  0  0  0  0
   -3.1940    0.3550    1.0070 C   0  0  2  0  0  0  0  0  0  0  0  0
   -3.2100   -0.5720    2.0050 O   0  0  0  0  0  0  0  0  0  0  0  0
   -3.4400   -1.8710    1.6940 C   0  0  2  0  0  0  0  0  0  0  0  0
   -2.0800   -2.5660    1.5950 C   0  0  0  0  0  0  0  0  0  0  0  0
   -1.4040   -2.4740    2.8100 O   0  0  0  0  0  0  0  0  0  0  0  0
   -4.1810   -1.9550    0.3830 C   0  0  1  0  0  0  0  0  0  0  0  0
   -4.9010   -3.1460    0.2760 O   0  0  0  0  0  0  0  0  0  0  0  0
   -5.2100   -0.8440    0.3880 C   0  0  2  0  0  0  0  0  0  0  0  0
   -6.1190   -1.0740   -0.6040 O   0  0  0  0  0  0  0  0  0  0  0  0
   -4.5140    0.5200    0.2830 C   0  0  1  0  0  0  0  0  0  0  0  0
   -5.3550    1.4540    0.9960 N   0  0  0  0  0  0  0  0  0  0  0  0
   -5.7960    2.6190    0.3190 C   0  0  0  0  0  0  0  0  0  0  0  0
   -6.6590    3.6320    0.9490 C   0  0  0  0  0  0  0  0  0  0  0  0
   -5.4560    2.8440   -0.8980 O   0  0  0  0  0  0  0  0  0  0  0  0
    0.1310    0.5710    0.5670 C   0  0  2  0  0  0  0  0  0  0  0  0
    0.2890    0.5710    1.9600 O   0  0  0  0  0  0  0  0  0  0  0  0
  1  2  1  0
  2  3  2  0
  2  4  1  0
  5  4  1  1
  5  6  1  0
  5 38  1  0
  6  7  2  3
  6 18  1  0
  7  8  1  0
  8  9  1  0
  9 10  2  0
  9 11  1  0
 11 12  1  0
 12 13  2  0
 12 17  1  0
 13 14  1  0
 14 15  2  0
 15 16  1  0
 16 17  2  0
 18 19  1  0
 19 20  1  1
 19 22  1  0
 20 21  1  0
 22 23  1  6
 22 38  1  0
 24 23  1  6
 24 25  1  0
 24 33  1  0
 25 26  1  0
 26 27  1  6
 26 29  1  0
 27 28  1  0
 29 30  1  1
 29 31  1  0
 31 32  1  6
 31 33  1  0
 33 34  1  1
 34 35  1  0
 35 36  1  0
 35 37  2  0
 38 39  1  1
M  END
