
     RDKit          3D

 37 39  0  0  0  0  0  0  0  0999 V2000
   -4.5880   -4.8500   -0.2000 C   0  0  0  0  0  0  0  0  0  0  0  0
   -3.7330   -3.6550   -0.2510 C   0  0  0  0  0  0  0  0  0  0  0  0
   -3.8900   -2.7790    0.7630 C   0  0  0  0  0  0  0  0  0  0  0  0
   -4.8750   -3.0940    1.7990 C   0  0  0  0  0  0  0  0  0  0  0  0
   -4.9780   -2.5950    3.0380 C   0  0  0  0  0  0  0  0  0  0  0  0
   -3.9920   -1.5620    3.5290 C   0  0  0  0  0  0  0  0  0  0  0  0
   -2.6680   -1.9280    3.1380 N   0  0  0  0  0  0  0  0  0  0  0  0
   -2.1950   -1.2340    1.9120 C   0  0  0  0  0  0  0  0  0  0  0  0
   -2.9840   -1.5780    0.7230 C   0  0  0  0  0  0  0  0  0  0  0  0
   -3.1150   -0.8680   -0.3550 C   0  0  0  0  0  0  0  0  0  0  0  0
   -4.1330   -1.2800   -1.3670 C   0  0  0  0  0  0  0  0  0  0  0  0
   -4.3310   -0.7040   -2.5100 C   0  0  0  0  0  0  0  0  0  0  0  0
   -3.5530    0.4400   -2.9320 C   0  0  0  0  0  0  0  0  0  0  0  0
   -2.5560    0.8640   -1.9140 C   0  0  0  0  0  0  0  0  0  0  0  0
   -2.1080    2.2720   -2.0950 C   0  0  0  0  0  0  0  0  0  0  0  0
   -2.3030    2.8430   -3.2610 C   0  0  0  0  0  0  0  0  0  0  0  0
   -1.8730    4.2010   -3.4410 N   0  0  0  0  0  0  0  0  0  0  0  0
   -2.3460    5.2520   -2.5900 C   0  0  0  0  0  0  0  0  0  0  0  0
   -2.3000    0.3090   -0.7530 C   0  0  0  0  0  0  0  0  0  0  0  0
   -1.0450    0.4990   -0.1390 N   0  0  0  0  0  0  0  0  0  0  0  0
    0.1180    1.1660   -0.6340 C   0  0  0  0  0  0  0  0  0  0  0  0
    0.2010    1.6390   -1.7420 O   0  0  0  0  0  0  0  0  0  0  0  0
    1.3310    1.2920    0.2850 C   0  0  0  0  0  0  0  0  0  0  0  0
    2.3550    1.9780   -0.4020 N   0  0  0  0  0  0  0  0  0  0  0  0
    1.9730    3.3580   -0.6110 C   0  0  0  0  0  0  0  0  0  0  0  0
    3.6650    1.9440    0.1270 C   0  0  1  0  0  0  0  0  0  0  0  0
    3.7620    2.5570    1.5060 C   0  0  0  0  0  0  0  0  0  0  0  0
    4.3040    0.6110    0.1700 C   0  0  0  0  0  0  0  0  0  0  0  0
    3.6420   -0.3650   -0.2330 O   0  0  0  0  0  0  0  0  0  0  0  0
    5.6140    0.3890    0.6390 N   0  0  0  0  0  0  0  0  0  0  0  0
    6.3070   -0.8290    0.7220 C   0  0  0  0  0  0  0  0  0  0  0  0
    5.8500   -2.0630    0.3960 C   0  0  0  0  0  0  0  0  0  0  0  0
    6.6910   -3.1640    0.5440 C   0  0  0  0  0  0  0  0  0  0  0  0
    7.9490   -3.0870    0.9980 N   0  0  0  0  0  0  0  0  0  0  0  0
    8.4200   -1.8780    1.3260 C   0  0  0  0  0  0  0  0  0  0  0  0
    9.6110   -1.8080    1.7550 O   0  0  0  0  0  0  0  0  0  0  0  0
    7.6240   -0.7750    1.1940 C   0  0  0  0  0  0  0  0  0  0  0  0
  1  2  1  0
  2  3  2  3
  3  4  1  0
  3  9  1  0
  4  5  2  0
  5  6  1  0
  6  7  1  0
  7  8  1  0
  8  9  1  0
  9 10  2  3
 10 11  1  0
 10 19  1  0
 11 12  2  0
 12 13  1  0
 13 14  1  0
 14 15  1  0
 14 19  2  0
 15 16  2  3
 16 17  1  0
 17 18  1  0
 19 20  1  0
 20 21  1  0
 21 22  2  0
 21 23  1  0
 23 24  1  0
 24 25  1  0
 24 26  1  0
 26 27  1  1
 26 28  1  0
 28 29  2  0
 28 30  1  0
 30 31  1  0
 31 32  1  0
 31 37  2  0
 32 33  2  0
 33 34  1  0
 34 35  1  0
 35 36  2  0
 35 37  1  0
M  END
