
     RDKit          3D

 37 40  0  0  0  0  0  0  0  0999 V2000
    9.6760   -1.1900   -0.9370 C   0  0  0  0  0  0  0  0  0  0  0  0
    8.8450   -0.3410   -1.7280 N   0  0  0  0  0  0  0  0  0  0  0  0
    7.4280   -0.4630   -1.4690 C   0  0  1  0  0  0  0  0  0  0  0  0
    7.0820   -1.9340   -1.7140 C   0  0  0  0  0  0  0  0  0  0  0  0
    7.1040   -0.0920   -0.0540 C   0  0  0  0  0  0  0  0  0  0  0  0
    8.0450    0.1620    0.6810 O   0  0  0  0  0  0  0  0  0  0  0  0
    5.7670   -0.0360    0.4100 N   0  0  0  0  0  0  0  0  0  0  0  0
    5.3390    0.2820    1.7120 C   0  0  0  0  0  0  0  0  0  0  0  0
    6.2200    0.0990    2.7850 C   0  0  0  0  0  0  0  0  0  0  0  0
    5.8180    0.2950    4.0880 C   0  0  0  0  0  0  0  0  0  0  0  0
    4.5350    0.6770    4.3650 C   0  0  0  0  0  0  0  0  0  0  0  0
    3.6640    0.8600    3.3130 C   0  0  0  0  0  0  0  0  0  0  0  0
    4.0450    0.6690    1.9810 C   0  0  0  0  0  0  0  0  0  0  0  0
    3.0770    0.9720    0.9150 C   0  0  0  0  0  0  0  0  0  0  0  0
    3.4810    0.9200   -0.2660 O   0  0  0  0  0  0  0  0  0  0  0  0
    1.7360    1.3120    1.1280 N   0  0  0  0  0  0  0  0  0  0  0  0
    0.7610    1.6310    0.1480 C   0  0  0  0  0  0  0  0  0  0  0  0
    0.9610    1.6980   -1.2030 C   0  0  0  0  0  0  0  0  0  0  0  0
   -0.0710    2.0200   -2.1060 C   0  0  0  0  0  0  0  0  0  0  0  0
   -1.3240    2.2770   -1.6250 C   0  0  0  0  0  0  0  0  0  0  0  0
   -2.4150    2.6250   -2.6040 C   0  0  0  0  0  0  0  0  0  0  0  0
   -1.5140    2.2080   -0.2740 C   0  0  0  0  0  0  0  0  0  0  0  0
   -2.8850    2.4780    0.2650 C   0  0  0  0  0  0  0  0  0  0  0  0
   -3.7880    1.2940    0.0310 C   0  0  0  0  0  0  0  0  0  0  0  0
   -3.2940    0.3030   -0.5480 O   0  0  0  0  0  0  0  0  0  0  0  0
   -5.1180    1.2970    0.4410 N   0  0  0  0  0  0  0  0  0  0  0  0
   -6.0350    0.2430    0.2620 C   0  0  0  0  0  0  0  0  0  0  0  0
   -5.8690   -0.8100   -0.5960 C   0  0  0  0  0  0  0  0  0  0  0  0
   -6.8190   -1.8360   -0.7100 C   0  0  0  0  0  0  0  0  0  0  0  0
   -6.5910   -2.9540   -1.6580 C   0  0  0  0  0  0  0  0  0  0  0  0
   -7.9690   -1.8220    0.0460 C   0  0  0  0  0  0  0  0  0  0  0  0
   -8.1450   -0.7790    0.9040 C   0  0  0  0  0  0  0  0  0  0  0  0
   -7.2220    0.2280    1.0220 C   0  0  0  0  0  0  0  0  0  0  0  0
   -9.4570   -1.0000    1.5990 C   0  0  0  0  0  0  0  0  0  0  0  0
   -9.8210   -2.4480    1.3390 C   0  0  0  0  0  0  0  0  0  0  0  0
   -9.0670   -2.7320    0.1110 N   0  0  0  0  0  0  0  0  0  0  0  0
   -0.5200    1.9010    0.5620 N   0  0  0  0  0  0  0  0  0  0  0  0
  1  2  1  0
  2  3  1  0
  3  4  1  1
  3  5  1  0
  5  6  2  0
  5  7  1  0
  7  8  1  0
  8  9  2  0
  8 13  1  0
  9 10  1  0
 10 11  2  0
 11 12  1  0
 12 13  2  0
 13 14  1  0
 14 15  2  0
 14 16  1  0
 16 17  1  0
 17 18  2  0
 17 37  1  0
 18 19  1  0
 19 20  2  0
 20 21  1  0
 20 22  1  0
 22 23  1  0
 22 37  2  0
 23 24  1  0
 24 25  2  0
 24 26  1  0
 26 27  1  0
 27 28  2  0
 27 33  1  0
 28 29  1  0
 29 30  1  0
 29 31  2  0
 31 32  1  0
 31 36  1  0
 32 33  2  0
 32 34  1  0
 34 35  1  0
 35 36  1  0
M  CHG  1   2   1
M  END
