
     RDKit          3D

 19 20  0  0  0  0  0  0  0  0999 V2000
    1.1580    0.7150    0.7320 O   0  0  0  0  0  0  0  0  0  0  0  0
    1.4200   -0.2560    0.0030 C   0  0  0  0  0  0  0  0  0  0  0  0
    0.3770   -0.9520   -0.6260 N   0  0  0  0  0  0  0  0  0  0  0  0
   -1.0110   -0.6940   -0.5410 C   0  0  0  0  0  0  0  0  0  0  0  0
   -1.8990   -1.4290   -1.3400 C   0  0  0  0  0  0  0  0  0  0  0  0
   -3.2490   -1.2440   -1.3120 C   0  0  0  0  0  0  0  0  0  0  0  0
   -3.8260   -0.3110   -0.4860 C   0  0  0  0  0  0  0  0  0  0  0  0
   -2.9840    0.4250    0.3090 C   0  0  0  0  0  0  0  0  0  0  0  0
   -1.5830    0.2330    0.2800 C   0  0  0  0  0  0  0  0  0  0  0  0
   -3.4810    1.3390    1.1270 C   0  0  0  0  0  0  0  0  0  0  0  0
   -4.9320    1.5990    1.2150 C   0  0  0  0  0  0  0  0  0  0  0  0
   -5.6860    0.7940    0.3640 O   0  0  0  0  0  0  0  0  0  0  0  0
   -5.1420   -0.1460   -0.4730 C   0  0  0  0  0  0  0  0  0  0  0  0
    2.8280   -0.6060   -0.1480 C   0  0  0  0  0  0  0  0  0  0  0  0
    3.1110   -1.5830   -0.8810 O   0  0  0  0  0  0  0  0  0  0  0  0
    3.8490    0.0780    0.4680 O   0  0  0  0  0  0  0  0  0  0  0  0
    5.1780   -0.3540    0.2480 C   0  0  0  0  0  0  0  0  0  0  0  0
    6.0790    0.5710    1.0400 C   0  0  0  0  0  0  0  0  0  0  0  0
    5.7160    0.4560    2.3740 O   0  0  0  0  0  0  0  0  0  0  0  0
  1  2  2  0
  2  3  1  0
  2 14  1  0
  3  4  1  0
  4  5  1  0
  4  9  2  0
  5  6  2  0
  6  7  1  0
  7  8  1  0
  7 13  2  0
  8  9  1  0
  8 10  2  0
 10 11  1  0
 11 12  1  0
 12 13  1  0
 14 15  2  0
 14 16  1  0
 16 17  1  0
 17 18  1  0
 18 19  1  0
M  END
