
     RDKit          3D

 17 18  0  0  0  0  0  0  0  0999 V2000
    1.7360    2.8700    0.0220 C   0  0  0  0  0  0  0  0  0  0  0  0
    1.6500    1.7370    0.8330 O   0  0  0  0  0  0  0  0  0  0  0  0
    1.4700    0.4310    0.3730 C   0  0  0  0  0  0  0  0  0  0  0  0
    0.0820   -0.0110    0.1240 C   0  0  0  0  0  0  0  0  0  0  0  0
   -0.8900    0.8660    0.3650 C   0  0  0  0  0  0  0  0  0  0  0  0
   -2.2630    0.4480    0.1220 C   0  0  0  0  0  0  0  0  0  0  0  0
   -2.5630   -0.7480   -0.3230 C   0  0  0  0  0  0  0  0  0  0  0  0
   -4.0690   -0.8270   -0.4530 C   0  0  0  0  0  0  0  0  0  0  0  0
   -4.4510    0.6270   -0.5140 C   0  0  0  0  0  0  0  0  0  0  0  0
   -3.4330    1.2190    0.3130 O   0  0  0  0  0  0  0  0  0  0  0  0
   -1.5670   -1.7060   -0.6060 N   0  0  0  0  0  0  0  0  0  0  0  0
   -0.2400   -1.3470   -0.3490 C   0  0  0  0  0  0  0  0  0  0  0  0
    2.4910   -0.3540    0.1770 C   0  0  0  0  0  0  0  0  0  0  0  0
    2.3440   -1.6360   -0.2760 O   0  0  0  0  0  0  0  0  0  0  0  0
    3.8690    0.0880    0.4320 C   0  0  0  0  0  0  0  0  0  0  0  0
    4.9340   -0.7980    0.1950 N   0  0  0  0  0  0  0  0  0  0  0  0
    4.0740    1.2390    0.8550 O   0  0  0  0  0  0  0  0  0  0  0  0
  1  2  1  0
  2  3  1  0
  3  4  1  0
  3 13  2  3
  4  5  2  0
  4 12  1  0
  5  6  1  0
  6  7  2  0
  6 10  1  0
  7  8  1  0
  7 11  1  0
  8  9  1  0
  9 10  1  0
 11 12  1  0
 13 14  1  0
 13 15  1  0
 15 16  1  0
 15 17  2  0
M  CHG  1  11   1
M  END
