
     RDKit          3D

 17 18  0  0  0  0  0  0  0  0999 V2000
   -2.7120   -1.5360    1.1930 N   0  0  0  0  0  0  0  0  0  0  0  0
   -1.9050   -1.5660   -0.0300 C   0  0  0  0  0  0  0  0  0  0  0  0
   -0.8680   -0.4750    0.0270 C   0  0  0  0  0  0  0  0  0  0  0  0
   -1.3860    0.9210    0.0760 C   0  0  0  0  0  0  0  0  0  0  0  0
   -2.5330    1.0660   -0.9550 C   0  0  0  0  0  0  0  0  0  0  0  0
   -2.9430    2.4040   -0.8380 O   0  0  0  0  0  0  0  0  0  0  0  0
    0.4010   -0.7540   -0.0350 C   0  0  0  0  0  0  0  0  0  0  0  0
    0.8300   -2.1290   -0.1710 N   0  0  0  0  0  0  0  0  0  0  0  0
    2.2110   -2.4730   -0.1970 C   0  0  0  0  0  0  0  0  0  0  0  0
    3.1140   -1.5580   -0.0980 C   0  0  0  0  0  0  0  0  0  0  0  0
    2.7730   -0.1680    0.0410 C   0  0  0  0  0  0  0  0  0  0  0  0
    1.4860    0.2190    0.0720 C   0  0  0  0  0  0  0  0  0  0  0  0
    1.1960    1.5620    0.2120 O   0  0  0  0  0  0  0  0  0  0  0  0
    2.0880    2.5590   -0.2470 C   0  0  0  0  0  0  0  0  0  0  0  0
    3.4380    2.1470    0.2790 C   0  0  0  0  0  0  0  0  0  0  0  0
    4.2160    2.9970    0.8040 O   0  0  0  0  0  0  0  0  0  0  0  0
    3.7460    0.8170    0.1460 O   0  0  0  0  0  0  0  0  0  0  0  0
  1  2  1  0
  2  3  1  0
  3  4  1  0
  3  7  2  3
  4  5  1  0
  5  6  1  0
  7  8  1  0
  7 12  1  0
  8  9  1  0
  9 10  2  0
 10 11  1  0
 11 12  2  0
 11 17  1  0
 12 13  1  0
 13 14  1  0
 14 15  1  0
 15 16  2  0
 15 17  1  0
M  CHG  1   1   1
M  END
