
     RDKit          3D

 17 18  0  0  0  0  0  0  0  0999 V2000
   -2.6770   -1.9090   -0.8330 N   0  0  0  0  0  0  0  0  0  0  0  0
   -1.6000   -1.3300   -0.0420 C   0  0  0  0  0  0  0  0  0  0  0  0
   -1.7120    0.1700   -0.0260 C   0  0  0  0  0  0  0  0  0  0  0  0
   -0.7130    0.8690   -0.5050 C   0  0  0  0  0  0  0  0  0  0  0  0
   -0.8650    2.3400   -0.4720 C   0  0  0  0  0  0  0  0  0  0  0  0
   -1.9180    2.9410   -0.0000 C   0  0  0  0  0  0  0  0  0  0  0  0
   -2.9810    2.1810    0.5100 N   0  0  0  0  0  0  0  0  0  0  0  0
   -2.9370    0.7540    0.5260 C   0  0  0  0  0  0  0  0  0  0  0  0
    0.2830    2.9160   -1.0170 O   0  0  0  0  0  0  0  0  0  0  0  0
    1.3120    1.9850   -0.8990 C   0  0  0  0  0  0  0  0  0  0  0  0
    0.6170    0.6410   -1.1170 C   0  0  1  0  0  0  0  0  0  0  0  0
    1.4010   -0.4620   -0.5730 C   0  0  0  0  0  0  0  0  0  0  0  0
    1.8400   -1.3390   -1.3580 O   0  0  0  0  0  0  0  0  0  0  0  0
    1.6910   -0.5970    0.7660 O   0  0  0  0  0  0  0  0  0  0  0  0
    2.4460   -1.6400    1.3450 C   0  0  0  0  0  0  0  0  0  0  0  0
    3.8300   -1.6030    0.7420 C   0  0  0  0  0  0  0  0  0  0  0  0
    4.4540   -0.3640    1.0020 O   0  0  0  0  0  0  0  0  0  0  0  0
  1  2  1  0
  2  3  1  0
  3  4  2  0
  3  8  1  0
  4  5  1  0
  4 11  1  0
  5  6  2  0
  5  9  1  0
  6  7  1  0
  7  8  1  0
  9 10  1  0
 10 11  1  0
 11 12  1  1
 12 13  2  0
 12 14  1  0
 14 15  1  0
 15 16  1  0
 16 17  1  0
M  CHG  1   1   1
M  END
