
     RDKit          3D

 12 12  0  0  0  0  0  0  0  0999 V2000
   -2.7940    0.3790   -1.3690 N   0  0  0  0  0  0  0  0  0  0  0  0
   -1.6800   -0.1220   -0.5450 C   0  0  1  0  0  0  0  0  0  0  0  0
   -0.4490    0.5680   -1.0460 C   0  0  0  0  0  0  0  0  0  0  0  0
    0.7860    0.1860   -0.3280 C   0  0  0  0  0  0  0  0  0  0  0  0
    1.5480   -0.8850   -0.7690 C   0  0  0  0  0  0  0  0  0  0  0  0
    2.7080   -1.2720   -0.1240 C   0  0  0  0  0  0  0  0  0  0  0  0
    3.1700   -0.6120    0.9940 C   0  0  0  0  0  0  0  0  0  0  0  0
    2.4170    0.4540    1.4380 C   0  0  0  0  0  0  0  0  0  0  0  0
    1.2550    0.8420    0.7930 C   0  0  0  0  0  0  0  0  0  0  0  0
   -1.9720    0.0690    0.8640 C   0  0  0  0  0  0  0  0  0  0  0  0
   -3.0390    0.5960    1.2340 O   0  0  0  0  0  0  0  0  0  0  0  0
   -1.0760   -0.3280    1.8310 O   0  0  0  0  0  0  0  0  0  0  0  0
  2  1  1  6
  2  3  1  0
  2 10  1  0
  3  4  1  0
  4  5  2  0
  4  9  1  0
  5  6  1  0
  6  7  2  0
  7  8  1  0
  8  9  2  0
 10 11  2  0
 10 12  1  0
M  CHG  1   1   1
M  END
