
     RDKit          3D

 19 20  0  0  0  0  0  0  0  0999 V2000
    4.0790    1.3340   -1.6320 C   0  0  0  0  0  0  0  0  0  0  0  0
    4.5360    0.4240   -0.6600 O   0  0  0  0  0  0  0  0  0  0  0  0
    3.6240   -0.2550    0.1370 C   0  0  0  0  0  0  0  0  0  0  0  0
    2.2730   -0.0660    0.0050 C   0  0  0  0  0  0  0  0  0  0  0  0
    1.3150   -0.7330    0.7920 C   0  0  0  0  0  0  0  0  0  0  0  0
   -0.0390   -0.4240    0.5610 N   0  0  0  0  0  0  0  0  0  0  0  0
   -1.1140   -1.2110    0.9890 C   0  0  0  0  0  0  0  0  0  0  0  0
   -0.8880   -2.3050    1.6350 O   0  0  0  0  0  0  0  0  0  0  0  0
   -2.5270   -0.9430    0.7910 C   0  0  0  0  0  0  0  0  0  0  0  0
   -2.9690    0.1090    0.1630 C   0  0  0  0  0  0  0  0  0  0  0  0
   -4.4440    0.4160   -0.0600 C   0  0  0  0  0  0  0  0  0  0  0  0
   -4.3450    1.0840   -1.4260 C   0  0  2  0  0  0  0  0  0  0  0  0
   -4.0270    0.1300   -2.3620 O   0  0  0  0  0  0  0  0  0  0  0  0
   -3.1150    1.9710   -1.1960 C   0  0  0  0  0  0  0  0  0  0  0  0
   -2.3010    1.1450   -0.4220 O   0  0  0  0  0  0  0  0  0  0  0  0
    1.7990   -1.6020    1.7180 C   0  0  0  0  0  0  0  0  0  0  0  0
    3.1800   -1.8360    1.8970 C   0  0  0  0  0  0  0  0  0  0  0  0
    4.0580   -1.1530    1.0980 C   0  0  0  0  0  0  0  0  0  0  0  0
    5.4220   -1.3530    1.2390 O   0  0  0  0  0  0  0  0  0  0  0  0
  1  2  1  0
  2  3  1  0
  3  4  2  0
  3 18  1  0
  4  5  1  0
  5  6  1  0
  5 16  2  0
  6  7  1  0
  7  8  2  0
  7  9  1  0
  9 10  2  3
 10 11  1  0
 10 15  1  0
 11 12  1  0
 12 13  1  6
 12 14  1  0
 14 15  1  0
 16 17  1  0
 17 18  2  0
 18 19  1  0
M  END
