
     RDKit          3D

 19 20  0  0  0  0  0  0  0  0999 V2000
   -3.4720    1.5770    2.4840 O   0  0  0  0  0  0  0  0  0  0  0  0
   -2.5480    1.0950    1.7250 C   0  0  0  0  0  0  0  0  0  0  0  0
   -1.2720    1.5450    1.9890 O   0  0  0  0  0  0  0  0  0  0  0  0
   -2.8820    0.1640    0.6940 C   0  0  0  0  0  0  0  0  0  0  0  0
   -4.2660   -0.1140    0.5660 C   0  0  0  0  0  0  0  0  0  0  0  0
   -4.7070   -0.9510   -0.4000 C   0  0  0  0  0  0  0  0  0  0  0  0
   -3.8120   -1.5370   -1.2630 C   0  0  0  0  0  0  0  0  0  0  0  0
   -2.4470   -1.2460   -1.1150 C   0  0  0  0  0  0  0  0  0  0  0  0
   -1.9750   -0.3970   -0.1390 C   0  0  0  0  0  0  0  0  0  0  0  0
   -0.5920   -0.1890   -0.0100 N   0  0  0  0  0  0  0  0  0  0  0  0
    0.4280   -0.5820   -0.9090 C   0  0  0  0  0  0  0  0  0  0  0  0
    0.1790   -1.1720   -1.9490 O   0  0  0  0  0  0  0  0  0  0  0  0
    1.8550   -0.2580   -0.5640 C   0  0  2  0  0  0  0  0  0  0  0  0
    2.6560   -0.7370   -1.5820 O   0  0  0  0  0  0  0  0  0  0  0  0
    2.2320   -0.9190    0.7470 C   0  0  0  0  0  0  0  0  0  0  0  0
    3.6650   -0.6120    1.0540 C   0  0  0  0  0  0  0  0  0  0  0  0
    4.1940    0.2620    0.1020 O   0  0  0  0  0  0  0  0  0  0  0  0
    3.4660    1.4450    0.0840 C   0  0  0  0  0  0  0  0  0  0  0  0
    2.0330    1.2340   -0.3680 C   0  0  0  0  0  0  0  0  0  0  0  0
  1  2  2  0
  2  3  1  0
  2  4  1  0
  4  5  2  0
  4  9  1  0
  5  6  1  0
  6  7  2  0
  7  8  1  0
  8  9  2  0
  9 10  1  0
 10 11  1  0
 11 12  2  0
 11 13  1  0
 13 14  1  6
 13 15  1  0
 13 19  1  0
 15 16  1  0
 16 17  1  0
 17 18  1  0
 18 19  1  0
M  END
