
     RDKit          3D

 18 19  0  0  0  0  0  0  0  0999 V2000
   -4.2530   -1.1230   -0.2350 C   0  0  0  0  0  0  0  0  0  0  0  0
   -2.7670   -0.8850   -0.1450 C   0  0  0  0  0  0  0  0  0  0  0  0
   -1.8960   -1.9060    0.1040 C   0  0  0  0  0  0  0  0  0  0  0  0
   -0.5250   -1.6990    0.1890 C   0  0  0  0  0  0  0  0  0  0  0  0
    0.2310   -2.8360    0.4480 O   0  0  0  0  0  0  0  0  0  0  0  0
    0.0130   -0.4320    0.0220 C   0  0  0  0  0  0  0  0  0  0  0  0
    1.3940   -0.2710    0.1150 N   0  0  0  0  0  0  0  0  0  0  0  0
    2.0750    0.9580   -0.0330 C   0  0  0  0  0  0  0  0  0  0  0  0
    1.5000    2.0360   -0.2660 O   0  0  0  0  0  0  0  0  0  0  0  0
    3.5570    0.9170    0.1040 C   0  0  0  0  0  0  0  0  0  0  0  0
    4.3920    2.0040   -0.0070 C   0  0  0  0  0  0  0  0  0  0  0  0
    5.6010    1.5460    0.1760 O   0  0  0  0  0  0  0  0  0  0  0  0
    5.5790    0.2520    0.3930 C   0  0  0  0  0  0  0  0  0  0  0  0
    6.6050   -0.4530    0.6020 O   0  0  0  0  0  0  0  0  0  0  0  0
    4.3290   -0.1090    0.3450 O   0  0  0  0  0  0  0  0  0  0  0  0
   -0.8580    0.5930   -0.2280 C   0  0  0  0  0  0  0  0  0  0  0  0
   -2.2290    0.3640   -0.3100 C   0  0  0  0  0  0  0  0  0  0  0  0
   -3.1710    1.4880   -0.5820 C   0  0  0  0  0  0  0  0  0  0  0  0
  1  2  1  0
  2  3  2  0
  2 17  1  0
  3  4  1  0
  4  5  1  0
  4  6  2  0
  6  7  1  0
  6 16  1  0
  7  8  1  0
  8  9  2  0
  8 10  1  0
 10 11  2  0
 10 15  1  0
 11 12  1  0
 12 13  1  0
 13 14  2  0
 13 15  1  0
 16 17  2  0
 17 18  1  0
M  END
