
     RDKit          3D

 19 20  0  0  0  0  0  0  0  0999 V2000
    4.2900    1.2460   -0.1650 C   0  0  0  0  0  0  0  0  0  0  0  0
    3.8770   -0.1760   -0.0160 C   0  0  0  0  0  0  0  0  0  0  0  0
    2.4300   -0.3910    0.0230 C   0  0  0  0  0  0  0  0  0  0  0  0
    1.6220    0.6510   -0.0740 C   0  0  0  0  0  0  0  0  0  0  0  0
    0.1790    0.6980   -0.0620 C   0  0  0  0  0  0  0  0  0  0  0  0
   -0.6560   -0.3230    0.3590 C   0  0  0  0  0  0  0  0  0  0  0  0
   -2.0110   -0.0750    0.2890 C   0  0  0  0  0  0  0  0  0  0  0  0
   -2.8530   -1.1040    0.7140 O   0  0  0  0  0  0  0  0  0  0  0  0
   -3.3240   -2.0930   -0.1750 C   0  0  0  0  0  0  0  0  0  0  0  0
   -2.5100    1.1240   -0.1740 C   0  0  0  0  0  0  0  0  0  0  0  0
   -3.9470    1.3420   -0.2310 C   0  0  0  0  0  0  0  0  0  0  0  0
   -4.5070    2.5590   -0.7000 N   0  0  0  0  0  0  0  0  0  0  0  0
   -4.7310    0.4360    0.1440 O   0  0  0  0  0  0  0  0  0  0  0  0
   -1.6690    2.0570   -0.5610 O   0  0  0  0  0  0  0  0  0  0  0  0
   -0.3670    1.8770   -0.5170 C   0  0  0  0  0  0  0  0  0  0  0  0
    0.4130    2.7910   -0.8940 O   0  0  0  0  0  0  0  0  0  0  0  0
   -0.3200   -1.5750    0.8470 O   0  0  0  0  0  0  0  0  0  0  0  0
    0.9880   -2.0240    1.2390 C   0  0  0  0  0  0  0  0  0  0  0  0
    2.0060   -1.8060    0.1710 C   0  0  0  0  0  0  0  0  0  0  0  0
  1  2  1  0
  2  3  1  0
  3  4  2  0
  3 19  1  0
  4  5  1  0
  5  6  2  0
  5 15  1  0
  6  7  1  0
  6 17  1  0
  7  8  1  0
  7 10  2  0
  8  9  1  0
 10 11  1  0
 10 14  1  0
 11 12  1  0
 11 13  2  0
 14 15  1  0
 15 16  2  0
 17 18  1  0
 18 19  1  0
M  END
