
     RDKit          3D

 19 20  0  0  0  0  0  0  0  0999 V2000
   -2.3640    2.5320   -0.0660 C   0  0  0  0  0  0  0  0  0  0  0  0
   -2.7300    1.0700   -0.0130 C   0  0  0  0  0  0  0  0  0  0  0  0
   -4.0640    0.7290   -0.1320 C   0  0  0  0  0  0  0  0  0  0  0  0
   -5.0260    1.7180   -0.2960 O   0  0  0  0  0  0  0  0  0  0  0  0
   -4.4470   -0.5970   -0.0890 C   0  0  0  0  0  0  0  0  0  0  0  0
   -3.4830   -1.5770    0.0750 C   0  0  0  0  0  0  0  0  0  0  0  0
   -2.1380   -1.2240    0.1950 C   0  0  0  0  0  0  0  0  0  0  0  0
   -1.2090   -2.2380    0.3570 C   0  0  0  0  0  0  0  0  0  0  0  0
   -1.5330   -3.4490    0.4000 O   0  0  0  0  0  0  0  0  0  0  0  0
    0.1220   -1.8090    0.4710 C   0  0  0  0  0  0  0  0  0  0  0  0
    0.4550   -0.4840    0.4220 C   0  0  0  0  0  0  0  0  0  0  0  0
    1.8450   -0.0800    0.5440 C   0  0  0  0  0  0  0  0  0  0  0  0
    2.0760    1.1780    0.4880 O   0  0  0  0  0  0  0  0  0  0  0  0
    2.9150   -0.9660    0.7130 N   0  0  0  0  0  0  0  0  0  0  0  0
    4.2730   -0.4970    0.8230 C   0  0  0  0  0  0  0  0  0  0  0  0
    4.6980    0.2420   -0.4170 C   0  0  0  0  0  0  0  0  0  0  0  0
    6.0100    0.7040   -0.3290 O   0  0  0  0  0  0  0  0  0  0  0  0
   -0.5140    0.3970    0.2640 O   0  0  0  0  0  0  0  0  0  0  0  0
   -1.7640    0.1030    0.1510 C   0  0  0  0  0  0  0  0  0  0  0  0
  1  2  1  0
  2  3  2  0
  2 19  1  0
  3  4  1  0
  3  5  1  0
  5  6  2  0
  6  7  1  0
  7  8  1  0
  7 19  2  0
  8  9  2  0
  8 10  1  0
 10 11  2  0
 11 12  1  0
 11 18  1  0
 12 13  2  0
 12 14  1  0
 14 15  1  0
 15 16  1  0
 16 17  1  0
 18 19  1  0
M  END
