
     RDKit          3D

 22 23  0  0  0  0  0  0  0  0999 V2000
    8.6620    1.7750    0.6590 C   0  0  0  0  0  0  0  0  0  0  0  0
    7.3560    1.5890    0.0440 N   0  0  0  0  0  0  0  0  0  0  0  0
    6.6340    0.4050    0.2830 C   0  0  0  0  0  0  0  0  0  0  0  0
    7.1350   -0.4720    1.0280 O   0  0  0  0  0  0  0  0  0  0  0  0
    5.2970    0.1480   -0.3110 C   0  0  0  0  0  0  0  0  0  0  0  0
    4.7420   -1.1810    0.0980 C   0  0  0  0  0  0  0  0  0  0  0  0
    3.4490   -1.3890   -0.4920 N   0  0  0  0  0  0  0  0  0  0  0  0
    2.2660   -0.6800   -0.1270 C   0  0  0  0  0  0  0  0  0  0  0  0
    2.1500    0.2620    0.8640 C   0  0  0  0  0  0  0  0  0  0  0  0
    0.8540    0.6610    0.8480 N   0  0  0  0  0  0  0  0  0  0  0  0
    0.2040   -0.0090   -0.1120 C   0  0  0  0  0  0  0  0  0  0  0  0
   -1.2270    0.1100   -0.4820 C   0  0  0  0  0  0  0  0  0  0  0  0
   -2.1810   -1.0730    0.4970 S   0  0  0  0  0  0  0  0  0  0  0  0
   -3.9230   -0.9530    0.0720 C   0  0  0  0  0  0  0  0  0  0  0  0
   -4.7410   -0.0780    0.7630 C   0  0  0  0  0  0  0  0  0  0  0  0
   -6.0900    0.0610    0.4840 C   0  0  0  0  0  0  0  0  0  0  0  0
   -6.9650    1.0090    1.2360 C   0  0  0  0  0  0  0  0  0  0  0  0
   -6.5910   -0.7260   -0.5330 C   0  0  0  0  0  0  0  0  0  0  0  0
   -8.0270   -0.6580   -0.9180 C   0  0  0  0  0  0  0  0  0  0  0  0
   -5.7840   -1.6110   -1.2390 C   0  0  0  0  0  0  0  0  0  0  0  0
   -4.4830   -1.6810   -0.9010 N   0  0  0  0  0  0  0  0  0  0  0  0
    1.0690   -0.8040   -0.6800 O   0  0  0  0  0  0  0  0  0  0  0  0
  1  2  1  0
  2  3  1  0
  3  4  2  0
  3  5  1  0
  5  6  1  0
  6  7  1  0
  7  8  1  0
  8  9  2  0
  8 22  1  0
  9 10  1  0
 10 11  2  0
 11 12  1  0
 11 22  1  0
 12 13  1  0
 13 14  1  0
 14 15  2  0
 14 21  1  0
 15 16  1  0
 16 17  1  0
 16 18  2  0
 18 19  1  0
 18 20  1  0
 20 21  2  0
M  END
