
     RDKit          3D

 19 21  0  0  0  0  0  0  0  0999 V2000
   -1.4120    2.9730   -1.8630 C   0  0  0  0  0  0  0  0  0  0  0  0
   -2.2040    1.9070   -1.1600 C   0  0  0  0  0  0  0  0  0  0  0  0
   -3.5170    2.0450   -0.8230 N   0  0  0  0  0  0  0  0  0  0  0  0
   -3.9180    0.9320   -0.1890 N   0  0  0  0  0  0  0  0  0  0  0  0
   -2.8540    0.1040   -0.1270 C   0  0  0  0  0  0  0  0  0  0  0  0
   -2.8070   -1.2940    0.4420 C   0  0  1  0  0  0  0  0  0  0  0  0
   -3.2070   -1.3210    1.9300 C   0  0  0  0  0  0  0  0  0  0  0  0
   -4.1660   -1.8030    0.9050 C   0  0  0  0  0  0  0  0  0  0  0  0
   -1.7600    0.7050   -0.7380 C   0  0  0  0  0  0  0  0  0  0  0  0
   -0.3620    0.2710   -0.6710 C   0  0  0  0  0  0  0  0  0  0  0  0
    0.5340    0.9830    0.0480 N   0  0  0  0  0  0  0  0  0  0  0  0
    1.7420    0.2270    0.1350 C   0  0  0  0  0  0  0  0  0  0  0  0
    2.7360    0.6600    0.8330 C   0  0  0  0  0  0  0  0  0  0  0  0
    4.0290    0.4340    1.2860 C   0  0  0  0  0  0  0  0  0  0  0  0
    5.1560    0.7530    0.4380 N   0  0  0  0  0  0  0  0  0  0  0  0
    1.4800   -0.8810   -0.5550 C   0  0  0  0  0  0  0  0  0  0  0  0
    2.3280   -1.9050   -0.8020 C   0  0  0  0  0  0  0  0  0  0  0  0
    1.8670   -2.9760   -1.5570 O   0  0  0  0  0  0  0  0  0  0  0  0
    0.2410   -0.8600   -1.0370 N   0  0  0  0  0  0  0  0  0  0  0  0
  1  2  1  0
  2  3  2  0
  2  9  1  0
  3  4  1  0
  4  5  1  0
  6  5  1  6
  5  9  2  0
  6  7  1  0
  6  8  1  0
  7  8  1  0
  9 10  1  0
 10 11  2  0
 10 19  1  0
 11 12  1  0
 12 13  2  3
 12 16  1  0
 13 14  1  0
 14 15  1  0
 16 17  2  3
 16 19  1  0
 17 18  1  0
M  CHG  1  15   1
M  END
