
     RDKit          3D

  9  8  0  0  0  0  0  0  0  0999 V2000
   -1.8270   -0.2320   -1.0190 C   0  0  0  0  0  0  0  0  0  0  0  0
   -1.2020   -0.3380    0.3460 C   0  0  2  0  0  0  0  0  0  0  0  0
   -2.1750    0.2310    1.3570 C   0  0  0  0  0  0  0  0  0  0  0  0
    0.0840    0.4280    0.4650 C   0  0  0  0  0  0  0  0  0  0  0  0
    1.1290   -0.0640   -0.5230 C   0  0  2  0  0  0  0  0  0  0  0  0
    1.4100   -1.4560   -0.2780 N   0  0  0  0  0  0  0  0  0  0  0  0
    2.3450    0.7800   -0.2930 C   0  0  0  0  0  0  0  0  0  0  0  0
    3.4160    0.2410    0.0650 O   0  0  0  0  0  0  0  0  0  0  0  0
    2.2480    2.1450   -0.4860 O   0  0  0  0  0  0  0  0  0  0  0  0
  2  1  1  6
  2  3  1  0
  2  4  1  0
  4  5  1  0
  5  6  1  1
  5  7  1  0
  7  8  2  0
  7  9  1  0
M  CHG  1   6   1
M  END
