
     RDKit          3D

 22 23  0  0  0  0  0  0  0  0999 V2000
   -4.4600    1.4630   -0.6630 C   0  0  0  0  0  0  0  0  0  0  0  0
   -4.0550    0.0680   -1.1180 C   0  0  0  0  0  0  0  0  0  0  0  0
   -3.5110   -0.7450   -0.0130 C   0  0  0  0  0  0  0  0  0  0  0  0
   -4.2210   -1.7230    0.6520 C   0  0  0  0  0  0  0  0  0  0  0  0
   -3.3630   -2.2070    1.6080 C   0  0  0  0  0  0  0  0  0  0  0  0
   -3.6720   -3.2940    2.5950 C   0  0  0  0  0  0  0  0  0  0  0  0
   -2.2350   -1.5680    1.5180 O   0  0  0  0  0  0  0  0  0  0  0  0
   -2.2510   -0.6630    0.5530 C   0  0  0  0  0  0  0  0  0  0  0  0
   -1.1130    0.2410    0.1830 C   0  0  0  0  0  0  0  0  0  0  0  0
   -0.4450   -0.3470   -1.0340 C   0  0  0  0  0  0  0  0  0  0  0  0
    0.6660    0.4080   -1.5230 N   0  0  0  0  0  0  0  0  0  0  0  0
    0.5680    1.7580   -1.9680 C   0  0  0  0  0  0  0  0  0  0  0  0
   -0.5470    2.2950   -1.9230 O   0  0  0  0  0  0  0  0  0  0  0  0
    1.7980    2.4190   -2.4510 C   0  0  0  0  0  0  0  0  0  0  0  0
    3.2360    1.3270   -2.3460 S   0  0  0  0  0  0  0  0  0  0  0  0
    3.6540    0.9700   -0.6480 C   0  0  0  0  0  0  0  0  0  0  0  0
    2.9970    1.4450    0.3440 N   0  0  0  0  0  0  0  0  0  0  0  0
    3.3240    1.1660    1.6940 C   0  0  0  0  0  0  0  0  0  0  0  0
    4.3350    0.3920    2.0020 C   0  0  0  0  0  0  0  0  0  0  0  0
    5.1030   -0.1650    0.9430 N   0  0  0  0  0  0  0  0  0  0  0  0
    4.7640    0.1220   -0.3740 N   0  0  0  0  0  0  0  0  0  0  0  0
    5.5450   -0.4440   -1.4680 C   0  0  0  0  0  0  0  0  0  0  0  0
  1  2  1  0
  2  3  1  0
  3  4  1  0
  3  8  2  0
  4  5  2  0
  5  6  1  0
  5  7  1  0
  7  8  1  0
  8  9  1  0
  9 10  1  0
 10 11  1  0
 11 12  1  0
 12 13  2  0
 12 14  1  0
 14 15  1  0
 15 16  1  0
 16 17  2  0
 16 21  1  0
 17 18  1  0
 18 19  2  0
 19 20  1  0
 20 21  1  0
 21 22  1  0
M  END
