
     RDKit          3D

 19 21  0  0  0  0  0  0  0  0999 V2000
   -2.3970    0.2710    1.7040 N   0  0  0  0  0  0  0  0  0  0  0  0
   -3.0740    0.3940    0.5860 C   0  0  0  0  0  0  0  0  0  0  0  0
   -4.5230    0.2530    0.5360 C   0  0  0  0  0  0  0  0  0  0  0  0
   -5.0520    0.4250   -0.7850 N   0  0  0  0  0  0  0  0  0  0  0  0
   -4.3300    0.6760   -1.8130 C   0  0  0  0  0  0  0  0  0  0  0  0
   -2.8800    0.8160   -1.7560 C   0  0  0  0  0  0  0  0  0  0  0  0
   -2.2750    0.6780   -0.5860 C   0  0  0  0  0  0  0  0  0  0  0  0
   -0.7770    0.8140   -0.4840 C   0  0  0  0  0  0  0  0  0  0  0  0
   -0.2440   -0.4340    0.0230 N   0  0  0  0  0  0  0  0  0  0  0  0
    1.1470   -0.6350    0.2370 C   0  0  0  0  0  0  0  0  0  0  0  0
    1.6530   -1.8270    0.7210 C   0  0  0  0  0  0  0  0  0  0  0  0
    2.9950   -2.0350    0.9340 C   0  0  0  0  0  0  0  0  0  0  0  0
    3.8850   -1.0070    0.6510 C   0  0  0  0  0  0  0  0  0  0  0  0
    5.2240   -0.8970    0.7480 N   0  0  0  0  0  0  0  0  0  0  0  0
    5.5650    0.3350    0.3350 C   0  0  0  0  0  0  0  0  0  0  0  0
    6.7520    0.7470    0.3070 O   0  0  0  0  0  0  0  0  0  0  0  0
    4.4370    0.9950   -0.0190 N   0  0  0  0  0  0  0  0  0  0  0  0
    3.3740    0.1940    0.1630 C   0  0  0  0  0  0  0  0  0  0  0  0
    2.0320    0.3810   -0.0410 C   0  0  0  0  0  0  0  0  0  0  0  0
  1  2  2  0
  2  3  1  0
  2  7  1  0
  3  4  1  0
  4  5  2  0
  5  6  1  0
  6  7  2  0
  7  8  1  0
  8  9  1  0
  9 10  1  0
 10 11  2  0
 10 19  1  0
 11 12  1  0
 12 13  2  0
 13 14  1  0
 13 18  1  0
 14 15  1  0
 15 16  2  0
 15 17  1  0
 17 18  1  0
 18 19  2  0
M  CHG  1   4   1
M  END
