
     RDKit          3D

 22 23  0  0  0  0  0  0  0  0999 V2000
    6.6840   -1.1340    1.7180 C   0  0  0  0  0  0  0  0  0  0  0  0
    6.3960    0.1460    0.9810 C   0  0  0  0  0  0  0  0  0  0  0  0
    5.4010   -0.1690   -0.1250 C   0  0  0  0  0  0  0  0  0  0  0  0
    5.0530    1.0490   -0.9170 C   0  0  0  0  0  0  0  0  0  0  0  0
    4.0810    0.8030   -2.0260 C   0  0  0  0  0  0  0  0  0  0  0  0
    2.7740    0.3400   -1.5360 C   0  0  0  0  0  0  0  0  0  0  0  0
    2.5470    0.2360   -0.3190 O   0  0  0  0  0  0  0  0  0  0  0  0
    1.7160   -0.0060   -2.4290 N   0  0  0  0  0  0  0  0  0  0  0  0
    0.4430   -0.4390   -1.9290 C   0  0  0  0  0  0  0  0  0  0  0  0
   -0.1270   -0.6440   -0.9250 N   0  0  0  0  0  0  0  0  0  0  0  0
   -1.3710   -1.0490   -0.7710 C   0  0  0  0  0  0  0  0  0  0  0  0
   -2.0610   -1.2900    0.5590 C   0  0  0  0  0  0  0  0  0  0  0  0
   -2.6710    0.0030    0.9680 C   0  0  0  0  0  0  0  0  0  0  0  0
   -1.8530    0.9730    1.0920 O   0  0  0  0  0  0  0  0  0  0  0  0
   -4.0480    0.1940    1.2100 N   0  0  0  0  0  0  0  0  0  0  0  0
   -5.0020   -0.8730    1.0780 C   0  0  0  0  0  0  0  0  0  0  0  0
   -6.4200   -0.3220    1.0310 C   0  0  0  0  0  0  0  0  0  0  0  0
   -6.4200    0.8290    0.1570 N   0  0  0  0  0  0  0  0  0  0  0  0
   -5.5620    1.8940    0.5630 C   0  0  0  0  0  0  0  0  0  0  0  0
   -4.5230    1.4990    1.5950 C   0  0  0  0  0  0  0  0  0  0  0  0
   -2.0680   -1.2500   -1.9180 C   0  0  0  0  0  0  0  0  0  0  0  0
   -0.9080   -0.8490   -3.1730 S   0  0  0  0  0  0  0  0  0  0  0  0
  1  2  1  0
  2  3  1  0
  3  4  1  0
  4  5  1  0
  5  6  1  0
  6  7  2  0
  6  8  1  0
  8  9  1  0
  9 10  2  0
  9 22  1  0
 10 11  1  0
 11 12  1  0
 11 21  2  0
 12 13  1  0
 13 14  2  0
 13 15  1  0
 15 16  1  0
 15 20  1  0
 16 17  1  0
 17 18  1  0
 18 19  1  0
 19 20  1  0
 21 22  1  0
M  END
