
     RDKit          3D

 19 21  0  0  0  0  0  0  0  0999 V2000
   -5.4840    0.5730    1.0270 C   0  0  0  0  0  0  0  0  0  0  0  0
   -4.3350    0.4940    0.3850 C   0  0  0  0  0  0  0  0  0  0  0  0
   -2.9980    0.7150    0.9080 C   0  0  0  0  0  0  0  0  0  0  0  0
   -2.0990    0.5360   -0.0680 C   0  0  0  0  0  0  0  0  0  0  0  0
   -0.6330    0.6850    0.1250 C   0  0  0  0  0  0  0  0  0  0  0  0
    0.0270   -0.5640   -0.1840 N   0  0  0  0  0  0  0  0  0  0  0  0
    1.4240   -0.6710   -0.0740 C   0  0  0  0  0  0  0  0  0  0  0  0
    2.0530   -1.8510   -0.3660 C   0  0  0  0  0  0  0  0  0  0  0  0
    3.4150   -1.9320   -0.2520 C   0  0  0  0  0  0  0  0  0  0  0  0
    4.2020   -0.8710    0.1470 C   0  0  0  0  0  0  0  0  0  0  0  0
    5.4990   -0.6410    0.3480 N   0  0  0  0  0  0  0  0  0  0  0  0
    5.7110    0.6040    0.7440 N   0  0  0  0  0  0  0  0  0  0  0  0
    4.5220    1.2270    0.8110 C   0  0  0  0  0  0  0  0  0  0  0  0
    4.3170    2.4230    1.1500 O   0  0  0  0  0  0  0  0  0  0  0  0
    3.5470    0.3170    0.4380 C   0  0  0  0  0  0  0  0  0  0  0  0
    2.1670    0.4070    0.3250 C   0  0  0  0  0  0  0  0  0  0  0  0
   -2.7840    0.1930   -1.2650 N   0  0  0  0  0  0  0  0  0  0  0  0
   -4.1840    0.1560   -1.0220 C   0  0  0  0  0  0  0  0  0  0  0  0
   -5.1310   -0.1210   -1.8810 N   0  0  0  0  0  0  0  0  0  0  0  0
  1  2  2  0
  2  3  1  0
  2 18  1  0
  3  4  2  0
  4  5  1  0
  4 17  1  0
  5  6  1  0
  6  7  1  0
  7  8  2  0
  7 16  1  0
  8  9  1  0
  9 10  2  0
 10 11  1  0
 10 15  1  0
 11 12  1  0
 12 13  1  0
 13 14  2  0
 13 15  1  0
 15 16  2  0
 17 18  1  0
 18 19  2  0
M  CHG  1  19   1
M  END
