
     RDKit          3D

 22 23  0  0  0  0  0  0  0  0999 V2000
    5.2990    1.0130    0.6260 C   0  0  0  0  0  0  0  0  0  0  0  0
    5.2870    1.6190   -0.7210 C   0  0  0  0  0  0  0  0  0  0  0  0
    3.9870    1.7720   -1.4220 C   0  0  0  0  0  0  0  0  0  0  0  0
    3.2440    0.7120   -1.7190 O   0  0  0  0  0  0  0  0  0  0  0  0
    2.6770   -0.1150   -0.8370 C   0  0  0  0  0  0  0  0  0  0  0  0
    1.6540    0.4990    0.1010 C   0  0  0  0  0  0  0  0  0  0  0  0
    1.1290   -0.5540    0.9280 N   0  0  0  0  0  0  0  0  0  0  0  0
    0.0620   -1.3090    0.8390 C   0  0  0  0  0  0  0  0  0  0  0  0
   -1.0140   -1.3190   -0.0490 N   0  0  0  0  0  0  0  0  0  0  0  0
   -1.3260   -0.4980   -1.1700 C   0  0  1  0  0  0  0  0  0  0  0  0
   -0.4400   -0.7840   -2.3500 C   0  0  0  0  0  0  0  0  0  0  0  0
   -2.7530   -0.7710   -1.6630 C   0  0  0  0  0  0  0  0  0  0  0  0
   -3.7760   -0.4950   -0.6290 C   0  0  0  0  0  0  0  0  0  0  0  0
   -4.3560   -1.2530    0.2980 C   0  0  0  0  0  0  0  0  0  0  0  0
   -5.2700   -0.7440    1.1370 C   0  0  0  0  0  0  0  0  0  0  0  0
   -5.5690    0.6310    0.9700 C   0  0  0  0  0  0  0  0  0  0  0  0
   -6.5420    1.4500    1.7610 C   0  0  0  0  0  0  0  0  0  0  0  0
   -4.5370    1.1120   -0.3640 S   0  0  0  0  0  0  0  0  0  0  0  0
    0.0910   -2.2030    1.8990 N   0  0  0  0  0  0  0  0  0  0  0  0
    1.1600   -1.9750    2.6030 N   0  0  0  0  0  0  0  0  0  0  0  0
    1.8250   -0.9690    2.0390 C   0  0  0  0  0  0  0  0  0  0  0  0
    2.9030   -0.5270    2.5040 O   0  0  0  0  0  0  0  0  0  0  0  0
  1  2  1  0
  2  3  1  0
  3  4  1  0
  4  5  1  0
  5  6  1  0
  6  7  1  0
  7  8  1  0
  7 21  1  0
  8  9  1  0
  8 19  2  0
  9 10  1  0
 10 11  1  6
 10 12  1  0
 12 13  1  0
 13 14  2  0
 13 18  1  0
 14 15  1  0
 15 16  2  0
 16 17  1  0
 16 18  1  0
 19 20  1  0
 20 21  1  0
 21 22  2  0
M  END
