
     RDKit          3D

 22 23  0  0  0  0  0  0  0  0999 V2000
   -0.9770   -2.8380    0.2290 C   0  0  0  0  0  0  0  0  0  0  0  0
   -0.1900   -1.6200   -0.0710 C   0  0  0  0  0  0  0  0  0  0  0  0
   -0.8500   -0.5060   -0.1460 N   0  0  0  0  0  0  0  0  0  0  0  0
   -2.2460   -0.4440    0.0470 N   0  0  0  0  0  0  0  0  0  0  0  0
   -3.0690   -0.9610   -1.0160 C   0  0  0  0  0  0  0  0  0  0  0  0
   -2.8360    0.0990    1.2220 C   0  0  0  0  0  0  0  0  0  0  0  0
   -3.5700    1.3910    1.0630 C   0  0  1  0  0  0  0  0  0  0  0  0
   -4.7310    1.3550    0.1140 C   0  0  0  0  0  0  0  0  0  0  0  0
   -4.1240    1.8780    2.4070 C   0  0  0  0  0  0  0  0  0  0  0  0
    1.2600   -1.6200   -0.2800 C   0  0  0  0  0  0  0  0  0  0  0  0
    1.9990   -0.4690   -0.5600 C   0  0  0  0  0  0  0  0  0  0  0  0
    1.3930    1.1610   -0.7080 S   0  0  2  0  0  0  0  0  0  0  0  0
    0.6560    1.5760    0.5370 O   0  0  0  0  0  0  0  0  0  0  0  0
    0.4000    1.1780   -1.8350 O   0  0  0  0  0  0  0  0  0  0  0  0
    2.6330    2.2800   -1.0760 N   0  0  0  0  0  0  0  0  0  0  0  0
    3.6610    2.3830   -0.0930 C   0  0  1  0  0  0  0  0  0  0  0  0
    5.0870    2.4460   -0.6020 C   0  0  0  0  0  0  0  0  0  0  0  0
    4.4340    3.6350    0.1000 C   0  0  0  0  0  0  0  0  0  0  0  0
    3.2940   -0.9010   -0.6870 C   0  0  0  0  0  0  0  0  0  0  0  0
    3.3560   -2.2130   -0.5010 N   0  0  0  0  0  0  0  0  0  0  0  0
    2.1260   -2.6910   -0.2490 C   0  0  0  0  0  0  0  0  0  0  0  0
    1.7880   -4.1360    0.0140 C   0  0  0  0  0  0  0  0  0  0  0  0
  1  2  1  0
  2  3  2  3
  2 10  1  0
  3  4  1  0
  4  5  1  0
  4  6  1  0
  6  7  1  0
  7  8  1  6
  7  9  1  0
 10 11  1  0
 10 21  2  0
 11 12  1  0
 11 19  2  0
 12 13  2  0
 12 14  2  0
 12 15  1  6
 16 15  1  6
 16 17  1  0
 16 18  1  0
 17 18  1  0
 19 20  1  0
 20 21  1  0
 21 22  1  0
M  END
