
     RDKit          3D

 27 27  0  0  0  0  0  0  0  0999 V2000
    5.3330    1.2640    0.6770 C   0  0  0  0  0  0  0  0  0  0  0  0
    5.4750    0.7880   -0.7090 C   0  0  0  0  0  0  0  0  0  0  0  0
    6.9610    0.5740   -1.3270 S   0  0  0  0  0  0  0  0  0  0  0  0
    4.3450    0.5160   -1.5060 N   0  0  0  0  0  0  0  0  0  0  0  0
    3.0200    0.6720   -1.0570 N   0  0  0  0  0  0  0  0  0  0  0  0
    2.5590   -0.1040    0.0430 C   0  0  0  0  0  0  0  0  0  0  0  0
    3.3770   -0.9010    0.5620 O   0  0  0  0  0  0  0  0  0  0  0  0
    1.2070   -0.0260    0.5930 C   0  0  1  0  0  0  0  0  0  0  0  0
    1.0200    1.3820    1.1650 C   0  0  0  0  0  0  0  0  0  0  0  0
    0.1300   -0.2910   -0.4300 C   0  0  0  0  0  0  0  0  0  0  0  0
   -1.2090   -0.1850    0.2570 C   0  0  0  0  0  0  0  0  0  0  0  0
   -1.1890    0.0770    1.4460 O   0  0  0  0  0  0  0  0  0  0  0  0
   -2.3900   -0.4010   -0.5490 N   0  0  0  0  0  0  0  0  0  0  0  0
   -2.3410   -0.7100   -1.9660 C   0  0  0  0  0  0  0  0  0  0  0  0
   -3.7160   -0.8990   -2.3800 C   0  0  0  0  0  0  0  0  0  0  0  0
   -4.5020   -0.6820   -1.3470 C   0  0  0  0  0  0  0  0  0  0  0  0
   -5.8470   -0.7950   -1.4690 F   0  0  0  0  0  0  0  0  0  0  0  0
   -3.7390   -0.3560   -0.1390 C   0  0  0  0  0  0  0  0  0  0  0  0
   -4.2420   -0.1080    1.0660 C   0  0  0  0  0  0  0  0  0  0  0  0
   -3.3980    0.1440    2.1100 F   0  0  0  0  0  0  0  0  0  0  0  0
   -5.6770   -0.0820    1.3930 C   0  0  1  0  0  0  0  0  0  0  0  0
   -6.1250   -1.2660    1.9890 F   0  0  0  0  0  0  0  0  0  0  0  0
   -5.8340    0.8390    2.4810 F   0  0  0  0  0  0  0  0  0  0  0  0
   -6.5100    0.4160    0.4440 F   0  0  0  0  0  0  0  0  0  0  0  0
    1.0900   -0.9490    1.6990 N   0  0  0  0  0  0  0  0  0  0  0  0
    1.2780   -2.3300    1.6090 N   0  0  0  0  0  0  0  0  0  0  0  0
    1.6500   -3.1350    0.2890 S   0  0  0  0  0  0  0  0  0  0  0  0
  1  2  1  0
  2  3  2  0
  2  4  1  0
  4  5  1  0
  5  6  1  0
  6  7  2  0
  6  8  1  0
  8  9  1  1
  8 10  1  0
  8 25  1  0
 10 11  1  0
 11 12  2  0
 11 13  1  0
 13 14  1  0
 13 18  1  0
 14 15  1  0
 15 16  2  0
 16 17  1  0
 16 18  1  0
 18 19  2  3
 19 20  1  0
 19 21  1  0
 21 22  1  1
 21 23  1  0
 21 24  1  0
 25 26  1  0
 26 27  2  0
M  END
