
     RDKit          3D

 27 28  0  0  0  0  0  0  0  0999 V2000
    2.2340    4.8690   -1.2020 C   0  0  0  0  0  0  0  0  0  0  0  0
    2.0150    3.5460   -0.6580 N   0  0  0  0  0  0  0  0  0  0  0  0
    0.9800    2.6890   -1.0910 C   0  0  0  0  0  0  0  0  0  0  0  0
    0.2020    3.0630   -1.9820 O   0  0  0  0  0  0  0  0  0  0  0  0
    0.8340    1.3570   -0.4780 C   0  0  2  0  0  0  0  0  0  0  0  0
    2.1260    0.5670   -0.5480 C   0  0  0  0  0  0  0  0  0  0  0  0
    1.9950   -0.7810    0.0850 C   0  0  0  0  0  0  0  0  0  0  0  0
    1.3860   -1.8140   -0.5770 C   0  0  0  0  0  0  0  0  0  0  0  0
    0.8990   -1.6710   -1.8320 F   0  0  0  0  0  0  0  0  0  0  0  0
    1.2690   -3.0340    0.0290 C   0  0  0  0  0  0  0  0  0  0  0  0
    0.6630   -4.0520   -0.6380 F   0  0  0  0  0  0  0  0  0  0  0  0
    1.7440   -3.2680    1.2890 C   0  0  0  0  0  0  0  0  0  0  0  0
    1.6080   -4.4970    1.8560 F   0  0  0  0  0  0  0  0  0  0  0  0
    2.3510   -2.2290    1.9400 C   0  0  0  0  0  0  0  0  0  0  0  0
    2.8310   -2.4540    3.2040 F   0  0  0  0  0  0  0  0  0  0  0  0
    2.4770   -1.0140    1.3590 C   0  0  0  0  0  0  0  0  0  0  0  0
    3.0750    0.0340    1.9830 F   0  0  0  0  0  0  0  0  0  0  0  0
   -0.2850    0.7080   -1.0960 N   0  0  0  0  0  0  0  0  0  0  0  0
   -1.3350    0.1700   -0.3090 C   0  0  0  0  0  0  0  0  0  0  0  0
   -1.2830    0.2620    0.9460 O   0  0  0  0  0  0  0  0  0  0  0  0
   -2.4620   -0.4790   -0.8840 N   0  0  0  0  0  0  0  0  0  0  0  0
   -3.4690   -0.9890   -0.0310 C   0  0  0  0  0  0  0  0  0  0  0  0
   -3.4740   -0.9190    1.3910 N   0  0  0  0  0  0  0  0  0  0  0  0
   -4.4640   -1.4340    1.9440 N   0  0  0  0  0  0  0  0  0  0  0  0
   -5.4460   -1.9970    1.4700 C   0  0  0  0  0  0  0  0  0  0  0  0
   -6.9380   -2.7920    1.9260 S   0  0  0  0  0  0  0  0  0  0  0  0
   -4.9420   -1.8130   -0.3480 S   0  0  0  0  0  0  0  0  0  0  0  0
  1  2  1  0
  2  3  1  0
  3  4  2  0
  3  5  1  0
  5  6  1  6
  5 18  1  0
  6  7  1  0
  7  8  2  0
  7 16  1  0
  8  9  1  0
  8 10  1  0
 10 11  1  0
 10 12  2  0
 12 13  1  0
 12 14  1  0
 14 15  1  0
 14 16  2  0
 16 17  1  0
 18 19  1  0
 19 20  2  0
 19 21  1  0
 21 22  1  0
 22 23  2  0
 22 27  1  0
 23 24  1  0
 24 25  2  0
 25 26  1  0
 25 27  1  0
M  END
