
     RDKit          3D

 26 27  0  0  0  0  0  0  0  0999 V2000
    1.7280   -5.1880    1.7200 C   0  0  0  0  0  0  0  0  0  0  0  0
    1.9240   -3.5000    1.1460 S   0  0  0  0  0  0  0  0  0  0  0  0
    0.3300   -2.8370    0.6710 C   0  0  0  0  0  0  0  0  0  0  0  0
   -0.8360   -3.4690    0.7190 N   0  0  0  0  0  0  0  0  0  0  0  0
   -1.8000   -2.6580    0.2860 C   0  0  0  0  0  0  0  0  0  0  0  0
   -3.0990   -2.4790    0.0210 N   0  0  0  0  0  0  0  0  0  0  0  0
   -3.3180   -1.2770   -0.4390 N   0  0  0  0  0  0  0  0  0  0  0  0
   -2.1360   -0.5690   -0.5050 C   0  0  0  0  0  0  0  0  0  0  0  0
   -2.0590    0.8020   -0.9870 C   0  0  0  0  0  0  0  0  0  0  0  0
   -2.0670    1.9010   -0.0370 C   0  0  0  0  0  0  0  0  0  0  0  0
   -2.0770    1.6840    1.2770 C   0  0  0  0  0  0  0  0  0  0  0  0
   -2.0830    2.8040    2.1440 N   0  0  0  0  0  0  0  0  0  0  0  0
   -2.0510    1.0670   -2.2680 C   0  0  0  0  0  0  0  0  0  0  0  0
   -1.9810    2.3210   -2.7590 F   0  0  0  0  0  0  0  0  0  0  0  0
   -2.1160    0.0400   -3.1410 F   0  0  0  0  0  0  0  0  0  0  0  0
   -1.1740   -1.4450   -0.0470 C   0  0  0  0  0  0  0  0  0  0  0  0
    0.1510   -1.5590    0.1920 N   0  0  0  0  0  0  0  0  0  0  0  0
    1.1760   -0.6290   -0.0160 C   0  0  0  0  0  0  0  0  0  0  0  0
    2.3680   -0.9950    0.3220 O   0  0  0  0  0  0  0  0  0  0  0  0
    1.0950    0.7200   -0.5720 C   0  0  0  0  0  0  0  0  0  0  0  0
    2.3990    1.2910   -0.6240 O   0  0  0  0  0  0  0  0  0  0  0  0
    2.2770    2.5660   -1.1590 C   0  0  0  0  0  0  0  0  0  0  0  0
    3.6180    3.2440   -1.2440 C   0  0  1  0  0  0  0  0  0  0  0  0
    4.1090    3.3110    0.0650 F   0  0  0  0  0  0  0  0  0  0  0  0
    4.4510    2.4870   -2.0130 F   0  0  0  0  0  0  0  0  0  0  0  0
    3.4980    4.5050   -1.7870 F   0  0  0  0  0  0  0  0  0  0  0  0
  1  2  1  0
  2  3  1  0
  3  4  2  0
  3 17  1  0
  4  5  1  0
  5  6  1  0
  5 16  2  0
  6  7  1  0
  7  8  2  0
  8  9  1  0
  8 16  1  0
  9 10  1  0
  9 13  2  3
 10 11  2  3
 11 12  1  0
 13 14  1  0
 13 15  1  0
 16 17  1  0
 17 18  1  0
 18 19  2  0
 18 20  1  0
 20 21  1  0
 21 22  1  0
 22 23  1  0
 23 24  1  1
 23 25  1  0
 23 26  1  0
M  END
