
     RDKit          3D

 27 28  0  0  0  0  0  0  0  0999 V2000
   -3.9850    2.9370    1.1560 C   0  0  0  0  0  0  0  0  0  0  0  0
   -4.3970    1.9310    0.2010 N   0  0  0  0  0  0  0  0  0  0  0  0
   -3.5080    0.9510   -0.3410 C   0  0  0  0  0  0  0  0  0  0  0  0
   -3.7950   -0.3420   -0.1510 C   0  0  0  0  0  0  0  0  0  0  0  0
   -5.0320   -0.6650    0.6180 C   0  0  1  0  0  0  0  0  0  0  0  0
   -5.9470   -1.3690   -0.1780 F   0  0  0  0  0  0  0  0  0  0  0  0
   -4.7360   -1.4260    1.7560 F   0  0  0  0  0  0  0  0  0  0  0  0
   -2.9720   -1.3630   -0.6630 N   0  0  0  0  0  0  0  0  0  0  0  0
   -2.9430   -2.6550   -0.0100 C   0  0  1  0  0  0  0  0  0  0  0  0
   -2.0950   -3.5450   -0.6540 F   0  0  0  0  0  0  0  0  0  0  0  0
   -2.5240   -2.5950    1.3020 F   0  0  0  0  0  0  0  0  0  0  0  0
   -4.2080   -3.2100   -0.1210 F   0  0  0  0  0  0  0  0  0  0  0  0
   -2.1410   -1.1860   -1.8310 C   0  0  0  0  0  0  0  0  0  0  0  0
   -1.1630   -0.0500   -1.7360 C   0  0  2  0  0  0  0  0  0  0  0  0
   -0.1340   -0.3350   -0.7210 C   0  0  0  0  0  0  0  0  0  0  0  0
   -0.0790   -1.3730   -0.0370 O   0  0  0  0  0  0  0  0  0  0  0  0
    0.8980    0.6390   -0.4800 N   0  0  0  0  0  0  0  0  0  0  0  0
    1.8820    0.3900    0.4730 N   0  0  0  0  0  0  0  0  0  0  0  0
    3.2510    0.3730    0.0720 C   0  0  0  0  0  0  0  0  0  0  0  0
    3.5110    0.5840   -1.1280 O   0  0  0  0  0  0  0  0  0  0  0  0
    4.2940    0.1220    1.0070 N   0  0  0  0  0  0  0  0  0  0  0  0
    5.6400    0.1110    0.5820 C   0  0  0  0  0  0  0  0  0  0  0  0
    6.7930   -0.0970    1.2580 C   0  0  0  0  0  0  0  0  0  0  0  0
    7.9630   -0.0530    0.6060 C   0  0  0  0  0  0  0  0  0  0  0  0
    7.9680    0.2010   -0.7260 C   0  0  0  0  0  0  0  0  0  0  0  0
    6.1910    0.3910   -1.0870 S   0  0  0  0  0  0  0  0  0  0  0  0
   -2.0510    1.4320   -1.2510 S   0  0  0  0  0  0  0  0  0  0  0  0
  1  2  1  0
  2  3  1  0
  3  4  2  0
  3 27  1  0
  4  5  1  0
  4  8  1  0
  5  6  1  6
  5  7  1  0
  8  9  1  0
  8 13  1  0
  9 10  1  6
  9 11  1  0
  9 12  1  0
 13 14  1  0
 14 15  1  1
 14 27  1  0
 15 16  2  0
 15 17  1  0
 17 18  1  0
 18 19  1  0
 19 20  2  0
 19 21  1  0
 21 22  1  0
 22 23  2  0
 22 26  1  0
 23 24  1  0
 24 25  2  0
 25 26  1  0
M  END
