
     RDKit          3D

 27 28  0  0  0  0  0  0  0  0999 V2000
   -7.1810    3.2880    0.3780 O   0  0  0  0  0  0  0  0  0  0  0  0
   -6.7150    2.6000   -0.9000 S   0  0  0  0  0  0  0  0  0  0  0  0
   -5.2390    1.6650   -0.6140 C   0  0  0  0  0  0  0  0  0  0  0  0
   -3.9850    2.1690   -0.8200 C   0  0  0  0  0  0  0  0  0  0  0  0
   -2.8420    1.3950   -0.5810 C   0  0  0  0  0  0  0  0  0  0  0  0
   -2.9080    0.1010   -0.1310 C   0  0  0  0  0  0  0  0  0  0  0  0
   -1.8280   -0.7520    0.1530 N   0  0  0  0  0  0  0  0  0  0  0  0
   -0.4900   -0.3750    0.2450 C   0  0  0  0  0  0  0  0  0  0  0  0
   -0.1530    0.8350    0.0730 O   0  0  0  0  0  0  0  0  0  0  0  0
    0.5710   -1.2790    0.5300 N   0  0  0  0  0  0  0  0  0  0  0  0
    0.3010   -2.6700    0.7320 C   0  0  0  0  0  0  0  0  0  0  0  0
    0.3760   -3.4670   -0.5550 C   0  0  1  0  0  0  0  0  0  0  0  0
   -0.5230   -3.0290   -1.4890 F   0  0  0  0  0  0  0  0  0  0  0  0
    1.6400   -3.2630   -1.0750 F   0  0  0  0  0  0  0  0  0  0  0  0
    0.2510   -4.8170   -0.3270 F   0  0  0  0  0  0  0  0  0  0  0  0
    1.8900   -0.7810    0.6100 C   0  0  0  0  0  0  0  0  0  0  0  0
    2.9380   -1.4430    0.8530 N   0  0  0  0  0  0  0  0  0  0  0  0
    4.1380   -0.8210    0.8960 N   0  0  0  0  0  0  0  0  0  0  0  0
    4.1290    0.6140    1.0220 C   0  0  1  0  0  0  0  0  0  0  0  0
    5.1120    1.3090    0.1600 C   0  0  0  0  0  0  0  0  0  0  0  0
    5.8250    0.6050   -0.7000 C   0  0  0  0  0  0  0  0  0  0  0  0
    6.7350    1.2470   -1.4980 F   0  0  0  0  0  0  0  0  0  0  0  0
    5.2820    2.7110    0.2440 N   0  0  0  0  0  0  0  0  0  0  0  0
    4.5980    3.4940   -0.6030 F   0  0  0  0  0  0  0  0  0  0  0  0
    2.4210    0.9140    0.3970 S   0  0  0  0  0  0  0  0  0  0  0  0
   -4.2070   -0.3970    0.0730 C   0  0  0  0  0  0  0  0  0  0  0  0
   -5.3240    0.3640   -0.1620 C   0  0  0  0  0  0  0  0  0  0  0  0
  1  2  2  0
  2  3  1  0
  3  4  2  0
  3 27  1  0
  4  5  1  0
  5  6  2  0
  6  7  1  0
  6 26  1  0
  7  8  1  0
  8  9  2  0
  8 10  1  0
 10 11  1  0
 10 16  1  0
 11 12  1  0
 12 13  1  6
 12 14  1  0
 12 15  1  0
 16 17  2  0
 16 25  1  0
 17 18  1  0
 18 19  1  0
 19 20  1  6
 19 25  1  0
 20 21  2  3
 20 23  1  0
 21 22  1  0
 23 24  1  0
 26 27  2  0
M  END
