
     RDKit          3D

 27 28  0  0  0  0  0  0  0  0999 V2000
    1.1510   -0.2280   -0.9110 C   0  0  0  0  0  0  0  0  0  0  0  0
    1.1530   -0.6070    0.4460 N   0  0  0  0  0  0  0  0  0  0  0  0
    2.2380   -0.2000    1.2650 C   0  0  0  0  0  0  0  0  0  0  0  0
    3.5460   -0.8440    0.9420 C   0  0  1  0  0  0  0  0  0  0  0  0
    3.5090   -2.2240    0.9980 O   0  0  0  0  0  0  0  0  0  0  0  0
    4.1710   -0.3000   -0.2670 C   0  0  0  0  0  0  0  0  0  0  0  0
    4.3080   -1.0890   -1.3260 C   0  0  0  0  0  0  0  0  0  0  0  0
    4.8830   -0.6020   -2.4490 F   0  0  0  0  0  0  0  0  0  0  0  0
    3.8660   -2.3770   -1.2670 F   0  0  0  0  0  0  0  0  0  0  0  0
    4.6690    1.0960   -0.3590 C   0  0  2  0  0  0  0  0  0  0  0  0
    5.6390    1.2590    0.6390 F   0  0  0  0  0  0  0  0  0  0  0  0
    3.7110    2.0410   -0.1490 F   0  0  0  0  0  0  0  0  0  0  0  0
    5.2570    1.2750   -1.6020 F   0  0  0  0  0  0  0  0  0  0  0  0
   -0.0900   -0.3470    1.1490 C   0  0  1  0  0  0  0  0  0  0  0  0
   -0.4470    1.0250    1.1730 N   0  0  0  0  0  0  0  0  0  0  0  0
   -1.5160    1.6020    0.8410 C   0  0  0  0  0  0  0  0  0  0  0  0
   -1.5410    3.0380    0.9970 N   0  0  0  0  0  0  0  0  0  0  0  0
   -2.7020    0.9530    0.3240 C   0  0  0  0  0  0  0  0  0  0  0  0
   -2.8070   -0.4110    0.1260 C   0  0  0  0  0  0  0  0  0  0  0  0
   -3.9120   -0.9900   -0.3510 N   0  0  0  0  0  0  0  0  0  0  0  0
   -3.9710   -2.4270   -0.5410 C   0  0  0  0  0  0  0  0  0  0  0  0
   -4.9620   -0.2190   -0.6510 C   0  0  0  0  0  0  0  0  0  0  0  0
   -6.0230   -0.7450   -1.1050 O   0  0  0  0  0  0  0  0  0  0  0  0
   -4.9240    1.1120   -0.4830 N   0  0  0  0  0  0  0  0  0  0  0  0
   -3.8150    1.7190   -0.0010 C   0  0  0  0  0  0  0  0  0  0  0  0
   -3.7650    3.3290    0.2020 S   0  0  0  0  0  0  0  0  0  0  0  0
   -1.3990   -1.4250    0.5300 S   0  0  0  0  0  0  0  0  0  0  0  0
  1  2  1  0
  2  3  1  0
 14  2  1  6
  3  4  1  0
  4  5  1  6
  4  6  1  0
  6  7  2  3
  6 10  1  0
  7  8  1  0
  7  9  1  0
 10 11  1  1
 10 12  1  0
 10 13  1  0
 14 15  1  0
 14 27  1  0
 15 16  2  0
 16 17  1  0
 16 18  1  0
 18 19  2  0
 18 25  1  0
 19 20  1  0
 19 27  1  0
 20 21  1  0
 20 22  1  0
 22 23  2  0
 22 24  1  0
 24 25  1  0
 25 26  2  0
M  END
