
     RDKit          3D

 27 27  0  0  0  0  0  0  0  0999 V2000
   -5.0420   -1.5600    0.8180 C   0  0  0  0  0  0  0  0  0  0  0  0
   -4.5480   -0.1780    0.6570 C   0  0  0  0  0  0  0  0  0  0  0  0
   -3.2810    0.1250    0.2800 C   0  0  0  0  0  0  0  0  0  0  0  0
   -2.3870   -0.9920    0.0280 C   0  0  0  0  0  0  0  0  0  0  0  0
   -2.8640   -2.2140    0.0050 N   0  0  0  0  0  0  0  0  0  0  0  0
   -2.0870   -3.3740   -0.2330 C   0  0  0  0  0  0  0  0  0  0  0  0
   -0.6550   -3.1720   -0.2330 N   0  0  0  0  0  0  0  0  0  0  0  0
   -0.1460   -1.8940   -0.2000 N   0  0  0  0  0  0  0  0  0  0  0  0
   -0.9460   -0.8650   -0.0780 C   0  0  0  0  0  0  0  0  0  0  0  0
   -0.3190    0.4270    0.0790 N   0  0  0  0  0  0  0  0  0  0  0  0
    0.9160    0.6460   -0.5530 N   0  0  0  0  0  0  0  0  0  0  0  0
    2.1180   -0.0330   -0.1730 C   0  0  0  0  0  0  0  0  0  0  0  0
    2.0810   -0.8560    0.7680 O   0  0  0  0  0  0  0  0  0  0  0  0
    3.4110    0.2390   -0.8980 C   0  0  0  0  0  0  0  0  0  0  0  0
    4.6730   -0.8240   -0.1750 S   0  0  0  0  0  0  0  0  0  0  0  0
    5.0730   -0.3750    1.5170 C   0  0  0  0  0  0  0  0  0  0  0  0
    5.8010    0.9020    1.5340 C   0  0  0  0  0  0  0  0  0  0  0  0
    6.2150    1.5470    0.2740 C   0  0  0  0  0  0  0  0  0  0  0  0
    6.0700    1.4330    2.6020 O   0  0  0  0  0  0  0  0  0  0  0  0
   -2.9470    1.7550   -0.1240 S   0  0  0  0  0  0  0  0  0  0  0  0
   -3.6950    2.8380    0.6840 C   0  0  0  0  0  0  0  0  0  0  0  0
   -3.4900    4.1770    0.4270 F   0  0  0  0  0  0  0  0  0  0  0  0
   -4.5710    2.5790    1.6770 F   0  0  0  0  0  0  0  0  0  0  0  0
   -2.4950    2.1990   -1.7390 C   0  0  1  0  0  0  0  0  0  0  0  0
   -1.3980    1.6670   -2.3160 F   0  0  0  0  0  0  0  0  0  0  0  0
   -3.5710    1.9180   -2.6310 F   0  0  0  0  0  0  0  0  0  0  0  0
   -2.4100    3.6030   -1.8200 F   0  0  0  0  0  0  0  0  0  0  0  0
  1  2  1  0
  2  3  2  3
  3  4  1  0
 20  3  1  6
  4  5  2  0
  4  9  1  0
  5  6  1  0
  6  7  1  0
  7  8  1  0
  8  9  2  0
  9 10  1  0
 10 11  1  0
 11 12  1  0
 12 13  2  0
 12 14  1  0
 14 15  1  0
 15 16  1  0
 16 17  1  0
 17 18  1  0
 17 19  2  0
 20 21  2  3
 20 24  1  0
 21 22  1  0
 21 23  1  0
 24 25  1  6
 24 26  1  0
 24 27  1  0
M  END
