
     RDKit          3D

 27 28  0  0  0  0  0  0  0  0999 V2000
   -0.9700   -2.4610    0.3320 C   0  0  0  0  0  0  0  0  0  0  0  0
   -1.6770   -2.2000   -0.6920 C   0  0  0  0  0  0  0  0  0  0  0  0
   -2.3530   -3.2890   -1.3500 N   0  0  0  0  0  0  0  0  0  0  0  0
   -3.5710   -3.8310   -0.7960 C   0  0  2  0  0  0  0  0  0  0  0  0
   -4.0910   -4.8090   -1.6140 F   0  0  0  0  0  0  0  0  0  0  0  0
   -4.4990   -2.8490   -0.4720 F   0  0  0  0  0  0  0  0  0  0  0  0
   -3.2570   -4.4900    0.4070 F   0  0  0  0  0  0  0  0  0  0  0  0
   -1.8460   -0.8130   -1.2380 C   0  0  0  0  0  0  0  0  0  0  0  0
   -2.6140   -0.6560   -2.2690 C   0  0  0  0  0  0  0  0  0  0  0  0
   -2.8360    0.6380   -2.8610 C   0  0  0  0  0  0  0  0  0  0  0  0
   -3.6280    0.8210   -3.9300 C   0  0  0  0  0  0  0  0  0  0  0  0
   -3.7870    2.0520   -4.4300 F   0  0  0  0  0  0  0  0  0  0  0  0
   -4.2390   -0.2370   -4.4570 F   0  0  0  0  0  0  0  0  0  0  0  0
   -1.1550    0.1720   -0.5490 N   0  0  0  0  0  0  0  0  0  0  0  0
   -0.0520    0.9510   -1.0310 C   0  0  0  0  0  0  0  0  0  0  0  0
    0.7940    1.2950    0.1910 C   0  0  0  0  0  0  0  0  0  0  0  0
    2.0760    1.7200    0.2000 N   0  0  0  0  0  0  0  0  0  0  0  0
    2.4620    1.9040    1.4940 C   0  0  0  0  0  0  0  0  0  0  0  0
    3.7990    2.3540    1.8800 C   0  0  1  0  0  0  0  0  0  0  0  0
    3.7630    3.5920    3.2190 S   0  0  0  0  0  0  0  0  0  0  0  0
    5.1020    2.9190    4.1810 C   0  0  0  0  0  0  0  0  0  0  0  0
    5.7530    3.5540    5.5050 S   0  0  0  0  0  0  0  0  0  0  0  0
    5.4590    1.7210    3.5380 N   0  0  0  0  0  0  0  0  0  0  0  0
    4.5470    1.2590    2.5930 C   0  0  0  0  0  0  0  0  0  0  0  0
    4.2990    0.0290    2.2870 O   0  0  0  0  0  0  0  0  0  0  0  0
    1.3910    1.5830    2.2200 N   0  0  0  0  0  0  0  0  0  0  0  0
    0.4160    1.2250    1.4370 O   0  0  0  0  0  0  0  0  0  0  0  0
  1  2  2  0
  2  3  1  0
  2  8  1  0
  3  4  1  0
  4  5  1  6
  4  6  1  0
  4  7  1  0
  8  9  2  3
  8 14  1  0
  9 10  1  0
 10 11  2  3
 11 12  1  0
 11 13  1  0
 14 15  1  0
 15 16  1  0
 16 17  2  0
 16 27  1  0
 17 18  1  0
 19 18  1  1
 18 26  2  0
 19 20  1  0
 19 24  1  0
 20 21  1  0
 21 22  2  0
 21 23  1  0
 23 24  1  0
 24 25  2  0
 26 27  1  0
M  END
