
     RDKit          3D

 27 28  0  0  0  0  0  0  0  0999 V2000
   -0.2360    2.4990    0.3120 N   0  0  0  0  0  0  0  0  0  0  0  0
   -1.2770    1.6330    0.7440 C   0  0  0  0  0  0  0  0  0  0  0  0
   -1.9260    1.9670    1.8590 C   0  0  0  0  0  0  0  0  0  0  0  0
   -1.5710    3.0950    2.5200 F   0  0  0  0  0  0  0  0  0  0  0  0
   -3.0230    1.1750    2.4280 C   0  0  0  0  0  0  0  0  0  0  0  0
   -4.0870    0.4420    1.1560 S   0  0  0  0  0  0  0  0  0  0  0  0
   -3.0350    0.2340   -0.2680 C   0  0  0  0  0  0  0  0  0  0  0  0
   -3.5900   -0.0780   -1.4200 C   0  0  0  0  0  0  0  0  0  0  0  0
   -5.0540   -0.2580   -1.5550 C   0  0  0  0  0  0  0  0  0  0  0  0
   -5.6240    0.6140   -2.4560 F   0  0  0  0  0  0  0  0  0  0  0  0
   -1.5780    0.4320   -0.0490 C   0  0  2  0  0  0  0  0  0  0  0  0
   -1.1200   -0.7860    0.6260 N   0  0  0  0  0  0  0  0  0  0  0  0
   -0.1960   -1.6820   -0.0040 C   0  0  0  0  0  0  0  0  0  0  0  0
    0.1880   -1.3540   -1.1530 O   0  0  0  0  0  0  0  0  0  0  0  0
    0.2650   -2.9170    0.6770 C   0  0  0  0  0  0  0  0  0  0  0  0
    1.7540   -2.6870    1.6520 S   0  0  0  0  0  0  0  0  0  0  0  0
    3.1510   -2.3300    0.6300 C   0  0  0  0  0  0  0  0  0  0  0  0
    3.9980   -3.1960    0.0730 N   0  0  0  0  0  0  0  0  0  0  0  0
    4.9220   -2.5120   -0.6200 N   0  0  0  0  0  0  0  0  0  0  0  0
    4.6430   -1.2450   -0.4890 N   0  0  0  0  0  0  0  0  0  0  0  0
    3.5590   -1.0450    0.2720 C   0  0  0  0  0  0  0  0  0  0  0  0
    2.9720    0.1160    0.6310 O   0  0  0  0  0  0  0  0  0  0  0  0
    3.3570    1.3960    0.2840 C   0  0  0  0  0  0  0  0  0  0  0  0
    3.3110    1.6690   -1.1940 C   0  0  2  0  0  0  0  0  0  0  0  0
    2.0110    1.4790   -1.6510 F   0  0  0  0  0  0  0  0  0  0  0  0
    4.1380    0.8220   -1.8750 F   0  0  0  0  0  0  0  0  0  0  0  0
    3.7170    2.9750   -1.4570 F   0  0  0  0  0  0  0  0  0  0  0  0
  1  2  1  0
  2  3  2  0
  2 11  1  0
  3  4  1  0
  3  5  1  0
  5  6  1  0
  6  7  1  0
  7  8  2  3
  7 11  1  0
  8  9  1  0
  9 10  1  0
 11 12  1  1
 12 13  1  0
 13 14  2  0
 13 15  1  0
 15 16  1  0
 16 17  1  0
 17 18  2  0
 17 21  1  0
 18 19  1  0
 19 20  1  0
 20 21  2  0
 21 22  1  0
 22 23  1  0
 23 24  1  0
 24 25  1  6
 24 26  1  0
 24 27  1  0
M  END
