
     RDKit          3D

 27 28  0  0  0  0  0  0  0  0999 V2000
   -5.3480    0.3330    1.9240 C   0  0  0  0  0  0  0  0  0  0  0  0
   -4.1680   -0.0490    1.0740 C   0  0  0  0  0  0  0  0  0  0  0  0
   -3.7680    0.5280   -0.1510 C   0  0  0  0  0  0  0  0  0  0  0  0
   -4.3310    1.4150   -0.9110 C   0  0  0  0  0  0  0  0  0  0  0  0
   -5.5970    2.1110   -0.7220 C   0  0  2  0  0  0  0  0  0  0  0  0
   -5.4670    3.1830    0.1520 F   0  0  0  0  0  0  0  0  0  0  0  0
   -6.6660    1.3240   -0.4000 F   0  0  0  0  0  0  0  0  0  0  0  0
   -5.9670    2.6630   -1.9880 F   0  0  0  0  0  0  0  0  0  0  0  0
   -2.4570    0.0920   -0.6780 N   0  0  0  0  0  0  0  0  0  0  0  0
   -1.3080    0.5560   -0.0410 C   0  0  0  0  0  0  0  0  0  0  0  0
   -1.4640    1.3320    0.9500 O   0  0  0  0  0  0  0  0  0  0  0  0
    0.0300    0.2300   -0.4110 N   0  0  0  0  0  0  0  0  0  0  0  0
    1.1650    0.6890    0.2870 C   0  0  0  0  0  0  0  0  0  0  0  0
    1.1270    1.4550    1.3050 O   0  0  0  0  0  0  0  0  0  0  0  0
    2.4350    0.2410   -0.2170 C   0  0  0  0  0  0  0  0  0  0  0  0
    3.6300    0.6800   -0.1140 N   0  0  0  0  0  0  0  0  0  0  0  0
    4.7160   -0.0240   -0.7600 C   0  0  2  0  0  0  0  0  0  0  0  0
    4.4700   -1.4460   -0.6210 N   0  0  0  0  0  0  0  0  0  0  0  0
    5.8080   -2.0030   -0.6940 C   0  0  0  0  0  0  0  0  0  0  0  0
    6.6480   -1.0050    0.0450 C   0  0  0  0  0  0  0  0  0  0  0  0
    5.9880    0.2510   -0.1760 N   0  0  0  0  0  0  0  0  0  0  0  0
    1.9840   -1.2510   -1.1480 S   0  0  0  0  0  0  0  0  0  0  0  0
    0.3230   -0.5990   -1.4970 C   0  0  0  0  0  0  0  0  0  0  0  0
   -0.4830   -0.9810   -2.8340 S   0  0  0  0  0  0  0  0  0  0  0  0
   -3.4250   -1.0170    1.6540 C   0  0  0  0  0  0  0  0  0  0  0  0
   -2.3410   -1.4780    1.0260 F   0  0  0  0  0  0  0  0  0  0  0  0
   -3.7910   -1.5110    2.8710 F   0  0  0  0  0  0  0  0  0  0  0  0
  1  2  1  0
  2  3  1  0
  2 25  2  3
  3  4  2  3
  3  9  1  0
  4  5  1  0
  5  6  1  1
  5  7  1  0
  5  8  1  0
  9 10  1  0
 10 11  2  0
 10 12  1  0
 12 13  1  0
 12 23  1  0
 13 14  2  0
 13 15  1  0
 15 16  2  3
 15 22  1  0
 17 16  1  1
 17 18  1  0
 17 21  1  0
 18 19  1  0
 19 20  1  0
 20 21  1  0
 22 23  1  0
 23 24  2  0
 25 26  1  0
 25 27  1  0
M  END
