
     RDKit          3D

 28 29  0  0  0  0  0  0  0  0999 V2000
   -3.4220   -4.8270    0.8920 N   0  0  0  0  0  0  0  0  0  0  0  0
   -3.5260   -3.6680    1.0250 C   0  0  0  0  0  0  0  0  0  0  0  0
   -3.6840   -2.1990    1.1870 C   0  0  0  0  0  0  0  0  0  0  0  0
   -3.2180   -1.5500   -0.0620 C   0  0  0  0  0  0  0  0  0  0  0  0
   -3.2990   -0.0420   -0.0900 C   0  0  2  0  0  0  0  0  0  0  0  0
   -2.5240    0.5530    0.9630 N   0  0  0  0  0  0  0  0  0  0  0  0
   -1.2520    1.1040    0.5200 C   0  0  0  0  0  0  0  0  0  0  0  0
   -0.1320    0.7390    1.4710 C   0  0  1  0  0  0  0  0  0  0  0  0
    0.2200   -0.6540    1.7430 C   0  0  0  0  0  0  0  0  0  0  0  0
    1.0850    0.0970    0.7930 C   0  0  2  0  0  0  0  0  0  0  0  0
    2.4510    0.5240    1.2670 C   0  0  0  0  0  0  0  0  0  0  0  0
    3.4740   -0.2080    0.4880 C   0  0  0  0  0  0  0  0  0  0  0  0
    3.1340   -0.9990   -0.4230 O   0  0  0  0  0  0  0  0  0  0  0  0
    4.8540   -0.0340    0.7520 N   0  0  0  0  0  0  0  0  0  0  0  0
    5.8060   -0.7200    0.0200 N   0  0  0  0  0  0  0  0  0  0  0  0
    6.8200   -0.0270   -0.7110 C   0  0  0  0  0  0  0  0  0  0  0  0
    6.8640    1.2370   -0.7010 O   0  0  0  0  0  0  0  0  0  0  0  0
    7.7710   -0.7570   -1.4430 N   0  0  0  0  0  0  0  0  0  0  0  0
    8.8200   -0.1090   -2.2010 C   0  0  0  0  0  0  0  0  0  0  0  0
    9.6730    0.7030   -1.3600 N   0  0  0  0  0  0  0  0  0  0  0  0
   -4.6330    0.4860   -0.3230 C   0  0  0  0  0  0  0  0  0  0  0  0
   -5.7370   -0.2960   -0.5760 C   0  0  0  0  0  0  0  0  0  0  0  0
   -6.9910    0.2370   -0.7930 C   0  0  0  0  0  0  0  0  0  0  0  0
   -8.0820   -0.6150   -1.0460 N   0  0  0  0  0  0  0  0  0  0  0  0
   -7.1910    1.5860   -0.7660 C   0  0  0  0  0  0  0  0  0  0  0  0
   -6.1270    2.3900   -0.5220 C   0  0  0  0  0  0  0  0  0  0  0  0
   -4.8550    1.8540   -0.3010 C   0  0  0  0  0  0  0  0  0  0  0  0
   -3.8380    2.7670   -0.0650 O   0  0  0  0  0  0  0  0  0  0  0  0
  1  2  3  0
  2  3  1  0
  3  4  1  0
  5  4  1  1
  5  6  1  0
  5 21  1  0
  6  7  1  0
  8  7  1  6
  8  9  1  0
  8 10  1  0
  9 10  1  0
 10 11  1  1
 11 12  1  0
 12 13  2  0
 12 14  1  0
 14 15  1  0
 15 16  1  0
 16 17  2  0
 16 18  1  0
 18 19  1  0
 19 20  1  0
 21 22  2  0
 21 27  1  0
 22 23  1  0
 23 24  1  0
 23 25  2  0
 25 26  1  0
 26 27  2  0
 27 28  1  0
M  CHG  2   6   1  20   1
M  END
