
     RDKit          3D

 28 29  0  0  0  0  0  0  0  0999 V2000
    7.1860    2.1580    1.1530 C   0  0  0  0  0  0  0  0  0  0  0  0
    7.4820    0.7210    0.9570 C   0  0  0  0  0  0  0  0  0  0  0  0
    6.9760   -0.0350    0.0160 C   0  0  0  0  0  0  0  0  0  0  0  0
    6.0660    0.5040   -0.9140 N   0  0  0  0  0  0  0  0  0  0  0  0
    4.7960   -0.1070   -1.0470 C   0  0  0  0  0  0  0  0  0  0  0  0
    4.5300   -1.1130   -0.3270 O   0  0  0  0  0  0  0  0  0  0  0  0
    3.7750    0.3090   -1.9320 N   0  0  0  0  0  0  0  0  0  0  0  0
    2.5670   -0.3760   -2.0090 N   0  0  0  0  0  0  0  0  0  0  0  0
    1.3630    0.0810   -1.4070 C   0  0  0  0  0  0  0  0  0  0  0  0
    1.3210    1.1360   -0.7710 O   0  0  0  0  0  0  0  0  0  0  0  0
    0.2150   -0.7170   -1.5590 N   0  0  0  0  0  0  0  0  0  0  0  0
   -1.0740   -0.4740   -1.0480 C   0  0  0  0  0  0  0  0  0  0  0  0
   -2.0500   -1.4570   -1.2110 C   0  0  0  0  0  0  0  0  0  0  0  0
   -3.3390   -1.3430   -0.7470 C   0  0  0  0  0  0  0  0  0  0  0  0
   -3.7240   -0.1790   -0.0690 C   0  0  0  0  0  0  0  0  0  0  0  0
   -2.7800    0.8200    0.1100 C   0  0  0  0  0  0  0  0  0  0  0  0
   -1.4800    0.6550   -0.3800 C   0  0  0  0  0  0  0  0  0  0  0  0
   -3.0620    1.9470    0.7340 C   0  0  0  0  0  0  0  0  0  0  0  0
   -2.0710    2.9450    0.8990 N   0  0  0  0  0  0  0  0  0  0  0  0
   -4.3940    2.2120    1.2730 C   0  0  0  0  0  0  0  0  0  0  0  0
   -5.3880    1.1640    1.0870 C   0  0  0  0  0  0  0  0  0  0  0  0
   -4.9750   -0.0830    0.3450 C   0  0  0  0  0  0  0  0  0  0  0  0
   -6.0190   -1.1410    0.1570 C   0  0  2  0  0  0  0  0  0  0  0  0
   -6.1770   -2.0550    1.3320 C   0  0  0  0  0  0  0  0  0  0  0  0
   -6.2340   -1.6670   -1.1280 N   0  0  0  0  0  0  0  0  0  0  0  0
    7.3520   -1.4310   -0.0760 C   0  0  0  0  0  0  0  0  0  0  0  0
    8.2870   -1.9710    0.8770 N   0  0  0  0  0  0  0  0  0  0  0  0
    6.8700   -2.1470   -0.9680 O   0  0  0  0  0  0  0  0  0  0  0  0
  1  2  1  0
  2  3  2  3
  3  4  1  0
  3 26  1  0
  4  5  1  0
  5  6  2  0
  5  7  1  0
  7  8  1  0
  8  9  1  0
  9 10  2  0
  9 11  1  0
 11 12  1  0
 12 13  1  0
 12 17  2  0
 13 14  2  0
 14 15  1  0
 15 16  1  0
 15 22  2  0
 16 17  1  0
 16 18  2  0
 18 19  1  0
 18 20  1  0
 20 21  1  0
 21 22  1  0
 22 23  1  0
 23 24  1  1
 23 25  1  0
 26 27  1  0
 26 28  2  0
M  CHG  1  25   1
M  END
