
     RDKit          3D

 28 29  0  0  0  0  0  0  0  0999 V2000
    5.5310    0.7590   -4.0150 C   0  0  0  0  0  0  0  0  0  0  0  0
    4.8000    0.6450   -2.8140 O   0  0  0  0  0  0  0  0  0  0  0  0
    5.4700    0.6370   -1.6040 C   0  0  0  0  0  0  0  0  0  0  0  0
    6.8270    0.7370   -1.5530 C   0  0  0  0  0  0  0  0  0  0  0  0
    7.4650    0.7270   -0.3740 N   0  0  0  0  0  0  0  0  0  0  0  0
    6.7950    0.6200    0.7860 C   0  0  0  0  0  0  0  0  0  0  0  0
    7.4500    0.6080    2.0460 N   0  0  0  0  0  0  0  0  0  0  0  0
    5.3980    0.5150    0.7640 C   0  0  0  0  0  0  0  0  0  0  0  0
    4.7220    0.5230   -0.4290 C   0  0  0  0  0  0  0  0  0  0  0  0
    3.3250    0.4210   -0.5300 N   0  0  0  0  0  0  0  0  0  0  0  0
    2.4110    0.3050    0.5190 C   0  0  0  0  0  0  0  0  0  0  0  0
    2.8010    0.2830    1.7040 O   0  0  0  0  0  0  0  0  0  0  0  0
    0.9290    0.2040    0.2700 C   0  0  0  0  0  0  0  0  0  0  0  0
    0.2130    0.0920    1.5730 C   0  0  0  0  0  0  0  0  0  0  0  0
   -1.2870   -0.0090    1.4520 C   0  0  0  0  0  0  0  0  0  0  0  0
   -1.7520   -1.1970    0.6740 C   0  0  1  0  0  0  0  0  0  0  0  0
   -1.3270   -2.5020    1.2510 C   0  0  0  0  0  0  0  0  0  0  0  0
   -1.7420   -2.8190    2.5580 N   0  0  0  0  0  0  0  0  0  0  0  0
   -3.1350   -1.1210    0.2720 N   0  0  0  0  0  0  0  0  0  0  0  0
   -4.0800   -1.0770    1.3160 C   0  0  0  0  0  0  0  0  0  0  0  0
   -5.4430   -0.9230    0.7310 C   0  0  0  0  0  0  0  0  0  0  0  0
   -5.6010    0.0650   -0.1370 C   0  0  0  0  0  0  0  0  0  0  0  0
   -6.8840    0.3020   -0.7640 C   0  0  0  0  0  0  0  0  0  0  0  0
   -7.1610    1.3150   -1.6910 N   0  0  0  0  0  0  0  0  0  0  0  0
   -7.8920   -0.4510   -0.4820 O   0  0  0  0  0  0  0  0  0  0  0  0
   -4.3970    0.8660   -0.3950 C   0  0  2  0  0  0  0  0  0  0  0  0
   -4.5080    1.8800   -1.3830 N   0  0  0  0  0  0  0  0  0  0  0  0
   -3.3240   -0.1620   -0.7910 C   0  0  0  0  0  0  0  0  0  0  0  0
  1  2  1  0
  2  3  1  0
  3  4  2  0
  3  9  1  0
  4  5  1  0
  5  6  2  0
  6  7  1  0
  6  8  1  0
  8  9  2  0
  9 10  1  0
 10 11  1  0
 11 12  2  0
 11 13  1  0
 13 14  1  0
 14 15  1  0
 16 15  1  1
 16 17  1  0
 16 19  1  0
 17 18  1  0
 19 20  1  0
 19 28  1  0
 20 21  1  0
 21 22  2  0
 22 23  1  0
 22 26  1  0
 23 24  1  0
 23 25  2  0
 26 27  1  6
 26 28  1  0
M  CHG  3   5   1  18   1  27   1
M  END
