
     RDKit          3D

 28 29  0  0  0  0  0  0  0  0999 V2000
    5.3540   -0.9540   -4.0850 N   0  0  0  0  0  0  0  0  0  0  0  0
    4.9530   -0.3460   -3.2020 C   0  0  0  0  0  0  0  0  0  0  0  0
    4.4240    0.4510   -2.0490 C   0  0  0  0  0  0  0  0  0  0  0  0
    3.9830   -0.3750   -1.1160 O   0  0  0  0  0  0  0  0  0  0  0  0
    3.5900   -1.1750   -0.2270 C   0  0  0  0  0  0  0  0  0  0  0  0
    4.4610   -2.2100    0.3080 C   0  0  0  0  0  0  0  0  0  0  0  0
    4.0050   -3.0520    1.2650 C   0  0  0  0  0  0  0  0  0  0  0  0
    4.8560   -4.1430    1.7940 C   0  0  0  0  0  0  0  0  0  0  0  0
    4.3450   -4.8960    2.8640 O   0  0  0  0  0  0  0  0  0  0  0  0
    6.0100   -4.4190    1.3200 C   0  0  0  0  0  0  0  0  0  0  0  0
    6.8600   -5.4610    1.8060 N   0  0  0  0  0  0  0  0  0  0  0  0
    2.7400   -2.9600    1.7460 C   0  0  0  0  0  0  0  0  0  0  0  0
    1.8360   -1.9730    1.2670 C   0  0  0  0  0  0  0  0  0  0  0  0
    2.2910   -1.1250    0.3040 C   0  0  0  0  0  0  0  0  0  0  0  0
    1.4460   -0.1120   -0.2830 N   0  0  0  0  0  0  0  0  0  0  0  0
    0.0940    0.0070    0.0920 C   0  0  0  0  0  0  0  0  0  0  0  0
   -0.4440   -0.7260    0.9510 O   0  0  0  0  0  0  0  0  0  0  0  0
   -0.7890    1.0640   -0.5560 C   0  0  0  0  0  0  0  0  0  0  0  0
   -2.1940    0.7590   -0.1150 C   0  0  2  0  0  0  0  0  0  0  0  0
   -2.6640   -0.5920   -0.5280 C   0  0  0  0  0  0  0  0  0  0  0  0
   -4.0530   -0.4070   -0.7520 N   0  0  0  0  0  0  0  0  0  0  0  0
   -4.3870    0.8530   -0.7810 C   0  0  0  0  0  0  0  0  0  0  0  0
   -5.7530    1.2630   -1.0020 N   0  0  0  0  0  0  0  0  0  0  0  0
   -3.2230    1.6370   -0.6050 N   0  0  0  0  0  0  0  0  0  0  0  0
   -3.0240    3.0100   -0.9490 C   0  0  0  0  0  0  0  0  0  0  0  0
   -4.1400    3.9610   -0.9640 C   0  0  0  0  0  0  0  0  0  0  0  0
   -4.7750    4.3570    0.3100 C   0  0  0  0  0  0  0  0  0  0  0  0
   -5.3920    3.4220    1.1580 N   0  0  0  0  0  0  0  0  0  0  0  0
  1  2  3  0
  2  3  1  0
  3  4  1  0
  4  5  1  0
  5  6  2  0
  5 14  1  0
  6  7  1  0
  7  8  1  0
  7 12  2  0
  8  9  1  0
  8 10  2  3
 10 11  1  0
 12 13  1  0
 13 14  2  0
 14 15  1  0
 15 16  1  0
 16 17  2  0
 16 18  1  0
 19 18  1  6
 19 20  1  0
 19 24  1  0
 20 21  1  0
 21 22  2  0
 22 23  1  0
 22 24  1  0
 24 25  1  0
 25 26  1  0
 26 27  1  0
 27 28  1  0
M  CHG  2  21   1  28   1
M  END
