
     RDKit          3D

  8  8  0  0  0  0  0  0  0  0999 V2000
    2.4730   -0.4420   -0.1150 N   0  0  0  0  0  0  0  0  0  0  0  0
    1.5680    0.6350    0.1180 C   0  0  0  0  0  0  0  0  0  0  0  0
    0.1490    0.2590    0.0520 C   0  0  0  0  0  0  0  0  0  0  0  0
   -0.7920    1.2420    0.2650 C   0  0  0  0  0  0  0  0  0  0  0  0
   -2.1510    0.9810    0.2230 C   0  0  0  0  0  0  0  0  0  0  0  0
   -2.6130   -0.2940   -0.0390 C   0  0  0  0  0  0  0  0  0  0  0  0
   -1.6660   -1.2750   -0.2520 C   0  0  0  0  0  0  0  0  0  0  0  0
   -0.3040   -1.0130   -0.2090 C   0  0  0  0  0  0  0  0  0  0  0  0
  1  2  1  0
  2  3  1  0
  3  4  2  0
  3  8  1  0
  4  5  1  0
  5  6  2  0
  6  7  1  0
  7  8  2  0
M  CHG  1   1   1
M  END
