
     RDKit          3D

 28 28  0  0  0  0  0  0  0  0999 V2000
   -2.3060   -3.7990    1.3200 C   0  0  0  0  0  0  0  0  0  0  0  0
   -1.6290   -3.5410   -0.0140 C   0  0  0  0  0  0  0  0  0  0  0  0
   -1.9970   -2.1980   -0.5220 C   0  0  0  0  0  0  0  0  0  0  0  0
   -1.6270   -1.0540    0.3930 C   0  0  1  0  0  0  0  0  0  0  0  0
   -0.2030   -1.0420    0.5980 N   0  0  0  0  0  0  0  0  0  0  0  0
    0.6690   -1.3150    1.6330 C   0  0  0  0  0  0  0  0  0  0  0  0
    0.9600   -0.3750    2.4740 O   0  0  0  0  0  0  0  0  0  0  0  0
    1.4170   -2.5260    2.0430 C   0  0  0  0  0  0  0  0  0  0  0  0
    2.9310   -2.1810    1.9040 C   0  0  0  0  0  0  0  0  0  0  0  0
    3.2250   -1.7670    0.5270 C   0  0  0  0  0  0  0  0  0  0  0  0
    3.8940   -2.6270   -0.1640 O   0  0  0  0  0  0  0  0  0  0  0  0
    2.8940   -0.5930   -0.1480 N   0  0  0  0  0  0  0  0  0  0  0  0
    3.0260    0.7720    0.2620 C   0  0  1  0  0  0  0  0  0  0  0  0
    4.3190    1.4010   -0.2210 C   0  0  0  0  0  0  0  0  0  0  0  0
    4.4630    1.4150   -1.7050 C   0  0  0  0  0  0  0  0  0  0  0  0
    1.8570    1.6400   -0.0100 C   0  0  0  0  0  0  0  0  0  0  0  0
    1.3740    2.2230    1.0480 O   0  0  0  0  0  0  0  0  0  0  0  0
    1.2220    1.9100   -1.2360 N   0  0  0  0  0  0  0  0  0  0  0  0
    0.7010    1.2010   -2.2920 N   0  0  0  0  0  0  0  0  0  0  0  0
   -0.5480    0.4900   -2.4480 C   0  0  0  0  0  0  0  0  0  0  0  0
   -0.6280   -0.2990   -3.4740 N   0  0  0  0  0  0  0  0  0  0  0  0
   -1.7130    0.5570   -1.6310 N   0  0  0  0  0  0  0  0  0  0  0  0
   -1.9480    0.2980   -0.2820 C   0  0  0  0  0  0  0  0  0  0  0  0
   -2.4750    1.2000    0.5190 C   0  0  0  0  0  0  0  0  0  0  0  0
   -2.8780    2.5440    0.1970 C   0  0  0  0  0  0  0  0  0  0  0  0
   -2.7410    3.1900   -1.1380 C   0  0  0  0  0  0  0  0  0  0  0  0
   -3.4030    3.3050    1.1500 C   0  0  0  0  0  0  0  0  0  0  0  0
   -3.5460    2.7640    2.4510 N   0  0  0  0  0  0  0  0  0  0  0  0
  1  2  1  0
  2  3  1  0
  4  3  1  6
  4  5  1  0
  4 23  1  0
  5  6  1  0
  6  7  2  0
  6  8  1  0
  8  9  1  0
  9 10  1  0
 10 11  2  0
 10 12  1  0
 12 13  1  0
 13 14  1  6
 13 16  1  0
 14 15  1  0
 16 17  2  0
 16 18  1  0
 18 19  1  0
 19 20  1  0
 20 21  2  0
 20 22  1  0
 22 23  1  0
 23 24  2  3
 24 25  1  0
 25 26  1  0
 25 27  2  3
 27 28  1  0
M  CHG  2  21   1  28   1
M  END
