
     RDKit          3D

 28 29  0  0  0  0  0  0  0  0999 V2000
   10.2560   -1.2630   -0.3940 N   0  0  0  0  0  0  0  0  0  0  0  0
    8.9690   -0.7760   -0.0390 C   0  0  0  0  0  0  0  0  0  0  0  0
    8.5770   -0.8260    1.2700 C   0  0  0  0  0  0  0  0  0  0  0  0
    7.3340   -0.3410    1.6270 C   0  0  0  0  0  0  0  0  0  0  0  0
    6.4870    0.1900    0.6840 C   0  0  0  0  0  0  0  0  0  0  0  0
    5.2190    0.7460    1.0390 C   0  0  0  0  0  0  0  0  0  0  0  0
    5.0800    1.3110    2.1670 O   0  0  0  0  0  0  0  0  0  0  0  0
    4.0560    0.7170    0.1890 N   0  0  0  0  0  0  0  0  0  0  0  0
    2.9340    1.3020    0.6140 N   0  0  0  0  0  0  0  0  0  0  0  0
    1.6040    0.6520    0.5210 C   0  0  0  0  0  0  0  0  0  0  0  0
    1.4690   -0.4040    0.0770 O   0  0  0  0  0  0  0  0  0  0  0  0
    0.6610    1.6220    1.0890 N   0  0  0  0  0  0  0  0  0  0  0  0
   -0.7760    0.7610    0.7070 C   0  0  0  0  0  0  0  0  0  0  0  0
   -0.6180   -0.2540    0.2000 O   0  0  0  0  0  0  0  0  0  0  0  0
   -1.9410    1.5140    1.1090 C   0  0  0  0  0  0  0  0  0  0  0  0
   -3.2010    0.8960    0.8070 N   0  0  0  0  0  0  0  0  0  0  0  0
   -3.5670    0.6390   -0.5420 C   0  0  0  0  0  0  0  0  0  0  0  0
   -2.7690    1.0200   -1.6040 C   0  0  0  0  0  0  0  0  0  0  0  0
   -3.1470    0.7650   -2.9240 C   0  0  0  0  0  0  0  0  0  0  0  0
   -4.3380    0.1230   -3.1990 C   0  0  0  0  0  0  0  0  0  0  0  0
   -5.1430   -0.2610   -2.1530 C   0  0  0  0  0  0  0  0  0  0  0  0
   -4.7510    0.0000   -0.8400 C   0  0  0  0  0  0  0  0  0  0  0  0
   -5.6370   -0.4090    0.2990 C   0  0  2  0  0  0  0  0  0  0  0  0
   -4.9900   -1.5640    0.9200 N   0  0  0  0  0  0  0  0  0  0  0  0
   -6.9640   -0.9250   -0.2430 C   0  0  0  0  0  0  0  0  0  0  0  0
   -7.8660   -1.3040    0.8200 N   0  0  0  0  0  0  0  0  0  0  0  0
    6.8760    0.2460   -0.6530 C   0  0  0  0  0  0  0  0  0  0  0  0
    8.1050   -0.2350   -0.9990 C   0  0  0  0  0  0  0  0  0  0  0  0
  1  2  1  0
  2  3  2  0
  2 28  1  0
  3  4  1  0
  4  5  2  0
  5  6  1  0
  5 27  1  0
  6  7  2  0
  6  8  1  0
  8  9  1  0
  9 10  1  0
 10 11  2  0
 10 12  1  0
 12 13  1  0
 13 14  2  0
 13 15  1  0
 15 16  1  0
 16 17  1  0
 17 18  2  0
 17 22  1  0
 18 19  1  0
 19 20  2  0
 20 21  1  0
 21 22  2  0
 22 23  1  0
 23 24  1  6
 23 25  1  0
 25 26  1  0
 27 28  2  0
M  CHG  2  24   1  26   1
M  END
