
     RDKit          3D

 28 29  0  0  0  0  0  0  0  0999 V2000
   -3.1210    3.7150   -1.9650 C   0  0  0  0  0  0  0  0  0  0  0  0
   -1.7930    2.9590   -1.7420 C   0  0  0  0  0  0  0  0  0  0  0  0
   -1.7890    2.6600   -0.2480 C   0  0  0  0  0  0  0  0  0  0  0  0
   -0.6710    1.9390    0.2320 N   0  0  0  0  0  0  0  0  0  0  0  0
   -0.2730    0.6070   -0.0360 C   0  0  0  0  0  0  0  0  0  0  0  0
   -0.9450   -0.4390    0.3480 C   0  0  0  0  0  0  0  0  0  0  0  0
   -2.1950   -0.4380    1.1010 C   0  0  0  0  0  0  0  0  0  0  0  0
   -2.2360   -0.6180    2.4950 C   0  0  0  0  0  0  0  0  0  0  0  0
   -1.0440   -0.7960    3.3640 C   0  0  0  0  0  0  0  0  0  0  0  0
   -1.4830   -0.9590    4.7320 N   0  0  0  0  0  0  0  0  0  0  0  0
   -3.5740   -0.5940    2.8030 C   0  0  0  0  0  0  0  0  0  0  0  0
   -4.3020   -0.4150    1.6880 N   0  0  0  0  0  0  0  0  0  0  0  0
   -3.4780   -0.3180    0.6370 C   0  0  0  0  0  0  0  0  0  0  0  0
   -3.8930   -0.1270   -0.8070 C   0  0  0  0  0  0  0  0  0  0  0  0
    1.0000    0.4480   -0.7840 C   0  0  0  0  0  0  0  0  0  0  0  0
    1.5160   -0.8830   -1.1280 C   0  0  0  0  0  0  0  0  0  0  0  0
    2.6470   -0.9340   -1.7890 N   0  0  0  0  0  0  0  0  0  0  0  0
    3.2180   -2.1860   -2.1650 C   0  0  0  0  0  0  0  0  0  0  0  0
    4.2800   -2.6580   -1.5440 C   0  0  0  0  0  0  0  0  0  0  0  0
    4.9920   -2.0620   -0.4790 N   0  0  0  0  0  0  0  0  0  0  0  0
    6.0810   -2.8870   -0.0820 C   0  0  0  0  0  0  0  0  0  0  0  0
    6.9230   -2.6760    0.8260 O   0  0  0  0  0  0  0  0  0  0  0  0
    6.0540   -4.0340   -0.9190 N   0  0  0  0  0  0  0  0  0  0  0  0
    4.9540   -3.9400   -1.8430 C   0  0  0  0  0  0  0  0  0  0  0  0
    4.5940   -4.7360   -2.7320 O   0  0  0  0  0  0  0  0  0  0  0  0
    1.7090    1.4790   -1.1820 C   0  0  0  0  0  0  0  0  0  0  0  0
    2.9350    1.2540   -1.9080 N   0  0  0  0  0  0  0  0  0  0  0  0
    1.3010    2.7720   -0.9160 O   0  0  0  0  0  0  0  0  0  0  0  0
  1  2  1  0
  2  3  1  0
  3  4  1  0
  4  5  1  0
  5  6  2  3
  5 15  1  0
  6  7  1  0
  7  8  1  0
  7 13  2  0
  8  9  1  0
  8 11  2  0
  9 10  1  0
 11 12  1  0
 12 13  1  0
 13 14  1  0
 15 16  1  0
 15 26  2  3
 16 17  2  3
 17 18  1  0
 18 19  2  3
 19 20  1  0
 19 24  1  0
 20 21  1  0
 21 22  2  0
 21 23  1  0
 23 24  1  0
 24 25  2  0
 26 27  1  0
 26 28  1  0
M  CHG  1  10   1
M  END
