
     RDKit          3D

 26 28  0  0  0  0  0  0  0  0999 V2000
    0.8900    0.8660    3.6340 C   0  0  0  0  0  0  0  0  0  0  0  0
    0.8610    1.4310    2.2080 C   0  0  1  0  0  0  0  0  0  0  0  0
    1.7940    0.6920    1.4690 O   0  0  0  0  0  0  0  0  0  0  0  0
    2.8650    1.2150    0.7840 C   0  0  0  0  0  0  0  0  0  0  0  0
    3.0330    2.4600    0.8150 O   0  0  0  0  0  0  0  0  0  0  0  0
    3.8140    0.4060    0.0250 C   0  0  0  0  0  0  0  0  0  0  0  0
    3.6060   -0.9040    0.0140 C   0  0  0  0  0  0  0  0  0  0  0  0
    4.3610   -1.9830   -0.6400 C   0  0  0  0  0  0  0  0  0  0  0  0
    5.4450   -1.9080   -1.3950 C   0  0  0  0  0  0  0  0  0  0  0  0
    6.1740   -0.6900   -1.7690 C   0  0  0  0  0  0  0  0  0  0  0  0
    5.9310    0.5760   -1.4450 C   0  0  0  0  0  0  0  0  0  0  0  0
    4.8760    1.0820   -0.6350 N   0  0  0  0  0  0  0  0  0  0  0  0
   -0.5450    1.2310    1.7330 C   0  0  0  0  0  0  0  0  0  0  0  0
   -1.4910    1.8000    2.2630 O   0  0  0  0  0  0  0  0  0  0  0  0
   -0.7190    0.3480    0.6350 N   0  0  0  0  0  0  0  0  0  0  0  0
   -1.9360    0.0120    0.0270 C   0  0  0  0  0  0  0  0  0  0  0  0
   -3.1630    0.4970    0.4090 C   0  0  0  0  0  0  0  0  0  0  0  0
   -4.3350    0.1050   -0.2590 C   0  0  0  0  0  0  0  0  0  0  0  0
   -5.5640    0.5860    0.1180 C   0  0  0  0  0  0  0  0  0  0  0  0
   -6.7150    0.2060   -0.5330 C   0  0  0  0  0  0  0  0  0  0  0  0
   -6.6770   -0.6700   -1.5860 C   0  0  0  0  0  0  0  0  0  0  0  0
   -5.4300   -1.1490   -1.9580 C   0  0  0  0  0  0  0  0  0  0  0  0
   -4.2680   -0.7760   -1.3130 C   0  0  0  0  0  0  0  0  0  0  0  0
   -3.0340   -1.2740   -1.7110 C   0  0  0  0  0  0  0  0  0  0  0  0
   -1.9020   -0.8800   -1.0470 C   0  0  0  0  0  0  0  0  0  0  0  0
   -0.3840   -1.5680   -1.6270 Cl  0  0  0  0  0  0  0  0  0  0  0  0
  2  1  1  1
  2  3  1  0
  2 13  1  0
  3  4  1  0
  4  5  2  0
  4  6  1  0
  6  7  2  0
  6 12  1  0
  7  8  1  0
  8  9  2  0
  9 10  1  0
 10 11  2  0
 11 12  1  0
 13 14  2  0
 13 15  1  0
 15 16  1  0
 16 17  2  0
 16 25  1  0
 17 18  1  0
 18 19  2  0
 18 23  1  0
 19 20  1  0
 20 21  2  0
 21 22  1  0
 22 23  2  0
 23 24  1  0
 24 25  2  0
 25 26  1  0
M  END
