
     RDKit          3D

 26 28  0  0  0  0  0  0  0  0999 V2000
   -1.6910    0.6650    2.0110 C   0  0  0  0  0  0  0  0  0  0  0  0
   -0.9000    0.4400    0.9790 C   0  0  0  0  0  0  0  0  0  0  0  0
    0.5200    0.2990    1.1840 C   0  0  0  0  0  0  0  0  0  0  0  0
    1.3080    0.0760    0.1700 C   0  0  0  0  0  0  0  0  0  0  0  0
    2.7420   -0.0660    0.3750 C   0  0  0  0  0  0  0  0  0  0  0  0
    3.5330   -0.2910   -0.6570 C   0  0  0  0  0  0  0  0  0  0  0  0
    2.9240   -0.4290   -2.2860 Cl  0  0  0  0  0  0  0  0  0  0  0  0
    4.9860   -0.4370   -0.4680 C   0  0  0  0  0  0  0  0  0  0  0  0
    5.7760   -0.6630   -1.5020 C   0  0  0  0  0  0  0  0  0  0  0  0
    7.2420   -0.8150   -1.3470 C   0  0  0  0  0  0  0  0  0  0  0  0
    7.6530   -0.9870    0.0770 C   0  0  0  0  0  0  0  0  0  0  0  0
    6.8870    0.0640    0.8920 C   0  0  0  0  0  0  0  0  0  0  0  0
    5.5330   -0.3370    0.8180 O   0  0  0  0  0  0  0  0  0  0  0  0
   -1.4620    0.3280   -0.4030 C   0  0  0  0  0  0  0  0  0  0  0  0
   -2.8950    0.5090   -0.3010 N   0  0  0  0  0  0  0  0  0  0  0  0
   -3.4790    1.7290   -0.3940 C   0  0  0  0  0  0  0  0  0  0  0  0
   -2.7100    2.7000   -0.5750 O   0  0  0  0  0  0  0  0  0  0  0  0
   -4.8100    1.9040   -0.3000 N   0  0  0  0  0  0  0  0  0  0  0  0
   -5.6540    0.8730   -0.1050 C   0  0  0  0  0  0  0  0  0  0  0  0
   -7.0280    1.0480   -0.0070 C   0  0  0  0  0  0  0  0  0  0  0  0
   -7.8740   -0.0250    0.1930 C   0  0  0  0  0  0  0  0  0  0  0  0
   -7.2980   -1.2900    0.2930 C   0  0  0  0  0  0  0  0  0  0  0  0
   -5.9230   -1.4630    0.1950 C   0  0  0  0  0  0  0  0  0  0  0  0
   -5.0850   -0.3850   -0.0050 C   0  0  0  0  0  0  0  0  0  0  0  0
   -3.7170   -0.5370   -0.1060 C   0  0  0  0  0  0  0  0  0  0  0  0
   -3.1800   -1.6800   -0.0170 O   0  0  0  0  0  0  0  0  0  0  0  0
  1  2  2  0
  2  3  1  0
  2 14  1  0
  3  4  2  3
  4  5  1  0
  5  6  2  3
  6  7  1  0
  6  8  1  0
  8  9  2  0
  8 13  1  0
  9 10  1  0
 10 11  1  0
 11 12  1  0
 12 13  1  0
 14 15  1  0
 15 16  1  0
 15 25  1  0
 16 17  2  0
 16 18  1  0
 18 19  1  0
 19 20  2  0
 19 24  1  0
 20 21  1  0
 21 22  2  0
 22 23  1  0
 23 24  2  0
 24 25  1  0
 25 26  2  0
M  END
