
     RDKit          3D

 26 28  0  0  0  0  0  0  0  0999 V2000
    7.1950    1.0850   -0.0410 C   0  0  0  0  0  0  0  0  0  0  0  0
    6.0280    1.0600    0.9460 C   0  0  0  0  0  0  0  0  0  0  0  0
    4.8950    0.6630    0.1910 O   0  0  0  0  0  0  0  0  0  0  0  0
    3.6280    0.5280    0.7570 C   0  0  0  0  0  0  0  0  0  0  0  0
    3.5270    0.7750    1.9730 O   0  0  0  0  0  0  0  0  0  0  0  0
    2.4720    0.1220   -0.0170 C   0  0  0  0  0  0  0  0  0  0  0  0
    2.6690   -0.1430   -1.3790 C   0  0  0  0  0  0  0  0  0  0  0  0
    4.0040    0.0260   -1.8930 N   0  0  0  0  0  0  0  0  0  0  0  0
    1.6600   -0.5290   -2.1400 N   0  0  0  0  0  0  0  0  0  0  0  0
    0.4170   -0.6690   -1.5900 C   0  0  0  0  0  0  0  0  0  0  0  0
   -0.6320   -1.1120   -2.5110 C   0  0  0  0  0  0  0  0  0  0  0  0
    0.1900   -0.4160   -0.2550 C   0  0  0  0  0  0  0  0  0  0  0  0
   -1.1620   -0.5550    0.3180 C   0  0  0  0  0  0  0  0  0  0  0  0
   -1.9380    0.7130   -0.0090 C   0  0  0  0  0  0  0  0  0  0  0  0
   -3.3050    0.6410    0.5380 C   0  0  0  0  0  0  0  0  0  0  0  0
   -3.7950    1.2690    1.6380 C   0  0  0  0  0  0  0  0  0  0  0  0
   -5.0500    0.9430    1.7760 O   0  0  0  0  0  0  0  0  0  0  0  0
   -5.4310    0.1270    0.8260 C   0  0  0  0  0  0  0  0  0  0  0  0
   -6.6140   -0.5090    0.5000 C   0  0  0  0  0  0  0  0  0  0  0  0
   -6.7160   -1.3360   -0.5970 C   0  0  0  0  0  0  0  0  0  0  0  0
   -5.6260   -1.5610   -1.4200 C   0  0  0  0  0  0  0  0  0  0  0  0
   -5.7760   -2.6190   -2.8130 Cl  0  0  0  0  0  0  0  0  0  0  0  0
   -4.4440   -0.9320   -1.1040 C   0  0  0  0  0  0  0  0  0  0  0  0
   -4.3470   -0.1060   -0.0060 C   0  0  0  0  0  0  0  0  0  0  0  0
    1.2290   -0.0080    0.5720 C   0  0  0  0  0  0  0  0  0  0  0  0
    1.0650    0.3130    2.0010 C   0  0  0  0  0  0  0  0  0  0  0  0
  1  2  1  0
  2  3  1  0
  3  4  1  0
  4  5  2  0
  4  6  1  0
  6  7  2  0
  6 25  1  0
  7  8  1  0
  7  9  1  0
  9 10  2  0
 10 11  1  0
 10 12  1  0
 12 13  1  0
 12 25  2  0
 13 14  1  0
 14 15  1  0
 15 16  2  0
 15 24  1  0
 16 17  1  0
 17 18  1  0
 18 19  2  0
 18 24  1  0
 19 20  1  0
 20 21  2  0
 21 22  1  0
 21 23  1  0
 23 24  2  0
 25 26  1  0
M  END
