
     RDKit          3D

 26 28  0  0  0  0  0  0  0  0999 V2000
    3.9280    3.0010    2.0310 C   0  0  0  0  0  0  0  0  0  0  0  0
    4.7820    2.9400    0.8010 C   0  0  0  0  0  0  0  0  0  0  0  0
    4.6530    1.6360    0.2570 O   0  0  0  0  0  0  0  0  0  0  0  0
    3.4360    1.1210   -0.1540 C   0  0  0  0  0  0  0  0  0  0  0  0
    2.4300    1.8310   -0.0410 O   0  0  0  0  0  0  0  0  0  0  0  0
    3.3280   -0.2270   -0.7100 C   0  0  0  0  0  0  0  0  0  0  0  0
    4.3250   -1.0690   -0.9180 O   0  0  0  0  0  0  0  0  0  0  0  0
    3.9170   -2.1930   -1.4300 C   0  0  0  0  0  0  0  0  0  0  0  0
    4.2570   -3.4210   -1.8850 N   0  0  0  0  0  0  0  0  0  0  0  0
    3.1680   -4.0440   -2.2850 N   0  0  0  0  0  0  0  0  0  0  0  0
    2.0890   -3.2740   -2.1170 C   0  0  0  0  0  0  0  0  0  0  0  0
    0.6940   -3.6030   -2.4390 C   0  0  0  0  0  0  0  0  0  0  0  0
    2.5530   -2.0990   -1.5760 C   0  0  0  0  0  0  0  0  0  0  0  0
    2.1690   -0.8340   -1.1110 C   0  0  0  0  0  0  0  0  0  0  0  0
    0.7700   -0.3790   -1.0460 C   0  0  0  0  0  0  0  0  0  0  0  0
    0.0060   -0.0910   -2.5900 Cl  0  0  0  0  0  0  0  0  0  0  0  0
    0.1260   -0.2050    0.0660 C   0  0  0  0  0  0  0  0  0  0  0  0
    0.8980   -0.5080    1.3360 C   0  0  0  0  0  0  0  0  0  0  0  0
   -1.2590    0.2570    0.2340 C   0  0  0  0  0  0  0  0  0  0  0  0
   -1.7660    0.3800    1.4450 C   0  0  0  0  0  0  0  0  0  0  0  0
   -3.1230    0.8230    1.8040 C   0  0  0  0  0  0  0  0  0  0  0  0
   -4.0850    0.6950    0.6370 C   0  0  1  0  0  0  0  0  0  0  0  0
   -4.7140   -0.6810    0.5540 C   0  0  0  0  0  0  0  0  0  0  0  0
   -5.2360    1.6630    0.9520 C   0  0  0  0  0  0  0  0  0  0  0  0
   -3.4420    1.1410   -0.6300 C   0  0  0  0  0  0  0  0  0  0  0  0
   -2.0970    0.5950   -0.9300 C   0  0  0  0  0  0  0  0  0  0  0  0
  1  2  1  0
  2  3  1  0
  3  4  1  0
  4  5  2  0
  4  6  1  0
  6  7  1  0
  6 14  2  0
  7  8  1  0
  8  9  2  0
  8 13  1  0
  9 10  1  0
 10 11  1  0
 11 12  1  0
 11 13  2  0
 13 14  1  0
 14 15  1  0
 15 16  1  0
 15 17  2  3
 17 18  1  0
 17 19  1  0
 19 20  2  0
 19 26  1  0
 20 21  1  0
 21 22  1  0
 22 23  1  6
 22 24  1  0
 22 25  1  0
 25 26  1  0
M  END
