
     RDKit          3D

 14 16  0  0  0  0  0  0  0  0999 V2000
   -4.0390    0.9030   -0.4750 C   0  0  0  0  0  0  0  0  0  0  0  0
   -3.3790    0.7980    0.6660 C   0  0  0  0  0  0  0  0  0  0  0  0
   -2.4490   -0.1860    0.0740 C   0  0  0  0  0  0  0  0  0  0  0  0
   -1.3240   -0.9460    0.4910 N   0  0  0  0  0  0  0  0  0  0  0  0
    0.0190   -0.5280    0.2820 C   0  0  0  0  0  0  0  0  0  0  0  0
    0.2140    0.6810   -0.3600 C   0  0  0  0  0  0  0  0  0  0  0  0
    1.5060    1.1470   -0.5940 C   0  0  0  0  0  0  0  0  0  0  0  0
    2.5930    0.4160   -0.1930 C   0  0  0  0  0  0  0  0  0  0  0  0
    3.8800    0.6150   -0.2860 O   0  0  0  0  0  0  0  0  0  0  0  0
    4.4630   -0.4250    0.2740 C   0  0  0  0  0  0  0  0  0  0  0  0
    3.5540   -1.2970    0.7290 N   0  0  0  0  0  0  0  0  0  0  0  0
    2.3550   -0.7840    0.4430 C   0  0  0  0  0  0  0  0  0  0  0  0
    1.0940   -1.2590    0.6830 C   0  0  0  0  0  0  0  0  0  0  0  0
   -3.1240   -0.0680   -1.0650 C   0  0  0  0  0  0  0  0  0  0  0  0
  1  2  2  0
  1 14  1  0
  2  3  1  0
  3  4  1  0
  3 14  2  0
  4  5  1  0
  5  6  2  0
  5 13  1  0
  6  7  1  0
  7  8  2  0
  8  9  1  0
  8 12  1  0
  9 10  1  0
 10 11  2  0
 11 12  1  0
 12 13  2  0
M  END
