
     RDKit          3D

  9  8  0  0  0  0  0  0  0  0999 V2000
    4.3530   -0.0400    0.5470 C   0  0  0  0  0  0  0  0  0  0  0  0
    3.0500   -0.0780    0.3480 C   0  0  0  0  0  0  0  0  0  0  0  0
    2.3560   -1.2450   -0.1390 C   0  0  0  0  0  0  0  0  0  0  0  0
    1.0540   -1.3220   -0.3510 C   0  0  0  0  0  0  0  0  0  0  0  0
    0.1390   -0.2350   -0.1210 C   0  0  0  0  0  0  0  0  0  0  0  0
   -1.1460   -0.3670   -0.3500 C   0  0  0  0  0  0  0  0  0  0  0  0
   -2.1120    0.6960   -0.1350 C   0  0  0  0  0  0  0  0  0  0  0  0
   -3.3850    0.4670   -0.3930 C   0  0  0  0  0  0  0  0  0  0  0  0
   -4.3360    1.5030   -0.1860 N   0  0  0  0  0  0  0  0  0  0  0  0
  1  2  2  0
  2  3  1  0
  3  4  2  3
  4  5  1  0
  5  6  2  3
  6  7  1  0
  7  8  2  3
  8  9  1  0
M  END
