
     RDKit          3D

  9  9  0  0  0  0  0  0  0  0999 V2000
    2.2470    1.4220    0.3340 C   0  0  0  0  0  0  0  0  0  0  0  0
    1.9470   -0.0310    0.1410 C   0  0  0  0  0  0  0  0  0  0  0  0
    0.5000   -0.3660    0.0260 C   0  0  1  0  0  0  0  0  0  0  0  0
    0.4270   -1.8240   -0.1560 N   0  0  0  0  0  0  0  0  0  0  0  0
   -0.2890   -0.0520    1.2650 C   0  0  0  0  0  0  0  0  0  0  0  0
   -1.7550   -0.1980    1.0290 C   0  0  0  0  0  0  0  0  0  0  0  0
   -2.1850    0.6960   -0.1390 C   0  0  0  0  0  0  0  0  0  0  0  0
   -1.5470    0.0430   -1.3730 C   0  0  0  0  0  0  0  0  0  0  0  0
   -0.0540    0.2550   -1.2160 C   0  0  0  0  0  0  0  0  0  0  0  0
  1  2  1  0
  2  3  1  0
  3  4  1  6
  3  5  1  0
  3  9  1  0
  5  6  1  0
  6  7  1  0
  7  8  1  0
  8  9  1  0
M  CHG  1   4   1
M  END
