
     RDKit          3D

  9  9  0  0  0  0  0  0  0  0999 V2000
   -1.5190    1.7270    0.1830 C   0  0  0  0  0  0  0  0  0  0  0  0
   -0.3350    0.8220    0.0300 C   0  0  0  0  0  0  0  0  0  0  0  0
    0.8580    1.3870   -0.0450 C   0  0  0  0  0  0  0  0  0  0  0  0
    2.1920    0.7890   -0.1940 C   0  0  0  0  0  0  0  0  0  0  0  0
    2.5550   -0.4860   -0.0960 C   0  0  0  0  0  0  0  0  0  0  0  0
    1.6800   -1.5730    0.1850 N   0  0  0  0  0  0  0  0  0  0  0  0
    0.2600   -1.6190    0.0470 C   0  0  0  0  0  0  0  0  0  0  0  0
   -0.6150   -0.6020   -0.0210 C   0  0  0  0  0  0  0  0  0  0  0  0
   -2.0190   -1.0010   -0.1630 C   0  0  0  0  0  0  0  0  0  0  0  0
  1  2  1  0
  2  3  2  0
  2  8  1  0
  3  4  1  0
  4  5  2  0
  5  6  1  0
  6  7  1  0
  7  8  2  0
  8  9  1  0
M  END
