
     RDKit          3D

  9  8  0  0  0  0  0  0  0  0999 V2000
   -3.3520   -0.0820    1.2060 C   0  0  0  0  0  0  0  0  0  0  0  0
   -2.8040   -1.1580    0.3470 C   0  0  0  0  0  0  0  0  0  0  0  0
   -1.5610   -1.1070   -0.1120 C   0  0  0  0  0  0  0  0  0  0  0  0
   -0.6680   -0.0120    0.1910 C   0  0  0  0  0  0  0  0  0  0  0  0
    0.5860    0.1280   -0.2210 C   0  0  0  0  0  0  0  0  0  0  0  0
    1.2160   -0.8860   -1.0800 C   0  0  0  0  0  0  0  0  0  0  0  0
    1.3250    1.2970    0.1890 C   0  0  0  0  0  0  0  0  0  0  0  0
    2.5520    1.5310   -0.1510 C   0  0  0  0  0  0  0  0  0  0  0  0
    3.4190    0.7680   -0.9470 N   0  0  0  0  0  0  0  0  0  0  0  0
  1  2  1  0
  2  3  2  3
  3  4  1  0
  4  5  2  3
  5  6  1  0
  5  7  1  0
  7  8  2  3
  8  9  1  0
M  END
