
     RDKit          3D

  9  9  0  0  0  0  0  0  0  0999 V2000
    2.1090   -0.5510    1.1470 C   0  0  0  0  0  0  0  0  0  0  0  0
    1.1070   -1.1690    0.2190 C   0  0  0  0  0  0  0  0  0  0  0  0
    0.0450   -0.1880   -0.2270 C   0  0  1  0  0  0  0  0  0  0  0  0
   -0.9380   -0.8580   -1.1590 C   0  0  0  0  0  0  0  0  0  0  0  0
   -1.6200   -1.9670   -0.5640 N   0  0  0  0  0  0  0  0  0  0  0  0
   -0.7220    0.3680    0.9450 C   0  0  0  0  0  0  0  0  0  0  0  0
   -0.5660    1.8830    0.8690 C   0  0  0  0  0  0  0  0  0  0  0  0
   -0.1820    2.2000   -0.5410 C   0  0  0  0  0  0  0  0  0  0  0  0
    0.6290    0.9990   -0.9520 C   0  0  0  0  0  0  0  0  0  0  0  0
  1  2  1  0
  3  2  1  1
  3  4  1  0
  3  6  1  0
  3  9  1  0
  4  5  1  0
  6  7  1  0
  7  8  1  0
  8  9  1  0
M  CHG  1   5   1
M  END
