
     RDKit          3D

  9  8  0  0  0  0  0  0  0  0999 V2000
   -1.1510    2.5300    2.1240 C   0  0  0  0  0  0  0  0  0  0  0  0
   -1.1860    1.5810    1.1780 C   0  0  0  0  0  0  0  0  0  0  0  0
   -2.4740    1.3180    0.5090 C   0  0  0  0  0  0  0  0  0  0  0  0
   -0.0090    0.8260    0.8060 C   0  0  0  0  0  0  0  0  0  0  0  0
    0.0920   -0.1100   -0.0840 C   0  0  0  0  0  0  0  0  0  0  0  0
   -1.0050   -0.5340   -0.8470 N   0  0  0  0  0  0  0  0  0  0  0  0
    1.3670   -0.7660   -0.3270 C   0  0  0  0  0  0  0  0  0  0  0  0
    1.5470   -1.7140   -1.2040 C   0  0  0  0  0  0  0  0  0  0  0  0
    2.8650   -2.3430   -1.4070 C   0  0  0  0  0  0  0  0  0  0  0  0
  1  2  2  0
  2  3  1  0
  2  4  1  0
  4  5  2  3
  5  6  1  0
  5  7  1  0
  7  8  2  3
  8  9  1  0
M  END
