
     RDKit          3D

 28 29  0  0  0  0  0  0  0  0999 V2000
   -3.4520   -2.9860   -2.6050 N   0  0  0  0  0  0  0  0  0  0  0  0
   -3.4670   -2.7140   -1.4730 C   0  0  0  0  0  0  0  0  0  0  0  0
   -3.4660   -2.3820   -0.0390 C   0  0  0  0  0  0  0  0  0  0  0  0
   -4.0510   -1.0080    0.2040 C   0  0  0  0  0  0  0  0  0  0  0  0
   -3.2570    0.0930   -0.4670 C   0  0  2  0  0  0  0  0  0  0  0  0
   -1.8870    0.1380   -0.0190 N   0  0  0  0  0  0  0  0  0  0  0  0
   -0.9840   -0.0710   -1.1040 C   0  0  0  0  0  0  0  0  0  0  0  0
    0.4870   -0.0670   -0.7350 C   0  0  1  0  0  0  0  0  0  0  0  0
    1.4130   -0.2020   -2.0060 C   0  0  0  0  0  0  0  0  0  0  0  0
    1.3440    1.0260   -1.1370 C   0  0  2  0  0  0  0  0  0  0  0  0
    2.5400    1.4930   -0.4200 C   0  0  0  0  0  0  0  0  0  0  0  0
    3.6100    0.5130   -0.2730 C   0  0  0  0  0  0  0  0  0  0  0  0
    3.6110   -0.6880   -0.6110 O   0  0  0  0  0  0  0  0  0  0  0  0
    4.8830    0.9140    0.3380 N   0  0  0  0  0  0  0  0  0  0  0  0
    5.8880   -0.0320    0.4570 N   0  0  0  0  0  0  0  0  0  0  0  0
    5.9590   -1.0840    1.3800 C   0  0  0  0  0  0  0  0  0  0  0  0
    5.0270   -1.2170    2.2200 O   0  0  0  0  0  0  0  0  0  0  0  0
    7.0300   -2.0300    1.4320 N   0  0  0  0  0  0  0  0  0  0  0  0
    7.0350   -3.1080    2.4170 C   0  0  0  0  0  0  0  0  0  0  0  0
    5.8940   -3.9690    2.3350 N   0  0  0  0  0  0  0  0  0  0  0  0
   -3.9770    1.3950   -0.4130 C   0  0  0  0  0  0  0  0  0  0  0  0
   -5.3280    1.4460   -0.0800 C   0  0  0  0  0  0  0  0  0  0  0  0
   -6.0260    2.6540   -0.0700 C   0  0  0  0  0  0  0  0  0  0  0  0
   -7.4110    2.6670    0.2450 N   0  0  0  0  0  0  0  0  0  0  0  0
   -5.4230    3.8440   -0.3830 C   0  0  0  0  0  0  0  0  0  0  0  0
   -4.0890    3.8100   -0.7120 C   0  0  0  0  0  0  0  0  0  0  0  0
   -3.3990    2.5970   -0.7200 C   0  0  0  0  0  0  0  0  0  0  0  0
   -2.0510    2.6540   -1.0640 O   0  0  0  0  0  0  0  0  0  0  0  0
  1  2  3  0
  2  3  1  0
  3  4  1  0
  5  4  1  1
  5  6  1  0
  5 21  1  0
  6  7  1  0
  8  7  1  6
  8  9  1  0
  8 10  1  0
  9 10  1  0
 10 11  1  1
 11 12  1  0
 12 13  2  0
 12 14  1  0
 14 15  1  0
 15 16  1  0
 16 17  2  0
 16 18  1  0
 18 19  1  0
 19 20  1  0
 21 22  2  0
 21 27  1  0
 22 23  1  0
 23 24  1  0
 23 25  2  0
 25 26  1  0
 26 27  2  0
 27 28  1  0
M  CHG  2   6   1  20   1
M  END
