
     RDKit          3D

 28 29  0  0  0  0  0  0  0  0999 V2000
    4.6070   -1.4430    4.7070 N   0  0  0  0  0  0  0  0  0  0  0  0
    4.1530   -2.0310    3.8470 C   0  0  0  0  0  0  0  0  0  0  0  0
    3.5730   -2.7910    2.7170 C   0  0  0  0  0  0  0  0  0  0  0  0
    2.8460   -1.9890    1.8580 O   0  0  0  0  0  0  0  0  0  0  0  0
    3.4160   -0.9470    1.1460 C   0  0  0  0  0  0  0  0  0  0  0  0
    4.7450   -0.6500    1.2310 C   0  0  0  0  0  0  0  0  0  0  0  0
    5.4000    0.3610    0.5650 C   0  0  0  0  0  0  0  0  0  0  0  0
    6.8300    0.5490    0.7160 C   0  0  0  0  0  0  0  0  0  0  0  0
    7.4950   -0.4180    1.5050 O   0  0  0  0  0  0  0  0  0  0  0  0
    7.5420    1.5000    0.2060 C   0  0  0  0  0  0  0  0  0  0  0  0
    7.1300    2.5790   -0.6100 N   0  0  0  0  0  0  0  0  0  0  0  0
    4.5900    1.1240   -0.2610 C   0  0  0  0  0  0  0  0  0  0  0  0
    3.2190    0.8530   -0.3780 C   0  0  0  0  0  0  0  0  0  0  0  0
    2.6190   -0.1550    0.2990 C   0  0  0  0  0  0  0  0  0  0  0  0
    1.2570   -0.5020    0.2220 N   0  0  0  0  0  0  0  0  0  0  0  0
    0.2530    0.1580   -0.5210 C   0  0  0  0  0  0  0  0  0  0  0  0
    0.5280    1.1670   -1.1950 O   0  0  0  0  0  0  0  0  0  0  0  0
   -1.1630   -0.3610   -0.5010 C   0  0  0  0  0  0  0  0  0  0  0  0
   -2.0560    0.5220   -1.2990 C   0  0  2  0  0  0  0  0  0  0  0  0
   -2.1390    1.9470   -0.8010 C   0  0  0  0  0  0  0  0  0  0  0  0
   -3.4190    2.3470   -1.3990 N   0  0  0  0  0  0  0  0  0  0  0  0
   -4.1470    1.3110   -1.6510 C   0  0  0  0  0  0  0  0  0  0  0  0
   -5.4490    1.4260   -2.2410 N   0  0  0  0  0  0  0  0  0  0  0  0
   -3.4450    0.1190   -1.2610 N   0  0  0  0  0  0  0  0  0  0  0  0
   -4.0310   -1.1430   -0.9710 C   0  0  0  0  0  0  0  0  0  0  0  0
   -5.5150   -1.1800   -0.8320 C   0  0  0  0  0  0  0  0  0  0  0  0
   -6.0460   -0.3730    0.3270 C   0  0  0  0  0  0  0  0  0  0  0  0
   -7.4960   -0.4840    0.3180 N   0  0  0  0  0  0  0  0  0  0  0  0
  1  2  3  0
  2  3  1  0
  3  4  1  0
  4  5  1  0
  5  6  2  0
  5 14  1  0
  6  7  1  0
  7  8  1  0
  7 12  2  0
  8  9  1  0
  8 10  2  3
 10 11  1  0
 12 13  1  0
 13 14  2  0
 14 15  1  0
 15 16  1  0
 16 17  2  0
 16 18  1  0
 19 18  1  1
 19 20  1  0
 19 24  1  0
 20 21  1  0
 21 22  2  0
 22 23  1  0
 22 24  1  0
 24 25  1  0
 25 26  1  0
 26 27  1  0
 27 28  1  0
M  CHG  2  21   1  28   1
M  END
