
     RDKit          3D

 28 29  0  0  0  0  0  0  0  0999 V2000
    9.1590    1.9380    0.4420 N   0  0  0  0  0  0  0  0  0  0  0  0
    8.0160    1.0780    0.6500 C   0  0  0  0  0  0  0  0  0  0  0  0
    6.7920    1.7510    0.7180 C   0  0  0  0  0  0  0  0  0  0  0  0
    5.5880    1.0330    0.4980 C   0  0  0  0  0  0  0  0  0  0  0  0
    5.5650   -0.3480    0.1760 C   0  0  0  0  0  0  0  0  0  0  0  0
    4.3790   -0.7140   -0.4970 C   0  0  0  0  0  0  0  0  0  0  0  0
    3.2720   -0.9130    0.2790 O   0  0  0  0  0  0  0  0  0  0  0  0
    4.0470   -0.8630   -1.9650 N   0  0  0  0  0  0  0  0  0  0  0  0
    2.7490   -0.9050   -2.1400 N   0  0  0  0  0  0  0  0  0  0  0  0
    1.6530   -1.8100   -1.6010 C   0  0  0  0  0  0  0  0  0  0  0  0
    1.8760   -2.6520   -1.1890 O   0  0  0  0  0  0  0  0  0  0  0  0
    0.3290   -0.9950   -1.8710 N   0  0  0  0  0  0  0  0  0  0  0  0
   -0.4850   -1.7550   -0.6550 C   0  0  0  0  0  0  0  0  0  0  0  0
    0.0680   -2.9250   -0.3750 O   0  0  0  0  0  0  0  0  0  0  0  0
   -1.5760   -1.3080   -0.0320 C   0  0  0  0  0  0  0  0  0  0  0  0
   -2.4370   -0.2350   -0.3050 N   0  0  0  0  0  0  0  0  0  0  0  0
   -3.2390    0.0610    0.9160 C   0  0  0  0  0  0  0  0  0  0  0  0
   -2.5010    0.2410    2.1050 C   0  0  0  0  0  0  0  0  0  0  0  0
   -3.2950    0.3280    3.2240 C   0  0  0  0  0  0  0  0  0  0  0  0
   -4.6150    0.2220    3.3100 C   0  0  0  0  0  0  0  0  0  0  0  0
   -5.2390    0.0400    2.0850 C   0  0  0  0  0  0  0  0  0  0  0  0
   -4.6090   -0.0190    0.8310 C   0  0  0  0  0  0  0  0  0  0  0  0
   -5.4480   -0.2520   -0.3230 C   0  0  2  0  0  0  0  0  0  0  0  0
   -4.8500   -0.7780   -1.4740 N   0  0  0  0  0  0  0  0  0  0  0  0
   -6.1790    0.9900   -0.6090 C   0  0  0  0  0  0  0  0  0  0  0  0
   -5.3930    1.9940   -1.1850 N   0  0  0  0  0  0  0  0  0  0  0  0
    6.8010   -0.9330    0.1210 C   0  0  0  0  0  0  0  0  0  0  0  0
    7.9800   -0.2360    0.3440 C   0  0  0  0  0  0  0  0  0  0  0  0
  1  2  1  0
  2  3  2  0
  2 28  1  0
  3  4  1  0
  4  5  2  0
  5  6  1  0
  5 27  1  0
  6  7  2  0
  6  8  1  0
  8  9  1  0
  9 10  1  0
 10 11  2  0
 10 12  1  0
 12 13  1  0
 13 14  2  0
 13 15  1  0
 15 16  1  0
 16 17  1  0
 17 18  2  0
 17 22  1  0
 18 19  1  0
 19 20  2  0
 20 21  1  0
 21 22  2  0
 22 23  1  0
 23 24  1  6
 23 25  1  0
 25 26  1  0
 27 28  2  0
M  CHG  2  24   1  26   1
M  END
