
     RDKit          3D

  8  8  0  0  0  0  0  0  0  0999 V2000
    2.4100   -0.1920    0.6110 N   0  0  0  0  0  0  0  0  0  0  0  0
    1.5900   -0.0880   -0.5950 C   0  0  0  0  0  0  0  0  0  0  0  0
    0.1570   -0.0150   -0.2710 C   0  0  0  0  0  0  0  0  0  0  0  0
   -0.4190    1.2200   -0.0710 C   0  0  0  0  0  0  0  0  0  0  0  0
   -1.7630    1.3000    0.2340 C   0  0  0  0  0  0  0  0  0  0  0  0
   -2.5600    0.1940    0.3480 C   0  0  0  0  0  0  0  0  0  0  0  0
   -1.9740   -1.0590    0.1440 C   0  0  0  0  0  0  0  0  0  0  0  0
   -0.6310   -1.1410   -0.1600 C   0  0  0  0  0  0  0  0  0  0  0  0
  1  2  1  0
  2  3  1  0
  3  4  2  0
  3  8  1  0
  4  5  1  0
  5  6  2  0
  6  7  1  0
  7  8  2  0
M  CHG  1   1   1
M  END
