
     RDKit          3D

  9  9  0  0  0  0  0  0  0  0999 V2000
   -3.0490   -0.4850    0.0290 C   0  0  0  0  0  0  0  0  0  0  0  0
   -1.5850   -0.1430    0.0250 C   0  0  0  0  0  0  0  0  0  0  0  0
   -0.7230   -1.1470    0.0250 C   0  0  0  0  0  0  0  0  0  0  0  0
    0.7400   -1.1620    0.0210 C   0  0  0  0  0  0  0  0  0  0  0  0
    1.5830   -0.1510   -0.0440 C   0  0  0  0  0  0  0  0  0  0  0  0
    3.0500   -0.4710   -0.0280 C   0  0  0  0  0  0  0  0  0  0  0  0
    1.2380    1.2270   -0.1290 N   0  0  0  0  0  0  0  0  0  0  0  0
   -0.0510    1.8490   -0.0440 C   0  0  0  0  0  0  0  0  0  0  0  0
   -1.2450    1.2750    0.0210 C   0  0  0  0  0  0  0  0  0  0  0  0
  1  2  1  0
  2  3  2  0
  2  9  1  0
  3  4  1  0
  4  5  2  0
  5  6  1  0
  5  7  1  0
  7  8  1  0
  8  9  2  0
M  END
