
     RDKit          3D

  9  9  0  0  0  0  0  0  0  0999 V2000
    1.9700    1.4620   -0.1690 C   0  0  0  0  0  0  0  0  0  0  0  0
    0.4870    1.5250   -0.2050 C   0  0  0  0  0  0  0  0  0  0  0  0
   -0.1830    0.1740   -0.1970 C   0  0  2  0  0  0  0  0  0  0  0  0
   -1.6900    0.3150   -0.2350 C   0  0  0  0  0  0  0  0  0  0  0  0
   -2.2200    1.0400    0.8770 N   0  0  0  0  0  0  0  0  0  0  0  0
    0.2820   -0.5470    1.0500 C   0  0  0  0  0  0  0  0  0  0  0  0
    0.3080   -2.0040    0.6940 C   0  0  0  0  0  0  0  0  0  0  0  0
    0.8210   -1.9610   -0.7310 C   0  0  0  0  0  0  0  0  0  0  0  0
    0.2250   -0.7040   -1.3280 C   0  0  0  0  0  0  0  0  0  0  0  0
  1  2  1  0
  3  2  1  6
  3  4  1  0
  3  6  1  0
  3  9  1  0
  4  5  1  0
  6  7  1  0
  7  8  1  0
  8  9  1  0
M  CHG  1   5   1
M  END
