
     RDKit          3D

  9  9  0  0  0  0  0  0  0  0999 V2000
    2.4290   -0.5850   -0.7970 C   0  0  0  0  0  0  0  0  0  0  0  0
    1.3760   -0.7320    0.2620 C   0  0  0  0  0  0  0  0  0  0  0  0
    0.3860    0.4290    0.2570 C   0  0  1  0  0  0  0  0  0  0  0  0
    1.1580    1.6570    0.5050 N   0  0  0  0  0  0  0  0  0  0  0  0
   -0.2540    0.5630   -1.0730 C   0  0  0  0  0  0  0  0  0  0  0  0
   -1.3000   -0.4720   -1.3060 C   0  0  0  0  0  0  0  0  0  0  0  0
   -2.2990   -0.5700   -0.2070 C   0  0  0  0  0  0  0  0  0  0  0  0
   -1.7400   -0.5670    1.1680 C   0  0  0  0  0  0  0  0  0  0  0  0
   -0.5480    0.2640    1.4040 C   0  0  0  0  0  0  0  0  0  0  0  0
  1  2  1  0
  2  3  1  0
  3  4  1  1
  3  5  1  0
  3  9  1  0
  5  6  1  0
  6  7  1  0
  7  8  1  0
  8  9  1  0
M  CHG  1   4   1
M  END
