
     RDKit          3D

  9  8  0  0  0  0  0  0  0  0999 V2000
    4.7020   -0.1580    0.9230 C   0  0  0  0  0  0  0  0  0  0  0  0
    3.6480    0.4660    0.4030 C   0  0  0  0  0  0  0  0  0  0  0  0
    2.3340   -0.1300    0.5450 C   0  0  0  0  0  0  0  0  0  0  0  0
    1.2630    0.4820    0.0300 C   0  0  0  0  0  0  0  0  0  0  0  0
   -0.0620   -0.0860    0.1530 C   0  0  0  0  0  0  0  0  0  0  0  0
   -1.1040    0.5320   -0.3600 C   0  0  0  0  0  0  0  0  0  0  0  0
   -2.4610    0.0130   -0.2700 C   0  0  0  0  0  0  0  0  0  0  0  0
   -3.4740    0.6660   -0.8000 C   0  0  0  0  0  0  0  0  0  0  0  0
   -4.7990    0.1610   -0.7120 N   0  0  0  0  0  0  0  0  0  0  0  0
  1  2  2  0
  2  3  1  0
  3  4  2  3
  4  5  1  0
  5  6  2  3
  6  7  1  0
  7  8  2  3
  8  9  1  0
M  END
