
     RDKit          3D

  9  9  0  0  0  0  0  0  0  0999 V2000
    2.4660    0.2750    0.9230 C   0  0  0  0  0  0  0  0  0  0  0  0
    1.2260    0.0490    0.0720 C   0  0  1  0  0  0  0  0  0  0  0  0
    1.6900   -0.0830   -1.3570 C   0  0  0  0  0  0  0  0  0  0  0  0
    0.5160   -1.1680    0.5690 C   0  0  0  0  0  0  0  0  0  0  0  0
   -0.9740   -1.0850    0.5080 C   0  0  0  0  0  0  0  0  0  0  0  0
   -1.5060   -0.2790   -0.6240 C   0  0  1  0  0  0  0  0  0  0  0  0
   -2.9260   -0.0740   -0.4170 N   0  0  0  0  0  0  0  0  0  0  0  0
   -0.8650    1.0780   -0.7430 C   0  0  0  0  0  0  0  0  0  0  0  0
    0.3160    1.2380    0.1720 C   0  0  0  0  0  0  0  0  0  0  0  0
  2  1  1  1
  2  3  1  0
  2  4  1  0
  2  9  1  0
  4  5  1  0
  5  6  1  0
  6  7  1  1
  6  8  1  0
  8  9  1  0
M  CHG  1   7   1
M  END
