
     RDKit          3D

 12 13  0  0  0  0  0  0  0  0999 V2000
    3.3550    0.4080   -0.6930 C   0  0  0  0  0  0  0  0  0  0  0  0
    2.2000    1.0320   -0.1800 O   0  0  0  0  0  0  0  0  0  0  0  0
    0.9920    0.3620   -0.2190 C   0  0  0  0  0  0  0  0  0  0  0  0
    0.9410   -0.9010   -0.7600 C   0  0  0  0  0  0  0  0  0  0  0  0
   -0.2190   -1.6410   -0.8400 C   0  0  0  0  0  0  0  0  0  0  0  0
   -1.3640   -1.0450   -0.3410 C   0  0  0  0  0  0  0  0  0  0  0  0
   -2.6020   -1.5140   -0.2870 O   0  0  0  0  0  0  0  0  0  0  0  0
   -3.3970   -0.6430    0.2590 C   0  0  0  0  0  0  0  0  0  0  0  0
   -2.6330    0.4800    0.5900 C   0  0  0  0  0  0  0  0  0  0  0  0
   -1.3300    0.2250    0.2060 C   0  0  0  0  0  0  0  0  0  0  0  0
   -0.1530    0.9410    0.2730 C   0  0  0  0  0  0  0  0  0  0  0  0
   -0.1250    2.2250    0.8270 O   0  0  0  0  0  0  0  0  0  0  0  0
  1  2  1  0
  2  3  1  0
  3  4  2  0
  3 11  1  0
  4  5  1  0
  5  6  2  0
  6  7  1  0
  6 10  1  0
  7  8  1  0
  8  9  2  0
  9 10  1  0
 10 11  2  0
 11 12  1  0
M  END
