
     RDKit          3D

 12 12  0  0  0  0  0  0  0  0999 V2000
    3.9000    1.2630   -0.0460 C   0  0  0  0  0  0  0  0  0  0  0  0
    2.9000    0.2850    0.0530 O   0  0  0  0  0  0  0  0  0  0  0  0
    1.5650    0.6360    0.0280 C   0  0  0  0  0  0  0  0  0  0  0  0
    1.2920    1.8440   -0.0850 O   0  0  0  0  0  0  0  0  0  0  0  0
    0.5340   -0.3670    0.1300 C   0  0  0  0  0  0  0  0  0  0  0  0
    0.9410   -1.6450    0.2490 C   0  0  0  0  0  0  0  0  0  0  0  0
    2.3030   -1.9410    0.2680 O   0  0  0  0  0  0  0  0  0  0  0  0
   -0.9040   -0.0680    0.1070 C   0  0  0  0  0  0  0  0  0  0  0  0
   -1.4880    1.1070    0.0010 C   0  0  0  0  0  0  0  0  0  0  0  0
   -2.9610    0.9210    0.0250 C   0  0  0  0  0  0  0  0  0  0  0  0
   -3.1040   -0.4680   -0.5310 C   0  0  0  0  0  0  0  0  0  0  0  0
   -1.9470   -1.1470    0.1980 C   0  0  0  0  0  0  0  0  0  0  0  0
  1  2  1  0
  2  3  1  0
  3  4  2  0
  3  5  1  0
  5  6  2  3
  5  8  1  0
  6  7  1  0
  8  9  2  0
  8 12  1  0
  9 10  1  0
 10 11  1  0
 11 12  1  0
M  END
