
     RDKit          3D

 12 13  0  0  0  0  0  0  0  0999 V2000
   -3.9620   -0.1070    0.6920 O   0  0  0  0  0  0  0  0  0  0  0  0
   -3.2970   -0.3530   -0.5050 C   0  0  0  0  0  0  0  0  0  0  0  0
   -1.8230   -0.2460   -0.3200 C   0  0  0  0  0  0  0  0  0  0  0  0
   -1.1190    0.9310   -0.4840 C   0  0  0  0  0  0  0  0  0  0  0  0
    0.1980    0.6100   -0.2240 C   0  0  0  0  0  0  0  0  0  0  0  0
    1.3350    1.3990   -0.2390 C   0  0  0  0  0  0  0  0  0  0  0  0
    2.5380    0.8280    0.0600 C   0  0  0  0  0  0  0  0  0  0  0  0
    2.6270   -0.5130    0.3740 C   0  0  0  0  0  0  0  0  0  0  0  0
    3.8590   -1.0840    0.6770 O   0  0  0  0  0  0  0  0  0  0  0  0
    1.4740   -1.2960    0.3850 C   0  0  0  0  0  0  0  0  0  0  0  0
    0.2470   -0.7250    0.0830 C   0  0  0  0  0  0  0  0  0  0  0  0
   -0.9860   -1.2190    0.0180 O   0  0  0  0  0  0  0  0  0  0  0  0
  1  2  1  0
  2  3  1  0
  3  4  2  0
  3 12  1  0
  4  5  1  0
  5  6  2  0
  5 11  1  0
  6  7  1  0
  7  8  2  0
  8  9  1  0
  8 10  1  0
 10 11  2  0
 11 12  1  0
M  END
