
     RDKit          3D

 12 12  0  0  0  0  0  0  0  0999 V2000
   -1.2280    2.3830    0.5010 C   0  0  0  0  0  0  0  0  0  0  0  0
   -0.9150    1.2050   -0.0470 C   0  0  0  0  0  0  0  0  0  0  0  0
   -1.9750    0.2710   -0.3990 C   0  0  0  0  0  0  0  0  0  0  0  0
   -2.0010   -1.0700    0.1600 C   0  0  0  0  0  0  0  0  0  0  0  0
   -0.7980   -1.8130    0.5250 C   0  0  0  0  0  0  0  0  0  0  0  0
    0.4520   -1.5450   -0.1890 C   0  0  0  0  0  0  0  0  0  0  0  0
    1.0450   -2.4850   -0.7510 O   0  0  0  0  0  0  0  0  0  0  0  0
    1.1010   -0.2460   -0.3180 C   0  0  0  0  0  0  0  0  0  0  0  0
    2.5860   -0.2370   -0.5450 C   0  0  0  0  0  0  0  0  0  0  0  0
    3.2250   -0.8740    0.5410 O   0  0  0  0  0  0  0  0  0  0  0  0
    0.5180    0.9440   -0.2580 C   0  0  0  0  0  0  0  0  0  0  0  0
    1.3200    2.0770   -0.4040 O   0  0  0  0  0  0  0  0  0  0  0  0
  1  2  2  0
  2  3  1  0
  2 11  1  0
  3  4  1  0
  4  5  1  0
  5  6  1  0
  6  7  2  0
  6  8  1  0
  8  9  1  0
  8 11  2  0
  9 10  1  0
 11 12  1  0
M  END
