
     RDKit          3D

 12 12  0  0  0  0  0  0  0  0999 V2000
   -1.5440    2.1560   -0.7780 C   0  0  0  0  0  0  0  0  0  0  0  0
   -1.8360    1.0040   -0.2020 C   0  0  0  0  0  0  0  0  0  0  0  0
   -3.1760    0.3680   -0.1410 C   0  0  0  0  0  0  0  0  0  0  0  0
   -3.1300   -0.3460    1.1760 C   0  0  0  0  0  0  0  0  0  0  0  0
   -1.6940   -0.7010    1.2990 C   0  0  0  0  0  0  0  0  0  0  0  0
   -0.9590    0.0790    0.5040 C   0  0  0  0  0  0  0  0  0  0  0  0
    0.4280    0.0510    0.3420 O   0  0  0  0  0  0  0  0  0  0  0  0
    0.9860   -1.0820   -0.3350 C   0  0  0  0  0  0  0  0  0  0  0  0
    2.4640   -0.9570   -0.4220 C   0  0  0  0  0  0  0  0  0  0  0  0
    3.1050   -1.8770   -0.9920 O   0  0  0  0  0  0  0  0  0  0  0  0
    3.1790    0.1090    0.0840 O   0  0  0  0  0  0  0  0  0  0  0  0
    4.5700    0.1520   -0.0400 C   0  0  0  0  0  0  0  0  0  0  0  0
  1  2  2  0
  2  3  1  0
  2  6  1  0
  3  4  1  0
  4  5  1  0
  5  6  2  0
  6  7  1  0
  7  8  1  0
  8  9  1  0
  9 10  2  0
  9 11  1  0
 11 12  1  0
M  END
