
     RDKit          3D

 12 12  0  0  0  0  0  0  0  0999 V2000
   -2.0980    1.6170    0.0550 C   0  0  0  0  0  0  0  0  0  0  0  0
   -2.5110    0.2760   -0.3910 C   0  0  0  0  0  0  0  0  0  0  0  0
   -1.5270   -0.7720   -0.5590 C   0  0  0  0  0  0  0  0  0  0  0  0
   -2.1040   -2.0100   -1.0010 O   0  0  0  0  0  0  0  0  0  0  0  0
   -0.2280   -0.7530   -0.3720 C   0  0  0  0  0  0  0  0  0  0  0  0
    0.6570   -1.9240   -0.5900 C   0  0  0  0  0  0  0  0  0  0  0  0
    1.8840   -1.5840   -0.3190 C   0  0  0  0  0  0  0  0  0  0  0  0
    1.9290   -0.2000    0.0910 C   0  0  0  0  0  0  0  0  0  0  0  0
    3.1320    0.5430    0.4760 C   0  0  0  0  0  0  0  0  0  0  0  0
    4.2420   -0.0130    0.4690 O   0  0  0  0  0  0  0  0  0  0  0  0
    3.0350    1.8780    0.8520 O   0  0  0  0  0  0  0  0  0  0  0  0
    0.6810    0.2900    0.0600 C   0  0  0  0  0  0  0  0  0  0  0  0
  1  2  1  0
  2  3  1  0
  3  4  1  0
  3  5  2  3
  5  6  1  0
  5 12  1  0
  6  7  2  0
  7  8  1  0
  8  9  1  0
  8 12  2  0
  9 10  2  0
  9 11  1  0
M  END
