
     RDKit          3D

 10  9  0  0  0  0  0  0  0  0999 V2000
   -2.1040    1.0440   -0.1060 C   0  0  0  0  0  0  0  0  0  0  0  0
   -1.3440   -0.1920   -0.0180 N   0  0  2  0  0  0  0  0  0  0  0  0
   -1.4210   -0.8670   -1.2880 C   0  0  0  0  0  0  0  0  0  0  0  0
   -1.9670   -1.0030    1.0120 C   0  0  0  0  0  0  0  0  0  0  0  0
    0.0190    0.0740    0.3870 C   0  0  0  0  0  0  0  0  0  0  0  0
    0.8630    0.6530   -0.6880 C   0  0  0  0  0  0  0  0  0  0  0  0
    2.1700    0.8840   -0.2190 O   0  0  0  0  0  0  0  0  0  0  0  0
    3.0270   -0.0900    0.2540 C   0  0  0  0  0  0  0  0  0  0  0  0
    4.3150    0.3250    0.6910 N   0  0  0  0  0  0  0  0  0  0  0  0
    2.6370   -1.2820    0.2760 O   0  0  0  0  0  0  0  0  0  0  0  0
  2  1  1  6
  2  3  1  0
  2  4  1  0
  2  5  1  0
  5  6  1  0
  6  7  1  0
  7  8  1  0
  8  9  1  0
  8 10  2  0
M  CHG  1   2   1
M  END
