
     RDKit          3D

 15 15  0  0  0  0  0  0  0  0999 V2000
    5.2240   -0.1970    0.9340 C   0  0  0  0  0  0  0  0  0  0  0  0
    3.9210   -0.8590    0.6630 C   0  0  0  0  0  0  0  0  0  0  0  0
    2.9210   -0.1880    0.1380 C   0  0  0  0  0  0  0  0  0  0  0  0
    1.6110   -0.7610   -0.1570 C   0  0  0  0  0  0  0  0  0  0  0  0
    0.6730   -0.0260   -0.6780 C   0  0  0  0  0  0  0  0  0  0  0  0
   -0.6850   -0.4900   -1.0190 C   0  0  0  0  0  0  0  0  0  0  0  0
   -1.7490    0.1880   -0.3600 N   0  0  0  0  0  0  0  0  0  0  0  0
   -3.0620   -0.0870   -0.9120 C   0  0  0  0  0  0  0  0  0  0  0  0
   -3.2420   -1.3800   -1.6190 C   0  0  0  0  0  0  0  0  0  0  0  0
   -4.0450    0.7380   -0.8220 N   0  0  0  0  0  0  0  0  0  0  0  0
   -4.1250    2.0470   -0.2090 C   0  0  0  0  0  0  0  0  0  0  0  0
   -3.2990    2.5840    0.6160 N   0  0  0  0  0  0  0  0  0  0  0  0
   -2.0960    2.0370    1.1440 N   0  0  0  0  0  0  0  0  0  0  0  0
   -1.4100    1.0000    0.7370 C   0  0  0  0  0  0  0  0  0  0  0  0
   -0.2530    0.6740    1.4930 N   0  0  0  0  0  0  0  0  0  0  0  0
  1  2  1  0
  2  3  2  3
  3  4  1  0
  4  5  2  3
  5  6  1  0
  6  7  1  0
  7  8  1  0
  7 14  1  0
  8  9  1  0
  8 10  2  0
 10 11  1  0
 11 12  2  0
 12 13  1  0
 13 14  2  0
 14 15  1  0
M  END
