
     RDKit          3D

 15 16  0  0  0  0  0  0  0  0999 V2000
    3.7280    0.8560   -1.1650 C   0  0  0  0  0  0  0  0  0  0  0  0
    3.1490    0.8950    0.2300 C   0  0  2  0  0  0  0  0  0  0  0  0
    3.9910    0.0780    1.2050 C   0  0  0  0  0  0  0  0  0  0  0  0
    1.7790    0.3200    0.2750 C   0  0  0  0  0  0  0  0  0  0  0  0
    0.7090    1.0000    0.6830 N   0  0  0  0  0  0  0  0  0  0  0  0
   -0.5530    0.4760    0.7260 C   0  0  0  0  0  0  0  0  0  0  0  0
   -0.7650   -0.8210    0.3320 C   0  0  0  0  0  0  0  0  0  0  0  0
   -2.0310   -1.4470    0.3080 N   0  0  0  0  0  0  0  0  0  0  0  0
   -3.2470   -0.7870   -0.0200 C   0  0  0  0  0  0  0  0  0  0  0  0
   -3.4670    0.4970   -0.4580 C   0  0  0  0  0  0  0  0  0  0  0  0
   -4.7900    0.7050   -0.6230 N   0  0  0  0  0  0  0  0  0  0  0  0
   -5.4010   -0.4410   -0.2920 C   0  0  0  0  0  0  0  0  0  0  0  0
   -4.5000   -1.3430    0.0700 N   0  0  0  0  0  0  0  0  0  0  0  0
    0.3790   -1.5210   -0.0950 C   0  0  0  0  0  0  0  0  0  0  0  0
    1.5910   -0.9530   -0.1140 N   0  0  0  0  0  0  0  0  0  0  0  0
  2  1  1  6
  2  3  1  0
  2  4  1  0
  4  5  2  0
  4 15  1  0
  5  6  1  0
  6  7  2  0
  7  8  1  0
  7 14  1  0
  8  9  1  0
  9 10  2  0
  9 13  1  0
 10 11  1  0
 11 12  1  0
 12 13  2  0
 14 15  2  0
M  END
