
     RDKit          3D

 15 16  0  0  0  0  0  0  0  0999 V2000
    4.3530   -1.8920    0.2000 C   0  0  0  0  0  0  0  0  0  0  0  0
    3.0770   -1.1390    0.1130 C   0  0  0  0  0  0  0  0  0  0  0  0
    2.9880    0.1570    0.1600 C   0  0  0  0  0  0  0  0  0  0  0  0
    1.7180    0.8670    0.0710 C   0  0  0  0  0  0  0  0  0  0  0  0
    1.5460    2.2180    0.1130 N   0  0  0  0  0  0  0  0  0  0  0  0
    0.2330    2.4810    0.0010 C   0  0  0  0  0  0  0  0  0  0  0  0
   -0.3250    3.6660   -0.0010 N   0  0  0  0  0  0  0  0  0  0  0  0
   -0.4550    1.3290   -0.1120 N   0  0  0  0  0  0  0  0  0  0  0  0
   -1.7770    1.0970   -0.2450 C   0  0  0  0  0  0  0  0  0  0  0  0
   -2.2190   -0.2090   -0.3420 C   0  0  0  0  0  0  0  0  0  0  0  0
   -3.6750   -0.4190   -0.4870 C   0  0  0  0  0  0  0  0  0  0  0  0
   -4.0600   -1.8580   -0.5840 C   0  0  0  0  0  0  0  0  0  0  0  0
   -1.3140   -1.1740   -0.2980 N   0  0  0  0  0  0  0  0  0  0  0  0
   -0.0230   -0.9260   -0.1670 N   0  0  0  0  0  0  0  0  0  0  0  0
    0.4590    0.3250   -0.0690 C   0  0  0  0  0  0  0  0  0  0  0  0
  1  2  1  0
  2  3  2  3
  3  4  1  0
  4  5  1  0
  4 15  2  0
  5  6  1  0
  6  7  2  0
  6  8  1  0
  8  9  1  0
  8 15  1  0
  9 10  2  0
 10 11  1  0
 10 13  1  0
 11 12  1  0
 13 14  2  0
 14 15  1  0
M  END
