
     RDKit          3D

 26 28  0  0  0  0  0  0  0  0999 V2000
    5.4610   -2.9130   -0.4090 N   0  0  0  0  0  0  0  0  0  0  0  0
    4.9080   -1.6170   -0.1320 C   0  0  0  0  0  0  0  0  0  0  0  0
    5.6900   -0.4960   -0.0510 C   0  0  0  0  0  0  0  0  0  0  0  0
    5.1040    0.6900    0.2120 N   0  0  0  0  0  0  0  0  0  0  0  0
    3.7820    0.8150    0.3980 C   0  0  0  0  0  0  0  0  0  0  0  0
    3.1370    2.1220    0.6880 C   0  0  2  0  0  0  0  0  0  0  0  0
    2.2190    2.0440    1.7040 O   0  0  0  0  0  0  0  0  0  0  0  0
    2.6580    2.8070   -0.5440 C   0  0  0  0  0  0  0  0  0  0  0  0
    1.5290    2.2190   -1.2030 N   0  0  0  0  0  0  0  0  0  0  0  0
    0.2570    2.0760   -0.6380 C   0  0  0  0  0  0  0  0  0  0  0  0
    0.0260    2.4830    0.5200 O   0  0  0  0  0  0  0  0  0  0  0  0
   -0.8390    1.4680   -1.3310 N   0  0  0  0  0  0  0  0  0  0  0  0
   -2.1410    1.3280   -0.7360 C   0  0  1  0  0  0  0  0  0  0  0  0
   -3.2230    2.0010   -1.5460 C   0  0  0  0  0  0  0  0  0  0  0  0
   -4.2640    1.0910   -1.6550 O   0  0  0  0  0  0  0  0  0  0  0  0
   -3.7120   -0.1670   -1.6170 C   0  0  0  0  0  0  0  0  0  0  0  0
   -2.5270   -0.1370   -0.6990 C   0  0  2  0  0  0  0  0  0  0  0  0
   -2.8580   -0.4810    0.7220 C   0  0  2  0  0  0  0  0  0  0  0  0
   -1.7640   -0.2560    1.5270 O   0  0  0  0  0  0  0  0  0  0  0  0
   -3.2600   -1.9320    0.8950 C   0  0  0  0  0  0  0  0  0  0  0  0
   -4.1280   -1.8380    2.1250 C   0  0  0  0  0  0  0  0  0  0  0  0
   -4.5880   -0.5610    2.2440 O   0  0  0  0  0  0  0  0  0  0  0  0
   -4.0540    0.2260    1.2570 C   0  0  0  0  0  0  0  0  0  0  0  0
    3.0260   -0.2860    0.3170 N   0  0  0  0  0  0  0  0  0  0  0  0
    3.5450   -1.5040    0.0570 C   0  0  0  0  0  0  0  0  0  0  0  0
    2.7230   -2.6500   -0.0230 N   0  0  0  0  0  0  0  0  0  0  0  0
  1  2  1  0
  2  3  2  0
  2 25  1  0
  3  4  1  0
  4  5  2  0
  5  6  1  0
  5 24  1  0
  6  7  1  1
  6  8  1  0
  8  9  1  0
  9 10  1  0
 10 11  2  0
 10 12  1  0
 13 12  1  6
 13 14  1  0
 13 17  1  0
 14 15  1  0
 15 16  1  0
 17 16  1  6
 17 18  1  0
 18 19  1  1
 18 20  1  0
 18 23  1  0
 20 21  1  0
 21 22  1  0
 22 23  1  0
 24 25  2  0
 25 26  1  0
M  END
