
     RDKit          3D

 15 16  0  0  0  0  0  0  0  0999 V2000
    4.0100    1.4470    0.6270 C   0  0  0  0  0  0  0  0  0  0  0  0
    2.6400    0.8500    0.5670 C   0  0  0  0  0  0  0  0  0  0  0  0
    2.0180    0.6360   -0.5750 C   0  0  0  0  0  0  0  0  0  0  0  0
    2.6950    1.0000   -1.8480 C   0  0  0  0  0  0  0  0  0  0  0  0
    0.7080    0.0600   -0.5500 N   0  0  0  0  0  0  0  0  0  0  0  0
    0.0540   -0.2890    0.6560 C   0  0  0  0  0  0  0  0  0  0  0  0
   -1.2800   -0.8750    0.6820 C   0  0  2  0  0  0  0  0  0  0  0  0
   -1.3470   -2.2070   -0.0720 C   0  0  0  0  0  0  0  0  0  0  0  0
   -2.8480   -2.4080   -0.1120 C   0  0  0  0  0  0  0  0  0  0  0  0
   -3.3880   -1.0220   -0.2440 C   0  0  0  0  0  0  0  0  0  0  0  0
   -2.2760   -0.1110   -0.0280 N   0  0  0  0  0  0  0  0  0  0  0  0
   -2.2740    1.2270   -0.4630 C   0  0  0  0  0  0  0  0  0  0  0  0
   -3.2350    2.0010   -0.1430 N   0  0  0  0  0  0  0  0  0  0  0  0
    0.6760   -0.0740    1.7640 N   0  0  0  0  0  0  0  0  0  0  0  0
    1.9760    0.4950    1.7740 N   0  0  0  0  0  0  0  0  0  0  0  0
  1  2  1  0
  2  3  2  0
  2 15  1  0
  3  4  1  0
  3  5  1  0
  5  6  1  0
  7  6  1  6
  6 14  2  0
  7  8  1  0
  7 11  1  0
  8  9  1  0
  9 10  1  0
 10 11  1  0
 11 12  1  0
 12 13  2  0
 14 15  1  0
M  END
