
     RDKit          3D

 15 16  0  0  0  0  0  0  0  0999 V2000
    3.6570    1.5460   -0.7490 C   0  0  0  0  0  0  0  0  0  0  0  0
    3.7300    0.5740    0.3810 C   0  0  0  0  0  0  0  0  0  0  0  0
    2.7300   -0.5310    0.2760 C   0  0  0  0  0  0  0  0  0  0  0  0
    1.3400   -0.0100    0.3110 C   0  0  0  0  0  0  0  0  0  0  0  0
    0.3990   -1.1970    0.1980 C   0  0  0  0  0  0  0  0  0  0  0  0
   -1.0130   -0.7430    0.2150 N   0  0  0  0  0  0  0  0  0  0  0  0
   -1.5240   -0.1960    1.4210 C   0  0  0  0  0  0  0  0  0  0  0  0
   -2.9270    0.2360    1.3050 C   0  0  0  0  0  0  0  0  0  0  0  0
   -3.5210    0.8110    2.4950 N   0  0  0  0  0  0  0  0  0  0  0  0
   -3.6410    0.1380    0.2460 N   0  0  0  0  0  0  0  0  0  0  0  0
   -3.1900   -0.4040   -0.9870 C   0  0  0  0  0  0  0  0  0  0  0  0
   -3.6740   -0.6230   -2.1570 N   0  0  0  0  0  0  0  0  0  0  0  0
   -2.6110   -1.2220   -2.9510 C   0  0  0  0  0  0  0  0  0  0  0  0
   -1.4510   -1.3370   -2.0940 N   0  0  0  0  0  0  0  0  0  0  0  0
   -1.8020   -0.8520   -0.9500 C   0  0  0  0  0  0  0  0  0  0  0  0
  1  2  1  0
  2  3  1  0
  3  4  1  0
  4  5  1  0
  5  6  1  0
  6  7  1  0
  6 15  1  0
  7  8  1  0
  8  9  1  0
  8 10  2  0
 10 11  1  0
 11 12  2  0
 11 15  1  0
 12 13  1  0
 13 14  1  0
 14 15  2  0
M  END
