
     RDKit          3D

 16 17  0  0  0  0  0  0  0  0999 V2000
    5.3030    0.1170   -0.0290 C   0  0  0  0  0  0  0  0  0  0  0  0
    3.8690    0.4460    0.0660 C   0  0  0  0  0  0  0  0  0  0  0  0
    2.7840   -0.4210    0.2380 C   0  0  0  0  0  0  0  0  0  0  0  0
    1.6270    0.3160    0.2730 C   0  0  0  0  0  0  0  0  0  0  0  0
    0.2220   -0.1850    0.4400 C   0  0  0  0  0  0  0  0  0  0  0  0
   -0.0450   -1.3030    1.5770 S   0  0  0  0  0  0  0  0  0  0  0  0
   -0.7650    0.3360   -0.3860 N   0  0  0  0  0  0  0  0  0  0  0  0
   -2.1380    0.0220   -0.4130 C   0  0  0  0  0  0  0  0  0  0  0  0
   -2.7920   -0.8790    0.3860 C   0  0  0  0  0  0  0  0  0  0  0  0
   -4.1670   -1.1220    0.2820 C   0  0  0  0  0  0  0  0  0  0  0  0
   -4.8700   -2.3040    1.3730 Cl  0  0  0  0  0  0  0  0  0  0  0  0
   -4.9070   -0.4520   -0.6400 C   0  0  0  0  0  0  0  0  0  0  0  0
   -4.2490    0.4550   -1.4440 C   0  0  0  0  0  0  0  0  0  0  0  0
   -2.9480    0.6640   -1.3230 N   0  0  0  0  0  0  0  0  0  0  0  0
    1.9880    1.5960    0.1260 N   0  0  0  0  0  0  0  0  0  0  0  0
    3.3150    1.6740    0.0040 N   0  0  0  0  0  0  0  0  0  0  0  0
  1  2  1  0
  2  3  1  0
  2 16  2  0
  3  4  2  0
  4  5  1  0
  4 15  1  0
  5  6  2  0
  5  7  1  0
  7  8  1  0
  8  9  2  0
  8 14  1  0
  9 10  1  0
 10 11  1  0
 10 12  2  0
 12 13  1  0
 13 14  2  0
 15 16  1  0
M  END
