
     RDKit          3D

 16 17  0  0  0  0  0  0  0  0999 V2000
    1.7600    1.2860   -0.8600 S   0  0  0  0  0  0  0  0  0  0  0  0
    1.6440   -0.0490    0.0570 C   0  0  0  0  0  0  0  0  0  0  0  0
    2.9080   -0.5450    0.5470 N   0  0  0  0  0  0  0  0  0  0  0  0
    4.1510    0.0900    0.2790 C   0  0  0  0  0  0  0  0  0  0  0  0
    4.3660    1.4150    0.9300 C   0  0  0  0  0  0  0  0  0  0  0  0
    6.0000    1.9850    0.4340 Cl  0  0  0  0  0  0  0  0  0  0  0  0
    0.4550   -0.7230    0.3610 N   0  0  0  0  0  0  0  0  0  0  0  0
   -0.8430   -0.3760   -0.0210 C   0  0  0  0  0  0  0  0  0  0  0  0
   -1.2400    0.8690   -0.4380 C   0  0  0  0  0  0  0  0  0  0  0  0
   -2.5370    1.1620   -0.8300 C   0  0  0  0  0  0  0  0  0  0  0  0
   -3.4680    0.1690   -0.8010 C   0  0  0  0  0  0  0  0  0  0  0  0
   -4.7710    0.2050   -1.1280 N   0  0  0  0  0  0  0  0  0  0  0  0
   -5.2600   -1.0310   -0.9280 N   0  0  0  0  0  0  0  0  0  0  0  0
   -4.2850   -1.8380   -0.4810 C   0  0  0  0  0  0  0  0  0  0  0  0
   -3.1040   -1.1040   -0.3830 C   0  0  0  0  0  0  0  0  0  0  0  0
   -1.8270   -1.3730   -0.0020 C   0  0  0  0  0  0  0  0  0  0  0  0
  1  2  2  0
  2  3  1  0
  2  7  1  0
  3  4  1  0
  4  5  1  0
  5  6  1  0
  7  8  1  0
  8  9  2  0
  8 16  1  0
  9 10  1  0
 10 11  2  0
 11 12  1  0
 11 15  1  0
 12 13  1  0
 13 14  2  0
 14 15  1  0
 15 16  2  0
M  END
