
     RDKit          3D

 15 16  0  0  0  0  0  0  0  0999 V2000
    4.0110    0.2780   -0.4330 C   0  0  0  0  0  0  0  0  0  0  0  0
    2.9690   -0.4410    0.2300 N   0  0  0  0  0  0  0  0  0  0  0  0
    2.2760    0.2760    1.2410 C   0  0  0  0  0  0  0  0  0  0  0  0
    0.9720    0.8640    0.8330 C   0  0  0  0  0  0  0  0  0  0  0  0
    0.2550    0.1140   -0.1530 N   0  0  0  0  0  0  0  0  0  0  0  0
   -1.1840    0.0830   -0.1520 C   0  0  0  0  0  0  0  0  0  0  0  0
   -1.8540    0.3040    0.9260 N   0  0  0  0  0  0  0  0  0  0  0  0
   -3.2800    0.2710    0.9180 C   0  0  0  0  0  0  0  0  0  0  0  0
   -4.1800    0.5860    2.4510 S   0  0  0  0  0  0  0  0  0  0  0  0
   -3.9560    0.0180   -0.1810 C   0  0  0  0  0  0  0  0  0  0  0  0
   -5.7380    0.0020   -0.0770 Cl  0  0  0  0  0  0  0  0  0  0  0  0
   -3.2820   -0.2440   -1.4510 C   0  0  0  0  0  0  0  0  0  0  0  0
   -1.8720   -0.1930   -1.3530 N   0  0  0  0  0  0  0  0  0  0  0  0
    0.9490   -0.6210   -1.1590 C   0  0  0  0  0  0  0  0  0  0  0  0
    2.1720   -1.2690   -0.6070 C   0  0  0  0  0  0  0  0  0  0  0  0
  1  2  1  0
  2  3  1  0
  2 15  1  0
  3  4  1  0
  4  5  1  0
  5  6  1  0
  5 14  1  0
  6  7  2  0
  6 13  1  0
  7  8  1  0
  8  9  1  0
  8 10  2  0
 10 11  1  0
 10 12  1  0
 12 13  1  0
 14 15  1  0
M  END
