
     RDKit          3D

 16 17  0  0  0  0  0  0  0  0999 V2000
   -4.1580   -0.4300   -0.7210 C   0  0  0  0  0  0  0  0  0  0  0  0
   -2.8410   -0.4620   -0.5920 C   0  0  0  0  0  0  0  0  0  0  0  0
   -2.0080   -0.9860   -1.5370 N   0  0  0  0  0  0  0  0  0  0  0  0
   -0.7610   -0.8650   -1.1060 C   0  0  0  0  0  0  0  0  0  0  0  0
    0.5010   -1.4560   -2.0020 S   0  0  0  0  0  0  0  0  0  0  0  0
   -0.7180   -0.2760    0.0980 N   0  0  0  0  0  0  0  0  0  0  0  0
    0.4030    0.0590    0.8450 N   0  0  0  0  0  0  0  0  0  0  0  0
    1.7470    0.0140    0.4390 C   0  0  0  0  0  0  0  0  0  0  0  0
    2.7070   -0.5960    1.2570 C   0  0  0  0  0  0  0  0  0  0  0  0
    4.0380   -0.6040    0.9100 C   0  0  0  0  0  0  0  0  0  0  0  0
    4.4070   -0.0100   -0.2380 N   0  0  0  0  0  0  0  0  0  0  0  0
    3.5010    0.5890   -1.0510 C   0  0  0  0  0  0  0  0  0  0  0  0
    2.1590    0.6140   -0.7300 C   0  0  0  0  0  0  0  0  0  0  0  0
   -2.0260   -0.0230    0.4200 C   0  0  0  0  0  0  0  0  0  0  0  0
   -2.3680    0.5540    1.5430 C   0  0  0  0  0  0  0  0  0  0  0  0
   -3.9960    0.9190    2.0470 Cl  0  0  0  0  0  0  0  0  0  0  0  0
  1  2  2  0
  2  3  1  0
  2 14  1  0
  3  4  1  0
  4  5  2  0
  4  6  1  0
  6  7  1  0
  6 14  1  0
  7  8  1  0
  8  9  2  0
  8 13  1  0
  9 10  1  0
 10 11  2  0
 11 12  1  0
 12 13  2  0
 14 15  2  3
 15 16  1  0
M  END
