
     RDKit          3D

 16 17  0  0  0  0  0  0  0  0999 V2000
    4.8240    0.2910    1.3750 C   0  0  0  0  0  0  0  0  0  0  0  0
    3.8720    0.6500    0.3740 N   0  0  0  0  0  0  0  0  0  0  0  0
    2.5810    1.0050    0.7040 N   0  0  0  0  0  0  0  0  0  0  0  0
    1.5670    0.3840    0.1660 C   0  0  0  0  0  0  0  0  0  0  0  0
    0.3200    0.6840    0.4460 N   0  0  0  0  0  0  0  0  0  0  0  0
   -0.7710    0.0740   -0.0830 C   0  0  0  0  0  0  0  0  0  0  0  0
   -2.1070    0.5660    0.3150 C   0  0  0  0  0  0  0  0  0  0  0  0
   -3.3810    0.3670   -0.1040 C   0  0  0  0  0  0  0  0  0  0  0  0
   -4.3820    1.0270    0.4950 C   0  0  0  0  0  0  0  0  0  0  0  0
   -4.1690    1.8920    1.5100 C   0  0  0  0  0  0  0  0  0  0  0  0
   -5.0950    2.8840    2.4980 Cl  0  0  0  0  0  0  0  0  0  0  0  0
   -2.3110    1.7260    1.6010 S   0  0  0  0  0  0  0  0  0  0  0  0
   -0.5400   -0.9230   -0.9680 C   0  0  0  0  0  0  0  0  0  0  0  0
   -1.6180   -1.6930   -1.5940 C   0  0  0  0  0  0  0  0  0  0  0  0
    0.7620   -1.2600   -1.2830 C   0  0  0  0  0  0  0  0  0  0  0  0
    1.8090   -0.6040   -0.7140 N   0  0  0  0  0  0  0  0  0  0  0  0
  1  2  1  0
  2  3  1  0
  3  4  2  3
  4  5  1  0
  4 16  1  0
  5  6  2  0
  6  7  1  0
  6 13  1  0
  7  8  2  0
  7 12  1  0
  8  9  1  0
  9 10  2  0
 10 11  1  0
 10 12  1  0
 13 14  1  0
 13 15  2  0
 15 16  1  0
M  END
