
     RDKit          3D

 16 17  0  0  0  0  0  0  0  0999 V2000
   -3.1500    1.9110   -0.1290 C   0  0  0  0  0  0  0  0  0  0  0  0
   -3.0940    0.4050   -0.0670 C   0  0  0  0  0  0  0  0  0  0  0  0
   -4.1490   -0.3780    0.0390 C   0  0  0  0  0  0  0  0  0  0  0  0
   -5.8140    0.1740    0.1260 Cl  0  0  0  0  0  0  0  0  0  0  0  0
   -3.6780   -1.7690    0.0680 C   0  0  0  0  0  0  0  0  0  0  0  0
   -2.2220   -1.6680   -0.0340 C   0  0  0  0  0  0  0  0  0  0  0  0
   -1.8870   -0.4010   -0.1120 C   0  0  0  0  0  0  0  0  0  0  0  0
   -0.5280    0.1910   -0.2290 C   0  0  0  0  0  0  0  0  0  0  0  0
    0.7590   -1.0700   -0.2610 S   0  0  0  0  0  0  0  0  0  0  0  0
    2.3300   -0.2350   -0.4020 C   0  0  0  0  0  0  0  0  0  0  0  0
    2.4530    1.1030   -0.4690 N   0  0  0  0  0  0  0  0  0  0  0  0
    3.6420    1.7140   -0.5750 C   0  0  0  0  0  0  0  0  0  0  0  0
    4.7710    0.9960   -0.6200 N   0  0  0  0  0  0  0  0  0  0  0  0
    4.6790   -0.3470   -0.5550 C   0  0  0  0  0  0  0  0  0  0  0  0
    5.8980   -1.1100   -0.6030 N   0  0  0  0  0  0  0  0  0  0  0  0
    3.4770   -0.9330   -0.4490 N   0  0  0  0  0  0  0  0  0  0  0  0
  1  2  1  0
  2  3  2  0
  2  7  1  0
  3  4  1  0
  3  5  1  0
  5  6  1  0
  6  7  2  0
  7  8  1  0
  8  9  1  0
  9 10  1  0
 10 11  2  0
 10 16  1  0
 11 12  1  0
 12 13  2  0
 13 14  1  0
 14 15  1  0
 14 16  2  0
M  END
