
     RDKit          3D

 27 27  0  0  0  0  0  0  0  0999 V2000
    4.6380    3.6680   -1.0000 C   0  0  0  0  0  0  0  0  0  0  0  0
    3.7080    2.5910   -0.9780 O   0  0  0  0  0  0  0  0  0  0  0  0
    3.3790    1.9650    0.1900 C   0  0  0  0  0  0  0  0  0  0  0  0
    3.9370    2.3880    1.2330 O   0  0  0  0  0  0  0  0  0  0  0  0
    2.3980    0.8250    0.2170 C   0  0  0  0  0  0  0  0  0  0  0  0
    2.1670    0.2990    1.3690 C   0  0  0  0  0  0  0  0  0  0  0  0
    1.3480   -0.7700    1.8860 C   0  0  0  0  0  0  0  0  0  0  0  0
    0.7990   -0.5290    3.2170 O   0  0  0  0  0  0  0  0  0  0  0  0
    1.2660   -1.3960    4.1260 O   0  0  0  0  0  0  0  0  0  0  0  0
    0.9900   -1.9290    1.3920 C   0  0  0  0  0  0  0  0  0  0  0  0
    1.2230   -2.6280    0.1810 C   0  0  0  0  0  0  0  0  0  0  0  0
    0.4760   -2.9100   -0.8770 C   0  0  0  0  0  0  0  0  0  0  0  0
   -0.9070   -2.5800   -1.1470 C   0  0  0  0  0  0  0  0  0  0  0  0
   -1.4760   -3.1770   -2.2050 C   0  0  0  0  0  0  0  0  0  0  0  0
   -2.8760   -2.9640   -2.6330 C   0  0  0  0  0  0  0  0  0  0  0  0
   -2.9790   -2.4620   -3.9080 O   0  0  0  0  0  0  0  0  0  0  0  0
   -1.7170   -1.7090   -0.3830 N   0  0  0  0  0  0  0  0  0  0  0  0
   -1.3910   -0.3440   -0.0320 C   0  0  0  0  0  0  0  0  0  0  0  0
   -2.2720    0.3000    1.0200 C   0  0  2  0  0  0  0  0  0  0  0  0
   -3.6550    0.3100    0.5490 N   0  0  0  0  0  0  0  0  0  0  0  0
   -1.8260    1.6330    1.4060 C   0  0  0  0  0  0  0  0  0  0  0  0
   -0.6700    1.8150    1.8290 O   0  0  0  0  0  0  0  0  0  0  0  0
   -2.6860    2.7180    1.3080 O   0  0  0  0  0  0  0  0  0  0  0  0
   -2.2620    4.0090    1.6790 C   0  0  0  0  0  0  0  0  0  0  0  0
   -0.4630    0.3190   -0.5160 N   0  0  0  0  0  0  0  0  0  0  0  0
    0.5620    0.2830   -1.4010 C   0  0  0  0  0  0  0  0  0  0  0  0
    1.8610    0.5070   -1.0940 C   0  0  0  0  0  0  0  0  0  0  0  0
  1  2  1  0
  2  3  1  0
  3  4  2  0
  3  5  1  0
  5  6  2  0
  5 27  1  0
  6  7  1  0
  7  8  1  0
  7 10  2  0
  8  9  1  0
 10 11  1  0
 11 12  2  0
 12 13  1  0
 13 14  2  3
 13 17  1  0
 14 15  1  0
 15 16  1  0
 17 18  1  0
 18 19  1  0
 18 25  2  0
 19 20  1  6
 19 21  1  0
 21 22  2  0
 21 23  1  0
 23 24  1  0
 25 26  1  0
 26 27  2  0
M  END
