
     RDKit          3D

 27 28  0  0  0  0  0  0  0  0999 V2000
    3.2930   -0.8770   -2.9660 C   0  0  0  0  0  0  0  0  0  0  0  0
    3.8500   -0.4790   -1.6620 C   0  0  1  0  0  0  0  0  0  0  0  0
    4.2580    0.9900   -1.5420 C   0  0  0  0  0  0  0  0  0  0  0  0
    5.5940    1.2940   -1.2760 N   0  0  0  0  0  0  0  0  0  0  0  0
    6.3080    1.1390   -0.1790 C   0  0  0  0  0  0  0  0  0  0  0  0
    6.7720   -0.2440    0.3250 C   0  0  0  0  0  0  0  0  0  0  0  0
    7.4990    0.1780    1.5340 O   0  0  0  0  0  0  0  0  0  0  0  0
    6.9220   -0.4200    2.5770 O   0  0  0  0  0  0  0  0  0  0  0  0
    3.4870   -1.1610   -0.5520 O   0  0  0  0  0  0  0  0  0  0  0  0
    2.5450   -0.3990    0.2580 C   0  0  0  0  0  0  0  0  0  0  0  0
    1.5070   -0.0240   -0.7140 C   0  0  0  0  0  0  0  0  0  0  0  0
    0.2220    0.4420   -0.2310 C   0  0  0  0  0  0  0  0  0  0  0  0
   -0.2100    1.6530   -0.3420 O   0  0  0  0  0  0  0  0  0  0  0  0
   -0.6260   -0.4520    0.3610 O   0  0  0  0  0  0  0  0  0  0  0  0
   -1.9260   -0.2460    0.7480 C   0  0  0  0  0  0  0  0  0  0  0  0
   -2.7630   -0.6340   -0.2700 C   0  0  0  0  0  0  0  0  0  0  0  0
   -4.1110   -0.5260   -0.1450 O   0  0  0  0  0  0  0  0  0  0  0  0
   -4.7330   -0.0160    1.0320 C   0  0  0  0  0  0  0  0  0  0  0  0
   -6.1880    0.0090    0.9940 C   0  0  0  0  0  0  0  0  0  0  0  0
   -6.9230    0.5700    2.0500 C   0  0  0  0  0  0  0  0  0  0  0  0
   -8.2880    0.4530    2.0130 C   0  0  0  0  0  0  0  0  0  0  0  0
   -8.9600   -0.1920    0.9910 C   0  0  0  0  0  0  0  0  0  0  0  0
  -10.3610   -0.3210    1.0430 O   0  0  0  0  0  0  0  0  0  0  0  0
   -8.2620   -0.7340   -0.0370 C   0  0  0  0  0  0  0  0  0  0  0  0
   -6.8460   -0.6300   -0.0290 C   0  0  0  0  0  0  0  0  0  0  0  0
   -3.9530    0.3380    1.9580 N   0  0  0  0  0  0  0  0  0  0  0  0
   -2.5220    0.2430    1.8700 N   0  0  0  0  0  0  0  0  0  0  0  0
  2  1  1  6
  2  3  1  0
  2  9  1  0
  3  4  1  0
  4  5  1  0
  5  6  1  0
  6  7  1  0
  7  8  1  0
  9 10  1  0
 10 11  1  0
 11 12  1  0
 12 13  2  0
 12 14  1  0
 14 15  1  0
 15 16  2  0
 15 27  1  0
 16 17  1  0
 17 18  1  0
 18 19  1  0
 18 26  2  0
 19 20  2  0
 19 25  1  0
 20 21  1  0
 21 22  2  0
 22 23  1  0
 22 24  1  0
 24 25  2  0
 26 27  1  0
M  END
