
     RDKit          3D

 27 27  0  0  0  0  0  0  0  0999 V2000
   -3.5490   -1.7820   -3.2510 C   0  0  0  0  0  0  0  0  0  0  0  0
   -3.3580   -1.6820   -1.9130 C   0  0  0  0  0  0  0  0  0  0  0  0
   -4.2980   -2.3600   -1.0690 C   0  0  0  0  0  0  0  0  0  0  0  0
   -4.4070   -2.4670    0.2170 C   0  0  0  0  0  0  0  0  0  0  0  0
   -3.5270   -1.8740    1.0900 O   0  0  0  0  0  0  0  0  0  0  0  0
   -2.2410   -0.9130   -1.4330 C   0  0  0  0  0  0  0  0  0  0  0  0
   -1.4840   -0.3620   -2.3390 O   0  0  0  0  0  0  0  0  0  0  0  0
   -1.8480   -0.6710   -0.1470 O   0  0  0  0  0  0  0  0  0  0  0  0
   -0.7220    0.1080    0.1710 C   0  0  0  0  0  0  0  0  0  0  0  0
   -0.8980    1.5350    0.3530 C   0  0  0  0  0  0  0  0  0  0  0  0
   -2.1070    2.0360    0.2120 N   0  0  0  0  0  0  0  0  0  0  0  0
   -2.3330    3.4540    0.3840 C   0  0  0  0  0  0  0  0  0  0  0  0
   -3.7590    3.7670    0.2580 C   0  0  0  0  0  0  0  0  0  0  0  0
   -4.5920    2.8540    0.0310 O   0  0  0  0  0  0  0  0  0  0  0  0
   -4.2420    5.0540    0.3810 O   0  0  0  0  0  0  0  0  0  0  0  0
    0.4410   -0.4530    0.2950 C   0  0  0  0  0  0  0  0  0  0  0  0
    1.6350    0.2720    0.6170 C   0  0  0  0  0  0  0  0  0  0  0  0
    2.8150   -0.3220    0.7380 C   0  0  0  0  0  0  0  0  0  0  0  0
    2.8660   -1.7400    0.5350 N   0  0  0  0  0  0  0  0  0  0  0  0
    3.6570   -2.3350   -0.4700 C   0  0  0  0  0  0  0  0  0  0  0  0
    3.7390   -3.7300   -0.7070 N   0  0  0  0  0  0  0  0  0  0  0  0
    4.3360   -1.5430   -1.2020 O   0  0  0  0  0  0  0  0  0  0  0  0
    4.0310    0.3910    1.0620 C   0  0  0  0  0  0  0  0  0  0  0  0
    4.1340    1.7550    1.2850 C   0  0  0  0  0  0  0  0  0  0  0  0
    5.4570    2.0000    1.5580 C   0  0  0  0  0  0  0  0  0  0  0  0
    6.1070    0.7890    1.4930 C   0  0  0  0  0  0  0  0  0  0  0  0
    5.2170   -0.1020    1.2000 O   0  0  0  0  0  0  0  0  0  0  0  0
  1  2  2  0
  2  3  1  0
  2  6  1  0
  3  4  2  3
  4  5  1  0
  6  7  2  0
  6  8  1  0
  8  9  1  0
  9 10  1  0
  9 16  2  3
 10 11  2  3
 11 12  1  0
 12 13  1  0
 13 14  2  0
 13 15  1  0
 16 17  1  0
 17 18  2  3
 18 19  1  0
 18 23  1  0
 19 20  1  0
 20 21  1  0
 20 22  2  0
 23 24  2  0
 23 27  1  0
 24 25  1  0
 25 26  2  0
 26 27  1  0
M  END
