
     RDKit          3D

 27 29  0  0  0  0  0  0  0  0999 V2000
    5.5170    3.2020    0.8590 C   0  0  0  0  0  0  0  0  0  0  0  0
    4.1510    3.1580    0.9900 O   0  0  0  0  0  0  0  0  0  0  0  0
    3.5860    1.9080    0.9080 C   0  0  0  0  0  0  0  0  0  0  0  0
    3.8420    1.2180   -0.3990 C   0  0  0  0  0  0  0  0  0  0  0  0
    3.2670   -0.0810   -0.5120 N   0  0  0  0  0  0  0  0  0  0  0  0
    1.8290   -0.3370   -0.4200 C   0  0  0  0  0  0  0  0  0  0  0  0
    1.1860    0.6890   -0.2380 O   0  0  0  0  0  0  0  0  0  0  0  0
    1.3230   -1.6810   -0.5440 C   0  0  0  0  0  0  0  0  0  0  0  0
    0.0190   -1.9860   -0.4680 C   0  0  0  0  0  0  0  0  0  0  0  0
   -0.8460   -0.9510   -0.2640 N   0  0  0  0  0  0  0  0  0  0  0  0
   -2.2310   -0.8860   -0.1360 C   0  0  0  0  0  0  0  0  0  0  0  0
   -3.0020   -1.8350   -0.1850 O   0  0  0  0  0  0  0  0  0  0  0  0
   -2.9210    0.4240    0.0830 C   0  0  0  0  0  0  0  0  0  0  0  0
   -4.1410    0.4750    0.7060 C   0  0  0  0  0  0  0  0  0  0  0  0
   -4.7710    1.7170    0.8900 C   0  0  0  0  0  0  0  0  0  0  0  0
   -4.1790    2.8920    0.4510 C   0  0  0  0  0  0  0  0  0  0  0  0
   -4.8040    4.1220    0.6330 O   0  0  0  0  0  0  0  0  0  0  0  0
   -6.1030    4.2250    0.9310 O   0  0  0  0  0  0  0  0  0  0  0  0
   -2.9590    2.8150   -0.1700 C   0  0  0  0  0  0  0  0  0  0  0  0
   -2.3320    1.5740   -0.3520 C   0  0  0  0  0  0  0  0  0  0  0  0
   -0.3210   -3.4280   -0.6180 C   0  0  0  0  0  0  0  0  0  0  0  0
   -1.5310   -4.0860   -0.5950 C   0  0  0  0  0  0  0  0  0  0  0  0
   -1.2350   -5.4540   -0.7910 C   0  0  0  0  0  0  0  0  0  0  0  0
    0.0790   -5.5750   -0.9200 N   0  0  0  0  0  0  0  0  0  0  0  0
    0.6710   -4.3860   -0.8240 C   0  0  0  0  0  0  0  0  0  0  0  0
    1.9890   -3.9720   -0.8870 O   0  0  0  0  0  0  0  0  0  0  0  0
    2.3070   -2.6860   -0.7540 O   0  0  0  0  0  0  0  0  0  0  0  0
  1  2  1  0
  2  3  1  0
  3  4  1  0
  4  5  1  0
  5  6  1  0
  6  7  2  0
  6  8  1  0
  8  9  2  0
  8 27  1  0
  9 10  1  0
  9 21  1  0
 10 11  1  0
 11 12  2  0
 11 13  1  0
 13 14  2  0
 13 20  1  0
 14 15  1  0
 15 16  2  0
 16 17  1  0
 16 19  1  0
 17 18  1  0
 19 20  2  0
 21 22  1  0
 21 25  2  0
 22 23  2  0
 23 24  1  0
 24 25  1  0
 25 26  1  0
 26 27  1  0
M  END
