
     RDKit          3D

 27 28  0  0  0  0  0  0  0  0999 V2000
   -0.6780   -3.8640   -0.2660 O   0  0  0  0  0  0  0  0  0  0  0  0
   -1.7640   -4.0910    0.3220 C   0  0  0  0  0  0  0  0  0  0  0  0
   -2.7510   -3.0910    0.3910 N   0  0  0  0  0  0  0  0  0  0  0  0
   -2.4590   -1.7900   -0.2420 C   0  0  1  0  0  0  0  0  0  0  0  0
   -3.4530   -1.6170   -1.3930 C   0  0  0  0  0  0  0  0  0  0  0  0
   -4.7680   -1.6550   -0.8960 O   0  0  0  0  0  0  0  0  0  0  0  0
   -2.5680   -0.7080    0.7350 C   0  0  0  0  0  0  0  0  0  0  0  0
   -3.3410   -0.8300    1.7480 O   0  0  0  0  0  0  0  0  0  0  0  0
   -1.8530    0.5460    0.6690 N   0  0  0  0  0  0  0  0  0  0  0  0
   -0.9510    0.7070   -0.4100 C   0  0  0  0  0  0  0  0  0  0  0  0
    0.4500    0.2690   -0.0600 C   0  0  0  0  0  0  0  0  0  0  0  0
    0.6570   -0.1630    1.0750 O   0  0  0  0  0  0  0  0  0  0  0  0
    1.4330    0.3740   -1.0310 N   0  0  0  0  0  0  0  0  0  0  0  0
    2.7810    0.0060   -0.8380 C   0  0  0  0  0  0  0  0  0  0  0  0
    3.3740   -0.2860    0.3650 C   0  0  0  0  0  0  0  0  0  0  0  0
    4.7180   -0.6620    0.4870 C   0  0  0  0  0  0  0  0  0  0  0  0
    5.5110   -0.7530   -0.6320 C   0  0  0  0  0  0  0  0  0  0  0  0
    4.9580   -0.4680   -1.8590 C   0  0  0  0  0  0  0  0  0  0  0  0
    5.7650   -0.5620   -2.9830 O   0  0  0  0  0  0  0  0  0  0  0  0
    3.6410   -0.1030   -1.9490 C   0  0  0  0  0  0  0  0  0  0  0  0
   -2.0580    1.5130    1.6580 C   0  0  0  0  0  0  0  0  0  0  0  0
   -2.9640    1.2070    2.5440 O   0  0  0  0  0  0  0  0  0  0  0  0
   -1.4360    2.7910    1.8640 C   0  0  0  0  0  0  0  0  0  0  0  0
   -0.3960    3.4020    1.2080 C   0  0  0  0  0  0  0  0  0  0  0  0
   -0.2030    4.6590    1.7950 C   0  0  0  0  0  0  0  0  0  0  0  0
   -1.0740    4.7890    2.7440 O   0  0  0  0  0  0  0  0  0  0  0  0
   -1.8260    3.7370    2.8410 C   0  0  0  0  0  0  0  0  0  0  0  0
  1  2  2  0
  2  3  1  0
  3  4  1  0
  4  5  1  6
  4  7  1  0
  5  6  1  0
  7  8  2  0
  7  9  1  0
  9 10  1  0
  9 21  1  0
 10 11  1  0
 11 12  2  0
 11 13  1  0
 13 14  1  0
 14 15  2  0
 14 20  1  0
 15 16  1  0
 16 17  2  0
 17 18  1  0
 18 19  1  0
 18 20  2  0
 21 22  2  0
 21 23  1  0
 23 24  1  0
 23 27  2  0
 24 25  2  0
 25 26  1  0
 26 27  1  0
M  END
