
     RDKit          3D

 27 28  0  0  0  0  0  0  0  0999 V2000
    6.0760    2.9720   -0.7280 C   0  0  0  0  0  0  0  0  0  0  0  0
    5.7730    1.7410   -0.0620 N   0  0  0  0  0  0  0  0  0  0  0  0
    4.4510    1.2810    0.1490 C   0  0  0  0  0  0  0  0  0  0  0  0
    3.4800    1.9540   -0.2500 O   0  0  0  0  0  0  0  0  0  0  0  0
    4.2510    0.0070    0.8410 C   0  0  0  0  0  0  0  0  0  0  0  0
    2.8190   -0.4160    0.9210 C   0  0  0  0  0  0  0  0  0  0  0  0
    2.2190   -0.6190   -0.4460 C   0  0  0  0  0  0  0  0  0  0  0  0
    0.8160   -1.0520   -0.2680 N   0  0  0  0  0  0  0  0  0  0  0  0
   -0.1740   -0.0430   -0.1870 C   0  0  0  0  0  0  0  0  0  0  0  0
    0.1720    1.1680   -0.2590 O   0  0  0  0  0  0  0  0  0  0  0  0
   -1.5630   -0.3200   -0.0240 N   0  0  0  0  0  0  0  0  0  0  0  0
   -2.5280    0.7350    0.0520 C   0  0  0  0  0  0  0  0  0  0  0  0
   -2.0470    1.8770   -0.0270 O   0  0  0  0  0  0  0  0  0  0  0  0
   -3.9600    0.4600    0.2090 C   0  0  0  0  0  0  0  0  0  0  0  0
   -4.3810   -0.8020    0.2810 C   0  0  0  0  0  0  0  0  0  0  0  0
   -5.7740   -1.1490    0.4360 C   0  0  0  0  0  0  0  0  0  0  0  0
   -6.6970   -0.2160    0.5130 C   0  0  0  0  0  0  0  0  0  0  0  0
   -6.3070    1.0970    0.4430 O   0  0  0  0  0  0  0  0  0  0  0  0
   -4.9540    1.5080    0.2920 C   0  0  0  0  0  0  0  0  0  0  0  0
   -4.7240    2.7820    0.2410 C   0  0  0  0  0  0  0  0  0  0  0  0
   -3.5510    3.4450    0.1040 O   0  0  0  0  0  0  0  0  0  0  0  0
   -3.4810    4.6480   -0.4890 O   0  0  0  0  0  0  0  0  0  0  0  0
    0.5730   -2.4480   -0.2080 C   0  0  0  0  0  0  0  0  0  0  0  0
    1.5400   -3.4060    0.0480 C   0  0  0  0  0  0  0  0  0  0  0  0
    0.9190   -4.6440    0.0240 C   0  0  0  0  0  0  0  0  0  0  0  0
   -0.4170   -4.3820   -0.2500 C   0  0  0  0  0  0  0  0  0  0  0  0
   -0.5630   -3.1060   -0.3740 O   0  0  0  0  0  0  0  0  0  0  0  0
  1  2  1  0
  2  3  1  0
  3  4  2  0
  3  5  1  0
  5  6  1  0
  6  7  1  0
  7  8  1  0
  8  9  1  0
  8 23  1  0
  9 10  2  0
  9 11  1  0
 11 12  1  0
 12 13  2  0
 12 14  1  0
 14 15  2  0
 14 19  1  0
 15 16  1  0
 16 17  2  0
 17 18  1  0
 18 19  1  0
 19 20  2  3
 20 21  1  0
 21 22  1  0
 23 24  2  0
 23 27  1  0
 24 25  1  0
 25 26  2  0
 26 27  1  0
M  END
