
     RDKit          3D

 13 13  0  0  0  0  0  0  0  0999 V2000
   -2.3280    0.3100    1.1770 C   0  0  0  0  0  0  0  0  0  0  0  0
   -1.2520    0.1460    0.0900 C   0  0  1  0  0  0  0  0  0  0  0  0
   -1.5640   -1.1360   -0.6510 C   0  0  0  0  0  0  0  0  0  0  0  0
   -1.4110    1.2930   -0.8820 C   0  0  0  0  0  0  0  0  0  0  0  0
   -0.0470    0.0560    0.7000 O   0  0  0  0  0  0  0  0  0  0  0  0
    1.2420   -0.0910    0.3450 C   0  0  0  0  0  0  0  0  0  0  0  0
    1.7850   -0.2200   -0.8330 C   0  0  0  0  0  0  0  0  0  0  0  0
    0.9820   -0.2420   -2.3620 Cl  0  0  0  0  0  0  0  0  0  0  0  0
    3.2590   -0.3520   -0.6870 C   0  0  0  0  0  0  0  0  0  0  0  0
    4.0910   -0.4920   -1.6160 O   0  0  0  0  0  0  0  0  0  0  0  0
    3.4880   -0.2810    0.7340 C   0  0  0  0  0  0  0  0  0  0  0  0
    2.3400   -0.1310    1.3450 C   0  0  0  0  0  0  0  0  0  0  0  0
    2.1670   -0.0010    3.0720 Cl  0  0  0  0  0  0  0  0  0  0  0  0
  2  1  1  1
  2  3  1  0
  2  4  1  0
  2  5  1  0
  5  6  1  0
  6  7  2  0
  6 12  1  0
  7  8  1  0
  7  9  1  0
  9 10  2  0
  9 11  1  0
 11 12  2  0
 12 13  1  0
M  END
