
     RDKit          3D

 13 13  0  0  0  0  0  0  0  0999 V2000
    3.6940    0.7770   -0.8000 C   0  0  0  0  0  0  0  0  0  0  0  0
    2.4960    0.8600   -0.2560 C   0  0  0  0  0  0  0  0  0  0  0  0
    2.1650   -0.0570    0.8670 C   0  0  0  0  0  0  0  0  0  0  0  0
    1.0900   -0.8510    0.5560 O   0  0  0  0  0  0  0  0  0  0  0  0
   -0.2040   -0.5840    0.2690 C   0  0  0  0  0  0  0  0  0  0  0  0
   -0.8050    0.6620    0.2320 C   0  0  0  0  0  0  0  0  0  0  0  0
   -2.1460    0.8350   -0.0730 C   0  0  0  0  0  0  0  0  0  0  0  0
   -2.8420    2.4550   -0.1020 Cl  0  0  0  0  0  0  0  0  0  0  0  0
   -2.8940   -0.2790   -0.3450 C   0  0  0  0  0  0  0  0  0  0  0  0
   -4.2330   -0.1670   -0.6540 O   0  0  0  0  0  0  0  0  0  0  0  0
   -2.3370   -1.5470   -0.3190 C   0  0  0  0  0  0  0  0  0  0  0  0
   -1.0150   -1.6950   -0.0170 C   0  0  0  0  0  0  0  0  0  0  0  0
   -0.3480   -3.3220    0.0050 Cl  0  0  0  0  0  0  0  0  0  0  0  0
  1  2  2  0
  2  3  1  0
  3  4  1  0
  4  5  1  0
  5  6  2  0
  5 12  1  0
  6  7  1  0
  7  8  1  0
  7  9  2  0
  9 10  1  0
  9 11  1  0
 11 12  2  0
 12 13  1  0
M  END
