
     RDKit          3D

 12 12  0  0  0  0  0  0  0  0999 V2000
    4.8810   -0.1250   -0.0500 C   0  0  0  0  0  0  0  0  0  0  0  0
    3.6410   -0.7290    0.1260 O   0  0  0  0  0  0  0  0  0  0  0  0
    2.6470    0.2240   -0.0930 C   0  0  0  0  0  0  0  0  0  0  0  0
    1.2660   -0.3560    0.0790 C   0  0  0  0  0  0  0  0  0  0  0  0
    0.3270    0.6760   -0.1610 O   0  0  0  0  0  0  0  0  0  0  0  0
   -1.0210    0.3990   -0.0650 C   0  0  0  0  0  0  0  0  0  0  0  0
   -1.4970   -0.8050   -0.3020 C   0  0  0  0  0  0  0  0  0  0  0  0
   -2.9170   -1.1610   -0.2170 C   0  0  0  0  0  0  0  0  0  0  0  0
   -3.8710   -0.1110    0.1580 C   0  0  0  0  0  0  0  0  0  0  0  0
   -3.2680    1.1980    0.4040 C   0  0  0  0  0  0  0  0  0  0  0  0
   -1.9860    1.4260    0.3030 C   0  0  0  0  0  0  0  0  0  0  0  0
   -1.4470    3.0770    0.6390 Cl  0  0  0  0  0  0  0  0  0  0  0  0
  1  2  1  0
  2  3  1  0
  3  4  1  0
  4  5  1  0
  5  6  1  0
  6  7  2  0
  6 11  1  0
  7  8  1  0
  8  9  1  0
  9 10  1  0
 10 11  2  0
 11 12  1  0
M  END
