
     RDKit          3D

 13 13  0  0  0  0  0  0  0  0999 V2000
    3.8210    0.1500    0.0280 C   0  0  0  0  0  0  0  0  0  0  0  0
    2.3410    0.2730    0.1140 C   0  0  0  0  0  0  0  0  0  0  0  0
    1.8470    0.6810    1.1950 O   0  0  0  0  0  0  0  0  0  0  0  0
    1.4880   -0.0360   -0.9240 O   0  0  0  0  0  0  0  0  0  0  0  0
    0.1190    0.1190   -0.7250 C   0  0  0  0  0  0  0  0  0  0  0  0
   -0.4710    1.2680   -1.0040 C   0  0  0  0  0  0  0  0  0  0  0  0
   -1.9340    1.3670   -0.7680 C   0  0  0  0  0  0  0  0  0  0  0  0
   -2.2890    0.7660    0.5620 C   0  0  0  0  0  0  0  0  0  0  0  0
   -1.9880   -0.7000    0.5020 C   0  0  0  0  0  0  0  0  0  0  0  0
   -0.7030   -0.9740   -0.2050 C   0  0  0  0  0  0  0  0  0  0  0  0
   -0.3170   -2.2170   -0.3510 C   0  0  0  0  0  0  0  0  0  0  0  0
   -1.3140   -3.4990    0.2770 Cl  0  0  0  0  0  0  0  0  0  0  0  0
    1.1880   -2.5410   -1.1740 Cl  0  0  0  0  0  0  0  0  0  0  0  0
  1  2  1  0
  2  3  2  0
  2  4  1  0
  4  5  1  0
  5  6  2  0
  5 10  1  0
  6  7  1  0
  7  8  1  0
  8  9  1  0
  9 10  1  0
 10 11  2  3
 11 12  1  0
 11 13  1  0
M  END
