
     RDKit          3D

 17 17  0  0  0  0  0  0  0  0999 V2000
    4.4070   -0.6960   -0.1310 N   0  0  0  0  0  0  0  0  0  0  0  0
    3.5920    0.1150    0.7510 C   0  0  0  0  0  0  0  0  0  0  0  0
    2.3110    0.3710    0.1210 N   0  0  0  0  0  0  0  0  0  0  0  0
    1.6510   -0.8920   -0.1310 C   0  0  0  0  0  0  0  0  0  0  0  0
    0.3640   -0.5970   -0.8510 C   0  0  0  0  0  0  0  0  0  0  0  0
   -0.4960    0.1150    0.0750 N   0  0  0  0  0  0  0  0  0  0  0  0
   -1.8870    0.1680   -0.1690 C   0  0  0  0  0  0  0  0  0  0  0  0
   -2.7420   -0.8590    0.3900 C   0  0  0  0  0  0  0  0  0  0  0  0
   -2.3090   -1.8520    1.1190 C   0  0  0  0  0  0  0  0  0  0  0  0
   -3.5190   -3.1390    1.7980 Br  0  0  0  0  0  0  0  0  0  0  0  0
   -2.3860    1.1320   -0.8900 C   0  0  0  0  0  0  0  0  0  0  0  0
   -3.7980    1.3350   -1.2380 C   0  0  1  0  0  0  0  0  0  0  0  0
   -3.9430    2.9290   -2.3570 Br  0  0  0  0  0  0  0  0  0  0  0  0
   -4.5640   -0.1410   -2.2290 Br  0  0  0  0  0  0  0  0  0  0  0  0
   -4.8040    1.6150    0.3940 Br  0  0  0  0  0  0  0  0  0  0  0  0
    0.1430    0.7380    1.2140 C   0  0  0  0  0  0  0  0  0  0  0  0
    1.5030    1.2920    0.8620 C   0  0  0  0  0  0  0  0  0  0  0  0
  1  2  1  0
  2  3  1  0
  3  4  1  0
  3 17  1  0
  4  5  1  0
  5  6  1  0
  6  7  1  0
  6 16  1  0
  7  8  1  0
  7 11  2  3
  8  9  2  3
  9 10  1  0
 11 12  1  0
 12 13  1  6
 12 14  1  0
 12 15  1  0
 16 17  1  0
M  END
