
     RDKit          3D

 13 13  0  0  0  0  0  0  0  0999 V2000
   -3.3510    0.7740   -0.1180 C   0  0  0  0  0  0  0  0  0  0  0  0
   -1.9080    0.3470    0.0070 C   0  0  0  0  0  0  0  0  0  0  0  0
   -0.9440    1.1780   -0.2340 C   0  0  0  0  0  0  0  0  0  0  0  0
    0.4450    0.8040   -0.1260 C   0  0  0  0  0  0  0  0  0  0  0  0
    1.3880    1.6510    0.4790 C   0  0  0  0  0  0  0  0  0  0  0  0
    2.5970    0.9950    0.4110 C   0  0  0  0  0  0  0  0  0  0  0  0
    2.3660   -0.2060   -0.2200 C   0  0  0  0  0  0  0  0  0  0  0  0
    3.3670   -1.2840   -0.5360 C   0  0  1  0  0  0  0  0  0  0  0  0
    4.6970   -0.5880   -1.4820 Cl  0  0  0  0  0  0  0  0  0  0  0  0
    4.0370   -1.9700    0.9610 Cl  0  0  0  0  0  0  0  0  0  0  0  0
    1.1060   -0.2430   -0.4980 O   0  0  0  0  0  0  0  0  0  0  0  0
   -1.6480   -1.0390    0.4300 C   0  0  0  0  0  0  0  0  0  0  0  0
   -2.1820   -1.9670   -0.4680 O   0  0  0  0  0  0  0  0  0  0  0  0
  1  2  1  0
  2  3  2  3
  2 12  1  0
  3  4  1  0
  4  5  2  0
  4 11  1  0
  5  6  1  0
  6  7  2  0
  7  8  1  0
  7 11  1  0
  8  9  1  6
  8 10  1  0
 12 13  1  0
M  END
