
     RDKit          3D

 10 10  0  0  0  0  0  0  0  0999 V2000
   -1.8620    1.4380    0.3780 N   0  0  0  0  0  0  0  0  0  0  0  0
   -1.5800    0.0210    0.4240 C   0  0  1  0  0  0  0  0  0  0  0  0
   -1.7350   -0.6360   -0.9120 C   0  0  0  0  0  0  0  0  0  0  0  0
   -0.7300   -0.4220   -1.7950 O   0  0  0  0  0  0  0  0  0  0  0  0
    0.4590    0.0130   -1.2800 C   0  0  0  0  0  0  0  0  0  0  0  0
    0.7930   -0.5730    0.0710 C   0  0  1  0  0  0  0  0  0  0  0  0
    1.0060   -1.9260   -0.0960 O   0  0  0  0  0  0  0  0  0  0  0  0
    2.0830    0.1010    0.5310 C   0  0  0  0  0  0  0  0  0  0  0  0
    3.1000   -0.0770   -0.4090 O   0  0  0  0  0  0  0  0  0  0  0  0
   -0.2640   -0.2740    1.0820 C   0  0  0  0  0  0  0  0  0  0  0  0
  2  1  1  6
  2  3  1  0
  2 10  1  0
  3  4  1  0
  4  5  1  0
  5  6  1  0
  6  7  1  6
  6  8  1  0
  6 10  1  0
  8  9  1  0
M  CHG  1   1   1
M  END
