
     RDKit          3D

 10 10  0  0  0  0  0  0  0  0999 V2000
    2.8900    0.9540   -1.4040 O   0  0  0  0  0  0  0  0  0  0  0  0
    1.5150    0.8020   -1.1590 C   0  0  0  0  0  0  0  0  0  0  0  0
    1.3660   -0.1170    0.0240 C   0  0  2  0  0  0  0  0  0  0  0  0
    1.9530   -1.3420   -0.2870 O   0  0  0  0  0  0  0  0  0  0  0  0
   -0.0420   -0.3720    0.4250 C   0  0  2  0  0  0  0  0  0  0  0  0
   -0.0080   -1.2210    1.5480 O   0  0  0  0  0  0  0  0  0  0  0  0
   -0.7890   -1.0820   -0.6480 C   0  0  0  0  0  0  0  0  0  0  0  0
   -2.1320   -0.4050   -0.6640 C   0  0  0  0  0  0  0  0  0  0  0  0
   -2.1470    0.5990    0.3430 N   0  0  0  0  0  0  0  0  0  0  0  0
   -0.8170    0.8530    0.7870 C   0  0  0  0  0  0  0  0  0  0  0  0
  1  2  1  0
  2  3  1  0
  3  4  1  6
  3  5  1  0
  5  6  1  1
  5  7  1  0
  5 10  1  0
  7  8  1  0
  8  9  1  0
  9 10  1  0
M  CHG  1   9   1
M  END
