
     RDKit          3D

 11 11  0  0  0  0  0  0  0  0999 V2000
   -1.9000    1.1040   -0.0720 N   0  0  0  0  0  0  0  0  0  0  0  0
   -1.1770    0.1270   -0.8360 C   0  0  1  0  0  0  0  0  0  0  0  0
    0.2740    0.5530   -0.9280 C   0  0  0  0  0  0  0  0  0  0  0  0
    0.9400    0.3830    0.4390 C   0  0  2  0  0  0  0  0  0  0  0  0
    2.3250    0.9040    0.3340 C   0  0  0  0  0  0  0  0  0  0  0  0
    2.4990    2.1200    0.0700 O   0  0  0  0  0  0  0  0  0  0  0  0
    3.4560    0.1230    0.5110 O   0  0  0  0  0  0  0  0  0  0  0  0
    0.9200   -0.9770    0.7360 O   0  0  0  0  0  0  0  0  0  0  0  0
   -0.4040   -1.2900    1.0720 C   0  0  0  0  0  0  0  0  0  0  0  0
   -1.2010   -1.2510   -0.2240 C   0  0  2  0  0  0  0  0  0  0  0  0
   -0.5630   -2.1060   -1.1470 O   0  0  0  0  0  0  0  0  0  0  0  0
  2  1  1  1
  2  3  1  0
  2 10  1  0
  3  4  1  0
  4  5  1  6
  4  8  1  0
  5  6  2  0
  5  7  1  0
  8  9  1  0
  9 10  1  0
 10 11  1  6
M  CHG  1   1   1
M  END
