
     RDKit          3D

 11 11  0  0  0  0  0  0  0  0999 V2000
   -1.5600    1.0790   -0.8370 N   0  0  0  0  0  0  0  0  0  0  0  0
   -1.1390   -0.1340   -0.2010 C   0  0  2  0  0  0  0  0  0  0  0  0
   -1.8410   -0.3780    1.1080 C   0  0  0  0  0  0  0  0  0  0  0  0
   -0.9400   -0.8820    2.0000 O   0  0  0  0  0  0  0  0  0  0  0  0
    0.2540   -1.1130    1.3800 C   0  0  0  0  0  0  0  0  0  0  0  0
    0.3090   -0.1010    0.2360 C   0  0  2  0  0  0  0  0  0  0  0  0
    0.6650    1.1230    0.7990 O   0  0  0  0  0  0  0  0  0  0  0  0
    1.2500   -0.5130   -0.7910 C   0  0  0  0  0  0  0  0  0  0  0  0
    1.1910   -1.7720   -1.3480 O   0  0  0  0  0  0  0  0  0  0  0  0
    2.1820    0.3170   -1.2060 C   0  0  0  0  0  0  0  0  0  0  0  0
    2.2880    1.5950   -0.6800 O   0  0  0  0  0  0  0  0  0  0  0  0
  2  1  1  1
  2  3  1  0
  2  6  1  0
  3  4  1  0
  4  5  1  0
  5  6  1  0
  6  7  1  1
  6  8  1  0
  8  9  1  0
  8 10  2  3
 10 11  1  0
M  CHG  1   1   1
M  END
