
     RDKit          3D

 16 16  0  0  0  0  0  0  0  0999 V2000
    4.5020   -0.3630   -0.0580 C   0  0  0  0  0  0  0  0  0  0  0  0
    3.2590    0.3770   -0.5410 C   0  0  0  0  0  0  0  0  0  0  0  0
    2.6090    1.1430    0.5740 C   0  0  0  0  0  0  0  0  0  0  0  0
    1.3760    1.8820    0.1750 C   0  0  0  0  0  0  0  0  0  0  0  0
    0.3220    1.1370   -0.2740 O   0  0  0  0  0  0  0  0  0  0  0  0
   -0.2160    0.2680    0.6510 C   0  0  1  0  0  0  0  0  0  0  0  0
   -1.5150    0.6530    1.0230 O   0  0  0  0  0  0  0  0  0  0  0  0
   -2.4350    0.4050    0.0160 C   0  0  2  0  0  0  0  0  0  0  0  0
   -3.8030    0.7700    0.5790 C   0  0  0  0  0  0  0  0  0  0  0  0
   -3.8430    2.1190    0.9530 O   0  0  0  0  0  0  0  0  0  0  0  0
   -2.5030   -1.0240   -0.4230 C   0  0  1  0  0  0  0  0  0  0  0  0
   -3.3960   -1.1550   -1.4550 O   0  0  0  0  0  0  0  0  0  0  0  0
   -1.1230   -1.4010   -0.9730 C   0  0  2  0  0  0  0  0  0  0  0  0
   -1.0550   -2.7520   -1.2650 O   0  0  0  0  0  0  0  0  0  0  0  0
   -0.1660   -1.1350    0.1690 C   0  0  2  0  0  0  0  0  0  0  0  0
   -0.6180   -1.9450    1.2340 O   0  0  0  0  0  0  0  0  0  0  0  0
  1  2  1  0
  2  3  1  0
  3  4  1  0
  4  5  1  0
  6  5  1  6
  6  7  1  0
  6 15  1  0
  7  8  1  0
  8  9  1  1
  8 11  1  0
  9 10  1  0
 11 12  1  6
 11 13  1  0
 13 14  1  1
 13 15  1  0
 15 16  1  1
M  END
