
     RDKit          3D

 11 11  0  0  0  0  0  0  0  0999 V2000
   -2.6780    0.2570   -0.8700 N   0  0  0  0  0  0  0  0  0  0  0  0
   -1.8540    0.8780    0.1440 C   0  0  0  0  0  0  0  0  0  0  0  0
   -0.8140   -0.0940    0.6830 C   0  0  1  0  0  0  0  0  0  0  0  0
   -0.0760    0.5810    1.6400 O   0  0  0  0  0  0  0  0  0  0  0  0
   -1.4070   -1.2500    1.1550 O   0  0  0  0  0  0  0  0  0  0  0  0
    0.1230   -0.4700   -0.4450 C   0  0  2  0  0  0  0  0  0  0  0  0
    1.1270   -1.4500    0.1160 C   0  0  0  0  0  0  0  0  0  0  0  0
    2.2670   -1.4000   -0.6660 O   0  0  0  0  0  0  0  0  0  0  0  0
    2.9050   -0.1780   -0.4550 C   0  0  0  0  0  0  0  0  0  0  0  0
    1.9300    0.9740   -0.4870 C   0  0  0  0  0  0  0  0  0  0  0  0
    0.7120    0.6310   -1.0320 O   0  0  0  0  0  0  0  0  0  0  0  0
  1  2  1  0
  2  3  1  0
  3  4  1  1
  3  5  1  0
  3  6  1  0
  6  7  1  1
  6 11  1  0
  7  8  1  0
  8  9  1  0
  9 10  1  0
 10 11  1  0
M  CHG  1   1   1
M  END
