
     RDKit          3D

 10 10  0  0  0  0  0  0  0  0999 V2000
   -0.7050    1.3200   -0.7190 N   0  0  0  0  0  0  0  0  0  0  0  0
   -0.5200    0.1050    0.0070 C   0  0  2  0  0  0  0  0  0  0  0  0
   -1.8350   -0.6560   -0.0390 C   0  0  0  0  0  0  0  0  0  0  0  0
   -2.8150    0.1160    0.5410 O   0  0  0  0  0  0  0  0  0  0  0  0
   -0.1500    0.3160    1.4560 C   0  0  0  0  0  0  0  0  0  0  0  0
    1.0340   -0.3970    1.6810 O   0  0  0  0  0  0  0  0  0  0  0  0
    0.9530   -1.5090    0.8080 C   0  0  0  0  0  0  0  0  0  0  0  0
    0.6140   -0.7510   -0.4850 C   0  0  2  0  0  0  0  0  0  0  0  0
    1.8250    0.0670   -0.8190 C   0  0  0  0  0  0  0  0  0  0  0  0
    1.6350    1.0100   -1.7950 O   0  0  0  0  0  0  0  0  0  0  0  0
  2  1  1  6
  2  3  1  0
  2  5  1  0
  2  8  1  0
  3  4  1  0
  5  6  1  0
  6  7  1  0
  7  8  1  0
  8  9  1  1
  9 10  1  0
M  CHG  1   1   1
M  END
