
     RDKit          3D

 10 10  0  0  0  0  0  0  0  0999 V2000
    2.9360    0.0220   -0.5280 N   0  0  0  0  0  0  0  0  0  0  0  0
    2.0880    0.3830    0.5590 C   0  0  0  0  0  0  0  0  0  0  0  0
    0.7690   -0.4080    0.5530 C   0  0  2  0  0  0  0  0  0  0  0  0
    0.1210   -0.3910   -0.7680 C   0  0  0  0  0  0  0  0  0  0  0  0
   -1.3870   -0.5510   -0.6930 C   0  0  2  0  0  0  0  0  0  0  0  0
   -1.9910   -0.4820   -1.9110 O   0  0  0  0  0  0  0  0  0  0  0  0
   -1.8130    0.5950    0.2380 C   0  0  1  0  0  0  0  0  0  0  0  0
   -3.1630    0.7740    0.2660 O   0  0  0  0  0  0  0  0  0  0  0  0
   -1.2500    0.1930    1.5680 C   0  0  0  0  0  0  0  0  0  0  0  0
    0.0730    0.0310    1.6240 O   0  0  0  0  0  0  0  0  0  0  0  0
  1  2  1  0
  3  2  1  6
  3  4  1  0
  3 10  1  0
  4  5  1  0
  5  6  1  6
  5  7  1  0
  7  8  1  1
  7  9  1  0
  9 10  1  0
M  CHG  1   1   1
M  END
