
     RDKit          3D

 11 11  0  0  0  0  0  0  0  0999 V2000
   -1.3820   -0.2030   -1.8970 N   0  0  0  0  0  0  0  0  0  0  0  0
   -0.9530    0.3450   -0.6260 C   0  0  1  0  0  0  0  0  0  0  0  0
   -2.2590    0.5830    0.1540 C   0  0  0  0  0  0  0  0  0  0  0  0
   -2.0170    1.2750    1.3150 O   0  0  0  0  0  0  0  0  0  0  0  0
   -0.7900    1.1610    1.7050 O   0  0  0  0  0  0  0  0  0  0  0  0
   -0.3140   -0.1620    1.6550 C   0  0  0  0  0  0  0  0  0  0  0  0
   -0.1520   -0.5970    0.1960 C   0  0  2  0  0  0  0  0  0  0  0  0
    1.3150   -0.6050   -0.1030 C   0  0  2  0  0  0  0  0  0  0  0  0
    2.0080   -1.5090    0.7010 O   0  0  0  0  0  0  0  0  0  0  0  0
    1.9870    0.7050   -0.0280 C   0  0  0  0  0  0  0  0  0  0  0  0
    3.3010    0.5580   -0.4840 O   0  0  0  0  0  0  0  0  0  0  0  0
  2  1  1  6
  2  3  1  0
  2  7  1  0
  3  4  1  0
  4  5  1  0
  5  6  1  0
  7  6  1  1
  7  8  1  0
  8  9  1  1
  8 10  1  0
 10 11  1  0
M  CHG  1   1   1
M  END
