
     RDKit          3D

 28 31  0  0  0  0  0  0  0  0999 V2000
   -7.8650   -2.0660    0.5640 C   0  0  0  0  0  0  0  0  0  0  0  0
   -6.5790   -1.3080    0.3370 C   0  0  0  0  0  0  0  0  0  0  0  0
   -5.4010   -1.5820    0.8710 N   0  0  0  0  0  0  0  0  0  0  0  0
   -4.4490   -0.6920    0.4510 C   0  0  0  0  0  0  0  0  0  0  0  0
   -3.0410   -0.7360    0.8760 C   0  0  0  0  0  0  0  0  0  0  0  0
   -2.7400   -1.5500    1.7670 O   0  0  0  0  0  0  0  0  0  0  0  0
   -2.0650    0.0930    0.3110 N   0  0  0  0  0  0  0  0  0  0  0  0
   -0.6760    0.1390    0.6430 C   0  0  0  0  0  0  0  0  0  0  0  0
    0.1140    1.1370    0.0680 C   0  0  0  0  0  0  0  0  0  0  0  0
    1.4510    1.2180    0.3480 C   0  0  0  0  0  0  0  0  0  0  0  0
    2.1010    0.3470    1.1940 C   0  0  0  0  0  0  0  0  0  0  0  0
    3.4980    0.4550    1.4690 N   0  0  0  0  0  0  0  0  0  0  0  0
    4.3010   -0.0720    0.3990 C   0  0  2  0  0  0  0  0  0  0  0  0
    4.9340   -1.3960    0.7900 C   0  0  0  0  0  0  0  0  0  0  0  0
    5.9370   -1.7040   -0.2830 C   0  0  0  0  0  0  0  0  0  0  0  0
    6.3740   -2.8770   -0.3400 O   0  0  0  0  0  0  0  0  0  0  0  0
    6.3880   -0.7230   -1.2050 N   0  0  0  0  0  0  0  0  0  0  0  0
    7.3980   -1.1870   -2.5780 S   0  0  0  0  0  0  0  0  0  0  0  0
    6.0630    0.6360   -1.0800 N   0  0  2  0  0  0  0  0  0  0  0  0
    7.2480    1.4810   -1.1810 C   0  0  0  0  0  0  0  0  0  0  0  0
    5.4610    0.9060    0.1990 C   0  0  0  0  0  0  0  0  0  0  0  0
    1.3320   -0.6370    1.7640 C   0  0  0  0  0  0  0  0  0  0  0  0
   -0.0410   -0.7300    1.4840 C   0  0  0  0  0  0  0  0  0  0  0  0
   -5.1050    0.1780   -0.3940 C   0  0  0  0  0  0  0  0  0  0  0  0
   -6.4130   -0.2040   -0.4630 C   0  0  0  0  0  0  0  0  0  0  0  0
   -7.1380    0.7250   -1.3890 C   0  0  0  0  0  0  0  0  0  0  0  0
   -6.3080    1.9710   -1.2940 C   0  0  0  0  0  0  0  0  0  0  0  0
   -4.8850    1.3990   -1.2450 C   0  0  0  0  0  0  0  0  0  0  0  0
  1  2  1  0
  2  3  1  0
  2 25  2  0
  3  4  1  0
  4  5  1  0
  4 24  2  0
  5  6  2  0
  5  7  1  0
  7  8  1  0
  8  9  2  0
  8 23  1  0
  9 10  1  0
 10 11  2  0
 11 12  1  0
 11 22  1  0
 13 12  1  1
 13 14  1  0
 13 21  1  0
 14 15  1  0
 15 16  2  0
 15 17  1  0
 17 18  1  0
 17 19  1  0
 19 20  1  1
 19 21  1  0
 22 23  2  0
 24 25  1  0
 24 28  1  0
 25 26  1  0
 26 27  1  0
 27 28  1  0
M  CHG  2  12   1  19   1
M  END
