
     RDKit          3D

 28 31  0  0  0  0  0  0  0  0999 V2000
   -2.3250    0.6000    2.7240 C   0  0  0  0  0  0  0  0  0  0  0  0
   -1.6840    0.0950    1.4450 C   0  0  0  0  0  0  0  0  0  0  0  0
   -0.4090   -0.1860    1.3150 N   0  0  0  0  0  0  0  0  0  0  0  0
    0.2070   -0.5650    0.4410 C   0  0  0  0  0  0  0  0  0  0  0  0
    1.6070   -0.9710   -0.0300 C   0  0  1  0  0  0  0  0  0  0  0  0
    2.4430    0.2510   -0.2810 C   0  0  0  0  0  0  0  0  0  0  0  0
    3.7630    0.1690    0.3060 N   0  0  0  0  0  0  0  0  0  0  0  0
    4.9210    0.6730   -0.3220 C   0  0  0  0  0  0  0  0  0  0  0  0
    5.5330    1.7850    0.2100 C   0  0  0  0  0  0  0  0  0  0  0  0
    6.6540    2.3740   -0.3400 C   0  0  0  0  0  0  0  0  0  0  0  0
    7.2060    1.8450   -1.4730 C   0  0  0  0  0  0  0  0  0  0  0  0
    6.6100    0.7260   -2.0260 C   0  0  0  0  0  0  0  0  0  0  0  0
    5.4920    0.1320   -1.4840 C   0  0  0  0  0  0  0  0  0  0  0  0
    4.8700   -1.0320   -2.0020 N   0  0  0  0  0  0  0  0  0  0  0  0
    5.2210   -1.7000   -3.1810 C   0  0  0  0  0  0  0  0  0  0  0  0
    6.1400   -1.3160   -3.9020 O   0  0  0  0  0  0  0  0  0  0  0  0
    3.9540   -0.4630    1.6190 C   0  0  0  0  0  0  0  0  0  0  0  0
    2.5610   -0.9570    2.0190 C   0  0  0  0  0  0  0  0  0  0  0  0
    2.1050   -1.7590    1.0020 O   0  0  0  0  0  0  0  0  0  0  0  0
   -1.1580   -0.7070   -0.8990 S   0  0  0  0  0  0  0  0  0  0  0  0
   -2.4300   -0.1040    0.3060 C   0  0  0  0  0  0  0  0  0  0  0  0
   -3.8610    0.0700   -0.0150 C   0  0  1  0  0  0  0  0  0  0  0  0
   -4.1040   -0.2890   -1.4660 C   0  0  0  0  0  0  0  0  0  0  0  0
   -5.5440   -0.4840   -1.8060 C   0  0  0  0  0  0  0  0  0  0  0  0
   -6.3470    0.5030   -1.1490 N   0  0  0  0  0  0  0  0  0  0  0  0
   -6.9200    0.0150    0.0820 C   0  0  0  0  0  0  0  0  0  0  0  0
   -5.9130    0.0090    1.2140 C   0  0  0  0  0  0  0  0  0  0  0  0
   -4.7160   -0.7360    0.8380 N   0  0  0  0  0  0  0  0  0  0  0  0
  1  2  1  0
  2  3  1  0
  2 21  2  0
  3  4  2  0
  5  4  1  1
  4 20  1  0
  5  6  1  0
  5 19  1  0
  6  7  1  0
  7  8  1  0
  7 17  1  0
  8  9  2  0
  8 13  1  0
  9 10  1  0
 10 11  2  0
 11 12  1  0
 12 13  2  0
 13 14  1  0
 14 15  1  0
 15 16  2  0
 17 18  1  0
 18 19  1  0
 20 21  1  0
 22 21  1  1
 22 23  1  0
 22 28  1  0
 23 24  1  0
 24 25  1  0
 25 26  1  0
 26 27  1  0
 27 28  1  0
M  CHG  2  25   1  28   1
M  END
