
     RDKit          3D

 28 30  0  0  0  0  0  0  0  0999 V2000
    3.2000    1.6520    0.9440 C   0  0  0  0  0  0  0  0  0  0  0  0
    3.6120    0.7400   -0.1860 C   0  0  2  0  0  0  0  0  0  0  0  0
    2.6390   -0.3270   -0.3190 N   0  0  0  0  0  0  0  0  0  0  0  0
    1.8760   -0.2280   -1.5490 C   0  0  0  0  0  0  0  0  0  0  0  0
    0.6250    0.6030   -1.3690 C   0  0  0  0  0  0  0  0  0  0  0  0
   -0.2090   -0.0020   -0.3690 N   0  0  0  0  0  0  0  0  0  0  0  0
   -1.6050    0.3240   -0.5110 C   0  0  1  0  0  0  0  0  0  0  0  0
   -2.2350   -0.1250   -1.7820 C   0  0  0  0  0  0  0  0  0  0  0  0
   -3.0870   -1.2970   -1.4010 C   0  0  1  0  0  0  0  0  0  0  0  0
   -4.4840   -1.1770   -1.9570 C   0  0  0  0  0  0  0  0  0  0  0  0
   -2.4690   -2.5630   -2.0060 C   0  0  0  0  0  0  0  0  0  0  0  0
   -3.1370   -1.3800   -0.0420 O   0  0  0  0  0  0  0  0  0  0  0  0
   -2.4100   -0.3750    0.5410 C   0  0  1  0  0  0  0  0  0  0  0  0
   -1.5340   -1.0350    1.6050 C   0  0  0  0  0  0  0  0  0  0  0  0
   -3.3560    0.5600    1.2270 C   0  0  0  0  0  0  0  0  0  0  0  0
   -3.1760    0.6680    2.4740 N   0  0  0  0  0  0  0  0  0  0  0  0
   -3.8050    1.4030    3.4720 N   0  0  0  0  0  0  0  0  0  0  0  0
   -4.9530    1.9320    3.4620 C   0  0  0  0  0  0  0  0  0  0  0  0
   -6.0150    1.9900    2.4800 C   0  0  0  0  0  0  0  0  0  0  0  0
   -5.9680    1.7870    1.1830 C   0  0  0  0  0  0  0  0  0  0  0  0
   -4.5740    1.3680    0.1820 S   0  0  0  0  0  0  0  0  0  0  0  0
    4.9700    0.2580    0.0490 C   0  0  0  0  0  0  0  0  0  0  0  0
    5.6860    0.7190    1.1300 C   0  0  0  0  0  0  0  0  0  0  0  0
    6.9920    0.2870    1.3910 C   0  0  0  0  0  0  0  0  0  0  0  0
    7.5750   -0.6170    0.5520 C   0  0  0  0  0  0  0  0  0  0  0  0
    6.8690   -1.0710   -0.5140 N   0  0  0  0  0  0  0  0  0  0  0  0
    5.6120   -0.6600   -0.7720 C   0  0  0  0  0  0  0  0  0  0  0  0
    4.9420   -1.1630   -1.8800 O   0  0  0  0  0  0  0  0  0  0  0  0
  2  1  1  1
  2  3  1  0
  2 22  1  0
  3  4  1  0
  4  5  1  0
  5  6  1  0
  7  6  1  6
  7  8  1  0
  7 13  1  0
  8  9  1  0
  9 10  1  6
  9 11  1  0
  9 12  1  0
 12 13  1  0
 13 14  1  1
 13 15  1  0
 15 16  2  0
 15 21  1  0
 16 17  1  0
 17 18  2  0
 18 19  1  0
 19 20  2  0
 20 21  1  0
 22 23  2  0
 22 27  1  0
 23 24  1  0
 24 25  2  0
 25 26  1  0
 26 27  2  0
 27 28  1  0
M  CHG  2   3   1   6   1
M  END
