
     RDKit          3D

 25 28  0  0  0  0  0  0  0  0999 V2000
    5.6740   -1.0070    1.0420 C   0  0  0  0  0  0  0  0  0  0  0  0
    4.8700    0.0590    0.3240 C   0  0  2  0  0  0  0  0  0  0  0  0
    5.6400    1.3620    0.2900 C   0  0  0  0  0  0  0  0  0  0  0  0
    3.5690    0.2320    1.0520 C   0  0  0  0  0  0  0  0  0  0  0  0
    2.5120    0.9150    0.1600 C   0  0  0  0  0  0  0  0  0  0  0  0
    2.1740   -0.1030   -0.8630 C   0  0  0  0  0  0  0  0  0  0  0  0
    0.9900   -0.3210   -1.3460 C   0  0  0  0  0  0  0  0  0  0  0  0
   -0.1710    0.4460   -0.9140 C   0  0  0  0  0  0  0  0  0  0  0  0
   -0.1760    1.8080   -0.7290 C   0  0  0  0  0  0  0  0  0  0  0  0
   -1.3090    2.4680   -0.3060 C   0  0  0  0  0  0  0  0  0  0  0  0
   -2.5060    1.8070   -0.0430 C   0  0  0  0  0  0  0  0  0  0  0  0
   -3.7130    2.5350    0.4140 C   0  0  0  0  0  0  0  0  0  0  0  0
   -3.3650    3.9080    0.4890 O   0  0  0  0  0  0  0  0  0  0  0  0
   -2.5100    0.4460   -0.2260 C   0  0  0  0  0  0  0  0  0  0  0  0
   -3.4870   -0.5310   -0.0710 C   0  0  0  0  0  0  0  0  0  0  0  0
   -2.9130   -1.7350   -0.4030 C   0  0  0  0  0  0  0  0  0  0  0  0
   -1.6550   -1.4970   -0.7410 O   0  0  0  0  0  0  0  0  0  0  0  0
   -1.3780   -0.2200   -0.6490 C   0  0  0  0  0  0  0  0  0  0  0  0
   -3.7330   -2.9690   -0.3300 C   0  0  0  0  0  0  0  0  0  0  0  0
   -4.6920   -2.8280    0.8050 C   0  0  0  0  0  0  0  0  0  0  0  0
   -5.6140   -1.6680    0.4980 C   0  0  0  0  0  0  0  0  0  0  0  0
   -4.8720   -0.3730    0.3600 C   0  0  0  0  0  0  0  0  0  0  0  0
    3.3130   -0.9130   -1.3460 C   0  0  0  0  0  0  0  0  0  0  0  0
    3.0540   -1.9940   -1.9470 O   0  0  0  0  0  0  0  0  0  0  0  0
    4.6780   -0.4150   -1.0990 C   0  0  0  0  0  0  0  0  0  0  0  0
  2  1  1  1
  2  3  1  0
  2  4  1  0
  2 25  1  0
  4  5  1  0
  5  6  1  0
  6  7  2  3
  6 23  1  0
  7  8  1  0
  8  9  2  0
  8 18  1  0
  9 10  1  0
 10 11  2  0
 11 12  1  0
 11 14  1  0
 12 13  1  0
 14 15  1  0
 14 18  2  0
 15 16  2  0
 15 22  1  0
 16 17  1  0
 16 19  1  0
 17 18  1  0
 19 20  1  0
 20 21  1  0
 21 22  1  0
 23 24  2  0
 23 25  1  0
M  END
