
     RDKit          3D

 28 30  0  0  0  0  0  0  0  0999 V2000
    1.9320   -0.5060   -1.8120 C   0  0  0  0  0  0  0  0  0  0  0  0
    1.7150    0.2390   -0.5010 C   0  0  2  0  0  0  0  0  0  0  0  0
    0.3780    0.8050   -0.4530 N   0  0  0  0  0  0  0  0  0  0  0  0
   -0.5910   -0.2440   -0.4770 C   0  0  0  0  0  0  0  0  0  0  0  0
   -1.9880    0.2590   -0.4110 C   0  0  0  0  0  0  0  0  0  0  0  0
   -2.3150    1.5850   -0.5250 C   0  0  0  0  0  0  0  0  0  0  0  0
   -3.6390    1.9420   -0.4390 C   0  0  0  0  0  0  0  0  0  0  0  0
   -4.5990    1.0120   -0.2460 N   0  0  0  0  0  0  0  0  0  0  0  0
   -4.3470   -0.3070   -0.1270 C   0  0  0  0  0  0  0  0  0  0  0  0
   -5.2870   -1.3080    0.1070 N   0  0  0  0  0  0  0  0  0  0  0  0
   -6.6830   -1.1510    0.2210 C   0  0  0  0  0  0  0  0  0  0  0  0
   -7.4490   -0.3600   -0.5700 C   0  0  0  0  0  0  0  0  0  0  0  0
   -8.8190   -0.2650   -0.3260 C   0  0  0  0  0  0  0  0  0  0  0  0
   -9.4410   -0.9200    0.6630 N   0  0  0  0  0  0  0  0  0  0  0  0
   -8.6970   -1.6970    1.4420 C   0  0  0  0  0  0  0  0  0  0  0  0
   -7.3440   -1.8310    1.2520 C   0  0  0  0  0  0  0  0  0  0  0  0
   -2.9890   -0.6470   -0.2180 C   0  0  0  0  0  0  0  0  0  0  0  0
    2.7560    1.2790   -0.3950 C   0  0  0  0  0  0  0  0  0  0  0  0
    2.3360    2.4860   -0.3320 O   0  0  0  0  0  0  0  0  0  0  0  0
    4.1490    1.0280   -0.3590 N   0  0  0  0  0  0  0  0  0  0  0  0
    5.0450    2.1660   -0.2720 C   0  0  0  0  0  0  0  0  0  0  0  0
    5.4380    2.3830    1.1810 C   0  0  0  0  0  0  0  0  0  0  0  0
    5.5880    0.7590    1.9260 S   0  0  0  0  0  0  0  0  0  0  0  0
    6.6820    0.6960    2.9720 O   0  0  0  0  0  0  0  0  0  0  0  0
    5.7510   -0.5250    0.6830 C   0  0  1  0  0  0  0  0  0  0  0  0
    7.1710   -0.5360    0.2060 C   0  0  0  0  0  0  0  0  0  0  0  0
    5.4600   -1.8980    1.3040 C   0  0  0  0  0  0  0  0  0  0  0  0
    4.7370   -0.2920   -0.3960 C   0  0  0  0  0  0  0  0  0  0  0  0
  2  1  1  6
  2  3  1  0
  2 18  1  0
  3  4  1  0
  4  5  1  0
  5  6  2  0
  5 17  1  0
  6  7  1  0
  7  8  2  0
  8  9  1  0
  9 10  1  0
  9 17  2  0
 10 11  1  0
 11 12  2  0
 11 16  1  0
 12 13  1  0
 13 14  2  0
 14 15  1  0
 15 16  2  0
 18 19  2  0
 18 20  1  0
 20 21  1  0
 20 28  1  0
 21 22  1  0
 23 22  1  6
 23 24  2  0
 23 25  1  0
 25 26  1  6
 25 27  1  0
 25 28  1  0
M  CHG  2   8   1  14   1
M  END
