
     RDKit          3D

 28 30  0  0  0  0  0  0  0  0999 V2000
   -4.1390    2.6010   -1.6550 C   0  0  0  0  0  0  0  0  0  0  0  0
   -3.6930    1.2690   -1.3170 N   0  0  1  0  0  0  0  0  0  0  0  0
   -4.7810    0.3130   -1.3730 C   0  0  0  0  0  0  0  0  0  0  0  0
   -4.5650   -0.8600   -0.4610 C   0  0  0  0  0  0  0  0  0  0  0  0
   -3.6210   -0.6290    0.5170 O   0  0  0  0  0  0  0  0  0  0  0  0
   -4.1020   -0.2990    1.7470 C   0  0  0  0  0  0  0  0  0  0  0  0
   -3.2580   -0.7390    2.8920 C   0  0  0  0  0  0  0  0  0  0  0  0
   -3.8970   -1.1600    3.9680 C   0  0  0  0  0  0  0  0  0  0  0  0
   -2.8930   -1.6930    5.3570 S   0  0  0  0  0  0  0  0  0  0  0  0
   -1.8810   -0.6810    2.7630 O   0  0  0  0  0  0  0  0  0  0  0  0
   -1.0990   -0.8880    1.6250 C   0  0  0  0  0  0  0  0  0  0  0  0
   -0.7620    0.3950    0.8780 C   0  0  0  0  0  0  0  0  0  0  0  0
   -0.6700    0.1520   -0.6280 C   0  0  2  0  0  0  0  0  0  0  0  0
    0.7300    0.1290   -1.0050 N   0  0  0  0  0  0  0  0  0  0  0  0
    1.3080   -1.1780   -1.0280 C   0  0  0  0  0  0  0  0  0  0  0  0
    2.7690   -1.0370   -1.2230 C   0  0  0  0  0  0  0  0  0  0  0  0
    3.7370   -0.8990   -0.2540 C   0  0  0  0  0  0  0  0  0  0  0  0
    4.9690   -0.7990   -0.8930 C   0  0  0  0  0  0  0  0  0  0  0  0
    6.2640   -0.6430   -0.2660 C   0  0  0  0  0  0  0  0  0  0  0  0
    6.3840   -0.5730    1.1130 C   0  0  0  0  0  0  0  0  0  0  0  0
    7.6470   -0.4240    1.6540 C   0  0  0  0  0  0  0  0  0  0  0  0
    8.7560   -0.3450    0.8660 C   0  0  0  0  0  0  0  0  0  0  0  0
    8.6360   -0.4130   -0.4710 N   0  0  0  0  0  0  0  0  0  0  0  0
    7.3990   -0.5600   -1.0230 C   0  0  0  0  0  0  0  0  0  0  0  0
    4.7250   -0.8770   -2.1990 N   0  0  0  0  0  0  0  0  0  0  0  0
    3.4090   -1.0200   -2.4020 N   0  0  0  0  0  0  0  0  0  0  0  0
   -1.3070    1.2950   -1.3990 C   0  0  0  0  0  0  0  0  0  0  0  0
   -2.5600    0.8510   -2.1210 C   0  0  0  0  0  0  0  0  0  0  0  0
  2  1  1  6
  2  3  1  0
  2 28  1  0
  3  4  1  0
  4  5  1  0
  5  6  1  0
  6  7  1  0
  7  8  2  3
  7 10  1  0
  8  9  1  0
 10 11  1  0
 11 12  1  0
 12 13  1  0
 13 14  1  6
 13 27  1  0
 14 15  1  0
 15 16  1  0
 16 17  2  0
 16 26  1  0
 17 18  1  0
 18 19  1  0
 18 25  2  0
 19 20  2  0
 19 24  1  0
 20 21  1  0
 21 22  2  0
 22 23  1  0
 23 24  2  0
 25 26  1  0
 27 28  1  0
M  CHG  2   2   1  14   1
M  END
