
     RDKit          3D

 28 31  0  0  0  0  0  0  0  0999 V2000
   -0.9220   -4.4090    0.1810 C   0  0  0  0  0  0  0  0  0  0  0  0
   -1.0260   -3.1590   -1.1290 S   0  0  0  0  0  0  0  0  0  0  0  0
   -2.2670   -1.8900   -0.7540 C   0  0  0  0  0  0  0  0  0  0  0  0
   -1.8560   -1.0560    0.4460 C   0  0  2  0  0  0  0  0  0  0  0  0
   -2.7920   -0.0440    0.7930 N   0  0  0  0  0  0  0  0  0  0  0  0
   -3.6590    0.4300   -0.2280 C   0  0  1  0  0  0  0  0  0  0  0  0
   -4.9810   -0.2960   -0.3150 C   0  0  0  0  0  0  0  0  0  0  0  0
   -5.8770    0.8060   -0.8230 C   0  0  0  0  0  0  0  0  0  0  0  0
   -6.8440    0.7010   -1.6260 O   0  0  0  0  0  0  0  0  0  0  0  0
   -5.4390    2.0180   -0.2290 N   0  0  0  0  0  0  0  0  0  0  0  0
   -6.2170    3.2610   -0.1090 C   0  0  0  0  0  0  0  0  0  0  0  0
   -4.1230    1.7970    0.2180 C   0  0  0  0  0  0  0  0  0  0  0  0
   -3.4530    2.6250    0.8870 O   0  0  0  0  0  0  0  0  0  0  0  0
   -0.4780   -0.5540    0.2610 C   0  0  0  0  0  0  0  0  0  0  0  0
   -0.1720    0.5820   -0.4440 C   0  0  0  0  0  0  0  0  0  0  0  0
    1.1510    0.9700   -0.5610 C   0  0  0  0  0  0  0  0  0  0  0  0
    2.1840    0.2700   -0.0020 C   0  0  0  0  0  0  0  0  0  0  0  0
    1.8950   -0.8590    0.7010 C   0  0  0  0  0  0  0  0  0  0  0  0
    0.5590   -1.2600    0.8250 C   0  0  0  0  0  0  0  0  0  0  0  0
    2.9450   -1.6040    1.2900 N   0  0  0  0  0  0  0  0  0  0  0  0
    4.3480   -1.2660    1.2180 C   0  0  0  0  0  0  0  0  0  0  0  0
    4.6040   -0.0450    0.4510 C   0  0  0  0  0  0  0  0  0  0  0  0
    5.9160    0.3680    0.3180 C   0  0  0  0  0  0  0  0  0  0  0  0
    6.1560    1.5120   -0.4010 C   0  0  0  0  0  0  0  0  0  0  0  0
    7.5760    1.9530   -0.5410 C   0  0  0  0  0  0  0  0  0  0  0  0
    5.1360    2.1750   -0.9350 N   0  0  0  0  0  0  0  0  0  0  0  0
    3.8640    1.7790   -0.8090 N   0  0  0  0  0  0  0  0  0  0  0  0
    3.5840    0.6750   -0.1210 C   0  0  0  0  0  0  0  0  0  0  0  0
  1  2  1  0
  2  3  1  0
  4  3  1  6
  4  5  1  0
  4 14  1  0
  6  5  1  1
  6  7  1  0
  6 12  1  0
  7  8  1  0
  8  9  2  0
  8 10  1  0
 10 11  1  0
 10 12  1  0
 12 13  2  0
 14 15  2  0
 14 19  1  0
 15 16  1  0
 16 17  2  0
 17 18  1  0
 17 28  1  0
 18 19  2  0
 18 20  1  0
 20 21  1  0
 21 22  1  0
 22 23  2  0
 22 28  1  0
 23 24  1  0
 24 25  1  0
 24 26  2  0
 26 27  1  0
 27 28  2  0
M  CHG  2   5   1  26   1
M  END
