
     RDKit          3D

 15 17  0  0  0  0  0  0  0  0999 V2000
   -4.2420    0.8270    0.0390 C   0  0  0  0  0  0  0  0  0  0  0  0
   -3.9030   -0.4600   -0.3000 C   0  0  0  0  0  0  0  0  0  0  0  0
   -2.5480   -0.7670   -0.3590 C   0  0  0  0  0  0  0  0  0  0  0  0
   -1.5660    0.1560   -0.0950 C   0  0  0  0  0  0  0  0  0  0  0  0
   -0.1380   -0.1600   -0.1560 C   0  0  0  0  0  0  0  0  0  0  0  0
    0.3130   -1.4040   -0.4820 C   0  0  0  0  0  0  0  0  0  0  0  0
    1.6780   -1.6740   -0.5310 C   0  0  0  0  0  0  0  0  0  0  0  0
    2.5640   -0.6640   -0.2450 C   0  0  0  0  0  0  0  0  0  0  0  0
    3.9590   -0.5840   -0.2000 C   0  0  0  0  0  0  0  0  0  0  0  0
    4.3090    0.7040    0.1510 C   0  0  0  0  0  0  0  0  0  0  0  0
    3.1710    1.3920    0.3160 N   0  0  0  0  0  0  0  0  0  0  0  0
    2.1080    0.5930    0.0840 C   0  0  0  0  0  0  0  0  0  0  0  0
    0.7830    0.7870    0.1130 N   0  0  0  0  0  0  0  0  0  0  0  0
   -1.9860    1.4080    0.2330 N   0  0  0  0  0  0  0  0  0  0  0  0
   -3.2720    1.7670    0.3080 C   0  0  0  0  0  0  0  0  0  0  0  0
  1  2  2  0
  1 15  1  0
  2  3  1  0
  3  4  2  0
  4  5  1  0
  4 14  1  0
  5  6  2  0
  5 13  1  0
  6  7  1  0
  7  8  2  0
  8  9  1  0
  8 12  1  0
  9 10  2  0
 10 11  1  0
 11 12  1  0
 12 13  2  0
 14 15  2  0
M  END
