
     RDKit          3D

 22 22  0  0  0  0  0  0  0  0999 V2000
   -2.0130    2.5160    1.4530 C   0  0  0  0  0  0  0  0  0  0  0  0
   -2.6870    1.1410    1.2980 C   0  0  2  0  0  0  0  0  0  0  0  0
   -1.6810    0.1090    1.6860 C   0  0  0  0  0  0  0  0  0  0  0  0
   -1.0950   -0.6350    0.6400 N   0  0  0  0  0  0  0  0  0  0  0  0
   -0.0050   -0.0780   -0.0650 C   0  0  0  0  0  0  0  0  0  0  0  0
    1.2540    0.0510    0.7570 C   0  0  1  0  0  0  0  0  0  0  0  0
    1.7400   -1.1310    1.2520 O   0  0  0  0  0  0  0  0  0  0  0  0
    2.3500    0.7460   -0.0450 C   0  0  2  0  0  0  0  0  0  0  0  0
    1.8690    1.9390   -0.5540 O   0  0  0  0  0  0  0  0  0  0  0  0
    2.8950   -0.1300   -1.1320 C   0  0  0  0  0  0  0  0  0  0  0  0
    3.9650    0.5370   -1.8010 N   0  0  0  0  0  0  0  0  0  0  0  0
    5.1490    0.7210   -1.0280 C   0  0  0  0  0  0  0  0  0  0  0  0
    5.8790   -0.5760   -0.7130 C   0  0  0  0  0  0  0  0  0  0  0  0
    7.1070   -0.1930    0.1150 C   0  0  0  0  0  0  0  0  0  0  0  0
    7.9100    0.6700   -0.6310 O   0  0  0  0  0  0  0  0  0  0  0  0
   -2.1000   -1.1120   -0.2770 C   0  0  0  0  0  0  0  0  0  0  0  0
   -3.1940   -0.1550   -0.5850 C   0  0  1  0  0  0  0  0  0  0  0  0
   -4.5740   -0.7400   -0.5250 C   0  0  1  0  0  0  0  0  0  0  0  0
   -4.9940   -1.3100    0.7670 C   0  0  0  0  0  0  0  0  0  0  0  0
   -5.5520    0.3960   -0.8610 C   0  0  0  0  0  0  0  0  0  0  0  0
   -4.7520   -1.7900   -1.6040 C   0  0  0  0  0  0  0  0  0  0  0  0
   -3.1390    1.0700    0.0190 O   0  0  0  0  0  0  0  0  0  0  0  0
  2  1  1  6
  2  3  1  0
  2 22  1  0
  3  4  1  0
  4  5  1  0
  4 16  1  0
  5  6  1  0
  6  7  1  6
  6  8  1  0
  8  9  1  6
  8 10  1  0
 10 11  1  0
 11 12  1  0
 12 13  1  0
 13 14  1  0
 14 15  1  0
 17 16  1  1
 17 18  1  0
 17 22  1  0
 18 19  1  1
 18 20  1  0
 18 21  1  0
M  END
