
     RDKit          3D

 15 17  0  0  0  0  0  0  0  0999 V2000
   -4.9320    0.4990    0.2870 C   0  0  0  0  0  0  0  0  0  0  0  0
   -3.9710    1.2910   -0.1060 C   0  0  0  0  0  0  0  0  0  0  0  0
   -2.6830    0.6030   -0.2280 C   0  0  0  0  0  0  0  0  0  0  0  0
   -1.4470    1.0450   -0.6000 N   0  0  0  0  0  0  0  0  0  0  0  0
   -0.4200    0.2030   -0.6280 C   0  0  0  0  0  0  0  0  0  0  0  0
    0.9550    0.6240   -1.0350 C   0  0  0  0  0  0  0  0  0  0  0  0
    1.8840   -0.3700   -0.5440 N   0  0  0  0  0  0  0  0  0  0  0  0
    1.7970   -0.4120    0.8910 C   0  0  0  0  0  0  0  0  0  0  0  0
    3.0020    0.4330    1.3310 C   0  0  0  0  0  0  0  0  0  0  0  0
    4.0520   -0.0830    0.3690 C   0  0  0  0  0  0  0  0  0  0  0  0
    3.2400   -0.1410   -0.9260 C   0  0  0  0  0  0  0  0  0  0  0  0
   -0.6270   -1.1130   -0.2780 C   0  0  0  0  0  0  0  0  0  0  0  0
   -1.8590   -1.5400    0.0890 N   0  0  0  0  0  0  0  0  0  0  0  0
   -2.9130   -0.7080    0.1260 C   0  0  0  0  0  0  0  0  0  0  0  0
   -4.3470   -0.8500    0.4720 C   0  0  0  0  0  0  0  0  0  0  0  0
  1  2  2  0
  1 15  1  0
  2  3  1  0
  3  4  2  0
  3 14  1  0
  4  5  1  0
  5  6  1  0
  5 12  2  0
  6  7  1  0
  7  8  1  0
  7 11  1  0
  8  9  1  0
  9 10  1  0
 10 11  1  0
 12 13  1  0
 13 14  2  0
 14 15  1  0
M  END
