
     RDKit          3D

 15 17  0  0  0  0  0  0  0  0999 V2000
   -4.2690    0.7220   -0.2410 C   0  0  0  0  0  0  0  0  0  0  0  0
   -3.0930    0.4500    0.5590 N   0  0  0  0  0  0  0  0  0  0  0  0
   -1.8480    0.3120   -0.0940 C   0  0  0  0  0  0  0  0  0  0  0  0
   -1.7370    0.4300   -1.4590 C   0  0  0  0  0  0  0  0  0  0  0  0
   -0.5000    0.2860   -2.0510 C   0  0  0  0  0  0  0  0  0  0  0  0
    0.6130    0.0260   -1.2670 C   0  0  0  0  0  0  0  0  0  0  0  0
    1.9500   -0.1660   -1.5350 C   0  0  0  0  0  0  0  0  0  0  0  0
    2.5670   -0.3870   -0.3240 C   0  0  0  0  0  0  0  0  0  0  0  0
    3.9090   -0.6350   -0.0440 C   0  0  0  0  0  0  0  0  0  0  0  0
    4.2580   -0.8210    1.2460 N   0  0  0  0  0  0  0  0  0  0  0  0
    3.3740   -0.7770    2.2600 C   0  0  0  0  0  0  0  0  0  0  0  0
    2.0500   -0.5320    1.9740 C   0  0  0  0  0  0  0  0  0  0  0  0
    1.6820   -0.3430    0.6840 N   0  0  0  0  0  0  0  0  0  0  0  0
    0.4840   -0.0890    0.1010 C   0  0  0  0  0  0  0  0  0  0  0  0
   -0.7510    0.0530    0.6960 C   0  0  0  0  0  0  0  0  0  0  0  0
  1  2  1  0
  2  3  1  0
  3  4  2  0
  3 15  1  0
  4  5  1  0
  5  6  2  0
  6  7  1  0
  6 14  1  0
  7  8  2  0
  8  9  1  0
  8 13  1  0
  9 10  2  0
 10 11  1  0
 11 12  2  0
 12 13  1  0
 13 14  1  0
 14 15  2  0
M  END
