
     RDKit          3D

 22 22  0  0  0  0  0  0  0  0999 V2000
    5.2540    0.8980   -2.1910 C   0  0  0  0  0  0  0  0  0  0  0  0
    4.9900    0.1830   -0.8610 C   0  0  0  0  0  0  0  0  0  0  0  0
    3.5340   -0.1790   -0.7320 C   0  0  0  0  0  0  0  0  0  0  0  0
    3.2710   -0.8480    0.5610 C   0  0  2  0  0  0  0  0  0  0  0  0
    3.6500    0.0760    1.7300 C   0  0  0  0  0  0  0  0  0  0  0  0
    4.1620   -2.0670    0.6660 C   0  0  0  0  0  0  0  0  0  0  0  0
    3.7980   -2.9930   -0.3340 O   0  0  0  0  0  0  0  0  0  0  0  0
    1.9140   -1.2490    0.7620 N   0  0  0  0  0  0  0  0  0  0  0  0
    0.8470   -0.2900    0.7650 C   0  0  0  0  0  0  0  0  0  0  0  0
    1.1780    0.8810    0.5850 O   0  0  0  0  0  0  0  0  0  0  0  0
   -0.4890   -0.6520    0.9580 N   0  0  0  0  0  0  0  0  0  0  0  0
   -1.6590    0.1690    0.9340 C   0  0  0  0  0  0  0  0  0  0  0  0
   -2.0780    0.7440   -0.3440 C   0  0  1  0  0  0  0  0  0  0  0  0
   -1.0240    1.5430   -1.1060 C   0  0  0  0  0  0  0  0  0  0  0  0
   -2.3700   -0.3740   -1.2050 O   0  0  0  0  0  0  0  0  0  0  0  0
   -3.2980    1.6300   -0.3250 C   0  0  0  0  0  0  0  0  0  0  0  0
   -4.5290    0.9770    0.1650 C   0  0  0  0  0  0  0  0  0  0  0  0
   -5.6120    0.7650   -0.6030 C   0  0  0  0  0  0  0  0  0  0  0  0
   -6.6370    0.1110    0.1960 C   0  0  1  0  0  0  0  0  0  0  0  0
   -6.9440   -1.1800   -0.2780 O   0  0  0  0  0  0  0  0  0  0  0  0
   -6.0490   -0.0090    1.5200 C   0  0  0  0  0  0  0  0  0  0  0  0
   -4.8210    0.4990    1.4770 C   0  0  0  0  0  0  0  0  0  0  0  0
  1  2  1  0
  2  3  1  0
  3  4  1  0
  4  5  1  1
  4  6  1  0
  4  8  1  0
  6  7  1  0
  8  9  1  0
  9 10  2  0
  9 11  1  0
 11 12  1  0
 12 13  1  0
 13 14  1  6
 13 15  1  0
 13 16  1  0
 16 17  1  0
 17 18  2  0
 17 22  1  0
 18 19  1  0
 19 20  1  6
 19 21  1  0
 21 22  2  0
M  END
