
     RDKit          3D

 15 17  0  0  0  0  0  0  0  0999 V2000
    4.3980   -0.0370   -0.3200 C   0  0  0  0  0  0  0  0  0  0  0  0
    3.5060   -0.8800   -0.9460 C   0  0  0  0  0  0  0  0  0  0  0  0
    2.1850   -0.7800   -0.7340 N   0  0  0  0  0  0  0  0  0  0  0  0
    1.7100    0.1570    0.1020 C   0  0  0  0  0  0  0  0  0  0  0  0
    0.2500    0.2460    0.3190 C   0  0  0  0  0  0  0  0  0  0  0  0
   -0.2650    1.1950    1.1690 C   0  0  0  0  0  0  0  0  0  0  0  0
   -1.6200    1.2520    1.3480 C   0  0  0  0  0  0  0  0  0  0  0  0
   -2.4750    0.3810    0.6950 C   0  0  0  0  0  0  0  0  0  0  0  0
   -3.8430    0.1900    0.6650 C   0  0  0  0  0  0  0  0  0  0  0  0
   -4.1690   -0.8520   -0.1830 C   0  0  0  0  0  0  0  0  0  0  0  0
   -2.9960   -1.2950   -0.6700 N   0  0  0  0  0  0  0  0  0  0  0  0
   -1.9690   -0.5850   -0.1690 C   0  0  0  0  0  0  0  0  0  0  0  0
   -0.6020   -0.6210   -0.3310 C   0  0  0  0  0  0  0  0  0  0  0  0
    2.5670    0.9710    0.7080 N   0  0  0  0  0  0  0  0  0  0  0  0
    3.8970    0.9210    0.5370 C   0  0  0  0  0  0  0  0  0  0  0  0
  1  2  2  0
  1 15  1  0
  2  3  1  0
  3  4  2  0
  4  5  1  0
  4 14  1  0
  5  6  2  0
  5 13  1  0
  6  7  1  0
  7  8  2  0
  8  9  1  0
  8 12  1  0
  9 10  2  0
 10 11  1  0
 11 12  1  0
 12 13  2  0
 14 15  2  0
M  END
