
     RDKit          3D

 15 17  0  0  0  0  0  0  0  0999 V2000
   -2.7870   -1.2710    0.6170 C   0  0  0  0  0  0  0  0  0  0  0  0
   -2.3820   -0.0400   -0.0280 N   0  0  0  0  0  0  0  0  0  0  0  0
   -3.2690    0.9340   -0.3520 C   0  0  0  0  0  0  0  0  0  0  0  0
   -2.5710    1.9570   -0.9180 C   0  0  0  0  0  0  0  0  0  0  0  0
   -1.2240    1.5630   -0.9250 C   0  0  0  0  0  0  0  0  0  0  0  0
   -1.1220    0.3110   -0.3640 C   0  0  0  0  0  0  0  0  0  0  0  0
    0.1090   -0.4720   -0.1120 C   0  0  0  0  0  0  0  0  0  0  0  0
    0.1460   -1.8010    0.1060 N   0  0  0  0  0  0  0  0  0  0  0  0
    1.4070   -2.2270    0.3550 C   0  0  0  0  0  0  0  0  0  0  0  0
    2.2360   -1.1300    0.2970 C   0  0  0  0  0  0  0  0  0  0  0  0
    3.5440   -0.9420    0.4640 N   0  0  0  0  0  0  0  0  0  0  0  0
    4.1480    0.2470    0.3730 C   0  0  0  0  0  0  0  0  0  0  0  0
    3.3610    1.3210    0.0920 C   0  0  0  0  0  0  0  0  0  0  0  0
    1.9760    1.1980   -0.0970 C   0  0  0  0  0  0  0  0  0  0  0  0
    1.4150   -0.0530    0.0080 C   0  0  0  0  0  0  0  0  0  0  0  0
  1  2  1  0
  2  3  1  0
  2  6  1  0
  3  4  2  0
  4  5  1  0
  5  6  2  0
  6  7  1  0
  7  8  1  0
  7 15  2  0
  8  9  1  0
  9 10  2  0
 10 11  1  0
 10 15  1  0
 11 12  2  0
 12 13  1  0
 13 14  2  0
 14 15  1  0
M  END
