
     RDKit          3D

 21 21  0  0  0  0  0  0  0  0999 V2000
   -1.6960   -2.3210   -0.4540 C   0  0  0  0  0  0  0  0  0  0  0  0
   -2.5600   -1.4200    0.3710 C   0  0  0  0  0  0  0  0  0  0  0  0
   -2.4280    0.0260    0.2210 C   0  0  1  0  0  0  0  0  0  0  0  0
   -3.3740    0.8150    1.1250 C   0  0  0  0  0  0  0  0  0  0  0  0
   -4.8110    0.6000    0.9460 C   0  0  0  0  0  0  0  0  0  0  0  0
   -5.2670   -0.6910    1.1710 O   0  0  0  0  0  0  0  0  0  0  0  0
   -1.1490    0.6440    0.4150 N   0  0  0  0  0  0  0  0  0  0  0  0
   -0.0590    0.4740   -0.4440 C   0  0  0  0  0  0  0  0  0  0  0  0
   -0.0860   -0.2140   -1.4640 O   0  0  0  0  0  0  0  0  0  0  0  0
    1.2400    1.1790   -0.1010 C   0  0  1  0  0  0  0  0  0  0  0  0
    0.9880    2.6550   -0.0530 C   0  0  0  0  0  0  0  0  0  0  0  0
    1.6800    0.6720    1.2290 C   0  0  0  0  0  0  0  0  0  0  0  0
    2.7960   -0.2980    0.8960 C   0  0  0  0  0  0  0  0  0  0  0  0
    3.5050    0.3960   -0.2120 C   0  0  1  0  0  0  0  0  0  0  0  0
    4.3810   -0.4540   -1.0470 C   0  0  0  0  0  0  0  0  0  0  0  0
    5.4970   -1.1360   -0.3150 C   0  0  0  0  0  0  0  0  0  0  0  0
    5.1020   -1.9790    0.6840 O   0  0  0  0  0  0  0  0  0  0  0  0
    2.3220    0.8270   -1.0950 C   0  0  0  0  0  0  0  0  0  0  0  0
   -2.8720    0.3870   -1.1850 C   0  0  0  0  0  0  0  0  0  0  0  0
   -4.0900   -0.1410   -1.6990 N   0  0  0  0  0  0  0  0  0  0  0  0
   -2.1960    1.1410   -1.9150 O   0  0  0  0  0  0  0  0  0  0  0  0
  1  2  1  0
  3  2  1  1
  3  4  1  0
  3  7  1  0
  3 19  1  0
  4  5  1  0
  5  6  1  0
  7  8  1  0
  8  9  2  0
  8 10  1  0
 10 11  1  1
 10 12  1  0
 10 18  1  0
 12 13  1  0
 13 14  1  0
 14 15  1  6
 14 18  1  0
 15 16  1  0
 16 17  1  0
 19 20  1  0
 19 21  2  0
M  END
