
     RDKit          3D

 19 19  0  0  0  0  0  0  0  0999 V2000
   -3.8660    1.4170    0.2540 C   0  0  0  0  0  0  0  0  0  0  0  0
   -3.8140    0.1740   -0.0150 C   0  0  0  0  0  0  0  0  0  0  0  0
   -5.1290   -0.4280   -0.0250 O   0  0  0  0  0  0  0  0  0  0  0  0
   -6.2790    0.3220    0.2310 C   0  0  0  0  0  0  0  0  0  0  0  0
   -2.7400   -0.7010   -0.2960 C   0  0  0  0  0  0  0  0  0  0  0  0
   -1.3380   -0.6050   -0.4010 C   0  0  0  0  0  0  0  0  0  0  0  0
   -0.3250    0.1490   -0.3310 C   0  0  0  0  0  0  0  0  0  0  0  0
   -0.3290    1.5510   -0.0340 C   0  0  0  0  0  0  0  0  0  0  0  0
    0.8100    2.2640    0.0160 C   0  0  0  0  0  0  0  0  0  0  0  0
    2.0930    1.6460   -0.2290 C   0  0  0  0  0  0  0  0  0  0  0  0
    3.1360    2.3260   -0.1780 O   0  0  0  0  0  0  0  0  0  0  0  0
    2.1730    0.2330   -0.5360 C   0  0  0  0  0  0  0  0  0  0  0  0
    3.4470   -0.4730   -0.8000 C   0  0  0  0  0  0  0  0  0  0  0  0
    4.3700   -0.4240    0.2920 N   0  0  0  0  0  0  0  0  0  0  0  0
    5.6480    0.0710   -0.2430 C   0  0  0  0  0  0  0  0  0  0  0  0
    6.4850    0.7180    0.8250 C   0  0  0  0  0  0  0  0  0  0  0  0
    1.0540   -0.4360   -0.5790 C   0  0  0  0  0  0  0  0  0  0  0  0
   -3.1800   -2.0190   -0.5370 C   0  0  0  0  0  0  0  0  0  0  0  0
   -4.5050   -2.5210   -0.5250 C   0  0  0  0  0  0  0  0  0  0  0  0
  1  2  2  0
  2  3  1  0
  2  5  1  0
  3  4  1  0
  5  6  1  0
  5 18  2  3
  6  7  2  3
  7  8  1  0
  7 17  1  0
  8  9  2  0
  9 10  1  0
 10 11  2  0
 10 12  1  0
 12 13  1  0
 12 17  2  0
 13 14  1  0
 14 15  1  0
 15 16  1  0
 18 19  1  0
M  CHG  1  14   1
M  END
