
     RDKit          3D

 19 20  0  0  0  0  0  0  0  0999 V2000
    3.8570   -1.2610   -0.5510 C   0  0  0  0  0  0  0  0  0  0  0  0
    4.7630   -0.0790   -0.4560 C   0  0  2  0  0  0  0  0  0  0  0  0
    6.1820   -0.4470   -0.0960 C   0  0  0  0  0  0  0  0  0  0  0  0
    4.2480    0.9540    0.5000 C   0  0  0  0  0  0  0  0  0  0  0  0
    2.9080    1.5070    0.1410 C   0  0  0  0  0  0  0  0  0  0  0  0
    1.9460    0.4870    0.1050 O   0  0  0  0  0  0  0  0  0  0  0  0
    0.5980    0.7690   -0.2130 C   0  0  0  0  0  0  0  0  0  0  0  0
    0.3730    1.9840   -0.4490 O   0  0  0  0  0  0  0  0  0  0  0  0
   -0.4110   -0.3060   -0.2510 C   0  0  0  0  0  0  0  0  0  0  0  0
   -1.7840    0.2380   -0.3230 C   0  0  1  0  0  0  0  0  0  0  0  0
   -2.7960   -0.8970   -0.4650 C   0  0  0  0  0  0  0  0  0  0  0  0
   -2.7520   -2.1930   -0.5630 C   0  0  0  0  0  0  0  0  0  0  0  0
   -4.1520   -2.7230   -0.6780 C   0  0  0  0  0  0  0  0  0  0  0  0
   -4.9590   -1.4920   -0.6250 C   0  0  0  0  0  0  0  0  0  0  0  0
   -4.1720   -0.4500   -0.5030 C   0  0  0  0  0  0  0  0  0  0  0  0
   -4.4240    1.0080   -0.4110 C   0  0  0  0  0  0  0  0  0  0  0  0
   -3.4830    1.7670    0.4590 C   0  0  0  0  0  0  0  0  0  0  0  0
   -2.2940    0.9210    0.9300 C   0  0  2  0  0  0  0  0  0  0  0  0
   -1.3850    1.6500    1.7170 N   0  0  0  0  0  0  0  0  0  0  0  0
  2  1  1  1
  2  3  1  0
  2  4  1  0
  4  5  1  0
  5  6  1  0
  6  7  1  0
  7  8  2  0
  7  9  1  0
 10  9  1  1
 10 11  1  0
 10 18  1  0
 11 12  2  0
 11 15  1  0
 12 13  1  0
 13 14  1  0
 14 15  2  0
 15 16  1  0
 16 17  1  0
 17 18  1  0
 18 19  1  6
M  CHG  1  19   1
M  END
