
     RDKit          3D

 19 20  0  0  0  0  0  0  0  0999 V2000
    5.6640   -1.8340   -0.8910 C   0  0  0  0  0  0  0  0  0  0  0  0
    5.1780   -0.6810   -0.2040 O   0  0  0  0  0  0  0  0  0  0  0  0
    3.9180   -0.1640   -0.5350 C   0  0  0  0  0  0  0  0  0  0  0  0
    3.2700   -0.7370   -1.4210 O   0  0  0  0  0  0  0  0  0  0  0  0
    3.4300    1.0290    0.1840 C   0  0  0  0  0  0  0  0  0  0  0  0
    2.0210    1.4080   -0.1730 C   0  0  0  0  0  0  0  0  0  0  0  0
    1.0830    0.3180    0.2190 C   0  0  0  0  0  0  0  0  0  0  0  0
   -0.3930    0.6460   -0.0960 C   0  0  1  0  0  0  0  0  0  0  0  0
   -0.4760    0.8510   -1.5590 C   0  0  0  0  0  0  0  0  0  0  0  0
   -1.8280    0.9090   -2.1720 C   0  0  0  0  0  0  0  0  0  0  0  0
   -2.1550   -0.4830   -2.6720 C   0  0  0  0  0  0  0  0  0  0  0  0
   -1.7870   -1.5120   -1.5870 C   0  0  0  0  0  0  0  0  0  0  0  0
   -2.2640   -0.9750   -0.3380 N   0  0  0  0  0  0  0  0  0  0  0  0
   -1.2770   -0.3920    0.4990 C   0  0  2  0  0  0  0  0  0  0  0  0
   -1.9650    0.1350    1.7310 C   0  0  0  0  0  0  0  0  0  0  0  0
   -3.2630    0.2250    1.9250 C   0  0  0  0  0  0  0  0  0  0  0  0
   -3.5390    0.7930    3.2630 C   0  0  0  0  0  0  0  0  0  0  0  0
   -2.2090    1.0210    3.8280 C   0  0  0  0  0  0  0  0  0  0  0  0
   -1.3180    0.6380    2.9360 C   0  0  0  0  0  0  0  0  0  0  0  0
  1  2  1  0
  2  3  1  0
  3  4  2  0
  3  5  1  0
  5  6  1  0
  6  7  1  0
  8  7  1  6
  8  9  1  0
  8 14  1  0
  9 10  1  0
 10 11  1  0
 11 12  1  0
 12 13  1  0
 13 14  1  0
 14 15  1  1
 15 16  2  0
 15 19  1  0
 16 17  1  0
 17 18  1  0
 18 19  2  0
M  CHG  1  13   1
M  END
