
     RDKit          3D

 19 21  0  0  0  0  0  0  0  0999 V2000
   -0.9050   -1.6420   -1.0260 O   0  0  0  0  0  0  0  0  0  0  0  0
   -1.1510   -0.8520    0.0960 C   0  0  2  0  0  0  0  0  0  0  0  0
    0.0940   -0.8160    0.9870 C   0  0  0  0  0  0  0  0  0  0  0  0
    1.2250   -0.2240    0.1570 C   0  0  0  0  0  0  0  0  0  0  0  0
    2.3640   -0.2090    1.0180 O   0  0  0  0  0  0  0  0  0  0  0  0
    3.5910    0.2580    0.6280 C   0  0  0  0  0  0  0  0  0  0  0  0
    4.6210    0.2290    1.5320 C   0  0  0  0  0  0  0  0  0  0  0  0
    5.8880    0.6880    1.2010 C   0  0  0  0  0  0  0  0  0  0  0  0
    6.0790    1.1700   -0.0570 C   0  0  0  0  0  0  0  0  0  0  0  0
    5.0670    1.2210   -1.0100 C   0  0  0  0  0  0  0  0  0  0  0  0
    3.8040    0.7490   -0.6360 C   0  0  0  0  0  0  0  0  0  0  0  0
   -2.2580   -1.4150    0.9490 C   0  0  0  0  0  0  0  0  0  0  0  0
   -3.1640   -0.2450    1.3380 C   0  0  0  0  0  0  0  0  0  0  0  0
   -3.7230    0.2350    0.0430 C   0  0  0  0  0  0  0  0  0  0  0  0
   -2.8260    0.6380   -0.8410 C   0  0  0  0  0  0  0  0  0  0  0  0
   -3.4810    1.0830   -2.0640 C   0  0  0  0  0  0  0  0  0  0  0  0
   -4.7710    0.9170   -1.8390 C   0  0  0  0  0  0  0  0  0  0  0  0
   -4.9820    0.3930   -0.5440 N   0  0  0  0  0  0  0  0  0  0  0  0
   -1.3960    0.5460   -0.3880 C   0  0  0  0  0  0  0  0  0  0  0  0
  2  1  1  6
  2  3  1  0
  2 12  1  0
  2 19  1  0
  3  4  1  0
  4  5  1  0
  5  6  1  0
  6  7  2  0
  6 11  1  0
  7  8  1  0
  8  9  2  0
  9 10  1  0
 10 11  2  0
 12 13  1  0
 13 14  1  0
 14 15  2  0
 14 18  1  0
 15 16  1  0
 15 19  1  0
 16 17  2  0
 17 18  1  0
M  CHG  1  18   1
M  END
