
     RDKit          3D

 19 20  0  0  0  0  0  0  0  0999 V2000
    5.1100   -1.7340   -0.3740 C   0  0  0  0  0  0  0  0  0  0  0  0
    5.1060   -0.2460   -0.5790 C   0  0  2  0  0  0  0  0  0  0  0  0
    5.8990    0.3790    0.5590 C   0  0  0  0  0  0  0  0  0  0  0  0
    3.6980    0.3270   -0.5650 C   0  0  0  0  0  0  0  0  0  0  0  0
    3.0020    0.0640    0.7380 C   0  0  0  0  0  0  0  0  0  0  0  0
    1.7130    0.6220    0.7070 O   0  0  0  0  0  0  0  0  0  0  0  0
    0.6930    0.2970   -0.1550 C   0  0  0  0  0  0  0  0  0  0  0  0
    0.9010   -0.5910   -1.0150 O   0  0  0  0  0  0  0  0  0  0  0  0
   -0.6380    0.9400   -0.1200 C   0  0  0  0  0  0  0  0  0  0  0  0
   -1.7160    0.1150    0.4960 C   0  0  1  0  0  0  0  0  0  0  0  0
   -2.9700    0.9470    0.4290 C   0  0  0  0  0  0  0  0  0  0  0  0
   -3.1960    2.0720    1.0690 C   0  0  0  0  0  0  0  0  0  0  0  0
   -4.5490    2.5750    0.7320 C   0  0  0  0  0  0  0  0  0  0  0  0
   -5.0390    1.5330   -0.2090 C   0  0  0  0  0  0  0  0  0  0  0  0
   -4.1100    0.6020   -0.3690 C   0  0  0  0  0  0  0  0  0  0  0  0
   -4.1000   -0.6290   -1.1850 C   0  0  0  0  0  0  0  0  0  0  0  0
   -2.6630   -1.0010   -1.4680 C   0  0  0  0  0  0  0  0  0  0  0  0
   -1.9430   -1.2170   -0.1520 C   0  0  2  0  0  0  0  0  0  0  0  0
   -2.7350   -2.0390    0.7560 N   0  0  0  0  0  0  0  0  0  0  0  0
  2  1  1  1
  2  3  1  0
  2  4  1  0
  4  5  1  0
  5  6  1  0
  6  7  1  0
  7  8  2  0
  7  9  1  0
 10  9  1  6
 10 11  1  0
 10 18  1  0
 11 12  2  0
 11 15  1  0
 12 13  1  0
 13 14  1  0
 14 15  2  0
 15 16  1  0
 16 17  1  0
 17 18  1  0
 18 19  1  1
M  CHG  1  19   1
M  END
