
     RDKit          3D

 19 20  0  0  0  0  0  0  0  0999 V2000
   -4.0850   -0.6880    1.0930 C   0  0  0  0  0  0  0  0  0  0  0  0
   -3.9300    0.2540   -0.0480 C   0  0  2  0  0  0  0  0  0  0  0  0
   -4.7400   -0.1680   -1.2620 C   0  0  0  0  0  0  0  0  0  0  0  0
   -2.4660    0.4330   -0.4150 C   0  0  1  0  0  0  0  0  0  0  0  0
   -1.8830   -0.8660   -0.7900 C   0  0  0  0  0  0  0  0  0  0  0  0
   -2.5980    1.2030   -1.7160 N   0  0  0  0  0  0  0  0  0  0  0  0
   -1.7710    1.2690    0.5520 C   0  0  0  0  0  0  0  0  0  0  0  0
   -2.0060    2.5120    0.4060 O   0  0  0  0  0  0  0  0  0  0  0  0
   -0.8680    0.9920    1.6400 C   0  0  1  0  0  0  0  0  0  0  0  0
   -0.9570   -0.2760    2.4210 C   0  0  0  0  0  0  0  0  0  0  0  0
    0.2420    0.0290    1.5130 C   0  0  0  0  0  0  0  0  0  0  0  0
    1.3890   -0.4060    1.0650 C   0  0  0  0  0  0  0  0  0  0  0  0
    2.1480    0.4150    0.1360 C   0  0  0  0  0  0  0  0  0  0  0  0
    3.3030    0.0000   -0.3280 C   0  0  0  0  0  0  0  0  0  0  0  0
    4.0810    0.8230   -1.2700 C   0  0  0  0  0  0  0  0  0  0  0  0
    5.4940    0.9300   -0.7720 C   0  0  0  0  0  0  0  0  0  0  0  0
    5.9460   -0.1750   -0.0950 O   0  0  0  0  0  0  0  0  0  0  0  0
    5.2940   -1.3500   -0.3990 C   0  0  0  0  0  0  0  0  0  0  0  0
    3.8390   -1.3060    0.0900 C   0  0  0  0  0  0  0  0  0  0  0  0
  2  1  1  1
  2  3  1  0
  2  4  1  0
  4  5  1  6
  4  6  1  0
  4  7  1  0
  7  8  2  0
  9  7  1  6
  9 10  1  0
  9 11  1  0
 10 11  1  0
 11 12  2  3
 12 13  1  0
 13 14  2  3
 14 15  1  0
 14 19  1  0
 15 16  1  0
 16 17  1  0
 17 18  1  0
 18 19  1  0
M  CHG  1   6   1
M  END
