
     RDKit          3D

 19 21  0  0  0  0  0  0  0  0999 V2000
    4.4860    0.7570   -0.8980 C   0  0  0  0  0  0  0  0  0  0  0  0
    4.2010    0.6250    0.5650 C   0  0  2  0  0  0  0  0  0  0  0  0
    4.2690   -0.7980    1.0660 C   0  0  0  0  0  0  0  0  0  0  0  0
    3.1140   -1.1170    1.9910 C   0  0  0  0  0  0  0  0  0  0  0  0
    1.7840   -0.9530    1.2840 C   0  0  0  0  0  0  0  0  0  0  0  0
    1.7030    0.3650    0.6030 C   0  0  2  0  0  0  0  0  0  0  0  0
    1.5960    0.2000   -0.7760 O   0  0  0  0  0  0  0  0  0  0  0  0
    0.4380    0.7230   -1.2860 C   0  0  0  0  0  0  0  0  0  0  0  0
   -0.8070    0.1240   -0.7320 C   0  0  0  0  0  0  0  0  0  0  0  0
   -0.9300   -0.8140    0.1550 O   0  0  0  0  0  0  0  0  0  0  0  0
   -2.1880   -1.0990    0.4110 C   0  0  0  0  0  0  0  0  0  0  0  0
   -2.9640   -0.2790   -0.3760 C   0  0  0  0  0  0  0  0  0  0  0  0
   -2.0840    0.4970   -1.1010 C   0  0  0  0  0  0  0  0  0  0  0  0
   -2.4250    1.5450   -2.1000 C   0  0  0  0  0  0  0  0  0  0  0  0
   -3.8520    1.6900   -2.2540 N   0  0  0  0  0  0  0  0  0  0  0  0
   -4.4090   -0.5440   -0.1400 C   0  0  0  0  0  0  0  0  0  0  0  0
   -4.3650   -1.1690    1.2590 C   0  0  0  0  0  0  0  0  0  0  0  0
   -3.0910   -1.9730    1.2290 C   0  0  0  0  0  0  0  0  0  0  0  0
    2.8770    1.2740    0.8920 C   0  0  0  0  0  0  0  0  0  0  0  0
  2  1  1  6
  2  3  1  0
  2 19  1  0
  3  4  1  0
  4  5  1  0
  5  6  1  0
  6  7  1  6
  6 19  1  0
  7  8  1  0
  8  9  1  0
  9 10  1  0
  9 13  2  0
 10 11  1  0
 11 12  2  0
 11 18  1  0
 12 13  1  0
 12 16  1  0
 13 14  1  0
 14 15  1  0
 16 17  1  0
 17 18  1  0
M  CHG  1  15   1
M  END
