
     RDKit          3D

 19 20  0  0  0  0  0  0  0  0999 V2000
    2.8160    0.3160    2.0360 C   0  0  0  0  0  0  0  0  0  0  0  0
    2.6550   -0.5830    0.8530 C   0  0  1  0  0  0  0  0  0  0  0  0
    1.3830   -0.4760    0.1840 N   0  0  0  0  0  0  0  0  0  0  0  0
    0.9910    0.8690   -0.1230 C   0  0  0  0  0  0  0  0  0  0  0  0
   -0.0530    1.4320    0.8210 C   0  0  0  0  0  0  0  0  0  0  0  0
   -1.2320    0.7360    0.8530 O   0  0  0  0  0  0  0  0  0  0  0  0
   -1.9170    0.6750   -0.3540 C   0  0  2  0  0  0  0  0  0  0  0  0
   -3.1980    1.4190   -0.1870 C   0  0  0  0  0  0  0  0  0  0  0  0
   -4.0960    0.9210    0.8830 C   0  0  0  0  0  0  0  0  0  0  0  0
   -5.0430   -0.1700    0.4500 C   0  0  0  0  0  0  0  0  0  0  0  0
   -4.4100   -1.2970   -0.2830 C   0  0  0  0  0  0  0  0  0  0  0  0
   -2.9880   -1.5530    0.0890 C   0  0  0  0  0  0  0  0  0  0  0  0
   -2.0470   -0.7430   -0.7620 C   0  0  1  0  0  0  0  0  0  0  0  0
   -2.6090   -0.7440   -2.0640 O   0  0  0  0  0  0  0  0  0  0  0  0
    3.8180   -0.4140   -0.0820 C   0  0  0  0  0  0  0  0  0  0  0  0
    3.7400   -0.0320   -1.3370 C   0  0  0  0  0  0  0  0  0  0  0  0
    5.1140    0.0020   -1.8860 C   0  0  0  0  0  0  0  0  0  0  0  0
    5.9730   -0.4190   -0.7530 C   0  0  0  0  0  0  0  0  0  0  0  0
    5.2070   -0.6580    0.2890 C   0  0  0  0  0  0  0  0  0  0  0  0
  2  1  1  1
  2  3  1  0
  2 15  1  0
  3  4  1  0
  4  5  1  0
  5  6  1  0
  7  6  1  1
  7  8  1  0
  7 13  1  0
  8  9  1  0
  9 10  1  0
 10 11  1  0
 11 12  1  0
 12 13  1  0
 13 14  1  6
 15 16  2  0
 15 19  1  0
 16 17  1  0
 17 18  1  0
 18 19  2  0
M  CHG  1   3   1
M  END
