
     RDKit          3D

 19 19  0  0  0  0  0  0  0  0999 V2000
   -3.7880    1.2480   -1.1690 C   0  0  0  0  0  0  0  0  0  0  0  0
   -3.8240    0.3180   -0.2490 C   0  0  0  0  0  0  0  0  0  0  0  0
   -5.1600    0.0600    0.1890 O   0  0  0  0  0  0  0  0  0  0  0  0
   -6.2410    0.7970   -0.2670 C   0  0  0  0  0  0  0  0  0  0  0  0
   -2.7760   -0.4510    0.3640 C   0  0  0  0  0  0  0  0  0  0  0  0
   -1.3680   -0.5520    0.2700 C   0  0  0  0  0  0  0  0  0  0  0  0
   -0.2760   -0.1440   -0.2800 C   0  0  0  0  0  0  0  0  0  0  0  0
   -0.2080    0.8800   -1.2960 C   0  0  0  0  0  0  0  0  0  0  0  0
    0.9810    1.2460   -1.8190 C   0  0  0  0  0  0  0  0  0  0  0  0
    2.2080    0.6190   -1.3710 C   0  0  0  0  0  0  0  0  0  0  0  0
    3.3350    0.9300   -1.8310 O   0  0  0  0  0  0  0  0  0  0  0  0
    2.1970   -0.4150   -0.3530 C   0  0  0  0  0  0  0  0  0  0  0  0
    3.4380   -1.0740    0.1240 C   0  0  0  0  0  0  0  0  0  0  0  0
    4.3730   -0.1540    0.7030 N   0  0  0  0  0  0  0  0  0  0  0  0
    5.6630   -0.2600    0.0370 C   0  0  0  0  0  0  0  0  0  0  0  0
    6.3210    1.0950   -0.1120 C   0  0  0  0  0  0  0  0  0  0  0  0
    1.0320   -0.7510    0.1370 C   0  0  0  0  0  0  0  0  0  0  0  0
   -3.2650   -1.3450    1.3100 C   0  0  0  0  0  0  0  0  0  0  0  0
   -4.6200   -1.5290    1.6760 C   0  0  0  0  0  0  0  0  0  0  0  0
  1  2  2  0
  2  3  1  0
  2  5  1  0
  3  4  1  0
  5  6  1  0
  5 18  2  3
  6  7  2  3
  7  8  1  0
  7 17  1  0
  8  9  2  0
  9 10  1  0
 10 11  2  0
 10 12  1  0
 12 13  1  0
 12 17  2  0
 13 14  1  0
 14 15  1  0
 15 16  1  0
 18 19  1  0
M  CHG  1  14   1
M  END
