
     RDKit          3D

 19 20  0  0  0  0  0  0  0  0999 V2000
   -2.2110    4.6910   -1.3020 C   0  0  0  0  0  0  0  0  0  0  0  0
   -1.1510    3.6480   -1.0860 C   0  0  0  0  0  0  0  0  0  0  0  0
   -1.4570    2.5470   -0.4400 C   0  0  0  0  0  0  0  0  0  0  0  0
   -0.4850    1.4900   -0.1800 C   0  0  0  0  0  0  0  0  0  0  0  0
    0.7980    1.4370   -0.3210 O   0  0  0  0  0  0  0  0  0  0  0  0
    1.3280    0.2880   -0.0000 C   0  0  0  0  0  0  0  0  0  0  0  0
    0.2370   -0.5010    0.4060 C   0  0  0  0  0  0  0  0  0  0  0  0
   -0.9020    0.2240    0.2970 C   0  0  0  0  0  0  0  0  0  0  0  0
   -2.3040   -0.1000    0.6410 C   0  0  0  0  0  0  0  0  0  0  0  0
   -2.8680   -0.9090   -0.4310 N   0  0  0  0  0  0  0  0  0  0  0  0
   -4.1240   -1.4750   -0.1500 C   0  0  0  0  0  0  0  0  0  0  0  0
   -4.0860   -3.0050   -0.1700 C   0  0  0  0  0  0  0  0  0  0  0  0
    0.6400   -1.8700    0.9330 C   0  0  0  0  0  0  0  0  0  0  0  0
    1.6660   -1.5170    2.0460 C   0  0  0  0  0  0  0  0  0  0  0  0
    2.9070   -0.8890    1.4390 C   0  0  0  0  0  0  0  0  0  0  0  0
    2.6190   -0.3940    0.0700 C   0  0  2  0  0  0  0  0  0  0  0  0
    3.7390    0.3450   -0.5820 C   0  0  0  0  0  0  0  0  0  0  0  0
    5.0090   -0.4700   -0.4280 C   0  0  0  0  0  0  0  0  0  0  0  0
    6.1150    0.1050   -1.0240 O   0  0  0  0  0  0  0  0  0  0  0  0
  1  2  1  0
  2  3  2  3
  3  4  1  0
  4  5  1  0
  4  8  2  0
  5  6  1  0
  6  7  2  0
  6 16  1  0
  7  8  1  0
  7 13  1  0
  8  9  1  0
  9 10  1  0
 10 11  1  0
 11 12  1  0
 13 14  1  0
 14 15  1  0
 15 16  1  0
 16 17  1  1
 17 18  1  0
 18 19  1  0
M  CHG  1  10   1
M  END
