
     RDKit          3D

 36 39  0  0  0  0  0  0  0  0999 V2000
    2.0190    0.7650    1.4220 O   0  0  0  0  0  0  0  0  0  0  0  0
    2.2890    0.1340    0.3480 C   0  0  0  0  0  0  0  0  0  0  0  0
    1.2880    0.2060   -0.7420 C   0  0  0  0  0  0  0  0  0  0  0  0
    0.1630    1.0320   -0.3660 N   0  0  0  0  0  0  0  0  0  0  0  0
   -0.9590    0.4260    0.2900 C   0  0  0  0  0  0  0  0  0  0  0  0
   -1.0070   -0.8290    0.4250 O   0  0  0  0  0  0  0  0  0  0  0  0
   -2.0160    1.2310    0.7890 N   0  0  0  0  0  0  0  0  0  0  0  0
   -3.1440    0.7040    1.4300 C   0  0  0  0  0  0  0  0  0  0  0  0
   -3.8140    1.4810    2.3510 C   0  0  0  0  0  0  0  0  0  0  0  0
   -4.9620    1.0230    3.0030 C   0  0  0  0  0  0  0  0  0  0  0  0
   -5.3950   -0.2030    2.7040 N   0  0  0  0  0  0  0  0  0  0  0  0
   -4.7950   -1.0140    1.8190 C   0  0  0  0  0  0  0  0  0  0  0  0
   -5.2970   -2.3850    1.4820 C   0  0  0  0  0  0  0  0  0  0  0  0
   -6.2440   -2.2730    0.3680 N   0  0  0  0  0  0  0  0  0  0  0  0
   -6.7320   -3.5900    0.0180 C   0  0  0  0  0  0  0  0  0  0  0  0
   -7.8800   -3.4580   -1.3290 Cl  0  0  0  0  0  0  0  0  0  0  0  0
   -3.6350   -0.5450    1.1640 C   0  0  0  0  0  0  0  0  0  0  0  0
    0.1580    2.4200   -0.6100 C   0  0  0  0  0  0  0  0  0  0  0  0
    0.3060    3.3220    0.3690 N   0  0  0  0  0  0  0  0  0  0  0  0
    0.3050    4.6450    0.0960 C   0  0  0  0  0  0  0  0  0  0  0  0
    0.1510    5.1110   -1.1950 C   0  0  0  0  0  0  0  0  0  0  0  0
   -0.0020    4.1790   -2.2070 C   0  0  0  0  0  0  0  0  0  0  0  0
    0.0070    2.8930   -1.8830 N   0  0  0  0  0  0  0  0  0  0  0  0
   -0.1580    2.2110   -3.0140 C   0  0  0  0  0  0  0  0  0  0  0  0
   -0.2690    3.1300   -4.0520 C   0  0  0  0  0  0  0  0  0  0  0  0
   -0.1690    4.3500   -3.5230 N   0  0  0  0  0  0  0  0  0  0  0  0
   -0.2260    5.5240   -4.2070 O   0  0  0  0  0  0  0  0  0  0  0  0
    3.4900   -0.6000    0.2110 N   0  0  0  0  0  0  0  0  0  0  0  0
    4.4660   -0.6870    1.2910 C   0  0  0  0  0  0  0  0  0  0  0  0
    4.9810   -2.0860    1.4650 C   0  0  0  0  0  0  0  0  0  0  0  0
    5.3300   -2.7420    0.2570 N   0  0  0  0  0  0  0  0  0  0  0  0
    6.6210   -3.3590    0.2590 C   0  0  1  0  0  0  0  0  0  0  0  0
    7.6470   -2.4630    0.4860 F   0  0  0  0  0  0  0  0  0  0  0  0
    6.6110   -4.3410    1.2630 F   0  0  0  0  0  0  0  0  0  0  0  0
    5.0810   -2.0410   -0.9550 C   0  0  0  0  0  0  0  0  0  0  0  0
    3.7980   -1.2840   -1.0170 C   0  0  0  0  0  0  0  0  0  0  0  0
  1  2  2  0
  2  3  1  0
  2 28  1  0
  3  4  1  0
  4  5  1  0
  4 18  1  0
  5  6  2  0
  5  7  1  0
  7  8  1  0
  8  9  2  0
  8 17  1  0
  9 10  1  0
 10 11  2  0
 11 12  1  0
 12 13  1  0
 12 17  2  0
 13 14  1  0
 14 15  1  0
 15 16  1  0
 18 19  2  0
 18 23  1  0
 19 20  1  0
 20 21  2  0
 21 22  1  0
 22 23  1  0
 22 26  2  0
 23 24  1  0
 24 25  2  0
 25 26  1  0
 26 27  1  0
 28 29  1  0
 28 36  1  0
 29 30  1  0
 30 31  1  0
 31 32  1  0
 31 35  1  0
 32 33  1  1
 32 34  1  0
 35 36  1  0
M  CHG  2  26   1  27  -1
M  END
