
     RDKit          3D

 37 40  0  0  0  0  0  0  0  0999 V2000
   -0.5260    4.1830   -1.2390 C   0  0  0  0  0  0  0  0  0  0  0  0
   -0.5560    2.7210   -1.4640 C   0  0  0  0  0  0  0  0  0  0  0  0
   -1.4980    1.9550   -0.8170 C   0  0  0  0  0  0  0  0  0  0  0  0
   -1.5540    0.5670   -1.0080 C   0  0  0  0  0  0  0  0  0  0  0  0
   -2.6070   -0.1380   -0.2530 C   0  0  0  0  0  0  0  0  0  0  0  0
   -3.4960    0.4610    0.5780 N   0  0  0  0  0  0  0  0  0  0  0  0
   -4.3310   -0.4300    1.1270 C   0  0  0  0  0  0  0  0  0  0  0  0
   -5.3830   -0.3100    2.0160 C   0  0  0  0  0  0  0  0  0  0  0  0
   -5.7890    1.0090    2.5650 C   0  0  1  0  0  0  0  0  0  0  0  0
   -4.7720    1.6070    3.2580 F   0  0  0  0  0  0  0  0  0  0  0  0
   -6.1540    1.8690    1.5320 F   0  0  0  0  0  0  0  0  0  0  0  0
   -7.1440    0.7620    3.6900 Cl  0  0  0  0  0  0  0  0  0  0  0  0
   -6.0120   -1.4470    2.3550 N   0  0  0  0  0  0  0  0  0  0  0  0
   -5.6770   -2.6340    1.8860 N   0  0  0  0  0  0  0  0  0  0  0  0
   -4.6500   -2.7050    1.0250 C   0  0  0  0  0  0  0  0  0  0  0  0
   -4.2260   -3.9590    0.4730 N   0  0  0  0  0  0  0  0  0  0  0  0
   -3.9510   -1.6170    0.6220 N   0  0  0  0  0  0  0  0  0  0  0  0
   -2.9230   -1.4310   -0.1990 N   0  0  0  0  0  0  0  0  0  0  0  0
   -0.6870   -0.0360   -1.8280 N   0  0  0  0  0  0  0  0  0  0  0  0
   -0.7510   -1.4360   -2.0220 C   0  0  0  0  0  0  0  0  0  0  0  0
    0.0390   -2.2850   -1.1030 C   0  0  0  0  0  0  0  0  0  0  0  0
    1.5060   -2.0000   -1.1590 C   0  0  0  0  0  0  0  0  0  0  0  0
    2.4560   -2.5100   -1.9050 N   0  0  0  0  0  0  0  0  0  0  0  0
    3.6290   -1.9010   -1.5610 C   0  0  0  0  0  0  0  0  0  0  0  0
    3.3310   -0.9860   -0.5560 C   0  0  0  0  0  0  0  0  0  0  0  0
    4.2670   -0.0770    0.1490 C   0  0  0  0  0  0  0  0  0  0  0  0
    3.8210    0.8100    1.1610 C   0  0  0  0  0  0  0  0  0  0  0  0
    2.6720    1.0380    1.6650 C   0  0  0  0  0  0  0  0  0  0  0  0
    1.1270    0.3680    1.3470 Cl  0  0  0  0  0  0  0  0  0  0  0  0
    5.5280   -0.1520   -0.2250 C   0  0  0  0  0  0  0  0  0  0  0  0
    6.7090    0.5230    0.1840 C   0  0  0  0  0  0  0  0  0  0  0  0
    7.0420    1.4030    1.0040 N   0  0  0  0  0  0  0  0  0  0  0  0
    8.4300    1.7600    1.0390 O   0  0  0  0  0  0  0  0  0  0  0  0
    2.0620   -1.1160   -0.3890 O   0  0  0  0  0  0  0  0  0  0  0  0
    0.2580    0.7160   -2.4800 C   0  0  0  0  0  0  0  0  0  0  0  0
    1.0310    0.0830   -3.2270 O   0  0  0  0  0  0  0  0  0  0  0  0
    0.3300    2.0740   -2.3070 C   0  0  0  0  0  0  0  0  0  0  0  0
  1  2  1  0
  2  3  1  0
  2 37  2  0
  3  4  2  0
  4  5  1  0
  4 19  1  0
  5  6  1  0
  5 18  2  0
  6  7  2  0
  7  8  1  0
  7 17  1  0
  8  9  1  0
  8 13  2  0
  9 10  1  1
  9 11  1  0
  9 12  1  0
 13 14  1  0
 14 15  2  0
 15 16  1  0
 15 17  1  0
 17 18  1  0
 19 20  1  0
 19 35  1  0
 20 21  1  0
 21 22  1  0
 22 23  2  0
 22 34  1  0
 23 24  1  0
 24 25  2  0
 25 26  1  0
 25 34  1  0
 26 27  1  0
 26 30  2  3
 27 28  2  3
 28 29  1  0
 30 31  1  0
 31 32  2  3
 32 33  1  0
 35 36  2  0
 35 37  1  0
M  CHG  2  32   1  33  -1
M  END
