
     RDKit          3D

 37 39  0  0  0  0  0  0  0  0999 V2000
   -0.3550    5.4870   -1.9080 C   0  0  0  0  0  0  0  0  0  0  0  0
   -0.7310    4.1500   -1.8540 O   0  0  0  0  0  0  0  0  0  0  0  0
    0.2120    3.3730   -1.1660 C   0  0  2  0  0  0  0  0  0  0  0  0
    0.8010    2.5710   -2.1550 O   0  0  0  0  0  0  0  0  0  0  0  0
    1.6600    1.7200   -1.4600 C   0  0  2  0  0  0  0  0  0  0  0  0
    2.7880    1.2170   -2.2880 C   0  0  0  0  0  0  0  0  0  0  0  0
    2.4100    0.4850   -3.3940 O   0  0  0  0  0  0  0  0  0  0  0  0
    0.7820    0.5860   -0.9670 C   0  0  1  0  0  0  0  0  0  0  0  0
    1.6200   -0.2550   -0.2800 O   0  0  0  0  0  0  0  0  0  0  0  0
    1.7320   -1.5330   -0.7240 C   0  0  2  0  0  0  0  0  0  0  0  0
    1.0920   -2.3260    0.2460 O   0  0  0  0  0  0  0  0  0  0  0  0
    1.8950   -3.1160    1.0000 C   0  0  2  0  0  0  0  0  0  0  0  0
    1.1360   -3.3830    2.3140 C   0  0  0  0  0  0  0  0  0  0  0  0
    1.9310   -4.1980    3.1280 O   0  0  0  0  0  0  0  0  0  0  0  0
    3.1900   -2.4560    1.4330 C   0  0  2  0  0  0  0  0  0  0  0  0
    2.8800   -1.2310    2.0200 O   0  0  0  0  0  0  0  0  0  0  0  0
    3.9760   -2.1770    0.1770 C   0  0  2  0  0  0  0  0  0  0  0  0
    4.7580   -1.0390    0.2890 O   0  0  0  0  0  0  0  0  0  0  0  0
    3.0590   -2.0810   -1.0340 C   0  0  1  0  0  0  0  0  0  0  0  0
    2.8640   -3.4140   -1.4770 O   0  0  0  0  0  0  0  0  0  0  0  0
   -0.3330    1.1390   -0.0800 C   0  0  2  0  0  0  0  0  0  0  0  0
   -1.5450    0.6180   -0.5210 O   0  0  0  0  0  0  0  0  0  0  0  0
   -2.1330   -0.2520    0.3640 C   0  0  2  0  0  0  0  0  0  0  0  0
   -2.0700   -1.5310   -0.2370 O   0  0  0  0  0  0  0  0  0  0  0  0
   -3.1030   -1.6790   -1.1620 C   0  0  1  0  0  0  0  0  0  0  0  0
   -2.7850   -2.7850   -2.1130 C   0  0  0  0  0  0  0  0  0  0  0  0
   -4.4180   -1.9910   -0.4810 C   0  0  1  0  0  0  0  0  0  0  0  0
   -4.5120   -3.3450   -0.1570 O   0  0  0  0  0  0  0  0  0  0  0  0
   -4.4170   -1.2180    0.8210 C   0  0  1  0  0  0  0  0  0  0  0  0
   -4.0500   -2.0180    1.8890 O   0  0  0  0  0  0  0  0  0  0  0  0
   -3.5520    0.0240    0.6970 C   0  0  2  0  0  0  0  0  0  0  0  0
   -4.1970    0.8850   -0.1680 O   0  0  0  0  0  0  0  0  0  0  0  0
   -0.4220    2.6250   -0.0550 C   0  0  1  0  0  0  0  0  0  0  0  0
    0.1450    3.1580    1.1950 N   0  0  0  0  0  0  0  0  0  0  0  0
   -0.6510    3.8710    2.1260 C   0  0  0  0  0  0  0  0  0  0  0  0
   -0.0850    4.4110    3.3890 C   0  0  0  0  0  0  0  0  0  0  0  0
   -1.8560    4.0490    1.8780 O   0  0  0  0  0  0  0  0  0  0  0  0
  1  2  1  0
  3  2  1  6
  3  4  1  0
  3 33  1  0
  4  5  1  0
  5  6  1  6
  5  8  1  0
  6  7  1  0
  8  9  1  1
  8 21  1  0
 10  9  1  1
 10 11  1  0
 10 19  1  0
 11 12  1  0
 12 13  1  1
 12 15  1  0
 13 14  1  0
 15 16  1  6
 15 17  1  0
 17 18  1  1
 17 19  1  0
 19 20  1  1
 21 22  1  6
 21 33  1  0
 23 22  1  6
 23 24  1  0
 23 31  1  0
 24 25  1  0
 25 26  1  6
 25 27  1  0
 27 28  1  1
 27 29  1  0
 29 30  1  1
 29 31  1  0
 31 32  1  6
 33 34  1  1
 34 35  1  0
 35 36  1  0
 35 37  2  0
M  END
