
     RDKit          3D

 37 40  0  0  0  0  0  0  0  0999 V2000
   -6.0740   -2.1230   -1.7810 C   0  0  0  0  0  0  0  0  0  0  0  0
   -6.4280   -1.7270   -0.3870 C   0  0  0  0  0  0  0  0  0  0  0  0
   -8.0230   -1.9660    0.2510 Cl  0  0  0  0  0  0  0  0  0  0  0  0
   -5.4900   -1.1700    0.4010 C   0  0  0  0  0  0  0  0  0  0  0  0
   -4.1490   -0.9870   -0.1850 C   0  0  0  0  0  0  0  0  0  0  0  0
   -3.6770    0.3590   -0.2830 N   0  0  0  0  0  0  0  0  0  0  0  0
   -4.3680    1.3170   -1.1370 C   0  0  0  0  0  0  0  0  0  0  0  0
   -2.4760    0.8040    0.3780 C   0  0  0  0  0  0  0  0  0  0  0  0
   -2.0810    2.1220    0.3080 C   0  0  0  0  0  0  0  0  0  0  0  0
   -0.9310    2.5580    0.9180 C   0  0  0  0  0  0  0  0  0  0  0  0
   -0.1690    1.6460    1.6090 C   0  0  0  0  0  0  0  0  0  0  0  0
    1.0910    2.0130    2.3020 C   0  0  0  0  0  0  0  0  0  0  0  0
    2.2250    1.8340    1.3390 C   0  0  0  0  0  0  0  0  0  0  0  0
    2.6350    2.8440    0.5560 N   0  0  0  0  0  0  0  0  0  0  0  0
    3.6650    2.7000   -0.3270 C   0  0  0  0  0  0  0  0  0  0  0  0
    4.0580    3.6250   -1.0590 O   0  0  0  0  0  0  0  0  0  0  0  0
    4.2930    1.4880   -0.4120 C   0  0  0  0  0  0  0  0  0  0  0  0
    5.3210    1.0170   -1.1600 N   0  0  0  0  0  0  0  0  0  0  0  0
    5.5470   -0.2460   -0.8560 N   0  0  0  0  0  0  0  0  0  0  0  0
    6.5520   -1.0470   -1.4490 C   0  0  0  0  0  0  0  0  0  0  0  0
    6.3040   -2.4000   -1.7060 C   0  0  0  0  0  0  0  0  0  0  0  0
    7.2380   -3.2310   -2.2790 C   0  0  0  0  0  0  0  0  0  0  0  0
    6.9730   -4.5360   -2.5180 F   0  0  0  0  0  0  0  0  0  0  0  0
    8.4640   -2.6960   -2.6080 C   0  0  0  0  0  0  0  0  0  0  0  0
    8.6860   -1.3490   -2.3420 C   0  0  0  0  0  0  0  0  0  0  0  0
   10.2700   -0.6970   -2.7760 Cl  0  0  0  0  0  0  0  0  0  0  0  0
    7.7630   -0.5550   -1.7830 N   0  0  0  0  0  0  0  0  0  0  0  0
    4.6820   -0.5960    0.0750 N   0  0  0  0  0  0  0  0  0  0  0  0
    3.8800    0.4430    0.3870 C   0  0  0  0  0  0  0  0  0  0  0  0
    2.8540    0.6560    1.2390 N   0  0  0  0  0  0  0  0  0  0  0  0
    2.4390   -0.3930    2.0410 O   0  0  0  0  0  0  0  0  0  0  0  0
   -0.6110    0.3790    1.6380 N   0  0  0  0  0  0  0  0  0  0  0  0
   -1.7040   -0.0540    1.0620 N   0  0  0  0  0  0  0  0  0  0  0  0
   -5.8530   -0.8010    1.7380 C   0  0  0  0  0  0  0  0  0  0  0  0
   -7.2060   -1.0470    2.1260 O   0  0  0  0  0  0  0  0  0  0  0  0
   -5.0580   -0.2600    2.6330 C   0  0  0  0  0  0  0  0  0  0  0  0
   -5.5800    0.0320    3.8760 F   0  0  0  0  0  0  0  0  0  0  0  0
  1  2  1  0
  2  3  1  0
  2  4  2  3
  4  5  1  0
  4 34  1  0
  5  6  1  0
  6  7  1  0
  6  8  1  0
  8  9  2  0
  8 33  1  0
  9 10  1  0
 10 11  2  0
 11 12  1  0
 11 32  1  0
 12 13  1  0
 13 14  1  0
 13 30  2  0
 14 15  1  0
 15 16  2  0
 15 17  1  0
 17 18  2  0
 17 29  1  0
 18 19  1  0
 19 20  1  0
 19 28  1  0
 20 21  2  0
 20 27  1  0
 21 22  1  0
 22 23  1  0
 22 24  2  0
 24 25  1  0
 25 26  1  0
 25 27  2  0
 28 29  2  0
 29 30  1  0
 30 31  1  0
 32 33  2  0
 34 35  1  0
 34 36  2  3
 36 37  1  0
M  CHG  2  30   1  31  -1
M  END
