
     RDKit          3D

 36 39  0  0  0  0  0  0  0  0999 V2000
   -2.7690   -1.0860   -3.8820 C   0  0  0  0  0  0  0  0  0  0  0  0
   -2.3250   -1.7570   -2.6900 N   0  0  0  0  0  0  0  0  0  0  0  0
   -2.5720   -0.9430   -1.4870 C   0  0  0  0  0  0  0  0  0  0  0  0
   -1.2560   -0.4050   -1.0350 C   0  0  0  0  0  0  0  0  0  0  0  0
   -0.1280   -0.7040   -1.7370 N   0  0  0  0  0  0  0  0  0  0  0  0
    1.0730   -0.2470   -1.3850 N   0  0  0  0  0  0  0  0  0  0  0  0
    1.2250    0.5340   -0.3150 C   0  0  0  0  0  0  0  0  0  0  0  0
    2.5340    1.0560    0.0540 N   0  0  0  0  0  0  0  0  0  0  0  0
    2.7800    2.3080   -0.3610 O   0  0  0  0  0  0  0  0  0  0  0  0
    3.4200    0.2720    0.8100 C   0  0  0  0  0  0  0  0  0  0  0  0
    4.7260    0.2190    0.8160 C   0  0  0  0  0  0  0  0  0  0  0  0
    5.3970   -0.6930    1.7130 N   0  0  0  0  0  0  0  0  0  0  0  0
    6.7150   -0.3450    2.2120 C   0  0  0  0  0  0  0  0  0  0  0  0
    7.5420   -0.0110    0.9510 C   0  0  0  0  0  0  0  0  0  0  0  0
    8.6700   -0.6240    0.8310 C   0  0  0  0  0  0  0  0  0  0  0  0
    9.7140   -0.6040   -0.1730 C   0  0  1  0  0  0  0  0  0  0  0  0
    9.3200   -0.3100   -1.4400 F   0  0  0  0  0  0  0  0  0  0  0  0
   11.0980    0.4510    0.2570 Cl  0  0  0  0  0  0  0  0  0  0  0  0
   10.3460   -2.3130   -0.2950 Cl  0  0  0  0  0  0  0  0  0  0  0  0
    7.0060    0.9120    0.0610 N   0  0  0  0  0  0  0  0  0  0  0  0
    7.7780    1.8200   -0.7390 C   0  0  0  0  0  0  0  0  0  0  0  0
    5.5550    1.0330   -0.0190 C   0  0  0  0  0  0  0  0  0  0  0  0
    5.1020    1.8670   -0.8420 O   0  0  0  0  0  0  0  0  0  0  0  0
    0.1500    0.8420    0.3890 N   0  0  0  0  0  0  0  0  0  0  0  0
   -1.1310    0.3950    0.0680 C   0  0  0  0  0  0  0  0  0  0  0  0
   -2.1420    0.7780    0.8560 O   0  0  0  0  0  0  0  0  0  0  0  0
   -3.4680    0.5920    0.8810 C   0  0  0  0  0  0  0  0  0  0  0  0
   -4.0990   -0.4420    1.5620 C   0  0  0  0  0  0  0  0  0  0  0  0
   -5.4580   -0.5560    1.5400 C   0  0  0  0  0  0  0  0  0  0  0  0
   -6.2800    0.3230    0.8580 C   0  0  0  0  0  0  0  0  0  0  0  0
   -7.6890    0.2030    0.8340 N   0  0  0  0  0  0  0  0  0  0  0  0
   -8.6580   -0.7340    1.3380 C   0  0  0  0  0  0  0  0  0  0  0  0
   -9.6950    0.3660    1.3070 C   0  0  0  0  0  0  0  0  0  0  0  0
   -8.7650    0.9880    0.2870 C   0  0  0  0  0  0  0  0  0  0  0  0
   -5.6740    1.3220    0.2000 N   0  0  0  0  0  0  0  0  0  0  0  0
   -4.3540    1.4530    0.2070 C   0  0  0  0  0  0  0  0  0  0  0  0
  1  2  1  0
  2  3  1  0
  3  4  1  0
  4  5  2  0
  4 25  1  0
  5  6  1  0
  6  7  2  0
  7  8  1  0
  7 24  1  0
  8  9  1  0
  8 10  1  0
 10 11  2  3
 11 12  1  0
 11 22  1  0
 12 13  1  0
 13 14  1  0
 14 15  2  3
 14 20  1  0
 15 16  1  0
 16 17  1  6
 16 18  1  0
 16 19  1  0
 20 21  1  0
 20 22  1  0
 22 23  2  0
 24 25  2  0
 25 26  1  0
 26 27  1  0
 27 28  2  0
 27 36  1  0
 28 29  1  0
 29 30  2  0
 30 31  1  0
 30 35  1  0
 31 32  1  0
 31 34  1  0
 32 33  1  0
 33 34  1  0
 35 36  2  0
M  CHG  2   2   1   9  -1
M  END
