
     RDKit          3D

 37 40  0  0  0  0  0  0  0  0999 V2000
    2.6100    2.1130   -0.7790 C   0  0  0  0  0  0  0  0  0  0  0  0
    3.3760    1.4020    0.2190 N   0  0  0  0  0  0  0  0  0  0  0  0
    4.8190    1.7850    0.3530 C   0  0  0  0  0  0  0  0  0  0  0  0
    5.6410    0.9630   -0.5310 C   0  0  0  0  0  0  0  0  0  0  0  0
    5.1200    0.0590   -1.2850 N   0  0  0  0  0  0  0  0  0  0  0  0
    5.8810   -0.7590   -2.1550 C   0  0  0  0  0  0  0  0  0  0  0  0
    7.1920   -0.6280   -2.2350 C   0  0  0  0  0  0  0  0  0  0  0  0
    8.1320   -1.6540   -3.3240 Cl  0  0  0  0  0  0  0  0  0  0  0  0
    7.8450    0.3770   -1.4070 C   0  0  0  0  0  0  0  0  0  0  0  0
    9.1570    0.5220   -1.4720 C   0  0  0  0  0  0  0  0  0  0  0  0
   10.0050    1.7100   -0.5050 Cl  0  0  0  0  0  0  0  0  0  0  0  0
    7.0460    1.1700   -0.5540 N   0  0  0  0  0  0  0  0  0  0  0  0
    2.9370    0.4120    1.0660 C   0  0  0  0  0  0  0  0  0  0  0  0
    3.8870   -0.0470    1.8770 O   0  0  0  0  0  0  0  0  0  0  0  0
    1.6900   -0.2370    1.2740 C   0  0  0  0  0  0  0  0  0  0  0  0
    0.5560    0.1160    0.5060 N   0  0  0  0  0  0  0  0  0  0  0  0
   -0.7180   -0.5510    0.7220 C   0  0  0  0  0  0  0  0  0  0  0  0
   -0.8660   -1.5400    1.6720 C   0  0  0  0  0  0  0  0  0  0  0  0
   -2.0880   -2.1600    1.8580 C   0  0  0  0  0  0  0  0  0  0  0  0
   -3.1810   -1.7930    1.0900 C   0  0  0  0  0  0  0  0  0  0  0  0
   -4.4830   -2.4260    1.2610 C   0  0  0  0  0  0  0  0  0  0  0  0
   -4.8740   -3.3930    2.1010 N   0  0  0  0  0  0  0  0  0  0  0  0
   -6.1520   -3.6810    1.9300 N   0  0  0  0  0  0  0  0  0  0  0  0
   -6.5810   -2.8870    0.9700 N   0  0  0  0  0  0  0  0  0  0  0  0
   -5.5850   -2.1250    0.5570 N   0  0  0  0  0  0  0  0  0  0  0  0
   -5.7020   -1.1530   -0.4720 C   0  0  0  0  0  0  0  0  0  0  0  0
   -5.6990   -1.5100   -1.8030 C   0  0  0  0  0  0  0  0  0  0  0  0
   -5.8150   -0.5480   -2.8130 C   0  0  0  0  0  0  0  0  0  0  0  0
   -5.9360    0.7870   -2.4900 C   0  0  0  0  0  0  0  0  0  0  0  0
   -5.9380    1.1270   -1.1560 C   0  0  0  0  0  0  0  0  0  0  0  0
   -5.8240    0.1840   -0.1530 C   0  0  0  0  0  0  0  0  0  0  0  0
   -5.8260    0.5190    1.1720 O   0  0  0  0  0  0  0  0  0  0  0  0
   -5.9350    1.7820    1.7430 C   0  0  1  0  0  0  0  0  0  0  0  0
   -6.9950    1.7740    2.6470 F   0  0  0  0  0  0  0  0  0  0  0  0
   -4.7950    2.0440    2.5170 F   0  0  0  0  0  0  0  0  0  0  0  0
   -2.9680   -0.8220    0.1820 N   0  0  0  0  0  0  0  0  0  0  0  0
   -1.8010   -0.2270    0.0010 N   0  0  0  0  0  0  0  0  0  0  0  0
  1  2  1  0
  2  3  1  0
  2 13  1  0
  3  4  1  0
  4  5  2  0
  4 12  1  0
  5  6  1  0
  6  7  2  0
  7  8  1  0
  7  9  1  0
  9 10  2  3
  9 12  1  0
 10 11  1  0
 13 14  2  0
 13 15  1  0
 15 16  1  0
 16 17  1  0
 17 18  2  0
 17 37  1  0
 18 19  1  0
 19 20  2  0
 20 21  1  0
 20 36  1  0
 21 22  2  0
 21 25  1  0
 22 23  1  0
 23 24  2  0
 24 25  1  0
 25 26  1  0
 26 27  2  0
 26 31  1  0
 27 28  1  0
 28 29  2  0
 29 30  1  0
 30 31  2  0
 31 32  1  0
 32 33  1  0
 33 34  1  1
 33 35  1  0
 36 37  2  0
M  END
