
     RDKit          3D

 37 40  0  0  0  0  0  0  0  0999 V2000
    4.9210    1.2320   -3.0580 C   0  0  0  0  0  0  0  0  0  0  0  0
    4.7540    0.9900   -1.5820 C   0  0  0  0  0  0  0  0  0  0  0  0
    4.9870   -0.1820   -0.9020 C   0  0  0  0  0  0  0  0  0  0  0  0
    4.7010    0.0730    0.4110 C   0  0  0  0  0  0  0  0  0  0  0  0
    4.3020    1.3940    0.4940 C   0  0  0  0  0  0  0  0  0  0  0  0
    3.9160    2.0600    1.6870 N   0  0  0  0  0  0  0  0  0  0  0  0
    2.7440    1.9100    2.1200 N   0  0  0  0  0  0  0  0  0  0  0  0
    1.8340    1.0930    1.4240 C   0  0  0  0  0  0  0  0  0  0  0  0
    1.2990   -0.0340    1.9190 N   0  0  0  0  0  0  0  0  0  0  0  0
    0.4720   -0.5790    1.0190 C   0  0  0  0  0  0  0  0  0  0  0  0
   -0.2800   -1.7980    1.2020 N   0  0  0  0  0  0  0  0  0  0  0  0
   -1.5760   -1.6780    1.8230 C   0  0  0  0  0  0  0  0  0  0  0  0
   -2.4660   -0.7560    1.0290 C   0  0  0  0  0  0  0  0  0  0  0  0
   -3.0860   -1.2300    0.0680 O   0  0  0  0  0  0  0  0  0  0  0  0
   -2.5850    0.6150    1.3800 N   0  0  0  0  0  0  0  0  0  0  0  0
   -1.9010    1.1130    2.4190 C   0  0  0  0  0  0  0  0  0  0  0  0
   -2.1830    2.3730    2.5380 N   0  0  0  0  0  0  0  0  0  0  0  0
   -3.0860    2.7460    1.5510 C   0  0  0  0  0  0  0  0  0  0  0  0
   -3.4900    3.9820    1.5040 C   0  0  0  0  0  0  0  0  0  0  0  0
   -2.9340    4.8080    2.5010 F   0  0  0  0  0  0  0  0  0  0  0  0
   -4.5550    4.7750    0.4650 Cl  0  0  0  0  0  0  0  0  0  0  0  0
   -3.3370    1.6260    0.8190 C   0  0  0  0  0  0  0  0  0  0  0  0
   -4.0860    1.3920   -0.2150 C   0  0  0  0  0  0  0  0  0  0  0  0
   -4.9830    2.1870   -1.0390 C   0  0  0  0  0  0  0  0  0  0  0  0
   -4.2620    2.8640   -2.1020 N   0  0  0  0  0  0  0  0  0  0  0  0
   -4.9640    3.8270   -2.7030 O   0  0  0  0  0  0  0  0  0  0  0  0
    0.2600   -3.0210    0.7810 C   0  0  0  0  0  0  0  0  0  0  0  0
   -0.3420   -4.2330    0.9050 C   0  0  0  0  0  0  0  0  0  0  0  0
    0.2400   -5.4320    0.4660 C   0  0  0  0  0  0  0  0  0  0  0  0
   -0.6360   -6.9450    0.6810 Cl  0  0  0  0  0  0  0  0  0  0  0  0
    1.4820   -5.3990   -0.1230 C   0  0  0  0  0  0  0  0  0  0  0  0
    2.1150   -4.1910   -0.2630 C   0  0  0  0  0  0  0  0  0  0  0  0
    1.5250   -3.0300    0.1750 C   0  0  0  0  0  0  0  0  0  0  0  0
    2.1570   -1.8330    0.0350 F   0  0  0  0  0  0  0  0  0  0  0  0
    0.5200    0.2470   -0.0330 N   0  0  0  0  0  0  0  0  0  0  0  0
    1.3320    1.2540    0.1950 N   0  0  0  0  0  0  0  0  0  0  0  0
    4.3550    1.8760   -0.7080 O   0  0  0  0  0  0  0  0  0  0  0  0
  1  2  1  0
  2  3  2  0
  2 37  1  0
  3  4  1  0
  4  5  2  0
  5  6  1  0
  5 37  1  0
  6  7  2  3
  7  8  1  0
  8  9  2  0
  8 36  1  0
  9 10  1  0
 10 11  1  0
 10 35  2  0
 11 12  1  0
 11 27  1  0
 12 13  1  0
 13 14  2  0
 13 15  1  0
 15 16  1  0
 15 22  1  0
 16 17  2  0
 17 18  1  0
 18 19  2  3
 18 22  1  0
 19 20  1  0
 19 21  1  0
 22 23  2  3
 23 24  1  0
 24 25  1  0
 25 26  1  0
 27 28  2  0
 27 33  1  0
 28 29  1  0
 29 30  1  0
 29 31  2  0
 31 32  1  0
 32 33  2  0
 33 34  1  0
 35 36  1  0
M  CHG  2  25   1  26  -1
M  END
