
     RDKit          3D

 13 14  0  0  0  0  0  0  0  0999 V2000
    3.0410    0.8310   -1.0990 C   0  0  0  0  0  0  0  0  0  0  0  0
    2.4190    0.1190   -0.1690 C   0  0  0  0  0  0  0  0  0  0  0  0
    3.1820   -0.6710    0.8450 C   0  0  0  0  0  0  0  0  0  0  0  0
    0.9660    0.0790   -0.1000 C   0  0  0  0  0  0  0  0  0  0  0  0
    0.1590    0.7400   -0.9460 N   0  0  0  0  0  0  0  0  0  0  0  0
   -1.0980    0.4600   -0.5680 C   0  0  0  0  0  0  0  0  0  0  0  0
   -2.3180    0.8430   -1.0490 N   0  0  0  0  0  0  0  0  0  0  0  0
   -3.4450    0.4090   -0.4740 C   0  0  0  0  0  0  0  0  0  0  0  0
   -4.5780    0.7460   -0.8970 O   0  0  0  0  0  0  0  0  0  0  0  0
   -3.3620   -0.4350    0.6190 C   0  0  0  0  0  0  0  0  0  0  0  0
   -2.1640   -0.8400    1.1290 C   0  0  0  0  0  0  0  0  0  0  0  0
   -1.0040   -0.3820    0.5220 C   0  0  0  0  0  0  0  0  0  0  0  0
    0.2690   -0.5860    0.7710 O   0  0  0  0  0  0  0  0  0  0  0  0
  1  2  2  0
  2  3  1  0
  2  4  1  0
  4  5  2  0
  4 13  1  0
  5  6  1  0
  6  7  1  0
  6 12  2  0
  7  8  1  0
  8  9  2  0
  8 10  1  0
 10 11  2  0
 11 12  1  0
 12 13  1  0
M  END
