
     RDKit          3D

 13 14  0  0  0  0  0  0  0  0999 V2000
   -4.7030   -0.1590   -0.0810 C   0  0  0  0  0  0  0  0  0  0  0  0
   -3.3700   -0.6650    0.0340 O   0  0  0  0  0  0  0  0  0  0  0  0
   -2.2980    0.2010   -0.0730 C   0  0  0  0  0  0  0  0  0  0  0  0
   -2.5580    1.4150   -0.2700 O   0  0  0  0  0  0  0  0  0  0  0  0
   -0.9100   -0.2720    0.0380 C   0  0  0  0  0  0  0  0  0  0  0  0
    0.2200    0.5110   -0.0540 C   0  0  0  0  0  0  0  0  0  0  0  0
    1.3420   -0.2900    0.1010 C   0  0  0  0  0  0  0  0  0  0  0  0
    2.7400    0.1180    0.0750 C   0  0  0  0  0  0  0  0  0  0  0  0
    3.3710    1.2620   -0.0880 C   0  0  0  0  0  0  0  0  0  0  0  0
    4.6410    0.6130    0.0480 C   0  0  0  0  0  0  0  0  0  0  0  0
    4.0260   -0.5400    0.2120 C   0  0  0  0  0  0  0  0  0  0  0  0
    0.8510   -1.5280    0.2820 N   0  0  0  0  0  0  0  0  0  0  0  0
   -0.4750   -1.5220    0.2450 N   0  0  0  0  0  0  0  0  0  0  0  0
  1  2  1  0
  2  3  1  0
  3  4  2  0
  3  5  1  0
  5  6  2  0
  5 13  1  0
  6  7  1  0
  7  8  1  0
  7 12  2  0
  8  9  2  0
  8 11  1  0
  9 10  1  0
 10 11  2  0
 12 13  1  0
M  END
