
     RDKit          3D

 13 14  0  0  0  0  0  0  0  0999 V2000
    3.8120   -1.1140   -0.0390 C   0  0  0  0  0  0  0  0  0  0  0  0
    3.1650   -0.0310    0.8130 C   0  0  0  0  0  0  0  0  0  0  0  0
    1.8270    0.2870    0.3260 N   0  0  0  0  0  0  0  0  0  0  0  0
    1.4770    1.2190   -0.5940 C   0  0  0  0  0  0  0  0  0  0  0  0
    0.1150    1.2060   -0.7750 C   0  0  0  0  0  0  0  0  0  0  0  0
   -0.6940    1.9680   -1.6030 O   0  0  0  0  0  0  0  0  0  0  0  0
   -0.3580    0.2300    0.0680 C   0  0  0  0  0  0  0  0  0  0  0  0
   -1.7550   -0.1410    0.2150 C   0  0  0  0  0  0  0  0  0  0  0  0
   -2.2360   -1.0830    1.0260 C   0  0  0  0  0  0  0  0  0  0  0  0
   -3.7140   -1.0700    0.8040 C   0  0  0  0  0  0  0  0  0  0  0  0
   -3.8340   -0.6060   -0.5060 O   0  0  0  0  0  0  0  0  0  0  0  0
   -2.9030    0.4480   -0.4980 C   0  0  0  0  0  0  0  0  0  0  0  0
    0.7130   -0.2850    0.7020 N   0  0  0  0  0  0  0  0  0  0  0  0
  1  2  1  0
  2  3  1  0
  3  4  1  0
  3 13  1  0
  4  5  2  0
  5  6  1  0
  5  7  1  0
  7  8  1  0
  7 13  2  0
  8  9  2  0
  8 12  1  0
  9 10  1  0
 10 11  1  0
 11 12  1  0
M  END
