
     RDKit          3D

 18 19  0  0  0  0  0  0  0  0999 V2000
   -4.3770    1.2940   -0.6510 O   0  0  0  0  0  0  0  0  0  0  0  0
   -3.4320    0.4450   -0.1050 C   0  0  1  0  0  0  0  0  0  0  0  0
   -3.7580   -1.0090   -0.4350 C   0  0  2  0  0  0  0  0  0  0  0  0
   -4.9000   -1.4180    0.2090 O   0  0  0  0  0  0  0  0  0  0  0  0
   -2.5610   -1.8910   -0.1610 C   0  0  0  0  0  0  0  0  0  0  0  0
   -1.6280   -1.2780    0.6630 O   0  0  0  0  0  0  0  0  0  0  0  0
   -1.0800   -0.1300    0.1420 C   0  0  1  0  0  0  0  0  0  0  0  0
    0.1140   -0.3480   -0.5300 O   0  0  0  0  0  0  0  0  0  0  0  0
    1.2020    0.2590    0.0600 C   0  0  2  0  0  0  0  0  0  0  0  0
    1.8220    1.1980   -0.9240 C   0  0  0  0  0  0  0  0  0  0  0  0
    3.1270    1.6550   -0.5440 N   0  0  0  0  0  0  0  0  0  0  0  0
    4.0180    0.5240   -0.4130 C   0  0  0  0  0  0  0  0  0  0  0  0
    3.5410   -0.2710    0.8020 C   0  0  2  0  0  0  0  0  0  0  0  0
    4.3830   -1.3760    1.0040 O   0  0  0  0  0  0  0  0  0  0  0  0
    2.1830   -0.8370    0.4330 C   0  0  1  0  0  0  0  0  0  0  0  0
    1.7210   -1.5850    1.5090 O   0  0  0  0  0  0  0  0  0  0  0  0
   -2.0500    0.6980   -0.6710 C   0  0  2  0  0  0  0  0  0  0  0  0
   -1.7730    2.0500   -0.4930 O   0  0  0  0  0  0  0  0  0  0  0  0
  2  1  1  6
  2  3  1  0
  2 17  1  0
  3  4  1  1
  3  5  1  0
  5  6  1  0
  6  7  1  0
  7  8  1  6
  7 17  1  0
  9  8  1  6
  9 10  1  0
  9 15  1  0
 10 11  1  0
 11 12  1  0
 12 13  1  0
 13 14  1  6
 13 15  1  0
 15 16  1  1
 17 18  1  1
M  CHG  1  11   1
M  END
