
     RDKit          3D

 13 14  0  0  0  0  0  0  0  0999 V2000
    4.3150   -1.0830   -0.9090 O   0  0  0  0  0  0  0  0  0  0  0  0
    3.1250   -0.6320   -0.3480 C   0  0  0  0  0  0  0  0  0  0  0  0
    3.0870    0.0590    0.8480 C   0  0  0  0  0  0  0  0  0  0  0  0
    1.8870    0.5020    1.3930 C   0  0  0  0  0  0  0  0  0  0  0  0
    0.6970    0.2590    0.7430 C   0  0  0  0  0  0  0  0  0  0  0  0
   -0.5120    0.7000    1.2820 O   0  0  0  0  0  0  0  0  0  0  0  0
   -1.6850    0.4170    0.5670 C   0  0  0  0  0  0  0  0  0  0  0  0
   -1.8030   -0.6250   -0.1620 N   0  0  0  0  0  0  0  0  0  0  0  0
   -3.1210   -0.6170   -0.7540 C   0  0  0  0  0  0  0  0  0  0  0  0
   -3.7670    0.6080   -0.2530 C   0  0  0  0  0  0  0  0  0  0  0  0
   -2.9090    1.2270    0.5370 C   0  0  0  0  0  0  0  0  0  0  0  0
    0.7570   -0.4140   -0.4180 N   0  0  0  0  0  0  0  0  0  0  0  0
    1.9060   -0.8530   -0.9650 C   0  0  0  0  0  0  0  0  0  0  0  0
  1  2  1  0
  2  3  2  0
  2 13  1  0
  3  4  1  0
  4  5  2  0
  5  6  1  0
  5 12  1  0
  6  7  1  0
  7  8  2  0
  7 11  1  0
  8  9  1  0
  9 10  1  0
 10 11  2  0
 12 13  2  0
M  END
