
     RDKit          3D

 13 14  0  0  0  0  0  0  0  0999 V2000
    1.7130   -0.5590    2.1560 O   0  0  0  0  0  0  0  0  0  0  0  0
    2.1020   -0.1460    1.0280 C   0  0  0  0  0  0  0  0  0  0  0  0
    3.4160    0.1170    0.6720 C   0  0  0  0  0  0  0  0  0  0  0  0
    3.3580    0.5400   -0.6390 C   0  0  0  0  0  0  0  0  0  0  0  0
    2.0560    0.5220   -1.0220 N   0  0  0  0  0  0  0  0  0  0  0  0
    1.3040    0.1100   -0.0200 N   0  0  0  0  0  0  0  0  0  0  0  0
   -0.1060   -0.0370   -0.0510 C   0  0  0  0  0  0  0  0  0  0  0  0
   -0.9260    0.8940   -0.6730 C   0  0  0  0  0  0  0  0  0  0  0  0
   -2.2970    0.7480   -0.7000 C   0  0  0  0  0  0  0  0  0  0  0  0
   -2.8940   -0.3410   -0.1020 C   0  0  0  0  0  0  0  0  0  0  0  0
   -4.2770   -0.5120   -0.1160 O   0  0  0  0  0  0  0  0  0  0  0  0
   -2.0860   -1.2680    0.5170 C   0  0  0  0  0  0  0  0  0  0  0  0
   -0.7130   -1.1330    0.5510 C   0  0  0  0  0  0  0  0  0  0  0  0
  1  2  2  0
  2  3  1  0
  2  6  1  0
  3  4  2  0
  4  5  1  0
  5  6  1  0
  6  7  1  0
  7  8  2  0
  7 13  1  0
  8  9  1  0
  9 10  2  0
 10 11  1  0
 10 12  1  0
 12 13  2  0
M  END
