
     RDKit          3D

 13 14  0  0  0  0  0  0  0  0999 V2000
    4.4700   -0.6180    0.6820 O   0  0  0  0  0  0  0  0  0  0  0  0
    3.2350   -0.5000    0.5080 C   0  0  0  0  0  0  0  0  0  0  0  0
    2.7280    0.7210    0.2700 N   0  0  0  0  0  0  0  0  0  0  0  0
    1.4270    0.9630    0.0700 C   0  0  0  0  0  0  0  0  0  0  0  0
    0.5580   -0.1320    0.1150 C   0  0  0  0  0  0  0  0  0  0  0  0
   -0.8620    0.1140   -0.1010 C   0  0  0  0  0  0  0  0  0  0  0  0
   -1.3840    1.3000   -0.3360 C   0  0  0  0  0  0  0  0  0  0  0  0
   -2.8450    1.1100   -0.4950 C   0  0  0  0  0  0  0  0  0  0  0  0
   -3.0610   -0.3340   -0.3180 C   0  0  0  0  0  0  0  0  0  0  0  0
   -1.8820   -0.9040   -0.0870 C   0  0  0  0  0  0  0  0  0  0  0  0
    1.0690   -1.3890    0.3580 C   0  0  0  0  0  0  0  0  0  0  0  0
    0.3300   -2.4040    0.4080 O   0  0  0  0  0  0  0  0  0  0  0  0
    2.3940   -1.5440    0.5490 N   0  0  0  0  0  0  0  0  0  0  0  0
  1  2  2  0
  2  3  1  0
  2 13  1  0
  3  4  1  0
  4  5  2  0
  5  6  1  0
  5 11  1  0
  6  7  2  0
  6 10  1  0
  7  8  1  0
  8  9  1  0
  9 10  2  0
 11 12  2  0
 11 13  1  0
M  END
