
     RDKit          3D

 12 13  0  0  0  0  0  0  0  0999 V2000
   -4.1890    0.7940    0.0430 O   0  0  0  0  0  0  0  0  0  0  0  0
   -2.9430    0.5270    0.0400 C   0  0  0  0  0  0  0  0  0  0  0  0
   -2.4550   -0.7180    0.3740 C   0  0  0  0  0  0  0  0  0  0  0  0
   -1.0910   -0.9280    0.3450 C   0  0  0  0  0  0  0  0  0  0  0  0
   -0.2080    0.0720   -0.0070 C   0  0  0  0  0  0  0  0  0  0  0  0
    1.2360   -0.1440   -0.0390 C   0  0  0  0  0  0  0  0  0  0  0  0
    2.2230    0.7620   -0.3710 C   0  0  0  0  0  0  0  0  0  0  0  0
    3.4360    0.1260   -0.2640 C   0  0  0  0  0  0  0  0  0  0  0  0
    3.1940   -1.0920    0.1100 O   0  0  0  0  0  0  0  0  0  0  0  0
    1.9060   -1.3100    0.2600 C   0  0  0  0  0  0  0  0  0  0  0  0
   -0.7420    1.2630   -0.3230 N   0  0  0  0  0  0  0  0  0  0  0  0
   -2.0560    1.4780   -0.2990 N   0  0  0  0  0  0  0  0  0  0  0  0
  1  2  2  0
  2  3  1  0
  2 12  1  0
  3  4  2  0
  4  5  1  0
  5  6  1  0
  5 11  2  0
  6  7  1  0
  6 10  2  0
  7  8  2  0
  8  9  1  0
  9 10  1  0
 11 12  1  0
M  END
