
     RDKit          3D

 13 14  0  0  0  0  0  0  0  0999 V2000
   -1.4360   -1.9700   -0.4830 C   0  0  0  0  0  0  0  0  0  0  0  0
   -1.5630   -0.5170   -0.2150 C   0  0  0  0  0  0  0  0  0  0  0  0
   -2.7540    0.0940   -0.2120 O   0  0  0  0  0  0  0  0  0  0  0  0
   -2.6360    1.3650    0.0460 C   0  0  0  0  0  0  0  0  0  0  0  0
   -3.6370    2.3360    0.1370 O   0  0  0  0  0  0  0  0  0  0  0  0
   -1.2890    1.5860    0.2190 C   0  0  0  0  0  0  0  0  0  0  0  0
   -0.5870    0.3800    0.0530 C   0  0  0  0  0  0  0  0  0  0  0  0
    0.8480    0.2380    0.1750 C   0  0  0  0  0  0  0  0  0  0  0  0
    1.5610   -0.8860   -0.0510 C   0  0  0  0  0  0  0  0  0  0  0  0
    2.9530   -0.8880    0.0950 C   0  0  0  0  0  0  0  0  0  0  0  0
    3.6010    0.2510    0.4690 C   0  0  0  0  0  0  0  0  0  0  0  0
    2.8690    1.3520    0.6870 N   0  0  0  0  0  0  0  0  0  0  0  0
    1.5820    1.3440    0.5490 N   0  0  0  0  0  0  0  0  0  0  0  0
  1  2  1  0
  2  3  1  0
  2  7  2  0
  3  4  1  0
  4  5  1  0
  4  6  2  0
  6  7  1  0
  7  8  1  0
  8  9  2  0
  8 13  1  0
  9 10  1  0
 10 11  2  0
 11 12  1  0
 12 13  2  0
M  END
