
     RDKit          3D

 13 14  0  0  0  0  0  0  0  0999 V2000
   -4.1730   -0.0270   -0.3980 O   0  0  0  0  0  0  0  0  0  0  0  0
   -2.7870   -0.0960   -0.2660 C   0  0  0  0  0  0  0  0  0  0  0  0
   -2.1440   -1.3030   -0.1020 C   0  0  0  0  0  0  0  0  0  0  0  0
   -0.7570   -1.3770    0.0310 C   0  0  0  0  0  0  0  0  0  0  0  0
   -0.0630   -0.1860   -0.0090 C   0  0  0  0  0  0  0  0  0  0  0  0
    1.3700   -0.1360    0.1180 N   0  0  0  0  0  0  0  0  0  0  0  0
    2.1000   -0.2550    1.2410 C   0  0  0  0  0  0  0  0  0  0  0  0
    3.4480   -0.1550    0.9680 C   0  0  0  0  0  0  0  0  0  0  0  0
    3.5490    0.0360   -0.3930 C   0  0  0  0  0  0  0  0  0  0  0  0
    2.2660    0.0410   -0.8700 C   0  0  0  0  0  0  0  0  0  0  0  0
   -0.7330    0.9820   -0.1720 N   0  0  0  0  0  0  0  0  0  0  0  0
   -2.0590    1.0520   -0.2990 C   0  0  0  0  0  0  0  0  0  0  0  0
   -2.6510    2.2970   -0.4610 O   0  0  0  0  0  0  0  0  0  0  0  0
  1  2  1  0
  2  3  2  0
  2 12  1  0
  3  4  1  0
  4  5  2  0
  5  6  1  0
  5 11  1  0
  6  7  1  0
  6 10  1  0
  7  8  2  0
  8  9  1  0
  9 10  2  0
 11 12  2  0
 12 13  1  0
M  END
