
     RDKit          3D

 19 20  0  0  0  0  0  0  0  0999 V2000
   -1.9100   -1.8050    0.6690 C   0  0  0  0  0  0  0  0  0  0  0  0
   -2.1990   -0.9010   -0.5360 C   0  0  1  0  0  0  0  0  0  0  0  0
   -2.9670   -1.7620   -1.5210 C   0  0  0  0  0  0  0  0  0  0  0  0
   -3.1320    0.2100   -0.1050 C   0  0  0  0  0  0  0  0  0  0  0  0
   -2.4450    1.0930    0.7570 N   0  0  0  0  0  0  0  0  0  0  0  0
   -1.1160    1.4790    0.3670 C   0  0  2  0  0  0  0  0  0  0  0  0
   -1.2690    2.9220   -0.1180 C   0  0  0  0  0  0  0  0  0  0  0  0
   -1.7610    3.6590    0.9790 O   0  0  0  0  0  0  0  0  0  0  0  0
   -0.4700    0.6770   -0.6810 C   0  0  1  0  0  0  0  0  0  0  0  0
    0.9540    0.3060   -0.4160 C   0  0  0  0  0  0  0  0  0  0  0  0
    1.2930   -0.8800   -0.7220 O   0  0  0  0  0  0  0  0  0  0  0  0
    1.8880    1.1810    0.1340 N   0  0  0  0  0  0  0  0  0  0  0  0
    3.2070    0.9020    0.3870 N   0  0  0  0  0  0  0  0  0  0  0  0
    3.7980   -0.3670    0.3680 C   0  0  0  0  0  0  0  0  0  0  0  0
    3.2580   -1.4310    0.8740 N   0  0  0  0  0  0  0  0  0  0  0  0
    4.1610   -2.5410    0.6620 C   0  0  0  0  0  0  0  0  0  0  0  0
    5.2490   -2.0710   -0.0330 O   0  0  0  0  0  0  0  0  0  0  0  0
    5.0840   -0.7490   -0.1810 N   0  0  0  0  0  0  0  0  0  0  0  0
   -1.0910   -0.4330   -1.1530 O   0  0  0  0  0  0  0  0  0  0  0  0
  2  1  1  1
  2  3  1  0
  2  4  1  0
  2 19  1  0
  4  5  1  0
  5  6  1  0
  6  7  1  6
  6  9  1  0
  7  8  1  0
  9 10  1  1
  9 19  1  0
 10 11  2  0
 10 12  1  0
 12 13  1  0
 13 14  1  0
 14 15  2  0
 14 18  1  0
 15 16  1  0
 16 17  1  0
 17 18  1  0
M  END
