
     RDKit          3D

 19 20  0  0  0  0  0  0  0  0999 V2000
   -4.3890   -1.8540    0.5110 N   0  0  0  0  0  0  0  0  0  0  0  0
   -4.9220   -0.5540    0.1560 C   0  0  2  0  0  0  0  0  0  0  0  0
   -3.9350    0.0590   -0.8340 C   0  0  0  0  0  0  0  0  0  0  0  0
   -2.7040    0.1460    0.0860 C   0  0  1  0  0  0  0  0  0  0  0  0
   -1.7360    1.0590   -0.4070 N   0  0  0  0  0  0  0  0  0  0  0  0
   -0.4590    0.5920   -0.7890 C   0  0  0  0  0  0  0  0  0  0  0  0
   -0.1410   -0.6360   -0.7050 O   0  0  0  0  0  0  0  0  0  0  0  0
    0.5580    1.4650   -1.2930 N   0  0  0  0  0  0  0  0  0  0  0  0
    1.8130    0.9890   -1.6660 N   0  0  0  0  0  0  0  0  0  0  0  0
    2.7460    0.3940   -0.7750 C   0  0  0  0  0  0  0  0  0  0  0  0
    3.3220    1.0940    0.1620 C   0  0  0  0  0  0  0  0  0  0  0  0
    4.2960    0.6330    1.1510 C   0  0  0  0  0  0  0  0  0  0  0  0
    4.8730   -0.7210    0.8510 C   0  0  0  0  0  0  0  0  0  0  0  0
    4.0250   -1.5360    0.0370 N   0  0  0  0  0  0  0  0  0  0  0  0
    3.0840   -1.0230   -0.8910 C   0  0  0  0  0  0  0  0  0  0  0  0
    2.5600   -1.7260   -1.7670 O   0  0  0  0  0  0  0  0  0  0  0  0
   -3.3560    0.5620    1.3460 C   0  0  0  0  0  0  0  0  0  0  0  0
   -2.7970    1.0770    2.3420 O   0  0  0  0  0  0  0  0  0  0  0  0
   -4.7230    0.3010    1.2840 O   0  0  0  0  0  0  0  0  0  0  0  0
  2  1  1  1
  2  3  1  0
  2 19  1  0
  3  4  1  0
  4  5  1  6
  4 17  1  0
  5  6  1  0
  6  7  2  0
  6  8  1  0
  8  9  1  0
  9 10  1  0
 10 11  2  0
 10 15  1  0
 11 12  1  0
 12 13  1  0
 13 14  1  0
 14 15  1  0
 15 16  2  0
 17 18  2  0
 17 19  1  0
M  END
