
     RDKit          3D

 19 20  0  0  0  0  0  0  0  0999 V2000
    4.9230    1.0490   -0.0200 C   0  0  0  0  0  0  0  0  0  0  0  0
    4.3080   -0.3260    0.1040 C   0  0  1  0  0  0  0  0  0  0  0  0
    4.3700   -0.7350    1.5270 N   0  0  0  0  0  0  0  0  0  0  0  0
    2.9420   -0.3330   -0.3440 C   0  0  0  0  0  0  0  0  0  0  0  0
    2.4730   -0.2680   -1.5010 O   0  0  0  0  0  0  0  0  0  0  0  0
    1.9060   -0.4260    0.6100 N   0  0  0  0  0  0  0  0  0  0  0  0
    0.5440   -0.3620    0.3000 C   0  0  0  0  0  0  0  0  0  0  0  0
   -0.1190   -1.1710    0.9790 N   0  0  0  0  0  0  0  0  0  0  0  0
   -1.4120   -1.3190    0.8660 O   0  0  0  0  0  0  0  0  0  0  0  0
   -2.2210   -0.5800   -0.0040 C   0  0  1  0  0  0  0  0  0  0  0  0
   -2.1530   -1.2860   -1.3590 C   0  0  0  0  0  0  0  0  0  0  0  0
   -3.6400   -0.5070    0.3940 C   0  0  1  0  0  0  0  0  0  0  0  0
   -3.9570    0.1030    1.7190 C   0  0  0  0  0  0  0  0  0  0  0  0
   -4.2160    1.3750    1.1110 N   0  0  0  0  0  0  0  0  0  0  0  0
   -4.2710    0.7430   -0.1600 C   0  0  0  0  0  0  0  0  0  0  0  0
   -4.6900    1.1130   -1.2860 O   0  0  0  0  0  0  0  0  0  0  0  0
   -1.6310    0.7720   -0.1010 N   0  0  0  0  0  0  0  0  0  0  0  0
   -0.2340    0.7540   -0.3260 C   0  0  0  0  0  0  0  0  0  0  0  0
    0.3900    1.5680   -0.9670 O   0  0  0  0  0  0  0  0  0  0  0  0
  2  1  1  1
  2  3  1  0
  2  4  1  0
  4  5  2  0
  4  6  1  0
  6  7  1  0
  7  8  2  0
  7 18  1  0
  8  9  1  0
  9 10  1  0
 10 11  1  6
 10 12  1  0
 10 17  1  0
 12 13  1  1
 12 15  1  0
 13 14  1  0
 14 15  1  0
 15 16  2  0
 17 18  1  0
 18 19  2  0
M  END
