
     RDKit          3D

 19 20  0  0  0  0  0  0  0  0999 V2000
    0.5920   -0.3500    2.0610 C   0  0  0  0  0  0  0  0  0  0  0  0
    0.7190   -0.6030    0.5780 C   0  0  1  0  0  0  0  0  0  0  0  0
   -0.1360    0.2630   -0.1970 N   0  0  0  0  0  0  0  0  0  0  0  0
   -1.5650    0.2360   -0.0040 C   0  0  0  0  0  0  0  0  0  0  0  0
   -2.3190    1.2370   -0.3910 C   0  0  0  0  0  0  0  0  0  0  0  0
   -3.7780    1.2650   -0.2200 C   0  0  1  0  0  0  0  0  0  0  0  0
   -4.3670    1.3630   -1.5590 N   0  0  0  0  0  0  0  0  0  0  0  0
   -4.2450    0.1170    0.3920 O   0  0  0  0  0  0  0  0  0  0  0  0
   -3.4900   -0.9320    0.8020 C   0  0  0  0  0  0  0  0  0  0  0  0
   -2.1770   -0.9230    0.6320 C   0  0  0  0  0  0  0  0  0  0  0  0
    2.0980   -0.4480    0.2000 N   0  0  0  0  0  0  0  0  0  0  0  0
    2.7110    0.7020    0.4410 N   0  0  0  0  0  0  0  0  0  0  0  0
    3.9910    0.8800    0.1020 C   0  0  0  0  0  0  0  0  0  0  0  0
    4.5380    2.0000    0.3520 O   0  0  0  0  0  0  0  0  0  0  0  0
    4.6780   -0.1170   -0.4930 N   0  0  0  0  0  0  0  0  0  0  0  0
    4.0860   -1.2920   -0.7490 C   0  0  0  0  0  0  0  0  0  0  0  0
    4.7140   -2.2380   -1.3060 O   0  0  0  0  0  0  0  0  0  0  0  0
    2.7600   -1.4480   -0.3880 C   0  0  0  0  0  0  0  0  0  0  0  0
    2.1860   -2.5390   -0.6190 O   0  0  0  0  0  0  0  0  0  0  0  0
  2  1  1  1
  2  3  1  0
  2 11  1  0
  3  4  1  0
  4  5  2  0
  4 10  1  0
  5  6  1  0
  6  7  1  6
  6  8  1  0
  8  9  1  0
  9 10  2  0
 11 12  1  0
 11 18  1  0
 12 13  1  0
 13 14  2  0
 13 15  1  0
 15 16  1  0
 16 17  2  0
 16 18  1  0
 18 19  2  0
M  END
