
     RDKit          3D

 19 20  0  0  0  0  0  0  0  0999 V2000
    3.4180    0.9440    2.1760 C   0  0  0  0  0  0  0  0  0  0  0  0
    2.8870    0.6030    0.9890 C   0  0  0  0  0  0  0  0  0  0  0  0
    3.7210    0.8490   -0.1860 C   0  0  0  0  0  0  0  0  0  0  0  0
    1.5580    0.0350    0.9980 C   0  0  0  0  0  0  0  0  0  0  0  0
    0.8100   -0.3800    0.0130 C   0  0  0  0  0  0  0  0  0  0  0  0
    1.0810   -0.4070   -1.4530 C   0  0  0  0  0  0  0  0  0  0  0  0
    1.0150   -1.7200   -1.9400 O   0  0  0  0  0  0  0  0  0  0  0  0
   -0.4580   -0.8810    0.5700 C   0  0  2  0  0  0  0  0  0  0  0  0
   -0.6590   -2.2550    0.3450 O   0  0  0  0  0  0  0  0  0  0  0  0
   -1.6330   -0.0740    0.1490 C   0  0  1  0  0  0  0  0  0  0  0  0
   -2.0300   -0.2720   -1.2220 N   0  0  0  0  0  0  0  0  0  0  0  0
   -3.1140    0.5540   -1.6990 C   0  0  0  0  0  0  0  0  0  0  0  0
   -3.1180    0.8710   -2.9020 O   0  0  0  0  0  0  0  0  0  0  0  0
   -4.1150    0.9570   -0.7560 N   0  0  0  0  0  0  0  0  0  0  0  0
   -3.9570    0.5060    0.5830 C   0  0  0  0  0  0  0  0  0  0  0  0
   -4.7890    0.8030    1.4960 O   0  0  0  0  0  0  0  0  0  0  0  0
   -2.8370   -0.3100    0.9470 N   0  0  0  0  0  0  0  0  0  0  0  0
   -0.3050   -0.6750    2.0140 N   0  0  0  0  0  0  0  0  0  0  0  0
    0.7950   -0.1790    2.2210 N   0  0  0  0  0  0  0  0  0  0  0  0
  1  2  2  0
  2  3  1  0
  2  4  1  0
  4  5  2  0
  4 19  1  0
  5  6  1  0
  5  8  1  0
  6  7  1  0
  8  9  1  1
  8 10  1  0
  8 18  1  0
 10 11  1  6
 10 17  1  0
 11 12  1  0
 12 13  2  0
 12 14  1  0
 14 15  1  0
 15 16  2  0
 15 17  1  0
 18 19  2  0
M  END
