
     RDKit          3D

 17 18  0  0  0  0  0  0  0  0999 V2000
   -2.8580   -0.5410   -1.5880 O   0  0  0  0  0  0  0  0  0  0  0  0
   -3.1980    0.4280   -0.6280 C   0  0  1  0  0  0  0  0  0  0  0  0
   -3.8940   -0.3250    0.4960 C   0  0  2  0  0  0  0  0  0  0  0  0
   -4.1810    0.6260    1.4920 O   0  0  0  0  0  0  0  0  0  0  0  0
   -2.9160   -1.3430    1.0230 C   0  0  0  0  0  0  0  0  0  0  0  0
   -1.7340   -1.3880    0.2950 O   0  0  0  0  0  0  0  0  0  0  0  0
   -1.0430   -0.1990    0.3090 C   0  0  1  0  0  0  0  0  0  0  0  0
    0.0120   -0.3350   -0.6220 O   0  0  0  0  0  0  0  0  0  0  0  0
    1.2250   -0.1160    0.0160 C   0  0  2  0  0  0  0  0  0  0  0  0
    1.8130    1.1520   -0.6160 C   0  0  0  0  0  0  0  0  0  0  0  0
    3.1120    1.4170    0.0980 C   0  0  0  0  0  0  0  0  0  0  0  0
    4.0690    0.3630   -0.1810 N   0  0  0  0  0  0  0  0  0  0  0  0
    3.4850   -0.7740   -0.8320 C   0  0  0  0  0  0  0  0  0  0  0  0
    2.2030   -1.2440   -0.1880 C   0  0  1  0  0  0  0  0  0  0  0  0
    2.5400   -1.8630    1.0150 O   0  0  0  0  0  0  0  0  0  0  0  0
   -1.9160    0.9820   -0.0690 C   0  0  2  0  0  0  0  0  0  0  0  0
   -2.2150    1.7920    1.0050 O   0  0  0  0  0  0  0  0  0  0  0  0
  2  1  1  6
  2  3  1  0
  2 16  1  0
  3  4  1  1
  3  5  1  0
  5  6  1  0
  6  7  1  0
  7  8  1  6
  7 16  1  0
  9  8  1  6
  9 10  1  0
  9 14  1  0
 10 11  1  0
 11 12  1  0
 12 13  1  0
 13 14  1  0
 14 15  1  1
 16 17  1  1
M  CHG  1  12   1
M  END
