
     RDKit          3D

 19 20  0  0  0  0  0  0  0  0999 V2000
   -2.0960    2.5460   -0.4640 N   0  0  0  0  0  0  0  0  0  0  0  0
   -3.0800    1.5340   -0.3470 C   0  0  0  0  0  0  0  0  0  0  0  0
   -4.2760    1.8730   -0.5420 O   0  0  0  0  0  0  0  0  0  0  0  0
   -2.7320    0.1810   -0.0210 C   0  0  0  0  0  0  0  0  0  0  0  0
   -1.4650   -0.1350    0.1760 C   0  0  0  0  0  0  0  0  0  0  0  0
   -0.3850    0.7870    0.0890 N   0  0  0  0  0  0  0  0  0  0  0  0
    0.5900    0.6420   -0.9300 C   0  0  0  0  0  0  0  0  0  0  0  0
    1.8580    0.3840   -0.6890 C   0  0  0  0  0  0  0  0  0  0  0  0
    2.8240    0.2410   -1.7160 N   0  0  0  0  0  0  0  0  0  0  0  0
    4.0650   -0.0110   -1.4900 C   0  0  0  0  0  0  0  0  0  0  0  0
    4.6340   -0.1810   -0.1380 C   0  0  0  0  0  0  0  0  0  0  0  0
    3.6610   -0.0390    0.9210 N   0  0  0  0  0  0  0  0  0  0  0  0
    2.2850    0.2390    0.6970 C   0  0  0  0  0  0  0  0  0  0  0  0
    1.4710    0.3550    1.6640 O   0  0  0  0  0  0  0  0  0  0  0  0
   -1.1310   -1.4540    0.4940 O   0  0  0  0  0  0  0  0  0  0  0  0
   -2.0870   -2.3110    1.1310 C   0  0  0  0  0  0  0  0  0  0  0  0
   -3.3760   -2.1370    0.4120 C   0  0  0  0  0  0  0  0  0  0  0  0
   -4.1070   -3.1370    0.0950 O   0  0  0  0  0  0  0  0  0  0  0  0
   -3.7690   -0.8090    0.0860 N   0  0  0  0  0  0  0  0  0  0  0  0
  1  2  1  0
  2  3  2  0
  2  4  1  0
  4  5  2  0
  4 19  1  0
  5  6  1  0
  5 15  1  0
  6  7  1  0
  7  8  2  3
  8  9  1  0
  8 13  1  0
  9 10  2  0
 10 11  1  0
 11 12  1  0
 12 13  1  0
 13 14  2  0
 15 16  1  0
 16 17  1  0
 17 18  2  0
 17 19  1  0
M  END
