
     RDKit          3D

 19 20  0  0  0  0  0  0  0  0999 V2000
   -1.2040   -1.4660   -0.3550 C   0  0  0  0  0  0  0  0  0  0  0  0
   -1.9250   -0.4510    0.1860 C   0  0  0  0  0  0  0  0  0  0  0  0
   -3.0520   -0.8430    0.8490 C   0  0  0  0  0  0  0  0  0  0  0  0
   -3.2620   -2.0600    1.1850 O   0  0  0  0  0  0  0  0  0  0  0  0
   -3.9650    0.0930    1.1540 N   0  0  0  0  0  0  0  0  0  0  0  0
   -3.7390    1.3610    0.8000 C   0  0  0  0  0  0  0  0  0  0  0  0
   -4.6030    2.2370    1.0840 O   0  0  0  0  0  0  0  0  0  0  0  0
   -2.6430    1.7530    0.1600 N   0  0  0  0  0  0  0  0  0  0  0  0
   -1.6410    0.8200   -0.1840 C   0  0  0  0  0  0  0  0  0  0  0  0
   -0.5130    1.3410   -0.4760 C   0  0  0  0  0  0  0  0  0  0  0  0
    0.8870    1.1960   -0.5950 C   0  0  0  0  0  0  0  0  0  0  0  0
    1.7980    0.3850   -0.2070 C   0  0  0  0  0  0  0  0  0  0  0  0
    1.7020   -0.7720    0.5950 N   0  0  0  0  0  0  0  0  0  0  0  0
    2.7510   -1.6810    0.8820 C   0  0  0  0  0  0  0  0  0  0  0  0
    2.5620   -2.6670    1.5940 O   0  0  0  0  0  0  0  0  0  0  0  0
    4.0180   -1.4260    0.3300 N   0  0  0  0  0  0  0  0  0  0  0  0
    4.2010   -0.3050   -0.4690 N   0  0  0  0  0  0  0  0  0  0  0  0
    3.1760    0.6240   -0.7780 C   0  0  0  0  0  0  0  0  0  0  0  0
    3.4020    1.6270   -1.5110 O   0  0  0  0  0  0  0  0  0  0  0  0
  1  2  2  0
  2  3  1  0
  2  9  1  0
  3  4  2  0
  3  5  1  0
  5  6  1  0
  6  7  2  0
  6  8  1  0
  8  9  1  0
  9 10  2  3
 10 11  1  0
 11 12  2  3
 12 13  1  0
 12 18  1  0
 13 14  1  0
 14 15  2  0
 14 16  1  0
 16 17  1  0
 17 18  1  0
 18 19  2  0
M  END
