
     RDKit          3D

 19 20  0  0  0  0  0  0  0  0999 V2000
    5.6230    0.3690   -0.4540 N   0  0  0  0  0  0  0  0  0  0  0  0
    5.0450   -0.8190    0.0750 C   0  0  0  0  0  0  0  0  0  0  0  0
    5.5420   -1.4220    1.0490 O   0  0  0  0  0  0  0  0  0  0  0  0
    3.8640   -1.3430   -0.5200 N   0  0  0  0  0  0  0  0  0  0  0  0
    2.7500   -0.7250   -0.3190 C   0  0  0  0  0  0  0  0  0  0  0  0
    1.5200   -1.1710   -0.8710 N   0  0  0  0  0  0  0  0  0  0  0  0
    0.2900   -0.4970   -0.6560 C   0  0  0  0  0  0  0  0  0  0  0  0
   -0.7000   -0.6480   -1.4490 O   0  0  0  0  0  0  0  0  0  0  0  0
    0.1850    0.3970    0.5300 C   0  0  2  0  0  0  0  0  0  0  0  0
   -0.9060    1.2460    0.3230 O   0  0  0  0  0  0  0  0  0  0  0  0
   -2.1760    0.6910    0.1550 C   0  0  0  0  0  0  0  0  0  0  0  0
   -2.4800   -0.5020    0.6580 C   0  0  0  0  0  0  0  0  0  0  0  0
   -3.7580   -1.0520    0.4840 N   0  0  0  0  0  0  0  0  0  0  0  0
   -4.8120   -0.3970   -0.2260 C   0  0  0  0  0  0  0  0  0  0  0  0
   -4.4350    0.9130   -0.7630 C   0  0  0  0  0  0  0  0  0  0  0  0
   -3.2300    1.3830   -0.5750 C   0  0  0  0  0  0  0  0  0  0  0  0
    1.4590    1.1360    0.6970 C   0  0  0  0  0  0  0  0  0  0  0  0
    1.4360    2.3460    1.0240 O   0  0  0  0  0  0  0  0  0  0  0  0
    2.6930    0.4650    0.4840 N   0  0  0  0  0  0  0  0  0  0  0  0
  1  2  1  0
  2  3  2  0
  2  4  1  0
  4  5  2  3
  5  6  1  0
  5 19  1  0
  6  7  1  0
  7  8  2  0
  7  9  1  0
  9 10  1  6
  9 17  1  0
 10 11  1  0
 11 12  2  0
 11 16  1  0
 12 13  1  0
 13 14  1  0
 14 15  1  0
 15 16  2  0
 17 18  2  0
 17 19  1  0
M  END
