
     RDKit          3D

 24 26  0  0  0  0  0  0  0  0999 V2000
    5.0360   -2.2380    1.0790 C   0  0  0  0  0  0  0  0  0  0  0  0
    4.4770   -1.3740    0.1100 O   0  0  0  0  0  0  0  0  0  0  0  0
    5.2140   -0.3090   -0.4330 C   0  0  0  0  0  0  0  0  0  0  0  0
    6.5240   -0.2290   -0.2740 C   0  0  0  0  0  0  0  0  0  0  0  0
    7.2170    0.8300   -0.8210 O   0  0  0  0  0  0  0  0  0  0  0  0
    6.6060    1.8440   -1.5470 C   0  0  0  0  0  0  0  0  0  0  0  0
    5.1460    1.6890   -1.6830 C   0  0  0  0  0  0  0  0  0  0  0  0
    4.4570    0.6920   -1.1740 C   0  0  0  0  0  0  0  0  0  0  0  0
    3.0560    0.6370   -1.3630 N   0  0  0  0  0  0  0  0  0  0  0  0
    2.1460    0.6400   -0.2420 C   0  0  0  0  0  0  0  0  0  0  0  0
    2.6770    0.6950    0.8970 O   0  0  0  0  0  0  0  0  0  0  0  0
    0.7470    0.5850   -0.4370 N   0  0  0  0  0  0  0  0  0  0  0  0
   -0.0660    0.5950    0.7720 C   0  0  0  0  0  0  0  0  0  0  0  0
   -1.4960    0.5330    0.4000 C   0  0  0  0  0  0  0  0  0  0  0  0
   -2.2480    0.4580   -1.1440 S   0  0  0  0  0  0  0  0  0  0  0  0
   -3.9250    0.4160   -0.6220 C   0  0  0  0  0  0  0  0  0  0  0  0
   -3.8010    0.4640    0.7560 C   0  0  0  0  0  0  0  0  0  0  0  0
   -2.5480    0.5240    1.2740 C   0  0  0  0  0  0  0  0  0  0  0  0
   -2.3530    0.5770    2.7060 O   0  0  0  0  0  0  0  0  0  0  0  0
   -5.1440    0.4340    1.2660 O   0  0  0  0  0  0  0  0  0  0  0  0
   -5.8990   -0.2630    0.3020 C   0  0  1  0  0  0  0  0  0  0  0  0
   -5.4640   -1.7130    0.3430 C   0  0  0  0  0  0  0  0  0  0  0  0
   -7.3680   -0.1080    0.4730 C   0  0  0  0  0  0  0  0  0  0  0  0
   -5.3880    0.3440   -0.9910 C   0  0  0  0  0  0  0  0  0  0  0  0
  1  2  1  0
  2  3  1  0
  3  4  2  0
  3  8  1  0
  4  5  1  0
  5  6  1  0
  6  7  1  0
  7  8  2  0
  8  9  1  0
  9 10  1  0
 10 11  2  0
 10 12  1  0
 12 13  1  0
 13 14  1  0
 14 15  1  0
 14 18  2  0
 15 16  1  0
 16 17  2  0
 16 24  1  0
 17 18  1  0
 17 20  1  0
 18 19  1  0
 20 21  1  0
 21 22  1  6
 21 23  1  0
 21 24  1  0
M  END
