
     RDKit          3D

 24 26  0  0  0  0  0  0  0  0999 V2000
    4.0210   -4.4300   -3.0910 C   0  0  0  0  0  0  0  0  0  0  0  0
    3.7790   -3.4720   -2.0630 O   0  0  0  0  0  0  0  0  0  0  0  0
    2.5170   -2.9510   -1.8140 C   0  0  0  0  0  0  0  0  0  0  0  0
    1.5640   -3.3250   -2.5040 O   0  0  0  0  0  0  0  0  0  0  0  0
    2.3060   -1.9600   -0.7410 C   0  0  0  0  0  0  0  0  0  0  0  0
    3.2580   -1.4510    0.1010 C   0  0  0  0  0  0  0  0  0  0  0  0
    2.6540   -0.5400    0.9760 C   0  0  0  0  0  0  0  0  0  0  0  0
    3.2220    0.2130    1.9910 C   0  0  0  0  0  0  0  0  0  0  0  0
    2.3420    1.0210    2.6730 C   0  0  0  0  0  0  0  0  0  0  0  0
    0.9980    1.0650    2.3540 C   0  0  0  0  0  0  0  0  0  0  0  0
   -0.1180    2.0750    3.2000 S   0  0  0  0  0  0  0  0  0  0  0  0
   -1.7010    1.9390    2.6110 C   0  0  0  0  0  0  0  0  0  0  0  0
   -2.6820    2.5900    3.0860 O   0  0  0  0  0  0  0  0  0  0  0  0
   -1.8490    1.0800    1.5900 N   0  0  0  0  0  0  0  0  0  0  0  0
   -3.2400    0.9590    1.0710 C   0  0  0  0  0  0  0  0  0  0  0  0
   -3.4480    1.9610   -0.0130 C   0  0  0  0  0  0  0  0  0  0  0  0
   -4.7780    1.9900   -0.6530 C   0  0  0  0  0  0  0  0  0  0  0  0
   -2.5220    2.7940   -0.4090 C   0  0  0  0  0  0  0  0  0  0  0  0
   -2.7720    3.6970   -1.4140 O   0  0  0  0  0  0  0  0  0  0  0  0
   -0.8880    0.3490    1.0190 C   0  0  0  0  0  0  0  0  0  0  0  0
   -1.3170   -0.3880    0.0600 O   0  0  0  0  0  0  0  0  0  0  0  0
    0.4550    0.3130    1.3460 C   0  0  0  0  0  0  0  0  0  0  0  0
    1.3280   -0.5240    0.6310 C   0  0  0  0  0  0  0  0  0  0  0  0
    1.1440   -1.3750   -0.3920 N   0  0  0  0  0  0  0  0  0  0  0  0
  1  2  1  0
  2  3  1  0
  3  4  2  0
  3  5  1  0
  5  6  2  0
  5 24  1  0
  6  7  1  0
  7  8  2  0
  7 23  1  0
  8  9  1  0
  9 10  2  0
 10 11  1  0
 10 22  1  0
 11 12  1  0
 12 13  2  0
 12 14  1  0
 14 15  1  0
 14 20  1  0
 15 16  1  0
 16 17  1  0
 16 18  2  3
 18 19  1  0
 20 21  2  0
 20 22  1  0
 22 23  2  0
 23 24  1  0
M  END
