
     RDKit          3D

 23 26  0  0  0  0  0  0  0  0999 V2000
   -3.0860    1.9120    1.0480 N   0  0  0  0  0  0  0  0  0  0  0  0
   -3.7430    0.8460    0.3790 C   0  0  0  0  0  0  0  0  0  0  0  0
   -5.0720    0.9020    0.1740 N   0  0  0  0  0  0  0  0  0  0  0  0
   -5.7820   -0.0470   -0.4410 C   0  0  0  0  0  0  0  0  0  0  0  0
   -7.0180    0.0760   -0.5950 O   0  0  0  0  0  0  0  0  0  0  0  0
   -5.1310   -1.1540   -0.8980 C   0  0  0  0  0  0  0  0  0  0  0  0
   -3.7600   -1.2340   -0.6980 C   0  0  0  0  0  0  0  0  0  0  0  0
   -3.0100   -0.2760   -0.0730 C   0  0  0  0  0  0  0  0  0  0  0  0
   -1.6070   -0.5140    0.0150 C   0  0  0  0  0  0  0  0  0  0  0  0
   -0.7770    0.2920    0.5800 O   0  0  0  0  0  0  0  0  0  0  0  0
   -1.1270   -1.7400   -0.5700 C   0  0  0  0  0  0  0  0  0  0  0  0
    0.1000   -2.2100   -0.7220 C   0  0  0  0  0  0  0  0  0  0  0  0
    1.3230   -1.5400   -0.3060 C   0  0  0  0  0  0  0  0  0  0  0  0
    2.2590   -2.1990    0.5020 C   0  0  0  0  0  0  0  0  0  0  0  0
    3.4320   -1.5760    0.8580 C   0  0  0  0  0  0  0  0  0  0  0  0
    3.7140   -0.2880    0.4290 C   0  0  0  0  0  0  0  0  0  0  0  0
    2.8160    0.3910   -0.3670 C   0  0  0  0  0  0  0  0  0  0  0  0
    1.6440   -0.2640   -0.7100 C   0  0  0  0  0  0  0  0  0  0  0  0
    3.0920    1.6820   -0.8020 O   0  0  0  0  0  0  0  0  0  0  0  0
    4.4420    2.1140   -0.7010 C   0  0  0  0  0  0  0  0  0  0  0  0
    4.8970    1.7680    0.6990 C   0  0  0  0  0  0  0  0  0  0  0  0
    4.9070    0.3480    0.7910 O   0  0  0  0  0  0  0  0  0  0  0  0
   -2.6420   -2.5600   -1.1350 S   0  0  0  0  0  0  0  0  0  0  0  0
  1  2  1  0
  2  3  1  0
  2  8  2  0
  3  4  1  0
  4  5  2  0
  4  6  1  0
  6  7  2  0
  7  8  1  0
  7 23  1  0
  8  9  1  0
  9 10  2  0
  9 11  1  0
 11 12  2  3
 11 23  1  0
 12 13  1  0
 13 14  2  0
 13 18  1  0
 14 15  1  0
 15 16  2  0
 16 17  1  0
 16 22  1  0
 17 18  2  0
 17 19  1  0
 19 20  1  0
 20 21  1  0
 21 22  1  0
M  END
