
     RDKit          3D

 15 16  0  0  0  0  0  0  0  0999 V2000
   -0.0640   -2.1180    1.2030 C   0  0  0  0  0  0  0  0  0  0  0  0
   -0.1120   -0.6910    0.7730 C   0  0  2  0  0  0  0  0  0  0  0  0
   -1.3510   -0.1640    0.1280 C   0  0  0  0  0  0  0  0  0  0  0  0
   -2.2370    0.6100    0.7330 C   0  0  0  0  0  0  0  0  0  0  0  0
   -3.4190    1.0850    0.0400 C   0  0  0  0  0  0  0  0  0  0  0  0
   -3.5400   -0.0750   -1.3510 S   0  0  0  0  0  0  0  0  0  0  0  0
   -1.7110   -0.4360   -1.2820 C   0  0  0  0  0  0  0  0  0  0  0  0
    1.1750   -0.1140    0.2960 C   0  0  0  0  0  0  0  0  0  0  0  0
    1.9580    0.6610    1.1170 N   0  0  0  0  0  0  0  0  0  0  0  0
    3.0060    1.3350    0.7530 N   0  0  0  0  0  0  0  0  0  0  0  0
    3.3770    1.2790   -0.5550 C   0  0  0  0  0  0  0  0  0  0  0  0
    4.3910    1.9210   -0.9720 O   0  0  0  0  0  0  0  0  0  0  0  0
    2.6490    0.5340   -1.3810 N   0  0  0  0  0  0  0  0  0  0  0  0
    1.5440   -0.1840   -1.0080 C   0  0  0  0  0  0  0  0  0  0  0  0
    0.9610   -0.8640   -1.8830 O   0  0  0  0  0  0  0  0  0  0  0  0
  2  1  1  6
  2  3  1  0
  2  8  1  0
  3  4  2  0
  3  7  1  0
  4  5  1  0
  5  6  1  0
  6  7  1  0
  8  9  2  0
  8 14  1  0
  9 10  1  0
 10 11  1  0
 11 12  2  0
 11 13  1  0
 13 14  1  0
 14 15  2  0
M  END
