
     RDKit          3D

 24 27  0  0  0  0  0  0  0  0999 V2000
    0.8870   -1.2980   -3.3240 O   0  0  0  0  0  0  0  0  0  0  0  0
   -0.0960   -1.0950   -2.6010 C   0  0  0  0  0  0  0  0  0  0  0  0
   -1.4650   -1.3010   -2.8800 N   0  0  0  0  0  0  0  0  0  0  0  0
   -2.2360   -0.9270   -1.7500 C   0  0  0  0  0  0  0  0  0  0  0  0
   -3.6050   -0.9620   -1.5810 C   0  0  0  0  0  0  0  0  0  0  0  0
   -4.1570   -0.5510   -0.3940 C   0  0  0  0  0  0  0  0  0  0  0  0
   -3.3740   -0.1030    0.6360 C   0  0  0  0  0  0  0  0  0  0  0  0
   -4.1300    0.4160    2.1450 S   0  0  2  0  0  0  0  0  0  0  0  0
   -3.2690    0.0350    3.3170 O   0  0  0  0  0  0  0  0  0  0  0  0
   -5.4460   -0.3290    2.3270 O   0  0  0  0  0  0  0  0  0  0  0  0
   -4.4910    2.0380    2.1050 O   0  0  0  0  0  0  0  0  0  0  0  0
   -1.9910   -0.0640    0.4730 C   0  0  0  0  0  0  0  0  0  0  0  0
   -1.4230   -0.4700   -0.7040 C   0  0  0  0  0  0  0  0  0  0  0  0
   -0.0520   -0.5680   -1.2230 C   0  0  0  0  0  0  0  0  0  0  0  0
    1.0350   -0.2340   -0.5520 C   0  0  0  0  0  0  0  0  0  0  0  0
    2.3500   -0.3630   -1.1420 N   0  0  0  0  0  0  0  0  0  0  0  0
    3.2950    0.0800   -0.1580 C   0  0  0  0  0  0  0  0  0  0  0  0
    4.6770    0.1520   -0.2320 C   0  0  0  0  0  0  0  0  0  0  0  0
    5.3920    0.6170    0.8550 C   0  0  0  0  0  0  0  0  0  0  0  0
    4.7690    1.0140    2.0180 C   0  0  0  0  0  0  0  0  0  0  0  0
    3.3950    0.9330    2.0670 C   0  0  0  0  0  0  0  0  0  0  0  0
    2.6480    0.4650    0.9790 C   0  0  0  0  0  0  0  0  0  0  0  0
    1.2000    0.2860    0.7840 C   0  0  0  0  0  0  0  0  0  0  0  0
    0.4070    0.5640    1.6680 O   0  0  0  0  0  0  0  0  0  0  0  0
  1  2  2  0
  2  3  1  0
  2 14  1  0
  3  4  1  0
  4  5  2  0
  4 13  1  0
  5  6  1  0
  6  7  2  0
  7  8  1  0
  7 12  1  0
  8  9  2  0
  8 10  2  0
  8 11  1  6
 12 13  2  0
 13 14  1  0
 14 15  2  3
 15 16  1  0
 15 23  1  0
 16 17  1  0
 17 18  2  0
 17 22  1  0
 18 19  1  0
 19 20  2  0
 20 21  1  0
 21 22  2  0
 22 23  1  0
 23 24  2  0
M  END
