
     RDKit          3D

 26 28  0  0  0  0  0  0  0  0999 V2000
   -2.2250   -4.2110   -0.2570 C   0  0  0  0  0  0  0  0  0  0  0  0
   -1.7830   -2.8760    0.1950 N   0  0  0  0  0  0  0  0  0  0  0  0
   -2.9440   -2.0310    0.0690 C   0  0  0  0  0  0  0  0  0  0  0  0
   -2.7990   -0.8360    1.0140 C   0  0  2  0  0  0  0  0  0  0  0  0
   -3.9890    0.0280    0.8990 C   0  0  0  0  0  0  0  0  0  0  0  0
   -3.7780    1.4090    0.4480 C   0  0  0  0  0  0  0  0  0  0  0  0
   -2.5970    1.9490    0.2170 C   0  0  0  0  0  0  0  0  0  0  0  0
   -2.7380    3.3670   -0.2260 C   0  0  0  0  0  0  0  0  0  0  0  0
   -4.1300    3.6880    0.2080 C   0  0  0  0  0  0  0  0  0  0  0  0
   -4.7890    2.4100    0.1770 N   0  0  0  0  0  0  0  0  0  0  0  0
   -6.4560    2.1280   -0.1250 S   0  0  1  0  0  0  0  0  0  0  0  0
   -6.8030    2.8290   -1.4290 O   0  0  0  0  0  0  0  0  0  0  0  0
   -6.7520    0.6750   -0.2390 O   0  0  0  0  0  0  0  0  0  0  0  0
   -1.4270    1.1160    0.4070 C   0  0  0  0  0  0  0  0  0  0  0  0
   -0.1800    1.6730    0.2050 C   0  0  0  0  0  0  0  0  0  0  0  0
    0.9060    0.9430    0.4000 N   0  0  0  0  0  0  0  0  0  0  0  0
    0.8830   -0.3460    0.7940 C   0  0  0  0  0  0  0  0  0  0  0  0
    2.0640   -1.1750    1.0190 C   0  0  0  0  0  0  0  0  0  0  0  0
    3.3660   -0.4970    0.7790 C   0  0  0  0  0  0  0  0  0  0  0  0
    3.5780    0.0180   -0.5970 C   0  0  0  0  0  0  0  0  0  0  0  0
    4.9660    0.6720   -0.6290 C   0  0  0  0  0  0  0  0  0  0  0  0
    5.9910   -0.2970   -0.2960 N   0  0  0  0  0  0  0  0  0  0  0  0
    7.2620    0.4010   -0.3490 C   0  0  0  0  0  0  0  0  0  0  0  0
    6.0440   -1.3640   -1.2780 C   0  0  0  0  0  0  0  0  0  0  0  0
   -0.3250   -0.8890    0.9900 N   0  0  0  0  0  0  0  0  0  0  0  0
   -1.4900   -0.1970    0.8080 C   0  0  0  0  0  0  0  0  0  0  0  0
  1  2  1  0
  2  3  1  0
  4  3  1  6
  4  5  1  0
  4 26  1  0
  5  6  1  0
  6  7  2  0
  6 10  1  0
  7  8  1  0
  7 14  1  0
  8  9  1  0
  9 10  1  0
 11 10  1  6
 11 12  2  0
 11 13  2  0
 14 15  2  0
 14 26  1  0
 15 16  1  0
 16 17  2  0
 17 18  1  0
 17 25  1  0
 18 19  1  0
 19 20  1  0
 20 21  1  0
 21 22  1  0
 22 23  1  0
 22 24  1  0
 25 26  2  0
M  CHG  1   2   1
M  END
