
     RDKit          3D

 26 28  0  0  0  0  0  0  0  0999 V2000
    8.3170   -0.0370   -2.3870 C   0  0  0  0  0  0  0  0  0  0  0  0
    7.7890    1.1790   -1.6610 C   0  0  0  0  0  0  0  0  0  0  0  0
    6.6980    0.7420   -0.7110 C   0  0  0  0  0  0  0  0  0  0  0  0
    5.9650    1.5450    0.1260 C   0  0  0  0  0  0  0  0  0  0  0  0
    5.0950    0.7170    0.7950 C   0  0  0  0  0  0  0  0  0  0  0  0
    5.3240   -0.5240    0.3540 N   0  0  0  0  0  0  0  0  0  0  0  0
    6.2710   -0.5080   -0.5360 N   0  0  0  0  0  0  0  0  0  0  0  0
    4.6140   -1.7400    0.8040 C   0  0  0  0  0  0  0  0  0  0  0  0
    3.1830   -1.5000    0.5690 C   0  0  0  0  0  0  0  0  0  0  0  0
    2.4300   -0.4790    0.8770 C   0  0  0  0  0  0  0  0  0  0  0  0
    1.0170   -0.5890    0.4780 C   0  0  0  0  0  0  0  0  0  0  0  0
    0.6170   -1.6510   -0.1310 N   0  0  0  0  0  0  0  0  0  0  0  0
   -0.7110   -1.8530   -0.5570 C   0  0  0  0  0  0  0  0  0  0  0  0
   -1.0560   -2.9010   -1.2090 O   0  0  0  0  0  0  0  0  0  0  0  0
   -1.7480   -0.8480   -0.2570 C   0  0  0  0  0  0  0  0  0  0  0  0
   -1.2030    0.3300    0.4300 C   0  0  0  0  0  0  0  0  0  0  0  0
   -2.1910    1.7340    0.8470 S   0  0  0  0  0  0  0  0  0  0  0  0
   -3.9220    1.6100    0.5030 C   0  0  0  0  0  0  0  0  0  0  0  0
   -4.6780    0.6900    1.4160 C   0  0  0  0  0  0  0  0  0  0  0  0
   -6.1520    0.6170    1.0850 C   0  0  0  0  0  0  0  0  0  0  0  0
   -6.4300    0.1200   -0.3000 C   0  0  0  0  0  0  0  0  0  0  0  0
   -7.8380    0.0530   -0.5950 N   0  0  0  0  0  0  0  0  0  0  0  0
   -8.1570   -1.1700   -1.2820 C   0  0  0  0  0  0  0  0  0  0  0  0
    0.0760    0.4000    0.7480 N   0  0  0  0  0  0  0  0  0  0  0  0
    2.8120    0.6820    1.5310 O   0  0  0  0  0  0  0  0  0  0  0  0
    4.1090    1.1780    1.8080 C   0  0  0  0  0  0  0  0  0  0  0  0
  1  2  1  0
  2  3  1  0
  3  4  1  0
  3  7  2  0
  4  5  2  0
  5  6  1  0
  5 26  1  0
  6  7  1  0
  6  8  1  0
  8  9  1  0
  9 10  2  0
 10 11  1  0
 10 25  1  0
 11 12  2  0
 11 24  1  0
 12 13  1  0
 13 14  2  0
 13 15  1  0
 15 16  1  0
 16 17  1  0
 16 24  2  0
 17 18  1  0
 18 19  1  0
 19 20  1  0
 20 21  1  0
 21 22  1  0
 22 23  1  0
 25 26  1  0
M  CHG  1  22   1
M  END
