
     RDKit          3D

 26 28  0  0  0  0  0  0  0  0999 V2000
   -6.2200   -2.1250    1.0030 C   0  0  0  0  0  0  0  0  0  0  0  0
   -5.2080   -1.4590    1.9150 C   0  0  0  0  0  0  0  0  0  0  0  0
   -4.1750   -0.9160    1.0790 O   0  0  0  0  0  0  0  0  0  0  0  0
   -4.5100    0.0380    0.1220 C   0  0  0  0  0  0  0  0  0  0  0  0
   -5.7970    0.4560   -0.0270 N   0  0  0  0  0  0  0  0  0  0  0  0
   -6.1520    1.3720   -0.9390 C   0  0  0  0  0  0  0  0  0  0  0  0
   -7.5580    1.8430   -1.1160 C   0  0  0  0  0  0  0  0  0  0  0  0
   -5.1550    1.8890   -1.7380 C   0  0  0  0  0  0  0  0  0  0  0  0
   -3.8540    1.4580   -1.5780 C   0  0  0  0  0  0  0  0  0  0  0  0
   -2.9190    1.9040   -2.2860 O   0  0  0  0  0  0  0  0  0  0  0  0
   -3.5380    0.5340   -0.6480 N   0  0  0  0  0  0  0  0  0  0  0  0
   -2.1810    0.0650   -0.4610 C   0  0  0  0  0  0  0  0  0  0  0  0
   -1.4940    0.9310    0.5470 C   0  0  0  0  0  0  0  0  0  0  0  0
   -0.1230    0.3950    0.6860 C   0  0  0  0  0  0  0  0  0  0  0  0
    0.5760   -0.5270    0.2200 N   0  0  0  0  0  0  0  0  0  0  0  0
    1.7800   -0.7760    0.5240 N   0  0  0  0  0  0  0  0  0  0  0  0
    2.3800    0.0280    1.4430 C   0  0  0  0  0  0  0  0  0  0  0  0
    3.7350   -0.0700    1.9360 N   0  0  0  0  0  0  0  0  0  0  0  0
    4.6320   -0.4760    0.8790 C   0  0  0  0  0  0  0  0  0  0  0  0
    5.9090    0.3240    0.8690 C   0  0  0  0  0  0  0  0  0  0  0  0
    6.7690   -0.1480   -0.2350 C   0  0  0  0  0  0  0  0  0  0  0  0
    6.4890   -1.1090   -1.0870 C   0  0  0  0  0  0  0  0  0  0  0  0
    7.5950   -1.3010   -2.0560 C   0  0  0  0  0  0  0  0  0  0  0  0
    8.5820   -0.2750   -1.6200 C   0  0  0  0  0  0  0  0  0  0  0  0
    8.1000    0.3680   -0.5900 C   0  0  0  0  0  0  0  0  0  0  0  0
    1.1080    1.1400    1.8230 S   0  0  0  0  0  0  0  0  0  0  0  0
  1  2  1  0
  2  3  1  0
  3  4  1  0
  4  5  2  0
  4 11  1  0
  5  6  1  0
  6  7  1  0
  6  8  2  0
  8  9  1  0
  9 10  2  0
  9 11  1  0
 11 12  1  0
 12 13  1  0
 13 14  1  0
 14 15  2  0
 14 26  1  0
 15 16  1  0
 16 17  2  0
 17 18  1  0
 17 26  1  0
 18 19  1  0
 19 20  1  0
 20 21  1  0
 21 22  2  0
 21 25  1  0
 22 23  1  0
 23 24  1  0
 24 25  2  0
M  CHG  1  18   1
M  END
