
     RDKit          3D

 28 30  0  0  0  0  0  0  0  0999 V2000
   -1.5400   -3.3240   -0.8910 C   0  0  0  0  0  0  0  0  0  0  0  0
   -1.6940   -2.0760   -0.0340 C   0  0  0  0  0  0  0  0  0  0  0  0
   -1.1880   -0.8920   -0.6750 N   0  0  0  0  0  0  0  0  0  0  0  0
   -2.1600   -0.0930   -1.4780 C   0  0  0  0  0  0  0  0  0  0  0  0
   -2.7170    1.0770   -0.7730 C   0  0  1  0  0  0  0  0  0  0  0  0
   -3.7120    1.8390   -1.6430 C   0  0  0  0  0  0  0  0  0  0  0  0
   -4.6380    2.6960   -0.8110 C   0  0  0  0  0  0  0  0  0  0  0  0
   -5.4190    1.7610    0.0350 C   0  0  0  0  0  0  0  0  0  0  0  0
   -6.6770    1.9070    0.1790 N   0  0  0  0  0  0  0  0  0  0  0  0
   -4.6960    0.7020    0.6730 N   0  0  0  0  0  0  0  0  0  0  0  0
   -5.3780   -0.3760    1.3410 C   0  0  0  0  0  0  0  0  0  0  0  0
   -3.2300    0.8180    0.6030 C   0  0  0  0  0  0  0  0  0  0  0  0
    0.1120   -0.4130   -0.6780 C   0  0  0  0  0  0  0  0  0  0  0  0
    0.2400    0.7380   -1.3210 O   0  0  0  0  0  0  0  0  0  0  0  0
    1.3630   -0.8800   -0.1420 C   0  0  0  0  0  0  0  0  0  0  0  0
    2.5350   -0.1930   -0.2680 C   0  0  0  0  0  0  0  0  0  0  0  0
    2.6740    1.0510   -0.9320 N   0  0  0  0  0  0  0  0  0  0  0  0
    3.6050   -0.8750    0.3360 N   0  0  0  0  0  0  0  0  0  0  0  0
    4.9700   -0.4240    0.3740 C   0  0  0  0  0  0  0  0  0  0  0  0
    6.1170   -0.9210   -0.1260 C   0  0  0  0  0  0  0  0  0  0  0  0
    7.2590   -0.2470    0.0820 C   0  0  0  0  0  0  0  0  0  0  0  0
    7.2420    0.9110    0.7850 C   0  0  0  0  0  0  0  0  0  0  0  0
    8.3300    1.8380    1.1570 C   0  0  0  0  0  0  0  0  0  0  0  0
    5.5430    1.1010    1.1960 S   0  0  0  0  0  0  0  0  0  0  0  0
    3.0980   -2.0720    0.8850 C   0  0  0  0  0  0  0  0  0  0  0  0
    3.7340   -2.9480    1.5030 O   0  0  0  0  0  0  0  0  0  0  0  0
    1.6460   -2.0940    0.5860 C   0  0  0  0  0  0  0  0  0  0  0  0
    0.9280   -3.0490    0.9550 O   0  0  0  0  0  0  0  0  0  0  0  0
  1  2  1  0
  2  3  1  0
  3  4  1  0
  3 13  1  0
  5  4  1  6
  5  6  1  0
  5 12  1  0
  6  7  1  0
  7  8  1  0
  8  9  2  0
  8 10  1  0
 10 11  1  0
 10 12  1  0
 13 14  2  0
 13 15  1  0
 15 16  2  0
 15 27  1  0
 16 17  1  0
 16 18  1  0
 18 19  1  0
 18 25  1  0
 19 20  2  0
 19 24  1  0
 20 21  1  0
 21 22  2  0
 22 23  1  0
 22 24  1  0
 25 26  2  0
 25 27  1  0
 27 28  2  0
M  END
