
     RDKit          3D

 28 30  0  0  0  0  0  0  0  0999 V2000
   -0.7080    0.0230   -1.1550 O   0  0  0  0  0  0  0  0  0  0  0  0
   -0.0580    0.1900   -0.1020 C   0  0  0  0  0  0  0  0  0  0  0  0
    1.3610   -0.0100   -0.0930 N   0  0  0  0  0  0  0  0  0  0  0  0
    2.0480   -0.4070   -1.3090 C   0  0  0  0  0  0  0  0  0  0  0  0
    3.4700   -0.5270   -0.9750 N   0  0  0  0  0  0  0  0  0  0  0  0
    3.5860   -1.5230    0.0490 C   0  0  0  0  0  0  0  0  0  0  0  0
    4.6860   -1.2230    1.0490 C   0  0  0  0  0  0  0  0  0  0  0  0
    5.9750   -1.1280    0.2990 C   0  0  0  0  0  0  0  0  0  0  0  0
    6.2990    0.3440    0.1220 C   0  0  1  0  0  0  0  0  0  0  0  0
    7.9660    0.4340   -0.4920 S   0  0  2  0  0  0  0  0  0  0  0  0
    8.0430   -0.4210   -1.7200 O   0  0  0  0  0  0  0  0  0  0  0  0
    8.8430   -0.2320    0.5500 O   0  0  0  0  0  0  0  0  0  0  0  0
    5.3980    0.9960   -0.8970 C   0  0  0  0  0  0  0  0  0  0  0  0
    3.9310    0.7730   -0.5990 C   0  0  0  0  0  0  0  0  0  0  0  0
   -0.7560    0.5750    1.0600 N   0  0  0  0  0  0  0  0  0  0  0  0
   -2.1080    0.7920    1.1610 N   0  0  0  0  0  0  0  0  0  0  0  0
   -3.0140    0.1590    0.4750 C   0  0  0  0  0  0  0  0  0  0  0  0
   -4.3820    0.5490    0.7430 C   0  0  0  0  0  0  0  0  0  0  0  0
   -4.5840    1.5260    1.6290 C   0  0  0  0  0  0  0  0  0  0  0  0
   -5.8170    2.1350    2.1020 C   0  0  0  0  0  0  0  0  0  0  0  0
   -7.0260    2.1090    1.5370 C   0  0  0  0  0  0  0  0  0  0  0  0
   -7.3840    1.4570    0.3080 N   0  0  0  0  0  0  0  0  0  0  0  0
   -6.7450    0.2590   -0.1620 C   0  0  0  0  0  0  0  0  0  0  0  0
   -7.6430   -0.5230   -0.8730 C   0  0  0  0  0  0  0  0  0  0  0  0
   -7.2530   -1.7340   -1.3820 C   0  0  0  0  0  0  0  0  0  0  0  0
   -5.9420   -2.1470   -1.1640 C   0  0  0  0  0  0  0  0  0  0  0  0
   -5.0390   -1.3800   -0.4600 C   0  0  0  0  0  0  0  0  0  0  0  0
   -5.4490   -0.1560    0.0470 C   0  0  0  0  0  0  0  0  0  0  0  0
  1  2  2  0
  2  3  1  0
  2 15  1  0
  3  4  1  0
  4  5  1  0
  5  6  1  0
  5 14  1  0
  6  7  1  0
  7  8  1  0
  9  8  1  6
 10  9  1  1
  9 13  1  0
 10 11  2  0
 10 12  2  0
 13 14  1  0
 15 16  1  0
 16 17  2  3
 17 18  1  0
 18 19  2  0
 18 28  1  0
 19 20  1  0
 20 21  2  0
 21 22  1  0
 22 23  1  0
 23 24  2  0
 23 28  1  0
 24 25  1  0
 25 26  2  0
 26 27  1  0
 27 28  2  0
M  END
