
     RDKit          3D

 26 28  0  0  0  0  0  0  0  0999 V2000
    8.6800    1.3330    0.3630 C   0  0  0  0  0  0  0  0  0  0  0  0
    7.9130    0.0670    0.2470 C   0  0  0  0  0  0  0  0  0  0  0  0
    8.3540   -1.1880    0.2980 N   0  0  0  0  0  0  0  0  0  0  0  0
    7.3420   -1.9980    0.1530 O   0  0  0  0  0  0  0  0  0  0  0  0
    6.2340   -1.3130    0.0060 C   0  0  0  0  0  0  0  0  0  0  0  0
    4.8900   -1.9280   -0.1830 C   0  0  0  0  0  0  0  0  0  0  0  0
    3.8600   -0.9510   -0.3490 N   0  0  0  0  0  0  0  0  0  0  0  0
    4.0820   -0.0860   -1.4910 C   0  0  0  0  0  0  0  0  0  0  0  0
    2.7400    0.4480   -1.9050 C   0  0  0  0  0  0  0  0  0  0  0  0
    1.8940    0.7010   -0.7580 N   0  0  0  0  0  0  0  0  0  0  0  0
    0.5280    1.0210   -0.9910 C   0  0  0  0  0  0  0  0  0  0  0  0
    0.0690    1.0830   -2.1670 O   0  0  0  0  0  0  0  0  0  0  0  0
   -0.3740    1.2840    0.1390 C   0  0  0  0  0  0  0  0  0  0  0  0
   -1.7610    1.6030   -0.3970 C   0  0  0  0  0  0  0  0  0  0  0  0
   -2.8140    1.9120    1.0490 S   0  0  0  0  0  0  0  0  0  0  0  0
   -3.0200    0.4110    2.0020 C   0  0  0  0  0  0  0  0  0  0  0  0
   -3.8200   -0.6640    1.3060 C   0  0  0  0  0  0  0  0  0  0  0  0
   -5.1540   -0.1730    1.0420 N   0  0  1  0  0  0  0  0  0  0  0  0
   -5.2490    0.6990   -0.0840 C   0  0  0  0  0  0  0  0  0  0  0  0
   -6.5380    0.4350   -0.8830 C   0  0  0  0  0  0  0  0  0  0  0  0
   -6.3370   -0.9500   -1.4740 C   0  0  0  0  0  0  0  0  0  0  0  0
   -6.2660   -1.9090   -0.3100 C   0  0  0  0  0  0  0  0  0  0  0  0
   -6.1300   -1.2440    1.0150 C   0  0  0  0  0  0  0  0  0  0  0  0
    2.3620    0.6470    0.6080 C   0  0  0  0  0  0  0  0  0  0  0  0
    3.6330   -0.1120    0.7970 C   0  0  0  0  0  0  0  0  0  0  0  0
    6.5810   -0.0200    0.0630 N   0  0  0  0  0  0  0  0  0  0  0  0
  1  2  1  0
  2  3  2  0
  2 26  1  0
  3  4  1  0
  4  5  1  0
  5  6  1  0
  5 26  2  0
  6  7  1  0
  7  8  1  0
  7 25  1  0
  8  9  1  0
  9 10  1  0
 10 11  1  0
 10 24  1  0
 11 12  2  0
 11 13  1  0
 13 14  1  0
 14 15  1  0
 15 16  1  0
 16 17  1  0
 18 17  1  6
 18 19  1  0
 18 23  1  0
 19 20  1  0
 20 21  1  0
 21 22  1  0
 22 23  1  0
 24 25  1  0
M  CHG  1  18   1
M  END
