
     RDKit          3D

 26 28  0  0  0  0  0  0  0  0999 V2000
    7.6240    1.0110    0.5700 C   0  0  0  0  0  0  0  0  0  0  0  0
    7.3970   -0.1020   -0.4150 C   0  0  0  0  0  0  0  0  0  0  0  0
    5.9800   -0.6660   -0.2490 C   0  0  0  0  0  0  0  0  0  0  0  0
    5.0370    0.4890   -0.5090 C   0  0  0  0  0  0  0  0  0  0  0  0
    3.6150    0.0700   -0.3790 C   0  0  0  0  0  0  0  0  0  0  0  0
    2.8240   -0.4210   -1.3970 C   0  0  0  0  0  0  0  0  0  0  0  0
    1.5940   -0.7020   -0.9310 N   0  0  0  0  0  0  0  0  0  0  0  0
    1.5990   -0.3930    0.3720 C   0  0  0  0  0  0  0  0  0  0  0  0
    0.4710   -0.5230    1.3350 C   0  0  0  0  0  0  0  0  0  0  0  0
   -0.6650   -1.0550    0.6090 N   0  0  2  0  0  0  0  0  0  0  0  0
   -0.3160   -2.3690    0.1300 C   0  0  0  0  0  0  0  0  0  0  0  0
   -1.1100   -0.1750   -0.4400 C   0  0  0  0  0  0  0  0  0  0  0  0
   -2.4010    0.3990   -0.1860 N   0  0  0  0  0  0  0  0  0  0  0  0
   -2.5820    1.5810    0.4760 C   0  0  0  0  0  0  0  0  0  0  0  0
   -1.5870    2.2160    0.8920 O   0  0  0  0  0  0  0  0  0  0  0  0
   -3.8260    2.0600    0.6780 C   0  0  0  0  0  0  0  0  0  0  0  0
   -4.4520    3.5580    1.4940 S   0  0  0  0  0  0  0  0  0  0  0  0
   -6.2400    3.2090    1.1950 C   0  0  0  0  0  0  0  0  0  0  0  0
   -6.1660    2.0170    0.5220 C   0  0  0  0  0  0  0  0  0  0  0  0
   -5.0090    1.4330    0.2550 C   0  0  0  0  0  0  0  0  0  0  0  0
   -4.7650    0.2510   -0.4030 N   0  0  0  0  0  0  0  0  0  0  0  0
   -5.8650   -0.5420   -0.9150 C   0  0  0  0  0  0  0  0  0  0  0  0
   -6.2560   -1.4990    0.2150 C   0  0  0  0  0  0  0  0  0  0  0  0
   -3.5210   -0.1920   -0.5850 C   0  0  0  0  0  0  0  0  0  0  0  0
   -3.3730   -1.2970   -1.2040 O   0  0  0  0  0  0  0  0  0  0  0  0
    2.8340    0.0800    0.7160 N   0  0  0  0  0  0  0  0  0  0  0  0
  1  2  1  0
  2  3  1  0
  3  4  1  0
  4  5  1  0
  5  6  2  0
  5 26  1  0
  6  7  1  0
  7  8  2  0
  8  9  1  0
  8 26  1  0
  9 10  1  0
 10 11  1  6
 10 12  1  0
 12 13  1  0
 13 14  1  0
 13 24  1  0
 14 15  2  0
 14 16  1  0
 16 17  1  0
 16 20  2  0
 17 18  1  0
 18 19  2  0
 19 20  1  0
 20 21  1  0
 21 22  1  0
 21 24  1  0
 22 23  1  0
 24 25  2  0
M  CHG  1  10   1
M  END
