
     RDKit          3D

 13 13  0  0  0  0  0  0  0  0999 V2000
    3.2670    0.8060   -0.1280 O   0  0  0  0  0  0  0  0  0  0  0  0
    2.1660    0.3520    0.2560 C   0  0  0  0  0  0  0  0  0  0  0  0
    2.1580   -0.4300    1.4040 O   0  0  0  0  0  0  0  0  0  0  0  0
    0.9420    0.6640   -0.5170 C   0  0  2  0  0  0  0  0  0  0  0  0
    1.3130    1.4630   -1.5970 O   0  0  0  0  0  0  0  0  0  0  0  0
    0.0870    1.4980    0.3610 C   0  0  0  0  0  0  0  0  0  0  0  0
   -0.9880    1.1060    0.9880 C   0  0  0  0  0  0  0  0  0  0  0  0
   -1.7200    1.9340    1.7780 F   0  0  0  0  0  0  0  0  0  0  0  0
   -1.4190   -0.3040    0.8260 C   0  0  1  0  0  0  0  0  0  0  0  0
   -2.7960   -0.3970    1.0180 O   0  0  0  0  0  0  0  0  0  0  0  0
   -1.1240   -0.7800   -0.5720 C   0  0  2  0  0  0  0  0  0  0  0  0
   -1.4820   -2.1270   -0.6370 O   0  0  0  0  0  0  0  0  0  0  0  0
    0.2810   -0.5800   -1.0020 C   0  0  0  0  0  0  0  0  0  0  0  0
  1  2  2  0
  2  3  1  0
  2  4  1  0
  4  5  1  6
  4  6  1  0
  4 13  1  0
  6  7  2  0
  7  8  1  0
  7  9  1  0
  9 10  1  6
  9 11  1  0
 11 12  1  1
 11 13  1  0
M  END
