
     RDKit          3D

  9  9  0  0  0  0  0  0  0  0999 V2000
    1.3290   -2.5360   -0.2210 N   0  0  0  0  0  0  0  0  0  0  0  0
    0.3440   -1.5550    0.0550 C   0  0  0  0  0  0  0  0  0  0  0  0
    0.6360   -0.2670    0.0010 C   0  0  0  0  0  0  0  0  0  0  0  0
    1.9100    0.3650   -0.3210 C   0  0  0  0  0  0  0  0  0  0  0  0
    1.7340    1.6880   -0.2510 C   0  0  0  0  0  0  0  0  0  0  0  0
    0.3670    1.9890    0.1120 C   0  0  0  0  0  0  0  0  0  0  0  0
   -0.2800    0.8460    0.2610 C   0  0  0  0  0  0  0  0  0  0  0  0
   -1.7110    0.6520    0.6320 C   0  0  0  0  0  0  0  0  0  0  0  0
   -2.4200   -0.0660   -0.4080 N   0  0  0  0  0  0  0  0  0  0  0  0
  1  2  1  0
  2  3  2  3
  3  4  1  0
  3  7  1  0
  4  5  2  0
  5  6  1  0
  6  7  2  0
  7  8  1  0
  8  9  1  0
M  END
