
     RDKit          3D

  9  9  0  0  0  0  0  0  0  0999 V2000
   -0.9730   -2.0980    0.6590 C   0  0  0  0  0  0  0  0  0  0  0  0
   -0.4320   -1.3760   -0.4800 N   0  0  0  0  0  0  0  0  0  0  0  0
   -0.5130    0.0570   -0.4220 C   0  0  0  0  0  0  0  0  0  0  0  0
   -1.5630    0.8250   -0.6570 C   0  0  0  0  0  0  0  0  0  0  0  0
   -1.2280    2.2370   -0.4900 C   0  0  0  0  0  0  0  0  0  0  0  0
    0.0450    2.3460   -0.1470 C   0  0  0  0  0  0  0  0  0  0  0  0
    0.5740    0.9900   -0.0820 C   0  0  0  0  0  0  0  0  0  0  0  0
    1.8130    0.6500    0.2270 C   0  0  0  0  0  0  0  0  0  0  0  0
    2.2370   -0.6960    0.2640 N   0  0  0  0  0  0  0  0  0  0  0  0
  1  2  1  0
  2  3  1  0
  3  4  2  0
  3  7  1  0
  4  5  1  0
  5  6  2  0
  6  7  1  0
  7  8  2  3
  8  9  1  0
M  END
