
     RDKit          3D

  9  9  0  0  0  0  0  0  0  0999 V2000
    2.8040   -0.1510   -0.6340 C   0  0  0  0  0  0  0  0  0  0  0  0
    2.0620   -0.3420    0.5970 N   0  0  0  0  0  0  0  0  0  0  0  0
    0.6730   -0.1500    0.3520 C   0  0  0  0  0  0  0  0  0  0  0  0
   -0.2260   -0.2540    1.3950 C   0  0  0  0  0  0  0  0  0  0  0  0
   -1.5760   -0.0710    1.1770 C   0  0  0  0  0  0  0  0  0  0  0  0
   -2.0900    0.2200   -0.0710 C   0  0  0  0  0  0  0  0  0  0  0  0
   -3.4860    0.4020   -0.2600 N   0  0  0  0  0  0  0  0  0  0  0  0
   -1.1860    0.3230   -1.1130 C   0  0  0  0  0  0  0  0  0  0  0  0
    0.1650    0.1400   -0.8970 C   0  0  0  0  0  0  0  0  0  0  0  0
  1  2  1  0
  2  3  1  0
  3  4  2  0
  3  9  1  0
  4  5  1  0
  5  6  2  0
  6  7  1  0
  6  8  1  0
  8  9  2  0
M  CHG  1   2   1
M  END
