
     RDKit          3D

  9  9  0  0  0  0  0  0  0  0999 V2000
   -2.1650    1.3520    0.0230 N   0  0  0  0  0  0  0  0  0  0  0  0
   -1.5630    0.0840   -0.2690 C   0  0  0  0  0  0  0  0  0  0  0  0
   -2.2480   -0.8950   -0.7140 N   0  0  0  0  0  0  0  0  0  0  0  0
   -0.1440   -0.0660   -0.0450 C   0  0  0  0  0  0  0  0  0  0  0  0
    0.5640   -1.2230   -0.2810 C   0  0  0  0  0  0  0  0  0  0  0  0
    1.9290   -1.3160   -0.0490 C   0  0  0  0  0  0  0  0  0  0  0  0
    2.5680   -0.2030    0.4310 C   0  0  0  0  0  0  0  0  0  0  0  0
    1.9040    0.9730    0.6810 C   0  0  0  0  0  0  0  0  0  0  0  0
    0.5600    1.0430    0.4460 C   0  0  0  0  0  0  0  0  0  0  0  0
  1  2  1  0
  2  3  2  0
  2  4  1  0
  4  5  2  0
  4  9  1  0
  5  6  1  0
  6  7  2  0
  7  8  1  0
  8  9  2  0
M  CHG  1   3   1
M  END
