
     RDKit          3D

  9 10  0  0  0  0  0  0  0  0999 V2000
    2.4000    1.4310    0.4210 N   0  0  0  0  0  0  0  0  0  0  0  0
    1.6990    0.1860    0.3430 C   0  0  2  0  0  0  0  0  0  0  0  0
    1.5260   -0.3120   -1.0890 C   0  0  0  0  0  0  0  0  0  0  0  0
    0.5000   -1.4090   -0.8230 C   0  0  0  0  0  0  0  0  0  0  0  0
   -0.4150   -0.8340    0.1370 N   0  0  0  0  0  0  0  0  0  0  0  0
   -1.6700   -0.5120   -0.4920 C   0  0  1  0  0  0  0  0  0  0  0  0
   -2.8780   -0.7320    0.4020 C   0  0  0  0  0  0  0  0  0  0  0  0
   -2.4800    0.6520   -0.0910 C   0  0  0  0  0  0  0  0  0  0  0  0
    0.2360    0.2940    0.7460 C   0  0  0  0  0  0  0  0  0  0  0  0
  2  1  1  6
  2  3  1  0
  2  9  1  0
  3  4  1  0
  4  5  1  0
  6  5  1  1
  5  9  1  0
  6  7  1  0
  6  8  1  0
  7  8  1  0
M  CHG  1   1   1
M  END
