
     RDKit          3D

 23 26  0  0  0  0  0  0  0  0999 V2000
    2.2070    2.1660   -3.6750 C   0  0  0  0  0  0  0  0  0  0  0  0
    1.7250    0.9580   -3.1170 O   0  0  0  0  0  0  0  0  0  0  0  0
    1.2280    0.9060   -1.8210 C   0  0  0  0  0  0  0  0  0  0  0  0
    1.2370    1.9770   -1.1980 O   0  0  0  0  0  0  0  0  0  0  0  0
    0.7230   -0.3240   -1.2070 C   0  0  1  0  0  0  0  0  0  0  0  0
    1.9190   -1.2060   -1.0070 C   0  0  2  0  0  0  0  0  0  0  0  0
    1.5950   -2.5990   -1.4910 C   0  0  0  0  0  0  0  0  0  0  0  0
    2.4030   -1.2530    0.3820 C   0  0  0  0  0  0  0  0  0  0  0  0
    3.4180   -1.9670    0.8970 C   0  0  0  0  0  0  0  0  0  0  0  0
    3.5280   -1.6930    2.3270 C   0  0  0  0  0  0  0  0  0  0  0  0
    2.4490   -0.7340    2.5700 C   0  0  0  0  0  0  0  0  0  0  0  0
    1.8030   -0.4890    1.4230 C   0  0  0  0  0  0  0  0  0  0  0  0
    0.6420    0.4060    1.1190 C   0  0  0  0  0  0  0  0  0  0  0  0
   -0.1390   -0.1390   -0.0190 C   0  0  2  0  0  0  0  0  0  0  0  0
   -0.5790   -1.5470    0.4820 C   0  0  0  0  0  0  0  0  0  0  0  0
   -1.4110   -1.4940    1.6950 C   0  0  0  0  0  0  0  0  0  0  0  0
   -2.4530   -0.4450    1.7760 C   0  0  0  0  0  0  0  0  0  0  0  0
   -2.3470    0.7050    0.8670 C   0  0  2  0  0  0  0  0  0  0  0  0
   -2.0930    2.0240    1.5660 C   0  0  0  0  0  0  0  0  0  0  0  0
   -3.6400    0.9370    0.0600 C   0  0  0  0  0  0  0  0  0  0  0  0
   -3.1420    1.8450   -1.0370 C   0  0  0  0  0  0  0  0  0  0  0  0
   -1.5980    1.7350   -1.0380 C   0  0  0  0  0  0  0  0  0  0  0  0
   -1.4390    0.4630   -0.3020 C   0  0  1  0  0  0  0  0  0  0  0  0
  1  2  1  0
  2  3  1  0
  3  4  2  0
  5  3  1  1
  5  6  1  0
  5 14  1  0
  6  7  1  1
  6  8  1  0
  8  9  2  0
  8 12  1  0
  9 10  1  0
 10 11  1  0
 11 12  2  0
 12 13  1  0
 14 13  1  1
 14 15  1  0
 14 23  1  0
 15 16  1  0
 16 17  1  0
 17 18  1  0
 18 19  1  1
 18 20  1  0
 18 23  1  0
 20 21  1  0
 21 22  1  0
 23 22  1  1
M  END
