
     RDKit          3D

 34 36  0  0  0  0  0  0  0  0999 V2000
   -7.3460   -1.8800    0.9910 C   0  0  0  0  0  0  0  0  0  0  0  0
   -6.9130   -0.6020    1.4220 O   0  0  0  0  0  0  0  0  0  0  0  0
   -5.7880    0.0100    0.9010 C   0  0  0  0  0  0  0  0  0  0  0  0
   -4.9950   -0.5540   -0.0670 C   0  0  0  0  0  0  0  0  0  0  0  0
   -3.8770    0.0710   -0.5740 C   0  0  0  0  0  0  0  0  0  0  0  0
   -3.0540   -0.4640   -1.5480 O   0  0  0  0  0  0  0  0  0  0  0  0
   -3.3970   -1.7450   -2.0520 C   0  0  0  0  0  0  0  0  0  0  0  0
   -3.5490    1.3120   -0.0830 C   0  0  0  0  0  0  0  0  0  0  0  0
   -4.3580    1.8890    0.9070 C   0  0  0  0  0  0  0  0  0  0  0  0
   -5.4690    1.2590    1.4050 C   0  0  0  0  0  0  0  0  0  0  0  0
   -6.2490    1.8520    2.3820 O   0  0  0  0  0  0  0  0  0  0  0  0
   -3.8960    3.2330    1.3560 C   0  0  0  0  0  0  0  0  0  0  0  0
   -3.6970    4.1140    0.1390 C   0  0  0  0  0  0  0  0  0  0  0  0
   -2.9260    3.4530   -0.9670 C   0  0  0  0  0  0  0  0  0  0  0  0
   -2.3990    2.1100   -0.5110 C   0  0  2  0  0  0  0  0  0  0  0  0
   -1.5910    1.4920   -1.4750 O   0  0  0  0  0  0  0  0  0  0  0  0
   -0.2400    1.2270   -1.2540 C   0  0  0  0  0  0  0  0  0  0  0  0
    0.2230    1.5640   -0.1530 O   0  0  0  0  0  0  0  0  0  0  0  0
    0.6110    0.6090   -2.1910 N   0  0  0  0  0  0  0  0  0  0  0  0
    2.0260    0.3520   -1.9120 C   0  0  0  0  0  0  0  0  0  0  0  0
    2.1930   -0.5280   -0.7470 C   0  0  0  0  0  0  0  0  0  0  0  0
    1.2590   -1.0820    0.0270 N   0  0  0  0  0  0  0  0  0  0  0  0
    1.7980   -1.8190    0.9830 C   0  0  0  0  0  0  0  0  0  0  0  0
    3.1410   -1.7330    0.8140 N   0  0  0  0  0  0  0  0  0  0  0  0
    3.4410   -0.9560   -0.2290 C   0  0  0  0  0  0  0  0  0  0  0  0
    4.7250   -0.5830   -0.7720 C   0  0  0  0  0  0  0  0  0  0  0  0
    4.6500    0.2730   -1.8820 F   0  0  0  0  0  0  0  0  0  0  0  0
    5.9200   -0.8940   -0.4180 C   0  0  0  0  0  0  0  0  0  0  0  0
    6.4710   -1.7120    0.6240 C   0  0  0  0  0  0  0  0  0  0  0  0
    7.7810   -1.9090    0.8270 C   0  0  0  0  0  0  0  0  0  0  0  0
    8.1630   -2.8050    1.9760 C   0  0  0  0  0  0  0  0  0  0  0  0
    8.8770   -1.3470    0.0510 C   0  0  2  0  0  0  0  0  0  0  0  0
    9.5710   -2.4030   -0.5470 F   0  0  0  0  0  0  0  0  0  0  0  0
    9.8290   -0.7580    0.9040 F   0  0  0  0  0  0  0  0  0  0  0  0
  1  2  1  0
  2  3  1  0
  3  4  2  0
  3 10  1  0
  4  5  1  0
  5  6  1  0
  5  8  2  0
  6  7  1  0
  8  9  1  0
  8 15  1  0
  9 10  2  0
  9 12  1  0
 10 11  1  0
 12 13  1  0
 13 14  1  0
 14 15  1  0
 15 16  1  6
 16 17  1  0
 17 18  2  0
 17 19  1  0
 19 20  1  0
 20 21  1  0
 21 22  1  0
 21 25  2  0
 22 23  2  0
 23 24  1  0
 24 25  1  0
 25 26  1  0
 26 27  1  0
 26 28  2  3
 28 29  1  0
 29 30  2  3
 30 31  1  0
 30 32  1  0
 32 33  1  1
 32 34  1  0
M  END
