
     RDKit          3D

 34 36  0  0  0  0  0  0  0  0999 V2000
    7.0810   -0.4670   -2.8430 C   0  0  0  0  0  0  0  0  0  0  0  0
    6.1560    0.6900   -2.6500 C   0  0  0  0  0  0  0  0  0  0  0  0
    4.9350    0.3490   -1.9000 C   0  0  0  0  0  0  0  0  0  0  0  0
    3.6890    0.1800   -2.4880 C   0  0  0  0  0  0  0  0  0  0  0  0
    2.5770   -0.1350   -1.7670 C   0  0  0  0  0  0  0  0  0  0  0  0
    2.6230   -0.3090   -0.3730 C   0  0  0  0  0  0  0  0  0  0  0  0
    1.4600   -0.6500    0.3270 N   0  0  0  0  0  0  0  0  0  0  0  0
    1.3400   -0.5640    1.7220 C   0  0  0  0  0  0  0  0  0  0  0  0
    2.2390   -0.1770    2.4950 O   0  0  0  0  0  0  0  0  0  0  0  0
    0.0620   -0.9540    2.3610 C   0  0  0  0  0  0  0  0  0  0  0  0
   -0.0380   -0.9990    3.7270 C   0  0  0  0  0  0  0  0  0  0  0  0
   -1.2190   -1.3640    4.3530 C   0  0  0  0  0  0  0  0  0  0  0  0
   -2.2430   -1.6670    3.5490 N   0  0  0  0  0  0  0  0  0  0  0  0
   -2.1770   -1.6320    2.1970 C   0  0  0  0  0  0  0  0  0  0  0  0
   -3.2790   -1.9620    1.4630 O   0  0  0  0  0  0  0  0  0  0  0  0
   -4.2100   -1.0210    1.0060 C   0  0  0  0  0  0  0  0  0  0  0  0
   -5.5250   -1.1230    1.3900 C   0  0  0  0  0  0  0  0  0  0  0  0
   -6.4660   -0.2230    0.9650 C   0  0  0  0  0  0  0  0  0  0  0  0
   -7.7900   -0.3790    1.3890 O   0  0  0  0  0  0  0  0  0  0  0  0
   -8.7630    0.5440    0.9550 C   0  0  0  0  0  0  0  0  0  0  0  0
   -6.1540    0.8270    0.1360 C   0  0  0  0  0  0  0  0  0  0  0  0
   -4.8160    0.9280   -0.2520 C   0  0  0  0  0  0  0  0  0  0  0  0
   -3.8530    0.0380    0.1600 C   0  0  0  0  0  0  0  0  0  0  0  0
   -2.5450    0.1140   -0.2110 O   0  0  0  0  0  0  0  0  0  0  0  0
   -1.8530    0.9550   -1.0570 C   0  0  0  0  0  0  0  0  0  0  0  0
   -2.1580    0.8800   -2.5130 C   0  0  1  0  0  0  0  0  0  0  0  0
   -1.3580    1.8170   -3.1590 F   0  0  0  0  0  0  0  0  0  0  0  0
   -1.6680   -0.3560   -3.0000 F   0  0  0  0  0  0  0  0  0  0  0  0
   -3.4260    0.9650   -2.9240 F   0  0  0  0  0  0  0  0  0  0  0  0
   -1.0300   -1.2780    1.6390 N   0  0  0  0  0  0  0  0  0  0  0  0
    3.8440   -0.1450    0.2150 C   0  0  0  0  0  0  0  0  0  0  0  0
    4.9880    0.1810   -0.5370 C   0  0  0  0  0  0  0  0  0  0  0  0
    6.3010    0.3500    0.1570 C   0  0  0  0  0  0  0  0  0  0  0  0
    6.1770    0.1460    1.5190 O   0  0  0  0  0  0  0  0  0  0  0  0
  1  2  1  0
  2  3  1  0
  3  4  2  0
  3 32  1  0
  4  5  1  0
  5  6  2  0
  6  7  1  0
  6 31  1  0
  7  8  1  0
  8  9  2  0
  8 10  1  0
 10 11  2  0
 10 30  1  0
 11 12  1  0
 12 13  2  0
 13 14  1  0
 14 15  1  0
 14 30  2  0
 15 16  1  0
 16 17  2  0
 16 23  1  0
 17 18  1  0
 18 19  1  0
 18 21  2  0
 19 20  1  0
 21 22  1  0
 22 23  2  0
 23 24  1  0
 24 25  1  0
 25 26  1  0
 26 27  1  6
 26 28  1  0
 26 29  1  0
 31 32  2  0
 32 33  1  0
 33 34  1  0
M  END
