
     RDKit          3D

 34 36  0  0  0  0  0  0  0  0999 V2000
   -4.8390    4.1380    0.3980 C   0  0  0  0  0  0  0  0  0  0  0  0
   -3.4780    3.5660    0.5650 C   0  0  0  0  0  0  0  0  0  0  0  0
   -2.3500    4.2890    0.8390 N   0  0  0  0  0  0  0  0  0  0  0  0
   -1.2890    3.4910    0.9020 C   0  0  0  0  0  0  0  0  0  0  0  0
   -1.7620    2.2030    0.6560 C   0  0  0  0  0  0  0  0  0  0  0  0
   -1.0650    1.0180    0.5960 C   0  0  0  0  0  0  0  0  0  0  0  0
    0.3890    0.9470    0.8170 C   0  0  0  0  0  0  0  0  0  0  0  0
    1.0560    1.9750    1.0750 O   0  0  0  0  0  0  0  0  0  0  0  0
    1.0780   -0.2460    0.7520 O   0  0  0  0  0  0  0  0  0  0  0  0
    2.4970   -0.2950    0.9710 C   0  0  0  0  0  0  0  0  0  0  0  0
    2.9690   -1.7040    0.8390 C   0  0  0  0  0  0  0  0  0  0  0  0
    2.4710   -2.7610    1.6910 C   0  0  0  0  0  0  0  0  0  0  0  0
    1.6220   -2.5020    2.5660 O   0  0  0  0  0  0  0  0  0  0  0  0
    3.8640   -1.9830   -0.0820 C   0  0  0  0  0  0  0  0  0  0  0  0
    4.3620   -0.9700   -0.9230 N   0  0  0  0  0  0  0  0  0  0  0  0
    5.7240   -0.6120   -0.8860 C   0  0  0  0  0  0  0  0  0  0  0  0
    6.5920   -1.2570   -0.0180 C   0  0  0  0  0  0  0  0  0  0  0  0
    7.9200   -0.8800   -0.0100 C   0  0  0  0  0  0  0  0  0  0  0  0
    8.3920    0.1180   -0.8410 C   0  0  0  0  0  0  0  0  0  0  0  0
    9.6960    0.4960   -0.8390 F   0  0  0  0  0  0  0  0  0  0  0  0
    7.5260    0.7670   -1.7120 C   0  0  0  0  0  0  0  0  0  0  0  0
    6.1840    0.3820   -1.7170 C   0  0  0  0  0  0  0  0  0  0  0  0
   -1.8040   -0.1000    0.3160 C   0  0  0  0  0  0  0  0  0  0  0  0
   -3.1920   -0.0530    0.1030 C   0  0  0  0  0  0  0  0  0  0  0  0
   -3.8620   -1.2910   -0.2540 C   0  0  0  0  0  0  0  0  0  0  0  0
   -3.2040   -2.3760   -0.0740 O   0  0  0  0  0  0  0  0  0  0  0  0
   -5.0950   -1.4100   -0.7550 O   0  0  0  0  0  0  0  0  0  0  0  0
   -5.8440   -2.5160   -1.1470 C   0  0  0  0  0  0  0  0  0  0  0  0
   -5.1780   -3.2090   -2.3050 C   0  0  1  0  0  0  0  0  0  0  0  0
   -5.0460   -2.3520   -3.3870 F   0  0  0  0  0  0  0  0  0  0  0  0
   -3.9830   -3.7750   -1.9670 F   0  0  0  0  0  0  0  0  0  0  0  0
   -3.8130    1.1740    0.1860 C   0  0  0  0  0  0  0  0  0  0  0  0
   -5.2950    1.1900    0.0310 C   0  0  0  0  0  0  0  0  0  0  0  0
   -3.1100    2.2870    0.4550 N   0  0  0  0  0  0  0  0  0  0  0  0
  1  2  1  0
  2  3  2  0
  2 34  1  0
  3  4  1  0
  4  5  2  0
  5  6  1  0
  5 34  1  0
  6  7  1  0
  6 23  2  0
  7  8  2  0
  7  9  1  0
  9 10  1  0
 10 11  1  0
 11 12  1  0
 11 14  2  3
 12 13  2  0
 14 15  1  0
 15 16  1  0
 16 17  2  0
 16 22  1  0
 17 18  1  0
 18 19  2  0
 19 20  1  0
 19 21  1  0
 21 22  2  0
 23 24  1  0
 24 25  1  0
 24 32  2  0
 25 26  2  0
 25 27  1  0
 27 28  1  0
 28 29  1  0
 29 30  1  6
 29 31  1  0
 32 33  1  0
 32 34  1  0
M  END
