
     RDKit          3D

 34 36  0  0  0  0  0  0  0  0999 V2000
   -6.2880    1.0330    2.2720 C   0  0  0  0  0  0  0  0  0  0  0  0
   -5.5950    0.8700    0.9590 C   0  0  0  0  0  0  0  0  0  0  0  0
   -4.3830    1.3540    0.6850 O   0  0  0  0  0  0  0  0  0  0  0  0
   -4.0470    1.0600   -0.5280 C   0  0  0  0  0  0  0  0  0  0  0  0
   -2.8180    1.3600   -1.2890 C   0  0  0  0  0  0  0  0  0  0  0  0
   -1.6290    1.1790   -0.7210 C   0  0  0  0  0  0  0  0  0  0  0  0
   -1.6450    0.7260    0.5410 F   0  0  0  0  0  0  0  0  0  0  0  0
   -0.4270    1.4360   -1.4440 C   0  0  0  0  0  0  0  0  0  0  0  0
    0.8210    1.3020   -1.0610 C   0  0  0  0  0  0  0  0  0  0  0  0
    1.2010    0.8420    0.2420 C   0  0  0  0  0  0  0  0  0  0  0  0
    2.4210    0.6720    0.6450 C   0  0  0  0  0  0  0  0  0  0  0  0
    3.5870    0.9180   -0.1570 C   0  0  0  0  0  0  0  0  0  0  0  0
    4.8790    0.6260    0.3090 C   0  0  0  0  0  0  0  0  0  0  0  0
    5.7660    0.9660   -0.6730 C   0  0  0  0  0  0  0  0  0  0  0  0
    7.2410    0.7900   -0.6200 C   0  0  0  0  0  0  0  0  0  0  0  0
    7.9380    1.2150   -1.5600 O   0  0  0  0  0  0  0  0  0  0  0  0
    7.8300    0.1390    0.4960 N   0  0  0  0  0  0  0  0  0  0  0  0
    9.2070   -0.1050    0.6700 C   0  0  0  0  0  0  0  0  0  0  0  0
    9.6700   -0.7260    1.7620 C   0  0  0  0  0  0  0  0  0  0  0  0
    8.9500   -1.1980    2.8210 F   0  0  0  0  0  0  0  0  0  0  0  0
   11.1230   -0.8500    1.6740 C   0  0  0  0  0  0  0  0  0  0  0  0
   11.4690   -0.2250    0.3980 C   0  0  0  0  0  0  0  0  0  0  0  0
   10.3420    0.1960   -0.1590 C   0  0  0  0  0  0  0  0  0  0  0  0
   10.3520    0.8200   -1.3640 F   0  0  0  0  0  0  0  0  0  0  0  0
    5.0280    1.4450   -1.6850 N   0  0  0  0  0  0  0  0  0  0  0  0
    3.7630    1.4020   -1.3500 O   0  0  0  0  0  0  0  0  0  0  0  0
   -5.0840    0.3460   -1.0910 C   0  0  0  0  0  0  0  0  0  0  0  0
   -6.1070    0.2130   -0.1220 C   0  0  0  0  0  0  0  0  0  0  0  0
   -7.3160   -0.5140   -0.3780 C   0  0  0  0  0  0  0  0  0  0  0  0
   -7.6160   -0.8520   -1.5770 O   0  0  0  0  0  0  0  0  0  0  0  0
   -8.2330   -0.9060    0.6150 N   0  0  0  0  0  0  0  0  0  0  0  0
   -9.4520   -1.6520    0.3280 C   0  0  0  0  0  0  0  0  0  0  0  0
   -9.1180   -2.9990   -0.2830 C   0  0  0  0  0  0  0  0  0  0  0  0
  -10.2830   -3.7270   -0.5610 O   0  0  0  0  0  0  0  0  0  0  0  0
  1  2  1  0
  2  3  1  0
  2 28  2  0
  3  4  1  0
  4  5  1  0
  4 27  2  0
  5  6  2  3
  6  7  1  0
  6  8  1  0
  8  9  2  3
  9 10  1  0
 10 11  2  3
 11 12  1  0
 12 13  2  0
 12 26  1  0
 13 14  1  0
 14 15  1  0
 14 25  2  0
 15 16  2  0
 15 17  1  0
 17 18  1  0
 18 19  2  0
 18 23  1  0
 19 20  1  0
 19 21  1  0
 21 22  1  0
 22 23  2  0
 23 24  1  0
 25 26  1  0
 27 28  1  0
 28 29  1  0
 29 30  2  0
 29 31  1  0
 31 32  1  0
 32 33  1  0
 33 34  1  0
M  END
