
     RDKit          3D

 34 36  0  0  0  0  0  0  0  0999 V2000
    6.4140   -2.5570   -1.1340 C   0  0  0  0  0  0  0  0  0  0  0  0
    7.4090   -1.5030   -1.5340 C   0  0  0  0  0  0  0  0  0  0  0  0
    7.9520   -0.8250   -0.3850 N   0  0  0  0  0  0  0  0  0  0  0  0
    7.1120   -0.0660    0.4580 C   0  0  0  0  0  0  0  0  0  0  0  0
    7.5620    0.5200    1.6200 C   0  0  0  0  0  0  0  0  0  0  0  0
    6.7270    1.2680    2.4340 C   0  0  0  0  0  0  0  0  0  0  0  0
    7.1800    1.8430    3.5780 F   0  0  0  0  0  0  0  0  0  0  0  0
    5.4320    1.4180    2.0650 C   0  0  0  0  0  0  0  0  0  0  0  0
    4.9000    0.8520    0.8980 C   0  0  0  0  0  0  0  0  0  0  0  0
    3.5190    1.0810    0.5960 N   0  0  0  0  0  0  0  0  0  0  0  0
    2.7850    0.4560   -0.4190 C   0  0  0  0  0  0  0  0  0  0  0  0
    3.3080   -0.3950   -1.1720 O   0  0  0  0  0  0  0  0  0  0  0  0
    1.3870    0.7680   -0.6390 C   0  0  0  0  0  0  0  0  0  0  0  0
    0.7070    1.6830    0.1210 C   0  0  0  0  0  0  0  0  0  0  0  0
   -0.6480    1.9470   -0.1360 C   0  0  0  0  0  0  0  0  0  0  0  0
   -1.2840    1.2880   -1.1490 C   0  0  0  0  0  0  0  0  0  0  0  0
   -2.6060    1.5330   -1.4150 O   0  0  0  0  0  0  0  0  0  0  0  0
   -3.5950    0.8070   -0.8030 C   0  0  0  0  0  0  0  0  0  0  0  0
   -3.2830   -0.1850    0.0930 C   0  0  0  0  0  0  0  0  0  0  0  0
   -4.2840   -0.9210    0.7130 C   0  0  0  0  0  0  0  0  0  0  0  0
   -5.6100   -0.7040    0.4720 C   0  0  0  0  0  0  0  0  0  0  0  0
   -6.6790   -1.4660    1.1140 C   0  0  0  0  0  0  0  0  0  0  0  0
   -6.4410   -2.3830    1.9410 O   0  0  0  0  0  0  0  0  0  0  0  0
   -8.0200   -1.2190    0.8460 O   0  0  0  0  0  0  0  0  0  0  0  0
   -9.0680   -1.9440    1.4550 C   0  0  0  0  0  0  0  0  0  0  0  0
   -5.9380    0.3120   -0.4450 C   0  0  0  0  0  0  0  0  0  0  0  0
   -7.2730    0.5180   -0.6770 O   0  0  0  0  0  0  0  0  0  0  0  0
   -7.8680    1.4310   -1.5120 C   0  0  2  0  0  0  0  0  0  0  0  0
   -8.6970    2.2910   -0.7800 F   0  0  0  0  0  0  0  0  0  0  0  0
   -8.6270    0.8230   -2.5120 F   0  0  0  0  0  0  0  0  0  0  0  0
   -4.9420    1.0400   -1.0590 C   0  0  0  0  0  0  0  0  0  0  0  0
   -0.5930    0.3740   -1.9040 C   0  0  0  0  0  0  0  0  0  0  0  0
    0.7020    0.1380   -1.6390 N   0  0  0  0  0  0  0  0  0  0  0  0
    5.7630    0.1270    0.1320 C   0  0  0  0  0  0  0  0  0  0  0  0
  1  2  1  0
  2  3  1  0
  3  4  1  0
  4  5  2  0
  4 34  1  0
  5  6  1  0
  6  7  1  0
  6  8  2  0
  8  9  1  0
  9 10  1  0
  9 34  2  0
 10 11  1  0
 11 12  2  0
 11 13  1  0
 13 14  2  0
 13 33  1  0
 14 15  1  0
 15 16  2  0
 16 17  1  0
 16 32  1  0
 17 18  1  0
 18 19  2  0
 18 31  1  0
 19 20  1  0
 20 21  2  0
 21 22  1  0
 21 26  1  0
 22 23  2  0
 22 24  1  0
 24 25  1  0
 26 27  1  0
 26 31  2  0
 27 28  1  0
 28 29  1  1
 28 30  1  0
 32 33  2  0
M  END
