
     RDKit          3D

 34 36  0  0  0  0  0  0  0  0999 V2000
   -4.1120    2.5970    0.5620 C   0  0  0  0  0  0  0  0  0  0  0  0
   -3.5050    1.2370    0.1540 C   0  0  0  0  0  0  0  0  0  0  0  0
   -4.5400    0.3890   -0.4460 C   0  0  0  0  0  0  0  0  0  0  0  0
   -4.5740   -0.1790   -1.5780 C   0  0  0  0  0  0  0  0  0  0  0  0
   -3.6100   -0.2040   -2.6590 C   0  0  0  0  0  0  0  0  0  0  0  0
   -4.0090   -0.1040   -3.9590 O   0  0  0  0  0  0  0  0  0  0  0  0
   -3.0190   -0.1520   -4.7630 C   0  0  0  0  0  0  0  0  0  0  0  0
   -3.1030   -0.0680   -6.2710 C   0  0  0  0  0  0  0  0  0  0  0  0
   -1.8890   -0.2900   -4.0310 C   0  0  0  0  0  0  0  0  0  0  0  0
   -2.2600   -0.3300   -2.6560 C   0  0  0  0  0  0  0  0  0  0  0  0
   -1.3030   -0.6380   -1.6030 C   0  0  0  0  0  0  0  0  0  0  0  0
   -1.6050   -0.9470   -0.4440 O   0  0  0  0  0  0  0  0  0  0  0  0
    0.0830   -0.5960   -1.8600 O   0  0  0  0  0  0  0  0  0  0  0  0
    0.9920   -0.8910   -0.8450 C   0  0  0  0  0  0  0  0  0  0  0  0
    1.6300    0.1080   -0.1670 C   0  0  0  0  0  0  0  0  0  0  0  0
    2.5580   -0.1240    0.8690 C   0  0  0  0  0  0  0  0  0  0  0  0
    3.1720    0.9860    1.4770 N   0  0  0  0  0  0  0  0  0  0  0  0
    4.0570    0.9560    2.5550 C   0  0  0  0  0  0  0  0  0  0  0  0
    4.3810   -0.0940    3.1080 O   0  0  0  0  0  0  0  0  0  0  0  0
    4.6490    2.1730    3.0810 N   0  0  0  0  0  0  0  0  0  0  0  0
    5.5760    2.1030    4.2040 C   0  0  2  0  0  0  0  0  0  0  0  0
    5.8350    3.3750    4.9670 C   0  0  0  0  0  0  0  0  0  0  0  0
    6.8870    2.8050    4.0540 C   0  0  0  0  0  0  0  0  0  0  0  0
    2.8230   -1.4160    1.2040 C   0  0  0  0  0  0  0  0  0  0  0  0
    2.1810   -2.4450    0.5230 C   0  0  0  0  0  0  0  0  0  0  0  0
    1.2720   -2.1940   -0.4950 C   0  0  0  0  0  0  0  0  0  0  0  0
    0.6240   -3.1990   -1.1850 O   0  0  0  0  0  0  0  0  0  0  0  0
    0.8010   -4.5760   -0.9440 C   0  0  0  0  0  0  0  0  0  0  0  0
    0.3970   -4.8020    0.4650 C   0  0  0  0  0  0  0  0  0  0  0  0
    0.0730   -4.9610    1.5710 N   0  0  0  0  0  0  0  0  0  0  0  0
   -5.8670   -0.9760   -1.8570 C   0  0  1  0  0  0  0  0  0  0  0  0
   -5.5340   -2.2800   -2.1530 F   0  0  0  0  0  0  0  0  0  0  0  0
   -6.7120   -0.8830   -0.7760 F   0  0  0  0  0  0  0  0  0  0  0  0
   -6.5130   -0.4450   -2.9520 F   0  0  0  0  0  0  0  0  0  0  0  0
  1  2  1  0
  2  3  1  0
  3  4  2  3
  4  5  1  0
  4 31  1  0
  5  6  1  0
  5 10  2  0
  6  7  1  0
  7  8  1  0
  7  9  2  0
  9 10  1  0
 10 11  1  0
 11 12  2  0
 11 13  1  0
 13 14  1  0
 14 15  2  0
 14 26  1  0
 15 16  1  0
 16 17  1  0
 16 24  2  0
 17 18  1  0
 18 19  2  0
 18 20  1  0
 21 20  1  6
 21 22  1  0
 21 23  1  0
 22 23  1  0
 24 25  1  0
 25 26  2  0
 26 27  1  0
 27 28  1  0
 28 29  1  0
 29 30  3  0
 31 32  1  6
 31 33  1  0
 31 34  1  0
M  END
