
     RDKit          3D

 33 35  0  0  0  0  0  0  0  0999 V2000
    6.2780    1.5610    0.7710 C   0  0  0  0  0  0  0  0  0  0  0  0
    5.8670    1.4550    2.1420 O   0  0  0  0  0  0  0  0  0  0  0  0
    4.5350    1.1130    2.3500 C   0  0  0  0  0  0  0  0  0  0  0  0
    3.6530    0.8840    1.3130 C   0  0  0  0  0  0  0  0  0  0  0  0
    2.3500    0.5480    1.4620 C   0  0  0  0  0  0  0  0  0  0  0  0
    1.4040    0.2830    0.4440 N   0  0  0  0  0  0  0  0  0  0  0  0
    1.6630    0.1420   -0.9320 C   0  0  0  0  0  0  0  0  0  0  0  0
    2.8260    0.2500   -1.3550 O   0  0  0  0  0  0  0  0  0  0  0  0
    0.5970   -0.1310   -1.8820 N   0  0  0  0  0  0  0  0  0  0  0  0
    0.9980   -0.3180   -3.2530 C   0  0  0  0  0  0  0  0  0  0  0  0
    1.0500    0.9560   -4.0600 C   0  0  0  0  0  0  0  0  0  0  0  0
    1.5080    0.7210   -5.4330 C   0  0  0  0  0  0  0  0  0  0  0  0
    1.8630    0.5180   -6.5390 N   0  0  0  0  0  0  0  0  0  0  0  0
   -0.7390   -0.2350   -1.4570 C   0  0  0  0  0  0  0  0  0  0  0  0
   -1.1790   -1.3110   -0.6510 C   0  0  0  0  0  0  0  0  0  0  0  0
   -2.4810   -1.3840   -0.2420 C   0  0  0  0  0  0  0  0  0  0  0  0
   -3.4220   -0.4610   -0.5690 C   0  0  0  0  0  0  0  0  0  0  0  0
   -4.8180   -0.6000   -0.2540 C   0  0  0  0  0  0  0  0  0  0  0  0
   -5.5900    0.5090    0.3530 C   0  0  0  0  0  0  0  0  0  0  0  0
   -5.1530    1.6680    0.6900 C   0  0  0  0  0  0  0  0  0  0  0  0
   -3.9210    2.1460    0.5860 F   0  0  0  0  0  0  0  0  0  0  0  0
   -6.0680    2.5780    1.2410 F   0  0  0  0  0  0  0  0  0  0  0  0
   -5.4660   -1.7190   -0.4600 C   0  0  0  0  0  0  0  0  0  0  0  0
   -4.9630   -2.9550   -1.0150 C   0  0  0  0  0  0  0  0  0  0  0  0
   -5.7540   -3.2240   -2.1880 O   0  0  0  0  0  0  0  0  0  0  0  0
   -3.0120    0.6210   -1.3740 C   0  0  0  0  0  0  0  0  0  0  0  0
   -1.6830    0.6770   -1.7760 C   0  0  0  0  0  0  0  0  0  0  0  0
    1.8980    0.4350    2.7830 C   0  0  0  0  0  0  0  0  0  0  0  0
    2.7320    0.6520    3.8600 C   0  0  0  0  0  0  0  0  0  0  0  0
    4.0550    0.9920    3.6310 C   0  0  0  0  0  0  0  0  0  0  0  0
    4.7120    1.1620    4.8580 O   0  0  0  0  0  0  0  0  0  0  0  0
    3.8900    0.5690    5.8530 C   0  0  0  0  0  0  0  0  0  0  0  0
    2.6060    0.6220    5.2350 O   0  0  0  0  0  0  0  0  0  0  0  0
  1  2  1  0
  2  3  1  0
  3  4  2  0
  3 30  1  0
  4  5  1  0
  5  6  1  0
  5 28  2  0
  6  7  1  0
  7  8  2  0
  7  9  1  0
  9 10  1  0
  9 14  1  0
 10 11  1  0
 11 12  1  0
 12 13  3  0
 14 15  2  0
 14 27  1  0
 15 16  1  0
 16 17  2  0
 17 18  1  0
 17 26  1  0
 18 19  1  0
 18 23  2  3
 19 20  2  3
 20 21  1  0
 20 22  1  0
 23 24  1  0
 24 25  1  0
 26 27  2  0
 28 29  1  0
 29 30  2  0
 29 33  1  0
 30 31  1  0
 31 32  1  0
 32 33  1  0
M  END
