
     RDKit          3D

  9  9  0  0  0  0  0  0  0  0999 V2000
    2.7180    0.5240   -0.4420 C   0  0  0  0  0  0  0  0  0  0  0  0
    2.1140   -0.4470    0.4800 N   0  0  0  0  0  0  0  0  0  0  0  0
    0.6910   -0.2800    0.3190 C   0  0  0  0  0  0  0  0  0  0  0  0
   -0.0730    0.3140    1.3040 C   0  0  0  0  0  0  0  0  0  0  0  0
   -1.4320    0.4550    1.1120 C   0  0  0  0  0  0  0  0  0  0  0  0
   -2.0500    0.0170   -0.0440 C   0  0  0  0  0  0  0  0  0  0  0  0
   -3.4440    0.1520   -0.2620 N   0  0  0  0  0  0  0  0  0  0  0  0
   -1.3010   -0.5790   -1.0390 C   0  0  0  0  0  0  0  0  0  0  0  0
    0.0570   -0.7080   -0.8210 C   0  0  0  0  0  0  0  0  0  0  0  0
  1  2  1  0
  2  3  1  0
  3  4  2  0
  3  9  1  0
  4  5  1  0
  5  6  2  0
  6  7  1  0
  6  8  1  0
  8  9  2  0
M  CHG  1   2   1
M  END
