
     RDKit          3D

  9  9  0  0  0  0  0  0  0  0999 V2000
    1.5790    1.9400   -0.0830 C   0  0  0  0  0  0  0  0  0  0  0  0
    0.5610    1.1210   -0.6740 N   0  0  0  0  0  0  0  0  0  0  0  0
    0.3840   -0.2540   -0.3230 C   0  0  0  0  0  0  0  0  0  0  0  0
    1.2960   -1.2360   -0.4400 C   0  0  0  0  0  0  0  0  0  0  0  0
    0.7310   -2.4960    0.0250 C   0  0  0  0  0  0  0  0  0  0  0  0
   -0.5150   -2.2870    0.4230 C   0  0  0  0  0  0  0  0  0  0  0  0
   -0.8100   -0.8750    0.2310 C   0  0  0  0  0  0  0  0  0  0  0  0
   -1.9260   -0.2280    0.4910 C   0  0  0  0  0  0  0  0  0  0  0  0
   -2.0890    1.1650    0.2560 N   0  0  0  0  0  0  0  0  0  0  0  0
  1  2  1  0
  2  3  1  0
  3  4  2  0
  3  7  1  0
  4  5  1  0
  5  6  2  0
  6  7  1  0
  7  8  2  3
  8  9  1  0
M  END
