
     RDKit          3D

  9  9  0  0  0  0  0  0  0  0999 V2000
    1.4030   -2.1890   -0.0820 N   0  0  0  0  0  0  0  0  0  0  0  0
    1.2660   -0.8450   -0.5060 C   0  0  0  0  0  0  0  0  0  0  0  0
    2.1590   -0.3440   -1.2830 N   0  0  0  0  0  0  0  0  0  0  0  0
    0.1160   -0.0360   -0.0620 C   0  0  0  0  0  0  0  0  0  0  0  0
   -0.0490    1.2660   -0.4530 C   0  0  0  0  0  0  0  0  0  0  0  0
   -1.1570    2.0100   -0.0110 C   0  0  0  0  0  0  0  0  0  0  0  0
   -2.1020    1.4500    0.8220 C   0  0  0  0  0  0  0  0  0  0  0  0
   -1.9200    0.1360    1.2050 C   0  0  0  0  0  0  0  0  0  0  0  0
   -0.8320   -0.5930    0.7720 C   0  0  0  0  0  0  0  0  0  0  0  0
  1  2  1  0
  2  3  2  0
  2  4  1  0
  4  5  2  0
  4  9  1  0
  5  6  1  0
  6  7  2  0
  7  8  1  0
  8  9  2  0
M  CHG  1   3   1
M  END
