
     RDKit          3D

  9  9  0  0  0  0  0  0  0  0999 V2000
   -2.3630   -0.8600    0.9110 N   0  0  0  0  0  0  0  0  0  0  0  0
   -2.3720   -0.2740   -0.3970 C   0  0  0  0  0  0  0  0  0  0  0  0
   -1.0990    0.1870   -0.9280 C   0  0  0  0  0  0  0  0  0  0  0  0
    0.1100    0.1800   -0.4410 C   0  0  0  0  0  0  0  0  0  0  0  0
    1.2300    0.7320   -1.2330 C   0  0  0  0  0  0  0  0  0  0  0  0
    2.4510    0.7270   -0.7460 C   0  0  0  0  0  0  0  0  0  0  0  0
    2.7930    0.2030    0.5530 C   0  0  0  0  0  0  0  0  0  0  0  0
    1.8200   -0.2940    1.2810 C   0  0  0  0  0  0  0  0  0  0  0  0
    0.4460   -0.3300    0.8240 N   0  0  0  0  0  0  0  0  0  0  0  0
  1  2  1  0
  2  3  1  0
  3  4  2  3
  4  5  1  0
  4  9  1  0
  5  6  2  0
  6  7  1  0
  7  8  2  0
  8  9  1  0
M  END
