
     RDKit          3D

  9  9  0  0  0  0  0  0  0  0999 V2000
   -2.1480   -1.8230   -0.2110 N   0  0  0  0  0  0  0  0  0  0  0  0
   -0.8340   -1.3490    0.0120 C   0  0  0  0  0  0  0  0  0  0  0  0
   -0.6070   -0.0530    0.0700 C   0  0  0  0  0  0  0  0  0  0  0  0
   -1.5960    1.0050   -0.0750 C   0  0  0  0  0  0  0  0  0  0  0  0
   -0.9810    2.1680    0.0450 C   0  0  0  0  0  0  0  0  0  0  0  0
    0.4320    1.9130    0.2720 C   0  0  0  0  0  0  0  0  0  0  0  0
    0.6600    0.6170    0.2890 C   0  0  0  0  0  0  0  0  0  0  0  0
    1.9920   -0.0430    0.4960 C   0  0  0  0  0  0  0  0  0  0  0  0
    2.3550   -0.8560   -0.6320 N   0  0  0  0  0  0  0  0  0  0  0  0
  1  2  1  0
  2  3  2  3
  3  4  1  0
  3  7  1  0
  4  5  2  0
  5  6  1  0
  6  7  2  0
  7  8  1  0
  8  9  1  0
M  END
