
     RDKit          3D

  9 10  0  0  0  0  0  0  0  0999 V2000
    2.4810   -0.9630    0.6060 N   0  0  0  0  0  0  0  0  0  0  0  0
    1.7820   -0.1670   -0.3800 C   0  0  2  0  0  0  0  0  0  0  0  0
    1.6270    1.2570    0.0990 C   0  0  0  0  0  0  0  0  0  0  0  0
    0.1390    1.4800    0.1770 C   0  0  0  0  0  0  0  0  0  0  0  0
   -0.4530    0.4030   -0.4730 N   0  0  0  0  0  0  0  0  0  0  0  0
   -1.8210    0.2550   -0.5970 C   0  0  2  0  0  0  0  0  0  0  0  0
   -2.6190   -0.0010    0.6950 C   0  0  0  0  0  0  0  0  0  0  0  0
   -2.6150   -0.9680   -0.4450 C   0  0  0  0  0  0  0  0  0  0  0  0
    0.3930   -0.7160   -0.5660 C   0  0  0  0  0  0  0  0  0  0  0  0
  2  1  1  1
  2  3  1  0
  2  9  1  0
  3  4  1  0
  4  5  1  0
  6  5  1  1
  5  9  1  0
  6  7  1  0
  6  8  1  0
  7  8  1  0
M  CHG  1   1   1
M  END
