
     RDKit          3D

  9  9  0  0  0  0  0  0  0  0999 V2000
    2.9810    0.2930   -0.1170 C   0  0  0  0  0  0  0  0  0  0  0  0
    1.6040    0.1380   -0.6030 N   0  0  0  0  0  0  0  0  0  0  0  0
    0.7980   -0.8950   -0.0730 C   0  0  0  0  0  0  0  0  0  0  0  0
   -0.4730   -0.6820    0.2660 C   0  0  0  0  0  0  0  0  0  0  0  0
   -1.4080   -1.6540    0.8200 C   0  0  0  0  0  0  0  0  0  0  0  0
   -2.5760   -1.0430    1.0190 C   0  0  0  0  0  0  0  0  0  0  0  0
   -2.4550    0.3570    0.6030 C   0  0  0  0  0  0  0  0  0  0  0  0
   -1.2270    0.5730    0.1620 C   0  0  0  0  0  0  0  0  0  0  0  0
   -0.6810    1.8060   -0.3420 N   0  0  0  0  0  0  0  0  0  0  0  0
  1  2  1  0
  2  3  1  0
  3  4  2  3
  4  5  1  0
  4  8  1  0
  5  6  2  0
  6  7  1  0
  7  8  2  0
  8  9  1  0
M  END
