
     RDKit          3D

  9  9  0  0  0  0  0  0  0  0999 V2000
   -0.6580   -1.9960   -0.9190 C   0  0  0  0  0  0  0  0  0  0  0  0
   -0.7140   -0.5940   -0.3380 C   0  0  0  0  0  0  0  0  0  0  0  0
   -1.8430   -0.0000   -0.2220 C   0  0  0  0  0  0  0  0  0  0  0  0
   -2.1980    1.2680    0.2690 N   0  0  0  0  0  0  0  0  0  0  0  0
    0.6020   -0.0300    0.0540 C   0  0  0  0  0  0  0  0  0  0  0  0
    1.8070   -0.6910   -0.0830 C   0  0  0  0  0  0  0  0  0  0  0  0
    2.8090    0.1140    0.3740 C   0  0  0  0  0  0  0  0  0  0  0  0
    2.2110    1.2710    0.7910 C   0  0  0  0  0  0  0  0  0  0  0  0
    0.8850    1.1590    0.5880 N   0  0  0  0  0  0  0  0  0  0  0  0
  1  2  1  0
  2  3  2  3
  2  5  1  0
  3  4  1  0
  5  6  2  0
  5  9  1  0
  6  7  1  0
  7  8  2  0
  8  9  1  0
M  CHG  1   4   1
M  END
