
     RDKit          3D

 23 26  0  0  0  0  0  0  0  0999 V2000
    0.4430    4.0490   -1.5060 C   0  0  0  0  0  0  0  0  0  0  0  0
    0.6940    2.8160   -0.9030 O   0  0  0  0  0  0  0  0  0  0  0  0
    0.7190    1.6750   -1.6690 C   0  0  0  0  0  0  0  0  0  0  0  0
    0.5090    1.8140   -2.8970 O   0  0  0  0  0  0  0  0  0  0  0  0
    0.9780    0.3310   -1.1130 C   0  0  1  0  0  0  0  0  0  0  0  0
    2.3710    0.4870   -0.5050 C   0  0  2  0  0  0  0  0  0  0  0  0
    3.3620    0.7960   -1.5810 C   0  0  0  0  0  0  0  0  0  0  0  0
    2.7620   -0.6750    0.3210 C   0  0  0  0  0  0  0  0  0  0  0  0
    3.7920   -1.4710    0.4420 C   0  0  0  0  0  0  0  0  0  0  0  0
    3.5070   -2.4580    1.5030 C   0  0  0  0  0  0  0  0  0  0  0  0
    2.1530   -2.0950    1.9640 C   0  0  0  0  0  0  0  0  0  0  0  0
    1.7130   -1.0680    1.2890 C   0  0  0  0  0  0  0  0  0  0  0  0
    0.4830   -0.2150    1.2350 C   0  0  0  0  0  0  0  0  0  0  0  0
   -0.0310   -0.2630   -0.2180 C   0  0  2  0  0  0  0  0  0  0  0  0
   -0.0310   -1.8030   -0.4530 C   0  0  0  0  0  0  0  0  0  0  0  0
   -0.9950   -2.5510    0.3470 C   0  0  0  0  0  0  0  0  0  0  0  0
   -2.1530   -1.8880    0.9400 C   0  0  0  0  0  0  0  0  0  0  0  0
   -2.3410   -0.4400    0.7070 C   0  0  2  0  0  0  0  0  0  0  0  0
   -2.4000    0.3940    1.9450 C   0  0  0  0  0  0  0  0  0  0  0  0
   -3.6740   -0.1560   -0.0280 C   0  0  0  0  0  0  0  0  0  0  0  0
   -3.4460    1.2960   -0.3850 C   0  0  0  0  0  0  0  0  0  0  0  0
   -1.9200    1.4720   -0.5060 C   0  0  0  0  0  0  0  0  0  0  0  0
   -1.4320    0.0840   -0.3810 C   0  0  1  0  0  0  0  0  0  0  0  0
  1  2  1  0
  2  3  1  0
  3  4  2  0
  5  3  1  1
  5  6  1  0
  5 14  1  0
  6  7  1  6
  6  8  1  0
  8  9  2  0
  8 12  1  0
  9 10  1  0
 10 11  1  0
 11 12  2  0
 12 13  1  0
 14 13  1  1
 14 15  1  0
 14 23  1  0
 15 16  1  0
 16 17  1  0
 17 18  1  0
 18 19  1  1
 18 20  1  0
 18 23  1  0
 20 21  1  0
 21 22  1  0
 23 22  1  1
M  END
