
     RDKit          3D

 16 16  0  0  0  0  0  0  0  0999 V2000
   -4.6210   -0.1390    1.8490 N   0  0  0  0  0  0  0  0  0  0  0  0
   -3.9240    0.1440    0.8040 C   0  0  0  0  0  0  0  0  0  0  0  0
   -4.1150    1.2330   -0.1470 C   0  0  0  0  0  0  0  0  0  0  0  0
   -3.1930    1.1830   -1.0780 C   0  0  0  0  0  0  0  0  0  0  0  0
   -3.0880    2.0760   -2.1380 O   0  0  0  0  0  0  0  0  0  0  0  0
   -2.3220    0.0350   -0.7890 C   0  0  0  0  0  0  0  0  0  0  0  0
   -0.9410   -0.3800   -1.8360 S   0  0  0  0  0  0  0  0  0  0  0  0
    0.0020   -1.7790   -1.2420 C   0  0  0  0  0  0  0  0  0  0  0  0
    0.7340   -1.4990    0.0420 C   0  0  0  0  0  0  0  0  0  0  0  0
    1.7040   -0.3760   -0.1160 C   0  0  0  0  0  0  0  0  0  0  0  0
    1.8900    0.2410   -1.1800 O   0  0  0  0  0  0  0  0  0  0  0  0
    2.4530   -0.0110    1.0470 N   0  0  0  0  0  0  0  0  0  0  0  0
    3.4160    1.0520    1.0160 C   0  0  0  0  0  0  0  0  0  0  0  0
    4.5310    0.7850    0.0220 C   0  0  0  0  0  0  0  0  0  0  0  0
    5.2180   -0.3890    0.3420 O   0  0  0  0  0  0  0  0  0  0  0  0
   -2.7440   -0.5740    0.3070 C   0  0  0  0  0  0  0  0  0  0  0  0
  1  2  2  0
  2  3  1  0
  2 16  1  0
  3  4  2  0
  4  5  1  0
  4  6  1  0
  6  7  1  0
  6 16  2  0
  7  8  1  0
  8  9  1  0
  9 10  1  0
 10 11  2  0
 10 12  1  0
 12 13  1  0
 13 14  1  0
 14 15  1  0
M  CHG  1   1   1
M  END
