
     RDKit          3D

 22 23  0  0  0  0  0  0  0  0999 V2000
   -6.0250    1.4440    0.1130 C   0  0  0  0  0  0  0  0  0  0  0  0
   -4.6280    1.4400    0.5980 C   0  0  0  0  0  0  0  0  0  0  0  0
   -4.0790    2.8420    1.2730 S   0  0  0  0  0  0  0  0  0  0  0  0
   -3.7490    0.2790    0.5030 C   0  0  0  0  0  0  0  0  0  0  0  0
   -3.9360   -1.0090    0.9370 C   0  0  0  0  0  0  0  0  0  0  0  0
   -5.1670   -1.4870    1.6350 C   0  0  0  0  0  0  0  0  0  0  0  0
   -2.8410   -1.7300    0.6240 N   0  0  0  0  0  0  0  0  0  0  0  0
   -1.9300   -0.9630   -0.0040 C   0  0  0  0  0  0  0  0  0  0  0  0
   -0.6730   -1.1940   -0.5240 C   0  0  0  0  0  0  0  0  0  0  0  0
    0.0390   -0.1940   -1.1230 C   0  0  0  0  0  0  0  0  0  0  0  0
    1.3060   -0.3700   -1.6620 O   0  0  0  0  0  0  0  0  0  0  0  0
    2.4310   -0.1730   -0.8750 C   0  0  0  0  0  0  0  0  0  0  0  0
    2.2320    0.1640    0.3200 O   0  0  0  0  0  0  0  0  0  0  0  0
    3.8170   -0.3540   -1.4220 C   0  0  0  0  0  0  0  0  0  0  0  0
    4.7280   -0.0930   -0.4180 O   0  0  0  0  0  0  0  0  0  0  0  0
    6.0180   -0.2560   -0.9100 C   0  0  0  0  0  0  0  0  0  0  0  0
    6.9580    0.0520    0.2620 C   0  0  0  0  0  0  0  0  0  0  0  0
    8.2820   -0.0760   -0.0980 O   0  0  0  0  0  0  0  0  0  0  0  0
   -0.5010    1.0870   -1.2180 C   0  0  0  0  0  0  0  0  0  0  0  0
    0.4400    2.5240   -2.0400 Br  0  0  0  0  0  0  0  0  0  0  0  0
   -1.7490    1.2830   -0.6930 C   0  0  0  0  0  0  0  0  0  0  0  0
   -2.4990    0.3010   -0.0810 C   0  0  0  0  0  0  0  0  0  0  0  0
  1  2  1  0
  2  3  2  0
  2  4  1  0
  4  5  2  0
  4 22  1  0
  5  6  1  0
  5  7  1  0
  7  8  1  0
  8  9  2  0
  8 22  1  0
  9 10  1  0
 10 11  1  0
 10 19  2  0
 11 12  1  0
 12 13  2  0
 12 14  1  0
 14 15  1  0
 15 16  1  0
 16 17  1  0
 17 18  1  0
 19 20  1  0
 19 21  1  0
 21 22  2  0
M  END
