
     RDKit          3D

 16 16  0  0  0  0  0  0  0  0999 V2000
   -6.9020    0.1690    0.9390 N   0  0  0  0  0  0  0  0  0  0  0  0
   -5.8000   -0.4950    0.2740 C   0  0  0  0  0  0  0  0  0  0  0  0
   -4.5180    0.2590    0.5100 C   0  0  0  0  0  0  0  0  0  0  0  0
   -3.4850   -0.4530   -0.1710 O   0  0  0  0  0  0  0  0  0  0  0  0
   -2.1620   -0.0010   -0.1430 C   0  0  0  0  0  0  0  0  0  0  0  0
   -1.9460    1.0580    0.5120 O   0  0  0  0  0  0  0  0  0  0  0  0
   -1.1060   -0.6800   -0.8080 N   0  0  0  0  0  0  0  0  0  0  0  0
    0.2490   -0.1150   -0.7120 C   0  0  0  0  0  0  0  0  0  0  0  0
    1.2400   -0.9350   -1.4570 C   0  0  0  0  0  0  0  0  0  0  0  0
    2.6060   -0.3220   -1.3550 C   0  0  0  0  0  0  0  0  0  0  0  0
    3.0370   -0.2490    0.0680 C   0  0  0  0  0  0  0  0  0  0  0  0
    4.3780    0.3300    0.2010 C   0  0  0  0  0  0  0  0  0  0  0  0
    5.1770    0.7590   -0.7370 C   0  0  0  0  0  0  0  0  0  0  0  0
    6.3810    1.2590   -0.3570 O   0  0  0  0  0  0  0  0  0  0  0  0
    6.9040    0.7910    0.8630 C   0  0  0  0  0  0  0  0  0  0  0  0
    5.2780    0.5800    1.7250 S   0  0  0  0  0  0  0  0  0  0  0  0
  1  2  1  0
  2  3  1  0
  3  4  1  0
  4  5  1  0
  5  6  2  0
  5  7  1  0
  7  8  1  0
  8  9  1  0
  9 10  1  0
 10 11  1  0
 11 12  1  0
 12 13  2  0
 12 16  1  0
 13 14  1  0
 14 15  1  0
 15 16  1  0
M  CHG  1   1   1
M  END
