
     RDKit          3D

 28 30  0  0  0  0  0  0  0  0999 V2000
   -6.8830    2.7060    1.0850 N   0  0  0  0  0  0  0  0  0  0  0  0
   -6.4120    2.0450   -0.0770 C   0  0  0  0  0  0  0  0  0  0  0  0
   -7.2090    1.9170   -1.0660 N   0  0  0  0  0  0  0  0  0  0  0  0
   -5.0480    1.5380   -0.0870 C   0  0  0  0  0  0  0  0  0  0  0  0
   -4.2260    1.7310    1.0220 C   0  0  0  0  0  0  0  0  0  0  0  0
   -2.9570    1.2530    1.0210 C   0  0  0  0  0  0  0  0  0  0  0  0
   -2.4030    0.5600   -0.0480 C   0  0  0  0  0  0  0  0  0  0  0  0
   -1.0300    0.1370    0.0640 C   0  0  0  0  0  0  0  0  0  0  0  0
   -0.6310   -1.0930   -0.1950 C   0  0  0  0  0  0  0  0  0  0  0  0
   -1.5730   -2.1400   -0.6200 C   0  0  0  0  0  0  0  0  0  0  0  0
   -1.3860   -3.4960   -0.0720 C   0  0  0  0  0  0  0  0  0  0  0  0
   -0.0580   -4.0380    0.2030 C   0  0  0  0  0  0  0  0  0  0  0  0
    1.0350   -3.7900   -0.7680 C   0  0  0  0  0  0  0  0  0  0  0  0
    1.6180   -2.4360   -0.4980 C   0  0  0  0  0  0  0  0  0  0  0  0
    2.9050   -2.2600   -0.6400 C   0  0  0  0  0  0  0  0  0  0  0  0
    3.5780   -0.9950   -0.4170 C   0  0  0  0  0  0  0  0  0  0  0  0
    4.6060   -0.8670    0.4970 C   0  0  0  0  0  0  0  0  0  0  0  0
    5.2980    0.3160    0.6600 C   0  0  0  0  0  0  0  0  0  0  0  0
    5.0020    1.4430   -0.0830 C   0  0  0  0  0  0  0  0  0  0  0  0
    5.7680    2.6730    0.1280 C   0  0  0  0  0  0  0  0  0  0  0  0
    6.8080    2.6800    1.1030 N   0  0  0  0  0  0  0  0  0  0  0  0
    5.5620    3.7680   -0.5160 N   0  0  0  0  0  0  0  0  0  0  0  0
    3.9790    1.3370   -1.0010 C   0  0  0  0  0  0  0  0  0  0  0  0
    3.2860    0.1300   -1.1550 C   0  0  0  0  0  0  0  0  0  0  0  0
    0.8290   -1.2990   -0.0250 C   0  0  0  0  0  0  0  0  0  0  0  0
    1.4800   -0.3990    0.5980 O   0  0  0  0  0  0  0  0  0  0  0  0
   -3.2200    0.3780   -1.1320 C   0  0  0  0  0  0  0  0  0  0  0  0
   -4.5320    0.8580   -1.1620 C   0  0  0  0  0  0  0  0  0  0  0  0
  1  2  1  0
  2  3  2  0
  2  4  1  0
  4  5  2  0
  4 28  1  0
  5  6  1  0
  6  7  2  0
  7  8  1  0
  7 27  1  0
  8  9  2  3
  9 10  1  0
  9 25  1  0
 10 11  1  0
 11 12  1  0
 12 13  1  0
 13 14  1  0
 14 15  2  3
 14 25  1  0
 15 16  1  0
 16 17  2  0
 16 24  1  0
 17 18  1  0
 18 19  2  0
 19 20  1  0
 19 23  1  0
 20 21  1  0
 20 22  2  0
 23 24  2  0
 25 26  2  0
 27 28  2  0
M  CHG  2   3   1  22   1
M  END
