
     RDKit          3D

 21 22  0  0  0  0  0  0  0  0999 V2000
   -4.8570    3.1780    0.4860 C   0  0  0  0  0  0  0  0  0  0  0  0
   -3.8770    2.4270    0.9550 C   0  0  0  0  0  0  0  0  0  0  0  0
   -4.0990    1.5240    2.5980 Br  0  0  0  0  0  0  0  0  0  0  0  0
   -2.6180    2.3220    0.2060 C   0  0  0  0  0  0  0  0  0  0  0  0
   -2.2250    1.1030   -0.2270 O   0  0  0  0  0  0  0  0  0  0  0  0
   -1.9940    0.1060    0.6650 C   0  0  0  0  0  0  0  0  0  0  0  0
   -1.5280   -1.1070   -0.1650 C   0  0  1  0  0  0  0  0  0  0  0  0
   -2.6530   -1.4070   -1.1230 C   0  0  0  0  0  0  0  0  0  0  0  0
   -2.2700   -2.8120   -2.1810 S   0  0  0  0  0  0  0  0  0  0  0  0
   -2.1710   -4.3020   -1.1610 C   0  0  0  0  0  0  0  0  0  0  0  0
   -0.3410   -0.8090   -0.8930 N   0  0  0  0  0  0  0  0  0  0  0  0
    0.9400   -0.5590   -0.3750 C   0  0  0  0  0  0  0  0  0  0  0  0
    1.2390   -0.8020    0.9340 C   0  0  0  0  0  0  0  0  0  0  0  0
    2.5110   -0.5400    1.4530 C   0  0  0  0  0  0  0  0  0  0  0  0
    3.5070   -0.0250    0.6540 C   0  0  0  0  0  0  0  0  0  0  0  0
    3.2100    0.2260   -0.6870 C   0  0  0  0  0  0  0  0  0  0  0  0
    1.9620   -0.0380   -1.1670 C   0  0  0  0  0  0  0  0  0  0  0  0
    4.2500    0.7430   -1.4440 O   0  0  0  0  0  0  0  0  0  0  0  0
    5.3210    1.4590   -0.8730 C   0  0  0  0  0  0  0  0  0  0  0  0
    5.7650    0.9160    0.4500 C   0  0  0  0  0  0  0  0  0  0  0  0
    4.7610    0.2360    1.1540 O   0  0  0  0  0  0  0  0  0  0  0  0
  1  2  2  0
  2  3  1  0
  2  4  1  0
  4  5  1  0
  5  6  1  0
  7  6  1  6
  7  8  1  0
  7 11  1  0
  8  9  1  0
  9 10  1  0
 11 12  1  0
 12 13  2  0
 12 17  1  0
 13 14  1  0
 14 15  2  0
 15 16  1  0
 15 21  1  0
 16 17  2  0
 16 18  1  0
 18 19  1  0
 19 20  1  0
 20 21  1  0
M  END
