
     RDKit          3D

 30 33  0  0  0  0  0  0  0  0999 V2000
    7.8230    1.4660   -1.4690 C   0  0  0  0  0  0  0  0  0  0  0  0
    6.9440    0.5900   -0.8230 O   0  0  0  0  0  0  0  0  0  0  0  0
    5.5870    0.7660   -0.6990 C   0  0  0  0  0  0  0  0  0  0  0  0
    5.1480    1.8580   -1.2090 O   0  0  0  0  0  0  0  0  0  0  0  0
    4.7000   -0.1780   -0.0660 C   0  0  0  0  0  0  0  0  0  0  0  0
    5.2580   -1.3360    0.4850 C   0  0  0  0  0  0  0  0  0  0  0  0
    6.7310   -1.5950    0.3940 C   0  0  0  0  0  0  0  0  0  0  0  0
    7.3090   -1.3550    1.6880 O   0  0  0  0  0  0  0  0  0  0  0  0
    4.5000   -2.2320    1.0650 O   0  0  0  0  0  0  0  0  0  0  0  0
    3.2140   -2.0610    1.1340 C   0  0  0  0  0  0  0  0  0  0  0  0
    2.5490   -2.9600    1.6910 O   0  0  0  0  0  0  0  0  0  0  0  0
    2.5660   -0.9370    0.6200 C   0  0  0  0  0  0  0  0  0  0  0  0
    3.3440    0.0340   -0.0000 C   0  0  0  0  0  0  0  0  0  0  0  0
    2.7740    1.3260   -0.4500 C   0  0  0  0  0  0  0  0  0  0  0  0
    1.3130    1.4030    0.0260 C   0  0  0  0  0  0  0  0  0  0  0  0
    0.6940    0.1140   -0.4530 C   0  0  2  0  0  0  0  0  0  0  0  0
   -0.7440    0.1240   -0.6990 C   0  0  0  0  0  0  0  0  0  0  0  0
   -1.2020   -0.3230   -1.9420 C   0  0  0  0  0  0  0  0  0  0  0  0
   -2.5410   -0.3720   -2.2640 C   0  0  0  0  0  0  0  0  0  0  0  0
   -3.4760    0.0430   -1.3010 C   0  0  0  0  0  0  0  0  0  0  0  0
   -4.8260    0.1020   -1.3210 N   0  0  0  0  0  0  0  0  0  0  0  0
   -5.3110    0.5900   -0.1280 C   0  0  0  0  0  0  0  0  0  0  0  0
   -6.7280    0.7710    0.2540 C   0  0  0  0  0  0  0  0  0  0  0  0
   -7.3120   -0.2500    1.2040 C   0  0  0  0  0  0  0  0  0  0  0  0
   -8.7680    0.1630    1.4180 C   0  0  0  0  0  0  0  0  0  0  0  0
   -8.7480    1.4660    1.9280 O   0  0  0  0  0  0  0  0  0  0  0  0
   -4.1660    0.8090    0.6250 C   0  0  0  0  0  0  0  0  0  0  0  0
   -3.0410    0.4790   -0.0890 C   0  0  0  0  0  0  0  0  0  0  0  0
   -1.6890    0.5140    0.1910 C   0  0  0  0  0  0  0  0  0  0  0  0
    1.0980   -0.9170    0.6510 C   0  0  0  0  0  0  0  0  0  0  0  0
  1  2  1  0
  2  3  1  0
  3  4  2  0
  3  5  1  0
  5  6  2  0
  5 13  1  0
  6  7  1  0
  6  9  1  0
  7  8  1  0
  9 10  1  0
 10 11  2  0
 10 12  1  0
 12 13  2  0
 12 30  1  0
 13 14  1  0
 14 15  1  0
 15 16  1  0
 16 17  1  1
 16 30  1  0
 17 18  2  0
 17 29  1  0
 18 19  1  0
 19 20  2  0
 20 21  1  0
 20 28  1  0
 21 22  1  0
 22 23  1  0
 22 27  2  0
 23 24  1  0
 24 25  1  0
 25 26  1  0
 27 28  1  0
 28 29  2  0
M  END
