
     RDKit          3D

 30 33  0  0  0  0  0  0  0  0999 V2000
   -4.2990    3.7520   -2.1440 C   0  0  0  0  0  0  0  0  0  0  0  0
   -4.1120    2.5720   -1.3830 O   0  0  0  0  0  0  0  0  0  0  0  0
   -2.9650    1.8280   -1.3900 C   0  0  0  0  0  0  0  0  0  0  0  0
   -1.9990    2.1770   -2.0960 O   0  0  0  0  0  0  0  0  0  0  0  0
   -2.8260    0.6070   -0.5770 C   0  0  0  0  0  0  0  0  0  0  0  0
   -1.8160   -0.1940   -0.4780 O   0  0  0  0  0  0  0  0  0  0  0  0
   -2.0100   -1.1850    0.3260 C   0  0  0  0  0  0  0  0  0  0  0  0
   -1.1580   -2.3230    0.7420 C   0  0  0  0  0  0  0  0  0  0  0  0
    0.1020   -2.3360    0.1610 O   0  0  0  0  0  0  0  0  0  0  0  0
    1.0920   -1.4110    0.2370 C   0  0  0  0  0  0  0  0  0  0  0  0
    0.9720   -0.2480    0.9590 C   0  0  0  0  0  0  0  0  0  0  0  0
    1.9580    0.7070    1.0550 C   0  0  0  0  0  0  0  0  0  0  0  0
    3.1380    0.4840    0.3870 C   0  0  0  0  0  0  0  0  0  0  0  0
    3.3010   -0.6820   -0.3550 C   0  0  0  0  0  0  0  0  0  0  0  0
    2.2950   -1.6290   -0.4380 C   0  0  0  0  0  0  0  0  0  0  0  0
    2.4030   -2.8640   -1.1950 C   0  0  0  0  0  0  0  0  0  0  0  0
    3.4940   -3.1610   -1.8640 C   0  0  0  0  0  0  0  0  0  0  0  0
    3.5910   -4.4460   -2.6440 C   0  0  0  0  0  0  0  0  0  0  0  0
    2.4290   -5.1840   -2.5360 O   0  0  0  0  0  0  0  0  0  0  0  0
    4.2600    1.4580    0.4320 C   0  0  0  0  0  0  0  0  0  0  0  0
    3.8200    2.7880    0.9480 C   0  0  1  0  0  0  0  0  0  0  0  0
    2.9110    3.5200   -0.0310 C   0  0  0  0  0  0  0  0  0  0  0  0
    2.9990    2.6040    2.2260 C   0  0  0  0  0  0  0  0  0  0  0  0
    1.7850    1.9080    1.8220 N   0  0  0  0  0  0  0  0  0  0  0  0
   -3.3050   -1.0160    0.8150 C   0  0  0  0  0  0  0  0  0  0  0  0
   -4.3100   -1.4950    1.6330 C   0  0  0  0  0  0  0  0  0  0  0  0
   -5.3720   -0.6240    1.5080 C   0  0  0  0  0  0  0  0  0  0  0  0
   -6.6770   -0.7570    2.2200 C   0  0  0  0  0  0  0  0  0  0  0  0
   -5.0260    0.3180    0.6680 O   0  0  0  0  0  0  0  0  0  0  0  0
   -3.8110    0.1110    0.2440 C   0  0  0  0  0  0  0  0  0  0  0  0
  1  2  1  0
  2  3  1  0
  3  4  2  0
  3  5  1  0
  5  6  1  0
  5 30  2  0
  6  7  1  0
  7  8  1  0
  7 25  2  0
  8  9  1  0
  9 10  1  0
 10 11  2  0
 10 15  1  0
 11 12  1  0
 12 13  2  0
 12 24  1  0
 13 14  1  0
 13 20  1  0
 14 15  2  0
 15 16  1  0
 16 17  2  3
 17 18  1  0
 18 19  1  0
 20 21  1  0
 21 22  1  6
 21 23  1  0
 23 24  1  0
 25 26  1  0
 25 30  1  0
 26 27  2  0
 27 28  1  0
 27 29  1  0
 29 30  1  0
M  END
