
     RDKit          3D

 30 33  0  0  0  0  0  0  0  0999 V2000
   -4.2580   -3.6780    0.2850 C   0  0  0  0  0  0  0  0  0  0  0  0
   -4.3160   -2.4930   -0.5090 O   0  0  0  0  0  0  0  0  0  0  0  0
   -3.2870   -1.4800   -0.3210 C   0  0  0  0  0  0  0  0  0  0  0  0
   -2.1030   -1.9440   -0.4980 C   0  0  0  0  0  0  0  0  0  0  0  0
   -0.7320   -1.5520   -0.4790 C   0  0  0  0  0  0  0  0  0  0  0  0
    0.1630   -2.5060   -0.7500 O   0  0  0  0  0  0  0  0  0  0  0  0
   -0.0800   -0.3480   -0.2310 N   0  0  0  0  0  0  0  0  0  0  0  0
    1.3310   -0.1100   -0.2350 C   0  0  0  0  0  0  0  0  0  0  0  0
    1.8120    1.1790   -0.4640 C   0  0  0  0  0  0  0  0  0  0  0  0
    3.1560    1.5160   -0.4620 C   0  0  0  0  0  0  0  0  0  0  0  0
    4.0800    0.5390   -0.2230 C   0  0  0  0  0  0  0  0  0  0  0  0
    5.4440    0.8420   -0.2130 C   0  0  0  0  0  0  0  0  0  0  0  0
    6.3590   -0.1870    0.0350 C   0  0  0  0  0  0  0  0  0  0  0  0
    5.9030   -1.4840    0.2670 C   0  0  0  0  0  0  0  0  0  0  0  0
    4.5590   -1.7510    0.2510 C   0  0  0  0  0  0  0  0  0  0  0  0
    3.6360   -0.7610    0.0100 C   0  0  0  0  0  0  0  0  0  0  0  0
    2.2690   -1.0690    0.0010 C   0  0  0  0  0  0  0  0  0  0  0  0
    7.6570    0.0630    0.0520 C   0  0  0  0  0  0  0  0  0  0  0  0
    8.1390    1.3300   -0.1730 O   0  0  0  0  0  0  0  0  0  0  0  0
    7.3190    2.4170   -0.4280 C   0  0  0  0  0  0  0  0  0  0  0  0
    5.8500    2.0660   -0.4330 C   0  0  0  0  0  0  0  0  0  0  0  0
   -3.7990   -0.2160    0.0180 C   0  0  0  0  0  0  0  0  0  0  0  0
   -2.8760    0.8180    0.2570 O   0  0  0  0  0  0  0  0  0  0  0  0
   -5.0690    0.1490    0.1480 C   0  0  0  0  0  0  0  0  0  0  0  0
   -5.4890    1.5400    0.5230 C   0  0  0  0  0  0  0  0  0  0  0  0
   -6.8010    1.6050    0.5450 C   0  0  0  0  0  0  0  0  0  0  0  0
   -7.5780    2.8340    0.8770 C   0  0  0  0  0  0  0  0  0  0  0  0
   -7.3500    0.3970    0.2230 O   0  0  0  0  0  0  0  0  0  0  0  0
   -6.3180   -0.5420   -0.0330 C   0  0  0  0  0  0  0  0  0  0  0  0
   -6.5570   -1.7260   -0.3520 O   0  0  0  0  0  0  0  0  0  0  0  0
  1  2  1  0
  2  3  1  0
  3  4  2  3
  3 22  1  0
  4  5  1  0
  5  6  2  0
  5  7  1  0
  7  8  1  0
  8  9  2  0
  8 17  1  0
  9 10  1  0
 10 11  2  0
 11 12  1  0
 11 16  1  0
 12 13  1  0
 12 21  2  0
 13 14  1  0
 13 18  2  0
 14 15  2  0
 15 16  1  0
 16 17  2  0
 18 19  1  0
 19 20  1  0
 20 21  1  0
 22 23  1  0
 22 24  2  3
 24 25  1  0
 24 29  1  0
 25 26  2  0
 26 27  1  0
 26 28  1  0
 28 29  1  0
 29 30  2  0
M  END
