
     RDKit          3D

 30 33  0  0  0  0  0  0  0  0999 V2000
    7.2150    1.1000    2.4680 C   0  0  0  0  0  0  0  0  0  0  0  0
    6.0140    1.1020    1.5540 C   0  0  0  0  0  0  0  0  0  0  0  0
    5.8730   -0.2140    0.8200 C   0  0  0  0  0  0  0  0  0  0  0  0
    4.6810   -0.1720   -0.0590 C   0  0  0  0  0  0  0  0  0  0  0  0
    3.3980   -0.3270    0.4150 C   0  0  0  0  0  0  0  0  0  0  0  0
    3.1420   -0.5750    1.8330 C   0  0  0  0  0  0  0  0  0  0  0  0
    2.3380   -0.2610   -0.4660 C   0  0  0  0  0  0  0  0  0  0  0  0
    2.5360   -0.0440   -1.8090 C   0  0  0  0  0  0  0  0  0  0  0  0
    3.7890    0.1000   -2.2210 O   0  0  0  0  0  0  0  0  0  0  0  0
    4.8160    0.0430   -1.4160 C   0  0  0  0  0  0  0  0  0  0  0  0
    6.0110    0.1850   -1.8430 O   0  0  0  0  0  0  0  0  0  0  0  0
    1.4660    0.0420   -2.8180 C   0  0  0  0  0  0  0  0  0  0  0  0
    0.1270   -0.1350   -2.2330 C   0  0  0  0  0  0  0  0  0  0  0  0
   -1.0750   -0.1180   -2.8600 N   0  0  0  0  0  0  0  0  0  0  0  0
   -2.0650   -0.3230   -1.9450 C   0  0  0  0  0  0  0  0  0  0  0  0
   -1.5180   -0.4770   -0.6990 C   0  0  0  0  0  0  0  0  0  0  0  0
   -0.1340   -0.3540   -0.9080 C   0  0  0  0  0  0  0  0  0  0  0  0
    0.9710   -0.4220    0.0140 C   0  0  0  0  0  0  0  0  0  0  0  0
    0.7270   -0.6200    1.2130 O   0  0  0  0  0  0  0  0  0  0  0  0
   -2.1290   -0.7240    0.6320 C   0  0  0  0  0  0  0  0  0  0  0  0
   -3.4000   -1.4810    0.4330 C   0  0  0  0  0  0  0  0  0  0  0  0
   -4.5670   -0.6680   -0.0540 C   0  0  1  0  0  0  0  0  0  0  0  0
   -4.5980    0.7180    0.4250 C   0  0  0  0  0  0  0  0  0  0  0  0
   -3.5720    1.5470   -0.1230 O   0  0  0  0  0  0  0  0  0  0  0  0
   -5.4020    1.3050    1.2570 C   0  0  0  0  0  0  0  0  0  0  0  0
   -6.5490    0.7700    1.9950 C   0  0  0  0  0  0  0  0  0  0  0  0
   -6.8700   -0.5370    1.8250 O   0  0  0  0  0  0  0  0  0  0  0  0
   -4.7060   -0.7410   -1.5700 C   0  0  0  0  0  0  0  0  0  0  0  0
   -3.4920   -0.3630   -2.2770 C   0  0  0  0  0  0  0  0  0  0  0  0
   -3.7130    0.0280   -3.4740 O   0  0  0  0  0  0  0  0  0  0  0  0
  1  2  1  0
  2  3  1  0
  3  4  1  0
  4  5  2  0
  4 10  1  0
  5  6  1  0
  5  7  1  0
  7  8  2  0
  7 18  1  0
  8  9  1  0
  8 12  1  0
  9 10  1  0
 10 11  2  0
 12 13  1  0
 13 14  1  0
 13 17  2  0
 14 15  1  0
 15 16  2  0
 15 29  1  0
 16 17  1  0
 16 20  1  0
 17 18  1  0
 18 19  2  0
 20 21  1  0
 21 22  1  0
 22 23  1  6
 22 28  1  0
 23 24  1  0
 23 25  2  3
 25 26  1  0
 26 27  1  0
 28 29  1  0
 29 30  2  0
M  END
