
     RDKit          3D

 31 34  0  0  0  0  0  0  0  0999 V2000
    4.7380   -2.3630    0.8360 O   0  0  0  0  0  0  0  0  0  0  0  0
    3.5520   -2.4870    0.7000 C   0  0  0  0  0  0  0  0  0  0  0  0
    2.8470   -3.6410    1.2960 C   0  0  0  0  0  0  0  0  0  0  0  0
    1.3320   -3.4660    1.1620 C   0  0  0  0  0  0  0  0  0  0  0  0
    0.9460   -2.0610    1.4560 C   0  0  0  0  0  0  0  0  0  0  0  0
    0.0120   -1.8470    2.2010 O   0  0  0  0  0  0  0  0  0  0  0  0
    1.6800   -0.9500    0.8580 C   0  0  2  0  0  0  0  0  0  0  0  0
    0.9040   -0.0430    0.0890 O   0  0  0  0  0  0  0  0  0  0  0  0
    0.8810    1.3030    0.3460 C   0  0  0  0  0  0  0  0  0  0  0  0
    1.5820    1.6770    1.3130 O   0  0  0  0  0  0  0  0  0  0  0  0
    0.1140    2.3080   -0.4410 C   0  0  0  0  0  0  0  0  0  0  0  0
   -0.7020    1.8570   -1.4480 C   0  0  0  0  0  0  0  0  0  0  0  0
   -1.4200    0.6970   -1.7910 N   0  0  0  0  0  0  0  0  0  0  0  0
   -1.9110   -0.3290   -0.9770 C   0  0  0  0  0  0  0  0  0  0  0  0
   -1.7770   -0.3030    0.2630 O   0  0  0  0  0  0  0  0  0  0  0  0
   -2.6280   -1.5200   -1.5580 C   0  0  0  0  0  0  0  0  0  0  0  0
   -3.0610   -2.4480   -0.4230 C   0  0  0  0  0  0  0  0  0  0  0  0
   -4.2200   -2.3310    0.2030 C   0  0  0  0  0  0  0  0  0  0  0  0
   -4.5340   -3.2280    1.2240 C   0  0  0  0  0  0  0  0  0  0  0  0
   -3.0650   -4.2780    1.2600 S   0  0  0  0  0  0  0  0  0  0  0  0
   -2.1810   -3.4790   -0.0330 C   0  0  0  0  0  0  0  0  0  0  0  0
   -1.1370    3.4030   -2.3690 S   0  0  0  0  0  0  0  0  0  0  0  0
   -0.1710    4.4760   -1.2680 C   0  0  0  0  0  0  0  0  0  0  0  0
   -0.0300    5.8490   -1.3430 C   0  0  0  0  0  0  0  0  0  0  0  0
    0.7460    6.4770   -0.3950 C   0  0  0  0  0  0  0  0  0  0  0  0
    0.9450    8.3610   -0.4900 Br  0  0  0  0  0  0  0  0  0  0  0  0
    1.3160    5.6820    0.5490 C   0  0  0  0  0  0  0  0  0  0  0  0
    2.3100    6.4980    1.7640 Cl  0  0  0  0  0  0  0  0  0  0  0  0
    1.1580    4.3160    0.5980 C   0  0  0  0  0  0  0  0  0  0  0  0
    0.3600    3.6420   -0.3730 C   0  0  0  0  0  0  0  0  0  0  0  0
    2.7750   -1.4890   -0.0630 C   0  0  0  0  0  0  0  0  0  0  0  0
  1  2  2  0
  2  3  1  0
  2 31  1  0
  3  4  1  0
  4  5  1  0
  5  6  2  0
  5  7  1  0
  7  8  1  6
  7 31  1  0
  8  9  1  0
  9 10  2  0
  9 11  1  0
 11 12  2  0
 11 30  1  0
 12 13  1  0
 12 22  1  0
 13 14  1  0
 14 15  2  0
 14 16  1  0
 16 17  1  0
 17 18  1  0
 17 21  2  0
 18 19  2  0
 19 20  1  0
 20 21  1  0
 22 23  1  0
 23 24  2  0
 23 30  1  0
 24 25  1  0
 25 26  1  0
 25 27  2  0
 27 28  1  0
 27 29  1  0
 29 30  2  0
M  END
