
     RDKit          3D

 31 34  0  0  0  0  0  0  0  0999 V2000
    0.5410    1.4340    1.5090 O   0  0  0  0  0  0  0  0  0  0  0  0
   -0.0290    0.9010    0.5400 C   0  0  0  0  0  0  0  0  0  0  0  0
   -1.5340    0.9630    0.5630 C   0  0  0  0  0  0  0  0  0  0  0  0
   -2.1990    0.1530   -0.8990 S   0  0  0  0  0  0  0  0  0  0  0  0
   -3.9890    0.2560   -0.8220 C   0  0  0  0  0  0  0  0  0  0  0  0
   -4.6660    1.3220   -1.3750 C   0  0  0  0  0  0  0  0  0  0  0  0
   -6.0410    1.4190   -1.3260 C   0  0  0  0  0  0  0  0  0  0  0  0
   -6.8010    0.4440   -0.7160 C   0  0  0  0  0  0  0  0  0  0  0  0
   -8.1790    0.5130   -0.6510 C   0  0  0  0  0  0  0  0  0  0  0  0
   -8.8730   -0.4990   -0.0240 C   0  0  0  0  0  0  0  0  0  0  0  0
   -8.2510   -1.5900    0.5470 C   0  0  0  0  0  0  0  0  0  0  0  0
   -6.8750   -1.6310    0.4660 C   0  0  0  0  0  0  0  0  0  0  0  0
   -6.1350   -0.6280   -0.1580 C   0  0  0  0  0  0  0  0  0  0  0  0
   -4.7430   -0.7230   -0.2100 C   0  0  0  0  0  0  0  0  0  0  0  0
    0.6680    0.2820   -0.5060 N   0  0  0  0  0  0  0  0  0  0  0  0
    2.0630    0.1910   -0.5840 C   0  0  0  0  0  0  0  0  0  0  0  0
    2.9650    0.6780    0.3210 C   0  0  0  0  0  0  0  0  0  0  0  0
    4.3530    0.5430    0.1650 C   0  0  0  0  0  0  0  0  0  0  0  0
    4.8120   -0.1000   -0.9370 C   0  0  0  0  0  0  0  0  0  0  0  0
    3.9130   -0.5970   -1.8610 C   0  0  0  0  0  0  0  0  0  0  0  0
    2.5570   -0.4730   -1.7220 C   0  0  0  0  0  0  0  0  0  0  0  0
    1.4810   -1.1280   -2.9330 Cl  0  0  0  0  0  0  0  0  0  0  0  0
    6.1950   -0.2270   -1.0800 O   0  0  0  0  0  0  0  0  0  0  0  0
    7.0950    0.6200   -0.3980 C   0  0  0  0  0  0  0  0  0  0  0  0
    6.6290    1.0090    0.9750 C   0  0  2  0  0  0  0  0  0  0  0  0
    7.1970    0.1040    1.9930 C   0  0  0  0  0  0  0  0  0  0  0  0
    6.4510   -0.4940    2.7890 O   0  0  0  0  0  0  0  0  0  0  0  0
    8.5640   -0.0850    2.0700 O   0  0  0  0  0  0  0  0  0  0  0  0
    9.1740   -1.1630    3.2890 S   0  0  0  0  0  0  0  0  0  0  0  0
   11.4380   -1.0420    3.3390 Br  0  0  0  0  0  0  0  0  0  0  0  0
    5.2240    1.0420    1.0890 O   0  0  0  0  0  0  0  0  0  0  0  0
  1  2  2  0
  2  3  1  0
  2 15  1  0
  3  4  1  0
  4  5  1  0
  5  6  2  0
  5 14  1  0
  6  7  1  0
  7  8  2  0
  8  9  1  0
  8 13  1  0
  9 10  2  0
 10 11  1  0
 11 12  2  0
 12 13  1  0
 13 14  2  0
 15 16  1  0
 16 17  2  0
 16 21  1  0
 17 18  1  0
 18 19  2  0
 18 31  1  0
 19 20  1  0
 19 23  1  0
 20 21  2  0
 21 22  1  0
 23 24  1  0
 24 25  1  0
 25 26  1  1
 25 31  1  0
 26 27  2  0
 26 28  1  0
 28 29  1  0
 29 30  1  0
M  END
