
     RDKit          3D

 31 33  0  0  0  0  0  0  0  0999 V2000
    8.0590   -0.4540   -2.0650 C   0  0  0  0  0  0  0  0  0  0  0  0
    6.5910   -0.3850   -2.4560 C   0  0  0  0  0  0  0  0  0  0  0  0
    5.8490   -0.4170   -1.2400 O   0  0  0  0  0  0  0  0  0  0  0  0
    5.9910    0.5380   -0.2590 C   0  0  0  0  0  0  0  0  0  0  0  0
    6.8100    1.4650   -0.4600 O   0  0  0  0  0  0  0  0  0  0  0  0
    5.2430    0.5190    0.9850 C   0  0  0  0  0  0  0  0  0  0  0  0
    4.3410   -0.4600    1.2610 N   0  0  0  0  0  0  0  0  0  0  0  0
    3.6490   -0.4760    2.4130 C   0  0  0  0  0  0  0  0  0  0  0  0
    2.4590   -1.7450    2.8070 S   0  0  0  0  0  0  0  0  0  0  0  0
    0.8540   -1.1880    2.1950 C   0  0  0  0  0  0  0  0  0  0  0  0
    0.8600   -1.1320    0.6810 C   0  0  0  0  0  0  0  0  0  0  0  0
   -0.4760   -0.6630    0.1710 C   0  0  0  0  0  0  0  0  0  0  0  0
   -1.6080   -1.3850   -0.1570 C   0  0  0  0  0  0  0  0  0  0  0  0
   -2.6770   -0.7320   -0.5920 C   0  0  0  0  0  0  0  0  0  0  0  0
   -2.5920    0.6540   -0.6930 C   0  0  0  0  0  0  0  0  0  0  0  0
   -3.6250    1.6250   -1.1390 C   0  0  2  0  0  0  0  0  0  0  0  0
   -3.5740    2.7090   -0.2640 O   0  0  0  0  0  0  0  0  0  0  0  0
   -4.9330    0.9110   -1.0300 C   0  0  0  0  0  0  0  0  0  0  0  0
   -5.5780    0.5830    0.1380 C   0  0  0  0  0  0  0  0  0  0  0  0
   -6.7400   -0.0620   -0.2090 C   0  0  0  0  0  0  0  0  0  0  0  0
   -7.6510   -0.5410    0.6310 C   0  0  0  0  0  0  0  0  0  0  0  0
   -7.3570   -0.3410    2.3600 Cl  0  0  0  0  0  0  0  0  0  0  0  0
   -6.7630   -0.1040   -1.5800 C   0  0  0  0  0  0  0  0  0  0  0  0
   -7.7020   -0.6370   -2.3780 C   0  0  0  0  0  0  0  0  0  0  0  0
   -8.8430   -1.2530   -1.9180 O   0  0  0  0  0  0  0  0  0  0  0  0
   -5.6780    0.4810   -2.0020 O   0  0  0  0  0  0  0  0  0  0  0  0
   -0.9810    1.0040   -0.1620 S   0  0  0  0  0  0  0  0  0  0  0  0
    3.8600    0.5270    3.3390 C   0  0  0  0  0  0  0  0  0  0  0  0
    4.7680    1.5520    3.1120 C   0  0  0  0  0  0  0  0  0  0  0  0
    5.4440    1.5120    1.9150 C   0  0  0  0  0  0  0  0  0  0  0  0
    6.7060    2.8910    1.5410 Br  0  0  0  0  0  0  0  0  0  0  0  0
  1  2  1  0
  2  3  1  0
  3  4  1  0
  4  5  2  0
  4  6  1  0
  6  7  2  0
  6 30  1  0
  7  8  1  0
  8  9  1  0
  8 28  2  0
  9 10  1  0
 10 11  1  0
 11 12  1  0
 12 13  2  0
 12 27  1  0
 13 14  1  0
 14 15  2  0
 15 16  1  0
 15 27  1  0
 16 17  1  1
 16 18  1  0
 18 19  2  0
 18 26  1  0
 19 20  1  0
 20 21  2  3
 20 23  1  0
 21 22  1  0
 23 24  2  3
 23 26  1  0
 24 25  1  0
 28 29  1  0
 29 30  2  0
 30 31  1  0
M  END
