
     RDKit          3D

 30 33  0  0  0  0  0  0  0  0999 V2000
   -6.2250    2.9030   -1.3410 C   0  0  0  0  0  0  0  0  0  0  0  0
   -5.2630    1.9590   -0.8220 O   0  0  0  0  0  0  0  0  0  0  0  0
   -5.6260    0.6730   -0.4230 C   0  0  0  0  0  0  0  0  0  0  0  0
   -6.8650    0.4320   -0.5940 O   0  0  0  0  0  0  0  0  0  0  0  0
   -4.6920   -0.2740    0.1370 C   0  0  0  0  0  0  0  0  0  0  0  0
   -5.0970   -1.5610    0.4850 C   0  0  0  0  0  0  0  0  0  0  0  0
   -6.4160   -2.0510    0.1210 C   0  0  0  0  0  0  0  0  0  0  0  0
   -6.3400   -3.0020   -0.9300 O   0  0  0  0  0  0  0  0  0  0  0  0
   -4.2660   -2.3380    1.1950 O   0  0  0  0  0  0  0  0  0  0  0  0
   -3.0790   -1.9750    1.6000 C   0  0  0  0  0  0  0  0  0  0  0  0
   -2.3370   -2.7250    2.2700 O   0  0  0  0  0  0  0  0  0  0  0  0
   -2.6080   -0.7220    1.3000 C   0  0  0  0  0  0  0  0  0  0  0  0
   -3.4570    0.1040    0.5420 C   0  0  0  0  0  0  0  0  0  0  0  0
   -2.7700    1.2610   -0.0860 C   0  0  0  0  0  0  0  0  0  0  0  0
   -1.3260    0.6750   -0.4540 C   0  0  0  0  0  0  0  0  0  0  0  0
   -0.5640    0.5280    0.8150 C   0  0  2  0  0  0  0  0  0  0  0  0
    0.7720   -0.0330    0.7280 C   0  0  0  0  0  0  0  0  0  0  0  0
    1.1200   -0.9880    1.7150 C   0  0  0  0  0  0  0  0  0  0  0  0
    2.3840   -1.4880    1.7500 C   0  0  0  0  0  0  0  0  0  0  0  0
    3.3390   -1.0630    0.8110 C   0  0  0  0  0  0  0  0  0  0  0  0
    4.6210   -1.4050    0.7040 N   0  0  0  0  0  0  0  0  0  0  0  0
    5.1750   -0.7060   -0.3570 C   0  0  0  0  0  0  0  0  0  0  0  0
    6.5980   -0.9260   -0.7440 C   0  0  0  0  0  0  0  0  0  0  0  0
    7.2750    0.1630   -1.4750 C   0  0  0  0  0  0  0  0  0  0  0  0
    7.4140    1.4190   -0.6440 C   0  0  0  0  0  0  0  0  0  0  0  0
    6.1750    1.8750   -0.2690 O   0  0  0  0  0  0  0  0  0  0  0  0
    4.1670    0.0710   -0.8750 C   0  0  0  0  0  0  0  0  0  0  0  0
    3.0290   -0.1460   -0.1460 C   0  0  0  0  0  0  0  0  0  0  0  0
    1.7150    0.3790   -0.1880 C   0  0  0  0  0  0  0  0  0  0  0  0
   -1.4390   -0.0400    1.8940 C   0  0  0  0  0  0  0  0  0  0  0  0
  1  2  1  0
  2  3  1  0
  3  4  2  0
  3  5  1  0
  5  6  2  0
  5 13  1  0
  6  7  1  0
  6  9  1  0
  7  8  1  0
  9 10  1  0
 10 11  2  0
 10 12  1  0
 12 13  2  0
 12 30  1  0
 13 14  1  0
 14 15  1  0
 15 16  1  0
 16 17  1  6
 16 30  1  0
 17 18  2  0
 17 29  1  0
 18 19  1  0
 19 20  2  0
 20 21  1  0
 20 28  1  0
 21 22  1  0
 22 23  1  0
 22 27  2  0
 23 24  1  0
 24 25  1  0
 25 26  1  0
 27 28  1  0
 28 29  2  0
M  END
