
     RDKit          3D

 30 33  0  0  0  0  0  0  0  0999 V2000
   -4.4390    3.2450    0.7040 C   0  0  0  0  0  0  0  0  0  0  0  0
   -5.8170    2.6880    0.4430 C   0  0  0  0  0  0  0  0  0  0  0  0
   -6.0160    1.4240    1.0000 O   0  0  0  0  0  0  0  0  0  0  0  0
   -5.2670    0.3040    0.6740 C   0  0  0  0  0  0  0  0  0  0  0  0
   -4.2390    0.3020   -0.2400 C   0  0  0  0  0  0  0  0  0  0  0  0
   -3.5000   -0.8450   -0.5480 C   0  0  0  0  0  0  0  0  0  0  0  0
   -3.7980   -2.0320    0.0800 C   0  0  0  0  0  0  0  0  0  0  0  0
   -3.0290   -3.2670   -0.2190 C   0  0  0  0  0  0  0  0  0  0  0  0
   -1.8750   -2.9310   -0.9150 O   0  0  0  0  0  0  0  0  0  0  0  0
   -0.8680   -2.1180   -0.4810 C   0  0  0  0  0  0  0  0  0  0  0  0
   -0.9640   -1.6050    0.6600 O   0  0  0  0  0  0  0  0  0  0  0  0
    0.3050   -1.8470   -1.3340 C   0  0  0  0  0  0  0  0  0  0  0  0
    1.3320   -1.0700   -1.0070 C   0  0  0  0  0  0  0  0  0  0  0  0
    2.3040   -1.0320   -2.0830 C   0  0  0  0  0  0  0  0  0  0  0  0
    3.4280   -0.3630   -2.0820 C   0  0  0  0  0  0  0  0  0  0  0  0
    3.9350    0.4750   -1.0080 C   0  0  0  0  0  0  0  0  0  0  0  0
    3.9010    0.1470    0.3300 C   0  0  0  0  0  0  0  0  0  0  0  0
    4.4780    1.2150    0.9940 C   0  0  0  0  0  0  0  0  0  0  0  0
    4.8400    2.1460    0.0440 C   0  0  0  0  0  0  0  0  0  0  0  0
    4.5000    1.6640   -1.1100 O   0  0  0  0  0  0  0  0  0  0  0  0
    5.4860    3.3800    0.5820 C   0  0  0  0  0  0  0  0  0  0  0  0
    6.6090    2.8660    1.4940 C   0  0  0  0  0  0  0  0  0  0  0  0
    6.1390    2.0130    2.5360 N   0  0  0  0  0  0  0  0  0  0  0  0
    4.7820    1.5710    2.4050 C   0  0  0  0  0  0  0  0  0  0  0  0
    1.8020   -1.8390   -3.0930 O   0  0  0  0  0  0  0  0  0  0  0  0
    0.5630   -2.3800   -2.6930 C   0  0  1  0  0  0  0  0  0  0  0  0
    0.7160   -3.8870   -2.6840 C   0  0  0  0  0  0  0  0  0  0  0  0
   -4.8380   -2.0410    1.0080 C   0  0  0  0  0  0  0  0  0  0  0  0
   -5.5600   -0.9080    1.3050 C   0  0  0  0  0  0  0  0  0  0  0  0
   -6.5960   -0.9460    2.2380 O   0  0  0  0  0  0  0  0  0  0  0  0
  1  2  1  0
  2  3  1  0
  3  4  1  0
  4  5  2  0
  4 29  1  0
  5  6  1  0
  6  7  2  0
  7  8  1  0
  7 28  1  0
  8  9  1  0
  9 10  1  0
 10 11  2  0
 10 12  1  0
 12 13  2  0
 12 26  1  0
 13 14  1  0
 14 15  2  3
 14 25  1  0
 15 16  1  0
 16 17  2  0
 16 20  1  0
 17 18  1  0
 18 19  2  0
 18 24  1  0
 19 20  1  0
 19 21  1  0
 21 22  1  0
 22 23  1  0
 23 24  1  0
 25 26  1  0
 26 27  1  1
 28 29  2  0
 29 30  1  0
M  END
