
     RDKit          3D

 30 33  0  0  0  0  0  0  0  0999 V2000
    0.3120    4.2350   -0.4410 C   0  0  0  0  0  0  0  0  0  0  0  0
   -0.1120    2.9760   -1.1760 C   0  0  0  0  0  0  0  0  0  0  0  0
   -1.1280    2.3190   -0.3490 C   0  0  0  0  0  0  0  0  0  0  0  0
   -0.9600    1.1390    0.1720 C   0  0  0  0  0  0  0  0  0  0  0  0
    0.2480    0.3620   -0.0070 C   0  0  0  0  0  0  0  0  0  0  0  0
    0.3110   -0.7900    0.5690 O   0  0  0  0  0  0  0  0  0  0  0  0
    1.3750    0.6650   -0.7140 O   0  0  0  0  0  0  0  0  0  0  0  0
    2.4630   -0.1830   -0.7970 C   0  0  0  0  0  0  0  0  0  0  0  0
    2.6200   -1.1450   -1.7710 C   0  0  0  0  0  0  0  0  0  0  0  0
    3.7350   -1.9730   -1.8100 C   0  0  0  0  0  0  0  0  0  0  0  0
    3.8680   -2.9390   -2.8080 O   0  0  0  0  0  0  0  0  0  0  0  0
    4.7100   -1.8400   -0.8620 C   0  0  0  0  0  0  0  0  0  0  0  0
    5.9040   -2.7380   -0.9160 C   0  0  0  0  0  0  0  0  0  0  0  0
    4.5830   -0.8920    0.1200 C   0  0  0  0  0  0  0  0  0  0  0  0
    3.4580   -0.0660    0.1480 C   0  0  0  0  0  0  0  0  0  0  0  0
    3.3560    0.8710    1.1370 O   0  0  0  0  0  0  0  0  0  0  0  0
    4.3200    1.0620    2.1420 C   0  0  0  0  0  0  0  0  0  0  0  0
   -2.0480    0.5520    0.9920 C   0  0  1  0  0  0  0  0  0  0  0  0
   -3.2150    1.4140    1.1870 C   0  0  0  0  0  0  0  0  0  0  0  0
   -3.3510    2.5970    0.6680 C   0  0  0  0  0  0  0  0  0  0  0  0
   -2.3230    3.1210   -0.1360 N   0  0  0  0  0  0  0  0  0  0  0  0
   -4.2960    0.8410    2.0450 C   0  0  0  0  0  0  0  0  0  0  0  0
   -5.1600    1.5380    2.5790 O   0  0  0  0  0  0  0  0  0  0  0  0
   -4.2900   -0.6410    2.2340 C   0  0  0  0  0  0  0  0  0  0  0  0
   -3.6320   -1.2500    1.0150 C   0  0  0  0  0  0  0  0  0  0  0  0
   -2.5830   -0.7170    0.4080 C   0  0  0  0  0  0  0  0  0  0  0  0
   -2.0830   -1.4060   -0.7870 C   0  0  0  0  0  0  0  0  0  0  0  0
   -3.2110   -1.6680   -1.5860 O   0  0  0  0  0  0  0  0  0  0  0  0
   -4.1170   -2.5180   -1.0230 C   0  0  0  0  0  0  0  0  0  0  0  0
   -4.1760   -2.5110    0.4630 C   0  0  0  0  0  0  0  0  0  0  0  0
  1  2  1  0
  2  3  1  0
  3  4  2  0
  3 21  1  0
  4  5  1  0
 18  4  1  6
  5  6  2  0
  5  7  1  0
  7  8  1  0
  8  9  2  0
  8 15  1  0
  9 10  1  0
 10 11  1  0
 10 12  2  0
 12 13  1  0
 12 14  1  0
 14 15  2  0
 15 16  1  0
 16 17  1  0
 18 19  1  0
 18 26  1  0
 19 20  2  0
 19 22  1  0
 20 21  1  0
 22 23  2  0
 22 24  1  0
 24 25  1  0
 25 26  2  0
 25 30  1  0
 26 27  1  0
 27 28  1  0
 28 29  1  0
 29 30  1  0
M  END
