
     RDKit          3D

 30 33  0  0  0  0  0  0  0  0999 V2000
    2.9370   -2.3040   -0.2460 C   0  0  0  0  0  0  0  0  0  0  0  0
    3.0550   -0.9910   -0.8580 O   0  0  0  0  0  0  0  0  0  0  0  0
    3.1990    0.0900   -0.0170 C   0  0  0  0  0  0  0  0  0  0  0  0
    2.0790    0.6870    0.4200 C   0  0  0  0  0  0  0  0  0  0  0  0
    0.7440    0.2700    0.0540 C   0  0  0  0  0  0  0  0  0  0  0  0
    0.6150   -0.6840   -0.7340 O   0  0  0  0  0  0  0  0  0  0  0  0
   -0.4070    0.9080    0.5610 N   0  0  0  0  0  0  0  0  0  0  0  0
   -1.7450    0.5890    0.2690 C   0  0  0  0  0  0  0  0  0  0  0  0
   -2.1100   -0.2520   -0.7500 C   0  0  0  0  0  0  0  0  0  0  0  0
   -3.4530   -0.5560   -0.9980 C   0  0  0  0  0  0  0  0  0  0  0  0
   -4.4530   -0.0190   -0.2250 C   0  0  0  0  0  0  0  0  0  0  0  0
   -5.7790   -0.3360   -0.4910 C   0  0  0  0  0  0  0  0  0  0  0  0
   -6.7400    0.2490    0.3370 C   0  0  0  0  0  0  0  0  0  0  0  0
   -6.3800    1.0930    1.3600 C   0  0  0  0  0  0  0  0  0  0  0  0
   -5.0830    1.3890    1.6020 C   0  0  0  0  0  0  0  0  0  0  0  0
   -4.0870    0.8420    0.8180 C   0  0  0  0  0  0  0  0  0  0  0  0
   -2.7690    1.1370    1.0570 C   0  0  0  0  0  0  0  0  0  0  0  0
   -8.0240   -0.0220    0.1240 C   0  0  0  0  0  0  0  0  0  0  0  0
   -8.4580   -0.8560   -0.8780 O   0  0  0  0  0  0  0  0  0  0  0  0
   -7.5500   -1.4650   -1.7310 C   0  0  0  0  0  0  0  0  0  0  0  0
   -6.1240   -1.1400   -1.4660 C   0  0  0  0  0  0  0  0  0  0  0  0
    4.4460    0.6220    0.4270 C   0  0  0  0  0  0  0  0  0  0  0  0
    4.3670    1.7190    1.3520 O   0  0  0  0  0  0  0  0  0  0  0  0
    5.6720    0.2630    0.1210 C   0  0  0  0  0  0  0  0  0  0  0  0
    6.9160    0.8810    0.6520 C   0  0  0  0  0  0  0  0  0  0  0  0
    7.9680    0.3280    0.0920 C   0  0  0  0  0  0  0  0  0  0  0  0
    9.3920    0.7170    0.4010 C   0  0  0  0  0  0  0  0  0  0  0  0
    7.5800   -0.6260   -0.7880 O   0  0  0  0  0  0  0  0  0  0  0  0
    6.1720   -0.7230   -0.8250 C   0  0  0  0  0  0  0  0  0  0  0  0
    5.5500   -1.5110   -1.5470 O   0  0  0  0  0  0  0  0  0  0  0  0
  1  2  1  0
  2  3  1  0
  3  4  2  3
  3 22  1  0
  4  5  1  0
  5  6  2  0
  5  7  1  0
  7  8  1  0
  8  9  2  0
  8 17  1  0
  9 10  1  0
 10 11  2  0
 11 12  1  0
 11 16  1  0
 12 13  1  0
 12 21  2  0
 13 14  1  0
 13 18  2  0
 14 15  2  0
 15 16  1  0
 16 17  2  0
 18 19  1  0
 19 20  1  0
 20 21  1  0
 22 23  1  0
 22 24  2  3
 24 25  1  0
 24 29  1  0
 25 26  2  0
 26 27  1  0
 26 28  1  0
 28 29  1  0
 29 30  2  0
M  END
