
     RDKit          3D

 23 26  0  0  0  0  0  0  0  0999 V2000
    1.0210    3.5630    2.0020 C   0  0  0  0  0  0  0  0  0  0  0  0
    0.7290    2.8140    0.8370 O   0  0  0  0  0  0  0  0  0  0  0  0
    1.4770    1.7460    0.3940 C   0  0  0  0  0  0  0  0  0  0  0  0
    2.4870    1.4680    1.1300 O   0  0  0  0  0  0  0  0  0  0  0  0
    1.2260    0.9270   -0.8070 C   0  0  1  0  0  0  0  0  0  0  0  0
    2.4670    0.0770   -1.0840 C   0  0  2  0  0  0  0  0  0  0  0  0
    2.7160   -0.1770   -2.5280 C   0  0  0  0  0  0  0  0  0  0  0  0
    2.5410   -1.0980   -0.2050 C   0  0  0  0  0  0  0  0  0  0  0  0
    3.4660   -1.6590    0.5760 C   0  0  0  0  0  0  0  0  0  0  0  0
    2.8640   -2.8480    1.1890 C   0  0  0  0  0  0  0  0  0  0  0  0
    1.4890   -2.9170    0.6800 C   0  0  0  0  0  0  0  0  0  0  0  0
    1.3020   -1.8920   -0.1370 C   0  0  0  0  0  0  0  0  0  0  0  0
    0.1900   -1.3740   -0.9710 C   0  0  0  0  0  0  0  0  0  0  0  0
   -0.0410    0.1210   -0.8180 C   0  0  2  0  0  0  0  0  0  0  0  0
   -0.7180    0.4960   -2.1580 C   0  0  0  0  0  0  0  0  0  0  0  0
   -2.1200   -0.0030   -2.2460 C   0  0  0  0  0  0  0  0  0  0  0  0
   -3.0010    0.5290   -1.1350 C   0  0  0  0  0  0  0  0  0  0  0  0
   -2.4070    0.0580    0.1420 C   0  0  2  0  0  0  0  0  0  0  0  0
   -2.7990   -1.3340    0.4300 C   0  0  0  0  0  0  0  0  0  0  0  0
   -2.9240    0.8780    1.3500 C   0  0  0  0  0  0  0  0  0  0  0  0
   -1.9490    0.3770    2.3980 C   0  0  0  0  0  0  0  0  0  0  0  0
   -0.6610    0.0070    1.6450 C   0  0  0  0  0  0  0  0  0  0  0  0
   -0.9650    0.4480    0.2680 C   0  0  1  0  0  0  0  0  0  0  0  0
  1  2  1  0
  2  3  1  0
  3  4  2  0
  5  3  1  1
  5  6  1  0
  5 14  1  0
  6  7  1  6
  6  8  1  0
  8  9  2  0
  8 12  1  0
  9 10  1  0
 10 11  1  0
 11 12  2  0
 12 13  1  0
 14 13  1  6
 14 15  1  0
 14 23  1  0
 15 16  1  0
 16 17  1  0
 17 18  1  0
 18 19  1  1
 18 20  1  0
 18 23  1  0
 20 21  1  0
 21 22  1  0
 23 22  1  1
M  END
