
     RDKit          3D

  9  9  0  0  0  0  0  0  0  0999 V2000
   -1.1070    1.3400   -0.8690 C   0  0  0  0  0  0  0  0  0  0  0  0
   -0.5790    0.2220   -0.0740 C   0  0  0  0  0  0  0  0  0  0  0  0
   -1.4120   -0.4950    0.6450 C   0  0  0  0  0  0  0  0  0  0  0  0
   -2.8040   -0.2210    0.6770 N   0  0  0  0  0  0  0  0  0  0  0  0
    0.8350   -0.1060   -0.0660 C   0  0  0  0  0  0  0  0  0  0  0  0
    1.4420   -1.1270    0.6370 C   0  0  0  0  0  0  0  0  0  0  0  0
    2.8000   -1.1270    0.3940 C   0  0  0  0  0  0  0  0  0  0  0  0
    3.0240   -0.0820   -0.4770 C   0  0  0  0  0  0  0  0  0  0  0  0
    1.8440    0.5010   -0.7300 N   0  0  0  0  0  0  0  0  0  0  0  0
  1  2  1  0
  2  3  2  3
  2  5  1  0
  3  4  1  0
  5  6  2  0
  5  9  1  0
  6  7  1  0
  7  8  2  0
  8  9  1  0
M  CHG  1   4   1
M  END
