
     RDKit          3D

  9  9  0  0  0  0  0  0  0  0999 V2000
   -1.7220    2.1140    0.6760 N   0  0  0  0  0  0  0  0  0  0  0  0
   -0.5210    1.4300    0.3600 C   0  0  0  0  0  0  0  0  0  0  0  0
   -0.5930    0.1770   -0.0570 C   0  0  0  0  0  0  0  0  0  0  0  0
   -1.7620   -0.6660   -0.2570 C   0  0  0  0  0  0  0  0  0  0  0  0
   -1.3980   -1.8630   -0.6860 C   0  0  0  0  0  0  0  0  0  0  0  0
    0.0540   -1.8330   -0.7800 C   0  0  0  0  0  0  0  0  0  0  0  0
    0.5420   -0.6600   -0.4200 C   0  0  0  0  0  0  0  0  0  0  0  0
    1.9810   -0.2880   -0.3980 C   0  0  0  0  0  0  0  0  0  0  0  0
    2.3560    0.0800    0.9540 N   0  0  0  0  0  0  0  0  0  0  0  0
  1  2  1  0
  2  3  2  3
  3  4  1  0
  3  7  1  0
  4  5  2  0
  5  6  1  0
  6  7  2  0
  7  8  1  0
  8  9  1  0
M  END
