
     RDKit          3D

  9 10  0  0  0  0  0  0  0  0999 V2000
    2.9620   -0.7960    0.0700 N   0  0  0  0  0  0  0  0  0  0  0  0
    1.7400   -0.2410   -0.4600 C   0  0  2  0  0  0  0  0  0  0  0  0
    1.4290    1.0940    0.2280 C   0  0  0  0  0  0  0  0  0  0  0  0
   -0.0370    1.2290   -0.0920 C   0  0  0  0  0  0  0  0  0  0  0  0
   -0.5600   -0.1010   -0.3250 N   0  0  0  0  0  0  0  0  0  0  0  0
   -1.6740   -0.2820    0.5830 C   0  0  1  0  0  0  0  0  0  0  0  0
   -2.8250    0.7080    0.3230 C   0  0  0  0  0  0  0  0  0  0  0  0
   -2.9870   -0.7610    0.0910 C   0  0  0  0  0  0  0  0  0  0  0  0
    0.5120   -1.0390   -0.0710 C   0  0  0  0  0  0  0  0  0  0  0  0
  2  1  1  1
  2  3  1  0
  2  9  1  0
  3  4  1  0
  4  5  1  0
  6  5  1  6
  5  9  1  0
  6  7  1  0
  6  8  1  0
  7  8  1  0
M  CHG  1   1   1
M  END
