
     RDKit          3D

  9  9  0  0  0  0  0  0  0  0999 V2000
    3.2240    0.2930   -0.1480 C   0  0  0  0  0  0  0  0  0  0  0  0
    2.2450   -0.7450   -0.1760 N   0  0  0  0  0  0  0  0  0  0  0  0
    0.8680   -0.4670   -0.0730 C   0  0  0  0  0  0  0  0  0  0  0  0
   -0.0870   -1.4680   -0.0990 C   0  0  0  0  0  0  0  0  0  0  0  0
   -1.4330   -1.1870    0.0020 C   0  0  0  0  0  0  0  0  0  0  0  0
   -1.8090    0.1340    0.1320 C   0  0  0  0  0  0  0  0  0  0  0  0
   -3.1970    0.4430    0.2370 N   0  0  0  0  0  0  0  0  0  0  0  0
   -0.8880    1.1590    0.1610 C   0  0  0  0  0  0  0  0  0  0  0  0
    0.4510    0.8550    0.0590 C   0  0  0  0  0  0  0  0  0  0  0  0
  1  2  1  0
  2  3  1  0
  3  4  2  0
  3  9  1  0
  4  5  1  0
  5  6  2  0
  6  7  1  0
  6  8  1  0
  8  9  2  0
M  CHG  1   7   1
M  END
