
     RDKit          3D

  9  9  0  0  0  0  0  0  0  0999 V2000
   -2.2230    1.1350    0.4760 N   0  0  0  0  0  0  0  0  0  0  0  0
   -1.5610    0.0850   -0.2080 C   0  0  0  0  0  0  0  0  0  0  0  0
   -2.2290   -0.7110   -0.9290 N   0  0  0  0  0  0  0  0  0  0  0  0
   -0.1240   -0.0720   -0.0800 C   0  0  0  0  0  0  0  0  0  0  0  0
    0.5180    0.8630    0.7430 C   0  0  0  0  0  0  0  0  0  0  0  0
    1.8610    0.7930    0.9210 C   0  0  0  0  0  0  0  0  0  0  0  0
    2.6060   -0.1910    0.3010 C   0  0  0  0  0  0  0  0  0  0  0  0
    1.9880   -1.1130   -0.5070 C   0  0  0  0  0  0  0  0  0  0  0  0
    0.6110   -1.0480   -0.6960 C   0  0  0  0  0  0  0  0  0  0  0  0
  1  2  1  0
  2  3  2  0
  2  4  1  0
  4  5  2  0
  4  9  1  0
  5  6  1  0
  6  7  2  0
  7  8  1  0
  8  9  2  0
M  CHG  1   3   1
M  END
