
     RDKit          3D

 30 33  0  0  0  0  0  0  0  0999 V2000
    8.2870   -1.1280    3.0230 C   0  0  0  0  0  0  0  0  0  0  0  0
    7.2640   -1.2850    1.9290 C   0  0  0  0  0  0  0  0  0  0  0  0
    6.9540   -0.0160    1.4260 O   0  0  0  0  0  0  0  0  0  0  0  0
    6.0240    0.0890    0.4030 C   0  0  0  0  0  0  0  0  0  0  0  0
    5.3890   -1.0090   -0.1470 C   0  0  0  0  0  0  0  0  0  0  0  0
    4.4650   -0.8510   -1.1710 C   0  0  0  0  0  0  0  0  0  0  0  0
    4.1600    0.3970   -1.6610 C   0  0  0  0  0  0  0  0  0  0  0  0
    3.1630    0.5250   -2.7580 C   0  0  0  0  0  0  0  0  0  0  0  0
    1.8550    0.3560   -2.2480 O   0  0  0  0  0  0  0  0  0  0  0  0
    1.2760    1.1400   -1.2760 C   0  0  0  0  0  0  0  0  0  0  0  0
    1.9230    2.0760   -0.7860 O   0  0  0  0  0  0  0  0  0  0  0  0
   -0.0900    0.9150   -0.7870 C   0  0  0  0  0  0  0  0  0  0  0  0
   -0.7370    1.5970    0.1370 C   0  0  0  0  0  0  0  0  0  0  0  0
   -2.0690    1.0630    0.3360 C   0  0  0  0  0  0  0  0  0  0  0  0
   -3.0100    1.4730    1.1710 C   0  0  0  0  0  0  0  0  0  0  0  0
   -4.3200    0.8490    1.2790 C   0  0  0  0  0  0  0  0  0  0  0  0
   -4.5410   -0.5120    1.1520 C   0  0  0  0  0  0  0  0  0  0  0  0
   -5.8960   -0.7370    1.3120 C   0  0  0  0  0  0  0  0  0  0  0  0
   -6.4310    0.5130    1.5300 C   0  0  0  0  0  0  0  0  0  0  0  0
   -5.4860    1.4080    1.5040 O   0  0  0  0  0  0  0  0  0  0  0  0
   -7.8930    0.5930    1.7410 C   0  0  0  0  0  0  0  0  0  0  0  0
   -8.4940   -0.3900    0.7270 C   0  0  0  0  0  0  0  0  0  0  0  0
   -8.1010   -1.7370    0.9720 N   0  0  0  0  0  0  0  0  0  0  0  0
   -6.7340   -1.9650    1.2840 C   0  0  0  0  0  0  0  0  0  0  0  0
   -2.1680   -0.0000   -0.5480 O   0  0  0  0  0  0  0  0  0  0  0  0
   -0.9720   -0.1490   -1.2790 C   0  0  1  0  0  0  0  0  0  0  0  0
   -1.2120   -0.0760   -2.7710 C   0  0  0  0  0  0  0  0  0  0  0  0
    4.7870    1.5150   -1.1240 C   0  0  0  0  0  0  0  0  0  0  0  0
    5.6920    1.3320   -0.1160 C   0  0  0  0  0  0  0  0  0  0  0  0
    6.3180    2.4390    0.4230 O   0  0  0  0  0  0  0  0  0  0  0  0
  1  2  1  0
  2  3  1  0
  3  4  1  0
  4  5  2  0
  4 29  1  0
  5  6  1  0
  6  7  2  0
  7  8  1  0
  7 28  1  0
  8  9  1  0
  9 10  1  0
 10 11  2  0
 10 12  1  0
 12 13  2  0
 12 26  1  0
 13 14  1  0
 14 15  2  3
 14 25  1  0
 15 16  1  0
 16 17  2  0
 16 20  1  0
 17 18  1  0
 18 19  2  0
 18 24  1  0
 19 20  1  0
 19 21  1  0
 21 22  1  0
 22 23  1  0
 23 24  1  0
 25 26  1  0
 26 27  1  6
 28 29  2  0
 29 30  1  0
M  END
