
     RDKit          3D

 31 33  0  0  0  0  0  0  0  0999 V2000
    6.9740   -3.4840    1.0790 C   0  0  0  0  0  0  0  0  0  0  0  0
    6.8630   -2.2620    1.9300 C   0  0  0  0  0  0  0  0  0  0  0  0
    6.0010   -1.2760    1.4390 O   0  0  0  0  0  0  0  0  0  0  0  0
    6.1250   -0.6240    0.2340 C   0  0  0  0  0  0  0  0  0  0  0  0
    7.0940   -0.9320   -0.5000 O   0  0  0  0  0  0  0  0  0  0  0  0
    5.1850    0.3980   -0.2160 C   0  0  0  0  0  0  0  0  0  0  0  0
    4.1310    0.7770    0.5110 N   0  0  0  0  0  0  0  0  0  0  0  0
    3.2410    1.7320    0.1080 C   0  0  0  0  0  0  0  0  0  0  0  0
    1.8890    2.0900    1.2040 S   0  0  0  0  0  0  0  0  0  0  0  0
    0.7070    3.2290    0.5140 C   0  0  0  0  0  0  0  0  0  0  0  0
   -0.0580    2.6110   -0.5890 C   0  0  0  0  0  0  0  0  0  0  0  0
   -0.8020    1.4450   -0.0940 C   0  0  0  0  0  0  0  0  0  0  0  0
   -0.9290    0.8720    1.1140 C   0  0  0  0  0  0  0  0  0  0  0  0
   -1.6920   -0.2130    1.2690 C   0  0  0  0  0  0  0  0  0  0  0  0
   -2.3270   -0.7000    0.1430 C   0  0  0  0  0  0  0  0  0  0  0  0
   -3.2370   -1.8870    0.0010 C   0  0  2  0  0  0  0  0  0  0  0  0
   -2.8440   -2.5640   -1.1310 O   0  0  0  0  0  0  0  0  0  0  0  0
   -4.6600   -1.4630   -0.1460 C   0  0  0  0  0  0  0  0  0  0  0  0
   -5.1580   -0.8950   -1.2840 C   0  0  0  0  0  0  0  0  0  0  0  0
   -6.5240   -0.6170   -1.0890 C   0  0  0  0  0  0  0  0  0  0  0  0
   -7.3040   -0.0670   -1.9910 C   0  0  0  0  0  0  0  0  0  0  0  0
   -8.9640    0.2650   -1.7390 Cl  0  0  0  0  0  0  0  0  0  0  0  0
   -6.7650   -1.0470    0.1850 C   0  0  0  0  0  0  0  0  0  0  0  0
   -7.9160   -1.0000    0.8370 C   0  0  0  0  0  0  0  0  0  0  0  0
   -7.9530   -1.5010    2.1600 O   0  0  0  0  0  0  0  0  0  0  0  0
   -5.6290   -1.5400    0.7040 O   0  0  0  0  0  0  0  0  0  0  0  0
   -1.8120    0.4120   -1.1100 S   0  0  0  0  0  0  0  0  0  0  0  0
    3.4050    2.3590   -1.1040 C   0  0  0  0  0  0  0  0  0  0  0  0
    4.4880    1.9940   -1.8910 C   0  0  0  0  0  0  0  0  0  0  0  0
    5.3600    1.0200   -1.4340 C   0  0  0  0  0  0  0  0  0  0  0  0
    6.8560    0.5140   -2.5190 Br  0  0  0  0  0  0  0  0  0  0  0  0
  1  2  1  0
  2  3  1  0
  3  4  1  0
  4  5  2  0
  4  6  1  0
  6  7  2  0
  6 30  1  0
  7  8  1  0
  8  9  1  0
  8 28  2  0
  9 10  1  0
 10 11  1  0
 11 12  1  0
 12 13  2  0
 12 27  1  0
 13 14  1  0
 14 15  2  0
 15 16  1  0
 15 27  1  0
 16 17  1  6
 16 18  1  0
 18 19  2  0
 18 26  1  0
 19 20  1  0
 20 21  2  3
 20 23  1  0
 21 22  1  0
 23 24  2  3
 23 26  1  0
 24 25  1  0
 28 29  1  0
 29 30  2  0
 30 31  1  0
M  END
