
     RDKit          3D

 30 33  0  0  0  0  0  0  0  0999 V2000
   -6.1720   -0.9100   -2.9390 C   0  0  0  0  0  0  0  0  0  0  0  0
   -5.3600   -1.3020   -1.8370 O   0  0  0  0  0  0  0  0  0  0  0  0
   -5.2660   -0.4850   -0.7470 C   0  0  0  0  0  0  0  0  0  0  0  0
   -5.9180    0.6110   -0.7610 O   0  0  0  0  0  0  0  0  0  0  0  0
   -4.4830   -0.7500    0.4430 C   0  0  0  0  0  0  0  0  0  0  0  0
   -5.0650   -1.4260    1.4880 C   0  0  0  0  0  0  0  0  0  0  0  0
   -6.4780   -1.8820    1.4050 C   0  0  0  0  0  0  0  0  0  0  0  0
   -6.8550   -2.5350    2.5540 O   0  0  0  0  0  0  0  0  0  0  0  0
   -4.3110   -1.6460    2.5560 O   0  0  0  0  0  0  0  0  0  0  0  0
   -3.0720   -1.2520    2.6420 C   0  0  0  0  0  0  0  0  0  0  0  0
   -2.4330   -1.5110    3.7070 O   0  0  0  0  0  0  0  0  0  0  0  0
   -2.4200   -0.5640    1.6240 C   0  0  0  0  0  0  0  0  0  0  0  0
   -3.1560   -0.3070    0.4890 C   0  0  0  0  0  0  0  0  0  0  0  0
   -2.6310    0.4130   -0.6970 C   0  0  0  0  0  0  0  0  0  0  0  0
   -1.1240    0.3050   -0.6720 C   0  0  0  0  0  0  0  0  0  0  0  0
   -0.6970    0.8710    0.6870 C   0  0  2  0  0  0  0  0  0  0  0  0
    0.7070    1.2620    0.6240 C   0  0  0  0  0  0  0  0  0  0  0  0
    1.0390    2.5870    0.7970 C   0  0  0  0  0  0  0  0  0  0  0  0
    2.3440    3.0310    0.7510 C   0  0  0  0  0  0  0  0  0  0  0  0
    3.3250    2.0830    0.5210 C   0  0  0  0  0  0  0  0  0  0  0  0
    4.6430    2.2220    0.4270 N   0  0  0  0  0  0  0  0  0  0  0  0
    5.2300    1.0080    0.1910 C   0  0  0  0  0  0  0  0  0  0  0  0
    6.6770    0.7580    0.0720 C   0  0  0  0  0  0  0  0  0  0  0  0
    6.9430   -0.6210   -0.4570 C   0  0  0  0  0  0  0  0  0  0  0  0
    6.4260   -0.7710   -1.8580 C   0  0  0  0  0  0  0  0  0  0  0  0
    7.0770    0.1560   -2.7230 O   0  0  0  0  0  0  0  0  0  0  0  0
    4.2090    0.0900    0.1410 C   0  0  0  0  0  0  0  0  0  0  0  0
    3.0000    0.7620    0.3480 C   0  0  0  0  0  0  0  0  0  0  0  0
    1.6860    0.3340    0.3970 C   0  0  0  0  0  0  0  0  0  0  0  0
   -1.0080   -0.1320    1.7590 C   0  0  0  0  0  0  0  0  0  0  0  0
  1  2  1  0
  2  3  1  0
  3  4  2  0
  3  5  1  0
  5  6  2  0
  5 13  1  0
  6  7  1  0
  6  9  1  0
  7  8  1  0
  9 10  1  0
 10 11  2  0
 10 12  1  0
 12 13  2  0
 12 30  1  0
 13 14  1  0
 14 15  1  0
 15 16  1  0
 16 17  1  6
 16 30  1  0
 17 18  2  0
 17 29  1  0
 18 19  1  0
 19 20  2  0
 20 21  1  0
 20 28  1  0
 21 22  1  0
 22 23  1  0
 22 27  2  0
 23 24  1  0
 24 25  1  0
 25 26  1  0
 27 28  1  0
 28 29  2  0
M  END
