
     RDKit          3D

 31 34  0  0  0  0  0  0  0  0999 V2000
   -6.2180    0.8750    0.0700 O   0  0  0  0  0  0  0  0  0  0  0  0
   -5.5920   -0.1370    0.2880 C   0  0  0  0  0  0  0  0  0  0  0  0
   -6.1320   -1.1570    1.1940 C   0  0  0  0  0  0  0  0  0  0  0  0
   -5.1350   -1.4320    2.2820 C   0  0  0  0  0  0  0  0  0  0  0  0
   -3.7400   -1.1590    1.9260 C   0  0  0  0  0  0  0  0  0  0  0  0
   -2.9130   -1.1920    2.8270 O   0  0  0  0  0  0  0  0  0  0  0  0
   -3.2260   -0.8430    0.5740 C   0  0  2  0  0  0  0  0  0  0  0  0
   -2.1390    0.0530    0.6010 O   0  0  0  0  0  0  0  0  0  0  0  0
   -0.8740   -0.2370    0.1760 C   0  0  0  0  0  0  0  0  0  0  0  0
   -0.6900   -1.3880   -0.2640 O   0  0  0  0  0  0  0  0  0  0  0  0
    0.2560    0.7550    0.2250 C   0  0  0  0  0  0  0  0  0  0  0  0
    1.4790    0.3530   -0.2280 C   0  0  0  0  0  0  0  0  0  0  0  0
    1.9840   -0.8480   -0.7670 N   0  0  0  0  0  0  0  0  0  0  0  0
    3.3440   -0.9810   -1.1660 C   0  0  0  0  0  0  0  0  0  0  0  0
    4.0960    0.0070   -1.0250 O   0  0  0  0  0  0  0  0  0  0  0  0
    3.9030   -2.2200   -1.7320 C   0  0  0  0  0  0  0  0  0  0  0  0
    5.3790   -2.0290   -2.0530 C   0  0  0  0  0  0  0  0  0  0  0  0
    5.8350   -1.6100   -3.2240 C   0  0  0  0  0  0  0  0  0  0  0  0
    7.1910   -1.4710   -3.4150 C   0  0  0  0  0  0  0  0  0  0  0  0
    7.8900   -1.9710   -1.8110 S   0  0  0  0  0  0  0  0  0  0  0  0
    6.3170   -2.3130   -1.0530 C   0  0  0  0  0  0  0  0  0  0  0  0
    2.5370    1.8160   -0.0020 S   0  0  0  0  0  0  0  0  0  0  0  0
    1.2430    2.8280    0.6770 C   0  0  0  0  0  0  0  0  0  0  0  0
    1.2570    4.1500    1.1250 C   0  0  0  0  0  0  0  0  0  0  0  0
    0.1020    4.7210    1.6170 C   0  0  0  0  0  0  0  0  0  0  0  0
    0.0940    6.5190    2.2330 Br  0  0  0  0  0  0  0  0  0  0  0  0
   -1.0100    3.9330    1.6350 C   0  0  0  0  0  0  0  0  0  0  0  0
   -2.5440    4.6020    2.2590 Cl  0  0  0  0  0  0  0  0  0  0  0  0
   -1.0060    2.6530    1.1970 C   0  0  0  0  0  0  0  0  0  0  0  0
    0.1530    2.0280    0.6850 C   0  0  0  0  0  0  0  0  0  0  0  0
   -4.2930   -0.3370   -0.3570 C   0  0  0  0  0  0  0  0  0  0  0  0
  1  2  2  0
  2  3  1  0
  2 31  1  0
  3  4  1  0
  4  5  1  0
  5  6  2  0
  5  7  1  0
  7  8  1  1
  7 31  1  0
  8  9  1  0
  9 10  2  0
  9 11  1  0
 11 12  2  0
 11 30  1  0
 12 13  1  0
 12 22  1  0
 13 14  1  0
 14 15  2  0
 14 16  1  0
 16 17  1  0
 17 18  1  0
 17 21  2  0
 18 19  2  0
 19 20  1  0
 20 21  1  0
 22 23  1  0
 23 24  2  0
 23 30  1  0
 24 25  1  0
 25 26  1  0
 25 27  2  0
 27 28  1  0
 27 29  1  0
 29 30  2  0
M  END
