
     RDKit          3D

 31 34  0  0  0  0  0  0  0  0999 V2000
    0.1890   -0.5810   -1.0870 O   0  0  0  0  0  0  0  0  0  0  0  0
   -0.2620    0.5480   -0.7780 C   0  0  0  0  0  0  0  0  0  0  0  0
   -1.7330    0.8420   -0.8550 C   0  0  0  0  0  0  0  0  0  0  0  0
   -2.7100   -0.5200   -1.4540 S   0  0  0  0  0  0  0  0  0  0  0  0
   -4.0350   -0.8870   -0.3510 C   0  0  0  0  0  0  0  0  0  0  0  0
   -3.9990   -1.7130    0.7330 C   0  0  0  0  0  0  0  0  0  0  0  0
   -5.1040   -1.9690    1.5270 C   0  0  0  0  0  0  0  0  0  0  0  0
   -6.3110   -1.3820    1.2440 C   0  0  0  0  0  0  0  0  0  0  0  0
   -7.4410   -1.6080    2.0030 C   0  0  0  0  0  0  0  0  0  0  0  0
   -8.6610   -1.0180    1.7130 C   0  0  0  0  0  0  0  0  0  0  0  0
   -8.7410   -0.1770    0.6280 C   0  0  0  0  0  0  0  0  0  0  0  0
   -7.6160    0.0520   -0.1310 C   0  0  0  0  0  0  0  0  0  0  0  0
   -6.3920   -0.5360    0.1540 C   0  0  0  0  0  0  0  0  0  0  0  0
   -5.2830   -0.3000   -0.6140 C   0  0  0  0  0  0  0  0  0  0  0  0
    0.6330    1.5470   -0.3630 N   0  0  0  0  0  0  0  0  0  0  0  0
    2.0420    1.4820   -0.2590 C   0  0  0  0  0  0  0  0  0  0  0  0
    2.8210    0.4010   -0.5620 C   0  0  0  0  0  0  0  0  0  0  0  0
    4.2220    0.3960   -0.4730 C   0  0  0  0  0  0  0  0  0  0  0  0
    4.8710    1.5400   -0.0560 C   0  0  0  0  0  0  0  0  0  0  0  0
    4.1100    2.6220    0.2500 C   0  0  0  0  0  0  0  0  0  0  0  0
    2.7450    2.6240    0.1620 C   0  0  0  0  0  0  0  0  0  0  0  0
    1.8770    4.0790    0.5770 Cl  0  0  0  0  0  0  0  0  0  0  0  0
    6.2500    1.5060    0.0210 O   0  0  0  0  0  0  0  0  0  0  0  0
    6.9310    0.3070    0.3260 C   0  0  0  0  0  0  0  0  0  0  0  0
    6.2960   -0.9130   -0.2830 C   0  0  2  0  0  0  0  0  0  0  0  0
    7.1840   -1.5620   -1.2830 C   0  0  0  0  0  0  0  0  0  0  0  0
    6.7950   -1.8830   -2.4490 O   0  0  0  0  0  0  0  0  0  0  0  0
    8.5010   -1.8450   -0.9640 O   0  0  0  0  0  0  0  0  0  0  0  0
    9.6000   -2.6090   -2.0920 S   0  0  0  0  0  0  0  0  0  0  0  0
   11.6460   -2.6340   -1.1670 Br  0  0  0  0  0  0  0  0  0  0  0  0
    4.9910   -0.6930   -0.7810 O   0  0  0  0  0  0  0  0  0  0  0  0
  1  2  2  0
  2  3  1  0
  2 15  1  0
  3  4  1  0
  4  5  1  0
  5  6  2  0
  5 14  1  0
  6  7  1  0
  7  8  2  0
  8  9  1  0
  8 13  1  0
  9 10  2  0
 10 11  1  0
 11 12  2  0
 12 13  1  0
 13 14  2  0
 15 16  1  0
 16 17  2  0
 16 21  1  0
 17 18  1  0
 18 19  2  0
 18 31  1  0
 19 20  1  0
 19 23  1  0
 20 21  2  0
 21 22  1  0
 23 24  1  0
 24 25  1  0
 25 26  1  6
 25 31  1  0
 26 27  2  0
 26 28  1  0
 28 29  1  0
 29 30  1  0
M  END
