
     RDKit          3D

 30 33  0  0  0  0  0  0  0  0999 V2000
    9.3770    0.5420   -1.5630 C   0  0  0  0  0  0  0  0  0  0  0  0
    8.2250   -0.0960   -0.8330 C   0  0  0  0  0  0  0  0  0  0  0  0
    6.8740    0.0540   -1.1200 C   0  0  0  0  0  0  0  0  0  0  0  0
    6.1510   -0.6940   -0.2190 C   0  0  0  0  0  0  0  0  0  0  0  0
    4.7760   -0.8190   -0.1580 O   0  0  0  0  0  0  0  0  0  0  0  0
    3.9460    0.0130    0.5740 C   0  0  0  0  0  0  0  0  0  0  0  0
    4.4790    0.9440    1.2260 O   0  0  0  0  0  0  0  0  0  0  0  0
    2.4680   -0.1170    0.6440 C   0  0  0  0  0  0  0  0  0  0  0  0
    1.7640    0.8600   -0.2480 C   0  0  0  0  0  0  0  0  0  0  0  0
    0.3370    0.6580   -0.1190 N   0  0  0  0  0  0  0  0  0  0  0  0
   -0.3930    0.7960    1.0850 C   0  0  0  0  0  0  0  0  0  0  0  0
    0.2010    1.1160    2.1400 O   0  0  0  0  0  0  0  0  0  0  0  0
   -1.8620    0.5690    1.1420 C   0  0  0  0  0  0  0  0  0  0  0  0
   -2.3850    0.2180   -0.1210 O   0  0  0  0  0  0  0  0  0  0  0  0
   -3.7610   -0.0220   -0.1800 C   0  0  0  0  0  0  0  0  0  0  0  0
   -4.6780    0.8780   -0.4920 C   0  0  0  0  0  0  0  0  0  0  0  0
   -4.5230    2.2760   -0.8400 C   0  0  0  0  0  0  0  0  0  0  0  0
   -5.5990    2.9760   -1.1150 C   0  0  0  0  0  0  0  0  0  0  0  0
   -6.9780    2.4630   -1.1040 C   0  0  0  0  0  0  0  0  0  0  0  0
   -7.0640    1.0300   -0.7410 C   0  0  0  0  0  0  0  0  0  0  0  0
   -6.0050    0.3060   -0.4610 C   0  0  0  0  0  0  0  0  0  0  0  0
   -5.8660   -1.1140   -0.0820 C   0  0  0  0  0  0  0  0  0  0  0  0
   -6.4900   -2.2470    0.1560 C   0  0  0  0  0  0  0  0  0  0  0  0
   -5.4750   -3.2590    0.5060 C   0  0  0  0  0  0  0  0  0  0  0  0
   -4.1800   -2.5480    0.4360 C   0  0  0  0  0  0  0  0  0  0  0  0
   -4.4250   -1.3120    0.0960 C   0  0  0  0  0  0  0  0  0  0  0  0
    7.0970   -1.2850    0.6020 C   0  0  0  0  0  0  0  0  0  0  0  0
    6.8200   -2.1740    1.7140 C   0  0  0  0  0  0  0  0  0  0  0  0
    7.7610   -2.6430    2.3790 O   0  0  0  0  0  0  0  0  0  0  0  0
    8.2960   -0.9000    0.1960 O   0  0  0  0  0  0  0  0  0  0  0  0
  1  2  1  0
  2  3  2  0
  2 30  1  0
  3  4  1  0
  4  5  1  0
  4 27  2  0
  5  6  1  0
  6  7  2  0
  6  8  1  0
  8  9  1  0
  9 10  1  0
 10 11  1  0
 11 12  2  0
 11 13  1  0
 13 14  1  0
 14 15  1  0
 15 16  2  0
 15 26  1  0
 16 17  1  0
 16 21  1  0
 17 18  2  0
 18 19  1  0
 19 20  1  0
 20 21  2  0
 21 22  1  0
 22 23  2  0
 22 26  1  0
 23 24  1  0
 24 25  1  0
 25 26  2  0
 27 28  1  0
 27 30  1  0
 28 29  2  0
M  END
