
     RDKit          3D

 30 33  0  0  0  0  0  0  0  0999 V2000
   -0.6950   -4.8340    1.5290 C   0  0  0  0  0  0  0  0  0  0  0  0
   -0.6370   -3.3600    1.9970 C   0  0  0  0  0  0  0  0  0  0  0  0
   -1.4670   -2.5750    1.0810 C   0  0  0  0  0  0  0  0  0  0  0  0
   -1.1040   -1.5830    0.3010 C   0  0  0  0  0  0  0  0  0  0  0  0
    0.2810   -1.1510    0.2810 C   0  0  0  0  0  0  0  0  0  0  0  0
    1.1540   -1.6680    0.9760 O   0  0  0  0  0  0  0  0  0  0  0  0
    0.7290   -0.1040   -0.5500 O   0  0  0  0  0  0  0  0  0  0  0  0
    2.0590    0.2830   -0.5720 C   0  0  0  0  0  0  0  0  0  0  0  0
    2.9280   -0.2360   -1.5410 C   0  0  0  0  0  0  0  0  0  0  0  0
    4.2560    0.1150   -1.6070 C   0  0  0  0  0  0  0  0  0  0  0  0
    5.0970   -0.4230   -2.5900 O   0  0  0  0  0  0  0  0  0  0  0  0
    4.7370    1.0100   -0.6810 C   0  0  0  0  0  0  0  0  0  0  0  0
    6.1700    1.4030   -0.7340 C   0  0  0  0  0  0  0  0  0  0  0  0
    3.9080    1.5360    0.2820 C   0  0  0  0  0  0  0  0  0  0  0  0
    2.5530    1.1730    0.3430 C   0  0  0  0  0  0  0  0  0  0  0  0
    1.7460    1.7190    1.3260 O   0  0  0  0  0  0  0  0  0  0  0  0
    2.2900    2.6340    2.2540 C   0  0  0  0  0  0  0  0  0  0  0  0
   -2.0200   -0.8520   -0.5950 C   0  0  1  0  0  0  0  0  0  0  0  0
   -3.3980   -1.3810   -0.6100 C   0  0  0  0  0  0  0  0  0  0  0  0
   -3.7670   -2.3750    0.1440 C   0  0  0  0  0  0  0  0  0  0  0  0
   -2.8500   -2.9960    1.0040 N   0  0  0  0  0  0  0  0  0  0  0  0
   -4.3040   -0.6800   -1.5480 C   0  0  0  0  0  0  0  0  0  0  0  0
   -5.4060   -1.1650   -1.7970 O   0  0  0  0  0  0  0  0  0  0  0  0
   -3.7680    0.6080   -2.1270 C   0  0  0  0  0  0  0  0  0  0  0  0
   -3.0510    1.2650   -1.0050 C   0  0  0  0  0  0  0  0  0  0  0  0
   -2.1980    0.5880   -0.2390 C   0  0  0  0  0  0  0  0  0  0  0  0
   -1.5860    1.3260    0.8710 C   0  0  0  0  0  0  0  0  0  0  0  0
   -1.0570    2.5000    0.3240 O   0  0  0  0  0  0  0  0  0  0  0  0
   -2.0430    3.3620   -0.1280 C   0  0  0  0  0  0  0  0  0  0  0  0
   -3.2530    2.6980   -0.7030 C   0  0  0  0  0  0  0  0  0  0  0  0
  1  2  1  0
  2  3  1  0
  3  4  2  0
  3 21  1  0
  4  5  1  0
 18  4  1  1
  5  6  2  0
  5  7  1  0
  7  8  1  0
  8  9  2  0
  8 15  1  0
  9 10  1  0
 10 11  1  0
 10 12  2  0
 12 13  1  0
 12 14  1  0
 14 15  2  0
 15 16  1  0
 16 17  1  0
 18 19  1  0
 18 26  1  0
 19 20  2  0
 19 22  1  0
 20 21  1  0
 22 23  2  0
 22 24  1  0
 24 25  1  0
 25 26  2  0
 25 30  1  0
 26 27  1  0
 27 28  1  0
 28 29  1  0
 29 30  1  0
M  END
