
     RDKit          3D

  9  9  0  0  0  0  0  0  0  0999 V2000
   -2.4860   -1.8660    0.3030 N   0  0  0  0  0  0  0  0  0  0  0  0
   -1.1380   -1.4220    0.2590 C   0  0  0  0  0  0  0  0  0  0  0  0
   -0.8050   -0.1780   -0.0230 C   0  0  0  0  0  0  0  0  0  0  0  0
   -1.7030    0.9320   -0.3290 C   0  0  0  0  0  0  0  0  0  0  0  0
   -0.9740    2.0060   -0.5520 C   0  0  0  0  0  0  0  0  0  0  0  0
    0.4410    1.6900   -0.4110 C   0  0  0  0  0  0  0  0  0  0  0  0
    0.5340    0.3890   -0.0970 C   0  0  0  0  0  0  0  0  0  0  0  0
    1.7610   -0.4090    0.1500 C   0  0  0  0  0  0  0  0  0  0  0  0
    2.9640    0.3910    0.0140 N   0  0  0  0  0  0  0  0  0  0  0  0
  1  2  1  0
  2  3  2  3
  3  4  1  0
  3  7  1  0
  4  5  2  0
  5  6  1  0
  6  7  2  0
  7  8  1  0
  8  9  1  0
M  END
