
     RDKit          3D

  9  9  0  0  0  0  0  0  0  0999 V2000
   -2.5390   -0.9940   -0.0360 C   0  0  0  0  0  0  0  0  0  0  0  0
   -1.5950   -0.4420    0.9130 N   0  0  0  0  0  0  0  0  0  0  0  0
   -0.5800    0.4240    0.4210 C   0  0  0  0  0  0  0  0  0  0  0  0
   -0.6960    1.7400    0.2230 C   0  0  0  0  0  0  0  0  0  0  0  0
    0.5620    2.2850   -0.2920 C   0  0  0  0  0  0  0  0  0  0  0  0
    1.4620    1.3300   -0.4180 C   0  0  0  0  0  0  0  0  0  0  0  0
    0.7900    0.1150    0.0230 C   0  0  0  0  0  0  0  0  0  0  0  0
    1.3060   -1.1030    0.0710 C   0  0  0  0  0  0  0  0  0  0  0  0
    2.6460   -1.3620   -0.3270 N   0  0  0  0  0  0  0  0  0  0  0  0
  1  2  1  0
  2  3  1  0
  3  4  2  0
  3  7  1  0
  4  5  1  0
  5  6  2  0
  6  7  1  0
  7  8  2  3
  8  9  1  0
M  END
