
     RDKit          3D

  9  9  0  0  0  0  0  0  0  0999 V2000
    3.0600   -0.3780   -0.6760 N   0  0  0  0  0  0  0  0  0  0  0  0
    2.1700    0.3490    0.2490 C   0  0  0  0  0  0  0  0  0  0  0  0
    1.0290   -0.5440    0.4710 C   0  0  0  0  0  0  0  0  0  0  0  0
   -0.1930   -0.2410    0.1820 C   0  0  0  0  0  0  0  0  0  0  0  0
   -0.5680    1.0320   -0.4000 C   0  0  0  0  0  0  0  0  0  0  0  0
   -1.8430    1.3070   -0.6840 C   0  0  0  0  0  0  0  0  0  0  0  0
   -2.8750    0.3280   -0.4100 C   0  0  0  0  0  0  0  0  0  0  0  0
   -2.5500   -0.8340    0.1200 C   0  0  0  0  0  0  0  0  0  0  0  0
   -1.2230   -1.2100    0.4520 N   0  0  0  0  0  0  0  0  0  0  0  0
  1  2  1  0
  2  3  1  0
  3  4  2  3
  4  5  1  0
  4  9  1  0
  5  6  2  0
  6  7  1  0
  7  8  2  0
  8  9  1  0
M  END
