
     RDKit          3D

  9 10  0  0  0  0  0  0  0  0999 V2000
    2.3490    0.7730    0.3990 N   0  0  0  0  0  0  0  0  0  0  0  0
    1.7130   -0.5130    0.1880 C   0  0  2  0  0  0  0  0  0  0  0  0
    1.2200   -0.6840   -1.2090 C   0  0  0  0  0  0  0  0  0  0  0  0
   -0.2880   -0.8350   -1.1100 C   0  0  0  0  0  0  0  0  0  0  0  0
   -0.6160   -0.9710    0.2580 N   0  0  0  0  0  0  0  0  0  0  0  0
   -1.7500   -0.2520    0.7330 C   0  0  1  0  0  0  0  0  0  0  0  0
   -1.7320    1.2840    0.6690 C   0  0  0  0  0  0  0  0  0  0  0  0
   -2.7170    0.4630   -0.0880 C   0  0  0  0  0  0  0  0  0  0  0  0
    0.5120   -0.6700    1.0770 C   0  0  0  0  0  0  0  0  0  0  0  0
  2  1  1  6
  2  3  1  0
  2  9  1  0
  3  4  1  0
  4  5  1  0
  6  5  1  6
  5  9  1  0
  6  7  1  0
  6  8  1  0
  7  8  1  0
M  CHG  1   1   1
M  END
