
     RDKit          3D

  9  9  0  0  0  0  0  0  0  0999 V2000
   -0.8840   -1.5430   -1.4370 C   0  0  0  0  0  0  0  0  0  0  0  0
   -0.7400   -0.4030   -0.4510 C   0  0  0  0  0  0  0  0  0  0  0  0
   -1.8160    0.2160   -0.0950 C   0  0  0  0  0  0  0  0  0  0  0  0
   -1.9840    1.2960    0.7910 N   0  0  0  0  0  0  0  0  0  0  0  0
    0.5880   -0.0840    0.0220 C   0  0  0  0  0  0  0  0  0  0  0  0
    1.0080    0.8740    0.8970 C   0  0  0  0  0  0  0  0  0  0  0  0
    2.3840    0.7650    1.0160 C   0  0  0  0  0  0  0  0  0  0  0  0
    2.7540   -0.2680    0.2010 C   0  0  0  0  0  0  0  0  0  0  0  0
    1.6750   -0.7850   -0.4030 N   0  0  0  0  0  0  0  0  0  0  0  0
  1  2  1  0
  2  3  2  3
  2  5  1  0
  3  4  1  0
  5  6  2  0
  5  9  1  0
  6  7  1  0
  7  8  2  0
  8  9  1  0
M  CHG  1   4   1
M  END
