
     RDKit          3D

  9  9  0  0  0  0  0  0  0  0999 V2000
   -2.8400    0.5400   -0.2380 C   0  0  0  0  0  0  0  0  0  0  0  0
   -2.0630   -0.2210    0.7180 N   0  0  0  0  0  0  0  0  0  0  0  0
   -0.6660   -0.1320    0.4760 C   0  0  0  0  0  0  0  0  0  0  0  0
    0.1200   -1.2020    0.8470 C   0  0  0  0  0  0  0  0  0  0  0  0
    1.4770   -1.1490    0.6280 C   0  0  0  0  0  0  0  0  0  0  0  0
    2.0930   -0.0600    0.0470 C   0  0  0  0  0  0  0  0  0  0  0  0
    3.5050   -0.0590   -0.1570 N   0  0  0  0  0  0  0  0  0  0  0  0
    1.3060    1.0100   -0.3240 C   0  0  0  0  0  0  0  0  0  0  0  0
   -0.0710    0.9660   -0.1060 C   0  0  0  0  0  0  0  0  0  0  0  0
  1  2  1  0
  2  3  1  0
  3  4  2  0
  3  9  1  0
  4  5  1  0
  5  6  2  0
  6  7  1  0
  6  8  1  0
  8  9  2  0
M  CHG  1   2   1
M  END
