
     RDKit          3D

  9  9  0  0  0  0  0  0  0  0999 V2000
    3.2770    0.1130   -0.2450 C   0  0  0  0  0  0  0  0  0  0  0  0
    1.9410   -0.4170   -0.1290 N   0  0  0  0  0  0  0  0  0  0  0  0
    0.7760    0.3950   -0.3380 C   0  0  0  0  0  0  0  0  0  0  0  0
   -0.3970   -0.1060    0.0330 C   0  0  0  0  0  0  0  0  0  0  0  0
   -0.6890   -1.3980    0.6420 C   0  0  0  0  0  0  0  0  0  0  0  0
   -2.0150   -1.4890    0.8510 C   0  0  0  0  0  0  0  0  0  0  0  0
   -2.6430   -0.2510    0.3850 C   0  0  0  0  0  0  0  0  0  0  0  0
   -1.6930    0.5510   -0.0920 C   0  0  0  0  0  0  0  0  0  0  0  0
   -1.9370    1.8360   -0.6280 N   0  0  0  0  0  0  0  0  0  0  0  0
  1  2  1  0
  2  3  1  0
  3  4  2  3
  4  5  1  0
  4  8  1  0
  5  6  2  0
  6  7  1  0
  7  8  2  0
  8  9  1  0
M  END
