
     RDKit          3D

  9  9  0  0  0  0  0  0  0  0999 V2000
   -3.2800   -0.1520   -0.3640 C   0  0  0  0  0  0  0  0  0  0  0  0
   -2.2770   -0.2770    0.6470 N   0  0  0  0  0  0  0  0  0  0  0  0
   -0.8840   -0.1260    0.4310 C   0  0  0  0  0  0  0  0  0  0  0  0
   -0.3490    0.1670   -0.7790 C   0  0  0  0  0  0  0  0  0  0  0  0
    1.0290    0.2940   -0.8900 C   0  0  0  0  0  0  0  0  0  0  0  0
    1.8880    0.1380    0.1760 C   0  0  0  0  0  0  0  0  0  0  0  0
    3.2870    0.2760    0.0250 N   0  0  0  0  0  0  0  0  0  0  0  0
    1.3300   -0.1590    1.3990 C   0  0  0  0  0  0  0  0  0  0  0  0
   -0.0320   -0.2870    1.5190 C   0  0  0  0  0  0  0  0  0  0  0  0
  1  2  1  0
  2  3  1  0
  3  4  2  0
  3  9  1  0
  4  5  1  0
  5  6  2  0
  6  7  1  0
  6  8  1  0
  8  9  2  0
M  CHG  1   7   1
M  END
