
     RDKit          3D

 23 26  0  0  0  0  0  0  0  0999 V2000
    1.8740    4.0980    1.3240 C   0  0  0  0  0  0  0  0  0  0  0  0
    1.7640    2.9820    0.4680 O   0  0  0  0  0  0  0  0  0  0  0  0
    1.1020    1.8190    0.8140 C   0  0  0  0  0  0  0  0  0  0  0  0
    0.5770    1.7580    1.9400 O   0  0  0  0  0  0  0  0  0  0  0  0
    1.0070    0.6600   -0.1090 C   0  0  1  0  0  0  0  0  0  0  0  0
    2.3630    0.0760   -0.1830 C   0  0  2  0  0  0  0  0  0  0  0  0
    2.9990    0.3710   -1.5290 C   0  0  0  0  0  0  0  0  0  0  0  0
    2.4890   -1.3690    0.0600 C   0  0  0  0  0  0  0  0  0  0  0  0
    3.4740   -2.2190   -0.2820 C   0  0  0  0  0  0  0  0  0  0  0  0
    3.0870   -3.5450    0.2080 C   0  0  0  0  0  0  0  0  0  0  0  0
    1.7860   -3.3560    0.8590 C   0  0  0  0  0  0  0  0  0  0  0  0
    1.4500   -2.0820    0.7650 C   0  0  0  0  0  0  0  0  0  0  0  0
    0.2640   -1.3010    1.2300 C   0  0  0  0  0  0  0  0  0  0  0  0
   -0.1200   -0.2780    0.1640 C   0  0  2  0  0  0  0  0  0  0  0  0
   -0.3470   -1.0590   -1.1410 C   0  0  0  0  0  0  0  0  0  0  0  0
   -0.8660   -0.1910   -2.2540 C   0  0  0  0  0  0  0  0  0  0  0  0
   -1.9000    0.8050   -1.8300 C   0  0  0  0  0  0  0  0  0  0  0  0
   -2.4680    0.3480   -0.5460 C   0  0  2  0  0  0  0  0  0  0  0  0
   -3.1870   -0.9340   -0.5690 C   0  0  0  0  0  0  0  0  0  0  0  0
   -3.4070    1.3820    0.1000 C   0  0  0  0  0  0  0  0  0  0  0  0
   -3.4560    0.7680    1.5050 C   0  0  0  0  0  0  0  0  0  0  0  0
   -2.0870    0.1050    1.7160 C   0  0  0  0  0  0  0  0  0  0  0  0
   -1.3470    0.4680    0.4960 C   0  0  1  0  0  0  0  0  0  0  0  0
  1  2  1  0
  2  3  1  0
  3  4  2  0
  5  3  1  1
  5  6  1  0
  5 14  1  0
  6  7  1  6
  6  8  1  0
  8  9  2  0
  8 12  1  0
  9 10  1  0
 10 11  1  0
 11 12  2  0
 12 13  1  0
 14 13  1  1
 14 15  1  0
 14 23  1  0
 15 16  1  0
 16 17  1  0
 17 18  1  0
 18 19  1  6
 18 20  1  0
 18 23  1  0
 20 21  1  0
 21 22  1  0
 23 22  1  1
M  END
