
     RDKit          3D

 30 33  0  0  0  0  0  0  0  0999 V2000
   -7.4990    2.1030    0.7410 C   0  0  0  0  0  0  0  0  0  0  0  0
   -6.3170    1.3580    0.2010 C   0  0  0  0  0  0  0  0  0  0  0  0
   -5.9440    0.1640    1.0650 C   0  0  0  0  0  0  0  0  0  0  0  0
   -4.7660   -0.5060    0.4720 C   0  0  0  0  0  0  0  0  0  0  0  0
   -3.5120    0.0080    0.6780 C   0  0  0  0  0  0  0  0  0  0  0  0
   -3.2750    1.1920    1.5330 C   0  0  0  0  0  0  0  0  0  0  0  0
   -2.4540   -0.6550    0.0610 C   0  0  0  0  0  0  0  0  0  0  0  0
   -2.6430   -1.7650   -0.7150 C   0  0  0  0  0  0  0  0  0  0  0  0
   -3.8840   -2.2200   -0.8800 O   0  0  0  0  0  0  0  0  0  0  0  0
   -4.8990   -1.6320   -0.3220 C   0  0  0  0  0  0  0  0  0  0  0  0
   -6.0740   -2.0800   -0.4900 O   0  0  0  0  0  0  0  0  0  0  0  0
   -1.5970   -2.5340   -1.4070 C   0  0  0  0  0  0  0  0  0  0  0  0
   -0.2340   -1.9750   -1.2020 C   0  0  0  0  0  0  0  0  0  0  0  0
    0.9850   -2.3660   -1.6630 N   0  0  0  0  0  0  0  0  0  0  0  0
    1.9320   -1.5410   -1.2020 C   0  0  0  0  0  0  0  0  0  0  0  0
    1.3330   -0.5650   -0.4070 C   0  0  0  0  0  0  0  0  0  0  0  0
   -0.0110   -0.8600   -0.4260 C   0  0  0  0  0  0  0  0  0  0  0  0
   -1.1130   -0.1610    0.2320 C   0  0  0  0  0  0  0  0  0  0  0  0
   -0.8560    0.8450    0.9220 O   0  0  0  0  0  0  0  0  0  0  0  0
    2.0160    0.5490    0.3210 C   0  0  0  0  0  0  0  0  0  0  0  0
    3.2800   -0.1120    0.9000 C   0  0  0  0  0  0  0  0  0  0  0  0
    4.4170    0.2020   -0.0450 C   0  0  1  0  0  0  0  0  0  0  0  0
    5.6560   -0.0570    0.7120 C   0  0  0  0  0  0  0  0  0  0  0  0
    5.8450   -1.3960    1.1150 O   0  0  0  0  0  0  0  0  0  0  0  0
    6.5460    0.8190    1.0200 C   0  0  0  0  0  0  0  0  0  0  0  0
    6.5450    2.2420    0.7040 C   0  0  0  0  0  0  0  0  0  0  0  0
    6.5710    2.9450    1.9250 O   0  0  0  0  0  0  0  0  0  0  0  0
    4.4630   -0.6490   -1.2760 C   0  0  0  0  0  0  0  0  0  0  0  0
    3.3710   -1.5940   -1.4630 C   0  0  0  0  0  0  0  0  0  0  0  0
    3.7240   -2.7060   -1.9560 O   0  0  0  0  0  0  0  0  0  0  0  0
  1  2  1  0
  2  3  1  0
  3  4  1  0
  4  5  2  0
  4 10  1  0
  5  6  1  0
  5  7  1  0
  7  8  2  0
  7 18  1  0
  8  9  1  0
  8 12  1  0
  9 10  1  0
 10 11  2  0
 12 13  1  0
 13 14  1  0
 13 17  2  0
 14 15  1  0
 15 16  2  0
 15 29  1  0
 16 17  1  0
 16 20  1  0
 17 18  1  0
 18 19  2  0
 20 21  1  0
 21 22  1  0
 22 23  1  1
 22 28  1  0
 23 24  1  0
 23 25  2  3
 25 26  1  0
 26 27  1  0
 28 29  1  0
 29 30  2  0
M  END
