
     RDKit          3D

 31 34  0  0  0  0  0  0  0  0999 V2000
   -5.3230    0.3510   -1.9780 O   0  0  0  0  0  0  0  0  0  0  0  0
   -5.1660   -0.5350   -1.1900 C   0  0  0  0  0  0  0  0  0  0  0  0
   -6.1730   -0.7360   -0.0900 C   0  0  0  0  0  0  0  0  0  0  0  0
   -5.4770   -1.2890    1.1460 C   0  0  0  0  0  0  0  0  0  0  0  0
   -4.0490   -0.8470    1.1180 C   0  0  0  0  0  0  0  0  0  0  0  0
   -3.5900   -0.2010    2.0260 O   0  0  0  0  0  0  0  0  0  0  0  0
   -3.1570   -1.1910   -0.0270 C   0  0  2  0  0  0  0  0  0  0  0  0
   -2.2050   -0.2170   -0.1580 O   0  0  0  0  0  0  0  0  0  0  0  0
   -0.8450   -0.3630    0.0380 C   0  0  0  0  0  0  0  0  0  0  0  0
   -0.5320   -1.5180    0.3620 O   0  0  0  0  0  0  0  0  0  0  0  0
    0.1320    0.7380   -0.1220 C   0  0  0  0  0  0  0  0  0  0  0  0
    1.5000    0.4590    0.1070 C   0  0  0  0  0  0  0  0  0  0  0  0
    2.1390   -0.7610    0.4860 N   0  0  0  0  0  0  0  0  0  0  0  0
    3.5600   -0.7990    0.6620 C   0  0  0  0  0  0  0  0  0  0  0  0
    4.2100    0.2500    0.4760 O   0  0  0  0  0  0  0  0  0  0  0  0
    4.2330   -2.0490    1.0520 C   0  0  0  0  0  0  0  0  0  0  0  0
    5.7370   -1.7220    1.1470 C   0  0  0  0  0  0  0  0  0  0  0  0
    6.5830   -1.8790    0.1440 C   0  0  0  0  0  0  0  0  0  0  0  0
    7.9350   -1.5610    0.3040 C   0  0  0  0  0  0  0  0  0  0  0  0
    7.9360   -1.0030    2.0350 S   0  0  0  0  0  0  0  0  0  0  0  0
    6.2090   -1.2340    2.3730 C   0  0  0  0  0  0  0  0  0  0  0  0
    2.3220    1.9360   -0.1650 S   0  0  0  0  0  0  0  0  0  0  0  0
    0.8330    2.9180   -0.5840 C   0  0  0  0  0  0  0  0  0  0  0  0
    0.7410    4.2520   -0.9270 C   0  0  0  0  0  0  0  0  0  0  0  0
   -0.5240    4.7430   -1.1970 C   0  0  0  0  0  0  0  0  0  0  0  0
   -0.7050    6.5590   -1.6710 Br  0  0  0  0  0  0  0  0  0  0  0  0
   -1.5670    3.8520   -1.0970 C   0  0  0  0  0  0  0  0  0  0  0  0
   -3.1680    4.5280   -1.4530 Cl  0  0  0  0  0  0  0  0  0  0  0  0
   -1.4340    2.5300   -0.7520 C   0  0  0  0  0  0  0  0  0  0  0  0
   -0.1390    2.0050   -0.4700 C   0  0  0  0  0  0  0  0  0  0  0  0
   -4.0180   -1.4930   -1.2010 C   0  0  0  0  0  0  0  0  0  0  0  0
  1  2  2  0
  2  3  1  0
  2 31  1  0
  3  4  1  0
  4  5  1  0
  5  6  2  0
  5  7  1  0
  7  8  1  6
  7 31  1  0
  8  9  1  0
  9 10  2  0
  9 11  1  0
 11 12  2  0
 11 30  1  0
 12 13  1  0
 12 22  1  0
 13 14  1  0
 14 15  2  0
 14 16  1  0
 16 17  1  0
 17 18  1  0
 17 21  2  0
 18 19  2  0
 19 20  1  0
 20 21  1  0
 22 23  1  0
 23 24  2  0
 23 30  1  0
 24 25  1  0
 25 26  1  0
 25 27  2  0
 27 28  1  0
 27 29  1  0
 29 30  2  0
M  END
