
     RDKit          3D

 30 33  0  0  0  0  0  0  0  0999 V2000
   -8.9640    1.2700    3.3550 C   0  0  0  0  0  0  0  0  0  0  0  0
   -7.9620    0.6410    2.4330 C   0  0  0  0  0  0  0  0  0  0  0  0
   -6.5710    0.6460    2.6030 C   0  0  0  0  0  0  0  0  0  0  0  0
   -6.0040   -0.0330    1.5500 C   0  0  0  0  0  0  0  0  0  0  0  0
   -4.6460   -0.2210    1.3970 O   0  0  0  0  0  0  0  0  0  0  0  0
   -3.8270    0.6090    0.6680 C   0  0  0  0  0  0  0  0  0  0  0  0
   -4.3540    1.6030    0.1080 O   0  0  0  0  0  0  0  0  0  0  0  0
   -2.3670    0.3020    0.5730 C   0  0  0  0  0  0  0  0  0  0  0  0
   -1.6690    1.3360   -0.2990 C   0  0  0  0  0  0  0  0  0  0  0  0
   -0.2760    0.9940   -0.3660 N   0  0  0  0  0  0  0  0  0  0  0  0
    0.6560    1.7670   -1.1120 C   0  0  0  0  0  0  0  0  0  0  0  0
    0.2180    2.7800   -1.7210 O   0  0  0  0  0  0  0  0  0  0  0  0
    2.0930    1.4470   -1.2080 C   0  0  0  0  0  0  0  0  0  0  0  0
    2.4270    0.2860   -0.4690 O   0  0  0  0  0  0  0  0  0  0  0  0
    3.7450   -0.1720   -0.4580 C   0  0  0  0  0  0  0  0  0  0  0  0
    4.1860   -1.0090   -1.3870 C   0  0  0  0  0  0  0  0  0  0  0  0
    3.5480   -1.6390   -2.5560 C   0  0  0  0  0  0  0  0  0  0  0  0
    4.2480   -2.4370   -3.3070 C   0  0  0  0  0  0  0  0  0  0  0  0
    5.6640   -2.7740   -3.0830 C   0  0  0  0  0  0  0  0  0  0  0  0
    6.2280   -2.1100   -1.9030 C   0  0  0  0  0  0  0  0  0  0  0  0
    5.5770   -1.2960   -1.1070 C   0  0  0  0  0  0  0  0  0  0  0  0
    5.9700   -0.5580    0.0910 C   0  0  0  0  0  0  0  0  0  0  0  0
    6.9650   -0.3060    0.9200 C   0  0  0  0  0  0  0  0  0  0  0  0
    6.4940    0.6280    1.9660 C   0  0  0  0  0  0  0  0  0  0  0  0
    5.0790    0.8520    1.5890 C   0  0  0  0  0  0  0  0  0  0  0  0
    4.7760    0.1680    0.5060 C   0  0  0  0  0  0  0  0  0  0  0  0
   -7.0730   -0.4350    0.7650 C   0  0  0  0  0  0  0  0  0  0  0  0
   -6.9690   -1.1910   -0.4680 C   0  0  0  0  0  0  0  0  0  0  0  0
   -8.0240   -1.4870   -1.0790 O   0  0  0  0  0  0  0  0  0  0  0  0
   -8.1930   -0.0160    1.3260 O   0  0  0  0  0  0  0  0  0  0  0  0
  1  2  1  0
  2  3  2  0
  2 30  1  0
  3  4  1  0
  4  5  1  0
  4 27  2  0
  5  6  1  0
  6  7  2  0
  6  8  1  0
  8  9  1  0
  9 10  1  0
 10 11  1  0
 11 12  2  0
 11 13  1  0
 13 14  1  0
 14 15  1  0
 15 16  2  0
 15 26  1  0
 16 17  1  0
 16 21  1  0
 17 18  2  0
 18 19  1  0
 19 20  1  0
 20 21  2  0
 21 22  1  0
 22 23  2  0
 22 26  1  0
 23 24  1  0
 24 25  1  0
 25 26  2  0
 27 28  1  0
 27 30  1  0
 28 29  2  0
M  END
