
     RDKit          3D

 31 34  0  0  0  0  0  0  0  0999 V2000
    1.1270    1.0880   -1.5290 O   0  0  0  0  0  0  0  0  0  0  0  0
    0.3620    0.5420   -0.7270 C   0  0  0  0  0  0  0  0  0  0  0  0
   -1.0670    0.9380   -0.7680 C   0  0  0  0  0  0  0  0  0  0  0  0
   -1.9650    0.0030    0.4930 S   0  0  0  0  0  0  0  0  0  0  0  0
   -3.7000    0.4400    0.4920 C   0  0  0  0  0  0  0  0  0  0  0  0
   -4.1850    1.4760    1.2820 C   0  0  0  0  0  0  0  0  0  0  0  0
   -5.5240    1.8110    1.2790 C   0  0  0  0  0  0  0  0  0  0  0  0
   -6.4310    1.1250    0.4870 C   0  0  0  0  0  0  0  0  0  0  0  0
   -7.7710    1.4390    0.4660 C   0  0  0  0  0  0  0  0  0  0  0  0
   -8.6820    0.7470   -0.3320 C   0  0  0  0  0  0  0  0  0  0  0  0
   -8.2250   -0.2850   -1.1260 C   0  0  0  0  0  0  0  0  0  0  0  0
   -6.8800   -0.5840   -1.0910 C   0  0  0  0  0  0  0  0  0  0  0  0
   -5.9690    0.0920   -0.3060 C   0  0  0  0  0  0  0  0  0  0  0  0
   -4.6230   -0.2260   -0.2870 C   0  0  0  0  0  0  0  0  0  0  0  0
    0.8010   -0.4160    0.1940 N   0  0  0  0  0  0  0  0  0  0  0  0
    2.1130   -0.8800    0.3390 C   0  0  0  0  0  0  0  0  0  0  0  0
    3.1720   -0.4560   -0.4110 C   0  0  0  0  0  0  0  0  0  0  0  0
    4.4640   -0.9610   -0.2140 C   0  0  0  0  0  0  0  0  0  0  0  0
    4.7300   -1.9110    0.7450 C   0  0  0  0  0  0  0  0  0  0  0  0
    3.6500   -2.3340    1.4990 C   0  0  0  0  0  0  0  0  0  0  0  0
    2.3850   -1.8540    1.3230 C   0  0  0  0  0  0  0  0  0  0  0  0
    1.0700   -2.4390    2.3170 Cl  0  0  0  0  0  0  0  0  0  0  0  0
    6.0110   -2.3710    0.8960 O   0  0  0  0  0  0  0  0  0  0  0  0
    7.0830   -2.0170    0.0470 C   0  0  0  0  0  0  0  0  0  0  0  0
    6.8610   -0.6730   -0.6170 C   0  0  2  0  0  0  0  0  0  0  0  0
    7.2690    0.4490    0.2430 C   0  0  0  0  0  0  0  0  0  0  0  0
    8.4370    0.5420    0.7210 O   0  0  0  0  0  0  0  0  0  0  0  0
    6.3490    1.4390    0.5430 O   0  0  0  0  0  0  0  0  0  0  0  0
    6.8260    2.7670    1.5590 S   0  0  0  0  0  0  0  0  0  0  0  0
    6.8360    4.6220    0.2460 Br  0  0  0  0  0  0  0  0  0  0  0  0
    5.5110   -0.5050   -0.9950 O   0  0  0  0  0  0  0  0  0  0  0  0
  1  2  2  0
  2  3  1  0
  2 15  1  0
  3  4  1  0
  4  5  1  0
  5  6  2  0
  5 14  1  0
  6  7  1  0
  7  8  2  0
  8  9  1  0
  8 13  1  0
  9 10  2  0
 10 11  1  0
 11 12  2  0
 12 13  1  0
 13 14  2  0
 15 16  1  0
 16 17  2  0
 16 21  1  0
 17 18  1  0
 18 19  2  0
 18 31  1  0
 19 20  1  0
 19 23  1  0
 20 21  2  0
 21 22  1  0
 23 24  1  0
 24 25  1  0
 25 26  1  1
 25 31  1  0
 26 27  2  0
 26 28  1  0
 28 29  1  0
 29 30  1  0
M  END
