
     RDKit          3D

 17 16  0  0  0  0  0  0  0  0999 V2000
   -5.3560   -1.3720    0.3890 C   0  0  0  0  0  0  0  0  0  0  0  0
   -4.6660   -0.3010    0.2040 C   0  0  0  0  0  0  0  0  0  0  0  0
   -5.3250    1.0360   -0.0300 C   0  0  0  0  0  0  0  0  0  0  0  0
   -5.0360    1.6690   -1.2150 O   0  0  0  0  0  0  0  0  0  0  0  0
   -3.2180   -0.4240    0.3330 C   0  0  0  0  0  0  0  0  0  0  0  0
   -2.8010   -1.4990    0.8040 O   0  0  0  0  0  0  0  0  0  0  0  0
   -2.3040    0.6350   -0.0540 O   0  0  0  0  0  0  0  0  0  0  0  0
   -0.9700    0.2100    0.1650 C   0  0  0  0  0  0  0  0  0  0  0  0
   -0.6690   -1.0780   -0.4650 C   0  0  0  0  0  0  0  0  0  0  0  0
    0.6050   -1.5500   -0.1910 O   0  0  0  0  0  0  0  0  0  0  0  0
    1.8210   -0.8490   -0.4120 C   0  0  0  0  0  0  0  0  0  0  0  0
    1.7390    0.3030   -0.8300 O   0  0  0  0  0  0  0  0  0  0  0  0
    3.1940   -1.5110   -0.1720 C   0  0  0  0  0  0  0  0  0  0  0  0
    4.0180   -0.7720   -0.6280 O   0  0  0  0  0  0  0  0  0  0  0  0
    4.8770   -0.1340   -1.0370 O   0  0  0  0  0  0  0  0  0  0  0  0
    5.5170    0.4840    0.1650 C   0  0  0  0  0  0  0  0  0  0  0  0
    5.3930    1.9610   -0.2760 C   0  0  0  0  0  0  0  0  0  0  0  0
  1  2  2  0
  2  3  1  0
  2  5  1  0
  3  4  1  0
  5  6  2  0
  5  7  1  0
  7  8  1  0
  8  9  1  0
  9 10  1  0
 10 11  1  0
 11 12  2  0
 11 13  1  0
 13 14  1  0
 14 15  1  0
 15 16  1  0
 16 17  1  0
M  END
