
     RDKit          3D

 17 16  0  0  0  0  0  0  0  0999 V2000
    5.9700   -0.0780   -0.5030 C   0  0  0  0  0  0  0  0  0  0  0  0
    4.9320   -0.8620    0.2340 C   0  0  0  0  0  0  0  0  0  0  0  0
    3.6460   -0.6580   -0.2220 O   0  0  0  0  0  0  0  0  0  0  0  0
    3.2790    0.6670   -0.1080 C   0  0  0  0  0  0  0  0  0  0  0  0
    1.8500    0.8310   -0.6270 C   0  0  0  0  0  0  0  0  0  0  0  0
    1.0060    0.0240    0.1470 O   0  0  0  0  0  0  0  0  0  0  0  0
   -0.3640   -0.0040   -0.1290 C   0  0  0  0  0  0  0  0  0  0  0  0
   -0.8840    0.6570   -1.0350 O   0  0  0  0  0  0  0  0  0  0  0  0
   -1.1760   -0.8030    0.6430 O   0  0  0  0  0  0  0  0  0  0  0  0
   -2.5440   -0.9790    0.5510 C   0  0  2  0  0  0  0  0  0  0  0  0
   -2.8930   -2.0030    1.6550 C   0  0  0  0  0  0  0  0  0  0  0  0
   -2.9730   -1.6450   -0.7540 C   0  0  0  0  0  0  0  0  0  0  0  0
   -3.4060    0.2080    0.8020 C   0  0  0  0  0  0  0  0  0  0  0  0
   -3.2000    1.2950   -0.0720 O   0  0  0  0  0  0  0  0  0  0  0  0
   -3.9190    2.4730    0.0260 C   0  0  0  0  0  0  0  0  0  0  0  0
   -4.7820    2.5330    0.9500 O   0  0  0  0  0  0  0  0  0  0  0  0
   -3.7170    3.5490   -0.8370 O   0  0  0  0  0  0  0  0  0  0  0  0
  1  2  1  0
  2  3  1  0
  3  4  1  0
  4  5  1  0
  5  6  1  0
  6  7  1  0
  7  8  2  0
  7  9  1  0
  9 10  1  0
 10 11  1  1
 10 12  1  0
 10 13  1  0
 13 14  1  0
 14 15  1  0
 15 16  2  0
 15 17  1  0
M  END
