
     RDKit          3D

 17 16  0  0  0  0  0  0  0  0999 V2000
   -4.4000    1.6660    0.0220 C   0  0  0  0  0  0  0  0  0  0  0  0
   -3.1090    0.9690   -0.0340 C   0  0  0  0  0  0  0  0  0  0  0  0
   -2.5890    0.2280    0.9150 C   0  0  0  0  0  0  0  0  0  0  0  0
   -3.2920    0.0330    2.1590 C   0  0  0  0  0  0  0  0  0  0  0  0
   -2.8400   -0.6690    3.1060 O   0  0  0  0  0  0  0  0  0  0  0  0
   -4.5450    0.6610    2.3090 O   0  0  0  0  0  0  0  0  0  0  0  0
   -1.2890   -0.4260    0.7680 C   0  0  0  0  0  0  0  0  0  0  0  0
   -0.7620   -1.1340    1.6300 O   0  0  0  0  0  0  0  0  0  0  0  0
   -0.6130   -0.2340   -0.4140 O   0  0  0  0  0  0  0  0  0  0  0  0
    0.6450   -0.8100   -0.6690 C   0  0  1  0  0  0  0  0  0  0  0  0
    0.4730   -1.6310   -1.9340 C   0  0  0  0  0  0  0  0  0  0  0  0
    1.7140    0.1840   -0.8680 C   0  0  0  0  0  0  0  0  0  0  0  0
    1.4530    1.3640   -0.7830 O   0  0  0  0  0  0  0  0  0  0  0  0
    3.0760   -0.2510   -1.1640 C   0  0  0  0  0  0  0  0  0  0  0  0
    4.0220   -0.1330    0.0340 C   0  0  0  0  0  0  0  0  0  0  0  0
    5.2680   -0.5920   -0.4460 O   0  0  0  0  0  0  0  0  0  0  0  0
    6.1800   -0.5460    0.4820 O   0  0  0  0  0  0  0  0  0  0  0  0
  1  2  1  0
  2  3  2  3
  3  4  1  0
  3  7  1  0
  4  5  2  0
  4  6  1  0
  7  8  2  0
  7  9  1  0
  9 10  1  0
 10 11  1  6
 10 12  1  0
 12 13  2  0
 12 14  1  0
 14 15  1  0
 15 16  1  0
 16 17  1  0
M  END
