
     RDKit          3D

 17 16  0  0  0  0  0  0  0  0999 V2000
    4.5930    2.2600   -0.1670 O   0  0  0  0  0  0  0  0  0  0  0  0
    4.3640    1.8770   -1.3410 C   0  0  0  0  0  0  0  0  0  0  0  0
    4.2460    2.7760   -2.3650 O   0  0  0  0  0  0  0  0  0  0  0  0
    4.2250    0.4230   -1.5950 C   0  0  0  0  0  0  0  0  0  0  0  0
    4.3960   -0.3650   -0.3130 C   0  0  0  0  0  0  0  0  0  0  0  0
    3.4440   -0.0230    0.6660 O   0  0  0  0  0  0  0  0  0  0  0  0
    2.0710   -0.1710    0.4520 C   0  0  0  0  0  0  0  0  0  0  0  0
    1.6420   -0.6140   -0.6200 O   0  0  0  0  0  0  0  0  0  0  0  0
    1.2020    0.1730    1.4270 O   0  0  0  0  0  0  0  0  0  0  0  0
   -0.1480    0.1360    1.4920 C   0  0  0  0  0  0  0  0  0  0  0  0
   -0.9300   -0.2730    0.5490 C   0  0  0  0  0  0  0  0  0  0  0  0
   -2.3770   -0.2600    0.7520 C   0  0  0  0  0  0  0  0  0  0  0  0
   -3.2230   -0.6680   -0.1810 C   0  0  0  0  0  0  0  0  0  0  0  0
   -4.6540   -0.6490    0.0360 C   0  0  0  0  0  0  0  0  0  0  0  0
   -5.1840   -0.2010    1.2330 O   0  0  0  0  0  0  0  0  0  0  0  0
   -5.4600   -1.0610   -0.9130 C   0  0  0  0  0  0  0  0  0  0  0  0
   -6.8430   -1.0670   -0.7660 O   0  0  0  0  0  0  0  0  0  0  0  0
  1  2  2  0
  2  3  1  0
  2  4  1  0
  4  5  1  0
  5  6  1  0
  6  7  1  0
  7  8  2  0
  7  9  1  0
  9 10  1  0
 10 11  2  3
 11 12  1  0
 12 13  2  3
 13 14  1  0
 14 15  1  0
 14 16  2  3
 16 17  1  0
M  END
