
     RDKit          3D

 25 26  0  0  0  0  0  0  0  0999 V2000
    7.7040    0.1700   -0.7910 C   0  0  0  0  0  0  0  0  0  0  0  0
    7.1240    1.3620   -0.0670 C   0  0  0  0  0  0  0  0  0  0  0  0
    5.7340    1.3690   -0.0910 O   0  0  0  0  0  0  0  0  0  0  0  0
    4.9960    0.3580    0.4920 C   0  0  0  0  0  0  0  0  0  0  0  0
    5.5350   -0.7150    1.1490 C   0  0  0  0  0  0  0  0  0  0  0  0
    4.7860   -1.7330    1.7330 C   0  0  0  0  0  0  0  0  0  0  0  0
    3.4170   -1.6390    1.6360 C   0  0  0  0  0  0  0  0  0  0  0  0
    2.8340   -0.5740    0.9830 C   0  0  0  0  0  0  0  0  0  0  0  0
    1.3950   -0.5080    0.8960 N   0  0  0  0  0  0  0  0  0  0  0  0
    0.7390    0.6260    0.2800 C   0  0  2  0  0  0  0  0  0  0  0  0
    1.0270    1.9070    1.0170 C   0  0  0  0  0  0  0  0  0  0  0  0
   -0.7210    0.3930    0.2970 C   0  0  0  0  0  0  0  0  0  0  0  0
   -1.1560   -0.6670    0.8020 O   0  0  0  0  0  0  0  0  0  0  0  0
   -1.6120    1.3390   -0.2410 N   0  0  0  0  0  0  0  0  0  0  0  0
   -2.9990    1.1800   -0.2560 N   0  0  0  0  0  0  0  0  0  0  0  0
   -3.5520    0.0820   -0.5750 C   0  0  0  0  0  0  0  0  0  0  0  0
   -5.0290   -0.0020   -0.5650 C   0  0  0  0  0  0  0  0  0  0  0  0
   -5.7520    1.0390   -0.2340 C   0  0  0  0  0  0  0  0  0  0  0  0
   -7.1900    1.0770   -0.1880 C   0  0  0  0  0  0  0  0  0  0  0  0
   -7.8270   -0.1880   -0.5560 C   0  0  0  0  0  0  0  0  0  0  0  0
   -7.1340   -1.2430   -0.8910 C   0  0  0  0  0  0  0  0  0  0  0  0
   -5.6660   -1.2600   -0.9300 C   0  0  0  0  0  0  0  0  0  0  0  0
   -5.0180   -2.3610   -1.2790 C   0  0  0  0  0  0  0  0  0  0  0  0
   -5.7240   -3.5150   -1.6110 O   0  0  0  0  0  0  0  0  0  0  0  0
    3.6070    0.4090    0.4210 C   0  0  0  0  0  0  0  0  0  0  0  0
  1  2  1  0
  2  3  1  0
  3  4  1  0
  4  5  2  0
  4 25  1  0
  5  6  1  0
  6  7  2  0
  7  8  1  0
  8  9  1  0
  8 25  2  0
  9 10  1  0
 10 11  1  1
 10 12  1  0
 12 13  2  0
 12 14  1  0
 14 15  1  0
 15 16  2  3
 16 17  1  0
 17 18  2  0
 17 22  1  0
 18 19  1  0
 19 20  1  0
 20 21  2  0
 21 22  1  0
 22 23  2  3
 23 24  1  0
M  END
