
     RDKit          3D

 25 27  0  0  0  0  0  0  0  0999 V2000
   -6.8800    0.9570   -0.2320 C   0  0  0  0  0  0  0  0  0  0  0  0
   -5.6010    0.8340    0.0590 C   0  0  0  0  0  0  0  0  0  0  0  0
   -4.6100    1.9350    0.0460 C   0  0  0  0  0  0  0  0  0  0  0  0
   -3.3720    1.1210   -0.4530 C   0  0  0  0  0  0  0  0  0  0  0  0
   -3.4260   -0.0570    0.4500 C   0  0  2  0  0  0  0  0  0  0  0  0
   -3.0860    0.4260    1.7400 O   0  0  0  0  0  0  0  0  0  0  0  0
   -2.6290   -1.2580    0.1450 C   0  0  0  0  0  0  0  0  0  0  0  0
   -1.2170   -1.0440    0.1410 N   0  0  0  0  0  0  0  0  0  0  0  0
   -0.4860   -0.2850   -0.7890 C   0  0  0  0  0  0  0  0  0  0  0  0
   -1.0640    0.2660   -1.7480 O   0  0  0  0  0  0  0  0  0  0  0  0
    0.9480   -0.1160   -0.6690 C   0  0  0  0  0  0  0  0  0  0  0  0
    1.6910   -0.6710    0.3470 C   0  0  0  0  0  0  0  0  0  0  0  0
    3.0700   -0.4720    0.4050 C   0  0  0  0  0  0  0  0  0  0  0  0
    3.8280   -1.0220    1.4170 C   0  0  0  0  0  0  0  0  0  0  0  0
    5.2110   -0.7890    1.4280 C   0  0  0  0  0  0  0  0  0  0  0  0
    5.8190   -0.0330    0.4620 C   0  0  0  0  0  0  0  0  0  0  0  0
    7.1920    0.2670    0.3960 N   0  0  0  0  0  0  0  0  0  0  0  0
    8.0920   -0.0090    1.4160 C   0  0  0  0  0  0  0  0  0  0  0  0
    7.8020   -0.5420    2.4950 O   0  0  0  0  0  0  0  0  0  0  0  0
    5.0070    0.5070   -0.5500 C   0  0  0  0  0  0  0  0  0  0  0  0
    3.6500    0.2920   -0.5800 C   0  0  0  0  0  0  0  0  0  0  0  0
    2.8980    0.8530   -1.6080 C   0  0  0  0  0  0  0  0  0  0  0  0
    1.5810    0.6310   -1.6170 N   0  0  0  0  0  0  0  0  0  0  0  0
   -4.9070   -0.3800    0.4430 C   0  0  0  0  0  0  0  0  0  0  0  0
   -5.4070   -1.5510    0.7390 C   0  0  0  0  0  0  0  0  0  0  0  0
  1  2  2  0
  2  3  1  0
  2 24  1  0
  3  4  1  0
  4  5  1  0
  5  6  1  1
  5  7  1  0
  5 24  1  0
  7  8  1  0
  8  9  1  0
  9 10  2  0
  9 11  1  0
 11 12  2  0
 11 23  1  0
 12 13  1  0
 13 14  2  0
 13 21  1  0
 14 15  1  0
 15 16  2  0
 16 17  1  0
 16 20  1  0
 17 18  1  0
 18 19  2  0
 20 21  2  0
 21 22  1  0
 22 23  2  0
 24 25  2  0
M  END
