
     RDKit          3D

 25 27  0  0  0  0  0  0  0  0999 V2000
   -2.3590    4.6840   -0.3570 C   0  0  0  0  0  0  0  0  0  0  0  0
   -0.9430    4.2620   -0.0650 C   0  0  0  0  0  0  0  0  0  0  0  0
   -0.9500    3.0840    0.6410 O   0  0  0  0  0  0  0  0  0  0  0  0
   -1.2820    1.8420    0.1400 C   0  0  0  0  0  0  0  0  0  0  0  0
   -1.6250    1.6650   -1.0150 O   0  0  0  0  0  0  0  0  0  0  0  0
   -1.1550    0.7340    1.1640 C   0  0  2  0  0  0  0  0  0  0  0  0
    0.2690    0.4150    1.1670 N   0  0  0  0  0  0  0  0  0  0  0  0
    1.0990    0.4370    0.0730 C   0  0  0  0  0  0  0  0  0  0  0  0
    0.6500    0.7250   -1.0820 O   0  0  0  0  0  0  0  0  0  0  0  0
    2.5440    0.1100    0.2740 C   0  0  0  0  0  0  0  0  0  0  0  0
    3.2710   -0.0570   -1.0420 C   0  0  0  0  0  0  0  0  0  0  0  0
    4.5850   -0.6220   -0.6810 C   0  0  0  0  0  0  0  0  0  0  0  0
    5.8210   -0.1220   -0.4870 C   0  0  0  0  0  0  0  0  0  0  0  0
    6.6620   -1.1620   -0.0540 C   0  0  0  0  0  0  0  0  0  0  0  0
    5.8710   -2.2760   -0.0060 C   0  0  0  0  0  0  0  0  0  0  0  0
    4.6270   -1.9790   -0.3770 N   0  0  0  0  0  0  0  0  0  0  0  0
   -1.9190   -0.4710    0.7390 C   0  0  0  0  0  0  0  0  0  0  0  0
   -1.4110   -1.7210    0.9140 C   0  0  0  0  0  0  0  0  0  0  0  0
   -2.1760   -2.8210    0.4960 C   0  0  0  0  0  0  0  0  0  0  0  0
   -3.4250   -2.6620   -0.0900 C   0  0  0  0  0  0  0  0  0  0  0  0
   -4.3550   -3.5560   -0.5720 N   0  0  0  0  0  0  0  0  0  0  0  0
   -5.3760   -2.8550   -1.0240 C   0  0  0  0  0  0  0  0  0  0  0  0
   -5.1680   -1.5030   -0.8620 C   0  0  0  0  0  0  0  0  0  0  0  0
   -3.9080   -1.3990   -0.2560 C   0  0  0  0  0  0  0  0  0  0  0  0
   -3.1470   -0.3270    0.1590 C   0  0  0  0  0  0  0  0  0  0  0  0
  1  2  1  0
  2  3  1  0
  3  4  1  0
  4  5  2  0
  4  6  1  0
  6  7  1  6
  6 17  1  0
  7  8  1  0
  8  9  2  0
  8 10  1  0
 10 11  1  0
 11 12  1  0
 12 13  2  0
 12 16  1  0
 13 14  1  0
 14 15  2  0
 15 16  1  0
 17 18  2  0
 17 25  1  0
 18 19  1  0
 19 20  2  0
 20 21  1  0
 20 24  1  0
 21 22  1  0
 22 23  2  0
 23 24  1  0
 24 25  2  0
M  END
