
     RDKit          3D

 25 27  0  0  0  0  0  0  0  0999 V2000
   -2.5340    1.8780   -3.8080 C   0  0  0  0  0  0  0  0  0  0  0  0
   -2.3430    1.5800   -2.3080 C   0  0  0  0  0  0  0  0  0  0  0  0
   -0.9200    1.1230   -2.1310 C   0  0  0  0  0  0  0  0  0  0  0  0
   -0.6130    0.8170   -0.6960 C   0  0  2  0  0  0  0  0  0  0  0  0
    0.7530    0.3780   -0.5140 N   0  0  0  0  0  0  0  0  0  0  0  0
    1.6530    1.1260    0.2660 C   0  0  0  0  0  0  0  0  0  0  0  0
    1.2430    2.1830    0.8020 O   0  0  0  0  0  0  0  0  0  0  0  0
    3.0350    0.7090    0.4680 C   0  0  0  0  0  0  0  0  0  0  0  0
    3.8830    1.4900    1.2500 C   0  0  0  0  0  0  0  0  0  0  0  0
    5.1980    1.1650    1.4880 C   0  0  0  0  0  0  0  0  0  0  0  0
    5.7090    0.0090    0.9250 C   0  0  0  0  0  0  0  0  0  0  0  0
    6.9190   -0.5770    0.9610 N   0  0  0  0  0  0  0  0  0  0  0  0
    6.8550   -1.6900    0.2320 C   0  0  0  0  0  0  0  0  0  0  0  0
    7.8150   -2.4820    0.0520 O   0  0  0  0  0  0  0  0  0  0  0  0
    5.6070   -1.8140   -0.2680 N   0  0  0  0  0  0  0  0  0  0  0  0
    4.8810   -0.7680    0.1520 C   0  0  0  0  0  0  0  0  0  0  0  0
    3.5590   -0.4340   -0.0820 C   0  0  0  0  0  0  0  0  0  0  0  0
   -1.5750   -0.1440   -0.0720 C   0  0  0  0  0  0  0  0  0  0  0  0
   -1.1130   -1.3050    0.3540 C   0  0  0  0  0  0  0  0  0  0  0  0
   -2.0370   -2.2580    0.9660 C   0  0  0  0  0  0  0  0  0  0  0  0
   -3.3260   -2.0190    1.1190 C   0  0  0  0  0  0  0  0  0  0  0  0
   -3.8710   -0.7370    0.6560 C   0  0  1  0  0  0  0  0  0  0  0  0
   -4.5180    0.0030    1.8200 C   0  0  0  0  0  0  0  0  0  0  0  0
   -5.6490   -0.8210    2.4150 C   0  0  0  0  0  0  0  0  0  0  0  0
   -2.9070    0.1160    0.0810 O   0  0  0  0  0  0  0  0  0  0  0  0
  1  2  1  0
  2  3  1  0
  4  3  1  6
  4  5  1  0
  4 18  1  0
  5  6  1  0
  6  7  2  0
  6  8  1  0
  8  9  2  0
  8 17  1  0
  9 10  1  0
 10 11  2  0
 11 12  1  0
 11 16  1  0
 12 13  1  0
 13 14  2  0
 13 15  1  0
 15 16  1  0
 16 17  2  0
 18 19  2  0
 18 25  1  0
 19 20  1  0
 20 21  2  0
 21 22  1  0
 22 23  1  1
 22 25  1  0
 23 24  1  0
M  END
