
     RDKit          3D

 25 27  0  0  0  0  0  0  0  0999 V2000
   -5.2850   -2.8470   -1.2700 C   0  0  0  0  0  0  0  0  0  0  0  0
   -3.8780   -2.4860   -1.1940 C   0  0  0  0  0  0  0  0  0  0  0  0
   -3.3300   -1.4440   -0.7010 C   0  0  0  0  0  0  0  0  0  0  0  0
   -3.8760   -0.2730   -0.0550 C   0  0  0  0  0  0  0  0  0  0  0  0
   -5.2170   -0.0790    0.1690 C   0  0  0  0  0  0  0  0  0  0  0  0
   -5.6410    1.0450    0.7830 N   0  0  0  0  0  0  0  0  0  0  0  0
   -4.7980    2.0060    1.1960 C   0  0  0  0  0  0  0  0  0  0  0  0
   -4.9120    3.2270    1.8320 C   0  0  0  0  0  0  0  0  0  0  0  0
   -3.6400    3.7470    1.9790 C   0  0  0  0  0  0  0  0  0  0  0  0
   -2.7930    2.8890    1.4610 O   0  0  0  0  0  0  0  0  0  0  0  0
   -3.4300    1.8500    0.9890 C   0  0  0  0  0  0  0  0  0  0  0  0
   -2.9700    0.7260    0.3710 C   0  0  0  0  0  0  0  0  0  0  0  0
   -1.5740    0.5710    0.1500 N   0  0  0  0  0  0  0  0  0  0  0  0
   -1.0440    1.1150   -1.0580 C   0  0  0  0  0  0  0  0  0  0  0  0
    0.3970    0.8830   -1.1830 C   0  0  0  0  0  0  0  0  0  0  0  0
    1.0360    1.3140   -2.2230 O   0  0  0  0  0  0  0  0  0  0  0  0
    1.2260    0.2060   -0.2570 N   0  0  0  0  0  0  0  0  0  0  0  0
    2.6690    0.0390   -0.5050 C   0  0  2  0  0  0  0  0  0  0  0  0
    2.9100   -1.4590   -0.5300 C   0  0  0  0  0  0  0  0  0  0  0  0
    4.3730   -1.7830   -0.7200 C   0  0  0  0  0  0  0  0  0  0  0  0
    5.1350   -1.6860    0.5570 C   0  0  0  0  0  0  0  0  0  0  0  0
    5.6690   -0.3300    0.8690 C   0  0  0  0  0  0  0  0  0  0  0  0
    4.8980    0.7760    0.2000 C   0  0  2  0  0  0  0  0  0  0  0  0
    5.3830    2.0050    0.6130 O   0  0  0  0  0  0  0  0  0  0  0  0
    3.4530    0.6740    0.6200 C   0  0  0  0  0  0  0  0  0  0  0  0
  1  2  1  0
  2  3  2  3
  3  4  1  0
  4  5  2  0
  4 12  1  0
  5  6  1  0
  6  7  2  0
  7  8  1  0
  7 11  1  0
  8  9  2  0
  9 10  1  0
 10 11  1  0
 11 12  2  0
 12 13  1  0
 13 14  1  0
 14 15  1  0
 15 16  2  0
 15 17  1  0
 18 17  1  1
 18 19  1  0
 18 25  1  0
 19 20  1  0
 20 21  1  0
 21 22  1  0
 22 23  1  0
 23 24  1  1
 23 25  1  0
M  END
