
     RDKit          3D

 25 26  0  0  0  0  0  0  0  0999 V2000
   -3.8010    0.0480    1.8130 C   0  0  0  0  0  0  0  0  0  0  0  0
   -4.4370    1.1580    1.5230 C   0  0  0  0  0  0  0  0  0  0  0  0
   -5.5310    1.6520    2.3640 C   0  0  0  0  0  0  0  0  0  0  0  0
   -6.1830    2.7520    2.1010 C   0  0  0  0  0  0  0  0  0  0  0  0
   -5.9020    3.6080    0.9550 C   0  0  0  0  0  0  0  0  0  0  0  0
   -4.7960    3.0750    0.1370 C   0  0  0  0  0  0  0  0  0  0  0  0
   -4.1110    1.9740    0.3620 C   0  0  0  0  0  0  0  0  0  0  0  0
   -3.0110    1.5270   -0.5310 C   0  0  0  0  0  0  0  0  0  0  0  0
   -1.7820    1.4350    0.1620 O   0  0  0  0  0  0  0  0  0  0  0  0
   -0.6690    1.0250   -0.5690 C   0  0  0  0  0  0  0  0  0  0  0  0
   -0.7960    0.7580   -1.7900 O   0  0  0  0  0  0  0  0  0  0  0  0
    0.6740    0.8900    0.0460 C   0  0  2  0  0  0  0  0  0  0  0  0
    1.0530    2.2470    0.5870 C   0  0  0  0  0  0  0  0  0  0  0  0
    2.4450    2.3460    1.0760 C   0  0  0  0  0  0  0  0  0  0  0  0
    3.4670    1.6450    0.2310 C   0  0  0  0  0  0  0  0  0  0  0  0
    2.9710    0.5280   -0.4940 N   0  0  0  0  0  0  0  0  0  0  0  0
    3.7860   -0.6130   -0.6770 C   0  0  0  0  0  0  0  0  0  0  0  0
    4.9480   -0.6340   -0.1970 O   0  0  0  0  0  0  0  0  0  0  0  0
    3.3090   -1.7460   -1.4010 N   0  0  0  0  0  0  0  0  0  0  0  0
    3.6070   -2.9520   -1.0100 C   0  0  0  0  0  0  0  0  0  0  0  0
    4.4100   -3.1700    0.1420 N   0  0  0  0  0  0  0  0  0  0  0  0
    3.0930   -4.0610   -1.7890 C   0  0  0  0  0  0  0  0  0  0  0  0
    3.3830   -5.2910   -1.4080 C   0  0  0  0  0  0  0  0  0  0  0  0
    2.8640   -6.4570   -2.1960 C   0  0  0  0  0  0  0  0  0  0  0  0
    1.6530    0.5410   -1.0440 C   0  0  0  0  0  0  0  0  0  0  0  0
  1  2  2  0
  2  3  1  0
  2  7  1  0
  3  4  2  0
  4  5  1  0
  5  6  1  0
  6  7  2  0
  7  8  1  0
  8  9  1  0
  9 10  1  0
 10 11  2  0
 12 10  1  6
 12 13  1  0
 12 25  1  0
 13 14  1  0
 14 15  1  0
 15 16  1  0
 16 17  1  0
 16 25  1  0
 17 18  2  0
 17 19  1  0
 19 20  2  3
 20 21  1  0
 20 22  1  0
 22 23  2  3
 23 24  1  0
M  END
