
     RDKit          3D

 25 27  0  0  0  0  0  0  0  0999 V2000
    3.3420   -1.7250   -0.0080 O   0  0  0  0  0  0  0  0  0  0  0  0
    3.3100   -0.4520    0.1050 C   0  0  0  0  0  0  0  0  0  0  0  0
    2.0800    0.2080    0.1780 N   0  0  0  0  0  0  0  0  0  0  0  0
    0.8050   -0.4020    0.1310 C   0  0  0  0  0  0  0  0  0  0  0  0
   -0.3330    0.3340    0.5020 C   0  0  0  0  0  0  0  0  0  0  0  0
   -1.6080   -0.1610    0.4750 C   0  0  0  0  0  0  0  0  0  0  0  0
   -2.7990    0.6390    0.8470 C   0  0  0  0  0  0  0  0  0  0  0  0
   -3.4770    1.1230   -0.3880 C   0  0  0  0  0  0  0  0  0  0  0  0
   -4.7100    1.9430   -0.1100 C   0  0  2  0  0  0  0  0  0  0  0  0
   -4.4290    3.0790    0.6430 O   0  0  0  0  0  0  0  0  0  0  0  0
   -5.7810    1.1800    0.6110 C   0  0  0  0  0  0  0  0  0  0  0  0
   -6.1640    0.0200   -0.0280 O   0  0  0  0  0  0  0  0  0  0  0  0
   -1.7730   -1.4630    0.0570 C   0  0  0  0  0  0  0  0  0  0  0  0
   -3.0180   -2.0810   -0.0050 C   0  0  0  0  0  0  0  0  0  0  0  0
   -3.1990   -3.3860   -0.4160 C   0  0  0  0  0  0  0  0  0  0  0  0
   -2.1260   -4.0940   -0.7720 N   0  0  0  0  0  0  0  0  0  0  0  0
   -0.9040   -3.5450   -0.7280 C   0  0  0  0  0  0  0  0  0  0  0  0
   -0.6930   -2.2440   -0.3220 C   0  0  0  0  0  0  0  0  0  0  0  0
    0.5790   -1.6920   -0.2770 C   0  0  0  0  0  0  0  0  0  0  0  0
    4.6270    0.1780    0.1460 C   0  0  0  0  0  0  0  0  0  0  0  0
    4.7060    1.4840    0.2610 C   0  0  0  0  0  0  0  0  0  0  0  0
    6.0200    2.1070    0.3010 C   0  0  0  0  0  0  0  0  0  0  0  0
    7.1440    1.4340    0.2280 C   0  0  0  0  0  0  0  0  0  0  0  0
    7.1420   -0.0260    0.0990 C   0  0  0  0  0  0  0  0  0  0  0  0
    5.8190   -0.5750    0.0680 N   0  0  0  0  0  0  0  0  0  0  0  0
  1  2  2  0
  2  3  1  0
  2 20  1  0
  3  4  1  0
  4  5  2  0
  4 19  1  0
  5  6  1  0
  6  7  1  0
  6 13  2  0
  7  8  1  0
  8  9  1  0
  9 10  1  1
  9 11  1  0
 11 12  1  0
 13 14  1  0
 13 18  1  0
 14 15  2  0
 15 16  1  0
 16 17  2  0
 17 18  1  0
 18 19  2  0
 20 21  2  0
 20 25  1  0
 21 22  1  0
 22 23  2  0
 23 24  1  0
 24 25  1  0
M  END
