
     RDKit          3D

 31 33  0  0  0  0  0  0  0  0999 V2000
   -2.5080   -3.8230   -1.6740 O   0  0  0  0  0  0  0  0  0  0  0  0
   -2.8330   -2.9570   -0.8220 C   0  0  0  0  0  0  0  0  0  0  0  0
   -1.8420   -2.2520   -0.1540 O   0  0  0  0  0  0  0  0  0  0  0  0
   -2.2490   -1.1750    0.6650 C   0  0  1  0  0  0  0  0  0  0  0  0
   -2.5460   -1.5830    2.0330 C   0  0  0  0  0  0  0  0  0  0  0  0
   -2.9200   -0.7470    2.8820 O   0  0  0  0  0  0  0  0  0  0  0  0
   -2.4120   -2.9060    2.3990 O   0  0  0  0  0  0  0  0  0  0  0  0
   -1.1240   -0.1930    0.7240 C   0  0  0  0  0  0  0  0  0  0  0  0
    0.0820   -0.5180    0.9770 N   0  0  0  0  0  0  0  0  0  0  0  0
    1.1190    0.3690    1.0340 O   0  0  0  0  0  0  0  0  0  0  0  0
    2.6390   -0.0610    0.2810 P   0  0  0  0  0  0  0  0  0  0  0  0
    2.4180   -1.5160   -0.6320 O   0  0  0  0  0  0  0  0  0  0  0  0
    2.9980    1.2210   -0.8660 O   0  0  0  0  0  0  0  0  0  0  0  0
    4.3210    2.1290   -0.1670 P   0  0  0  0  0  0  0  0  0  0  0  0
    4.5050    3.6430   -0.9610 O   0  0  0  0  0  0  0  0  0  0  0  0
    5.7800    1.1100   -0.2470 N   0  0  0  0  0  0  0  0  0  0  0  0
    6.0630   -0.0220   -1.1300 C   0  0  0  0  0  0  0  0  0  0  0  0
    6.9720   -0.8770   -0.2750 C   0  0  0  0  0  0  0  0  0  0  0  0
    7.6400    0.0640    0.5330 O   0  0  0  0  0  0  0  0  0  0  0  0
    6.9210    1.2630    0.5680 C   0  0  0  0  0  0  0  0  0  0  0  0
    7.1950    2.3170    1.1950 O   0  0  0  0  0  0  0  0  0  0  0  0
   -1.7140    1.0610    0.4500 N   0  0  0  0  0  0  0  0  0  0  0  0
   -2.9390    0.9230    0.0380 C   0  0  0  0  0  0  0  0  0  0  0  0
   -3.7410    2.0540   -0.3020 N   0  0  0  0  0  0  0  0  0  0  0  0
   -3.4050    3.6990    0.3390 P   0  0  0  0  0  0  0  0  0  0  0  0
   -2.7680    4.7550   -0.8590 O   0  0  0  0  0  0  0  0  0  0  0  0
   -4.9130    4.3640    0.9150 O   0  0  0  0  0  0  0  0  0  0  0  0
   -3.2870   -0.4560   -0.0010 N   0  0  0  0  0  0  0  0  0  0  0  0
   -4.4140   -1.1400   -0.5570 C   0  0  0  0  0  0  0  0  0  0  0  0
   -4.2450   -2.6420   -0.4840 C   0  0  1  0  0  0  0  0  0  0  0  0
   -5.1080   -3.2700   -1.3770 O   0  0  0  0  0  0  0  0  0  0  0  0
  1  2  2  0
  2  3  1  0
  2 30  1  0
  3  4  1  0
  4  5  1  1
  4  8  1  0
  4 28  1  0
  5  6  2  0
  5  7  1  0
  8  9  2  3
  8 22  1  0
  9 10  1  0
 10 11  1  0
 11 12  1  0
 11 13  1  0
 13 14  1  0
 14 15  1  0
 14 16  1  0
 16 17  1  0
 16 20  1  0
 17 18  1  0
 18 19  1  0
 19 20  1  0
 20 21  2  0
 22 23  2  0
 23 24  1  0
 23 28  1  0
 24 25  1  0
 25 26  1  0
 25 27  1  0
 28 29  1  0
 29 30  1  0
 30 31  1  6
M  END
