
     RDKit          3D

 30 31  0  0  0  0  0  0  0  0999 V2000
    3.0270    1.6400    1.7860 N   0  0  0  0  0  0  0  0  0  0  0  0
    2.9740    1.2810    0.5510 C   0  0  0  0  0  0  0  0  0  0  0  0
    3.4560    2.1440   -0.4660 N   0  0  0  0  0  0  0  0  0  0  0  0
    3.4480    3.9240   -0.2060 P   0  0  0  0  0  0  0  0  0  0  0  0
    2.0330    4.4180    0.6810 O   0  0  0  0  0  0  0  0  0  0  0  0
    4.8380    4.3880    0.7060 O   0  0  0  0  0  0  0  0  0  0  0  0
    2.4390    0.0250    0.1670 N   0  0  0  0  0  0  0  0  0  0  0  0
    1.0900   -0.3780    0.4520 C   0  0  0  0  0  0  0  0  0  0  0  0
    0.0950    0.4220   -0.3150 C   0  0  0  0  0  0  0  0  0  0  0  0
    0.5450    1.3090   -1.0850 O   0  0  0  0  0  0  0  0  0  0  0  0
   -1.2970    0.1740   -0.1660 N   0  0  0  0  0  0  0  0  0  0  0  0
   -2.3260    0.9140   -0.8850 C   0  0  0  0  0  0  0  0  0  0  0  0
   -3.5980    0.5210   -0.1190 C   0  0  1  0  0  0  0  0  0  0  0  0
   -3.5990    1.2640    1.0360 O   0  0  0  0  0  0  0  0  0  0  0  0
   -4.8220    0.6970   -0.9660 C   0  0  0  0  0  0  0  0  0  0  0  0
   -5.9770    0.3010   -0.1890 N   0  0  0  0  0  0  0  0  0  0  0  0
   -3.2770   -0.9440    0.1210 C   0  0  2  0  0  0  0  0  0  0  0  0
   -4.1880   -1.6210    0.8410 O   0  0  0  0  0  0  0  0  0  0  0  0
   -3.9730   -1.8320    2.1680 C   0  0  0  0  0  0  0  0  0  0  0  0
   -3.1210   -0.8930    2.8000 O   0  0  0  0  0  0  0  0  0  0  0  0
   -2.0840   -0.2970    2.0940 C   0  0  0  0  0  0  0  0  0  0  0  0
   -1.4110    0.5920    2.6200 O   0  0  0  0  0  0  0  0  0  0  0  0
   -1.8890   -0.8240    0.7030 C   0  0  2  0  0  0  0  0  0  0  0  0
    3.5090   -1.1160   -0.7210 P   0  0  0  0  0  0  0  0  0  0  0  0
    2.6730   -1.6640   -2.1200 O   0  0  0  0  0  0  0  0  0  0  0  0
    2.1900   -2.8620   -1.9930 O   0  0  0  0  0  0  0  0  0  0  0  0
    3.8680   -2.4340    0.3470 O   0  0  0  0  0  0  0  0  0  0  0  0
    5.5980   -2.6550    0.4690 P   0  0  0  0  0  0  0  0  0  0  0  0
    6.4380   -1.8620   -0.8040 O   0  0  0  0  0  0  0  0  0  0  0  0
    6.0230   -4.3340    0.4840 O   0  0  0  0  0  0  0  0  0  0  0  0
  1  2  2  0
  2  3  1  0
  2  7  1  0
  3  4  1  0
  4  5  1  0
  4  6  1  0
  7  8  1  0
  7 24  1  0
  8  9  1  0
  9 10  2  0
  9 11  1  0
 11 12  1  0
 23 11  1  6
 12 13  1  0
 13 14  1  1
 13 15  1  0
 13 17  1  0
 15 16  1  0
 17 18  1  1
 17 23  1  0
 18 19  1  0
 19 20  1  0
 20 21  1  0
 21 22  2  0
 21 23  1  0
 24 25  1  0
 24 27  1  0
 25 26  1  0
 27 28  1  0
 28 29  1  0
 28 30  1  0
M  END
