
     RDKit          3D

 30 31  0  0  0  0  0  0  0  0999 V2000
    3.8300   -4.6870   -0.8150 O   0  0  0  0  0  0  0  0  0  0  0  0
    2.3180   -4.3070   -0.6830 P   0  0  0  0  0  0  0  0  0  0  0  0
    1.8530   -2.7000    0.0060 N   0  0  0  0  0  0  0  0  0  0  0  0
    1.3680   -1.6780   -0.8370 C   0  0  0  0  0  0  0  0  0  0  0  0
    1.2380   -1.8280   -2.0750 O   0  0  0  0  0  0  0  0  0  0  0  0
    0.9960   -0.3730   -0.2480 C   0  0  1  0  0  0  0  0  0  0  0  0
    2.2670    0.2180    0.3580 C   0  0  0  0  0  0  0  0  0  0  0  0
    3.2410    0.3990   -0.6280 O   0  0  0  0  0  0  0  0  0  0  0  0
    4.6460    1.0650    0.1080 P   0  0  0  0  0  0  0  0  0  0  0  0
    4.2460    1.7500    1.6480 O   0  0  0  0  0  0  0  0  0  0  0  0
    5.4810    2.1690   -0.9110 O   0  0  0  0  0  0  0  0  0  0  0  0
    0.5210    0.5540   -1.2470 N   0  0  0  0  0  0  0  0  0  0  0  0
   -0.9130    0.5270   -1.1160 C   0  0  0  0  0  0  0  0  0  0  0  0
   -1.7440    0.8360   -2.0300 O   0  0  0  0  0  0  0  0  0  0  0  0
   -1.1530    0.0780    0.2550 C   0  0  1  0  0  0  0  0  0  0  0  0
   -1.6830    1.0670    1.2300 C   0  0  0  0  0  0  0  0  0  0  0  0
   -0.9020    2.1250    1.5800 O   0  0  0  0  0  0  0  0  0  0  0  0
   -0.4840    3.1410    0.7820 C   0  0  0  0  0  0  0  0  0  0  0  0
   -0.8130    3.1940   -0.4110 O   0  0  0  0  0  0  0  0  0  0  0  0
    0.3420    4.1860    1.2640 O   0  0  0  0  0  0  0  0  0  0  0  0
    0.8380    5.4730    0.1470 P   0  0  0  0  0  0  0  0  0  0  0  0
    0.1610    6.8670    0.1880 O   0  0  0  0  0  0  0  0  0  0  0  0
   -2.1480   -1.0730    0.1110 C   0  0  0  0  0  0  0  0  0  0  0  0
   -1.7700   -2.2490    0.4740 N   0  0  0  0  0  0  0  0  0  0  0  0
   -2.6590   -3.3480    0.3580 C   0  0  0  0  0  0  0  0  0  0  0  0
   -2.3340   -4.5180    0.7010 O   0  0  0  0  0  0  0  0  0  0  0  0
   -3.9660   -3.1420   -0.1600 N   0  0  0  0  0  0  0  0  0  0  0  0
   -4.5040   -1.8060   -0.2000 C   0  0  0  0  0  0  0  0  0  0  0  0
   -3.4410   -0.8180   -0.4110 N   0  0  0  0  0  0  0  0  0  0  0  0
    0.0330   -0.4870    0.7080 O   0  0  0  0  0  0  0  0  0  0  0  0
  1  2  2  0
  2  3  1  0
  3  4  1  0
  4  5  2  0
  4  6  1  0
  6  7  1  1
  6 12  1  0
  6 30  1  0
  7  8  1  0
  8  9  1  0
  9 10  1  0
  9 11  1  0
 12 13  1  0
 13 14  2  0
 13 15  1  0
 15 16  1  1
 15 23  1  0
 15 30  1  0
 16 17  1  0
 17 18  1  0
 18 19  2  0
 18 20  1  0
 20 21  1  0
 21 22  2  0
 23 24  2  0
 23 29  1  0
 24 25  1  0
 25 26  2  0
 25 27  1  0
 27 28  1  0
 28 29  1  0
M  END
