
     RDKit          3D

 30 32  0  0  0  0  0  0  0  0999 V2000
   -0.4990   -3.0940    0.6920 C   0  0  0  0  0  0  0  0  0  0  0  0
   -0.7970   -1.6640    0.3090 C   0  0  1  0  0  0  0  0  0  0  0  0
    0.1320   -0.7530    0.7820 O   0  0  0  0  0  0  0  0  0  0  0  0
    0.4510   -0.5180    2.0980 C   0  0  0  0  0  0  0  0  0  0  0  0
   -0.1390   -1.1750    2.9730 O   0  0  0  0  0  0  0  0  0  0  0  0
    1.4640    0.4880    2.4510 C   0  0  0  0  0  0  0  0  0  0  0  0
    1.9990    1.1110    1.2410 N   0  0  0  0  0  0  0  0  0  0  0  0
    1.5290    2.2660    0.5660 C   0  0  0  0  0  0  0  0  0  0  0  0
    0.5400    2.9600    0.9190 O   0  0  0  0  0  0  0  0  0  0  0  0
    2.3510    2.5090   -0.5630 N   0  0  0  0  0  0  0  0  0  0  0  0
    3.3220    1.5350   -0.6100 N   0  0  0  0  0  0  0  0  0  0  0  0
    3.1430    0.6520    0.4830 C   0  0  0  0  0  0  0  0  0  0  0  0
    3.8890   -0.3550    0.7090 N   0  0  0  0  0  0  0  0  0  0  0  0
    4.9910   -0.8090   -0.0090 C   0  0  0  0  0  0  0  0  0  0  0  0
    5.6320   -1.8570    0.3730 O   0  0  0  0  0  0  0  0  0  0  0  0
    5.4930   -0.2140   -1.1540 O   0  0  0  0  0  0  0  0  0  0  0  0
    4.6940    1.2190   -1.7610 P   0  0  0  0  0  0  0  0  0  0  0  0
    5.7770    2.5670   -1.6200 O   0  0  0  0  0  0  0  0  0  0  0  0
   -0.7940   -1.6070   -1.1770 C   0  0  0  0  0  0  0  0  0  0  0  0
    0.1240   -1.3000   -1.9780 O   0  0  0  0  0  0  0  0  0  0  0  0
   -2.1010   -1.9850   -1.5900 N   0  0  0  0  0  0  0  0  0  0  0  0
   -2.9570   -2.1380   -0.4400 C   0  0  0  0  0  0  0  0  0  0  0  0
   -2.2180   -1.3760    0.6350 C   0  0  1  0  0  0  0  0  0  0  0  0
   -2.6010   -1.9690    1.8520 O   0  0  0  0  0  0  0  0  0  0  0  0
   -2.5490   -0.0390    0.6850 O   0  0  0  0  0  0  0  0  0  0  0  0
   -2.2960    0.8180   -0.7650 P   0  0  0  0  0  0  0  0  0  0  0  0
   -3.4260    0.3610   -2.0220 O   0  0  0  0  0  0  0  0  0  0  0  0
   -2.7170    2.9660   -0.3620 P   0  0  0  0  0  0  0  0  0  0  0  0
   -3.1020    3.7400   -1.8690 O   0  0  0  0  0  0  0  0  0  0  0  0
   -4.1580    3.0080    0.6140 O   0  0  0  0  0  0  0  0  0  0  0  0
  2  1  1  6
  2  3  1  0
  2 19  1  0
  2 23  1  0
  3  4  1  0
  4  5  2  0
  4  6  1  0
  6  7  1  0
  7  8  1  0
  7 12  1  0
  8  9  2  0
  8 10  1  0
 10 11  1  0
 11 12  1  0
 11 17  1  0
 12 13  2  0
 13 14  1  0
 14 15  2  0
 14 16  1  0
 16 17  1  0
 17 18  1  0
 19 20  2  0
 19 21  1  0
 21 22  1  0
 22 23  1  0
 23 24  1  1
 23 25  1  0
 25 26  1  0
 26 27  1  0
 26 28  1  0
 28 29  1  0
 28 30  1  0
M  END
