
     RDKit          3D

 30 31  0  0  0  0  0  0  0  0999 V2000
    3.9950   -1.3710    3.8290 O   0  0  0  0  0  0  0  0  0  0  0  0
    3.5390   -1.3720    2.3250 P   0  0  0  0  0  0  0  0  0  0  0  0
    2.6680   -0.0340    1.7120 O   0  0  0  0  0  0  0  0  0  0  0  0
    2.2450   -0.2070    0.3880 C   0  0  1  0  0  0  0  0  0  0  0  0
    3.4840   -0.4020   -0.3730 N   0  0  0  0  0  0  0  0  0  0  0  0
    4.4460    0.6620   -0.4400 C   0  0  0  0  0  0  0  0  0  0  0  0
    4.2000    1.7450    0.1600 O   0  0  0  0  0  0  0  0  0  0  0  0
    5.6630    0.5470   -1.1570 N   0  0  0  0  0  0  0  0  0  0  0  0
    6.7910    1.9480   -1.1870 P   0  0  0  0  0  0  0  0  0  0  0  0
    6.1480    3.1570   -2.2860 O   0  0  0  0  0  0  0  0  0  0  0  0
    8.3520    1.4490   -1.7810 O   0  0  0  0  0  0  0  0  0  0  0  0
    1.4320   -1.4500    0.2780 C   0  0  0  0  0  0  0  0  0  0  0  0
    0.9490   -1.5720   -1.0180 O   0  0  0  0  0  0  0  0  0  0  0  0
    0.2540   -0.4650   -1.4840 C   0  0  0  0  0  0  0  0  0  0  0  0
    0.3460    0.7110   -0.5450 C   0  0  1  0  0  0  0  0  0  0  0  0
   -0.6450    0.5340    0.5930 C   0  0  0  0  0  0  0  0  0  0  0  0
   -1.7130   -0.1280    0.3820 N   0  0  0  0  0  0  0  0  0  0  0  0
   -2.7180   -0.3640    1.3490 C   0  0  1  0  0  0  0  0  0  0  0  0
   -3.3300   -1.5750    1.2710 O   0  0  0  0  0  0  0  0  0  0  0  0
   -4.6110   -1.7500    1.0020 C   0  0  0  0  0  0  0  0  0  0  0  0
   -5.1750   -1.2510   -0.2920 C   0  0  0  0  0  0  0  0  0  0  0  0
   -5.0940    0.0720   -0.5550 O   0  0  0  0  0  0  0  0  0  0  0  0
   -5.7900    0.6440   -1.9920 P   0  0  0  0  0  0  0  0  0  0  0  0
   -6.4540   -0.6780   -2.8940 O   0  0  0  0  0  0  0  0  0  0  0  0
   -4.5890    1.4180   -2.9670 O   0  0  0  0  0  0  0  0  0  0  0  0
   -2.3560    0.0970    2.6730 C   0  0  0  0  0  0  0  0  0  0  0  0
   -3.0530   -0.1340    3.7290 O   0  0  0  0  0  0  0  0  0  0  0  0
   -1.1910    0.8420    2.9020 N   0  0  0  0  0  0  0  0  0  0  0  0
   -0.2880    1.0830    1.8540 N   0  0  0  0  0  0  0  0  0  0  0  0
    1.5950    0.9410   -0.0570 O   0  0  0  0  0  0  0  0  0  0  0  0
  1  2  2  0
  2  3  1  0
  3  4  1  0
  4  5  1  6
  4 12  1  0
  4 30  1  0
  5  6  1  0
  6  7  2  0
  6  8  1  0
  8  9  1  0
  9 10  1  0
  9 11  1  0
 12 13  1  0
 13 14  1  0
 14 15  1  0
 15 16  1  1
 15 30  1  0
 16 17  2  0
 16 29  1  0
 17 18  1  0
 18 19  1  1
 18 26  1  0
 19 20  1  0
 20 21  1  0
 21 22  1  0
 22 23  1  0
 23 24  1  0
 23 25  1  0
 26 27  2  0
 26 28  1  0
 28 29  1  0
M  END
