
     RDKit          3D

 31 33  0  0  0  0  0  0  0  0999 V2000
    2.6060    0.8080   -1.7240 O   0  0  0  0  0  0  0  0  0  0  0  0
    1.7080    0.5020   -0.8660 C   0  0  0  0  0  0  0  0  0  0  0  0
    0.3330    0.7890   -1.2480 C   0  0  0  0  0  0  0  0  0  0  0  0
   -0.6860    0.4510   -0.3140 N   0  0  0  0  0  0  0  0  0  0  0  0
   -1.0680   -0.9330    0.0360 C   0  0  0  0  0  0  0  0  0  0  0  0
   -2.6070   -0.8970    0.0350 C   0  0  1  0  0  0  0  0  0  0  0  0
   -3.2890   -2.6010    0.3100 P   0  0  0  0  0  0  0  0  0  0  0  0
   -2.1800   -3.5570    1.2620 O   0  0  0  0  0  0  0  0  0  0  0  0
   -3.6340   -3.3730   -1.2090 O   0  0  0  0  0  0  0  0  0  0  0  0
   -3.0160   -0.0760    1.1740 N   0  0  0  0  0  0  0  0  0  0  0  0
   -2.8070    1.3010    0.8130 C   0  0  1  0  0  0  0  0  0  0  0  0
   -3.9900    1.9260   -0.4460 P   0  0  0  0  0  0  0  0  0  0  0  0
   -4.8280    3.3130    0.1690 O   0  0  0  0  0  0  0  0  0  0  0  0
   -5.4810    0.4300   -1.0300 P   0  0  0  0  0  0  0  0  0  0  0  0
   -6.6540    1.2510   -2.0480 O   0  0  0  0  0  0  0  0  0  0  0  0
   -6.3630   -0.1560    0.3580 O   0  0  0  0  0  0  0  0  0  0  0  0
   -2.8030    2.1800    1.8950 O   0  0  0  0  0  0  0  0  0  0  0  0
   -2.2050    3.2540    1.2990 O   0  0  0  0  0  0  0  0  0  0  0  0
   -1.0890    2.6930    0.6620 N   0  0  0  0  0  0  0  0  0  0  0  0
   -1.3910    1.4930    0.3400 C   0  0  0  0  0  0  0  0  0  0  0  0
    2.0940   -0.0790    0.3660 N   0  0  0  0  0  0  0  0  0  0  0  0
    3.4880   -0.2960    0.6110 C   0  0  0  0  0  0  0  0  0  0  0  0
    4.5050    0.0070   -0.2090 N   0  0  0  0  0  0  0  0  0  0  0  0
    5.6730   -0.3410    0.3570 C   0  0  0  0  0  0  0  0  0  0  0  0
    7.0100   -0.1780   -0.2020 C   0  0  0  0  0  0  0  0  0  0  0  0
    8.0080   -0.5640    0.4690 O   0  0  0  0  0  0  0  0  0  0  0  0
    7.2380    0.3850   -1.4420 O   0  0  0  0  0  0  0  0  0  0  0  0
    8.4940    0.5230   -1.9330 O   0  0  0  0  0  0  0  0  0  0  0  0
    9.3110    0.5150   -0.8830 O   0  0  0  0  0  0  0  0  0  0  0  0
    5.3310   -0.8810    1.5850 C   0  0  0  0  0  0  0  0  0  0  0  0
    4.0230   -0.8350    1.6960 O   0  0  0  0  0  0  0  0  0  0  0  0
  1  2  2  0
  2  3  1  0
  2 21  1  0
  3  4  1  0
  4  5  1  0
  4 20  1  0
  5  6  1  0
  6  7  1  1
  6 10  1  0
  7  8  1  0
  7  9  1  0
 10 11  1  0
 11 12  1  6
 11 17  1  0
 11 20  1  0
 12 13  1  0
 12 14  1  0
 14 15  1  0
 14 16  1  0
 17 18  1  0
 18 19  1  0
 19 20  2  0
 21 22  1  0
 22 23  2  0
 22 31  1  0
 23 24  1  0
 24 25  1  0
 24 30  2  0
 25 26  2  0
 25 27  1  0
 27 28  1  0
 28 29  1  0
 30 31  1  0
M  END
