
     RDKit          3D

 30 31  0  0  0  0  0  0  0  0999 V2000
   -7.9700   -1.4820    3.3950 O   0  0  0  0  0  0  0  0  0  0  0  0
   -6.5810   -0.8580    3.6800 P   0  0  0  0  0  0  0  0  0  0  0  0
   -5.4290   -0.6310    2.3280 N   0  0  0  0  0  0  0  0  0  0  0  0
   -5.3150    0.5820    1.5990 C   0  0  0  0  0  0  0  0  0  0  0  0
   -6.0370    1.5500    1.8920 O   0  0  0  0  0  0  0  0  0  0  0  0
   -4.3260    0.7380    0.4600 C   0  0  1  0  0  0  0  0  0  0  0  0
   -3.6070   -0.4310    0.2640 O   0  0  0  0  0  0  0  0  0  0  0  0
   -2.3490   -0.7010    0.6110 N   0  0  0  0  0  0  0  0  0  0  0  0
   -1.3280   -0.0800    0.1970 C   0  0  0  0  0  0  0  0  0  0  0  0
   -1.3030    0.9570   -0.6590 N   0  0  0  0  0  0  0  0  0  0  0  0
   -0.1530    1.5560   -1.0300 C   0  0  0  0  0  0  0  0  0  0  0  0
   -0.1850    2.5380   -1.8450 O   0  0  0  0  0  0  0  0  0  0  0  0
    1.0080    1.1090   -0.5360 N   0  0  0  0  0  0  0  0  0  0  0  0
    1.0720    0.0940    0.3090 C   0  0  0  0  0  0  0  0  0  0  0  0
   -0.0990   -0.5230    0.6940 C   0  0  0  0  0  0  0  0  0  0  0  0
    0.2950   -1.5150    1.5610 O   0  0  0  0  0  0  0  0  0  0  0  0
    1.5280   -1.2090    2.0420 O   0  0  0  0  0  0  0  0  0  0  0  0
    2.1350   -0.5980    0.9690 N   0  0  0  0  0  0  0  0  0  0  0  0
    3.4870   -0.7160    0.6650 C   0  0  0  0  0  0  0  0  0  0  0  0
    4.2370   -1.3350    1.4780 O   0  0  0  0  0  0  0  0  0  0  0  0
    4.1380   -0.1840   -0.5330 C   0  0  1  0  0  0  0  0  0  0  0  0
    5.6370   -0.4850   -0.5350 C   0  0  0  0  0  0  0  0  0  0  0  0
    6.0010   -2.2810   -0.4920 P   0  0  0  0  0  0  0  0  0  0  0  0
    4.6060   -3.2690   -0.3600 O   0  0  0  0  0  0  0  0  0  0  0  0
    7.0470   -2.7800   -1.7760 O   0  0  0  0  0  0  0  0  0  0  0  0
    3.3660   -0.7970   -2.1100 P   0  0  0  0  0  0  0  0  0  0  0  0
    3.2960    0.0810   -3.3860 O   0  0  0  0  0  0  0  0  0  0  0  0
   -5.0130    1.2130   -0.7470 C   0  0  0  0  0  0  0  0  0  0  0  0
   -4.9740    0.6410   -1.8630 O   0  0  0  0  0  0  0  0  0  0  0  0
   -5.7700    2.3970   -0.6420 O   0  0  0  0  0  0  0  0  0  0  0  0
  1  2  2  0
  2  3  1  0
  3  4  1  0
  4  5  2  0
  4  6  1  0
  6  7  1  6
  6 28  1  0
  7  8  1  0
  8  9  2  3
  9 10  1  0
  9 15  1  0
 10 11  1  0
 11 12  2  0
 11 13  1  0
 13 14  1  0
 14 15  2  0
 14 18  1  0
 15 16  1  0
 16 17  1  0
 17 18  1  0
 18 19  1  0
 19 20  2  0
 19 21  1  0
 21 22  1  6
 21 26  1  0
 22 23  1  0
 23 24  1  0
 23 25  1  0
 26 27  2  0
 28 29  2  0
 28 30  1  0
M  END
