
     RDKit          3D

 28 29  0  0  0  0  0  0  0  0999 V2000
    3.0570   -2.9320   -2.1290 C   0  0  0  0  0  0  0  0  0  0  0  0
    3.4110   -2.5710   -0.9090 C   0  0  0  0  0  0  0  0  0  0  0  0
    4.6650   -3.0000   -0.4140 O   0  0  0  0  0  0  0  0  0  0  0  0
    5.0390   -2.6270    0.8580 C   0  0  0  0  0  0  0  0  0  0  0  0
    4.2850   -1.8870    1.6410 C   0  0  0  0  0  0  0  0  0  0  0  0
    2.9940   -1.4370    1.1490 C   0  0  0  0  0  0  0  0  0  0  0  0
    2.5530   -1.7530   -0.0710 C   0  0  0  0  0  0  0  0  0  0  0  0
    1.2590   -1.2930   -0.5470 N   0  0  0  0  0  0  0  0  0  0  0  0
    0.4330   -0.6660    0.3970 C   0  0  2  0  0  0  0  0  0  0  0  0
   -1.0310   -0.4970    0.0020 C   0  0  0  0  0  0  0  0  0  0  0  0
   -1.4420   -0.6110   -1.2260 C   0  0  0  0  0  0  0  0  0  0  0  0
   -2.7720   -0.4750   -1.7430 C   0  0  0  0  0  0  0  0  0  0  0  0
   -3.7930   -0.2020   -1.0800 O   0  0  0  0  0  0  0  0  0  0  0  0
   -3.0260   -0.6580   -3.1480 N   0  0  0  0  0  0  0  0  0  0  0  0
   -4.3540   -0.5300   -3.7160 C   0  0  0  0  0  0  0  0  0  0  0  0
   -1.8760   -0.1970    1.1470 C   0  0  0  0  0  0  0  0  0  0  0  0
   -3.1830   -0.6810    1.1770 O   0  0  0  0  0  0  0  0  0  0  0  0
   -4.1230   -0.3290    2.1370 C   0  0  0  0  0  0  0  0  0  0  0  0
   -5.4570   -1.0070    1.9220 C   0  0  0  0  0  0  0  0  0  0  0  0
   -1.4140    0.5320    2.1630 C   0  0  0  0  0  0  0  0  0  0  0  0
   -0.0190    1.0120    2.0540 C   0  0  0  0  0  0  0  0  0  0  0  0
    0.5070    1.7000    2.9550 O   0  0  0  0  0  0  0  0  0  0  0  0
    0.7470    0.6660    0.8610 N   0  0  0  0  0  0  0  0  0  0  0  0
    1.6210    1.6210    0.3140 C   0  0  0  0  0  0  0  0  0  0  0  0
    2.2880    1.4680   -0.7960 C   0  0  0  0  0  0  0  0  0  0  0  0
    3.2020    2.5070   -1.3260 C   0  0  0  0  0  0  0  0  0  0  0  0
    1.8440    2.9500    1.0010 C   0  0  0  0  0  0  0  0  0  0  0  0
    0.5840    3.7750    1.0590 C   0  0  0  0  0  0  0  0  0  0  0  0
  1  2  2  0
  2  3  1  0
  2  7  1  0
  3  4  1  0
  4  5  2  0
  5  6  1  0
  6  7  2  0
  7  8  1  0
  9  8  1  6
  9 10  1  0
  9 23  1  0
 10 11  2  3
 10 16  1  0
 11 12  1  0
 12 13  2  0
 12 14  1  0
 14 15  1  0
 16 17  1  0
 16 20  2  0
 17 18  1  0
 18 19  1  0
 20 21  1  0
 21 22  2  0
 21 23  1  0
 23 24  1  0
 24 25  2  3
 24 27  1  0
 25 26  1  0
 27 28  1  0
M  END
