
     RDKit          3D

 28 30  0  0  0  0  0  0  0  0999 V2000
    8.5690    1.4780    0.5530 C   0  0  0  0  0  0  0  0  0  0  0  0
    7.5400    0.9320    1.3410 O   0  0  0  0  0  0  0  0  0  0  0  0
    6.3780    0.4510    0.7640 C   0  0  0  0  0  0  0  0  0  0  0  0
    6.2010    0.4940   -0.5840 C   0  0  0  0  0  0  0  0  0  0  0  0
    5.0540    0.0200   -1.1570 C   0  0  0  0  0  0  0  0  0  0  0  0
    4.0000   -0.5330   -0.4210 C   0  0  0  0  0  0  0  0  0  0  0  0
    2.8770   -0.9790   -1.1330 N   0  0  0  0  0  0  0  0  0  0  0  0
    1.7220   -1.6230   -0.6120 C   0  0  0  0  0  0  0  0  0  0  0  0
    1.6800   -1.8260    0.6130 O   0  0  0  0  0  0  0  0  0  0  0  0
    0.6170   -2.0350   -1.4920 C   0  0  0  0  0  0  0  0  0  0  0  0
   -0.6610   -2.2760   -0.7760 C   0  0  0  0  0  0  0  0  0  0  0  0
   -1.3140   -1.1270   -0.1880 N   0  0  0  0  0  0  0  0  0  0  0  0
   -1.0530   -0.7960    1.1760 C   0  0  0  0  0  0  0  0  0  0  0  0
   -2.0290    0.0420    1.9210 C   0  0  2  0  0  0  0  0  0  0  0  0
   -1.7110   -0.0520    3.4250 C   0  0  0  0  0  0  0  0  0  0  0  0
   -3.4000   -0.2050    1.7180 O   0  0  0  0  0  0  0  0  0  0  0  0
   -4.1070    0.1540    0.5520 C   0  0  0  0  0  0  0  0  0  0  0  0
   -5.2730    0.4390    1.0580 C   0  0  0  0  0  0  0  0  0  0  0  0
   -6.5050    0.8930    0.3800 C   0  0  0  0  0  0  0  0  0  0  0  0
   -6.7640    1.5340   -0.7410 C   0  0  0  0  0  0  0  0  0  0  0  0
   -6.0330    2.1210   -1.8790 C   0  0  0  0  0  0  0  0  0  0  0  0
   -5.0040    1.2800   -2.4390 N   0  0  0  0  0  0  0  0  0  0  0  0
   -3.8400    0.5840   -2.0040 C   0  0  0  0  0  0  0  0  0  0  0  0
   -3.5090    0.1460   -0.8000 C   0  0  0  0  0  0  0  0  0  0  0  0
   -2.2080   -0.4700   -1.1300 C   0  0  0  0  0  0  0  0  0  0  0  0
   -1.8680   -0.4130   -2.3190 O   0  0  0  0  0  0  0  0  0  0  0  0
    4.1820   -0.5750    0.9370 C   0  0  0  0  0  0  0  0  0  0  0  0
    5.3660   -0.0840    1.5180 C   0  0  0  0  0  0  0  0  0  0  0  0
  1  2  1  0
  2  3  1  0
  3  4  2  0
  3 28  1  0
  4  5  1  0
  5  6  2  0
  6  7  1  0
  6 27  1  0
  7  8  1  0
  8  9  2  0
  8 10  1  0
 10 11  1  0
 11 12  1  0
 12 13  1  0
 12 25  1  0
 13 14  1  0
 14 15  1  1
 14 16  1  0
 16 17  1  0
 17 18  2  0
 17 24  1  0
 18 19  1  0
 19 20  2  0
 20 21  1  0
 21 22  1  0
 22 23  1  0
 23 24  2  0
 24 25  1  0
 25 26  2  0
 27 28  2  0
M  END
