
     RDKit          3D

 28 30  0  0  0  0  0  0  0  0999 V2000
   -4.9190    3.6220    0.8130 C   0  0  0  0  0  0  0  0  0  0  0  0
   -3.7720    3.6560   -0.1660 C   0  0  0  0  0  0  0  0  0  0  0  0
   -2.9830    2.4910   -0.0600 O   0  0  0  0  0  0  0  0  0  0  0  0
   -3.4700    1.2360   -0.2670 C   0  0  0  0  0  0  0  0  0  0  0  0
   -4.7210    1.1920   -0.5720 O   0  0  0  0  0  0  0  0  0  0  0  0
   -2.6910    0.0350   -0.1520 C   0  0  0  0  0  0  0  0  0  0  0  0
   -3.3700   -1.1070   -0.2970 C   0  0  0  0  0  0  0  0  0  0  0  0
   -2.9400   -2.5140   -0.2390 C   0  0  0  0  0  0  0  0  0  0  0  0
   -3.6500   -3.3620   -1.0590 O   0  0  0  0  0  0  0  0  0  0  0  0
   -4.4680   -4.3520   -0.4250 C   0  0  0  0  0  0  0  0  0  0  0  0
   -1.9900   -3.1650    0.4530 C   0  0  0  0  0  0  0  0  0  0  0  0
   -1.0080   -2.6500    1.4390 C   0  0  0  0  0  0  0  0  0  0  0  0
   -0.3270   -1.5240    1.5980 C   0  0  0  0  0  0  0  0  0  0  0  0
   -0.3190   -0.3030    0.7740 C   0  0  0  0  0  0  0  0  0  0  0  0
   -1.2560    0.3250    0.0680 C   0  0  0  0  0  0  0  0  0  0  0  0
   -0.9950    1.4510   -0.7610 N   0  0  0  0  0  0  0  0  0  0  0  0
    0.3610    1.8840   -0.7880 C   0  0  0  0  0  0  0  0  0  0  0  0
    0.6250    3.0670   -1.0490 O   0  0  0  0  0  0  0  0  0  0  0  0
    1.4220    0.8430   -0.4870 C   0  0  1  0  0  0  0  0  0  0  0  0
    2.6850    1.5010   -0.4450 N   0  0  0  0  0  0  0  0  0  0  0  0
    3.9000    0.7840   -0.3130 C   0  0  0  0  0  0  0  0  0  0  0  0
    5.1000    1.4650   -0.0910 C   0  0  0  0  0  0  0  0  0  0  0  0
    6.3130    0.8240    0.0340 C   0  0  0  0  0  0  0  0  0  0  0  0
    6.3740   -0.5430   -0.0590 C   0  0  0  0  0  0  0  0  0  0  0  0
    7.6190   -1.2350    0.0670 N   0  0  0  0  0  0  0  0  0  0  0  0
    5.2170   -1.2570   -0.2780 C   0  0  0  0  0  0  0  0  0  0  0  0
    3.9940   -0.5830   -0.4020 C   0  0  0  0  0  0  0  0  0  0  0  0
    1.0430    0.2530    0.8760 C   0  0  0  0  0  0  0  0  0  0  0  0
  1  2  1  0
  2  3  1  0
  3  4  1  0
  4  5  2  0
  4  6  1  0
  6  7  2  0
  6 15  1  0
  7  8  1  0
  8  9  1  0
  8 11  2  0
  9 10  1  0
 11 12  1  0
 12 13  2  0
 13 14  1  0
 14 15  2  0
 14 28  1  0
 15 16  1  0
 16 17  1  0
 17 18  2  0
 17 19  1  0
 19 20  1  1
 19 28  1  0
 20 21  1  0
 21 22  2  0
 21 27  1  0
 22 23  1  0
 23 24  2  0
 24 25  1  0
 24 26  1  0
 26 27  2  0
M  END
