
     RDKit          3D

 24 27  0  0  0  0  0  0  0  0999 V2000
    0.5860   -0.4650    2.9420 O   0  0  0  0  0  0  0  0  0  0  0  0
    1.5700   -0.0780    2.2510 C   0  0  0  0  0  0  0  0  0  0  0  0
    2.6450    0.5220    2.7940 N   0  0  0  0  0  0  0  0  0  0  0  0
    3.7030    0.9420    2.0830 C   0  0  0  0  0  0  0  0  0  0  0  0
    4.7040    1.5040    2.6150 O   0  0  0  0  0  0  0  0  0  0  0  0
    3.6730    0.7450    0.7510 N   0  0  0  0  0  0  0  0  0  0  0  0
    4.7260    1.1590    0.0120 C   0  0  0  0  0  0  0  0  0  0  0  0
    4.7180    0.9710   -1.3400 C   0  0  0  0  0  0  0  0  0  0  0  0
    3.6450    0.3640   -1.9420 C   0  0  0  0  0  0  0  0  0  0  0  0
    2.6180   -0.0350   -1.1820 N   0  0  0  0  0  0  0  0  0  0  0  0
    2.6220    0.1470    0.1440 C   0  0  0  0  0  0  0  0  0  0  0  0
    1.5230   -0.2880    0.8930 C   0  0  0  0  0  0  0  0  0  0  0  0
    0.4090   -0.9240    0.2090 C   0  0  0  0  0  0  0  0  0  0  0  0
    0.3280   -2.3020    0.2440 C   0  0  0  0  0  0  0  0  0  0  0  0
   -0.7100   -2.9100   -0.3950 C   0  0  0  0  0  0  0  0  0  0  0  0
   -1.6330   -2.1930   -1.0420 N   0  0  0  0  0  0  0  0  0  0  0  0
   -1.6070   -0.8500   -1.1110 C   0  0  0  0  0  0  0  0  0  0  0  0
   -2.6260   -0.0410   -1.8290 C   0  0  0  0  0  0  0  0  0  0  0  0
   -3.6920    0.3180   -0.8950 N   0  0  0  0  0  0  0  0  0  0  0  0
   -4.7910   -0.4030   -0.6620 C   0  0  0  0  0  0  0  0  0  0  0  0
   -5.5410    0.2600    0.2700 C   0  0  0  0  0  0  0  0  0  0  0  0
   -4.8600    1.4090    0.5960 C   0  0  0  0  0  0  0  0  0  0  0  0
   -3.7090    1.4120   -0.1510 C   0  0  0  0  0  0  0  0  0  0  0  0
   -0.5600   -0.2160   -0.4690 C   0  0  0  0  0  0  0  0  0  0  0  0
  1  2  2  0
  2  3  1  0
  2 12  1  0
  3  4  1  0
  4  5  2  0
  4  6  1  0
  6  7  1  0
  6 11  1  0
  7  8  2  0
  8  9  1  0
  9 10  2  0
 10 11  1  0
 11 12  2  0
 12 13  1  0
 13 14  2  0
 13 24  1  0
 14 15  1  0
 15 16  2  0
 16 17  1  0
 17 18  1  0
 17 24  2  0
 18 19  1  0
 19 20  1  0
 19 23  1  0
 20 21  2  0
 21 22  1  0
 22 23  2  0
M  END
