
     RDKit          3D

 24 27  0  0  0  0  0  0  0  0999 V2000
   -5.6520    1.3540   -0.5770 C   0  0  0  0  0  0  0  0  0  0  0  0
   -4.4160    0.5870   -0.3080 C   0  0  0  0  0  0  0  0  0  0  0  0
   -4.5080   -0.7110    0.0240 N   0  0  0  0  0  0  0  0  0  0  0  0
   -3.4350   -1.4580    0.2790 N   0  0  0  0  0  0  0  0  0  0  0  0
   -3.5860   -2.8570    0.6330 C   0  0  0  0  0  0  0  0  0  0  0  0
   -2.2180   -0.9230    0.2080 C   0  0  0  0  0  0  0  0  0  0  0  0
   -1.1580   -1.5750    0.4380 O   0  0  0  0  0  0  0  0  0  0  0  0
   -2.0480    0.4170   -0.1300 C   0  0  0  0  0  0  0  0  0  0  0  0
   -3.1820    1.1580   -0.3870 C   0  0  0  0  0  0  0  0  0  0  0  0
   -2.7420    2.4320   -0.6930 C   0  0  0  0  0  0  0  0  0  0  0  0
   -3.5450    3.3590   -0.9790 O   0  0  0  0  0  0  0  0  0  0  0  0
   -1.4210    2.4110   -0.6130 N   0  0  0  0  0  0  0  0  0  0  0  0
   -0.9670    1.2120   -0.2760 N   0  0  0  0  0  0  0  0  0  0  0  0
    0.3780    0.7890   -0.0900 C   0  0  0  0  0  0  0  0  0  0  0  0
    0.9870   -0.1890   -0.8450 C   0  0  0  0  0  0  0  0  0  0  0  0
    2.2790   -0.5540   -0.6220 C   0  0  0  0  0  0  0  0  0  0  0  0
    3.0380    0.0300    0.3620 C   0  0  0  0  0  0  0  0  0  0  0  0
    4.3960   -0.4220    0.5240 N   0  0  0  0  0  0  0  0  0  0  0  0
    5.5080    0.3090    0.3380 C   0  0  0  0  0  0  0  0  0  0  0  0
    6.6240   -0.4600    0.5860 C   0  0  0  0  0  0  0  0  0  0  0  0
    6.1280   -1.6970    0.9320 C   0  0  0  0  0  0  0  0  0  0  0  0
    4.7570   -1.6590    0.8890 C   0  0  0  0  0  0  0  0  0  0  0  0
    2.4640    1.0090    1.1350 C   0  0  0  0  0  0  0  0  0  0  0  0
    1.1350    1.3800    0.9000 C   0  0  0  0  0  0  0  0  0  0  0  0
  1  2  1  0
  2  3  2  0
  2  9  1  0
  3  4  1  0
  4  5  1  0
  4  6  1  0
  6  7  2  0
  6  8  1  0
  8  9  2  0
  8 13  1  0
  9 10  1  0
 10 11  2  0
 10 12  1  0
 12 13  1  0
 13 14  1  0
 14 15  2  0
 14 24  1  0
 15 16  1  0
 16 17  2  0
 17 18  1  0
 17 23  1  0
 18 19  1  0
 18 22  1  0
 19 20  2  0
 20 21  1  0
 21 22  2  0
 23 24  2  0
M  END
