
     RDKit          3D

 28 30  0  0  0  0  0  0  0  0999 V2000
    2.8690    3.3430   -2.0090 C   0  0  0  0  0  0  0  0  0  0  0  0
    3.7490    2.1900   -2.5300 C   0  0  0  0  0  0  0  0  0  0  0  0
    2.8100    1.0890   -2.8900 C   0  0  0  0  0  0  0  0  0  0  0  0
    2.0140    0.5760   -1.8950 O   0  0  0  0  0  0  0  0  0  0  0  0
    2.3170   -0.0850   -0.7590 C   0  0  0  0  0  0  0  0  0  0  0  0
    3.6090   -0.3980   -0.4010 C   0  0  0  0  0  0  0  0  0  0  0  0
    3.9210   -1.0780    0.7630 C   0  0  0  0  0  0  0  0  0  0  0  0
    2.8750   -1.4380    1.5670 C   0  0  0  0  0  0  0  0  0  0  0  0
    1.5520   -1.1270    1.2140 C   0  0  0  0  0  0  0  0  0  0  0  0
    1.2270   -0.4550    0.0670 C   0  0  0  0  0  0  0  0  0  0  0  0
   -0.0690   -0.1030   -0.3620 N   0  0  0  0  0  0  0  0  0  0  0  0
   -1.2990   -0.3520    0.2700 C   0  0  0  0  0  0  0  0  0  0  0  0
   -1.2610   -0.9790    1.3770 O   0  0  0  0  0  0  0  0  0  0  0  0
   -2.5600    0.0400   -0.2320 N   0  0  0  0  0  0  0  0  0  0  0  0
   -2.6390    0.7640   -1.4680 C   0  0  0  0  0  0  0  0  0  0  0  0
   -2.6940   -0.1750   -2.6540 C   0  0  0  0  0  0  0  0  0  0  0  0
   -3.7790   -1.1910   -2.5920 C   0  0  0  0  0  0  0  0  0  0  0  0
   -4.8570   -0.8600   -1.6600 N   0  0  0  0  0  0  0  0  0  0  0  0
   -4.8480   -0.7460   -0.2510 C   0  0  0  0  0  0  0  0  0  0  0  0
   -5.9200   -0.9990    0.3160 O   0  0  0  0  0  0  0  0  0  0  0  0
   -3.6890   -0.3600    0.5820 C   0  0  2  0  0  0  0  0  0  0  0  0
   -4.0350    0.6660    1.6250 C   0  0  1  0  0  0  0  0  0  0  0  0
   -4.3990    1.9990    1.0690 C   0  0  0  0  0  0  0  0  0  0  0  0
   -5.1460    0.1110    2.4900 C   0  0  0  0  0  0  0  0  0  0  0  0
    3.3790   -2.1030    2.6730 O   0  0  0  0  0  0  0  0  0  0  0  0
    4.7290   -2.4870    2.4230 C   0  0  2  0  0  0  0  0  0  0  0  0
    5.5800   -2.2620    3.6580 C   0  0  0  0  0  0  0  0  0  0  0  0
    5.2230   -1.5250    1.3650 C   0  0  0  0  0  0  0  0  0  0  0  0
  1  2  1  0
  2  3  1  0
  3  4  1  0
  4  5  1  0
  5  6  2  0
  5 10  1  0
  6  7  1  0
  7  8  2  0
  7 28  1  0
  8  9  1  0
  8 25  1  0
  9 10  2  0
 10 11  1  0
 11 12  1  0
 12 13  2  0
 12 14  1  0
 14 15  1  0
 21 14  1  6
 15 16  1  0
 16 17  1  0
 17 18  1  0
 18 19  1  0
 19 20  2  0
 19 21  1  0
 21 22  1  0
 22 23  1  6
 22 24  1  0
 25 26  1  0
 26 27  1  1
 26 28  1  0
M  END
