
     RDKit          3D

 28 30  0  0  0  0  0  0  0  0999 V2000
    6.8460    1.8950    1.4230 C   0  0  0  0  0  0  0  0  0  0  0  0
    5.9810    1.8570    0.1580 C   0  0  2  0  0  0  0  0  0  0  0  0
    5.9570    3.2550   -0.4580 C   0  0  0  0  0  0  0  0  0  0  0  0
    4.7060    1.3750    0.4430 O   0  0  0  0  0  0  0  0  0  0  0  0
    4.2520    0.2050   -0.1270 C   0  0  0  0  0  0  0  0  0  0  0  0
    4.9900   -0.4250   -0.9040 O   0  0  0  0  0  0  0  0  0  0  0  0
    2.8960   -0.2780    0.1960 C   0  0  2  0  0  0  0  0  0  0  0  0
    2.5930   -1.5780   -0.5360 C   0  0  0  0  0  0  0  0  0  0  0  0
    1.2930   -2.1000    0.0750 C   0  0  0  0  0  0  0  0  0  0  0  0
    0.2880   -1.0880   -0.2140 N   0  0  0  0  0  0  0  0  0  0  0  0
   -0.9690   -1.5410   -0.7010 C   0  0  0  0  0  0  0  0  0  0  0  0
   -1.1990   -2.7480   -0.8710 O   0  0  0  0  0  0  0  0  0  0  0  0
   -2.0370   -0.5420   -1.0150 C   0  0  0  0  0  0  0  0  0  0  0  0
   -3.2610   -1.2350   -1.5010 C   0  0  0  0  0  0  0  0  0  0  0  0
   -3.8770   -2.1950   -0.5560 C   0  0  0  0  0  0  0  0  0  0  0  0
   -3.9050   -3.5370   -0.7340 C   0  0  0  0  0  0  0  0  0  0  0  0
   -4.5640   -4.1710    0.3430 N   0  0  0  0  0  0  0  0  0  0  0  0
   -4.9980   -3.2120    1.2780 C   0  0  0  0  0  0  0  0  0  0  0  0
   -5.6130   -3.3560    2.3570 O   0  0  0  0  0  0  0  0  0  0  0  0
   -4.5560   -1.8920    0.7050 C   0  0  0  0  0  0  0  0  0  0  0  0
   -4.8330   -0.8250    1.2940 N   0  0  0  0  0  0  0  0  0  0  0  0
   -4.6320    0.5170    1.0300 C   0  0  0  0  0  0  0  0  0  0  0  0
   -3.8720    1.4010    1.7080 C   0  0  0  0  0  0  0  0  0  0  0  0
   -3.9330    2.7340    1.0920 C   0  0  0  0  0  0  0  0  0  0  0  0
   -4.8450    2.5390   -0.0570 C   0  0  0  0  0  0  0  0  0  0  0  0
   -5.2290    1.2850   -0.0780 C   0  0  0  0  0  0  0  0  0  0  0  0
    0.4980    0.3120   -0.0370 C   0  0  0  0  0  0  0  0  0  0  0  0
    1.9150    0.7460   -0.3440 C   0  0  0  0  0  0  0  0  0  0  0  0
  2  1  1  1
  2  3  1  0
  2  4  1  0
  4  5  1  0
  5  6  2  0
  7  5  1  6
  7  8  1  0
  7 28  1  0
  8  9  1  0
  9 10  1  0
 10 11  1  0
 10 27  1  0
 11 12  2  0
 11 13  1  0
 13 14  1  0
 14 15  1  0
 15 16  2  0
 15 20  1  0
 16 17  1  0
 17 18  1  0
 18 19  2  0
 18 20  1  0
 20 21  2  3
 21 22  1  0
 22 23  2  0
 22 26  1  0
 23 24  1  0
 24 25  1  0
 25 26  2  0
 27 28  1  0
M  END
