
     RDKit          3D

  8  7  0  0  0  0  0  0  0  0999 V2000
    2.1400   -0.8270   -1.0770 O   0  0  0  0  0  0  0  0  0  0  0  0
    1.7520   -0.1150   -0.1190 C   0  0  0  0  0  0  0  0  0  0  0  0
    2.6630    0.7490    0.4540 O   0  0  0  0  0  0  0  0  0  0  0  0
    0.4370   -0.2450    0.2970 O   0  0  0  0  0  0  0  0  0  0  0  0
   -0.4230   -1.0900   -0.2770 O   0  0  0  0  0  0  0  0  0  0  0  0
   -1.7120   -0.6540    0.0280 C   0  0  0  0  0  0  0  0  0  0  0  0
   -1.8750    0.6270   -0.4710 O   0  0  0  0  0  0  0  0  0  0  0  0
   -1.0010    1.4650    0.0590 O   0  0  0  0  0  0  0  0  0  0  0  0
  1  2  2  0
  2  3  1  0
  2  4  1  0
  4  5  1  0
  5  6  1  0
  6  7  1  0
  7  8  1  0
M  END
