
     RDKit          3D

 28 30  0  0  0  0  0  0  0  0999 V2000
   -3.9370   -2.9530   -0.8110 N   0  0  0  0  0  0  0  0  0  0  0  0
   -4.1960   -1.5420   -0.8680 C   0  0  0  0  0  0  0  0  0  0  0  0
   -3.1880   -0.6800   -0.5590 N   0  0  0  0  0  0  0  0  0  0  0  0
   -3.4020    0.6260   -0.4730 C   0  0  0  0  0  0  0  0  0  0  0  0
   -4.6620    1.1010   -0.7040 C   0  0  0  0  0  0  0  0  0  0  0  0
   -4.6300    2.4730   -0.5850 N   0  0  0  0  0  0  0  0  0  0  0  0
   -3.3880    2.8220   -0.2820 C   0  0  0  0  0  0  0  0  0  0  0  0
   -2.6290    1.7360   -0.2100 N   0  0  0  0  0  0  0  0  0  0  0  0
   -1.2320    1.6470    0.0480 C   0  0  2  0  0  0  0  0  0  0  0  0
   -0.6240    0.7550   -0.8860 O   0  0  0  0  0  0  0  0  0  0  0  0
    0.4350    0.3070   -0.1970 C   0  0  2  0  0  0  0  0  0  0  0  0
    1.5200   -0.4530   -0.8380 C   0  0  0  0  0  0  0  0  0  0  0  0
    2.4390   -0.6560    0.2450 O   0  0  0  0  0  0  0  0  0  0  0  0
    3.8970    0.0510   -0.1170 P   0  0  2  0  0  0  0  0  0  0  0  0
    4.5680    0.3190    1.2590 O   0  0  0  0  0  0  0  0  0  0  0  0
    3.5890    1.6420   -0.7000 O   0  0  0  0  0  0  0  0  0  0  0  0
    4.9300   -0.7250   -1.1240 O   0  0  0  0  0  0  0  0  0  0  0  0
    6.4350   -0.9690   -0.3610 P   0  0  1  0  0  0  0  0  0  0  0  0
    7.0820    0.3150    0.0510 O   0  0  0  0  0  0  0  0  0  0  0  0
    6.1300   -1.9480    1.0200 O   0  0  0  0  0  0  0  0  0  0  0  0
    7.4260   -1.8060   -1.4170 O   0  0  0  0  0  0  0  0  0  0  0  0
   -0.1780   -0.2170    1.0710 C   0  0  1  0  0  0  0  0  0  0  0  0
    0.7740   -0.4680    2.0240 O   0  0  0  0  0  0  0  0  0  0  0  0
   -0.9960    1.0320    1.4290 C   0  0  1  0  0  0  0  0  0  0  0  0
   -0.1640    1.9060    2.1000 O   0  0  0  0  0  0  0  0  0  0  0  0
   -5.6980    0.2590   -1.0170 C   0  0  0  0  0  0  0  0  0  0  0  0
   -6.8370    0.7000   -1.2080 O   0  0  0  0  0  0  0  0  0  0  0  0
   -5.4220   -1.1060   -1.0960 N   0  0  0  0  0  0  0  0  0  0  0  0
  1  2  1  0
  2  3  2  0
  2 28  1  0
  3  4  1  0
  4  5  2  0
  4  8  1  0
  5  6  1  0
  5 26  1  0
  6  7  2  0
  7  8  1  0
  9  8  1  6
  9 10  1  0
  9 24  1  0
 10 11  1  0
 11 12  1  6
 11 22  1  0
 12 13  1  0
 13 14  1  0
 14 15  2  0
 14 16  1  6
 14 17  1  0
 17 18  1  0
 18 19  2  0
 18 20  1  1
 18 21  1  0
 22 23  1  1
 22 24  1  0
 24 25  1  1
 26 27  2  0
 26 28  1  0
M  END
