
     RDKit          3D

 20 19  0  0  0  0  0  0  0  0999 V2000
   -2.0060   -3.7410   -1.2900 C   0  0  0  0  0  0  0  0  0  0  0  0
   -1.9620   -2.3080   -0.8630 C   0  0  0  0  0  0  0  0  0  0  0  0
   -0.6420   -1.7990   -0.9170 O   0  0  0  0  0  0  0  0  0  0  0  0
   -0.6560   -0.2020   -0.4330 P   0  0  0  0  0  0  0  0  0  0  0  0
   -2.0570    0.8170   -0.9450 C   0  0  0  0  0  0  0  0  0  0  0  0
   -1.6860    2.2450   -1.0890 C   0  0  0  0  0  0  0  0  0  0  0  0
   -2.7450    3.0220   -1.4820 O   0  0  0  0  0  0  0  0  0  0  0  0
   -3.8310    3.0480   -0.6490 C   0  0  0  0  0  0  0  0  0  0  0  0
    0.6980    0.5120    0.1830 O   0  0  0  0  0  0  0  0  0  0  0  0
    1.1250    0.1630    1.4340 C   0  0  2  0  0  0  0  0  0  0  0  0
    0.0370    0.4700    2.4680 C   0  0  0  0  0  0  0  0  0  0  0  0
    2.5090    1.2790    1.8650 S   0  0  0  0  0  0  0  0  0  0  0  0
    3.8910    1.0340    0.8710 O   0  0  0  0  0  0  0  0  0  0  0  0
    3.9190    1.1070   -0.4970 C   0  0  0  0  0  0  0  0  0  0  0  0
    5.1220    0.8920   -1.3270 C   0  0  0  0  0  0  0  0  0  0  0  0
    2.8350    1.3790   -1.0890 O   0  0  0  0  0  0  0  0  0  0  0  0
    1.5940   -1.2300    1.5400 C   0  0  0  0  0  0  0  0  0  0  0  0
    1.5670   -1.9660    0.4950 O   0  0  0  0  0  0  0  0  0  0  0  0
    2.0710   -1.8290    2.6890 O   0  0  0  0  0  0  0  0  0  0  0  0
    2.4890   -3.1000    2.7440 O   0  0  0  0  0  0  0  0  0  0  0  0
  1  2  1  0
  2  3  1  0
  3  4  1  0
  4  5  1  0
  4  9  1  0
  5  6  1  0
  6  7  1  0
  7  8  1  0
  9 10  1  0
 10 11  1  1
 10 12  1  0
 10 17  1  0
 12 13  1  0
 13 14  1  0
 14 15  1  0
 14 16  2  0
 17 18  2  0
 17 19  1  0
 19 20  1  0
M  END
