
     RDKit          3D

 20 21  0  0  0  0  0  0  0  0999 V2000
   -0.3130   -1.8630   -1.5120 C   0  0  0  0  0  0  0  0  0  0  0  0
   -0.5420   -0.5610   -1.4280 C   0  0  0  0  0  0  0  0  0  0  0  0
   -0.7210    0.1280   -2.6330 O   0  0  0  0  0  0  0  0  0  0  0  0
   -0.6060    0.1600   -0.1350 C   0  0  2  0  0  0  0  0  0  0  0  0
   -0.8770   -0.6940    0.8830 O   0  0  0  0  0  0  0  0  0  0  0  0
   -2.1500   -1.2370    0.7370 C   0  0  0  0  0  0  0  0  0  0  0  0
   -2.4630   -2.1990    1.8290 C   0  0  0  0  0  0  0  0  0  0  0  0
   -1.6390   -2.4100    2.6890 O   0  0  0  0  0  0  0  0  0  0  0  0
   -1.8090    1.1110   -0.2600 C   0  0  0  0  0  0  0  0  0  0  0  0
   -1.4010    2.2540   -0.9880 O   0  0  0  0  0  0  0  0  0  0  0  0
   -0.7960    3.1140   -0.0760 C   0  0  0  0  0  0  0  0  0  0  0  0
    0.3140    2.3850    0.6040 C   0  0  0  0  0  0  0  0  0  0  0  0
    0.5910    1.0250    0.0380 C   0  0  2  0  0  0  0  0  0  0  0  0
    1.4330    1.2600   -1.5770 S   0  0  0  0  0  0  0  0  0  0  0  0
    2.8760    0.3320   -1.2930 O   0  0  0  0  0  0  0  0  0  0  0  0
    3.2960    0.6880   -0.0970 O   0  0  0  0  0  0  0  0  0  0  0  0
    1.9710    0.2740    0.9880 P   0  0  0  0  0  0  0  0  0  0  0  0
    1.9190   -1.4290    1.0760 O   0  0  0  0  0  0  0  0  0  0  0  0
    3.5540   -2.0260    1.1060 P   0  0  0  0  0  0  0  0  0  0  0  0
    4.6660   -0.9160    0.4170 O   0  0  0  0  0  0  0  0  0  0  0  0
  1  2  2  0
  2  3  1  0
  2  4  1  0
  4  5  1  1
  4  9  1  0
  4 13  1  0
  5  6  1  0
  6  7  1  0
  7  8  2  0
  9 10  1  0
 10 11  1  0
 11 12  1  0
 13 12  1  1
 13 14  1  0
 13 17  1  0
 14 15  1  0
 15 16  1  0
 16 17  1  0
 17 18  1  0
 18 19  1  0
 19 20  1  0
M  END
