
     RDKit          3D

 20 20  0  0  0  0  0  0  0  0999 V2000
   -3.2270    1.6400   -0.7750 C   0  0  0  0  0  0  0  0  0  0  0  0
   -3.1100    0.5080   -1.4420 C   0  0  0  0  0  0  0  0  0  0  0  0
   -1.9880   -0.4530   -1.2630 C   0  0  2  0  0  0  0  0  0  0  0  0
   -2.5260   -1.8190   -1.4480 C   0  0  0  0  0  0  0  0  0  0  0  0
   -3.5860   -2.1030   -0.9220 O   0  0  0  0  0  0  0  0  0  0  0  0
   -1.2740   -0.1950    0.4170 P   0  0  0  0  0  0  0  0  0  0  0  0
   -1.8690   -1.4040    1.6560 C   0  0  0  0  0  0  0  0  0  0  0  0
    0.5490    0.0170    0.3990 C   0  0  2  0  0  0  0  0  0  0  0  0
    1.0700   -0.1430    1.7880 C   0  0  0  0  0  0  0  0  0  0  0  0
    0.2690    1.1630    2.8490 P   0  0  0  0  0  0  0  0  0  0  0  0
    1.4000    2.3330    3.4020 O   0  0  0  0  0  0  0  0  0  0  0  0
    0.8800    1.4440   -0.0450 C   0  0  0  0  0  0  0  0  0  0  0  0
    2.2260    1.2740   -0.3700 O   0  0  0  0  0  0  0  0  0  0  0  0
    2.3850   -0.0220   -0.8020 C   0  0  2  0  0  0  0  0  0  0  0  0
    3.3610   -0.7070   -0.0500 O   0  0  0  0  0  0  0  0  0  0  0  0
    3.4430   -2.3090   -0.7100 S   0  0  0  0  0  0  0  0  0  0  0  0
    2.7380   -0.0010   -2.2290 C   0  0  0  0  0  0  0  0  0  0  0  0
    2.9290   -1.0760   -2.8240 O   0  0  0  0  0  0  0  0  0  0  0  0
    2.8570    1.1870   -2.8970 O   0  0  0  0  0  0  0  0  0  0  0  0
    1.1960   -0.7130   -0.5600 O   0  0  0  0  0  0  0  0  0  0  0  0
  1  2  2  0
  2  3  1  0
  3  4  1  0
  3  6  1  1
  4  5  2  0
  6  7  1  0
  6  8  1  0
  8  9  1  1
  8 12  1  0
  8 20  1  0
  9 10  1  0
 10 11  1  0
 12 13  1  0
 13 14  1  0
 14 15  1  1
 14 17  1  0
 14 20  1  0
 15 16  1  0
 17 18  2  0
 17 19  1  0
M  END
