
     RDKit          3D

 20 20  0  0  0  0  0  0  0  0999 V2000
    2.5620   -1.6290   -1.7560 C   0  0  0  0  0  0  0  0  0  0  0  0
    2.5320   -1.0100   -0.4050 C   0  0  2  0  0  0  0  0  0  0  0  0
    3.8410   -0.8290    0.0400 O   0  0  0  0  0  0  0  0  0  0  0  0
    1.9100   -1.8750    0.4960 O   0  0  0  0  0  0  0  0  0  0  0  0
    1.7920    0.3030   -0.3510 C   0  0  2  0  0  0  0  0  0  0  0  0
    1.7510    0.8030    0.9380 O   0  0  0  0  0  0  0  0  0  0  0  0
    2.6510    2.2820    1.0060 P   0  0  0  0  0  0  0  0  0  0  0  0
    3.7680    2.2840   -0.3240 O   0  0  0  0  0  0  0  0  0  0  0  0
    0.4030    0.2210   -0.8960 C   0  0  1  0  0  0  0  0  0  0  0  0
   -0.4480   -0.5830   -0.1840 O   0  0  0  0  0  0  0  0  0  0  0  0
   -1.7120   -0.1500   -0.5840 C   0  0  1  0  0  0  0  0  0  0  0  0
   -2.7530   -0.3920    0.4870 C   0  0  1  0  0  0  0  0  0  0  0  0
   -2.8660   -1.8720    0.8220 C   0  0  0  0  0  0  0  0  0  0  0  0
   -2.4410    0.5810    1.9700 S   0  0  0  0  0  0  0  0  0  0  0  0
   -4.1010    0.0280   -0.0640 C   0  0  0  0  0  0  0  0  0  0  0  0
   -4.1310    1.8110   -0.5350 P   0  0  0  0  0  0  0  0  0  0  0  0
   -3.7930    2.3160   -1.9730 O   0  0  0  0  0  0  0  0  0  0  0  0
   -1.5960    1.2710   -0.7080 O   0  0  0  0  0  0  0  0  0  0  0  0
   -0.2330    1.5560   -0.7640 C   0  0  0  0  0  0  0  0  0  0  0  0
    0.2720    2.7080   -0.7100 O   0  0  0  0  0  0  0  0  0  0  0  0
  2  1  1  6
  2  3  1  0
  2  4  1  0
  2  5  1  0
  5  6  1  1
  5  9  1  0
  6  7  1  0
  7  8  1  0
  9 10  1  1
  9 19  1  0
 11 10  1  1
 11 12  1  0
 11 18  1  0
 12 13  1  1
 12 14  1  0
 12 15  1  0
 15 16  1  0
 16 17  2  0
 18 19  1  0
 19 20  2  0
M  END
