
     RDKit          3D

 20 19  0  0  0  0  0  0  0  0999 V2000
   -5.0730    1.3180   -0.6160 C   0  0  0  0  0  0  0  0  0  0  0  0
   -4.1380    1.7450    0.5070 C   0  0  0  0  0  0  0  0  0  0  0  0
   -2.4620    1.2360    0.0130 S   0  0  0  0  0  0  0  0  0  0  0  0
   -2.3850   -0.5510   -0.0330 C   0  0  0  0  0  0  0  0  0  0  0  0
   -1.0460   -1.0700   -0.4300 C   0  0  2  0  0  0  0  0  0  0  0  0
   -1.1250   -2.6380   -0.4060 C   0  0  0  0  0  0  0  0  0  0  0  0
   -2.3900   -3.2650   -1.5580 P   0  0  0  0  0  0  0  0  0  0  0  0
   -0.0600   -0.6720    0.4290 O   0  0  0  0  0  0  0  0  0  0  0  0
    1.1530   -0.3380   -0.0910 C   0  0  2  0  0  0  0  0  0  0  0  0
    1.5980   -1.5540   -0.7480 O   0  0  0  0  0  0  0  0  0  0  0  0
    2.0560   -0.2250    0.9710 O   0  0  0  0  0  0  0  0  0  0  0  0
    3.3300    0.0780    0.5440 C   0  0  0  0  0  0  0  0  0  0  0  0
    4.2780    0.1910    1.7090 C   0  0  0  0  0  0  0  0  0  0  0  0
    3.8880    0.0230    2.8400 O   0  0  0  0  0  0  0  0  0  0  0  0
    6.0170    0.5870    1.3700 P   0  0  0  0  0  0  0  0  0  0  0  0
    6.9920   -0.8070    1.5970 O   0  0  0  0  0  0  0  0  0  0  0  0
    1.2610    0.6010   -1.0420 O   0  0  0  0  0  0  0  0  0  0  0  0
    0.8660    1.8740   -0.8920 C   0  0  1  0  0  0  0  0  0  0  0  0
    1.8700    2.8530   -1.0660 O   0  0  0  0  0  0  0  0  0  0  0  0
   -0.0980    2.2570   -1.8660 O   0  0  0  0  0  0  0  0  0  0  0  0
  1  2  1  0
  2  3  1  0
  3  4  1  0
  5  4  1  1
  5  6  1  0
  5  8  1  0
  6  7  1  0
  8  9  1  0
  9 10  1  6
  9 11  1  0
  9 17  1  0
 11 12  1  0
 12 13  1  0
 13 14  2  0
 13 15  1  0
 15 16  1  0
 17 18  1  0
 18 19  1  6
 18 20  1  0
M  END
