
     RDKit          3D

 20 19  0  0  0  0  0  0  0  0999 V2000
   -2.5650   -1.7880   -0.3220 C   0  0  0  0  0  0  0  0  0  0  0  0
   -1.5780   -0.5820    0.6640 P   0  0  0  0  0  0  0  0  0  0  0  0
   -1.7610    1.0390    0.1350 O   0  0  0  0  0  0  0  0  0  0  0  0
   -3.0260    1.3670   -0.2580 C   0  0  2  0  0  0  0  0  0  0  0  0
   -3.4230    0.5610   -1.3150 O   0  0  0  0  0  0  0  0  0  0  0  0
   -3.0130    2.7690   -0.7530 C   0  0  0  0  0  0  0  0  0  0  0  0
   -3.3120    3.0690   -1.8930 O   0  0  0  0  0  0  0  0  0  0  0  0
   -4.0520    1.2480    0.8440 C   0  0  0  0  0  0  0  0  0  0  0  0
   -3.7630    2.0760    1.9220 O   0  0  0  0  0  0  0  0  0  0  0  0
    0.4760   -1.1850    0.9630 P   0  0  0  0  0  0  0  0  0  0  0  0
    0.5410   -3.0050    1.3110 C   0  0  0  0  0  0  0  0  0  0  0  0
    1.5720   -0.7270   -0.4050 C   0  0  0  0  0  0  0  0  0  0  0  0
    1.2150   -0.6060   -1.5900 O   0  0  0  0  0  0  0  0  0  0  0  0
    2.9160   -0.4920   -0.1150 O   0  0  0  0  0  0  0  0  0  0  0  0
    3.8490   -0.1400   -1.0540 C   0  0  0  0  0  0  0  0  0  0  0  0
    3.4850   -0.0190   -2.2450 O   0  0  0  0  0  0  0  0  0  0  0  0
    5.2810    0.1090   -0.7360 C   0  0  1  0  0  0  0  0  0  0  0  0
    6.0040    0.4510   -1.8750 O   0  0  0  0  0  0  0  0  0  0  0  0
    5.4250    1.2240    0.2360 C   0  0  0  0  0  0  0  0  0  0  0  0
    5.7670    1.0260    1.6170 S   0  0  0  0  0  0  0  0  0  0  0  0
  1  2  1  0
  2  3  1  0
  2 10  1  0
  3  4  1  0
  4  5  1  6
  4  6  1  0
  4  8  1  0
  6  7  2  0
  8  9  1  0
 10 11  1  0
 10 12  1  0
 12 13  2  0
 12 14  1  0
 14 15  1  0
 15 16  2  0
 15 17  1  0
 17 18  1  6
 17 19  1  0
 19 20  2  0
M  END
