
     RDKit          3D

 19 19  0  0  0  0  0  0  0  0999 V2000
   -0.2290    0.7680   -0.0790 O   0  0  0  0  0  0  0  0  0  0  0  0
   -0.4050   -0.3620    0.4440 C   0  0  0  0  0  0  0  0  0  0  0  0
    0.5840   -0.8630    1.2550 O   0  0  0  0  0  0  0  0  0  0  0  0
    1.7920   -0.2010    1.5490 C   0  0  0  0  0  0  0  0  0  0  0  0
    2.5610    0.0720    0.4400 O   0  0  0  0  0  0  0  0  0  0  0  0
    3.7130    0.7210    0.8690 C   0  0  0  0  0  0  0  0  0  0  0  0
    4.6320    1.0670   -0.2810 C   0  0  2  0  0  0  0  0  0  0  0  0
    4.0390    1.8980   -1.2010 O   0  0  0  0  0  0  0  0  0  0  0  0
    5.2210   -0.1820   -0.8750 C   0  0  0  0  0  0  0  0  0  0  0  0
    4.2600   -0.9510   -1.5150 O   0  0  0  0  0  0  0  0  0  0  0  0
   -1.6670   -1.0940    0.1590 C   0  0  2  0  0  0  0  0  0  0  0  0
   -2.5060   -0.3910   -0.6820 O   0  0  0  0  0  0  0  0  0  0  0  0
   -3.7380   -0.9920   -0.4240 C   0  0  2  0  0  0  0  0  0  0  0  0
   -4.8820   -0.2570   -1.0670 C   0  0  0  0  0  0  0  0  0  0  0  0
   -5.0130    1.1530   -0.6050 C   0  0  0  0  0  0  0  0  0  0  0  0
   -5.2220    1.1750    0.7590 O   0  0  0  0  0  0  0  0  0  0  0  0
   -3.7870   -0.9510    0.9850 O   0  0  0  0  0  0  0  0  0  0  0  0
   -2.4820   -1.1810    1.3990 C   0  0  0  0  0  0  0  0  0  0  0  0
   -2.0610   -1.4140    2.5610 O   0  0  0  0  0  0  0  0  0  0  0  0
  1  2  2  0
  2  3  1  0
 11  2  1  1
  3  4  1  0
  4  5  1  0
  5  6  1  0
  6  7  1  0
  7  8  1  6
  7  9  1  0
  9 10  1  0
 11 12  1  0
 11 18  1  0
 12 13  1  0
 13 14  1  6
 13 17  1  0
 14 15  1  0
 15 16  1  0
 17 18  1  0
 18 19  2  0
M  END
