
     RDKit          3D

 27 29  0  0  0  0  0  0  0  0999 V2000
   -1.6670    0.9920   -1.3980 C   0  0  0  0  0  0  0  0  0  0  0  0
   -2.1510    0.0970   -0.3320 C   0  0  0  0  0  0  0  0  0  0  0  0
   -3.4330    0.0200   -0.2040 N   0  0  0  0  0  0  0  0  0  0  0  0
   -4.4290    0.6860   -0.9590 C   0  0  1  0  0  0  0  0  0  0  0  0
   -5.8250    0.1550   -0.6970 C   0  0  0  0  0  0  0  0  0  0  0  0
   -6.3260    0.9950    0.4770 C   0  0  0  0  0  0  0  0  0  0  0  0
   -5.8520    2.3660    0.0740 C   0  0  0  0  0  0  0  0  0  0  0  0
   -4.5770    2.1560   -0.6720 C   0  0  0  0  0  0  0  0  0  0  0  0
   -1.3590   -0.7010    0.5630 C   0  0  0  0  0  0  0  0  0  0  0  0
   -1.9840   -1.4900    1.4790 C   0  0  0  0  0  0  0  0  0  0  0  0
   -3.4390   -1.5620    1.5930 C   0  0  0  0  0  0  0  0  0  0  0  0
   -1.0660   -2.2850    2.3570 C   0  0  0  0  0  0  0  0  0  0  0  0
   -0.0210   -3.0150    1.5460 C   0  0  0  0  0  0  0  0  0  0  0  0
    0.3970   -2.2500    0.3970 N   0  0  0  0  0  0  0  0  0  0  0  0
    0.1040   -0.8250    0.6690 C   0  0  1  0  0  0  0  0  0  0  0  0
    0.9540    0.0760   -0.1050 C   0  0  0  0  0  0  0  0  0  0  0  0
    2.4130   -0.1890    0.1970 C   0  0  0  0  0  0  0  0  0  0  0  0
    2.6740   -0.9320    1.1470 O   0  0  0  0  0  0  0  0  0  0  0  0
    3.4340    0.3850   -0.5720 N   0  0  0  0  0  0  0  0  0  0  0  0
    4.8220    0.2120   -0.3890 C   0  0  0  0  0  0  0  0  0  0  0  0
    5.4310   -0.5320    0.5810 C   0  0  0  0  0  0  0  0  0  0  0  0
    6.8090   -0.6580    0.7010 C   0  0  0  0  0  0  0  0  0  0  0  0
    7.6110   -0.0380   -0.1540 N   0  0  0  0  0  0  0  0  0  0  0  0
    7.0640    0.7170   -1.1400 C   0  0  0  0  0  0  0  0  0  0  0  0
    7.9660    1.4130   -2.0990 C   0  0  0  0  0  0  0  0  0  0  0  0
    8.2510    2.6820   -1.5680 O   0  0  0  0  0  0  0  0  0  0  0  0
    5.7060    0.8560   -1.2770 C   0  0  0  0  0  0  0  0  0  0  0  0
  1  2  1  0
  2  3  2  3
  2  9  1  0
  4  3  1  1
  4  5  1  0
  4  8  1  0
  5  6  1  0
  6  7  1  0
  7  8  1  0
  9 10  2  0
  9 15  1  0
 10 11  1  0
 10 12  1  0
 12 13  1  0
 13 14  1  0
 14 15  1  0
 15 16  1  6
 16 17  1  0
 17 18  2  0
 17 19  1  0
 19 20  1  0
 20 21  2  0
 20 27  1  0
 21 22  1  0
 22 23  2  0
 23 24  1  0
 24 25  1  0
 24 27  2  0
 25 26  1  0
M  CHG  1  14   1
M  END
