
     RDKit          3D

 22 25  0  0  0  0  0  0  0  0999 V2000
   -4.8130    1.5960    1.0330 C   0  0  0  0  0  0  0  0  0  0  0  0
   -3.5930    1.1380    0.3130 C   0  0  0  0  0  0  0  0  0  0  0  0
   -3.1830    1.8220   -0.8140 C   0  0  0  0  0  0  0  0  0  0  0  0
   -2.0570    1.3960   -1.4910 C   0  0  0  0  0  0  0  0  0  0  0  0
   -1.3820    0.2880   -1.0030 C   0  0  0  0  0  0  0  0  0  0  0  0
   -1.7940   -0.3980    0.1280 C   0  0  0  0  0  0  0  0  0  0  0  0
   -1.1270   -1.5840    0.6300 C   0  0  0  0  0  0  0  0  0  0  0  0
    0.1410   -1.9170    0.6620 C   0  0  0  0  0  0  0  0  0  0  0  0
    1.2700   -1.1130    0.1710 C   0  0  0  0  0  0  0  0  0  0  0  0
    2.2010   -1.6700   -0.6800 C   0  0  0  0  0  0  0  0  0  0  0  0
    3.2970   -0.9380   -1.1000 C   0  0  0  0  0  0  0  0  0  0  0  0
    3.4480    0.3600   -0.6550 C   0  0  0  0  0  0  0  0  0  0  0  0
    4.5160    1.0730   -1.0540 N   0  0  0  0  0  0  0  0  0  0  0  0
    4.6740    2.3280   -0.6220 C   0  0  0  0  0  0  0  0  0  0  0  0
    3.7540    2.9340    0.2410 C   0  0  0  0  0  0  0  0  0  0  0  0
    2.6710    2.1880    0.6340 C   0  0  0  0  0  0  0  0  0  0  0  0
    2.5000    0.8960    0.1970 C   0  0  0  0  0  0  0  0  0  0  0  0
    1.4290    0.1670    0.6000 N   0  0  0  0  0  0  0  0  0  0  0  0
    0.2650   -3.2670    1.2750 C   0  0  0  0  0  0  0  0  0  0  0  0
   -1.0760   -3.8060    1.2510 N   0  0  0  0  0  0  0  0  0  0  0  0
   -1.8580   -2.6640    1.2540 N   0  0  0  0  0  0  0  0  0  0  0  0
   -2.8970    0.0480    0.7620 N   0  0  0  0  0  0  0  0  0  0  0  0
  1  2  1  0
  2  3  2  0
  2 22  1  0
  3  4  1  0
  4  5  2  0
  5  6  1  0
  6  7  1  0
  6 22  2  0
  7  8  2  0
  7 21  1  0
  8  9  1  0
  8 19  1  0
  9 10  2  0
  9 18  1  0
 10 11  1  0
 11 12  2  0
 12 13  1  0
 12 17  1  0
 13 14  2  0
 14 15  1  0
 15 16  2  0
 16 17  1  0
 17 18  2  0
 19 20  1  0
 20 21  1  0
M  END
