
     RDKit          3D

 27 29  0  0  0  0  0  0  0  0999 V2000
   -5.3050   -4.5700    1.0300 C   0  0  0  0  0  0  0  0  0  0  0  0
   -4.5720   -3.2840    0.6540 C   0  0  0  0  0  0  0  0  0  0  0  0
   -4.6830   -2.3730    1.8350 C   0  0  0  0  0  0  0  0  0  0  0  0
   -4.0010   -1.0790    1.5830 C   0  0  0  0  0  0  0  0  0  0  0  0
   -2.5400   -1.2820    1.3820 C   0  0  0  0  0  0  0  0  0  0  0  0
   -2.0930   -2.4200    1.5980 O   0  0  0  0  0  0  0  0  0  0  0  0
   -1.7610   -0.1760    0.9600 N   0  0  0  0  0  0  0  0  0  0  0  0
   -0.3820   -0.2610    0.7500 C   0  0  0  0  0  0  0  0  0  0  0  0
    0.3870   -1.3050    1.1510 C   0  0  0  0  0  0  0  0  0  0  0  0
    1.7860   -1.2990    0.9630 C   0  0  0  0  0  0  0  0  0  0  0  0
    2.4070   -0.2410    0.3740 C   0  0  0  0  0  0  0  0  0  0  0  0
    3.7920   -0.2310    0.1880 N   0  0  0  0  0  0  0  0  0  0  0  0
    4.7000   -1.2680    0.5650 C   0  0  2  0  0  0  0  0  0  0  0  0
    6.1040   -0.8600    0.1950 C   0  0  0  0  0  0  0  0  0  0  0  0
    6.3650   -1.6900   -1.0420 C   0  0  0  0  0  0  0  0  0  0  0  0
    5.7840   -2.9510   -0.6840 N   0  0  0  0  0  0  0  0  0  0  0  0
    4.4930   -2.5710   -0.1260 C   0  0  0  0  0  0  0  0  0  0  0  0
    1.6110    0.8120   -0.0280 C   0  0  0  0  0  0  0  0  0  0  0  0
    0.2520    0.8390    0.1370 C   0  0  0  0  0  0  0  0  0  0  0  0
   -0.5650    1.8830   -0.3280 N   0  0  0  0  0  0  0  0  0  0  0  0
   -0.0650    3.1450   -0.7840 C   0  0  0  0  0  0  0  0  0  0  0  0
    1.1520    3.4200   -0.7960 O   0  0  0  0  0  0  0  0  0  0  0  0
   -0.9800    4.1900   -1.2670 C   0  0  0  0  0  0  0  0  0  0  0  0
   -0.6470    5.3680   -1.7030 C   0  0  0  0  0  0  0  0  0  0  0  0
   -1.8060    6.1790   -2.1120 C   0  0  0  0  0  0  0  0  0  0  0  0
   -3.0000    5.3150   -1.8700 C   0  0  0  0  0  0  0  0  0  0  0  0
   -2.4450    4.0420   -1.3240 C   0  0  0  0  0  0  0  0  0  0  0  0
  1  2  1  0
  2  3  1  0
  3  4  1  0
  4  5  1  0
  5  6  2  0
  5  7  1  0
  7  8  1  0
  8  9  2  0
  8 19  1  0
  9 10  1  0
 10 11  2  0
 11 12  1  0
 11 18  1  0
 13 12  1  6
 13 14  1  0
 13 17  1  0
 14 15  1  0
 15 16  1  0
 16 17  1  0
 18 19  2  0
 19 20  1  0
 20 21  1  0
 21 22  2  0
 21 23  1  0
 23 24  2  0
 23 27  1  0
 24 25  1  0
 25 26  1  0
 26 27  1  0
M  CHG  1  16   1
M  END
