
     RDKit          3D

 21 22  0  0  0  0  0  0  0  0999 V2000
   -3.4390   -0.7090   -2.5230 C   0  0  0  0  0  0  0  0  0  0  0  0
   -2.4060   -0.1730   -1.5920 C   0  0  0  0  0  0  0  0  0  0  0  0
   -2.1500   -0.8360   -0.4830 C   0  0  0  0  0  0  0  0  0  0  0  0
   -2.8950   -2.0990   -0.1910 C   0  0  0  0  0  0  0  0  0  0  0  0
   -2.4120   -2.7350    1.0520 C   0  0  0  0  0  0  0  0  0  0  0  0
   -1.4650   -2.2390    1.8240 C   0  0  0  0  0  0  0  0  0  0  0  0
   -0.7930   -0.9890    1.5080 C   0  0  0  0  0  0  0  0  0  0  0  0
   -1.1270   -0.3190    0.4060 C   0  0  0  0  0  0  0  0  0  0  0  0
   -0.4900    0.8950    0.0870 N   0  0  0  0  0  0  0  0  0  0  0  0
   -1.1920    2.1710    0.1020 C   0  0  0  0  0  0  0  0  0  0  0  0
   -1.0470    2.7440    1.5210 C   0  0  1  0  0  0  0  0  0  0  0  0
   -1.7350    4.1070    1.7340 C   0  0  0  0  0  0  0  0  0  0  0  0
   -2.2880    2.8560    2.3390 C   0  0  0  0  0  0  0  0  0  0  0  0
    0.8910    0.9250   -0.2410 C   0  0  0  0  0  0  0  0  0  0  0  0
    1.4350    2.0590   -0.5000 O   0  0  0  0  0  0  0  0  0  0  0  0
    1.7720   -0.2090   -0.3170 C   0  0  0  0  0  0  0  0  0  0  0  0
    1.3300   -1.3650   -0.0990 O   0  0  0  0  0  0  0  0  0  0  0  0
    3.1620   -0.0780   -0.6380 N   0  0  0  0  0  0  0  0  0  0  0  0
    3.9760   -1.2660   -0.6940 C   0  0  1  0  0  0  0  0  0  0  0  0
    4.6150   -1.3610   -2.0660 C   0  0  0  0  0  0  0  0  0  0  0  0
    5.0520   -1.1820    0.3940 C   0  0  0  0  0  0  0  0  0  0  0  0
  1  2  1  0
  2  3  2  3
  3  4  1  0
  3  8  1  0
  4  5  1  0
  5  6  2  0
  6  7  1  0
  7  8  2  0
  8  9  1  0
  9 10  1  0
  9 14  1  0
 11 10  1  6
 11 12  1  0
 11 13  1  0
 12 13  1  0
 14 15  2  0
 14 16  1  0
 16 17  2  0
 16 18  1  0
 18 19  1  0
 19 20  1  6
 19 21  1  0
M  END
