
     RDKit          3D

 27 29  0  0  0  0  0  0  0  0999 V2000
   -4.4710    2.1600   -2.5880 C   0  0  0  0  0  0  0  0  0  0  0  0
   -3.2980    3.0790   -2.4210 C   0  0  0  0  0  0  0  0  0  0  0  0
   -2.3810    2.6220   -1.3780 N   0  0  0  0  0  0  0  0  0  0  0  0
   -1.7460    1.3360   -1.5050 C   0  0  0  0  0  0  0  0  0  0  0  0
   -2.0800    0.7160   -2.5750 O   0  0  0  0  0  0  0  0  0  0  0  0
   -0.8260    0.7860   -0.5390 C   0  0  0  0  0  0  0  0  0  0  0  0
   -0.5250    1.5060    0.5510 C   0  0  0  0  0  0  0  0  0  0  0  0
    0.3950    1.0420    1.5800 C   0  0  0  0  0  0  0  0  0  0  0  0
    1.6810    0.5410    1.4180 C   0  0  0  0  0  0  0  0  0  0  0  0
    2.4530    0.4550    0.1970 C   0  0  0  0  0  0  0  0  0  0  0  0
    3.6450   -0.0990    0.1380 C   0  0  0  0  0  0  0  0  0  0  0  0
    4.3590   -0.1350   -1.1700 C   0  0  0  0  0  0  0  0  0  0  0  0
    4.6740   -1.4670   -1.6110 N   0  0  0  0  0  0  0  0  0  0  0  0
    4.3400   -1.5740   -3.0260 C   0  0  0  0  0  0  0  0  0  0  0  0
    2.1570    0.1750    2.6460 N   0  0  0  0  0  0  0  0  0  0  0  0
    1.2030    0.4390    3.5520 C   0  0  0  0  0  0  0  0  0  0  0  0
    1.1820    0.2590    4.9200 C   0  0  0  0  0  0  0  0  0  0  0  0
    0.0550    0.6190    5.6460 C   0  0  0  0  0  0  0  0  0  0  0  0
   -1.0460    1.1560    5.0140 C   0  0  0  0  0  0  0  0  0  0  0  0
   -1.0490    1.3460    3.6480 C   0  0  0  0  0  0  0  0  0  0  0  0
    0.0980    0.9750    2.9360 C   0  0  0  0  0  0  0  0  0  0  0  0
   -0.2540   -0.4150   -0.6720 O   0  0  0  0  0  0  0  0  0  0  0  0
   -0.6180   -1.7190   -0.7430 C   0  0  2  0  0  0  0  0  0  0  0  0
   -1.4870   -2.2190   -1.8290 C   0  0  0  0  0  0  0  0  0  0  0  0
   -2.9100   -2.2120   -1.2590 C   0  0  0  0  0  0  0  0  0  0  0  0
   -2.6230   -2.7680    0.0630 N   0  0  0  0  0  0  0  0  0  0  0  0
   -1.4920   -2.0150    0.4960 C   0  0  0  0  0  0  0  0  0  0  0  0
  1  2  1  0
  2  3  1  0
  3  4  1  0
  4  5  2  0
  4  6  1  0
  6  7  2  3
  6 22  1  0
  7  8  1  0
  8  9  2  0
  8 21  1  0
  9 10  1  0
  9 15  1  0
 10 11  2  3
 11 12  1  0
 12 13  1  0
 13 14  1  0
 15 16  1  0
 16 17  2  0
 16 21  1  0
 17 18  1  0
 18 19  2  0
 19 20  1  0
 20 21  2  0
 23 22  1  6
 23 24  1  0
 23 27  1  0
 24 25  1  0
 25 26  1  0
 26 27  1  0
M  CHG  1  13   1
M  END
