
     RDKit          3D

 27 29  0  0  0  0  0  0  0  0999 V2000
   -7.7130   -2.3160   -0.6970 C   0  0  0  0  0  0  0  0  0  0  0  0
   -7.2240   -1.2380    0.1340 N   0  0  0  0  0  0  0  0  0  0  0  0
   -6.4250   -0.3490   -0.7120 C   0  0  2  0  0  0  0  0  0  0  0  0
   -5.2280   -1.0430   -1.2790 C   0  0  0  0  0  0  0  0  0  0  0  0
   -4.1580   -0.0110   -1.6510 C   0  0  0  0  0  0  0  0  0  0  0  0
   -3.7020    0.5640   -0.4410 N   0  0  0  0  0  0  0  0  0  0  0  0
   -2.3160    0.6260   -0.2020 C   0  0  0  0  0  0  0  0  0  0  0  0
   -2.0230    1.2400    1.1220 C   0  0  1  0  0  0  0  0  0  0  0  0
   -2.6000    0.4600    2.1210 O   0  0  0  0  0  0  0  0  0  0  0  0
   -0.5520    1.2600    1.4210 C   0  0  0  0  0  0  0  0  0  0  0  0
    0.3760    0.7660    0.5570 C   0  0  0  0  0  0  0  0  0  0  0  0
    1.7570    0.7510    0.7840 C   0  0  0  0  0  0  0  0  0  0  0  0
    2.6040    0.2130   -0.2090 N   0  0  0  0  0  0  0  0  0  0  0  0
    3.9500   -0.1620   -0.0760 C   0  0  0  0  0  0  0  0  0  0  0  0
    4.5070   -0.0270    1.0280 O   0  0  0  0  0  0  0  0  0  0  0  0
    4.7690   -0.7190   -1.1830 C   0  0  0  0  0  0  0  0  0  0  0  0
    6.1410   -1.0870   -0.7790 C   0  0  1  0  0  0  0  0  0  0  0  0
    6.9170   -1.6490   -1.9680 C   0  0  0  0  0  0  0  0  0  0  0  0
    8.3300   -1.5460   -1.4160 C   0  0  0  0  0  0  0  0  0  0  0  0
    8.3300   -0.2980   -0.7190 N   0  0  0  0  0  0  0  0  0  0  0  0
    7.0040   -0.0400   -0.2010 C   0  0  0  0  0  0  0  0  0  0  0  0
    2.1660    1.2830    1.9760 C   0  0  0  0  0  0  0  0  0  0  0  0
    1.2400    1.8010    2.8900 C   0  0  0  0  0  0  0  0  0  0  0  0
   -0.1220    1.7910    2.6150 C   0  0  0  0  0  0  0  0  0  0  0  0
   -1.0250    2.3560    3.6330 C   0  0  0  0  0  0  0  0  0  0  0  0
   -4.6180    0.7210    0.6150 C   0  0  0  0  0  0  0  0  0  0  0  0
   -6.0170    0.8860    0.0280 C   0  0  0  0  0  0  0  0  0  0  0  0
  1  2  1  0
  3  2  1  1
  3  4  1  0
  3 27  1  0
  4  5  1  0
  5  6  1  0
  6  7  1  0
  6 26  1  0
  7  8  1  0
  8  9  1  1
  8 10  1  0
 10 11  2  0
 10 24  1  0
 11 12  1  0
 12 13  1  0
 12 22  2  0
 13 14  1  0
 14 15  2  0
 14 16  1  0
 17 16  1  6
 17 18  1  0
 17 21  1  0
 18 19  1  0
 19 20  1  0
 20 21  1  0
 22 23  1  0
 23 24  2  0
 24 25  1  0
 26 27  1  0
M  CHG  1  20   1
M  END
