
     RDKit          3D

 21 21  0  0  0  0  0  0  0  0999 V2000
    5.5350    0.8800    1.7210 C   0  0  0  0  0  0  0  0  0  0  0  0
    4.8380    1.7810    0.7550 C   0  0  0  0  0  0  0  0  0  0  0  0
    3.9100    1.3000   -0.0700 C   0  0  0  0  0  0  0  0  0  0  0  0
    3.5960   -0.1180   -0.0030 C   0  0  0  0  0  0  0  0  0  0  0  0
    2.7160   -0.7410   -0.7400 C   0  0  0  0  0  0  0  0  0  0  0  0
    2.5110   -2.2020   -0.5500 C   0  0  0  0  0  0  0  0  0  0  0  0
    3.3430   -2.6700    0.4380 O   0  0  0  0  0  0  0  0  0  0  0  0
    1.9180   -0.0560   -1.7500 C   0  0  0  0  0  0  0  0  0  0  0  0
    0.5130   -0.1030   -1.6120 N   0  0  0  0  0  0  0  0  0  0  0  0
   -0.2490    0.0980   -0.6250 C   0  0  0  0  0  0  0  0  0  0  0  0
    0.4170    0.4600    0.6750 C   0  0  0  0  0  0  0  0  0  0  0  0
   -1.6860   -0.0110   -0.7260 C   0  0  0  0  0  0  0  0  0  0  0  0
   -2.2730   -0.3250   -1.8500 C   0  0  0  0  0  0  0  0  0  0  0  0
   -1.5280   -0.5890   -3.0860 C   0  0  0  0  0  0  0  0  0  0  0  0
   -3.7720   -0.4350   -1.9400 C   0  0  0  0  0  0  0  0  0  0  0  0
   -2.5430    0.2220    0.4120 N   0  0  0  0  0  0  0  0  0  0  0  0
   -2.7930   -0.7800    1.4260 C   0  0  0  0  0  0  0  0  0  0  0  0
   -4.1580   -0.4690    2.0150 C   0  0  0  0  0  0  0  0  0  0  0  0
   -4.1310    0.7470    2.6780 O   0  0  0  0  0  0  0  0  0  0  0  0
   -3.3210    1.7010    2.1140 C   0  0  0  0  0  0  0  0  0  0  0  0
   -3.2190    1.4860    0.6190 C   0  0  0  0  0  0  0  0  0  0  0  0
  1  2  1  0
  2  3  2  3
  3  4  1  0
  4  5  2  3
  5  6  1  0
  5  8  1  0
  6  7  1  0
  8  9  1  0
  9 10  2  3
 10 11  1  0
 10 12  1  0
 12 13  2  3
 12 16  1  0
 13 14  1  0
 13 15  1  0
 16 17  1  0
 16 21  1  0
 17 18  1  0
 18 19  1  0
 19 20  1  0
 20 21  1  0
M  END
