
     RDKit          3D

 27 29  0  0  0  0  0  0  0  0999 V2000
    8.9390   -1.1080   -0.8360 C   0  0  0  0  0  0  0  0  0  0  0  0
    7.7380   -1.2330   -1.7450 C   0  0  0  0  0  0  0  0  0  0  0  0
    6.5060   -0.9150   -0.9350 C   0  0  0  0  0  0  0  0  0  0  0  0
    6.6170   -0.6170    0.2830 O   0  0  0  0  0  0  0  0  0  0  0  0
    5.2640   -0.9720   -1.6140 N   0  0  0  0  0  0  0  0  0  0  0  0
    4.0420   -0.6740   -0.8980 C   0  0  0  0  0  0  0  0  0  0  0  0
    4.0930    0.7090   -0.3880 C   0  0  0  0  0  0  0  0  0  0  0  0
    2.8990    1.1430    0.3660 C   0  0  0  0  0  0  0  0  0  0  0  0
    1.7940    0.3500    0.5970 C   0  0  0  0  0  0  0  0  0  0  0  0
    0.7280    0.8460    1.3120 C   0  0  0  0  0  0  0  0  0  0  0  0
   -0.4180   -0.0010    1.5420 C   0  0  0  0  0  0  0  0  0  0  0  0
   -0.4350   -1.1850    1.0840 O   0  0  0  0  0  0  0  0  0  0  0  0
   -1.5720    0.3980    2.2660 N   0  0  0  0  0  0  0  0  0  0  0  0
   -2.7230   -0.4510    2.4960 C   0  0  0  0  0  0  0  0  0  0  0  0
   -3.5960   -0.5880    1.3120 C   0  0  0  0  0  0  0  0  0  0  0  0
   -3.5460   -1.6710    0.4610 C   0  0  0  0  0  0  0  0  0  0  0  0
   -4.3840   -1.7730   -0.6570 C   0  0  0  0  0  0  0  0  0  0  0  0
   -5.2830   -0.7910   -0.9350 C   0  0  0  0  0  0  0  0  0  0  0  0
   -5.3370    0.3020   -0.0810 C   0  0  0  0  0  0  0  0  0  0  0  0
   -4.5150    0.4100    1.0220 C   0  0  0  0  0  0  0  0  0  0  0  0
   -6.3440    1.3430   -0.4410 C   0  0  0  0  0  0  0  0  0  0  0  0
   -7.5670    0.6340   -0.7660 N   0  0  0  0  0  0  0  0  0  0  0  0
   -7.4090   -0.0660   -2.0160 C   0  0  0  0  0  0  0  0  0  0  0  0
   -6.1750   -0.8950   -2.1230 C   0  0  0  0  0  0  0  0  0  0  0  0
    0.8280    2.1410    1.7680 C   0  0  0  0  0  0  0  0  0  0  0  0
    1.9250    2.9500    1.5470 C   0  0  0  0  0  0  0  0  0  0  0  0
    2.9400    2.4210    0.8440 N   0  0  0  0  0  0  0  0  0  0  0  0
  1  2  1  0
  2  3  1  0
  3  4  2  0
  3  5  1  0
  5  6  1  0
  6  7  1  0
  7  8  1  0
  8  9  2  0
  8 27  1  0
  9 10  1  0
 10 11  1  0
 10 25  2  0
 11 12  2  0
 11 13  1  0
 13 14  1  0
 14 15  1  0
 15 16  2  0
 15 20  1  0
 16 17  1  0
 17 18  2  0
 18 19  1  0
 18 24  1  0
 19 20  2  0
 19 21  1  0
 21 22  1  0
 22 23  1  0
 23 24  1  0
 25 26  1  0
 26 27  2  0
M  CHG  1  27   1
M  END
