
     RDKit          3D

 21 24  0  0  0  0  0  0  0  0999 V2000
    0.2880    0.8620    2.9250 O   0  0  0  0  0  0  0  0  0  0  0  0
    0.8090    0.7650    1.8270 C   0  0  0  0  0  0  0  0  0  0  0  0
    1.4900    2.0840    1.5490 C   0  0  0  0  0  0  0  0  0  0  0  0
    2.5970    1.9030    0.5300 C   0  0  0  0  0  0  0  0  0  0  0  0
    2.0700    1.6620   -0.8890 C   0  0  0  0  0  0  0  0  0  0  0  0
    2.0260    0.2500   -1.2810 C   0  0  0  0  0  0  0  0  0  0  0  0
    0.8170   -0.5660   -1.2610 C   0  0  1  0  0  0  0  0  0  0  0  0
    1.3590   -2.0160   -1.2990 C   0  0  0  0  0  0  0  0  0  0  0  0
    1.9210   -2.5600   -0.0670 C   0  0  0  0  0  0  0  0  0  0  0  0
    1.0800   -2.8750    1.1060 C   0  0  0  0  0  0  0  0  0  0  0  0
    0.5560   -1.7320    1.9420 C   0  0  0  0  0  0  0  0  0  0  0  0
    0.6850   -0.4750    1.0830 C   0  0  1  0  0  0  0  0  0  0  0  0
   -0.1530   -0.5430   -0.1340 C   0  0  2  0  0  0  0  0  0  0  0  0
   -0.6970   -1.8700   -0.1100 O   0  0  0  0  0  0  0  0  0  0  0  0
   -1.3870    0.2070   -0.2620 C   0  0  1  0  0  0  0  0  0  0  0  0
   -2.3410   -0.1280    0.8890 C   0  0  0  0  0  0  0  0  0  0  0  0
   -3.5690    0.7150    0.6790 C   0  0  0  0  0  0  0  0  0  0  0  0
   -3.0090    1.9560    0.0840 C   0  0  0  0  0  0  0  0  0  0  0  0
   -1.6330    1.6060   -0.4460 C   0  0  2  0  0  0  0  0  0  0  0  0
   -1.7540    1.3770   -1.9460 C   0  0  0  0  0  0  0  0  0  0  0  0
   -2.1000   -0.0410   -1.5610 C   0  0  0  0  0  0  0  0  0  0  0  0
  1  2  2  0
  2  3  1  0
  2 12  1  0
  3  4  1  0
  4  5  1  0
  5  6  1  0
  7  6  1  1
  7  8  1  0
  7 13  1  0
  8  9  1  0
  9 10  1  0
 10 11  1  0
 12 11  1  1
 12 13  1  0
 13 14  1  1
 13 15  1  0
 15 16  1  1
 15 19  1  0
 15 21  1  0
 16 17  1  0
 17 18  1  0
 19 18  1  1
 19 20  1  0
 20 21  1  0
M  END
