
     RDKit          3D

 21 24  0  0  0  0  0  0  0  0999 V2000
   -4.5930    0.9020   -0.5160 C   0  0  0  0  0  0  0  0  0  0  0  0
   -3.3350    0.7380    0.3100 C   0  0  1  0  0  0  0  0  0  0  0  0
   -3.1660    1.9820    1.1340 C   0  0  0  0  0  0  0  0  0  0  0  0
   -3.5470   -0.4310    1.2340 C   0  0  0  0  0  0  0  0  0  0  0  0
   -2.2360   -0.9070    1.7890 C   0  0  0  0  0  0  0  0  0  0  0  0
   -1.1590   -0.1340    1.4530 O   0  0  0  0  0  0  0  0  0  0  0  0
   -0.9320    0.0440    0.1190 C   0  0  1  0  0  0  0  0  0  0  0  0
    0.0420    1.2260   -0.0160 C   0  0  0  0  0  0  0  0  0  0  0  0
    1.1340    0.7350   -0.9810 C   0  0  1  0  0  0  0  0  0  0  0  0
    2.3900    1.4870   -0.8640 C   0  0  0  0  0  0  0  0  0  0  0  0
    3.3070    1.0870    0.2350 C   0  0  2  0  0  0  0  0  0  0  0  0
    4.6520    0.5690   -0.2970 C   0  0  0  0  0  0  0  0  0  0  0  0
    5.3000    1.5470   -1.0450 O   0  0  0  0  0  0  0  0  0  0  0  0
    2.7770    0.1470    1.2390 C   0  0  0  0  0  0  0  0  0  0  0  0
    1.8260   -0.8910    0.7580 C   0  0  0  0  0  0  0  0  0  0  0  0
    1.2270   -0.6650   -0.5710 C   0  0  2  0  0  0  0  0  0  0  0  0
    1.6780   -1.6680   -1.5800 C   0  0  0  0  0  0  0  0  0  0  0  0
    0.9030   -2.9160   -1.1200 C   0  0  0  0  0  0  0  0  0  0  0  0
   -0.2450   -2.3900   -0.2410 C   0  0  0  0  0  0  0  0  0  0  0  0
   -0.2800   -0.9980   -0.6260 C   0  0  1  0  0  0  0  0  0  0  0  0
   -2.2000    0.4840   -0.6270 C   0  0  0  0  0  0  0  0  0  0  0  0
  2  1  1  6
  2  3  1  0
  2  4  1  0
  2 21  1  0
  4  5  1  0
  5  6  1  0
  6  7  1  0
  7  8  1  1
  7 20  1  0
  7 21  1  0
  9  8  1  1
  9 10  1  0
  9 16  1  0
 10 11  1  0
 11 12  1  6
 11 14  1  0
 12 13  1  0
 14 15  1  0
 16 15  1  1
 16 17  1  0
 16 20  1  0
 17 18  1  0
 18 19  1  0
 20 19  1  1
M  END
