
     RDKit          3D

 21 24  0  0  0  0  0  0  0  0999 V2000
    4.3970    0.5660    0.0480 C   0  0  0  0  0  0  0  0  0  0  0  0
    3.7120   -0.7340    0.0690 C   0  0  0  0  0  0  0  0  0  0  0  0
    2.4100   -0.9130   -0.6250 C   0  0  0  0  0  0  0  0  0  0  0  0
    1.2730   -0.1020   -0.1520 C   0  0  1  0  0  0  0  0  0  0  0  0
    1.5380    1.3340   -0.3570 C   0  0  0  0  0  0  0  0  0  0  0  0
    2.0910    1.6220   -1.4250 O   0  0  0  0  0  0  0  0  0  0  0  0
    1.3360    2.6450    0.3560 C   0  0  0  0  0  0  0  0  0  0  0  0
    0.3090    2.3910    1.4090 C   0  0  0  0  0  0  0  0  0  0  0  0
   -1.0360    2.4510    0.7910 C   0  0  0  0  0  0  0  0  0  0  0  0
   -1.2360    1.6650   -0.4690 C   0  0  0  0  0  0  0  0  0  0  0  0
   -1.2510    0.1780   -0.3200 C   0  0  2  0  0  0  0  0  0  0  0  0
   -2.3700   -0.3070   -1.2770 C   0  0  0  0  0  0  0  0  0  0  0  0
   -3.6370   -0.2970   -0.5010 C   0  0  0  0  0  0  0  0  0  0  0  0
   -3.3180   -0.1380    0.9390 C   0  0  0  0  0  0  0  0  0  0  0  0
   -1.8000   -0.2830    0.9860 C   0  0  1  0  0  0  0  0  0  0  0  0
   -1.5190   -1.7120    1.2950 C   0  0  0  0  0  0  0  0  0  0  0  0
   -1.2170   -2.5470    0.0960 C   0  0  2  0  0  0  0  0  0  0  0  0
    0.1690   -3.0470    0.0400 C   0  0  0  0  0  0  0  0  0  0  0  0
   -0.2430   -1.9950   -0.8790 C   0  0  2  0  0  0  0  0  0  0  0  0
   -0.0220   -0.5430   -0.8090 C   0  0  2  0  0  0  0  0  0  0  0  0
    0.1360    0.0040   -2.1230 O   0  0  0  0  0  0  0  0  0  0  0  0
  1  2  1  0
  2  3  1  0
  4  3  1  6
  4  5  1  0
  4 20  1  0
  5  6  2  0
  5  7  1  0
  7  8  1  0
  8  9  1  0
  9 10  1  0
 11 10  1  1
 11 12  1  0
 11 15  1  0
 11 20  1  0
 12 13  1  0
 13 14  1  0
 15 14  1  6
 15 16  1  0
 17 16  1  1
 17 18  1  0
 17 19  1  0
 19 18  1  1
 19 20  1  0
 20 21  1  6
M  END
