
     RDKit          3D

 21 24  0  0  0  0  0  0  0  0999 V2000
   -2.4920    0.6370   -1.2010 C   0  0  0  0  0  0  0  0  0  0  0  0
   -2.2600    0.6870    0.2960 C   0  0  2  0  0  0  0  0  0  0  0  0
   -1.3530    1.7630    0.7170 C   0  0  0  0  0  0  0  0  0  0  0  0
   -0.0050    1.4150    1.1840 C   0  0  0  0  0  0  0  0  0  0  0  0
    0.5860    0.1330    0.7680 C   0  0  1  0  0  0  0  0  0  0  0  0
   -0.3780   -0.7440   -0.0440 C   0  0  1  0  0  0  0  0  0  0  0  0
    0.2280   -2.1010   -0.2060 C   0  0  0  0  0  0  0  0  0  0  0  0
    1.3730   -1.9230   -1.1860 C   0  0  0  0  0  0  0  0  0  0  0  0
    2.3600   -1.0260   -0.4860 C   0  0  0  0  0  0  0  0  0  0  0  0
    3.5860   -1.5080   -0.3840 C   0  0  0  0  0  0  0  0  0  0  0  0
    4.6060   -0.7090    0.2780 C   0  0  0  0  0  0  0  0  0  0  0  0
    5.6480   -1.2690    0.6940 O   0  0  0  0  0  0  0  0  0  0  0  0
    4.3320    0.7440    0.4160 C   0  0  0  0  0  0  0  0  0  0  0  0
    2.9310    0.8410    0.9930 C   0  0  0  0  0  0  0  0  0  0  0  0
    1.9190    0.2800    0.0190 C   0  0  2  0  0  0  0  0  0  0  0  0
    1.7530    1.3060   -1.0790 C   0  0  0  0  0  0  0  0  0  0  0  0
   -1.6460   -0.6680    0.6890 C   0  0  2  0  0  0  0  0  0  0  0  0
   -2.7150   -1.6090    0.3570 C   0  0  0  0  0  0  0  0  0  0  0  0
   -4.0130   -0.8150    0.5560 C   0  0  0  0  0  0  0  0  0  0  0  0
   -3.5460    0.5670    1.0370 C   0  0  2  0  0  0  0  0  0  0  0  0
   -4.4580    1.5410    0.8280 O   0  0  0  0  0  0  0  0  0  0  0  0
  2  1  1  6
  2  3  1  0
  2 17  1  0
  2 20  1  0
  3  4  1  0
  5  4  1  6
  5  6  1  0
  5 15  1  0
  6  7  1  1
  6 17  1  0
  7  8  1  0
  8  9  1  0
  9 10  2  0
  9 15  1  0
 10 11  1  0
 11 12  2  0
 11 13  1  0
 13 14  1  0
 14 15  1  0
 15 16  1  6
 17 18  1  6
 18 19  1  0
 19 20  1  0
 20 21  1  6
M  END
