
     RDKit          3D

 21 24  0  0  0  0  0  0  0  0999 V2000
   -2.2310    3.7540   -0.6280 C   0  0  0  0  0  0  0  0  0  0  0  0
   -1.6620    2.6110    0.1860 C   0  0  0  0  0  0  0  0  0  0  0  0
   -1.3610    1.4110   -0.6820 C   0  0  1  0  0  0  0  0  0  0  0  0
   -0.3670    1.7570   -1.7390 C   0  0  0  0  0  0  0  0  0  0  0  0
    0.8730    2.2410   -1.0590 C   0  0  0  0  0  0  0  0  0  0  0  0
    1.3170    1.4380    0.0770 C   0  0  2  0  0  0  0  0  0  0  0  0
    2.3510    0.4250   -0.3780 C   0  0  1  0  0  0  0  0  0  0  0  0
    3.5850    0.6020    0.2130 O   0  0  0  0  0  0  0  0  0  0  0  0
    4.3870   -0.5250    0.1320 C   0  0  0  0  0  0  0  0  0  0  0  0
    3.6760   -1.6510    0.8430 C   0  0  0  0  0  0  0  0  0  0  0  0
    2.3480   -1.1740    1.4410 C   0  0  0  0  0  0  0  0  0  0  0  0
    1.5080   -0.6240    0.2780 C   0  0  1  0  0  0  0  0  0  0  0  0
    0.4790    0.3730    0.6380 C   0  0  1  0  0  0  0  0  0  0  0  0
    0.4450    0.4840    2.0540 O   0  0  0  0  0  0  0  0  0  0  0  0
   -0.9160    0.2040    0.1480 C   0  0  1  0  0  0  0  0  0  0  0  0
   -1.9300    0.1230    1.2640 C   0  0  0  0  0  0  0  0  0  0  0  0
   -2.2020   -1.2520    1.7740 C   0  0  0  0  0  0  0  0  0  0  0  0
   -2.5710   -2.2160    0.6360 C   0  0  0  0  0  0  0  0  0  0  0  0
   -1.2390   -2.2890   -0.1300 C   0  0  1  0  0  0  0  0  0  0  0  0
   -1.2460   -3.3770   -1.1490 C   0  0  0  0  0  0  0  0  0  0  0  0
   -1.0790   -0.9850   -0.8120 C   0  0  0  0  0  0  0  0  0  0  0  0
  1  2  1  0
  3  2  1  1
  3  4  1  0
  3 15  1  0
  4  5  1  0
  6  5  1  6
  6  7  1  0
  6 13  1  0
  7  8  1  1
  7 12  1  0
  8  9  1  0
  9 10  1  0
 10 11  1  0
 12 11  1  1
 12 13  1  0
 13 14  1  1
 13 15  1  0
 15 16  1  1
 15 21  1  0
 16 17  1  0
 17 18  1  0
 18 19  1  0
 19 20  1  6
 19 21  1  0
M  END
