
     RDKit          3D

 26 28  0  0  0  0  0  0  0  0999 V2000
    6.6970   -1.3530    1.2420 C   0  0  0  0  0  0  0  0  0  0  0  0
    5.3440   -1.5910    0.7320 N   0  0  0  0  0  0  0  0  0  0  0  0
    4.4530   -0.5360    0.4160 C   0  0  0  0  0  0  0  0  0  0  0  0
    4.8460    0.6420    0.5830 O   0  0  0  0  0  0  0  0  0  0  0  0
    3.0810   -0.7890   -0.1020 C   0  0  2  0  0  0  0  0  0  0  0  0
    3.2130   -1.5500   -1.3640 C   0  0  0  0  0  0  0  0  0  0  0  0
    3.0280   -0.8350   -2.6410 C   0  0  0  0  0  0  0  0  0  0  0  0
    2.8920    0.6530   -2.3940 C   0  0  0  0  0  0  0  0  0  0  0  0
    1.8290    0.7740   -1.4320 N   0  0  0  0  0  0  0  0  0  0  0  0
    1.0140    1.9180   -1.5770 C   0  0  0  0  0  0  0  0  0  0  0  0
   -0.0310    1.8920   -0.5060 C   0  0  0  0  0  0  0  0  0  0  0  0
    0.2470    2.5300    0.6410 N   0  0  0  0  0  0  0  0  0  0  0  0
   -0.6710    2.5220    1.6150 C   0  0  0  0  0  0  0  0  0  0  0  0
   -0.4090    3.1950    2.8590 N   0  0  0  0  0  0  0  0  0  0  0  0
   -1.8520    1.8990    1.4750 N   0  0  0  0  0  0  0  0  0  0  0  0
   -2.1230    1.2640    0.3270 C   0  0  0  0  0  0  0  0  0  0  0  0
   -3.4110    0.5730    0.1510 C   0  0  0  0  0  0  0  0  0  0  0  0
   -3.6370   -0.0780   -1.0840 N   0  0  0  0  0  0  0  0  0  0  0  0
   -4.3230    0.5560    1.0970 C   0  0  0  0  0  0  0  0  0  0  0  0
   -5.5780   -0.1390    0.8760 C   0  0  0  0  0  0  0  0  0  0  0  0
   -6.6010   -0.2530    1.7210 C   0  0  0  0  0  0  0  0  0  0  0  0
   -7.6080   -1.0070    1.0980 N   0  0  0  0  0  0  0  0  0  0  0  0
   -7.1160   -1.3410   -0.1920 C   0  0  0  0  0  0  0  0  0  0  0  0
   -5.9520   -0.8280   -0.2850 N   0  0  0  0  0  0  0  0  0  0  0  0
   -1.1950    1.2780   -0.6420 N   0  0  0  0  0  0  0  0  0  0  0  0
    2.3450    0.4970   -0.1420 C   0  0  0  0  0  0  0  0  0  0  0  0
  1  2  1  0
  2  3  1  0
  3  4  2  0
  5  3  1  6
  5  6  1  0
  5 26  1  0
  6  7  1  0
  7  8  1  0
  8  9  1  0
  9 10  1  0
  9 26  1  0
 10 11  1  0
 11 12  2  0
 11 25  1  0
 12 13  1  0
 13 14  1  0
 13 15  2  0
 15 16  1  0
 16 17  1  0
 16 25  2  0
 17 18  1  0
 17 19  2  3
 19 20  1  0
 20 21  2  0
 20 24  1  0
 21 22  1  0
 22 23  1  0
 23 24  2  0
M  CHG  1  22   1
M  END
