
     RDKit          3D

 22 23  0  0  0  0  0  0  0  0999 V2000
    2.1020   -1.4990    1.5260 O   0  0  0  0  0  0  0  0  0  0  0  0
    1.7190   -1.0710    0.4100 C   0  0  0  0  0  0  0  0  0  0  0  0
    2.7130   -0.5690   -0.4700 N   0  0  0  0  0  0  0  0  0  0  0  0
    4.1150   -0.4870   -0.2300 C   0  0  0  0  0  0  0  0  0  0  0  0
    4.5350    0.3060    0.7950 O   0  0  0  0  0  0  0  0  0  0  0  0
    4.1210    0.0110    1.9770 O   0  0  0  0  0  0  0  0  0  0  0  0
    4.4270    0.9950    2.7950 O   0  0  0  0  0  0  0  0  0  0  0  0
    0.3010   -1.1090    0.0720 C   0  0  1  0  0  0  0  0  0  0  0  0
   -0.3740   -1.7330    1.1570 O   0  0  0  0  0  0  0  0  0  0  0  0
   -0.2100   -0.8830    2.1740 O   0  0  0  0  0  0  0  0  0  0  0  0
   -1.2770    0.0110    2.1150 C   0  0  0  0  0  0  0  0  0  0  0  0
   -1.6770    0.1570    0.6620 C   0  0  2  0  0  0  0  0  0  0  0  0
   -2.3950   -0.9760    0.1710 N   0  0  0  0  0  0  0  0  0  0  0  0
   -3.5940   -0.6190   -0.5610 C   0  0  0  0  0  0  0  0  0  0  0  0
   -3.2880    0.0290   -1.8630 C   0  0  0  0  0  0  0  0  0  0  0  0
   -1.9200    0.0050   -2.2690 N   0  0  0  0  0  0  0  0  0  0  0  0
   -0.7570    0.4080   -1.5620 C   0  0  0  0  0  0  0  0  0  0  0  0
    0.1040    1.0400   -2.2670 O   0  0  0  0  0  0  0  0  0  0  0  0
   -0.3640    0.2210   -0.1380 C   0  0  2  0  0  0  0  0  0  0  0  0
    0.3850    1.3650    0.3890 C   0  0  0  0  0  0  0  0  0  0  0  0
    1.4820    1.2880    0.9900 O   0  0  0  0  0  0  0  0  0  0  0  0
   -0.1560    2.6290    0.2130 O   0  0  0  0  0  0  0  0  0  0  0  0
  1  2  2  0
  2  3  1  0
  8  2  1  1
  3  4  1  0
  4  5  1  0
  5  6  1  0
  6  7  1  0
  8  9  1  0
  8 19  1  0
  9 10  1  0
 10 11  1  0
 12 11  1  1
 12 13  1  0
 12 19  1  0
 13 14  1  0
 14 15  1  0
 15 16  1  0
 16 17  1  0
 17 18  2  0
 17 19  1  0
 19 20  1  1
 20 21  2  0
 20 22  1  0
M  END
