
     RDKit          3D

 13 13  0  0  0  0  0  0  0  0999 V2000
    2.9440    1.3950    0.2910 C   0  0  0  0  0  0  0  0  0  0  0  0
    2.5810    0.2400   -1.1170 P   0  0  0  0  0  0  0  0  0  0  0  0
    3.9070   -0.7780   -1.4930 O   0  0  0  0  0  0  0  0  0  0  0  0
    4.0270   -1.7980   -0.6680 O   0  0  0  0  0  0  0  0  0  0  0  0
    1.1970   -0.7080   -0.7550 O   0  0  0  0  0  0  0  0  0  0  0  0
    0.2030    0.1040   -0.1910 C   0  0  0  0  0  0  0  0  0  0  0  0
   -0.9780   -0.8260    0.0930 C   0  0  1  0  0  0  0  0  0  0  0  0
   -2.0680   -0.0720    0.6840 N   0  0  0  0  0  0  0  0  0  0  0  0
   -3.0480    0.1860   -0.3140 C   0  0  0  0  0  0  0  0  0  0  0  0
   -4.1790    1.0430   -0.1760 N   0  0  0  0  0  0  0  0  0  0  0  0
   -2.7560   -0.4840   -1.3840 N   0  0  0  0  0  0  0  0  0  0  0  0
   -1.5720   -1.2390   -1.2020 C   0  0  0  0  0  0  0  0  0  0  0  0
   -1.0680   -2.1060   -1.9520 O   0  0  0  0  0  0  0  0  0  0  0  0
  1  2  1  0
  2  3  1  0
  2  5  1  0
  3  4  1  0
  5  6  1  0
  7  6  1  6
  7  8  1  0
  7 12  1  0
  8  9  1  0
  9 10  1  0
  9 11  2  0
 11 12  1  0
 12 13  2  0
M  END
