
     RDKit          3D

 13 13  0  0  0  0  0  0  0  0999 V2000
    3.0460    1.4810    0.0990 C   0  0  0  0  0  0  0  0  0  0  0  0
    1.8970    1.5270   -0.7280 O   0  0  0  0  0  0  0  0  0  0  0  0
    0.6380    1.2630   -0.2970 N   0  0  0  0  0  0  0  0  0  0  0  0
    0.2250    0.0530   -0.1900 C   0  0  0  0  0  0  0  0  0  0  0  0
    1.1260   -1.0530   -0.5380 C   0  0  0  0  0  0  0  0  0  0  0  0
    0.5440   -2.3440   -0.2650 N   0  0  0  0  0  0  0  0  0  0  0  0
   -0.8650   -2.5560   -0.1320 C   0  0  0  0  0  0  0  0  0  0  0  0
   -1.3520   -3.7080   -0.0060 O   0  0  0  0  0  0  0  0  0  0  0  0
   -1.7010   -1.4110   -0.1470 N   0  0  0  0  0  0  0  0  0  0  0  0
   -1.1680   -0.1480    0.2890 C   0  0  2  0  0  0  0  0  0  0  0  0
   -2.2560    1.1900   -0.4450 P   0  0  0  0  0  0  0  0  0  0  0  0
   -1.3700    2.6690   -0.5190 O   0  0  0  0  0  0  0  0  0  0  0  0
   -3.6780    1.3780    0.5330 O   0  0  0  0  0  0  0  0  0  0  0  0
  1  2  1  0
  2  3  1  0
  3  4  2  3
  4  5  1  0
  4 10  1  0
  5  6  1  0
  6  7  1  0
  7  8  2  0
  7  9  1  0
  9 10  1  0
 10 11  1  6
 11 12  1  0
 11 13  1  0
M  END
