
     RDKit          3D

 13 13  0  0  0  0  0  0  0  0999 V2000
    3.8150    1.1830    0.6300 N   0  0  0  0  0  0  0  0  0  0  0  0
    2.8950    1.9590    0.0170 O   0  0  0  0  0  0  0  0  0  0  0  0
    1.8190    0.8930   -0.8340 P   0  0  0  0  0  0  0  0  0  0  0  0
    0.6990    0.1110    0.4080 C   0  0  0  0  0  0  0  0  0  0  0  0
   -0.7370    0.5700    0.2540 C   0  0  1  0  0  0  0  0  0  0  0  0
   -1.3130    0.2500   -1.0810 C   0  0  0  0  0  0  0  0  0  0  0  0
   -2.8040   -0.0050   -0.9980 C   0  0  0  0  0  0  0  0  0  0  0  0
   -2.9420   -1.1920   -0.1650 N   0  0  0  0  0  0  0  0  0  0  0  0
   -2.3200   -1.1120    1.1120 C   0  0  0  0  0  0  0  0  0  0  0  0
   -2.5300   -2.0060    1.9750 O   0  0  0  0  0  0  0  0  0  0  0  0
   -1.4750   -0.0010    1.3500 N   0  0  0  0  0  0  0  0  0  0  0  0
    2.8280   -0.3290   -1.5870 O   0  0  0  0  0  0  0  0  0  0  0  0
    2.5350   -1.4830   -1.0630 O   0  0  0  0  0  0  0  0  0  0  0  0
  1  2  1  0
  2  3  1  0
  3  4  1  0
  3 12  1  0
  5  4  1  6
  5  6  1  0
  5 11  1  0
  6  7  1  0
  7  8  1  0
  8  9  1  0
  9 10  2  0
  9 11  1  0
 12 13  1  0
M  END
