
     RDKit          3D

 20 20  0  0  0  0  0  0  0  0999 V2000
    1.0760    5.1280    0.3210 C   0  0  0  0  0  0  0  0  0  0  0  0
    0.6040    3.7790   -0.1650 C   0  0  0  0  0  0  0  0  0  0  0  0
    1.0890    2.7470    0.8440 C   0  0  0  0  0  0  0  0  0  0  0  0
    0.6800    1.3670    0.4740 C   0  0  0  0  0  0  0  0  0  0  0  0
    1.6160    0.5280   -0.0930 C   0  0  0  0  0  0  0  0  0  0  0  0
    1.2260   -0.7450   -0.4410 C   0  0  0  0  0  0  0  0  0  0  0  0
    2.2360   -1.6640   -1.0590 C   0  0  0  0  0  0  0  0  0  0  0  0
    2.9290   -2.4230    0.0610 C   0  0  0  0  0  0  0  0  0  0  0  0
    3.8770   -3.2980   -0.4190 O   0  0  0  0  0  0  0  0  0  0  0  0
    4.8920   -2.6920   -1.1490 C   0  0  0  0  0  0  0  0  0  0  0  0
    5.6650   -1.6700   -0.3410 C   0  0  0  0  0  0  0  0  0  0  0  0
   -0.0710   -1.1670   -0.2270 C   0  0  0  0  0  0  0  0  0  0  0  0
   -1.0260   -0.3480    0.3380 C   0  0  0  0  0  0  0  0  0  0  0  0
   -2.4240   -0.8150    0.5630 C   0  0  0  0  0  0  0  0  0  0  0  0
   -3.3490   -0.2300   -0.4650 C   0  0  0  0  0  0  0  0  0  0  0  0
   -4.7530   -0.6990   -0.2410 C   0  0  2  0  0  0  0  0  0  0  0  0
   -5.2980   -0.3180    1.1000 C   0  0  0  0  0  0  0  0  0  0  0  0
   -4.8260   -2.1830   -0.4220 C   0  0  0  0  0  0  0  0  0  0  0  0
   -0.6070    0.9320    0.6810 C   0  0  0  0  0  0  0  0  0  0  0  0
   -1.5770    1.7770    1.2610 O   0  0  0  0  0  0  0  0  0  0  0  0
  1  2  1  0
  2  3  1  0
  3  4  1  0
  4  5  2  0
  4 19  1  0
  5  6  1  0
  6  7  1  0
  6 12  2  0
  7  8  1  0
  8  9  1  0
  9 10  1  0
 10 11  1  0
 12 13  1  0
 13 14  1  0
 13 19  2  0
 14 15  1  0
 15 16  1  0
 16 17  1  1
 16 18  1  0
 19 20  1  0
M  END
