
     RDKit          3D

 20 19  0  0  0  0  0  0  0  0999 V2000
    2.6250    1.6550    1.8570 C   0  0  0  0  0  0  0  0  0  0  0  0
    1.2110    1.6070    1.4540 C   0  0  0  0  0  0  0  0  0  0  0  0
    0.7690    0.7910    0.4790 C   0  0  0  0  0  0  0  0  0  0  0  0
    1.7810   -0.0400   -0.1530 C   0  0  0  0  0  0  0  0  0  0  0  0
    1.5740   -0.8260   -1.1030 O   0  0  0  0  0  0  0  0  0  0  0  0
    3.0930   -0.0280    0.2610 O   0  0  0  0  0  0  0  0  0  0  0  0
    4.2250   -0.6720   -0.0850 C   0  0  0  0  0  0  0  0  0  0  0  0
    4.3410   -2.0930    0.3050 C   0  0  2  0  0  0  0  0  0  0  0  0
    5.7180   -2.6110   -0.1670 C   0  0  0  0  0  0  0  0  0  0  0  0
    3.2680   -2.9800   -0.2140 C   0  0  0  0  0  0  0  0  0  0  0  0
   -0.6080    0.8720    0.1020 C   0  0  0  0  0  0  0  0  0  0  0  0
   -1.3040    0.2090   -0.7290 C   0  0  0  0  0  0  0  0  0  0  0  0
   -1.0640   -0.8910   -1.6280 C   0  0  0  0  0  0  0  0  0  0  0  0
   -2.3820   -1.7100   -1.8410 C   0  0  2  0  0  0  0  0  0  0  0  0
   -3.4650   -0.8780   -2.4200 C   0  0  0  0  0  0  0  0  0  0  0  0
   -2.8020   -2.3870   -0.5710 C   0  0  0  0  0  0  0  0  0  0  0  0
   -1.3360    2.0030    0.8850 C   0  0  0  0  0  0  0  0  0  0  0  0
   -2.7620    2.1360    0.5090 C   0  0  0  0  0  0  0  0  0  0  0  0
   -3.3070    3.3070    1.3730 C   0  0  0  0  0  0  0  0  0  0  0  0
   -4.7520    3.5420    1.0810 C   0  0  0  0  0  0  0  0  0  0  0  0
  1  2  1  0
  2  3  2  3
  3  4  1  0
  3 11  1  0
  4  5  2  0
  4  6  1  0
  6  7  1  0
  7  8  1  0
  8  9  1  6
  8 10  1  0
 11 12  2  3
 11 17  1  0
 12 13  1  0
 13 14  1  0
 14 15  1  1
 14 16  1  0
 17 18  1  0
 18 19  1  0
 19 20  1  0
M  END
