
     RDKit          3D

 20 20  0  0  0  0  0  0  0  0999 V2000
   -3.3660    3.8970    2.1920 C   0  0  0  0  0  0  0  0  0  0  0  0
   -2.9700    2.5240    1.9350 C   0  0  0  0  0  0  0  0  0  0  0  0
   -1.8870    2.2320    1.1330 C   0  0  0  0  0  0  0  0  0  0  0  0
   -1.2360    3.3890    0.6120 C   0  0  0  0  0  0  0  0  0  0  0  0
   -0.2470    3.5310   -0.1160 O   0  0  0  0  0  0  0  0  0  0  0  0
   -1.6230    0.8410    1.0160 C   0  0  0  0  0  0  0  0  0  0  0  0
   -0.7670    0.1270    0.3860 C   0  0  0  0  0  0  0  0  0  0  0  0
    0.2950    0.5360   -0.4930 C   0  0  0  0  0  0  0  0  0  0  0  0
    1.6520    0.3500    0.1950 C   0  0  2  0  0  0  0  0  0  0  0  0
    2.6800    0.8140   -0.7950 C   0  0  0  0  0  0  0  0  0  0  0  0
    3.5670   -0.2390   -1.3520 C   0  0  0  0  0  0  0  0  0  0  0  0
    4.7890   -0.3340   -0.4420 C   0  0  0  0  0  0  0  0  0  0  0  0
    4.2010   -0.4560    0.9700 C   0  0  0  0  0  0  0  0  0  0  0  0
    3.1680   -1.5260    0.9080 C   0  0  0  0  0  0  0  0  0  0  0  0
    1.7720   -1.0550    0.6160 C   0  0  0  0  0  0  0  0  0  0  0  0
   -0.8450   -1.3150    0.5540 O   0  0  0  0  0  0  0  0  0  0  0  0
   -2.0830   -1.9480    0.4310 C   0  0  0  0  0  0  0  0  0  0  0  0
   -2.6050   -1.6640   -0.9810 C   0  0  2  0  0  0  0  0  0  0  0  0
   -3.9650   -2.3360   -1.1700 C   0  0  0  0  0  0  0  0  0  0  0  0
   -1.6850   -2.2970   -2.0070 C   0  0  0  0  0  0  0  0  0  0  0  0
  1  2  1  0
  2  3  2  3
  3  4  1  0
  3  6  1  0
  4  5  2  0
  6  7  2  3
  7  8  1  0
  7 16  1  0
  9  8  1  6
  9 10  1  0
  9 15  1  0
 10 11  1  0
 11 12  1  0
 12 13  1  0
 13 14  1  0
 14 15  1  0
 16 17  1  0
 17 18  1  0
 18 19  1  1
 18 20  1  0
M  END
