
     RDKit          3D

 20 20  0  0  0  0  0  0  0  0999 V2000
   -4.5690    0.8990   -2.3100 C   0  0  0  0  0  0  0  0  0  0  0  0
   -3.6500    1.5840   -1.3510 C   0  0  0  0  0  0  0  0  0  0  0  0
   -2.7210    0.6540   -0.6300 C   0  0  0  0  0  0  0  0  0  0  0  0
   -2.9750    0.5550    0.6800 C   0  0  0  0  0  0  0  0  0  0  0  0
   -4.1200    1.3740    1.2670 C   0  0  0  0  0  0  0  0  0  0  0  0
   -2.3420   -0.3560    1.6330 C   0  0  0  0  0  0  0  0  0  0  0  0
   -1.6620    0.3020    2.6780 O   0  0  0  0  0  0  0  0  0  0  0  0
   -1.5810    0.0230   -1.2150 C   0  0  0  0  0  0  0  0  0  0  0  0
   -0.6700   -0.6900   -0.3280 O   0  0  0  0  0  0  0  0  0  0  0  0
    0.4810    0.0270    0.1010 C   0  0  0  0  0  0  0  0  0  0  0  0
    1.2820   -0.8870    0.9980 C   0  0  0  0  0  0  0  0  0  0  0  0
    2.5380   -0.1990    1.5050 C   0  0  2  0  0  0  0  0  0  0  0  0
    3.4270    0.2170    0.4090 C   0  0  0  0  0  0  0  0  0  0  0  0
    4.8720    0.0060    0.5460 C   0  0  0  0  0  0  0  0  0  0  0  0
    5.3270   -0.9770    1.5580 C   0  0  0  0  0  0  0  0  0  0  0  0
    4.1960   -1.9390    1.8920 C   0  0  0  0  0  0  0  0  0  0  0  0
    3.1440   -1.0810    2.5510 C   0  0  0  0  0  0  0  0  0  0  0  0
   -1.1730   -0.0350   -2.4380 C   0  0  0  0  0  0  0  0  0  0  0  0
   -1.7870    0.5570   -3.6240 C   0  0  0  0  0  0  0  0  0  0  0  0
    0.1280   -0.8610   -2.7140 C   0  0  0  0  0  0  0  0  0  0  0  0
  1  2  1  0
  2  3  1  0
  3  4  2  3
  3  8  1  0
  4  5  1  0
  4  6  1  0
  6  7  1  0
  8  9  1  0
  8 18  2  3
  9 10  1  0
 10 11  1  0
 12 11  1  6
 12 13  1  0
 12 17  1  0
 13 14  1  0
 14 15  1  0
 15 16  1  0
 16 17  1  0
 18 19  1  0
 18 20  1  0
M  END
