
     RDKit          3D

 20 21  0  0  0  0  0  0  0  0999 V2000
    5.3960    2.4410    0.9260 C   0  0  0  0  0  0  0  0  0  0  0  0
    5.3270    1.1820    0.5360 C   0  0  0  0  0  0  0  0  0  0  0  0
    4.5630    0.8520   -0.6880 C   0  0  0  0  0  0  0  0  0  0  0  0
    3.4380   -0.0860   -0.4300 C   0  0  0  0  0  0  0  0  0  0  0  0
    2.1740    0.1920   -0.6700 C   0  0  0  0  0  0  0  0  0  0  0  0
    1.6820    1.4860   -1.2350 C   0  0  0  0  0  0  0  0  0  0  0  0
    1.3210   -0.9300   -0.3120 C   0  0  0  0  0  0  0  0  0  0  0  0
   -0.0530   -1.0400   -0.4080 O   0  0  0  0  0  0  0  0  0  0  0  0
   -0.8400   -1.1630    0.7540 C   0  0  0  0  0  0  0  0  0  0  0  0
   -2.2980   -1.2750    0.5250 C   0  0  0  0  0  0  0  0  0  0  0  0
   -2.9690   -0.1450   -0.1460 C   0  0  1  0  0  0  0  0  0  0  0  0
   -2.4190    0.1060   -1.5090 C   0  0  0  0  0  0  0  0  0  0  0  0
   -2.5620   -1.0200   -2.3150 O   0  0  0  0  0  0  0  0  0  0  0  0
   -4.4750   -0.3660   -0.1800 C   0  0  0  0  0  0  0  0  0  0  0  0
   -4.9600    1.0060   -0.6240 C   0  0  0  0  0  0  0  0  0  0  0  0
   -3.9400    1.9890   -0.0730 C   0  0  0  0  0  0  0  0  0  0  0  0
   -2.9250    1.1400    0.6760 C   0  0  0  0  0  0  0  0  0  0  0  0
    2.1080   -1.8840    0.1480 C   0  0  0  0  0  0  0  0  0  0  0  0
    1.7220   -3.2420    0.6490 C   0  0  0  0  0  0  0  0  0  0  0  0
    3.5160   -1.4360    0.1140 C   0  0  0  0  0  0  0  0  0  0  0  0
  1  2  2  0
  2  3  1  0
  3  4  1  0
  4  5  2  0
  4 20  1  0
  5  6  1  0
  5  7  1  0
  7  8  1  0
  7 18  2  0
  8  9  1  0
  9 10  1  0
 11 10  1  1
 11 12  1  0
 11 14  1  0
 11 17  1  0
 12 13  1  0
 14 15  1  0
 15 16  1  0
 16 17  1  0
 18 19  1  0
 18 20  1  0
M  END
