
     RDKit          3D

 20 19  0  0  0  0  0  0  0  0999 V2000
   -7.0200    2.3010   -0.8270 C   0  0  0  0  0  0  0  0  0  0  0  0
   -6.7030    1.1110    0.0560 C   0  0  0  0  0  0  0  0  0  0  0  0
   -6.6340   -0.1200   -0.8230 C   0  0  0  0  0  0  0  0  0  0  0  0
   -6.3220   -1.3590   -0.0290 C   0  0  0  0  0  0  0  0  0  0  0  0
   -4.9920   -1.2520    0.6860 C   0  0  0  0  0  0  0  0  0  0  0  0
   -3.8570   -1.0480   -0.2980 C   0  0  0  0  0  0  0  0  0  0  0  0
   -2.5840   -0.9550    0.5280 C   0  0  0  0  0  0  0  0  0  0  0  0
   -1.3770   -0.7490   -0.3670 C   0  0  0  0  0  0  0  0  0  0  0  0
   -0.1890   -0.6720    0.5460 C   0  0  0  0  0  0  0  0  0  0  0  0
    0.8240   -1.5100    0.4820 C   0  0  0  0  0  0  0  0  0  0  0  0
    1.9450   -1.3600    1.4160 C   0  0  0  0  0  0  0  0  0  0  0  0
    3.2690   -1.1180    0.6780 C   0  0  0  0  0  0  0  0  0  0  0  0
    4.3000   -0.9870    1.7480 C   0  0  0  0  0  0  0  0  0  0  0  0
    5.7030   -0.7740    1.3930 C   0  0  0  0  0  0  0  0  0  0  0  0
    6.1790    0.4140    0.6920 C   0  0  0  0  0  0  0  0  0  0  0  0
    5.6980    0.7680   -0.6570 C   0  0  0  0  0  0  0  0  0  0  0  0
    6.5060    2.0480   -1.0530 C   0  0  0  0  0  0  0  0  0  0  0  0
    6.0450    2.4330   -2.4120 C   0  0  0  0  0  0  0  0  0  0  0  0
    6.5330    3.4360   -2.9790 O   0  0  0  0  0  0  0  0  0  0  0  0
    5.0760    1.7170   -3.1000 O   0  0  0  0  0  0  0  0  0  0  0  0
  1  2  1  0
  2  3  1  0
  3  4  1  0
  4  5  1  0
  5  6  1  0
  6  7  1  0
  7  8  1  0
  8  9  1  0
  9 10  2  3
 10 11  1  0
 11 12  1  0
 12 13  1  0
 13 14  1  0
 14 15  1  0
 15 16  1  0
 16 17  1  0
 17 18  1  0
 18 19  2  0
 18 20  1  0
M  END
