
     RDKit          3D

 20 20  0  0  0  0  0  0  0  0999 V2000
    4.4610   -0.9190   -1.9440 C   0  0  0  0  0  0  0  0  0  0  0  0
    4.5160   -1.6060   -0.8380 C   0  0  0  0  0  0  0  0  0  0  0  0
    3.8270   -1.3290    0.4010 C   0  0  0  0  0  0  0  0  0  0  0  0
    4.0060   -2.1080    1.4770 C   0  0  0  0  0  0  0  0  0  0  0  0
    3.3280   -1.8700    2.7620 C   0  0  0  0  0  0  0  0  0  0  0  0
    2.9240   -0.1980    0.5680 C   0  0  0  0  0  0  0  0  0  0  0  0
    1.6540   -0.2800   -0.2920 C   0  0  0  0  0  0  0  0  0  0  0  0
    0.8070    0.9500   -0.0830 C   0  0  0  0  0  0  0  0  0  0  0  0
   -0.4290    1.0690   -0.8490 C   0  0  2  0  0  0  0  0  0  0  0  0
   -1.0490    2.3970   -0.4430 C   0  0  0  0  0  0  0  0  0  0  0  0
   -1.2710    3.2940   -1.2600 O   0  0  0  0  0  0  0  0  0  0  0  0
   -1.3440    2.5350    0.8830 O   0  0  0  0  0  0  0  0  0  0  0  0
   -1.9180    3.6940    1.4580 C   0  0  0  0  0  0  0  0  0  0  0  0
   -3.2360    3.9520    0.8160 C   0  0  0  0  0  0  0  0  0  0  0  0
   -1.4790    0.0660   -0.8810 C   0  0  1  0  0  0  0  0  0  0  0  0
   -1.0970   -1.2960   -1.3920 C   0  0  0  0  0  0  0  0  0  0  0  0
   -2.3890   -1.8220   -2.0560 C   0  0  0  0  0  0  0  0  0  0  0  0
   -3.3930   -2.0620   -0.9580 C   0  0  0  0  0  0  0  0  0  0  0  0
   -3.2090   -1.3230    0.2950 C   0  0  0  0  0  0  0  0  0  0  0  0
   -2.3030   -0.1530    0.3530 C   0  0  0  0  0  0  0  0  0  0  0  0
  1  2  2  0
  2  3  1  0
  3  4  2  3
  3  6  1  0
  4  5  1  0
  6  7  1  0
  7  8  1  0
  9  8  1  1
  9 10  1  0
  9 15  1  0
 10 11  2  0
 10 12  1  0
 12 13  1  0
 13 14  1  0
 15 16  1  1
 15 20  1  0
 16 17  1  0
 17 18  1  0
 18 19  1  0
 19 20  1  0
M  END
