
     RDKit          3D

 17 19  0  0  0  0  0  0  0  0999 V2000
    1.3470   -2.5230    1.2490 O   0  0  0  0  0  0  0  0  0  0  0  0
    0.7010   -1.5940    0.7030 C   0  0  0  0  0  0  0  0  0  0  0  0
   -0.7580   -1.7460    0.6280 C   0  0  0  0  0  0  0  0  0  0  0  0
   -1.3780   -2.7940    1.1010 C   0  0  0  0  0  0  0  0  0  0  0  0
   -2.8420   -2.9460    1.0250 C   0  0  0  0  0  0  0  0  0  0  0  0
   -3.4960   -1.8890    0.3670 O   0  0  0  0  0  0  0  0  0  0  0  0
   -2.8210   -0.7630   -0.1160 C   0  0  0  0  0  0  0  0  0  0  0  0
   -1.5080   -0.6670   -0.0050 C   0  0  0  0  0  0  0  0  0  0  0  0
   -0.7620    0.5020   -0.5210 C   0  0  0  0  0  0  0  0  0  0  0  0
   -1.4210    1.6250   -0.6680 C   0  0  0  0  0  0  0  0  0  0  0  0
   -0.8770    2.9090   -1.1680 C   0  0  0  0  0  0  0  0  0  0  0  0
   -1.0390    4.1800    0.0790 Cl  0  0  0  0  0  0  0  0  0  0  0  0
    0.6870    0.3950   -0.8270 C   0  0  0  0  0  0  0  0  0  0  0  0
    1.3510   -0.4470    0.1800 N   0  0  0  0  0  0  0  0  0  0  0  0
    2.6640   -0.0730    0.6010 C   0  0  2  0  0  0  0  0  0  0  0  0
    2.8090    1.4140    1.0110 C   0  0  0  0  0  0  0  0  0  0  0  0
    3.5210    0.8380   -0.1750 C   0  0  0  0  0  0  0  0  0  0  0  0
  1  2  2  0
  2  3  1  0
  2 14  1  0
  3  4  2  0
  3  8  1  0
  4  5  1  0
  5  6  1  0
  6  7  1  0
  7  8  2  0
  8  9  1  0
  9 10  2  3
  9 13  1  0
 10 11  1  0
 11 12  1  0
 13 14  1  0
 15 14  1  6
 15 16  1  0
 15 17  1  0
 16 17  1  0
M  END
