
     RDKit          3D

 17 19  0  0  0  0  0  0  0  0999 V2000
    0.5790   -1.0020   -3.3920 Cl  0  0  0  0  0  0  0  0  0  0  0  0
    1.3610   -0.3620   -1.9290 C   0  0  0  0  0  0  0  0  0  0  0  0
    2.5640    0.2720   -1.9720 C   0  0  0  0  0  0  0  0  0  0  0  0
    3.1690    0.7860   -0.8330 C   0  0  0  0  0  0  0  0  0  0  0  0
    2.5180    0.6360    0.3640 C   0  0  0  0  0  0  0  0  0  0  0  0
    1.2750   -0.0150    0.4190 C   0  0  0  0  0  0  0  0  0  0  0  0
    0.6830   -0.5190   -0.7210 C   0  0  0  0  0  0  0  0  0  0  0  0
   -0.5110   -1.3040   -0.6620 C   0  0  2  0  0  0  0  0  0  0  0  0
   -1.8140   -0.8190   -1.1680 C   0  0  0  0  0  0  0  0  0  0  0  0
   -2.2560    0.5610   -0.9540 C   0  0  0  0  0  0  0  0  0  0  0  0
   -3.3590    0.6400    0.0970 C   0  0  0  0  0  0  0  0  0  0  0  0
   -2.9210   -0.1660    1.3040 C   0  0  0  0  0  0  0  0  0  0  0  0
   -1.3980   -0.2660    1.3550 C   0  0  0  0  0  0  0  0  0  0  0  0
   -0.8320   -1.4380    0.8190 N   0  0  0  0  0  0  0  0  0  0  0  0
    3.3610    1.2330    1.3170 O   0  0  0  0  0  0  0  0  0  0  0  0
    4.6980    1.1230    0.7790 C   0  0  0  0  0  0  0  0  0  0  0  0
    4.3760    1.4780   -0.5900 O   0  0  0  0  0  0  0  0  0  0  0  0
  1  2  1  0
  2  3  2  0
  2  7  1  0
  3  4  1  0
  4  5  2  0
  4 17  1  0
  5  6  1  0
  5 15  1  0
  6  7  2  0
  8  7  1  1
  8  9  1  0
  8 14  1  0
  9 10  1  0
 10 11  1  0
 11 12  1  0
 12 13  1  0
 13 14  1  0
 15 16  1  0
 16 17  1  0
M  END
