
     RDKit          3D

 17 18  0  0  0  0  0  0  0  0999 V2000
    3.7800   -2.3770   -1.0570 C   0  0  0  0  0  0  0  0  0  0  0  0
    3.8860   -0.8930   -1.0210 C   0  0  0  0  0  0  0  0  0  0  0  0
    2.8490   -0.1170   -0.7700 C   0  0  0  0  0  0  0  0  0  0  0  0
    1.5490   -0.7130   -0.5170 C   0  0  0  0  0  0  0  0  0  0  0  0
    0.4360    0.0450   -0.3430 C   0  0  0  0  0  0  0  0  0  0  0  0
   -0.8180   -0.6300   -0.0960 C   0  0  0  0  0  0  0  0  0  0  0  0
   -0.6190   -1.9620   -0.0080 O   0  0  0  0  0  0  0  0  0  0  0  0
   -2.1070   -0.2230    0.0610 N   0  0  0  0  0  0  0  0  0  0  0  0
   -2.9470    0.8910   -0.0070 C   0  0  0  0  0  0  0  0  0  0  0  0
   -3.4300    0.9530    1.4580 C   0  0  0  0  0  0  0  0  0  0  0  0
   -3.4930   -0.5300    1.8620 C   0  0  0  0  0  0  0  0  0  0  0  0
   -3.1460   -1.2400    0.5530 C   0  0  0  0  0  0  0  0  0  0  0  0
    0.6030    1.4690   -0.3670 C   0  0  0  0  0  0  0  0  0  0  0  0
   -0.4950    2.3480   -0.1850 O   0  0  0  0  0  0  0  0  0  0  0  0
    1.7720    2.0490   -0.5520 C   0  0  0  0  0  0  0  0  0  0  0  0
    3.0480    1.3500   -0.7560 C   0  0  1  0  0  0  0  0  0  0  0  0
    4.1450    1.8110    0.5920 Cl  0  0  0  0  0  0  0  0  0  0  0  0
  1  2  1  0
  2  3  2  3
  3  4  1  0
  3 16  1  0
  4  5  2  0
  5  6  1  0
  5 13  1  0
  6  7  2  0
  6  8  1  0
  8  9  1  0
  8 12  1  0
  9 10  1  0
 10 11  1  0
 11 12  1  0
 13 14  1  0
 13 15  2  0
 15 16  1  0
 16 17  1  1
M  END
