
     RDKit          3D

 22 21  0  0  0  0  0  0  0  0999 V2000
    9.1520   -1.1970   -0.8730 C   0  0  0  0  0  0  0  0  0  0  0  0
    7.7170   -0.7450   -0.6230 C   0  0  0  0  0  0  0  0  0  0  0  0
    7.5240    0.6930   -1.0300 C   0  0  0  0  0  0  0  0  0  0  0  0
    6.1210    1.1390   -0.7860 C   0  0  0  0  0  0  0  0  0  0  0  0
    5.0840    0.3480   -1.5450 C   0  0  0  0  0  0  0  0  0  0  0  0
    3.7520    0.9080   -1.1980 C   0  0  0  0  0  0  0  0  0  0  0  0
    2.8560    0.1230   -0.6310 C   0  0  0  0  0  0  0  0  0  0  0  0
    1.4980    0.6520   -0.2660 C   0  0  0  0  0  0  0  0  0  0  0  0
    1.3600    0.4820    1.1830 C   0  0  0  0  0  0  0  0  0  0  0  0
    0.4230   -0.2500    1.7300 C   0  0  0  0  0  0  0  0  0  0  0  0
   -0.6230   -1.0060    1.0100 C   0  0  0  0  0  0  0  0  0  0  0  0
   -1.9540   -0.4600    1.4710 C   0  0  0  0  0  0  0  0  0  0  0  0
   -2.8110   -1.2720    2.0560 C   0  0  0  0  0  0  0  0  0  0  0  0
   -4.1230   -0.6990    2.5020 C   0  0  0  0  0  0  0  0  0  0  0  0
   -5.1590   -1.4520    1.7700 C   0  0  0  0  0  0  0  0  0  0  0  0
   -6.0130   -0.9230    0.9630 C   0  0  0  0  0  0  0  0  0  0  0  0
   -6.1040    0.4990    0.6360 C   0  0  0  0  0  0  0  0  0  0  0  0
   -5.8870    0.7310   -0.8230 C   0  0  0  0  0  0  0  0  0  0  0  0
   -6.9150    0.0140   -1.6400 C   0  0  0  0  0  0  0  0  0  0  0  0
   -8.2580    0.5250   -1.3160 C   0  0  0  0  0  0  0  0  0  0  0  0
   -9.2690   -0.1300   -1.7240 O   0  0  0  0  0  0  0  0  0  0  0  0
   -8.5140    1.6720   -0.6010 O   0  0  0  0  0  0  0  0  0  0  0  0
  1  2  1  0
  2  3  1  0
  3  4  1  0
  4  5  1  0
  5  6  1  0
  6  7  2  3
  7  8  1  0
  8  9  1  0
  9 10  2  3
 10 11  1  0
 11 12  1  0
 12 13  2  3
 13 14  1  0
 14 15  1  0
 15 16  2  3
 16 17  1  0
 17 18  1  0
 18 19  1  0
 19 20  1  0
 20 21  2  0
 20 22  1  0
M  END
