
     RDKit          3D

 17 19  0  0  0  0  0  0  0  0999 V2000
    4.6870    0.2610   -0.6050 C   0  0  0  0  0  0  0  0  0  0  0  0
    3.3710    0.6980   -0.6760 O   0  0  0  0  0  0  0  0  0  0  0  0
    2.2600    0.0300   -0.2490 C   0  0  0  0  0  0  0  0  0  0  0  0
    2.2710   -1.2080    0.3320 C   0  0  0  0  0  0  0  0  0  0  0  0
    1.1350   -1.8560    0.7520 C   0  0  0  0  0  0  0  0  0  0  0  0
    1.1930   -3.4270    1.4850 Cl  0  0  0  0  0  0  0  0  0  0  0  0
   -0.0970   -1.2140    0.5750 C   0  0  0  0  0  0  0  0  0  0  0  0
   -1.3480   -1.6050    0.8860 N   0  0  0  0  0  0  0  0  0  0  0  0
   -2.2190   -0.6510    0.5270 C   0  0  0  0  0  0  0  0  0  0  0  0
   -3.6080   -0.5490    0.6200 C   0  0  0  0  0  0  0  0  0  0  0  0
   -4.2950    0.5500    0.1730 C   0  0  0  0  0  0  0  0  0  0  0  0
   -3.5700    1.5690   -0.3800 C   0  0  0  0  0  0  0  0  0  0  0  0
   -2.1730    1.4810   -0.4810 C   0  0  0  0  0  0  0  0  0  0  0  0
   -1.4890    0.3900   -0.0370 C   0  0  0  0  0  0  0  0  0  0  0  0
   -0.1490    0.0240   -0.0010 C   0  0  0  0  0  0  0  0  0  0  0  0
    1.0180    0.6680   -0.4230 C   0  0  0  0  0  0  0  0  0  0  0  0
    1.0390    1.8890   -0.9990 O   0  0  0  0  0  0  0  0  0  0  0  0
  1  2  1  0
  2  3  1  0
  3  4  2  0
  3 16  1  0
  4  5  1  0
  5  6  1  0
  5  7  2  0
  7  8  1  0
  7 15  1  0
  8  9  1  0
  9 10  2  0
  9 14  1  0
 10 11  1  0
 11 12  2  0
 12 13  1  0
 13 14  2  0
 14 15  1  0
 15 16  2  0
 16 17  1  0
M  END
