
     RDKit          3D

 30 32  0  0  0  0  0  0  0  0999 V2000
    0.9720   -4.3200   -1.9150 C   0  0  0  0  0  0  0  0  0  0  0  0
    0.4610   -3.4010   -0.9660 O   0  0  0  0  0  0  0  0  0  0  0  0
    0.9030   -2.0780   -0.9070 C   0  0  0  0  0  0  0  0  0  0  0  0
    1.7810   -1.7800   -1.7580 O   0  0  0  0  0  0  0  0  0  0  0  0
    0.4250   -1.0810    0.0370 C   0  0  2  0  0  0  0  0  0  0  0  0
   -1.0410   -0.8840   -0.1270 C   0  0  0  0  0  0  0  0  0  0  0  0
   -1.7570    0.2390   -0.1970 N   0  0  0  0  0  0  0  0  0  0  0  0
   -3.0510   -0.0600   -0.3470 C   0  0  0  0  0  0  0  0  0  0  0  0
   -4.2240    0.8300   -0.4790 C   0  0  0  0  0  0  0  0  0  0  0  0
   -4.0850    2.1860   -0.4630 C   0  0  0  0  0  0  0  0  0  0  0  0
   -5.2020    2.9950   -0.5920 C   0  0  0  0  0  0  0  0  0  0  0  0
   -6.4700    2.4640   -0.7380 C   0  0  0  0  0  0  0  0  0  0  0  0
   -7.6130    3.2620   -0.8690 O   0  0  0  0  0  0  0  0  0  0  0  0
   -6.5470    1.0870   -0.7460 C   0  0  0  0  0  0  0  0  0  0  0  0
   -5.4580    0.3080   -0.6210 N   0  0  0  0  0  0  0  0  0  0  0  0
   -3.1100   -1.4060   -0.3670 N   0  0  0  0  0  0  0  0  0  0  0  0
   -1.9100   -1.8770   -0.2340 O   0  0  0  0  0  0  0  0  0  0  0  0
    1.1870    0.2140   -0.2010 C   0  0  0  0  0  0  0  0  0  0  0  0
    2.2730    0.2380    0.7400 N   0  0  0  0  0  0  0  0  0  0  0  0
    3.5380    0.5450    0.1500 C   0  0  0  0  0  0  0  0  0  0  0  0
    3.5260    1.9930   -0.3070 C   0  0  1  0  0  0  0  0  0  0  0  0
    3.3050    2.8340    0.7630 O   0  0  0  0  0  0  0  0  0  0  0  0
    5.1310    2.4390   -1.1360 P   0  0  0  0  0  0  0  0  0  0  0  0
    5.0360    2.2680   -2.8410 O   0  0  0  0  0  0  0  0  0  0  0  0
    5.4950    4.0800   -0.7330 O   0  0  0  0  0  0  0  0  0  0  0  0
    2.2880   -1.0640    1.4160 C   0  0  0  0  0  0  0  0  0  0  0  0
    0.7950   -1.3290    1.4760 C   0  0  1  0  0  0  0  0  0  0  0  0
    0.1860   -0.2710    2.3540 C   0  0  0  0  0  0  0  0  0  0  0  0
    0.4610   -2.7130    1.9640 C   0  0  0  0  0  0  0  0  0  0  0  0
    0.8260   -2.8770    3.3000 O   0  0  0  0  0  0  0  0  0  0  0  0
  1  2  1  0
  2  3  1  0
  3  4  2  0
  5  3  1  6
  5  6  1  0
  5 18  1  0
  5 27  1  0
  6  7  2  0
  6 17  1  0
  7  8  1  0
  8  9  1  0
  8 16  2  0
  9 10  2  0
  9 15  1  0
 10 11  1  0
 11 12  2  0
 12 13  1  0
 12 14  1  0
 14 15  2  0
 16 17  1  0
 18 19  1  0
 19 20  1  0
 19 26  1  0
 20 21  1  0
 21 22  1  1
 21 23  1  0
 23 24  1  0
 23 25  1  0
 26 27  1  0
 27 28  1  1
 27 29  1  0
 29 30  1  0
M  END
