
     RDKit          3D

 31 32  0  0  0  0  0  0  0  0999 V2000
    6.5020   -3.3940   -3.2760 C   0  0  0  0  0  0  0  0  0  0  0  0
    6.6690   -2.2120   -2.4670 C   0  0  0  0  0  0  0  0  0  0  0  0
    5.7980   -1.4290   -1.8310 C   0  0  0  0  0  0  0  0  0  0  0  0
    6.4240   -0.3030   -1.1080 C   0  0  0  0  0  0  0  0  0  0  0  0
    5.9800    0.6430   -0.4030 C   0  0  0  0  0  0  0  0  0  0  0  0
    4.7090    0.9570   -0.0560 O   0  0  0  0  0  0  0  0  0  0  0  0
    4.2820    1.6940    1.4860 P   0  0  0  0  0  0  0  0  0  0  0  0
    3.4040    3.1550    1.1520 O   0  0  0  0  0  0  0  0  0  0  0  0
    5.7060    2.1120    2.3620 O   0  0  0  0  0  0  0  0  0  0  0  0
    4.4120   -1.5280   -1.7550 C   0  0  0  0  0  0  0  0  0  0  0  0
    3.6560   -0.7360   -1.1250 O   0  0  0  0  0  0  0  0  0  0  0  0
    3.7050   -2.5390   -2.3830 N   0  0  0  0  0  0  0  0  0  0  0  0
    2.3800   -2.7380   -2.3450 C   0  0  0  0  0  0  0  0  0  0  0  0
    2.3290   -3.8850   -3.1330 O   0  0  0  0  0  0  0  0  0  0  0  0
    1.1230   -2.6110   -2.0910 N   0  0  0  0  0  0  0  0  0  0  0  0
    0.0560   -2.0990   -1.5860 C   0  0  0  0  0  0  0  0  0  0  0  0
   -0.9500   -2.8750   -1.9720 O   0  0  0  0  0  0  0  0  0  0  0  0
   -0.2890   -1.0060   -0.7860 C   0  0  0  0  0  0  0  0  0  0  0  0
    0.4830   -0.1480   -0.3310 O   0  0  0  0  0  0  0  0  0  0  0  0
   -1.6280   -0.8520   -0.4580 O   0  0  0  0  0  0  0  0  0  0  0  0
   -2.0780    0.1930    0.3290 C   0  0  0  0  0  0  0  0  0  0  0  0
   -3.5880   -0.0580    0.4210 C   0  0  0  0  0  0  0  0  0  0  0  0
   -4.2230    0.9350    1.2030 N   0  0  0  0  0  0  0  0  0  0  0  0
   -4.7300    2.1390    0.5820 C   0  0  0  0  0  0  0  0  0  0  0  0
   -5.8430    2.7260    1.3890 C   0  0  1  0  0  0  0  0  0  0  0  0
   -7.0720    1.8620    1.4180 C   0  0  0  0  0  0  0  0  0  0  0  0
   -6.8550    0.9840    2.6210 C   0  0  0  0  0  0  0  0  0  0  0  0
   -5.5390    1.4670    3.2430 C   0  0  2  0  0  0  0  0  0  0  0  0
   -5.5090    2.8560    2.7930 N   0  0  0  0  0  0  0  0  0  0  0  0
   -4.3820    0.7880    2.6080 C   0  0  0  0  0  0  0  0  0  0  0  0
   -3.5590    0.0970    3.2920 O   0  0  0  0  0  0  0  0  0  0  0  0
  1  2  1  0
  2  3  2  3
  3  4  1  0
  3 10  1  0
  4  5  2  3
  5  6  1  0
  6  7  1  0
  7  8  1  0
  7  9  1  0
 10 11  2  0
 10 12  1  0
 12 13  1  0
 13 14  2  0
 13 15  1  0
 15 16  1  0
 16 17  2  0
 16 18  1  0
 18 19  2  0
 18 20  1  0
 20 21  1  0
 21 22  1  0
 22 23  1  0
 23 24  1  0
 23 30  1  0
 25 24  1  6
 25 26  1  0
 25 29  1  0
 26 27  1  0
 28 27  1  6
 28 29  1  0
 28 30  1  0
 30 31  2  0
M  END
