
     RDKit          3D

 30 32  0  0  0  0  0  0  0  0999 V2000
   -1.5770   -6.3620   -0.0240 O   0  0  0  0  0  0  0  0  0  0  0  0
   -2.1500   -5.4690    0.6720 C   0  0  0  0  0  0  0  0  0  0  0  0
   -3.2010   -5.7670    1.5070 O   0  0  0  0  0  0  0  0  0  0  0  0
   -1.7070   -4.1310    0.6000 N   0  0  0  0  0  0  0  0  0  0  0  0
   -2.6190   -3.1880    0.6860 C   0  0  0  0  0  0  0  0  0  0  0  0
   -3.9480   -3.4760    0.8390 O   0  0  0  0  0  0  0  0  0  0  0  0
   -4.9480   -2.5070    0.8490 C   0  0  0  0  0  0  0  0  0  0  0  0
   -4.5410   -1.2600    0.0960 C   0  0  0  0  0  0  0  0  0  0  0  0
   -3.2840   -0.8440    0.7200 N   0  0  0  0  0  0  0  0  0  0  0  0
   -2.2080   -1.7680    0.6150 C   0  0  0  0  0  0  0  0  0  0  0  0
   -0.9540   -1.4610    0.4830 C   0  0  0  0  0  0  0  0  0  0  0  0
   -0.3450   -0.1420    0.3920 C   0  0  0  0  0  0  0  0  0  0  0  0
   -0.9000    0.9230    0.4150 N   0  0  0  0  0  0  0  0  0  0  0  0
   -1.5800    1.9740    0.4500 O   0  0  0  0  0  0  0  0  0  0  0  0
   -1.5210    3.0950   -0.3620 C   0  0  0  0  0  0  0  0  0  0  0  0
   -2.5370    4.1510    0.0060 C   0  0  1  0  0  0  0  0  0  0  0  0
   -3.9850    3.8530   -0.0280 C   0  0  0  0  0  0  0  0  0  0  0  0
   -3.3070    4.0690    1.2780 C   0  0  0  0  0  0  0  0  0  0  0  0
    1.1590   -0.1550    0.2520 C   0  0  1  0  0  0  0  0  0  0  0  0
    1.5710   -0.8820   -1.0010 C   0  0  0  0  0  0  0  0  0  0  0  0
    2.7720   -0.3590   -1.5280 O   0  0  0  0  0  0  0  0  0  0  0  0
    3.8380   -0.7280   -0.7130 C   0  0  0  0  0  0  0  0  0  0  0  0
    4.2730    0.5270    0.0390 C   0  0  1  0  0  0  0  0  0  0  0  0
    5.4210    1.2060   -0.6710 C   0  0  0  0  0  0  0  0  0  0  0  0
    6.8960    0.1010   -0.8120 P   0  0  0  0  0  0  0  0  0  0  0  0
    7.2510   -0.3120   -2.4510 O   0  0  0  0  0  0  0  0  0  0  0  0
    8.2550    0.7700    0.0140 O   0  0  0  0  0  0  0  0  0  0  0  0
    3.1190    1.4530    0.1950 C   0  0  0  0  0  0  0  0  0  0  0  0
    3.3930    2.6920    0.2820 O   0  0  0  0  0  0  0  0  0  0  0  0
    1.7400    1.1420    0.2610 N   0  0  0  0  0  0  0  0  0  0  0  0
  1  2  2  0
  2  3  1  0
  2  4  1  0
  4  5  2  3
  5  6  1  0
  5 10  1  0
  6  7  1  0
  7  8  1  0
  8  9  1  0
  9 10  1  0
 10 11  2  3
 11 12  1  0
 12 13  2  3
 19 12  1  6
 13 14  1  0
 14 15  1  0
 16 15  1  1
 16 17  1  0
 16 18  1  0
 17 18  1  0
 19 20  1  0
 19 30  1  0
 20 21  1  0
 21 22  1  0
 22 23  1  0
 23 24  1  6
 23 28  1  0
 24 25  1  0
 25 26  1  0
 25 27  1  0
 28 29  2  0
 28 30  1  0
M  END
