
     RDKit          3D

 31 33  0  0  0  0  0  0  0  0999 V2000
   -5.3550   -2.7530    1.5850 C   0  0  0  0  0  0  0  0  0  0  0  0
   -5.2790   -1.2380    1.6870 C   0  0  1  0  0  0  0  0  0  0  0  0
   -3.8790   -0.7730    1.8280 C   0  0  0  0  0  0  0  0  0  0  0  0
   -3.1170   -1.0810    2.7740 O   0  0  0  0  0  0  0  0  0  0  0  0
   -3.5810    0.0630    0.7150 N   0  0  0  0  0  0  0  0  0  0  0  0
   -2.5860    0.8840    0.0560 C   0  0  0  0  0  0  0  0  0  0  0  0
   -1.2390    1.1080    0.5370 C   0  0  0  0  0  0  0  0  0  0  0  0
   -0.4510    1.8400   -0.1320 O   0  0  0  0  0  0  0  0  0  0  0  0
   -0.6360    0.6010    1.7120 N   0  0  0  0  0  0  0  0  0  0  0  0
    0.7630    0.9000    2.0840 C   0  0  0  0  0  0  0  0  0  0  0  0
    1.6900    0.3640    1.0610 C   0  0  0  0  0  0  0  0  0  0  0  0
    3.0330    0.6120    1.3610 O   0  0  0  0  0  0  0  0  0  0  0  0
    4.1030   -0.0050    0.1820 P   0  0  0  0  0  0  0  0  0  0  0  0
    3.3950   -1.2380   -0.7990 O   0  0  0  0  0  0  0  0  0  0  0  0
    5.7160   -0.5270    0.9140 C   0  0  1  0  0  0  0  0  0  0  0  0
    6.2780   -1.7350    0.2290 C   0  0  0  0  0  0  0  0  0  0  0  0
    6.4730   -1.4440   -1.2280 C   0  0  0  0  0  0  0  0  0  0  0  0
    6.9300   -0.0180   -1.4520 C   0  0  0  0  0  0  0  0  0  0  0  0
    7.5380    0.4710   -0.3200 O   0  0  0  0  0  0  0  0  0  0  0  0
    6.6930    0.6150    0.7550 C   0  0  0  0  0  0  0  0  0  0  0  0
   -3.0870    1.4110   -1.0760 C   0  0  0  0  0  0  0  0  0  0  0  0
   -2.3890    2.2910   -2.0120 C   0  0  0  0  0  0  0  0  0  0  0  0
   -2.9440    2.8310   -3.2000 N   0  0  0  0  0  0  0  0  0  0  0  0
   -1.1780    2.6800   -1.8600 O   0  0  0  0  0  0  0  0  0  0  0  0
   -4.4240    0.9600   -1.2050 N   0  0  0  0  0  0  0  0  0  0  0  0
   -5.3810    1.2310   -2.2230 C   0  0  0  0  0  0  0  0  0  0  0  0
   -5.2530    1.9340   -3.2380 O   0  0  0  0  0  0  0  0  0  0  0  0
   -6.6760    0.6510   -2.1250 O   0  0  0  0  0  0  0  0  0  0  0  0
   -4.7470    0.1080   -0.0790 C   0  0  0  0  0  0  0  0  0  0  0  0
   -5.7340   -0.6180    0.4350 C   0  0  0  0  0  0  0  0  0  0  0  0
   -7.0180   -0.7740   -0.1270 O   0  0  0  0  0  0  0  0  0  0  0  0
  2  1  1  6
  2  3  1  0
  2 30  1  0
  3  4  2  0
  3  5  1  0
  5  6  1  0
  5 29  1  0
  6  7  1  0
  6 21  2  0
  7  8  2  0
  7  9  1  0
  9 10  1  0
 10 11  1  0
 11 12  1  0
 12 13  1  0
 13 14  1  0
 15 13  1  6
 15 16  1  0
 15 20  1  0
 16 17  1  0
 17 18  1  0
 18 19  1  0
 19 20  1  0
 21 22  1  0
 21 25  1  0
 22 23  1  0
 22 24  2  0
 25 26  1  0
 25 29  1  0
 26 27  2  0
 26 28  1  0
 29 30  2  0
 30 31  1  0
M  END
