
     RDKit          3D

 31 33  0  0  0  0  0  0  0  0999 V2000
    9.0790   -0.4520   -1.7570 N   0  0  0  0  0  0  0  0  0  0  0  0
    8.2740   -1.0590   -0.7810 C   0  0  0  0  0  0  0  0  0  0  0  0
    8.8070   -1.9430   -0.0330 O   0  0  0  0  0  0  0  0  0  0  0  0
    6.9040   -0.7490   -0.5780 N   0  0  0  0  0  0  0  0  0  0  0  0
    6.1750   -1.4390    0.4580 C   0  0  2  0  0  0  0  0  0  0  0  0
    4.7630   -1.8690    0.0370 C   0  0  0  0  0  0  0  0  0  0  0  0
    4.3480   -0.5110    0.2960 N   0  0  0  0  0  0  0  0  0  0  0  0
    3.3510    0.3620   -0.2020 C   0  0  0  0  0  0  0  0  0  0  0  0
    2.5370    0.0110   -1.1080 O   0  0  0  0  0  0  0  0  0  0  0  0
    3.2110    1.6570    0.2780 O   0  0  0  0  0  0  0  0  0  0  0  0
    2.2120    2.5090   -0.2320 C   0  0  0  0  0  0  0  0  0  0  0  0
    0.9390    1.9410   -0.0140 O   0  0  0  0  0  0  0  0  0  0  0  0
   -0.2150    2.5870   -0.4250 C   0  0  0  0  0  0  0  0  0  0  0  0
   -0.0850    3.6970   -1.0010 O   0  0  0  0  0  0  0  0  0  0  0  0
   -1.5580    2.0450   -0.2250 C   0  0  2  0  0  0  0  0  0  0  0  0
   -1.9020    1.8240    1.2290 C   0  0  0  0  0  0  0  0  0  0  0  0
   -3.1850    0.9820    1.0980 C   0  0  0  0  0  0  0  0  0  0  0  0
   -3.0380    0.2630   -0.1150 N   0  0  0  0  0  0  0  0  0  0  0  0
   -3.9150   -0.6370   -0.7460 C   0  0  0  0  0  0  0  0  0  0  0  0
   -3.4250   -1.1230   -1.8600 O   0  0  0  0  0  0  0  0  0  0  0  0
   -5.2230   -1.0670   -0.3350 C   0  0  0  0  0  0  0  0  0  0  0  0
   -5.8720   -0.6970    0.7230 C   0  0  0  0  0  0  0  0  0  0  0  0
   -7.2230   -1.1670    1.1110 C   0  0  1  0  0  0  0  0  0  0  0  0
   -7.1910   -1.6920    2.4210 O   0  0  0  0  0  0  0  0  0  0  0  0
   -8.3110    0.3540    1.1500 P   0  0  0  0  0  0  0  0  0  0  0  0
   -7.9800    1.5870    0.2710 O   0  0  0  0  0  0  0  0  0  0  0  0
   -7.7620   -2.0710    0.2140 O   0  0  0  0  0  0  0  0  0  0  0  0
   -7.0920   -2.4730   -0.9070 C   0  0  0  0  0  0  0  0  0  0  0  0
   -5.8980   -2.0550   -1.2440 C   0  0  0  0  0  0  0  0  0  0  0  0
   -1.6960    0.6170   -0.7160 C   0  0  0  0  0  0  0  0  0  0  0  0
    5.3900   -0.4160    1.2900 C   0  0  0  0  0  0  0  0  0  0  0  0
  1  2  1  0
  2  3  2  0
  2  4  1  0
  5  4  1  6
  5  6  1  0
  5 31  1  0
  6  7  1  0
  7  8  1  0
  7 31  1  0
  8  9  2  0
  8 10  1  0
 10 11  1  0
 11 12  1  0
 12 13  1  0
 13 14  2  0
 15 13  1  1
 15 16  1  0
 15 30  1  0
 16 17  1  0
 17 18  1  0
 18 19  1  0
 18 30  1  0
 19 20  2  0
 19 21  1  0
 21 22  2  0
 21 29  1  0
 22 23  1  0
 23 24  1  1
 23 25  1  0
 23 27  1  0
 25 26  2  0
 27 28  1  0
 28 29  2  0
M  END
