
     RDKit          3D

 30 32  0  0  0  0  0  0  0  0999 V2000
   -2.2870    2.3240    3.7910 O   0  0  0  0  0  0  0  0  0  0  0  0
   -2.6020    1.6350    2.7970 C   0  0  0  0  0  0  0  0  0  0  0  0
   -2.6680    2.2780    1.5060 N   0  0  0  0  0  0  0  0  0  0  0  0
   -2.6580    1.3710    0.3940 C   0  0  0  0  0  0  0  0  0  0  0  0
   -3.2090    1.6330   -0.6970 O   0  0  0  0  0  0  0  0  0  0  0  0
   -1.9230    0.0680    0.6570 C   0  0  2  0  0  0  0  0  0  0  0  0
   -1.8400   -0.7030   -0.5940 C   0  0  0  0  0  0  0  0  0  0  0  0
   -2.7150   -1.6410   -0.7440 O   0  0  0  0  0  0  0  0  0  0  0  0
   -0.9410   -0.5610   -1.6440 N   0  0  0  0  0  0  0  0  0  0  0  0
   -1.1360   -1.5160   -2.7860 C   0  0  0  0  0  0  0  0  0  0  0  0
   -1.6680   -0.6990   -3.9460 C   0  0  0  0  0  0  0  0  0  0  0  0
   -1.0980    0.5810   -3.8590 O   0  0  0  0  0  0  0  0  0  0  0  0
    0.2170    0.5000   -3.4130 C   0  0  0  0  0  0  0  0  0  0  0  0
    0.1740    0.3170   -1.8610 C   0  0  1  0  0  0  0  0  0  0  0  0
    0.1030    1.6730   -1.2890 C   0  0  0  0  0  0  0  0  0  0  0  0
    1.2490    2.4000   -1.6930 O   0  0  0  0  0  0  0  0  0  0  0  0
    1.4590   -0.3780   -1.4560 C   0  0  0  0  0  0  0  0  0  0  0  0
    2.6660    0.3540   -1.5970 N   0  0  0  0  0  0  0  0  0  0  0  0
    3.8370   -0.5220   -1.4400 C   0  0  0  0  0  0  0  0  0  0  0  0
    4.0310   -1.0490   -0.0700 C   0  0  0  0  0  0  0  0  0  0  0  0
    4.2350   -0.0020    0.9930 C   0  0  0  0  0  0  0  0  0  0  0  0
    4.4810   -0.8800    2.6370 P   0  0  0  0  0  0  0  0  0  0  0  0
    5.9210   -1.8440    2.5550 O   0  0  0  0  0  0  0  0  0  0  0  0
    4.5570    0.2630    3.9380 O   0  0  0  0  0  0  0  0  0  0  0  0
   -2.7110   -0.5620    1.6980 N   0  0  0  0  0  0  0  0  0  0  0  0
   -3.4040   -1.7820    1.9190 C   0  0  0  0  0  0  0  0  0  0  0  0
   -3.1580   -2.8860    1.3960 O   0  0  0  0  0  0  0  0  0  0  0  0
   -4.4840   -1.5080    2.8970 C   0  0  0  0  0  0  0  0  0  0  0  0
   -4.3950   -0.0180    3.1060 C   0  0  0  0  0  0  0  0  0  0  0  0
   -2.8930    0.2230    2.9430 C   0  0  2  0  0  0  0  0  0  0  0  0
  1  2  2  0
  2  3  1  0
  2 30  1  0
  3  4  1  0
  4  5  2  0
  4  6  1  0
  6  7  1  6
  6 25  1  0
  7  8  2  0
  7  9  1  0
  9 10  1  0
  9 14  1  0
 10 11  1  0
 11 12  1  0
 12 13  1  0
 13 14  1  0
 14 15  1  1
 14 17  1  0
 15 16  1  0
 17 18  1  0
 18 19  1  0
 19 20  1  0
 20 21  1  0
 21 22  1  0
 22 23  1  0
 22 24  1  0
 25 26  1  0
 25 30  1  0
 26 27  2  0
 26 28  1  0
 28 29  1  0
 30 29  1  6
M  END
