
     RDKit          3D

 31 33  0  0  0  0  0  0  0  0999 V2000
    5.3420   -2.0500    1.7400 C   0  0  0  0  0  0  0  0  0  0  0  0
    4.0110   -1.6540    1.3660 C   0  0  0  0  0  0  0  0  0  0  0  0
    3.7260   -0.8060    0.3310 C   0  0  0  0  0  0  0  0  0  0  0  0
    2.3080   -0.5760    0.1710 C   0  0  0  0  0  0  0  0  0  0  0  0
    1.6010   -1.2320    1.0530 O   0  0  0  0  0  0  0  0  0  0  0  0
    1.5770    0.1990   -0.7300 N   0  0  0  0  0  0  0  0  0  0  0  0
    0.1910    0.3900   -0.8440 C   0  0  0  0  0  0  0  0  0  0  0  0
   -0.7590   -0.1220   -0.1210 C   0  0  0  0  0  0  0  0  0  0  0  0
   -0.7320   -0.9920    0.9610 O   0  0  0  0  0  0  0  0  0  0  0  0
   -2.0630   -1.2970    1.4230 C   0  0  0  0  0  0  0  0  0  0  0  0
   -2.7640   -0.0200    1.0560 C   0  0  2  0  0  0  0  0  0  0  0  0
   -4.2030    0.0150    1.1000 C   0  0  0  0  0  0  0  0  0  0  0  0
   -4.8260   -0.3310    2.1270 O   0  0  0  0  0  0  0  0  0  0  0  0
   -4.9760    0.4460   -0.0290 N   0  0  0  0  0  0  0  0  0  0  0  0
   -6.4010    0.6050    0.1540 C   0  0  1  0  0  0  0  0  0  0  0  0
   -6.8550    1.9740   -0.1130 C   0  0  0  0  0  0  0  0  0  0  0  0
   -7.6980    1.9540   -1.0710 N   0  0  0  0  0  0  0  0  0  0  0  0
   -7.9390    0.6930   -1.5710 N   0  0  0  0  0  0  0  0  0  0  0  0
   -7.1470   -0.2150   -0.8380 C   0  0  0  0  0  0  0  0  0  0  0  0
   -7.0230   -1.4590   -0.9220 O   0  0  0  0  0  0  0  0  0  0  0  0
   -4.3570    0.7140   -1.3020 C   0  0  0  0  0  0  0  0  0  0  0  0
   -5.0380    1.0790   -2.2650 O   0  0  0  0  0  0  0  0  0  0  0  0
   -2.8910    0.5230   -1.3620 C   0  0  0  0  0  0  0  0  0  0  0  0
   -2.2140    0.1530   -0.3350 C   0  0  0  0  0  0  0  0  0  0  0  0
    4.7960   -0.2670   -0.4280 C   0  0  0  0  0  0  0  0  0  0  0  0
    4.7650    0.5410   -1.4430 C   0  0  0  0  0  0  0  0  0  0  0  0
    6.0720    0.8870   -1.9780 O   0  0  0  0  0  0  0  0  0  0  0  0
    6.1500   -0.6690   -0.0200 O   0  0  0  0  0  0  0  0  0  0  0  0
    7.3340    0.6440    0.0610 P   0  0  0  0  0  0  0  0  0  0  0  0
    6.5160    2.1560    0.3660 O   0  0  0  0  0  0  0  0  0  0  0  0
    8.3500    0.3480    1.4500 O   0  0  0  0  0  0  0  0  0  0  0  0
  1  2  1  0
  2  3  2  3
  3  4  1  0
  3 25  1  0
  4  5  2  0
  4  6  1  0
  6  7  1  0
  7  8  2  3
  8  9  1  0
  8 24  1  0
  9 10  1  0
 11 10  1  6
 11 12  1  0
 11 24  1  0
 12 13  2  0
 12 14  1  0
 15 14  1  6
 14 21  1  0
 15 16  1  0
 15 19  1  0
 16 17  2  0
 17 18  1  0
 18 19  1  0
 19 20  2  0
 21 22  2  0
 21 23  1  0
 23 24  2  0
 25 26  2  3
 25 28  1  0
 26 27  1  0
 28 29  1  0
 29 30  1  0
 29 31  1  0
M  END
