
     RDKit          3D

 31 33  0  0  0  0  0  0  0  0999 V2000
   -0.4560    2.0220    0.2410 O   0  0  0  0  0  0  0  0  0  0  0  0
   -1.6570    1.6340    0.2940 C   0  0  0  0  0  0  0  0  0  0  0  0
   -2.6360    2.6110    0.6060 N   0  0  0  0  0  0  0  0  0  0  0  0
   -2.3140    3.9840    0.8550 C   0  0  0  0  0  0  0  0  0  0  0  0
   -1.3830    4.1600    2.0260 C   0  0  0  0  0  0  0  0  0  0  0  0
   -1.1360    5.5380    2.1780 O   0  0  0  0  0  0  0  0  0  0  0  0
   -2.0500    0.2590    0.0530 C   0  0  0  0  0  0  0  0  0  0  0  0
   -1.1630   -0.6520   -0.2350 C   0  0  0  0  0  0  0  0  0  0  0  0
    0.2280   -0.3880   -0.3370 N   0  0  0  0  0  0  0  0  0  0  0  0
    0.9950   -1.3120   -0.8580 C   0  0  0  0  0  0  0  0  0  0  0  0
    0.4660   -2.4730   -1.2820 N   0  0  0  0  0  0  0  0  0  0  0  0
    1.1830   -3.4570   -1.8180 C   0  0  0  0  0  0  0  0  0  0  0  0
    2.4980   -3.3110   -1.9560 N   0  0  0  0  0  0  0  0  0  0  0  0
    3.0900   -2.1490   -1.5430 C   0  0  0  0  0  0  0  0  0  0  0  0
    2.3590   -1.1330   -0.9880 C   0  0  0  0  0  0  0  0  0  0  0  0
    2.9800    0.1090   -0.6130 C   0  0  0  0  0  0  0  0  0  0  0  0
    2.2710    1.1540   -0.9050 O   0  0  0  0  0  0  0  0  0  0  0  0
    4.2450    0.3300    0.0270 C   0  0  0  0  0  0  0  0  0  0  0  0
    5.0240   -0.6330    0.4220 C   0  0  0  0  0  0  0  0  0  0  0  0
    6.3460   -0.4040    1.0850 C   0  0  0  0  0  0  0  0  0  0  0  0
    6.6740    0.9400    1.2430 O   0  0  0  0  0  0  0  0  0  0  0  0
    5.8670    1.9880    0.8340 C   0  0  0  0  0  0  0  0  0  0  0  0
    4.7260    1.7060    0.2620 C   0  0  0  0  0  0  0  0  0  0  0  0
   -1.6570   -1.9540   -0.4500 O   0  0  0  0  0  0  0  0  0  0  0  0
   -2.8770   -2.3690    0.1750 C   0  0  0  0  0  0  0  0  0  0  0  0
   -3.9160   -1.3450   -0.2290 C   0  0  1  0  0  0  0  0  0  0  0  0
   -5.1170   -1.4880    0.4170 O   0  0  0  0  0  0  0  0  0  0  0  0
   -6.4640   -1.6290   -0.6490 P   0  0  0  0  0  0  0  0  0  0  0  0
   -7.5510   -2.8900   -0.1650 O   0  0  0  0  0  0  0  0  0  0  0  0
   -5.9990   -1.7800   -2.3070 O   0  0  0  0  0  0  0  0  0  0  0  0
   -3.3820   -0.0760    0.1330 O   0  0  0  0  0  0  0  0  0  0  0  0
  1  2  2  0
  2  3  1  0
  2  7  1  0
  3  4  1  0
  4  5  1  0
  5  6  1  0
  7  8  2  0
  7 31  1  0
  8  9  1  0
  8 24  1  0
  9 10  2  3
 10 11  1  0
 10 15  1  0
 11 12  2  0
 12 13  1  0
 13 14  1  0
 14 15  2  0
 15 16  1  0
 16 17  2  0
 16 18  1  0
 18 19  2  0
 18 23  1  0
 19 20  1  0
 20 21  1  0
 21 22  1  0
 22 23  2  0
 24 25  1  0
 25 26  1  0
 26 27  1  1
 26 31  1  0
 27 28  1  0
 28 29  1  0
 28 30  1  0
M  END
