
     RDKit          3D

 32 36  0  0  0  0  0  0  0  0999 V2000
    5.3100   -1.3740   -3.6860 C   0  0  0  0  0  0  0  0  0  0  0  0
    4.6810   -1.0970   -2.3070 C   0  0  0  0  0  0  0  0  0  0  0  0
    3.2580   -0.6770   -2.6100 C   0  0  1  0  0  0  0  0  0  0  0  0
    2.5360   -1.8060   -3.3570 C   0  0  0  0  0  0  0  0  0  0  0  0
    1.0840   -1.3560   -3.1310 C   0  0  0  0  0  0  0  0  0  0  0  0
    1.1570   -0.9340   -1.6920 C   0  0  0  0  0  0  0  0  0  0  0  0
    2.4160   -0.5450   -1.3800 C   0  0  0  0  0  0  0  0  0  0  0  0
    2.4290   -0.1720   -0.0420 C   0  0  0  0  0  0  0  0  0  0  0  0
    3.4760    0.2910    0.7120 C   0  0  0  0  0  0  0  0  0  0  0  0
    3.2780    0.6130    2.0350 C   0  0  0  0  0  0  0  0  0  0  0  0
    4.3780    1.1040    2.8470 C   0  0  0  0  0  0  0  0  0  0  0  0
    5.6510    1.3050    2.4650 N   0  0  0  0  0  0  0  0  0  0  0  0
    6.3810    1.7710    3.5080 C   0  0  0  0  0  0  0  0  0  0  0  0
    7.8370    2.1210    3.5010 C   0  0  0  0  0  0  0  0  0  0  0  0
    5.5040    1.8440    4.5260 N   0  0  0  0  0  0  0  0  0  0  0  0
    4.3320    1.4460    4.1130 O   0  0  0  0  0  0  0  0  0  0  0  0
    2.0110    0.4410    2.5130 C   0  0  0  0  0  0  0  0  0  0  0  0
    0.9660   -0.0330    1.7170 C   0  0  0  0  0  0  0  0  0  0  0  0
    1.1790   -0.3440    0.4200 N   0  0  0  0  0  0  0  0  0  0  0  0
    0.3600   -0.8000   -0.5180 C   0  0  0  0  0  0  0  0  0  0  0  0
   -1.0580   -1.1550   -0.5820 C   0  0  0  0  0  0  0  0  0  0  0  0
   -1.8470   -1.0340    0.5570 N   0  0  0  0  0  0  0  0  0  0  0  0
   -2.3270    0.2930    0.8530 C   0  0  0  0  0  0  0  0  0  0  0  0
   -3.5770    0.6260    0.1570 C   0  0  0  0  0  0  0  0  0  0  0  0
   -3.6600    1.2370   -1.0720 C   0  0  0  0  0  0  0  0  0  0  0  0
   -4.8880    1.5060   -1.6420 C   0  0  0  0  0  0  0  0  0  0  0  0
   -6.0310    1.1790   -1.0120 N   0  0  0  0  0  0  0  0  0  0  0  0
   -5.9950    0.5790    0.1930 C   0  0  0  0  0  0  0  0  0  0  0  0
   -7.2340    0.2540    0.8160 N   0  0  0  0  0  0  0  0  0  0  0  0
   -7.1580   -0.3980    2.1270 C   0  0  0  0  0  0  0  0  0  0  0  0
   -8.5100    0.5250    0.2380 C   0  0  0  0  0  0  0  0  0  0  0  0
   -4.7740    0.3060    0.7720 C   0  0  0  0  0  0  0  0  0  0  0  0
  1  2  1  0
  3  2  1  1
  3  4  1  0
  3  7  1  0
  4  5  1  0
  5  6  1  0
  6  7  1  0
  6 20  2  0
  7  8  2  0
  8  9  1  0
  8 19  1  0
  9 10  2  0
 10 11  1  0
 10 17  1  0
 11 12  2  0
 11 16  1  0
 12 13  1  0
 13 14  1  0
 13 15  2  0
 15 16  1  0
 17 18  2  0
 18 19  1  0
 19 20  1  0
 20 21  1  0
 21 22  1  0
 22 23  1  0
 23 24  1  0
 24 25  2  0
 24 32  1  0
 25 26  1  0
 26 27  2  0
 27 28  1  0
 28 29  1  0
 28 32  2  0
 29 30  1  0
 29 31  1  0
M  CHG  2  22   1  27   1
M  END
