
     RDKit          3D

 33 37  0  0  0  0  0  0  0  0999 V2000
   -6.1080    2.6320    0.8750 C   0  0  0  0  0  0  0  0  0  0  0  0
   -5.2910    2.3450    2.0700 C   0  0  0  0  0  0  0  0  0  0  0  0
   -4.2350    1.5930    1.9810 C   0  0  0  0  0  0  0  0  0  0  0  0
   -3.8040    1.0110    0.7640 N   0  0  0  0  0  0  0  0  0  0  0  0
   -2.8100    0.2680    0.5530 C   0  0  0  0  0  0  0  0  0  0  0  0
   -2.6640   -0.1450   -0.7970 O   0  0  0  0  0  0  0  0  0  0  0  0
   -3.7940   -0.1080   -1.6850 C   0  0  0  0  0  0  0  0  0  0  0  0
   -1.8680   -0.1540    1.5680 C   0  0  0  0  0  0  0  0  0  0  0  0
   -0.7360   -1.0440    1.0670 C   0  0  0  0  0  0  0  0  0  0  0  0
   -1.2040   -2.2440    0.5240 N   0  0  1  0  0  0  0  0  0  0  0  0
   -0.4830   -2.7710   -0.5980 C   0  0  0  0  0  0  0  0  0  0  0  0
   -0.9330   -3.9110   -1.2380 N   0  0  0  0  0  0  0  0  0  0  0  0
   -0.1000   -4.2290   -2.2310 C   0  0  0  0  0  0  0  0  0  0  0  0
    0.8780   -3.2710   -2.2020 C   0  0  0  0  0  0  0  0  0  0  0  0
    0.6320   -2.3680   -1.1830 N   0  0  0  0  0  0  0  0  0  0  0  0
    1.5300   -1.2930   -0.9520 C   0  0  0  0  0  0  0  0  0  0  0  0
    2.3580   -1.3580    0.1420 C   0  0  0  0  0  0  0  0  0  0  0  0
    3.2770   -0.3740    0.4370 C   0  0  0  0  0  0  0  0  0  0  0  0
    3.3760    0.7090   -0.3810 C   0  0  0  0  0  0  0  0  0  0  0  0
    2.5610    0.8220   -1.4990 C   0  0  0  0  0  0  0  0  0  0  0  0
    1.6380   -0.1920   -1.7740 C   0  0  0  0  0  0  0  0  0  0  0  0
    2.5060    1.8660   -2.4760 N   0  0  0  0  0  0  0  0  0  0  0  0
    3.1240    3.1290   -2.3380 C   0  0  0  0  0  0  0  0  0  0  0  0
    2.7450    3.9730   -3.1910 O   0  0  0  0  0  0  0  0  0  0  0  0
    4.1280    3.6670   -1.3950 C   0  0  0  0  0  0  0  0  0  0  0  0
    5.0240    2.6100   -0.8200 C   0  0  1  0  0  0  0  0  0  0  0  0
    6.0570    3.3320    0.0470 C   0  0  0  0  0  0  0  0  0  0  0  0
    4.3590    1.6630    0.0220 N   0  0  0  0  0  0  0  0  0  0  0  0
   -1.3340   -3.3460    1.4700 C   0  0  1  0  0  0  0  0  0  0  0  0
   -0.8700   -3.3050    2.8470 C   0  0  0  0  0  0  0  0  0  0  0  0
   -2.3480   -3.3200    2.5620 C   0  0  0  0  0  0  0  0  0  0  0  0
   -1.9160    0.1770    2.8360 C   0  0  0  0  0  0  0  0  0  0  0  0
   -3.2190    1.2250    3.4220 S   0  0  0  0  0  0  0  0  0  0  0  0
  1  2  1  0
  2  3  2  3
  3  4  1  0
  3 33  1  0
  4  5  2  0
  5  6  1  0
  5  8  1  0
  6  7  1  0
  8  9  1  0
  8 32  2  0
 10  9  1  1
 10 11  1  0
 10 29  1  0
 11 12  2  0
 11 15  1  0
 12 13  1  0
 13 14  2  0
 14 15  1  0
 15 16  1  0
 16 17  2  0
 16 21  1  0
 17 18  1  0
 18 19  2  0
 19 20  1  0
 19 28  1  0
 20 21  2  0
 20 22  1  0
 22 23  1  0
 23 24  2  0
 23 25  1  0
 25 26  1  0
 26 27  1  1
 26 28  1  0
 29 30  1  1
 29 31  1  0
 30 31  1  0
 32 33  1  0
M  CHG  1  10   1
M  END
