
     RDKit          3D

 33 37  0  0  0  0  0  0  0  0999 V2000
    4.4340    4.3260   -2.4570 C   0  0  0  0  0  0  0  0  0  0  0  0
    3.4670    3.2100   -2.2640 C   0  0  0  0  0  0  0  0  0  0  0  0
    2.7540    2.9690   -1.1890 C   0  0  0  0  0  0  0  0  0  0  0  0
    2.8490    3.8260    0.0190 C   0  0  0  0  0  0  0  0  0  0  0  0
    1.9830    1.7200   -1.3900 C   0  0  0  0  0  0  0  0  0  0  0  0
    0.9610    1.0340   -0.9500 C   0  0  0  0  0  0  0  0  0  0  0  0
   -0.0130    1.2520    0.0410 N   0  0  0  0  0  0  0  0  0  0  0  0
   -0.3260    2.2810    0.9120 C   0  0  0  0  0  0  0  0  0  0  0  0
    0.3120    3.3390    0.9120 O   0  0  0  0  0  0  0  0  0  0  0  0
   -1.4160    2.2460    1.9050 C   0  0  0  0  0  0  0  0  0  0  0  0
   -2.2730    1.1460    2.0620 N   0  0  2  0  0  0  0  0  0  0  0  0
   -1.6390   -0.0300    2.5280 C   0  0  0  0  0  0  0  0  0  0  0  0
   -2.2600   -1.3020    1.9910 C   0  0  0  0  0  0  0  0  0  0  0  0
   -3.7280   -1.1780    2.0770 C   0  0  0  0  0  0  0  0  0  0  0  0
   -4.5740   -2.1290    2.6080 C   0  0  0  0  0  0  0  0  0  0  0  0
   -5.9550   -1.8870    2.6130 C   0  0  0  0  0  0  0  0  0  0  0  0
   -6.4880   -0.7250    2.1010 C   0  0  0  0  0  0  0  0  0  0  0  0
   -5.6290    0.2030    1.5810 N   0  0  0  0  0  0  0  0  0  0  0  0
   -4.3110   -0.0340    1.5800 C   0  0  0  0  0  0  0  0  0  0  0  0
   -3.2950    0.9540    1.0350 C   0  0  0  0  0  0  0  0  0  0  0  0
    0.9630   -0.3720   -1.5260 C   0  0  0  0  0  0  0  0  0  0  0  0
    0.6470   -1.4630   -0.9640 N   0  0  0  0  0  0  0  0  0  0  0  0
    0.7380   -2.6600   -1.7490 C   0  0  0  0  0  0  0  0  0  0  0  0
   -0.2230   -2.9930   -2.4830 O   0  0  0  0  0  0  0  0  0  0  0  0
    1.9380   -3.4830   -1.6970 C   0  0  0  0  0  0  0  0  0  0  0  0
    2.0140   -4.6280   -2.4630 C   0  0  0  0  0  0  0  0  0  0  0  0
    3.1350   -5.4140   -2.4250 C   0  0  0  0  0  0  0  0  0  0  0  0
    4.1720   -5.0960   -1.6550 N   0  0  0  0  0  0  0  0  0  0  0  0
    4.1510   -3.9960   -0.8920 C   0  0  0  0  0  0  0  0  0  0  0  0
    3.0330   -3.1900   -0.9130 C   0  0  0  0  0  0  0  0  0  0  0  0
    1.5980   -0.1370   -3.1840 S   0  0  0  0  0  0  0  0  0  0  0  0
    2.4240    1.3500   -2.7620 C   0  0  0  0  0  0  0  0  0  0  0  0
    3.2400    2.2050   -3.1990 N   0  0  0  0  0  0  0  0  0  0  0  0
  1  2  1  0
  2  3  2  0
  2 33  1  0
  3  4  1  0
  3  5  1  0
  5  6  2  0
  5 32  1  0
  6  7  1  0
  6 21  1  0
  7  8  1  0
  8  9  2  0
  8 10  1  0
 11 10  1  6
 11 12  1  0
 11 20  1  0
 12 13  1  0
 13 14  1  0
 14 15  2  0
 14 19  1  0
 15 16  1  0
 16 17  2  0
 17 18  1  0
 18 19  2  0
 19 20  1  0
 21 22  2  3
 21 31  1  0
 22 23  1  0
 23 24  2  0
 23 25  1  0
 25 26  2  0
 25 30  1  0
 26 27  1  0
 27 28  2  0
 28 29  1  0
 29 30  2  0
 31 32  1  0
 32 33  2  0
M  CHG  1  11   1
M  END
