
     RDKit          3D

 32 35  0  0  0  0  0  0  0  0999 V2000
    8.5380    4.3760    0.9110 C   0  0  0  0  0  0  0  0  0  0  0  0
    7.7870    3.4220    0.0650 C   0  0  0  0  0  0  0  0  0  0  0  0
    7.6240    3.7110   -1.1490 O   0  0  0  0  0  0  0  0  0  0  0  0
    7.2880    2.2370    0.6480 N   0  0  0  0  0  0  0  0  0  0  0  0
    6.5820    1.3140   -0.0940 N   0  0  0  0  0  0  0  0  0  0  0  0
    5.6470    0.5690    0.3600 C   0  0  0  0  0  0  0  0  0  0  0  0
    4.9690   -0.3710   -0.5180 C   0  0  0  0  0  0  0  0  0  0  0  0
    5.3370   -0.4610   -1.8540 C   0  0  0  0  0  0  0  0  0  0  0  0
    4.7170   -1.3380   -2.7030 C   0  0  0  0  0  0  0  0  0  0  0  0
    3.7150   -2.1340   -2.2130 C   0  0  0  0  0  0  0  0  0  0  0  0
    3.3100   -2.0840   -0.8940 C   0  0  0  0  0  0  0  0  0  0  0  0
    2.2630   -2.9420   -0.4490 N   0  0  0  0  0  0  0  0  0  0  0  0
    2.2730   -4.2650   -0.3030 C   0  0  0  0  0  0  0  0  0  0  0  0
    1.0630   -4.7280    0.1550 C   0  0  0  0  0  0  0  0  0  0  0  0
    0.2930   -3.6050    0.2850 N   0  0  0  0  0  0  0  0  0  0  0  0
    1.0060   -2.5260   -0.0760 C   0  0  0  0  0  0  0  0  0  0  0  0
    0.6090   -1.0940   -0.1080 C   0  0  0  0  0  0  0  0  0  0  0  0
   -0.6930   -0.8820    0.4010 N   0  0  1  0  0  0  0  0  0  0  0  0
   -0.6950   -0.1980    1.6950 C   0  0  0  0  0  0  0  0  0  0  0  0
   -2.0600   -0.3280    2.2650 C   0  0  0  0  0  0  0  0  0  0  0  0
   -3.1530   -0.1610    1.3950 N   0  0  0  0  0  0  0  0  0  0  0  0
   -4.1840    0.6880    1.8870 C   0  0  0  0  0  0  0  0  0  0  0  0
   -5.3400    0.8670    0.9930 C   0  0  0  0  0  0  0  0  0  0  0  0
   -5.3830    1.9570    0.1520 C   0  0  0  0  0  0  0  0  0  0  0  0
   -6.4690    2.1540   -0.7080 C   0  0  0  0  0  0  0  0  0  0  0  0
   -7.5130    1.2810   -0.7420 C   0  0  0  0  0  0  0  0  0  0  0  0
   -8.6770    1.4920   -1.6620 C   0  0  0  0  0  0  0  0  0  0  0  0
   -7.4890    0.1760    0.0990 C   0  0  0  0  0  0  0  0  0  0  0  0
   -6.4130   -0.0050    0.9400 C   0  0  0  0  0  0  0  0  0  0  0  0
   -2.9480   -0.2340    0.0120 C   0  0  0  0  0  0  0  0  0  0  0  0
   -1.5250   -0.0480   -0.4530 C   0  0  0  0  0  0  0  0  0  0  0  0
    3.9490   -1.1940   -0.0550 C   0  0  0  0  0  0  0  0  0  0  0  0
  1  2  1  0
  2  3  2  0
  2  4  1  0
  4  5  1  0
  5  6  2  3
  6  7  1  0
  7  8  2  0
  7 32  1  0
  8  9  1  0
  9 10  2  0
 10 11  1  0
 11 12  1  0
 11 32  2  0
 12 13  1  0
 12 16  1  0
 13 14  2  0
 14 15  1  0
 15 16  2  0
 16 17  1  0
 18 17  1  6
 18 19  1  0
 18 31  1  0
 19 20  1  0
 20 21  1  0
 21 22  1  0
 21 30  1  0
 22 23  1  0
 23 24  2  0
 23 29  1  0
 24 25  1  0
 25 26  2  0
 26 27  1  0
 26 28  1  0
 28 29  2  0
 30 31  1  0
M  CHG  2  15   1  18   1
M  END
