
     RDKit          3D

 33 38  0  0  0  0  0  0  0  0999 V2000
   -3.3570   -4.2660    1.8590 N   0  0  0  0  0  0  0  0  0  0  0  0
   -4.0150   -3.0210    2.0560 C   0  0  0  0  0  0  0  0  0  0  0  0
   -5.1450   -3.0070    2.6630 N   0  0  0  0  0  0  0  0  0  0  0  0
   -3.3760   -1.7990    1.5580 C   0  0  0  0  0  0  0  0  0  0  0  0
   -2.1540   -1.8760    0.9090 C   0  0  0  0  0  0  0  0  0  0  0  0
   -1.5220   -0.7550    0.4270 C   0  0  0  0  0  0  0  0  0  0  0  0
   -2.0740    0.5010    0.5650 C   0  0  0  0  0  0  0  0  0  0  0  0
   -1.4550    1.7310    0.0780 C   0  0  1  0  0  0  0  0  0  0  0  0
   -0.3970    2.2790    0.9740 C   0  0  1  0  0  0  0  0  0  0  0  0
    0.4910    1.2700    1.5820 C   0  0  0  0  0  0  0  0  0  0  0  0
    0.1060    0.3550    2.3520 O   0  0  0  0  0  0  0  0  0  0  0  0
    1.8410    1.4640    1.1850 N   0  0  0  0  0  0  0  0  0  0  0  0
    3.0280    0.7510    1.5920 C   0  0  0  0  0  0  0  0  0  0  0  0
    3.2990   -0.4140    0.6930 C   0  0  0  0  0  0  0  0  0  0  0  0
    2.4940   -0.7030   -0.3790 C   0  0  0  0  0  0  0  0  0  0  0  0
    2.8020   -1.7910   -1.1640 C   0  0  0  0  0  0  0  0  0  0  0  0
    3.8990   -2.5970   -0.9010 C   0  0  0  0  0  0  0  0  0  0  0  0
    4.7230   -2.3200    0.1770 C   0  0  0  0  0  0  0  0  0  0  0  0
    4.3860   -1.2240    0.9410 C   0  0  0  0  0  0  0  0  0  0  0  0
    5.7350   -3.2740    0.2090 O   0  0  0  0  0  0  0  0  0  0  0  0
    5.7290   -3.8940   -1.0780 C   0  0  0  0  0  0  0  0  0  0  0  0
    4.3990   -3.7220   -1.5360 O   0  0  0  0  0  0  0  0  0  0  0  0
    1.8580    2.5440    0.2600 C   0  0  0  0  0  0  0  0  0  0  0  0
    2.8810    3.0280   -0.2980 O   0  0  0  0  0  0  0  0  0  0  0  0
    0.4850    3.0500    0.0220 C   0  0  1  0  0  0  0  0  0  0  0  0
    0.0570    2.6700   -1.3550 C   0  0  2  0  0  0  0  0  0  0  0  0
   -0.7050    3.7990   -2.0170 C   0  0  0  0  0  0  0  0  0  0  0  0
   -1.4660    3.0110   -3.0920 C   0  0  1  0  0  0  0  0  0  0  0  0
   -0.5000    2.6480   -4.0410 O   0  0  0  0  0  0  0  0  0  0  0  0
   -1.9000    1.8080   -2.2800 C   0  0  0  0  0  0  0  0  0  0  0  0
   -0.9040    1.6160   -1.2520 N   0  0  2  0  0  0  0  0  0  0  0  0
   -3.2860    0.5640    1.2100 C   0  0  0  0  0  0  0  0  0  0  0  0
   -3.9420   -0.5580    1.7050 C   0  0  0  0  0  0  0  0  0  0  0  0
  1  2  1  0
  2  3  2  0
  2  4  1  0
  4  5  2  0
  4 33  1  0
  5  6  1  0
  6  7  2  0
  8  7  1  1
  7 32  1  0
  8  9  1  0
  8 31  1  0
  9 10  1  6
  9 25  1  0
 10 11  2  0
 10 12  1  0
 12 13  1  0
 12 23  1  0
 13 14  1  0
 14 15  2  0
 14 19  1  0
 15 16  1  0
 16 17  2  0
 17 18  1  0
 17 22  1  0
 18 19  2  0
 18 20  1  0
 20 21  1  0
 21 22  1  0
 23 24  2  0
 25 23  1  1
 25 26  1  0
 26 27  1  1
 26 31  1  0
 27 28  1  0
 28 29  1  6
 28 30  1  0
 31 30  1  6
 32 33  2  0
M  CHG  2   3   1  31   1
M  END
