
     RDKit          3D

 32 35  0  0  0  0  0  0  0  0999 V2000
   -3.5680   -4.0260    1.5520 C   0  0  0  0  0  0  0  0  0  0  0  0
   -4.4110   -3.2830    2.5700 C   0  0  0  0  0  0  0  0  0  0  0  0
   -5.3850   -2.5000    1.8500 N   0  0  0  0  0  0  0  0  0  0  0  0
   -5.0090   -1.4560    1.2000 C   0  0  0  0  0  0  0  0  0  0  0  0
   -5.9360   -0.6280    0.4570 C   0  0  0  0  0  0  0  0  0  0  0  0
   -5.5470    0.4300   -0.2020 C   0  0  0  0  0  0  0  0  0  0  0  0
   -6.5850    1.2170   -0.9360 C   0  0  0  0  0  0  0  0  0  0  0  0
   -4.1220    0.8260   -0.2120 C   0  0  0  0  0  0  0  0  0  0  0  0
   -3.7680    1.8380   -0.8490 N   0  0  0  0  0  0  0  0  0  0  0  0
   -4.3030    2.8190   -1.6330 C   0  0  0  0  0  0  0  0  0  0  0  0
   -5.0120    3.9770   -1.3170 C   0  0  0  0  0  0  0  0  0  0  0  0
   -5.3260    4.6690   -2.4130 N   0  0  0  0  0  0  0  0  0  0  0  0
   -4.8240    3.9650   -3.4410 C   0  0  0  0  0  0  0  0  0  0  0  0
   -4.2120    2.8620   -3.0010 N   0  0  0  0  0  0  0  0  0  0  0  0
   -3.1530    0.0230    0.5230 C   0  0  0  0  0  0  0  0  0  0  0  0
   -1.7440    0.3170    0.5940 C   0  0  0  0  0  0  0  0  0  0  0  0
   -1.1400    1.3110    0.0210 C   0  0  0  0  0  0  0  0  0  0  0  0
    0.2280    1.7130    0.0100 C   0  0  0  0  0  0  0  0  0  0  0  0
    0.4540    2.8010   -0.6930 O   0  0  0  0  0  0  0  0  0  0  0  0
    1.3190    1.1250    0.6270 N   0  0  0  0  0  0  0  0  0  0  0  0
    1.3700   -0.0620    1.4170 C   0  0  0  0  0  0  0  0  0  0  0  0
    2.8320   -0.3660    1.7450 C   0  0  0  0  0  0  0  0  0  0  0  0
    3.5580   -0.4930    0.3850 C   0  0  2  0  0  0  0  0  0  0  0  0
    4.9370   -0.9630    0.5960 C   0  0  0  0  0  0  0  0  0  0  0  0
    5.7430   -1.1850   -0.6150 C   0  0  2  0  0  0  0  0  0  0  0  0
    7.1580   -1.6930   -0.2000 C   0  0  0  0  0  0  0  0  0  0  0  0
    8.0220   -1.3640   -1.3880 C   0  0  0  0  0  0  0  0  0  0  0  0
    7.0550   -0.7860   -2.3910 C   0  0  0  0  0  0  0  0  0  0  0  0
    6.0890   -0.1190   -1.4660 N   0  0  0  0  0  0  0  0  0  0  0  0
    3.5410    0.8770   -0.2710 C   0  0  0  0  0  0  0  0  0  0  0  0
    2.6110    1.8250    0.4680 C   0  0  0  0  0  0  0  0  0  0  0  0
   -3.6200   -1.0630    1.1850 C   0  0  0  0  0  0  0  0  0  0  0  0
  1  2  1  0
  2  3  1  0
  3  4  2  3
  4  5  1  0
  4 32  1  0
  5  6  2  0
  6  7  1  0
  6  8  1  0
  8  9  2  3
  8 15  1  0
  9 10  1  0
 10 11  2  0
 10 14  1  0
 11 12  1  0
 12 13  1  0
 13 14  2  0
 15 16  1  0
 15 32  2  0
 16 17  2  3
 17 18  1  0
 18 19  2  0
 18 20  1  0
 20 21  1  0
 20 31  1  0
 21 22  1  0
 22 23  1  0
 23 24  1  1
 23 30  1  0
 25 24  1  1
 25 26  1  0
 25 29  1  0
 26 27  1  0
 27 28  1  0
 28 29  1  0
 30 31  1  0
M  CHG  2   3   1  29   1
M  END
