
     RDKit          3D

 33 37  0  0  0  0  0  0  0  0999 V2000
   -2.4540    1.3650   -0.9870 O   0  0  0  0  0  0  0  0  0  0  0  0
   -3.3270    0.5510   -1.2930 C   0  0  0  0  0  0  0  0  0  0  0  0
   -3.1720   -0.9050   -1.3840 C   0  0  0  0  0  0  0  0  0  0  0  0
   -2.0820   -1.5490   -1.1500 C   0  0  0  0  0  0  0  0  0  0  0  0
   -0.7580   -0.9590   -0.7330 C   0  0  0  0  0  0  0  0  0  0  0  0
   -0.4580   -2.0420    0.3530 C   0  0  2  0  0  0  0  0  0  0  0  0
    1.0150   -2.0270    0.6120 C   0  0  0  0  0  0  0  0  0  0  0  0
    1.4960   -0.7530    1.0910 N   0  0  0  0  0  0  0  0  0  0  0  0
    2.8950   -0.6370    1.3560 C   0  0  0  0  0  0  0  0  0  0  0  0
    3.6100   -1.6570    1.1490 O   0  0  0  0  0  0  0  0  0  0  0  0
    3.5120    0.5230    1.8240 N   0  0  0  0  0  0  0  0  0  0  0  0
    4.9460    0.5590    2.0600 C   0  0  1  0  0  0  0  0  0  0  0  0
    5.5190    1.4300    0.9860 C   0  0  0  0  0  0  0  0  0  0  0  0
    6.9640    1.7410    1.4300 C   0  0  0  0  0  0  0  0  0  0  0  0
    6.6930    2.6190    2.6500 C   0  0  0  0  0  0  0  0  0  0  0  0
    7.2610    4.1910    3.1360 S   0  0  0  0  0  0  0  0  0  0  0  0
    6.2990    4.2370    4.6720 C   0  0  0  0  0  0  0  0  0  0  0  0
    5.6670    3.0710    4.6390 N   0  0  0  0  0  0  0  0  0  0  0  0
    5.8580    2.2520    3.6290 C   0  0  0  0  0  0  0  0  0  0  0  0
    5.2220    0.8810    3.4570 C   0  0  0  0  0  0  0  0  0  0  0  0
   -0.9010   -3.2180   -0.3260 N   0  0  0  0  0  0  0  0  0  0  0  0
   -1.8390   -2.9770   -1.2090 C   0  0  0  0  0  0  0  0  0  0  0  0
   -2.4670   -4.0000   -2.0410 C   0  0  0  0  0  0  0  0  0  0  0  0
   -3.3820   -3.7620   -3.0030 C   0  0  0  0  0  0  0  0  0  0  0  0
   -3.9600   -4.8370   -3.7100 C   0  0  0  0  0  0  0  0  0  0  0  0
   -3.6300   -6.1020   -3.4600 N   0  0  0  0  0  0  0  0  0  0  0  0
   -2.7210   -6.3600   -2.5080 C   0  0  0  0  0  0  0  0  0  0  0  0
   -2.1380   -5.3440   -1.8000 C   0  0  0  0  0  0  0  0  0  0  0  0
   -4.6210    1.0830   -1.5890 N   0  0  0  0  0  0  0  0  0  0  0  0
   -4.8700    2.5080   -1.5310 C   0  0  2  0  0  0  0  0  0  0  0  0
   -6.1210    2.8520   -0.7510 C   0  0  0  0  0  0  0  0  0  0  0  0
   -6.4110    3.9100   -1.8250 C   0  0  0  0  0  0  0  0  0  0  0  0
   -5.5700    3.0600   -2.7540 C   0  0  0  0  0  0  0  0  0  0  0  0
  1  2  2  0
  2  3  1  0
  2 29  1  0
  3  4  2  3
  4  5  1  0
  4 22  1  0
  5  6  1  0
  6  7  1  6
  6 21  1  0
  7  8  1  0
  8  9  1  0
  9 10  2  0
  9 11  1  0
 12 11  1  1
 12 13  1  0
 12 20  1  0
 13 14  1  0
 14 15  1  0
 15 16  1  0
 15 19  2  0
 16 17  1  0
 17 18  2  0
 18 19  1  0
 19 20  1  0
 21 22  2  0
 22 23  1  0
 23 24  2  0
 23 28  1  0
 24 25  1  0
 25 26  2  0
 26 27  1  0
 27 28  2  0
 30 29  1  6
 30 31  1  0
 30 33  1  0
 31 32  1  0
 32 33  1  0
M  CHG  1  18   1
M  END
