
     RDKit          3D

 32 36  0  0  0  0  0  0  0  0999 V2000
    8.8080    0.1720   -2.7590 C   0  0  0  0  0  0  0  0  0  0  0  0
    7.5870    0.3690   -2.2840 C   0  0  0  0  0  0  0  0  0  0  0  0
    6.9580   -0.6230   -1.4100 C   0  0  0  0  0  0  0  0  0  0  0  0
    5.7410   -0.4150   -0.9420 C   0  0  0  0  0  0  0  0  0  0  0  0
    4.9730   -1.1700   -0.1380 N   0  0  0  0  0  0  0  0  0  0  0  0
    3.7970   -0.5650    0.0810 C   0  0  0  0  0  0  0  0  0  0  0  0
    2.7220   -1.1400    0.9310 C   0  0  1  0  0  0  0  0  0  0  0  0
    2.4900   -0.1690    2.0690 C   0  0  0  0  0  0  0  0  0  0  0  0
    1.1160   -0.6570    2.5320 C   0  0  0  0  0  0  0  0  0  0  0  0
    0.3910   -0.8310    1.2430 N   0  0  0  0  0  0  0  0  0  0  0  0
   -0.9950   -0.6460    1.1970 C   0  0  0  0  0  0  0  0  0  0  0  0
   -1.5520   -0.2600    2.3090 O   0  0  0  0  0  0  0  0  0  0  0  0
   -1.8990   -0.8020    0.1400 N   0  0  0  0  0  0  0  0  0  0  0  0
   -1.6010   -1.3370   -1.1720 C   0  0  0  0  0  0  0  0  0  0  0  0
   -1.9060   -2.7800   -1.3100 C   0  0  0  0  0  0  0  0  0  0  0  0
   -1.2330   -3.7460   -0.4210 C   0  0  0  0  0  0  0  0  0  0  0  0
   -1.7800   -5.1560   -0.7680 C   0  0  0  0  0  0  0  0  0  0  0  0
   -3.2990   -0.3640    0.4120 C   0  0  0  0  0  0  0  0  0  0  0  0
   -3.4650    1.0830    0.0450 C   0  0  0  0  0  0  0  0  0  0  0  0
   -4.9060    1.4510    0.3480 C   0  0  1  0  0  0  0  0  0  0  0  0
   -5.3480    1.3020    1.7370 C   0  0  0  0  0  0  0  0  0  0  0  0
   -5.5640    2.7630    1.7240 C   0  0  0  0  0  0  0  0  0  0  0  0
   -5.9650    3.9310    2.4000 C   0  0  0  0  0  0  0  0  0  0  0  0
   -5.9550    5.1380    1.8260 N   0  0  0  0  0  0  0  0  0  0  0  0
   -5.5430    5.2330    0.5540 C   0  0  0  0  0  0  0  0  0  0  0  0
   -5.1380    4.1440   -0.1670 C   0  0  0  0  0  0  0  0  0  0  0  0
   -5.1540    2.8950    0.4400 C   0  0  0  0  0  0  0  0  0  0  0  0
    1.3770   -1.1340    0.2350 C   0  0  0  0  0  0  0  0  0  0  0  0
    3.8370    0.5770   -0.5940 N   0  0  0  0  0  0  0  0  0  0  0  0
    5.0120    0.7150   -1.2410 C   0  0  0  0  0  0  0  0  0  0  0  0
    5.5160    1.6280   -2.0090 N   0  0  0  0  0  0  0  0  0  0  0  0
    6.8090    1.5910   -2.6110 C   0  0  0  0  0  0  0  0  0  0  0  0
  1  2  2  0
  2  3  1  0
  2 32  1  0
  3  4  2  0
  4  5  1  0
  4 30  1  0
  5  6  2  0
  7  6  1  6
  6 29  1  0
  7  8  1  0
  7 28  1  0
  8  9  1  0
  9 10  1  0
 10 11  1  0
 10 28  1  0
 11 12  2  0
 11 13  1  0
 13 14  1  0
 13 18  1  0
 14 15  1  0
 15 16  1  0
 16 17  1  0
 18 19  1  0
 20 19  1  1
 20 21  1  0
 20 27  1  0
 21 22  1  0
 22 23  2  0
 22 27  1  0
 23 24  1  0
 24 25  2  0
 25 26  1  0
 26 27  2  0
 29 30  1  0
 30 31  2  0
 31 32  1  0
M  CHG  2   5   1  24   1
M  END
