
     RDKit          3D

 20 20  0  0  0  0  0  0  0  0999 V2000
   -2.9730    1.9970   -0.2490 O   0  0  0  0  0  0  0  0  0  0  0  0
   -3.5340    1.5090    0.7240 C   0  0  0  0  0  0  0  0  0  0  0  0
   -3.4610    0.1410    0.9840 N   0  0  0  0  0  0  0  0  0  0  0  0
   -2.7900   -0.8250    0.2420 C   0  0  0  0  0  0  0  0  0  0  0  0
   -1.3380   -0.7800    0.0190 C   0  0  1  0  0  0  0  0  0  0  0  0
   -0.6430   -0.7190    1.2250 O   0  0  0  0  0  0  0  0  0  0  0  0
   -0.9010   -2.2030   -0.4920 C   0  0  0  0  0  0  0  0  0  0  0  0
    0.6010   -2.2700   -0.3520 C   0  0  0  0  0  0  0  0  0  0  0  0
    1.2230   -1.3320   -1.3180 C   0  0  2  0  0  0  0  0  0  0  0  0
    1.7970   -2.1130   -2.3640 O   0  0  0  0  0  0  0  0  0  0  0  0
    2.3820   -0.5270   -0.7710 C   0  0  0  0  0  0  0  0  0  0  0  0
    2.0640    0.3180    0.2580 O   0  0  0  0  0  0  0  0  0  0  0  0
    3.2240    0.9830    0.6490 C   0  0  0  0  0  0  0  0  0  0  0  0
    2.9420    1.9430    1.7950 C   0  0  0  0  0  0  0  0  0  0  0  0
    2.4480    1.2670    2.8890 O   0  0  0  0  0  0  0  0  0  0  0  0
    0.2030   -0.4800   -1.9700 C   0  0  2  0  0  0  0  0  0  0  0  0
    0.8280    0.6090   -2.6200 O   0  0  0  0  0  0  0  0  0  0  0  0
   -0.8510    0.1160   -1.0650 C   0  0  0  0  0  0  0  0  0  0  0  0
   -4.2410    2.4100    1.5390 O   0  0  0  0  0  0  0  0  0  0  0  0
   -4.2800    3.7160    1.2440 O   0  0  0  0  0  0  0  0  0  0  0  0
  1  2  2  0
  2  3  1  0
  2 19  1  0
  3  4  1  0
  4  5  1  0
  5  6  1  1
  5  7  1  0
  5 18  1  0
  7  8  1  0
  8  9  1  0
  9 10  1  6
  9 11  1  0
  9 16  1  0
 11 12  1  0
 12 13  1  0
 13 14  1  0
 14 15  1  0
 16 17  1  1
 16 18  1  0
 19 20  1  0
M  END
