
     RDKit          3D

 19 19  0  0  0  0  0  0  0  0999 V2000
   -1.5740    0.7970    1.3900 C   0  0  0  0  0  0  0  0  0  0  0  0
   -1.3790    0.0290    0.1070 C   0  0  2  0  0  0  0  0  0  0  0  0
   -1.8950    0.7810   -1.0900 C   0  0  1  0  0  0  0  0  0  0  0  0
   -1.8270    0.0040   -2.2430 O   0  0  0  0  0  0  0  0  0  0  0  0
   -3.3530    1.1270   -0.8890 C   0  0  0  0  0  0  0  0  0  0  0  0
   -3.6090    1.9040    0.2100 O   0  0  0  0  0  0  0  0  0  0  0  0
   -2.2270   -1.0960    0.1830 O   0  0  0  0  0  0  0  0  0  0  0  0
   -2.0070   -1.8560    1.2950 C   0  0  0  0  0  0  0  0  0  0  0  0
   -0.7460   -2.0140    1.7410 O   0  0  0  0  0  0  0  0  0  0  0  0
    0.2800   -1.3290    1.2240 C   0  0  0  0  0  0  0  0  0  0  0  0
   -0.0100   -0.5250   -0.0440 C   0  0  1  0  0  0  0  0  0  0  0  0
   -0.0250   -1.5350   -1.1660 C   0  0  0  0  0  0  0  0  0  0  0  0
    1.0860    0.4830   -0.1670 C   0  0  2  0  0  0  0  0  0  0  0  0
    0.9510    1.3280   -1.2600 O   0  0  0  0  0  0  0  0  0  0  0  0
    2.4540   -0.1490   -0.2530 C   0  0  0  0  0  0  0  0  0  0  0  0
    3.5130    0.8400   -0.2280 N   0  0  0  0  0  0  0  0  0  0  0  0
    4.8680    0.4920   -0.2960 C   0  0  0  0  0  0  0  0  0  0  0  0
    5.1760   -0.7190   -0.3810 O   0  0  0  0  0  0  0  0  0  0  0  0
    5.8970    1.4390   -0.2720 O   0  0  0  0  0  0  0  0  0  0  0  0
  2  1  1  1
  2  3  1  0
  2  7  1  0
  2 11  1  0
  3  4  1  6
  3  5  1  0
  5  6  1  0
  7  8  1  0
  8  9  1  0
  9 10  1  0
 10 11  1  0
 11 12  1  6
 11 13  1  0
 13 14  1  6
 13 15  1  0
 15 16  1  0
 16 17  1  0
 17 18  2  0
 17 19  1  0
M  END
