
     RDKit          3D

 20 20  0  0  0  0  0  0  0  0999 V2000
    2.8770   -0.9840   -0.9990 O   0  0  0  0  0  0  0  0  0  0  0  0
    2.5740   -0.6460    0.1520 C   0  0  0  0  0  0  0  0  0  0  0  0
    1.2040   -0.5000    0.5070 N   0  0  0  0  0  0  0  0  0  0  0  0
    0.1250   -0.7340   -0.4330 C   0  0  0  0  0  0  0  0  0  0  0  0
   -1.1790   -0.4820    0.2900 C   0  0  1  0  0  0  0  0  0  0  0  0
   -1.2000   -1.3930    1.3710 O   0  0  0  0  0  0  0  0  0  0  0  0
   -1.1830    0.9210    0.7760 C   0  0  0  0  0  0  0  0  0  0  0  0
   -2.5160    1.5350    1.0270 C   0  0  1  0  0  0  0  0  0  0  0  0
   -2.9040    2.3670   -0.0220 O   0  0  0  0  0  0  0  0  0  0  0  0
   -3.5160    0.3980    1.2160 C   0  0  0  0  0  0  0  0  0  0  0  0
   -3.6450   -0.2580   -0.1410 C   0  0  0  0  0  0  0  0  0  0  0  0
   -2.3370   -0.8570   -0.6020 C   0  0  2  0  0  0  0  0  0  0  0  0
   -2.5050   -2.2490   -0.4770 O   0  0  0  0  0  0  0  0  0  0  0  0
   -2.0830   -0.5710   -2.0210 C   0  0  0  0  0  0  0  0  0  0  0  0
   -2.0510   -1.4830   -2.8650 O   0  0  0  0  0  0  0  0  0  0  0  0
   -1.8750    0.7260   -2.4320 O   0  0  0  0  0  0  0  0  0  0  0  0
    3.5580   -0.4140    1.0700 O   0  0  0  0  0  0  0  0  0  0  0  0
    4.9410   -0.5290    0.8230 C   0  0  0  0  0  0  0  0  0  0  0  0
    5.3720    0.4120   -0.2710 C   0  0  0  0  0  0  0  0  0  0  0  0
    5.0830    1.7250    0.1290 O   0  0  0  0  0  0  0  0  0  0  0  0
  1  2  2  0
  2  3  1  0
  2 17  1  0
  3  4  1  0
  4  5  1  0
  5  6  1  1
  5  7  1  0
  5 12  1  0
  7  8  1  0
  8  9  1  6
  8 10  1  0
 10 11  1  0
 11 12  1  0
 12 13  1  6
 12 14  1  0
 14 15  2  0
 14 16  1  0
 17 18  1  0
 18 19  1  0
 19 20  1  0
M  END
