
     RDKit          3D

 20 20  0  0  0  0  0  0  0  0999 V2000
   -1.4230   -3.8650    0.4400 C   0  0  0  0  0  0  0  0  0  0  0  0
   -1.2220   -2.4050    0.7130 C   0  0  0  0  0  0  0  0  0  0  0  0
   -1.2040   -1.9850    1.9040 O   0  0  0  0  0  0  0  0  0  0  0  0
   -1.0480   -1.4510   -0.3090 N   0  0  0  0  0  0  0  0  0  0  0  0
   -0.8550   -0.0450   -0.0180 C   0  0  2  0  0  0  0  0  0  0  0  0
   -2.0960    0.6360   -0.6140 C   0  0  1  0  0  0  0  0  0  0  0  0
   -3.2490   -0.0060   -0.2440 O   0  0  0  0  0  0  0  0  0  0  0  0
   -2.0270    2.0420   -0.0750 C   0  0  0  0  0  0  0  0  0  0  0  0
   -0.8730    2.6450   -0.3530 C   0  0  0  0  0  0  0  0  0  0  0  0
   -0.6870    4.0060    0.1160 C   0  0  0  0  0  0  0  0  0  0  0  0
    0.3820    4.6140   -0.1230 O   0  0  0  0  0  0  0  0  0  0  0  0
   -1.6810    4.6740    0.8390 O   0  0  0  0  0  0  0  0  0  0  0  0
    0.0460    1.9090   -1.0680 O   0  0  0  0  0  0  0  0  0  0  0  0
    0.3530    0.5590   -0.6700 C   0  0  1  0  0  0  0  0  0  0  0  0
    1.5240    0.6850    0.2460 C   0  0  2  0  0  0  0  0  0  0  0  0
    2.5740    1.3000   -0.4450 O   0  0  0  0  0  0  0  0  0  0  0  0
    2.0640   -0.5960    0.8010 C   0  0  2  0  0  0  0  0  0  0  0  0
    3.1100   -0.2020    1.6800 O   0  0  0  0  0  0  0  0  0  0  0  0
    2.7990   -1.4030   -0.2790 C   0  0  0  0  0  0  0  0  0  0  0  0
    1.9120   -1.8600   -1.2140 O   0  0  0  0  0  0  0  0  0  0  0  0
  1  2  1  0
  2  3  2  0
  2  4  1  0
  5  4  1  6
  5  6  1  0
  5 14  1  0
  6  7  1  1
  6  8  1  0
  8  9  2  0
  9 10  1  0
  9 13  1  0
 10 11  2  0
 10 12  1  0
 14 13  1  1
 14 15  1  0
 15 16  1  6
 15 17  1  0
 17 18  1  1
 17 19  1  0
 19 20  1  0
M  END
