
     RDKit          3D

 19 19  0  0  0  0  0  0  0  0999 V2000
   -0.0970   -1.7670    1.3690 C   0  0  0  0  0  0  0  0  0  0  0  0
    0.1570   -0.5250    0.5240 C   0  0  1  0  0  0  0  0  0  0  0  0
    0.1260    0.5480    1.4010 O   0  0  0  0  0  0  0  0  0  0  0  0
    1.5580   -0.6170   -0.1140 C   0  0  2  0  0  0  0  0  0  0  0  0
    2.5920   -1.0480    0.8610 C   0  0  0  0  0  0  0  0  0  0  0  0
    3.2580    0.0670    1.4100 O   0  0  0  0  0  0  0  0  0  0  0  0
    3.9460    0.6200    0.3080 C   0  0  2  0  0  0  0  0  0  0  0  0
    4.8130    1.6670    0.8100 N   0  0  0  0  0  0  0  0  0  0  0  0
    2.9570    1.1640   -0.6610 C   0  0  0  0  0  0  0  0  0  0  0  0
    1.7780    0.5420   -0.7680 O   0  0  0  0  0  0  0  0  0  0  0  0
   -0.8390   -0.3390   -0.5520 C   0  0  1  0  0  0  0  0  0  0  0  0
   -0.7780   -1.4190   -1.4850 O   0  0  0  0  0  0  0  0  0  0  0  0
   -2.2860   -0.2760   -0.1530 C   0  0  2  0  0  0  0  0  0  0  0  0
   -3.1220   -0.0910   -1.4470 C   0  0  0  0  0  0  0  0  0  0  0  0
   -2.7760    1.0710   -2.1000 O   0  0  0  0  0  0  0  0  0  0  0  0
   -2.6300    0.9330    0.6790 C   0  0  0  0  0  0  0  0  0  0  0  0
   -4.0580    0.9800    1.0760 C   0  0  0  0  0  0  0  0  0  0  0  0
   -4.5220    2.0230    1.6180 O   0  0  0  0  0  0  0  0  0  0  0  0
   -4.9440   -0.0610    0.8950 O   0  0  0  0  0  0  0  0  0  0  0  0
  2  1  1  1
  2  3  1  0
  2  4  1  0
  2 11  1  0
  4  5  1  1
  4 10  1  0
  5  6  1  0
  6  7  1  0
  7  8  1  1
  7  9  1  0
  9 10  1  0
 11 12  1  6
 11 13  1  0
 13 14  1  6
 13 16  1  0
 14 15  1  0
 16 17  1  0
 17 18  2  0
 17 19  1  0
M  END
