
     RDKit          3D

 31 34  0  0  0  0  0  0  0  0999 V2000
   -4.6840   -2.9040    0.9820 C   0  0  0  0  0  0  0  0  0  0  0  0
   -2.9420   -3.0180    1.2180 S   0  0  2  0  0  0  0  0  0  0  0  0
   -2.3510   -3.3200   -0.1560 O   0  0  0  0  0  0  0  0  0  0  0  0
   -2.6120   -4.1620    2.1600 O   0  0  0  0  0  0  0  0  0  0  0  0
   -2.2760   -1.5050    1.7990 C   0  0  0  0  0  0  0  0  0  0  0  0
   -2.5160   -0.4080    0.7830 C   0  0  0  0  0  0  0  0  0  0  0  0
   -1.5130    0.1530    0.1650 C   0  0  0  0  0  0  0  0  0  0  0  0
   -0.0500   -0.0760    0.2540 C   0  0  0  0  0  0  0  0  0  0  0  0
    0.4420   -0.9350    1.0140 O   0  0  0  0  0  0  0  0  0  0  0  0
    0.8400    0.6850   -0.5320 N   0  0  0  0  0  0  0  0  0  0  0  0
    2.2390    0.6240   -0.5890 C   0  0  0  0  0  0  0  0  0  0  0  0
    2.9420    1.3540   -1.5640 C   0  0  0  0  0  0  0  0  0  0  0  0
    4.3000    1.3290   -1.6460 C   0  0  0  0  0  0  0  0  0  0  0  0
    5.0390    0.5770   -0.7670 C   0  0  0  0  0  0  0  0  0  0  0  0
    4.3960   -0.1510    0.2000 C   0  0  0  0  0  0  0  0  0  0  0  0
    2.9890   -0.1090    0.2670 C   0  0  0  0  0  0  0  0  0  0  0  0
    5.1980   -0.9380    1.1200 C   0  0  0  0  0  0  0  0  0  0  0  0
    4.6140   -1.7520    1.8690 O   0  0  0  0  0  0  0  0  0  0  0  0
    6.6720   -0.8300    1.2200 C   0  0  0  0  0  0  0  0  0  0  0  0
    7.2460    0.1680    0.2700 C   0  0  1  0  0  0  0  0  0  0  0  0
    8.4690   -0.3600   -0.1970 O   0  0  0  0  0  0  0  0  0  0  0  0
    6.4210    0.5120   -0.8010 O   0  0  0  0  0  0  0  0  0  0  0  0
   -2.2430    1.3850   -0.9470 S   0  0  0  0  0  0  0  0  0  0  0  0
   -3.9070    1.1140   -0.4020 C   0  0  0  0  0  0  0  0  0  0  0  0
   -4.9620    1.7730   -0.8000 C   0  0  0  0  0  0  0  0  0  0  0  0
   -5.0530    2.8190   -1.7190 O   0  0  0  0  0  0  0  0  0  0  0  0
   -6.3390    3.4130   -1.6410 C   0  0  0  0  0  0  0  0  0  0  0  0
   -7.1660    2.4520   -1.0070 O   0  0  0  0  0  0  0  0  0  0  0  0
   -6.3230    1.5380   -0.3420 C   0  0  0  0  0  0  0  0  0  0  0  0
   -6.7210    0.6930    0.4850 O   0  0  0  0  0  0  0  0  0  0  0  0
   -3.7940    0.0620    0.5190 N   0  0  0  0  0  0  0  0  0  0  0  0
  2  1  1  6
  2  3  2  0
  2  4  2  0
  2  5  1  0
  5  6  1  0
  6  7  2  0
  6 31  1  0
  7  8  1  0
  7 23  1  0
  8  9  2  0
  8 10  1  0
 10 11  1  0
 11 12  2  0
 11 16  1  0
 12 13  1  0
 13 14  2  0
 14 15  1  0
 14 22  1  0
 15 16  2  0
 15 17  1  0
 17 18  2  0
 17 19  1  0
 19 20  1  0
 20 21  1  6
 20 22  1  0
 23 24  1  0
 24 25  2  3
 24 31  1  0
 25 26  1  0
 25 29  1  0
 26 27  1  0
 27 28  1  0
 28 29  1  0
 29 30  2  0
M  END
