
     RDKit          3D

 29 29  0  0  0  0  0  0  0  0999 V2000
   -7.7780   -1.1860    0.8620 C   0  0  0  0  0  0  0  0  0  0  0  0
   -6.3830   -0.7300    0.3780 C   0  0  0  0  0  0  0  0  0  0  0  0
   -6.4370   -0.6590   -1.1000 C   0  0  0  0  0  0  0  0  0  0  0  0
   -5.2320   -0.2380   -1.8400 C   0  0  0  0  0  0  0  0  0  0  0  0
   -4.5560    1.3190   -1.5350 S   0  0  2  0  0  0  0  0  0  0  0  0
   -5.6710    2.3580   -1.7690 O   0  0  0  0  0  0  0  0  0  0  0  0
   -3.5790    1.6220   -2.6650 O   0  0  0  0  0  0  0  0  0  0  0  0
   -3.8940    1.6640   -0.0230 N   0  0  0  0  0  0  0  0  0  0  0  0
   -2.7670    0.8930    0.3810 C   0  0  2  0  0  0  0  0  0  0  0  0
   -2.7940    0.5230    1.8180 C   0  0  0  0  0  0  0  0  0  0  0  0
   -3.8590   -0.2370    2.2410 O   0  0  0  0  0  0  0  0  0  0  0  0
   -1.5090    1.7920    0.2780 C   0  0  0  0  0  0  0  0  0  0  0  0
   -1.7120    2.9530   -0.0950 O   0  0  0  0  0  0  0  0  0  0  0  0
   -0.2440    1.2550    0.6050 N   0  0  0  0  0  0  0  0  0  0  0  0
    0.9390    2.0810    0.5150 C   0  0  1  0  0  0  0  0  0  0  0  0
    1.7200    2.1410    1.7850 C   0  0  0  0  0  0  0  0  0  0  0  0
    1.8310    1.5070   -0.5580 C   0  0  0  0  0  0  0  0  0  0  0  0
    1.4760    0.4930   -1.2070 O   0  0  0  0  0  0  0  0  0  0  0  0
    3.0650    2.1080   -0.8360 N   0  0  0  0  0  0  0  0  0  0  0  0
    3.9990    1.6560   -1.8350 C   0  0  0  0  0  0  0  0  0  0  0  0
    4.6790    0.4500   -1.3420 C   0  0  0  0  0  0  0  0  0  0  0  0
    4.2830   -0.7970   -1.7670 C   0  0  0  0  0  0  0  0  0  0  0  0
    4.8920   -1.9370   -1.3220 C   0  0  0  0  0  0  0  0  0  0  0  0
    5.9540   -1.9030   -0.4090 C   0  0  0  0  0  0  0  0  0  0  0  0
    6.5770   -3.1340    0.0430 C   0  0  0  0  0  0  0  0  0  0  0  0
    6.0650   -4.3580   -0.4790 N   0  0  0  0  0  0  0  0  0  0  0  0
    7.5420   -3.1550    0.8680 N   0  0  0  0  0  0  0  0  0  0  0  0
    6.3330   -0.6490    0.0020 C   0  0  0  0  0  0  0  0  0  0  0  0
    5.7170    0.5200   -0.4470 C   0  0  0  0  0  0  0  0  0  0  0  0
  1  2  1  0
  2  3  1  0
  3  4  1  0
  5  4  1  1
  5  6  2  0
  5  7  2  0
  5  8  1  0
  8  9  1  0
  9 10  1  1
  9 12  1  0
 10 11  1  0
 12 13  2  0
 12 14  1  0
 14 15  1  0
 15 16  1  1
 15 17  1  0
 17 18  2  0
 17 19  1  0
 19 20  1  0
 20 21  1  0
 21 22  2  0
 21 29  1  0
 22 23  1  0
 23 24  2  0
 24 25  1  0
 24 28  1  0
 25 26  1  0
 25 27  2  0
 28 29  2  0
M  CHG  1  27   1
M  END
