
     RDKit          3D

 30 32  0  0  0  0  0  0  0  0999 V2000
   -5.6340    2.1680   -1.6740 C   0  0  0  0  0  0  0  0  0  0  0  0
   -4.8180    1.7880   -0.4370 C   0  0  0  0  0  0  0  0  0  0  0  0
   -4.4830    0.3000   -0.5980 C   0  0  0  0  0  0  0  0  0  0  0  0
   -3.4600   -0.0410   -1.4700 C   0  0  0  0  0  0  0  0  0  0  0  0
   -2.5280    0.7860   -2.2860 C   0  0  0  0  0  0  0  0  0  0  0  0
   -1.3570    1.3170   -1.5370 C   0  0  0  0  0  0  0  0  0  0  0  0
   -0.5240    0.2720   -0.9700 N   0  0  0  0  0  0  0  0  0  0  0  0
    0.1970   -0.4590   -1.9820 C   0  0  0  0  0  0  0  0  0  0  0  0
    1.2550    0.3620   -2.6570 C   0  0  0  0  0  0  0  0  0  0  0  0
    2.2440    0.8390   -1.7220 N   0  0  0  0  0  0  0  0  0  0  0  0
    3.0700    0.0050   -0.9240 C   0  0  0  0  0  0  0  0  0  0  0  0
    2.9570   -1.2230   -1.0170 O   0  0  0  0  0  0  0  0  0  0  0  0
    4.0100    0.5100   -0.0360 O   0  0  0  0  0  0  0  0  0  0  0  0
    4.8460   -0.2920    0.7680 C   0  0  1  0  0  0  0  0  0  0  0  0
    5.7130   -1.1860   -0.1180 C   0  0  0  0  0  0  0  0  0  0  0  0
    6.5090   -0.4250   -0.9610 O   0  0  0  0  0  0  0  0  0  0  0  0
    5.7960    0.6130    1.5180 C   0  0  0  0  0  0  0  0  0  0  0  0
    5.4650    0.7350    2.9710 C   0  0  0  0  0  0  0  0  0  0  0  0
    3.9810    0.8710    3.2360 C   0  0  0  0  0  0  0  0  0  0  0  0
    3.2010   -0.2610    2.6070 C   0  0  0  0  0  0  0  0  0  0  0  0
    4.0970   -1.1300    1.7480 C   0  0  0  0  0  0  0  0  0  0  0  0
   -3.4380   -1.8260   -1.3920 S   0  0  0  0  0  0  0  0  0  0  0  0
   -4.7580   -1.9900   -0.2320 C   0  0  0  0  0  0  0  0  0  0  0  0
   -5.3230   -3.1000    0.3180 N   0  0  0  0  0  0  0  0  0  0  0  0
   -6.3320   -2.9620    1.1860 C   0  0  0  0  0  0  0  0  0  0  0  0
   -6.8620   -3.9830    1.7010 O   0  0  0  0  0  0  0  0  0  0  0  0
   -6.7240   -1.7230    1.4570 N   0  0  0  0  0  0  0  0  0  0  0  0
   -6.1980   -0.6010    0.9410 C   0  0  0  0  0  0  0  0  0  0  0  0
   -6.6850    0.4720    1.3030 O   0  0  0  0  0  0  0  0  0  0  0  0
   -5.1240   -0.7170    0.0160 C   0  0  0  0  0  0  0  0  0  0  0  0
  1  2  1  0
  2  3  1  0
  3  4  2  0
  3 30  1  0
  4  5  1  0
  4 22  1  0
  5  6  1  0
  6  7  1  0
  7  8  1  0
  8  9  1  0
  9 10  1  0
 10 11  1  0
 11 12  2  0
 11 13  1  0
 13 14  1  0
 14 15  1  6
 14 17  1  0
 14 21  1  0
 15 16  1  0
 17 18  1  0
 18 19  1  0
 19 20  1  0
 20 21  1  0
 22 23  1  0
 23 24  1  0
 23 30  2  0
 24 25  1  0
 25 26  2  0
 25 27  1  0
 27 28  1  0
 28 29  2  0
 28 30  1  0
M  CHG  1   7   1
M  END
