
     RDKit          3D

 31 33  0  0  0  0  0  0  0  0999 V2000
    5.7320   -0.8580   -0.5430 C   0  0  0  0  0  0  0  0  0  0  0  0
    4.3600   -1.2500   -0.5440 O   0  0  0  0  0  0  0  0  0  0  0  0
    3.9660   -2.3680   -1.2530 C   0  0  0  0  0  0  0  0  0  0  0  0
    4.8350   -3.0120   -1.8810 O   0  0  0  0  0  0  0  0  0  0  0  0
    2.5550   -2.7860   -1.2640 C   0  0  0  0  0  0  0  0  0  0  0  0
    1.7590   -1.9110   -0.4870 O   0  0  0  0  0  0  0  0  0  0  0  0
    1.6660   -0.5870   -0.7770 C   0  0  0  0  0  0  0  0  0  0  0  0
    2.3110   -0.1340   -1.7710 O   0  0  0  0  0  0  0  0  0  0  0  0
    0.8130    0.3380    0.0650 C   0  0  0  0  0  0  0  0  0  0  0  0
    0.8330    1.6250   -0.3250 C   0  0  0  0  0  0  0  0  0  0  0  0
    0.1760    2.8250    0.1760 C   0  0  0  0  0  0  0  0  0  0  0  0
   -0.9330    3.3690   -0.2870 C   0  0  0  0  0  0  0  0  0  0  0  0
   -1.4780    4.8400    0.5770 S   0  0  0  0  0  0  0  0  0  0  0  0
    0.1200    5.5050    1.1240 C   0  0  1  0  0  0  0  0  0  0  0  0
    0.0080    6.3800    2.2450 N   0  0  0  0  0  0  0  0  0  0  0  0
    0.9010    3.9250    1.5090 S   0  0  0  0  0  0  0  0  0  0  0  0
   -1.6730    2.8770   -1.5030 C   0  0  0  0  0  0  0  0  0  0  0  0
   -2.1830    3.7390   -2.3110 O   0  0  0  0  0  0  0  0  0  0  0  0
   -1.7440    1.5150   -1.6590 O   0  0  0  0  0  0  0  0  0  0  0  0
   -2.4090    0.5990   -0.8850 C   0  0  0  0  0  0  0  0  0  0  0  0
   -2.0260   -0.7760   -1.1030 O   0  0  0  0  0  0  0  0  0  0  0  0
   -2.4450   -1.7410   -0.1400 C   0  0  0  0  0  0  0  0  0  0  0  0
   -3.2710   -2.8080   -0.5020 C   0  0  0  0  0  0  0  0  0  0  0  0
   -3.7160   -3.7520    0.3930 C   0  0  0  0  0  0  0  0  0  0  0  0
   -4.5360   -4.7980   -0.0070 O   0  0  0  0  0  0  0  0  0  0  0  0
   -3.3250   -3.6350    1.7150 C   0  0  0  0  0  0  0  0  0  0  0  0
   -2.5190   -2.6020    2.0720 C   0  0  0  0  0  0  0  0  0  0  0  0
   -2.0420   -1.6180    1.1720 C   0  0  0  0  0  0  0  0  0  0  0  0
   -1.1260   -0.6130    1.6210 N   0  0  0  0  0  0  0  0  0  0  0  0
    0.1800   -0.2670    1.2070 C   0  0  0  0  0  0  0  0  0  0  0  0
    1.1480   -0.5740    2.1260 O   0  0  0  0  0  0  0  0  0  0  0  0
  1  2  1  0
  2  3  1  0
  3  4  2  0
  3  5  1  0
  5  6  1  0
  6  7  1  0
  7  8  2  0
  7  9  1  0
  9 10  2  0
  9 30  1  0
 10 11  1  0
 11 12  2  0
 11 16  1  0
 12 13  1  0
 12 17  1  0
 13 14  1  0
 14 15  1  1
 14 16  1  0
 17 18  2  0
 17 19  1  0
 19 20  1  0
 20 21  1  0
 21 22  1  0
 22 23  2  0
 22 28  1  0
 23 24  1  0
 24 25  1  0
 24 26  2  0
 26 27  1  0
 27 28  2  0
 28 29  1  0
 29 30  1  0
 30 31  2  0
M  END
