
     RDKit          3D

 31 34  0  0  0  0  0  0  0  0999 V2000
   -4.8310    3.9680   -0.4500 C   0  0  0  0  0  0  0  0  0  0  0  0
   -3.9870    2.8620   -0.2870 O   0  0  0  0  0  0  0  0  0  0  0  0
   -2.6380    2.8860   -0.5690 C   0  0  0  0  0  0  0  0  0  0  0  0
   -2.2340    4.0360   -1.0010 O   0  0  0  0  0  0  0  0  0  0  0  0
   -1.6940    1.8230   -0.4390 C   0  0  0  0  0  0  0  0  0  0  0  0
   -1.8980    0.6240   -0.0350 C   0  0  0  0  0  0  0  0  0  0  0  0
   -3.1340    0.0400    0.3840 C   0  0  0  0  0  0  0  0  0  0  0  0
   -3.1690   -1.2490    0.7810 C   0  0  0  0  0  0  0  0  0  0  0  0
   -2.0580   -2.1510    0.8370 C   0  0  0  0  0  0  0  0  0  0  0  0
   -0.8870   -1.9050    0.5260 O   0  0  0  0  0  0  0  0  0  0  0  0
   -2.2600   -3.4820    1.2910 O   0  0  0  0  0  0  0  0  0  0  0  0
   -4.4590   -1.6760    1.1630 O   0  0  0  0  0  0  0  0  0  0  0  0
   -5.6090   -1.3410    0.4410 C   0  0  0  0  0  0  0  0  0  0  0  0
   -5.5910    0.0950    0.0520 C   0  0  0  0  0  0  0  0  0  0  0  0
   -4.3620    0.6820    0.4310 O   0  0  0  0  0  0  0  0  0  0  0  0
    0.0180    2.2870   -0.8710 S   0  0  0  0  0  0  0  0  0  0  0  0
    0.9790    0.8890   -1.3920 C   0  0  0  0  0  0  0  0  0  0  0  0
    2.2530    0.8850   -1.2620 N   0  0  0  0  0  0  0  0  0  0  0  0
    3.1720   -0.1350   -1.6190 C   0  0  1  0  0  0  0  0  0  0  0  0
    4.0580   -0.4210   -0.4410 C   0  0  0  0  0  0  0  0  0  0  0  0
    3.6120   -0.5660    0.8630 C   0  0  0  0  0  0  0  0  0  0  0  0
    4.7290   -0.8190    1.6410 C   0  0  0  0  0  0  0  0  0  0  0  0
    5.8060   -0.8210    0.8030 C   0  0  0  0  0  0  0  0  0  0  0  0
    5.3320   -0.5750   -0.4350 O   0  0  0  0  0  0  0  0  0  0  0  0
    7.1140   -1.0780    1.4340 C   0  0  0  0  0  0  0  0  0  0  0  0
    7.1070   -0.6040    2.8650 C   0  0  0  0  0  0  0  0  0  0  0  0
    5.3810   -1.1300    3.2850 S   0  0  0  0  0  0  0  0  0  0  0  0
    2.5590   -1.2940   -2.0890 O   0  0  0  0  0  0  0  0  0  0  0  0
    1.2120   -1.3970   -2.2760 C   0  0  0  0  0  0  0  0  0  0  0  0
    0.7060   -2.4560   -2.7520 O   0  0  0  0  0  0  0  0  0  0  0  0
    0.3810   -0.2820   -1.9220 N   0  0  0  0  0  0  0  0  0  0  0  0
  1  2  1  0
  2  3  1  0
  3  4  2  0
  3  5  1  0
  5  6  2  3
  5 16  1  0
  6  7  1  0
  7  8  2  0
  7 15  1  0
  8  9  1  0
  8 12  1  0
  9 10  2  0
  9 11  1  0
 12 13  1  0
 13 14  1  0
 14 15  1  0
 16 17  1  0
 17 18  2  0
 17 31  1  0
 18 19  1  0
 19 20  1  1
 19 28  1  0
 20 21  2  0
 20 24  1  0
 21 22  1  0
 22 23  2  0
 22 27  1  0
 23 24  1  0
 23 25  1  0
 25 26  1  0
 26 27  1  0
 28 29  1  0
 29 30  2  0
 29 31  1  0
M  END
