
     RDKit          3D

 30 31  0  0  0  0  0  0  0  0999 V2000
   -0.6050   -6.1850   -0.7520 C   0  0  0  0  0  0  0  0  0  0  0  0
   -0.4710   -4.8130   -1.0640 O   0  0  0  0  0  0  0  0  0  0  0  0
   -1.2400   -3.8650   -0.4130 C   0  0  0  0  0  0  0  0  0  0  0  0
   -2.1400   -4.2540    0.5430 C   0  0  0  0  0  0  0  0  0  0  0  0
   -2.9080   -3.3140    1.1940 C   0  0  0  0  0  0  0  0  0  0  0  0
   -2.7900   -1.9780    0.9020 C   0  0  0  0  0  0  0  0  0  0  0  0
   -3.5870   -1.0340    1.5810 O   0  0  0  0  0  0  0  0  0  0  0  0
   -1.8930   -1.5690   -0.0530 C   0  0  0  0  0  0  0  0  0  0  0  0
   -1.8250   -0.1650   -0.3610 C   0  0  0  0  0  0  0  0  0  0  0  0
   -0.7710    0.5990   -0.4260 C   0  0  0  0  0  0  0  0  0  0  0  0
    0.5720    0.0280   -0.1560 C   0  0  0  0  0  0  0  0  0  0  0  0
    1.2030    0.7650    0.9540 N   0  0  0  0  0  0  0  0  0  0  0  0
    1.8760   -0.0950    1.8810 C   0  0  0  0  0  0  0  0  0  0  0  0
    3.1920   -0.5650    1.3130 C   0  0  0  0  0  0  0  0  0  0  0  0
    3.4920   -0.1700    0.1860 O   0  0  0  0  0  0  0  0  0  0  0  0
    3.9970   -1.4060    2.0670 N   0  0  0  0  0  0  0  0  0  0  0  0
    5.2910   -1.9270    1.6140 C   0  0  0  0  0  0  0  0  0  0  0  0
    6.1650   -2.5200    2.4360 C   0  0  0  0  0  0  0  0  0  0  0  0
    7.3240   -2.9830    1.9560 N   0  0  0  0  0  0  0  0  0  0  0  0
    7.2570   -2.5800    0.1630 S   0  0  0  0  0  0  0  0  0  0  0  0
    5.6670   -1.8330    0.2740 C   0  0  0  0  0  0  0  0  0  0  0  0
   -0.8330    2.0150   -0.7570 C   0  0  0  0  0  0  0  0  0  0  0  0
    0.2420    2.7130   -0.8020 O   0  0  0  0  0  0  0  0  0  0  0  0
   -2.0080    2.7410   -1.0490 N   0  0  0  0  0  0  0  0  0  0  0  0
   -1.9570    4.1750   -1.3710 C   0  0  2  0  0  0  0  0  0  0  0  0
   -1.1040    4.4120   -2.5980 C   0  0  0  0  0  0  0  0  0  0  0  0
   -1.3170    4.8750   -0.1980 C   0  0  0  0  0  0  0  0  0  0  0  0
   -3.3520    4.6930   -1.5390 C   0  0  0  0  0  0  0  0  0  0  0  0
   -3.2860    6.0570   -1.8450 O   0  0  0  0  0  0  0  0  0  0  0  0
   -1.1360   -2.5100   -0.6940 C   0  0  0  0  0  0  0  0  0  0  0  0
  1  2  1  0
  2  3  1  0
  3  4  2  0
  3 30  1  0
  4  5  1  0
  5  6  2  0
  6  7  1  0
  6  8  1  0
  8  9  1  0
  8 30  2  0
  9 10  2  3
 10 11  1  0
 10 22  1  0
 11 12  1  0
 12 13  1  0
 13 14  1  0
 14 15  2  0
 14 16  1  0
 16 17  1  0
 17 18  1  0
 17 21  2  0
 18 19  2  0
 19 20  1  0
 20 21  1  0
 22 23  2  0
 22 24  1  0
 24 25  1  0
 25 26  1  6
 25 27  1  0
 25 28  1  0
 28 29  1  0
M  CHG  1  12   1
M  END
