
     RDKit          3D

 31 34  0  0  0  0  0  0  0  0999 V2000
   -0.0280    2.1500   -0.3640 O   0  0  0  0  0  0  0  0  0  0  0  0
   -1.1160    1.5860   -0.2780 C   0  0  0  0  0  0  0  0  0  0  0  0
   -2.4070    2.2170   -0.5950 C   0  0  0  0  0  0  0  0  0  0  0  0
   -3.4790    1.2840   -0.4110 O   0  0  0  0  0  0  0  0  0  0  0  0
   -4.7860    1.6390   -0.6500 C   0  0  0  0  0  0  0  0  0  0  0  0
   -4.9980    2.8180   -1.0380 O   0  0  0  0  0  0  0  0  0  0  0  0
   -5.8620    0.7340   -0.4750 C   0  0  0  0  0  0  0  0  0  0  0  0
   -5.9950   -0.5610   -0.0840 C   0  0  0  0  0  0  0  0  0  0  0  0
   -7.2090   -1.1320   -0.0270 C   0  0  0  0  0  0  0  0  0  0  0  0
   -8.3140   -0.4310   -0.3570 C   0  0  0  0  0  0  0  0  0  0  0  0
   -9.7180   -0.7070   -0.4100 C   0  0  0  0  0  0  0  0  0  0  0  0
  -10.1610   -1.8340   -0.0980 O   0  0  0  0  0  0  0  0  0  0  0  0
  -10.6070    0.2730   -0.8100 O   0  0  0  0  0  0  0  0  0  0  0  0
   -7.6260    1.2040   -0.7990 S   0  0  0  0  0  0  0  0  0  0  0  0
   -1.0180    0.2660    0.1590 N   0  0  0  0  0  0  0  0  0  0  0  0
    0.2500   -0.3000    0.4350 C   0  0  0  0  0  0  0  0  0  0  0  0
    0.1610   -1.4230    0.9030 N   0  0  0  0  0  0  0  0  0  0  0  0
    1.2430   -2.1590    1.2490 C   0  0  0  0  0  0  0  0  0  0  0  0
    1.1010   -3.3090    1.7300 O   0  0  0  0  0  0  0  0  0  0  0  0
    2.5470   -1.5420    1.0310 C   0  0  0  0  0  0  0  0  0  0  0  0
    3.7430   -1.9750    1.2970 C   0  0  0  0  0  0  0  0  0  0  0  0
    4.8900   -1.1100    0.9560 C   0  0  0  0  0  0  0  0  0  0  0  0
    4.9620    0.2640    1.0500 C   0  0  0  0  0  0  0  0  0  0  0  0
    6.2190    0.6430    0.6260 C   0  0  0  0  0  0  0  0  0  0  0  0
    6.8610   -0.5230    0.2900 C   0  0  0  0  0  0  0  0  0  0  0  0
    6.0460   -1.5170    0.4990 O   0  0  0  0  0  0  0  0  0  0  0  0
    8.2320   -0.2180   -0.1820 C   0  0  1  0  0  0  0  0  0  0  0  0
    8.4010   -0.8190   -1.4170 O   0  0  0  0  0  0  0  0  0  0  0  0
    8.2510    1.2860   -0.2450 C   0  0  0  0  0  0  0  0  0  0  0  0
    7.0760    1.7220    0.4090 O   0  0  0  0  0  0  0  0  0  0  0  0
    1.9990   -0.0210    0.2930 S   0  0  0  0  0  0  0  0  0  0  0  0
  1  2  2  0
  2  3  1  0
  2 15  1  0
  3  4  1  0
  4  5  1  0
  5  6  2  0
  5  7  1  0
  7  8  2  0
  7 14  1  0
  8  9  1  0
  9 10  2  0
 10 11  1  0
 10 14  1  0
 11 12  2  0
 11 13  1  0
 15 16  1  0
 16 17  2  0
 16 31  1  0
 17 18  1  0
 18 19  2  0
 18 20  1  0
 20 21  2  3
 20 31  1  0
 21 22  1  0
 22 23  2  0
 22 26  1  0
 23 24  1  0
 24 25  2  0
 24 30  1  0
 25 26  1  0
 25 27  1  0
 27 28  1  6
 27 29  1  0
 29 30  1  0
M  END
