
     RDKit          3D

 33 36  0  0  0  0  0  0  0  0999 V2000
    7.5250   -1.1460    0.5150 C   0  0  0  0  0  0  0  0  0  0  0  0
    8.0460    0.2450    0.3980 C   0  0  0  0  0  0  0  0  0  0  0  0
    9.0370    0.6730    1.2990 C   0  0  0  0  0  0  0  0  0  0  0  0
    9.5440    1.9490    1.2110 C   0  0  0  0  0  0  0  0  0  0  0  0
    9.0490    2.7680    0.2230 C   0  0  0  0  0  0  0  0  0  0  0  0
    8.0860    2.3700   -0.6630 C   0  0  0  0  0  0  0  0  0  0  0  0
    7.5580    1.0630   -0.5800 C   0  0  0  0  0  0  0  0  0  0  0  0
    6.6000    0.7300   -1.4930 O   0  0  0  0  0  0  0  0  0  0  0  0
    5.2990    0.3480   -1.2900 C   0  0  0  0  0  0  0  0  0  0  0  0
    4.3800    1.3510   -0.9730 C   0  0  0  0  0  0  0  0  0  0  0  0
    3.0440    1.0640   -0.7530 C   0  0  0  0  0  0  0  0  0  0  0  0
    2.5710   -0.2230   -0.8390 C   0  0  0  0  0  0  0  0  0  0  0  0
    1.2350   -0.5600   -0.5870 N   0  0  0  0  0  0  0  0  0  0  0  0
    0.1800    0.3620   -0.4390 C   0  0  0  0  0  0  0  0  0  0  0  0
    0.0510    1.4700   -1.2270 C   0  0  0  0  0  0  0  0  0  0  0  0
   -1.0060    2.3600   -0.9880 C   0  0  0  0  0  0  0  0  0  0  0  0
   -1.9120    2.1390    0.0240 C   0  0  0  0  0  0  0  0  0  0  0  0
   -1.7920    1.0150    0.8320 C   0  0  0  0  0  0  0  0  0  0  0  0
   -2.9470    0.7000    2.1600 S   0  0  0  0  0  0  0  0  0  0  0  0
   -4.3760   -0.2790    1.5690 C   0  0  0  0  0  0  0  0  0  0  0  0
   -5.1900    0.5200    0.5880 C   0  0  0  0  0  0  0  0  0  0  0  0
   -6.3630   -0.1860    0.0660 C   0  0  0  0  0  0  0  0  0  0  0  0
   -6.5560   -1.3930    0.5190 N   0  0  0  0  0  0  0  0  0  0  0  0
   -7.6960   -2.2150    0.0780 C   0  0  0  0  0  0  0  0  0  0  0  0
   -8.9400   -1.4820    0.4860 C   0  0  0  0  0  0  0  0  0  0  0  0
   -9.3330   -0.3330   -0.3410 C   0  0  0  0  0  0  0  0  0  0  0  0
   -8.3980    0.0620   -1.4370 C   0  0  0  0  0  0  0  0  0  0  0  0
   -7.1430    0.5710   -0.8870 N   0  0  0  0  0  0  0  0  0  0  0  0
   -0.7490    0.1490    0.5850 C   0  0  0  0  0  0  0  0  0  0  0  0
    3.4720   -1.2460   -1.1540 C   0  0  0  0  0  0  0  0  0  0  0  0
    2.9960   -2.6240   -1.2520 C   0  0  0  0  0  0  0  0  0  0  0  0
    4.0490   -3.4840   -1.5750 O   0  0  0  0  0  0  0  0  0  0  0  0
    4.7950   -0.9300   -1.3680 C   0  0  0  0  0  0  0  0  0  0  0  0
  1  2  1  0
  2  3  2  0
  2  7  1  0
  3  4  1  0
  4  5  2  0
  5  6  1  0
  6  7  2  0
  7  8  1  0
  8  9  1  0
  9 10  2  0
  9 33  1  0
 10 11  1  0
 11 12  2  0
 12 13  1  0
 12 30  1  0
 13 14  1  0
 14 15  2  0
 14 29  1  0
 15 16  1  0
 16 17  2  0
 17 18  1  0
 18 19  1  0
 18 29  2  0
 19 20  1  0
 20 21  1  0
 21 22  1  0
 22 23  2  0
 22 28  1  0
 23 24  1  0
 24 25  1  0
 25 26  1  0
 26 27  1  0
 27 28  1  0
 30 31  1  0
 30 33  2  0
 31 32  1  0
M  CHG  1  23   1
M  END
