
     RDKit          3D

 32 33  0  0  0  0  0  0  0  0999 V2000
   -0.7960    0.2590   -4.4530 C   0  0  0  0  0  0  0  0  0  0  0  0
   -0.8860    0.1760   -2.9590 C   0  0  2  0  0  0  0  0  0  0  0  0
    0.4010   -0.1960   -2.4230 N   0  0  0  0  0  0  0  0  0  0  0  0
    1.0880    0.6130   -1.4650 C   0  0  0  0  0  0  0  0  0  0  0  0
    0.5160    1.6650   -1.1070 O   0  0  0  0  0  0  0  0  0  0  0  0
    2.4310    0.2430   -0.8990 C   0  0  1  0  0  0  0  0  0  0  0  0
    3.4640    0.1470   -1.9700 C   0  0  0  0  0  0  0  0  0  0  0  0
    3.5370    1.3510   -2.7180 O   0  0  0  0  0  0  0  0  0  0  0  0
    2.7330    1.3000    0.0320 N   0  0  0  0  0  0  0  0  0  0  0  0
    2.6130    0.9650    1.6640 S   0  0  2  0  0  0  0  0  0  0  0  0
    1.2090    0.6920    2.1370 O   0  0  0  0  0  0  0  0  0  0  0  0
    3.0310    2.2290    2.4240 O   0  0  0  0  0  0  0  0  0  0  0  0
    3.7260   -0.2980    2.1760 C   0  0  0  0  0  0  0  0  0  0  0  0
    5.1560    0.0300    1.9650 C   0  0  0  0  0  0  0  0  0  0  0  0
    5.7830    0.8620    2.8840 C   0  0  0  0  0  0  0  0  0  0  0  0
    7.1190    1.1670    2.7400 C   0  0  0  0  0  0  0  0  0  0  0  0
    7.8620    0.6560    1.6850 C   0  0  0  0  0  0  0  0  0  0  0  0
    7.2500   -0.1720    0.7670 C   0  0  0  0  0  0  0  0  0  0  0  0
    5.9220   -0.4590    0.9330 C   0  0  0  0  0  0  0  0  0  0  0  0
   -1.9760   -0.7060   -2.4690 C   0  0  0  0  0  0  0  0  0  0  0  0
   -1.6720   -1.6310   -1.6800 O   0  0  0  0  0  0  0  0  0  0  0  0
   -3.3260   -0.5480   -2.8460 N   0  0  0  0  0  0  0  0  0  0  0  0
   -4.4180   -1.4000   -2.3690 C   0  0  0  0  0  0  0  0  0  0  0  0
   -4.7960   -1.0660   -0.9900 C   0  0  0  0  0  0  0  0  0  0  0  0
   -5.5080    0.0770   -0.7350 C   0  0  0  0  0  0  0  0  0  0  0  0
   -5.8660    0.4050    0.5520 C   0  0  0  0  0  0  0  0  0  0  0  0
   -5.5410   -0.3700    1.6290 C   0  0  0  0  0  0  0  0  0  0  0  0
   -5.8990   -0.0540    3.0130 C   0  0  0  0  0  0  0  0  0  0  0  0
   -5.5210   -0.9240    4.0550 N   0  0  0  0  0  0  0  0  0  0  0  0
   -6.5510    1.0070    3.2700 N   0  0  0  0  0  0  0  0  0  0  0  0
   -4.8120   -1.5420    1.3690 C   0  0  0  0  0  0  0  0  0  0  0  0
   -4.4520   -1.8710    0.0690 C   0  0  0  0  0  0  0  0  0  0  0  0
  2  1  1  6
  2  3  1  0
  2 20  1  0
  3  4  1  0
  4  5  2  0
  4  6  1  0
  6  7  1  6
  6  9  1  0
  7  8  1  0
  9 10  1  0
 10 11  2  0
 10 12  2  0
 10 13  1  1
 13 14  1  0
 14 15  2  0
 14 19  1  0
 15 16  1  0
 16 17  2  0
 17 18  1  0
 18 19  2  0
 20 21  2  0
 20 22  1  0
 22 23  1  0
 23 24  1  0
 24 25  2  0
 24 32  1  0
 25 26  1  0
 26 27  2  0
 27 28  1  0
 27 31  1  0
 28 29  1  0
 28 30  2  0
 31 32  2  0
M  CHG  1  30   1
M  END
