
     RDKit          3D

 32 35  0  0  0  0  0  0  0  0999 V2000
   -4.9970    1.0440   -0.9350 C   0  0  0  0  0  0  0  0  0  0  0  0
   -4.1140    1.0390    0.1360 O   0  0  0  0  0  0  0  0  0  0  0  0
   -3.0890    0.0770    0.2330 C   0  0  0  0  0  0  0  0  0  0  0  0
   -1.9140    0.5400    0.5230 C   0  0  0  0  0  0  0  0  0  0  0  0
   -1.7330    1.9560    0.7270 N   0  0  0  0  0  0  0  0  0  0  0  0
   -1.4950    2.8100   -0.3940 C   0  0  0  0  0  0  0  0  0  0  0  0
   -1.3270    4.1550   -0.1720 C   0  0  0  0  0  0  0  0  0  0  0  0
   -1.0950    5.0160   -1.2250 C   0  0  0  0  0  0  0  0  0  0  0  0
   -1.0380    4.4970   -2.5000 C   0  0  0  0  0  0  0  0  0  0  0  0
   -1.2100    3.1370   -2.7050 C   0  0  0  0  0  0  0  0  0  0  0  0
   -1.4320    2.3510   -1.6460 N   0  0  0  0  0  0  0  0  0  0  0  0
   -0.7020   -0.2760    0.6420 C   0  0  2  0  0  0  0  0  0  0  0  0
   -0.8030   -1.5830    0.2370 O   0  0  0  0  0  0  0  0  0  0  0  0
   -0.2860   -0.1880    2.1220 C   0  0  0  0  0  0  0  0  0  0  0  0
    0.9950   -0.8290    2.2380 N   0  0  0  0  0  0  0  0  0  0  0  0
    2.1310   -0.2100    1.6620 C   0  0  0  0  0  0  0  0  0  0  0  0
    2.1620    1.0930    1.2370 C   0  0  0  0  0  0  0  0  0  0  0  0
    3.3190    1.6020    0.6710 C   0  0  0  0  0  0  0  0  0  0  0  0
    4.4620    0.8570    0.5090 C   0  0  0  0  0  0  0  0  0  0  0  0
    4.4300   -0.4330    0.9300 C   0  0  0  0  0  0  0  0  0  0  0  0
    3.2970   -0.9580    1.4930 C   0  0  0  0  0  0  0  0  0  0  0  0
    5.6230   -1.2890    0.7850 C   0  0  0  0  0  0  0  0  0  0  0  0
    6.3040   -0.8480   -0.5180 C   0  0  0  0  0  0  0  0  0  0  0  0
    6.7990    0.5620   -0.2700 C   0  0  0  0  0  0  0  0  0  0  0  0
    5.6450    1.5080   -0.1120 C   0  0  0  0  0  0  0  0  0  0  0  0
   -3.4220   -1.3270    0.0160 C   0  0  0  0  0  0  0  0  0  0  0  0
   -3.2420   -2.2830    1.0120 C   0  0  0  0  0  0  0  0  0  0  0  0
   -3.5190   -3.6190    0.8260 C   0  0  0  0  0  0  0  0  0  0  0  0
   -3.9960   -4.0650   -0.3810 C   0  0  0  0  0  0  0  0  0  0  0  0
   -4.3080   -5.4950   -0.6270 C   0  0  0  0  0  0  0  0  0  0  0  0
   -4.1900   -3.1550   -1.3970 C   0  0  0  0  0  0  0  0  0  0  0  0
   -3.8990   -1.7990   -1.1790 C   0  0  0  0  0  0  0  0  0  0  0  0
  1  2  1  0
  2  3  1  0
  3  4  2  3
  3 26  1  0
  4  5  1  0
  4 12  1  0
  5  6  1  0
  6  7  2  0
  6 11  1  0
  7  8  1  0
  8  9  2  0
  9 10  1  0
 10 11  2  0
 12 13  1  1
 12 14  1  0
 14 15  1  0
 15 16  1  0
 16 17  2  0
 16 21  1  0
 17 18  1  0
 18 19  2  0
 19 20  1  0
 19 25  1  0
 20 21  2  0
 20 22  1  0
 22 23  1  0
 23 24  1  0
 24 25  1  0
 26 27  2  0
 26 32  1  0
 27 28  1  0
 28 29  2  0
 29 30  1  0
 29 31  1  0
 31 32  2  0
M  CHG  1  11   1
M  END
