
     RDKit          3D

 33 36  0  0  0  0  0  0  0  0999 V2000
   -6.1000    0.6810   -2.8970 C   0  0  0  0  0  0  0  0  0  0  0  0
   -4.8400    0.0040   -2.4940 C   0  0  0  0  0  0  0  0  0  0  0  0
   -3.7710    0.7170   -1.9700 C   0  0  0  0  0  0  0  0  0  0  0  0
   -2.5970    0.0920   -1.5930 C   0  0  0  0  0  0  0  0  0  0  0  0
   -1.4350    0.8660   -1.0220 C   0  0  0  0  0  0  0  0  0  0  0  0
   -1.6270    0.8990    0.4510 C   0  0  0  0  0  0  0  0  0  0  0  0
   -0.5820    1.6150    1.1540 N   0  0  0  0  0  0  0  0  0  0  0  0
   -0.5600    1.7760    2.5550 C   0  0  0  0  0  0  0  0  0  0  0  0
   -1.5550    1.2430    3.1650 O   0  0  0  0  0  0  0  0  0  0  0  0
    0.4270    2.4610    3.3480 C   0  0  0  0  0  0  0  0  0  0  0  0
   -0.0530    3.2660    4.4040 C   0  0  0  0  0  0  0  0  0  0  0  0
    0.7540    4.0790    5.1390 C   0  0  0  0  0  0  0  0  0  0  0  0
    2.1000    4.1280    4.8520 C   0  0  0  0  0  0  0  0  0  0  0  0
    2.5740    3.3560    3.8420 C   0  0  0  0  0  0  0  0  0  0  0  0
    1.7510    2.5040    3.0690 C   0  0  0  0  0  0  0  0  0  0  0  0
    2.3530    1.5870    2.1170 C   0  0  0  0  0  0  0  0  0  0  0  0
    3.5580    1.7440    1.5760 C   0  0  0  0  0  0  0  0  0  0  0  0
    4.1120    0.7830    0.6070 C   0  0  0  0  0  0  0  0  0  0  0  0
    3.4740   -0.2880    0.1930 C   0  0  0  0  0  0  0  0  0  0  0  0
    4.0340   -1.2500   -0.7740 C   0  0  0  0  0  0  0  0  0  0  0  0
    5.2870   -1.1340   -1.2860 C   0  0  0  0  0  0  0  0  0  0  0  0
    5.7590   -2.0510   -2.1960 C   0  0  0  0  0  0  0  0  0  0  0  0
    4.9590   -3.0990   -2.5970 C   0  0  0  0  0  0  0  0  0  0  0  0
    3.6970   -3.2180   -2.0840 C   0  0  0  0  0  0  0  0  0  0  0  0
    3.2360   -2.2990   -1.1780 C   0  0  0  0  0  0  0  0  0  0  0  0
    2.1020   -0.5180    0.7100 C   0  0  0  0  0  0  0  0  0  0  0  0
    1.7530    0.3180    1.8310 N   0  0  0  0  0  0  0  0  0  0  0  0
   -2.5420   -1.2790   -1.7640 C   0  0  0  0  0  0  0  0  0  0  0  0
   -3.5950   -2.0000   -2.2840 C   0  0  0  0  0  0  0  0  0  0  0  0
   -3.5050   -3.4070   -2.4450 N   0  0  0  0  0  0  0  0  0  0  0  0
   -4.3690   -4.2700   -1.2020 S   0  0  0  0  0  0  0  0  0  0  0  0
   -5.8410   -4.4260   -1.5340 O   0  0  0  0  0  0  0  0  0  0  0  0
   -4.7590   -1.3630   -2.6550 C   0  0  0  0  0  0  0  0  0  0  0  0
  1  2  1  0
  2  3  2  0
  2 33  1  0
  3  4  1  0
  4  5  1  0
  4 28  2  0
  5  6  1  0
  6  7  1  0
  7  8  1  0
  8  9  2  0
  8 10  1  0
 10 11  2  0
 10 15  1  0
 11 12  1  0
 12 13  2  0
 13 14  1  0
 14 15  2  0
 15 16  1  0
 16 17  2  0
 16 27  1  0
 17 18  1  0
 18 19  2  0
 19 20  1  0
 19 26  1  0
 20 21  2  0
 20 25  1  0
 21 22  1  0
 22 23  2  0
 23 24  1  0
 24 25  2  0
 26 27  1  0
 28 29  1  0
 29 30  1  0
 29 33  2  0
 30 31  1  0
 31 32  2  0
M  CHG  1  30   1
M  END
