
     RDKit          3D

 32 34  0  0  0  0  0  0  0  0999 V2000
   -2.1960    1.4450    3.5290 C   0  0  0  0  0  0  0  0  0  0  0  0
   -1.4680    0.1600    3.4230 C   0  0  0  0  0  0  0  0  0  0  0  0
   -1.7050   -0.5840    2.1980 C   0  0  0  0  0  0  0  0  0  0  0  0
   -0.8530   -0.8610    1.2600 C   0  0  0  0  0  0  0  0  0  0  0  0
    0.5080   -0.6270    0.9820 C   0  0  0  0  0  0  0  0  0  0  0  0
    0.9880   -1.1430   -0.1420 O   0  0  0  0  0  0  0  0  0  0  0  0
    1.5140    0.0690    1.6700 N   0  0  0  0  0  0  0  0  0  0  0  0
    2.8640    0.2180    1.2360 C   0  0  0  0  0  0  0  0  0  0  0  0
    3.8320    0.5190    2.2080 C   0  0  0  0  0  0  0  0  0  0  0  0
    5.1580    0.7110    1.9200 C   0  0  0  0  0  0  0  0  0  0  0  0
    5.6170    0.6140    0.6350 C   0  0  0  0  0  0  0  0  0  0  0  0
    4.6890    0.3200   -0.3340 C   0  0  0  0  0  0  0  0  0  0  0  0
    3.3260    0.1230   -0.0450 C   0  0  0  0  0  0  0  0  0  0  0  0
    5.3680    0.2790   -1.4930 N   0  0  0  0  0  0  0  0  0  0  0  0
    6.6770    0.5420   -1.2260 C   0  0  0  0  0  0  0  0  0  0  0  0
    6.8400    0.7510    0.0920 N   0  0  0  0  0  0  0  0  0  0  0  0
    8.1570    1.0570    0.6730 C   0  0  0  0  0  0  0  0  0  0  0  0
    9.1960    0.3770   -0.2210 C   0  0  0  0  0  0  0  0  0  0  0  0
    9.0850    0.9380   -1.6190 C   0  0  0  0  0  0  0  0  0  0  0  0
    7.7690    0.5930   -2.2270 C   0  0  1  0  0  0  0  0  0  0  0  0
    7.7620   -0.6640   -2.9330 N   0  0  0  0  0  0  0  0  0  0  0  0
   -3.0690   -1.2320    2.0710 C   0  0  0  0  0  0  0  0  0  0  0  0
   -4.1520   -0.2730    1.8770 C   0  0  0  0  0  0  0  0  0  0  0  0
   -3.9950    0.5370    0.6750 N   0  0  0  0  0  0  0  0  0  0  0  0
   -4.3800   -0.2140   -0.5090 C   0  0  2  0  0  0  0  0  0  0  0  0
   -3.6100    0.3350   -1.6800 C   0  0  0  0  0  0  0  0  0  0  0  0
   -5.8390   -0.1020   -0.6740 C   0  0  0  0  0  0  0  0  0  0  0  0
   -6.6190    0.5210    0.0690 O   0  0  0  0  0  0  0  0  0  0  0  0
   -6.4140   -0.7820   -1.8110 N   0  0  0  0  0  0  0  0  0  0  0  0
   -7.8140   -0.7730   -2.1140 C   0  0  2  0  0  0  0  0  0  0  0  0
   -8.3950   -2.1600   -2.2150 C   0  0  0  0  0  0  0  0  0  0  0  0
   -7.9950   -0.0800   -3.4620 C   0  0  0  0  0  0  0  0  0  0  0  0
  1  2  1  0
  2  3  1  0
  3  4  2  3
  3 22  1  0
  4  5  1  0
  5  6  2  0
  5  7  1  0
  7  8  1  0
  8  9  2  0
  8 13  1  0
  9 10  1  0
 10 11  2  0
 11 12  1  0
 11 16  1  0
 12 13  2  0
 12 14  1  0
 14 15  2  0
 15 16  1  0
 15 20  1  0
 16 17  1  0
 17 18  1  0
 18 19  1  0
 19 20  1  0
 20 21  1  1
 22 23  1  0
 23 24  1  0
 24 25  1  0
 25 26  1  6
 25 27  1  0
 27 28  2  0
 27 29  1  0
 29 30  1  0
 30 31  1  6
 30 32  1  0
M  CHG  1  24   1
M  END
