
     RDKit          3D

 33 36  0  0  0  0  0  0  0  0999 V2000
   -4.9590   -3.3440   -0.9640 C   0  0  0  0  0  0  0  0  0  0  0  0
   -4.3020   -3.2820    0.3710 C   0  0  0  0  0  0  0  0  0  0  0  0
   -2.9190   -2.5920    0.3290 C   0  0  1  0  0  0  0  0  0  0  0  0
   -2.1030   -3.4350   -0.6260 C   0  0  0  0  0  0  0  0  0  0  0  0
   -0.7640   -3.0630   -0.8440 N   0  0  0  0  0  0  0  0  0  0  0  0
   -0.2500   -1.8640   -1.3980 C   0  0  0  0  0  0  0  0  0  0  0  0
   -1.0590   -0.9860   -1.7620 O   0  0  0  0  0  0  0  0  0  0  0  0
    1.2140   -1.6330   -1.5560 C   0  0  0  0  0  0  0  0  0  0  0  0
    1.5210   -0.3450   -2.1700 C   0  0  0  0  0  0  0  0  0  0  0  0
    1.8990   -0.2480   -3.4900 C   0  0  0  0  0  0  0  0  0  0  0  0
    2.1880    0.9930   -4.0670 C   0  0  0  0  0  0  0  0  0  0  0  0
    2.0900    2.1510   -3.2890 C   0  0  0  0  0  0  0  0  0  0  0  0
    1.7160    2.0530   -1.9860 C   0  0  0  0  0  0  0  0  0  0  0  0
    1.4340    0.8130   -1.4320 C   0  0  0  0  0  0  0  0  0  0  0  0
    1.0380    0.7600   -0.0710 N   0  0  0  0  0  0  0  0  0  0  0  0
    0.9980    1.9700    0.7130 C   0  0  0  0  0  0  0  0  0  0  0  0
    2.3770    2.4830    0.8610 C   0  0  0  0  0  0  0  0  0  0  0  0
    3.4400    1.9140    0.4550 N   0  0  0  0  0  0  0  0  0  0  0  0
    4.6290    2.6940    0.7630 C   0  0  2  0  0  0  0  0  0  0  0  0
    5.6960    1.7650    1.2380 C   0  0  0  0  0  0  0  0  0  0  0  0
    4.1360    3.6370    1.8430 C   0  0  0  0  0  0  0  0  0  0  0  0
    2.7190    3.6990    1.5000 N   0  0  0  0  0  0  0  0  0  0  0  0
   -3.1800   -1.2690   -0.0870 N   0  0  0  0  0  0  0  0  0  0  0  0
   -2.9050   -0.1400    0.7240 C   0  0  0  0  0  0  0  0  0  0  0  0
   -3.1450    1.1600    0.2590 C   0  0  0  0  0  0  0  0  0  0  0  0
   -2.8950    2.2820    1.0190 C   0  0  0  0  0  0  0  0  0  0  0  0
   -2.3870    2.1620    2.2950 C   0  0  0  0  0  0  0  0  0  0  0  0
   -2.0620    3.5920    3.2820 Cl  0  0  0  0  0  0  0  0  0  0  0  0
   -2.1420    0.8960    2.7760 C   0  0  0  0  0  0  0  0  0  0  0  0
   -2.3980   -0.2160    2.0010 C   0  0  0  0  0  0  0  0  0  0  0  0
   -2.1550   -1.5390    2.4810 N   0  0  0  0  0  0  0  0  0  0  0  0
   -2.4150   -2.6780    1.7020 C   0  0  0  0  0  0  0  0  0  0  0  0
   -2.2190   -3.8450    2.1700 O   0  0  0  0  0  0  0  0  0  0  0  0
  1  2  1  0
  3  2  1  1
  3  4  1  0
  3 23  1  0
  3 32  1  0
  4  5  1  0
  5  6  1  0
  6  7  2  0
  6  8  1  0
  8  9  1  0
  9 10  2  0
  9 14  1  0
 10 11  1  0
 11 12  2  0
 12 13  1  0
 13 14  2  0
 14 15  1  0
 15 16  1  0
 16 17  1  0
 17 18  2  0
 17 22  1  0
 18 19  1  0
 19 20  1  1
 19 21  1  0
 21 22  1  0
 23 24  1  0
 24 25  2  0
 24 30  1  0
 25 26  1  0
 26 27  2  0
 27 28  1  0
 27 29  1  0
 29 30  2  0
 30 31  1  0
 31 32  1  0
 32 33  2  0
M  CHG  1  18   1
M  END
