
     RDKit          3D

 33 36  0  0  0  0  0  0  0  0999 V2000
    8.5060    0.9760    2.6700 C   0  0  0  0  0  0  0  0  0  0  0  0
    8.1150   -0.3520    2.1370 C   0  0  0  0  0  0  0  0  0  0  0  0
    6.8190   -0.4280    1.4500 C   0  0  0  0  0  0  0  0  0  0  0  0
    5.6540   -0.3990    2.1800 C   0  0  0  0  0  0  0  0  0  0  0  0
    4.4340   -0.6520    1.5840 C   0  0  0  0  0  0  0  0  0  0  0  0
    4.3770   -0.9270    0.2580 C   0  0  0  0  0  0  0  0  0  0  0  0
    3.1600   -1.3560   -0.4240 N   0  0  0  0  0  0  0  0  0  0  0  0
    2.1490   -0.3400   -1.2540 S   0  0  2  0  0  0  0  0  0  0  0  0
    2.0020   -0.8000   -2.7120 O   0  0  0  0  0  0  0  0  0  0  0  0
    2.7370    1.0790   -1.2870 O   0  0  0  0  0  0  0  0  0  0  0  0
    0.5070   -0.1810   -0.6890 C   0  0  0  0  0  0  0  0  0  0  0  0
   -0.3420   -1.2560   -0.5780 C   0  0  0  0  0  0  0  0  0  0  0  0
   -1.6960   -1.1360   -0.4250 C   0  0  0  0  0  0  0  0  0  0  0  0
   -2.2310    0.1560   -0.3790 C   0  0  0  0  0  0  0  0  0  0  0  0
   -3.6420    0.3780   -0.4690 C   0  0  0  0  0  0  0  0  0  0  0  0
   -4.3670    1.1520    0.4830 N   0  0  0  0  0  0  0  0  0  0  0  0
   -5.3460    0.3830    1.2180 C   0  0  0  0  0  0  0  0  0  0  0  0
   -5.2330   -0.0800    2.4760 C   0  0  0  0  0  0  0  0  0  0  0  0
   -6.2960   -0.7930    3.0280 C   0  0  0  0  0  0  0  0  0  0  0  0
   -7.4460   -1.0090    2.2690 C   0  0  0  0  0  0  0  0  0  0  0  0
   -7.5340   -0.5270    0.9780 C   0  0  0  0  0  0  0  0  0  0  0  0
   -6.4960    0.1740    0.4410 C   0  0  0  0  0  0  0  0  0  0  0  0
   -6.6340    0.7340   -0.9400 C   0  0  0  0  0  0  0  0  0  0  0  0
   -8.0770    1.2140   -1.0310 C   0  0  0  0  0  0  0  0  0  0  0  0
   -8.9970    0.0380   -0.9920 C   0  0  0  0  0  0  0  0  0  0  0  0
   -8.6400   -0.9310    0.0760 C   0  0  0  0  0  0  0  0  0  0  0  0
   -1.4030    1.2510   -0.4680 C   0  0  0  0  0  0  0  0  0  0  0  0
   -0.0700    1.0950   -0.6180 C   0  0  0  0  0  0  0  0  0  0  0  0
    5.5470   -0.9450   -0.5160 C   0  0  0  0  0  0  0  0  0  0  0  0
    5.3800   -1.2840   -1.9500 C   0  0  0  0  0  0  0  0  0  0  0  0
    5.8660   -0.2860   -2.8240 N   0  0  0  0  0  0  0  0  0  0  0  0
    6.8430    0.6080   -2.3140 C   0  0  0  0  0  0  0  0  0  0  0  0
    6.7440   -0.6980    0.0930 C   0  0  0  0  0  0  0  0  0  0  0  0
  1  2  1  0
  2  3  1  0
  3  4  2  0
  3 33  1  0
  4  5  1  0
  5  6  2  0
  6  7  1  0
  6 29  1  0
  8  7  1  1
  8  9  2  0
  8 10  2  0
  8 11  1  0
 11 12  2  0
 11 28  1  0
 12 13  1  0
 13 14  2  0
 14 15  1  0
 14 27  1  0
 15 16  1  0
 16 17  1  0
 17 18  2  0
 17 22  1  0
 18 19  1  0
 19 20  2  0
 20 21  1  0
 21 22  2  0
 21 26  1  0
 22 23  1  0
 23 24  1  0
 24 25  1  0
 25 26  1  0
 27 28  2  0
 29 30  1  0
 29 33  2  0
 30 31  1  0
 31 32  1  0
M  CHG  1  31   1
M  END
