
     RDKit          3D

 33 36  0  0  0  0  0  0  0  0999 V2000
   -2.8520    1.7410   -1.9970 C   0  0  0  0  0  0  0  0  0  0  0  0
   -3.2750    0.3500   -1.5170 C   0  0  2  0  0  0  0  0  0  0  0  0
   -3.7120    0.5270   -0.1460 N   0  0  0  0  0  0  0  0  0  0  0  0
   -5.0670    0.3650    0.2490 C   0  0  0  0  0  0  0  0  0  0  0  0
   -5.8900    0.0570   -0.6530 O   0  0  0  0  0  0  0  0  0  0  0  0
   -5.5240    0.5420    1.6490 C   0  0  1  0  0  0  0  0  0  0  0  0
   -5.0880    1.8300    2.2500 C   0  0  0  0  0  0  0  0  0  0  0  0
   -5.6370    1.9750    3.6100 C   0  0  0  0  0  0  0  0  0  0  0  0
   -6.7270    1.3620    4.0260 C   0  0  0  0  0  0  0  0  0  0  0  0
   -7.4670    0.4710    3.1050 C   0  0  0  0  0  0  0  0  0  0  0  0
   -8.4980   -0.1120    3.4860 O   0  0  0  0  0  0  0  0  0  0  0  0
   -6.9300    0.3350    1.8040 N   0  0  0  0  0  0  0  0  0  0  0  0
   -2.0950   -0.5350   -1.6390 C   0  0  0  0  0  0  0  0  0  0  0  0
   -1.0410   -0.1930   -2.4560 C   0  0  0  0  0  0  0  0  0  0  0  0
    0.0820   -1.0230   -2.5780 C   0  0  0  0  0  0  0  0  0  0  0  0
    0.1890   -2.2070   -1.8960 C   0  0  0  0  0  0  0  0  0  0  0  0
    1.3640   -3.1120   -1.9820 C   0  0  0  0  0  0  0  0  0  0  0  0
    2.2840   -3.0610   -0.8700 C   0  0  0  0  0  0  0  0  0  0  0  0
    2.3070   -4.0070    0.1600 C   0  0  0  0  0  0  0  0  0  0  0  0
    3.2720   -3.6200    1.0080 N   0  0  0  0  0  0  0  0  0  0  0  0
    3.8560   -2.4860    0.5690 N   0  0  0  0  0  0  0  0  0  0  0  0
    3.2540   -2.1390   -0.5820 C   0  0  0  0  0  0  0  0  0  0  0  0
    3.5500   -1.0060   -1.3750 N   0  0  0  0  0  0  0  0  0  0  0  0
    4.5850   -0.0870   -1.0580 C   0  0  0  0  0  0  0  0  0  0  0  0
    5.7750   -0.4990   -0.6880 N   0  0  0  0  0  0  0  0  0  0  0  0
    6.6420    0.6330   -0.4230 C   0  0  0  0  0  0  0  0  0  0  0  0
    5.6360    1.7010   -0.0430 C   0  0  2  0  0  0  0  0  0  0  0  0
    5.1500    1.3950    1.3380 C   0  0  0  0  0  0  0  0  0  0  0  0
    4.1330    2.3950    1.8390 C   0  0  0  0  0  0  0  0  0  0  0  0
    3.6450    1.9110    3.4840 Cl  0  0  0  0  0  0  0  0  0  0  0  0
    4.5490    1.4050   -1.0880 C   0  0  0  0  0  0  0  0  0  0  0  0
   -0.8910   -2.5430   -1.0680 C   0  0  0  0  0  0  0  0  0  0  0  0
   -1.9940   -1.7250   -0.9500 C   0  0  0  0  0  0  0  0  0  0  0  0
  2  1  1  1
  2  3  1  0
  2 13  1  0
  3  4  1  0
  4  5  2  0
  6  4  1  6
  6  7  1  0
  6 12  1  0
  7  8  1  0
  8  9  2  0
  9 10  1  0
 10 11  2  0
 10 12  1  0
 13 14  2  0
 13 33  1  0
 14 15  1  0
 15 16  2  0
 16 17  1  0
 16 32  1  0
 17 18  1  0
 18 19  1  0
 18 22  2  0
 19 20  2  0
 20 21  1  0
 21 22  1  0
 22 23  1  0
 23 24  1  0
 24 25  2  0
 24 31  1  0
 25 26  1  0
 26 27  1  0
 27 28  1  1
 27 31  1  0
 28 29  1  0
 29 30  1  0
 32 33  2  0
M  CHG  1  25   1
M  END
