
     RDKit          3D

 33 36  0  0  0  0  0  0  0  0999 V2000
   -4.4460    0.3770   -2.0410 C   0  0  0  0  0  0  0  0  0  0  0  0
   -4.4780    0.0750   -0.5230 C   0  0  2  0  0  0  0  0  0  0  0  0
   -4.6320   -1.3640   -0.3560 C   0  0  0  0  0  0  0  0  0  0  0  0
   -5.8080   -2.0600   -0.9390 C   0  0  0  0  0  0  0  0  0  0  0  0
   -5.6910   -3.5170   -0.6510 N   0  0  0  0  0  0  0  0  0  0  0  0
   -5.3540    1.0440    0.1590 C   0  0  0  0  0  0  0  0  0  0  0  0
   -6.7830    1.1210   -0.2460 C   0  0  0  0  0  0  0  0  0  0  0  0
   -7.6270    2.4630    0.6840 S   0  0  0  0  0  0  0  0  0  0  0  0
   -8.6370    3.1510   -0.2340 O   0  0  0  0  0  0  0  0  0  0  0  0
   -3.0390    0.3990   -0.1000 C   0  0  0  0  0  0  0  0  0  0  0  0
   -2.2580   -0.4950    0.5670 C   0  0  0  0  0  0  0  0  0  0  0  0
   -0.9520   -0.1190    0.9410 C   0  0  0  0  0  0  0  0  0  0  0  0
   -0.4280    1.1040    0.6670 C   0  0  0  0  0  0  0  0  0  0  0  0
    0.8450    1.5690    1.0610 N   0  0  0  0  0  0  0  0  0  0  0  0
    1.0300    2.5450    1.9970 C   0  0  0  0  0  0  0  0  0  0  0  0
    2.3500    2.8220    2.1600 C   0  0  0  0  0  0  0  0  0  0  0  0
    3.0110    1.9980    1.2970 C   0  0  0  0  0  0  0  0  0  0  0  0
    2.0910    1.2240    0.6220 C   0  0  0  0  0  0  0  0  0  0  0  0
    2.3140    0.2770   -0.4510 C   0  0  0  0  0  0  0  0  0  0  0  0
    3.3400   -0.3890   -0.8520 C   0  0  0  0  0  0  0  0  0  0  0  0
    4.7060   -0.5040   -0.4090 C   0  0  0  0  0  0  0  0  0  0  0  0
    5.7060   -0.8590   -1.3350 C   0  0  0  0  0  0  0  0  0  0  0  0
    7.0080   -1.0470   -0.9630 C   0  0  0  0  0  0  0  0  0  0  0  0
    8.0160   -1.3800   -1.8820 C   0  0  0  0  0  0  0  0  0  0  0  0
    9.3400   -1.5440   -1.4830 C   0  0  0  0  0  0  0  0  0  0  0  0
    9.7260   -1.3910   -0.1720 C   0  0  0  0  0  0  0  0  0  0  0  0
    8.7270   -1.0630    0.7420 C   0  0  0  0  0  0  0  0  0  0  0  0
    7.4150   -0.9000    0.3440 C   0  0  0  0  0  0  0  0  0  0  0  0
    6.4250   -0.5570    1.2390 C   0  0  0  0  0  0  0  0  0  0  0  0
    6.7970   -0.4200    2.4430 O   0  0  0  0  0  0  0  0  0  0  0  0
    5.1580   -0.3810    0.8430 N   0  0  0  0  0  0  0  0  0  0  0  0
   -1.2490    2.0120   -0.0230 C   0  0  0  0  0  0  0  0  0  0  0  0
   -2.5270    1.6460   -0.3900 C   0  0  0  0  0  0  0  0  0  0  0  0
  2  1  1  6
  2  3  1  0
  2  6  1  0
  2 10  1  0
  3  4  1  0
  4  5  1  0
  6  7  1  0
  7  8  1  0
  8  9  2  0
 10 11  2  0
 10 33  1  0
 11 12  1  0
 12 13  2  0
 13 14  1  0
 13 32  1  0
 14 15  1  0
 14 18  1  0
 15 16  2  0
 16 17  1  0
 17 18  2  0
 18 19  1  0
 19 20  2  3
 20 21  1  0
 21 22  2  0
 21 31  1  0
 22 23  1  0
 23 24  2  0
 23 28  1  0
 24 25  1  0
 25 26  2  0
 26 27  1  0
 27 28  2  0
 28 29  1  0
 29 30  2  0
 29 31  1  0
 32 33  2  0
M  CHG  1   5   1
M  END
