
     RDKit          3D

 32 34  0  0  0  0  0  0  0  0999 V2000
   -2.0270    6.7030    0.8390 C   0  0  0  0  0  0  0  0  0  0  0  0
   -2.0680    5.3350    0.3180 C   0  0  0  0  0  0  0  0  0  0  0  0
   -0.9900    4.5300    0.3740 C   0  0  0  0  0  0  0  0  0  0  0  0
   -0.9760    3.1880   -0.1200 C   0  0  0  0  0  0  0  0  0  0  0  0
    0.2650    2.4710   -0.0550 C   0  0  0  0  0  0  0  0  0  0  0  0
    1.3680    3.1880   -0.0700 O   0  0  0  0  0  0  0  0  0  0  0  0
    0.5340    1.1050    0.0310 N   0  0  0  0  0  0  0  0  0  0  0  0
    1.8730    0.5020    0.0900 C   0  0  0  0  0  0  0  0  0  0  0  0
    2.5300    0.9860    1.3520 C   0  0  0  0  0  0  0  0  0  0  0  0
    3.9190    0.4430    1.5690 C   0  0  0  0  0  0  0  0  0  0  0  0
    3.9770   -1.0110    1.6990 C   0  0  0  0  0  0  0  0  0  0  0  0
    2.9230   -1.6790    1.7000 O   0  0  0  0  0  0  0  0  0  0  0  0
    5.2250   -1.6660    1.8240 N   0  0  0  0  0  0  0  0  0  0  0  0
    5.2510   -3.1230    1.9530 C   0  0  1  0  0  0  0  0  0  0  0  0
    6.3810   -3.8980    1.3580 C   0  0  0  0  0  0  0  0  0  0  0  0
    6.2800   -3.7470    2.8290 C   0  0  0  0  0  0  0  0  0  0  0  0
   -2.0890    2.7470   -0.6500 N   0  0  0  0  0  0  0  0  0  0  0  0
   -2.2460    1.4290   -1.2090 C   0  0  0  0  0  0  0  0  0  0  0  0
   -2.7900    0.5620   -0.1650 N   0  0  0  0  0  0  0  0  0  0  0  0
   -3.0390   -0.8180   -0.4110 C   0  0  0  0  0  0  0  0  0  0  0  0
   -3.5620   -1.6240    0.5620 C   0  0  0  0  0  0  0  0  0  0  0  0
   -3.8050   -2.9670    0.3370 C   0  0  0  0  0  0  0  0  0  0  0  0
   -3.5280   -3.5410   -0.8790 C   0  0  0  0  0  0  0  0  0  0  0  0
   -3.7590   -4.9100   -1.1580 N   0  0  0  0  0  0  0  0  0  0  0  0
   -2.9940   -2.7390   -1.8910 C   0  0  0  0  0  0  0  0  0  0  0  0
   -2.6960   -3.3330   -3.1840 C   0  0  0  0  0  0  0  0  0  0  0  0
   -2.1570   -2.4990   -4.1930 N   0  0  0  0  0  0  0  0  0  0  0  0
   -2.9180   -4.5520   -3.3810 O   0  0  0  0  0  0  0  0  0  0  0  0
   -2.7650   -1.4070   -1.6300 C   0  0  0  0  0  0  0  0  0  0  0  0
   -3.2070    3.5460   -0.7210 C   0  0  0  0  0  0  0  0  0  0  0  0
   -4.2680    3.0990   -1.2360 O   0  0  0  0  0  0  0  0  0  0  0  0
   -3.2300    4.8330   -0.2500 C   0  0  0  0  0  0  0  0  0  0  0  0
  1  2  1  0
  2  3  1  0
  2 32  2  0
  3  4  2  0
  4  5  1  0
  4 17  1  0
  5  6  2  0
  5  7  1  0
  7  8  1  0
  8  9  1  0
  9 10  1  0
 10 11  1  0
 11 12  2  0
 11 13  1  0
 14 13  1  6
 14 15  1  0
 14 16  1  0
 15 16  1  0
 17 18  1  0
 17 30  1  0
 18 19  1  0
 19 20  1  0
 20 21  2  0
 20 29  1  0
 21 22  1  0
 22 23  2  0
 23 24  1  0
 23 25  1  0
 25 26  1  0
 25 29  2  0
 26 27  1  0
 26 28  2  0
 30 31  2  0
 30 32  1  0
M  END
