
     RDKit          3D

 33 36  0  0  0  0  0  0  0  0999 V2000
    9.8580    3.0190   -0.6130 C   0  0  0  0  0  0  0  0  0  0  0  0
    8.9320    2.2190   -1.4120 C   0  0  0  0  0  0  0  0  0  0  0  0
    7.8020    1.6780   -1.0820 C   0  0  0  0  0  0  0  0  0  0  0  0
    7.2030    1.7740    0.2350 C   0  0  0  0  0  0  0  0  0  0  0  0
    6.0490    1.2190    0.5550 C   0  0  0  0  0  0  0  0  0  0  0  0
    5.0960    0.4190   -0.2020 C   0  0  0  0  0  0  0  0  0  0  0  0
    5.3510    0.1240   -1.3810 O   0  0  0  0  0  0  0  0  0  0  0  0
    3.9180   -0.0170    0.3520 O   0  0  0  0  0  0  0  0  0  0  0  0
    2.9160   -0.7930   -0.2880 C   0  0  0  0  0  0  0  0  0  0  0  0
    2.4440   -0.0650   -1.5010 C   0  0  0  0  0  0  0  0  0  0  0  0
    1.3910   -0.8100   -2.2490 C   0  0  0  0  0  0  0  0  0  0  0  0
    0.1660   -0.9910   -1.4270 C   0  0  0  0  0  0  0  0  0  0  0  0
    0.0810   -2.0250   -0.3910 C   0  0  0  0  0  0  0  0  0  0  0  0
   -0.8350   -0.1930   -1.7330 C   0  0  0  0  0  0  0  0  0  0  0  0
   -2.1560   -0.1030   -1.1390 C   0  0  0  0  0  0  0  0  0  0  0  0
   -2.6370    1.1750   -0.7770 C   0  0  0  0  0  0  0  0  0  0  0  0
   -3.8910    1.3620   -0.2540 C   0  0  0  0  0  0  0  0  0  0  0  0
   -4.7570    0.3060   -0.0520 C   0  0  0  0  0  0  0  0  0  0  0  0
   -4.3100   -0.9430   -0.3950 C   0  0  0  0  0  0  0  0  0  0  0  0
   -3.0250   -1.1370   -0.9320 C   0  0  0  0  0  0  0  0  0  0  0  0
   -5.0170   -2.2400   -0.2920 C   0  0  0  0  0  0  0  0  0  0  0  0
   -6.0540   -2.2340    0.7580 C   0  0  0  0  0  0  0  0  0  0  0  0
   -5.9810   -3.3900    1.5300 C   0  0  0  0  0  0  0  0  0  0  0  0
   -6.8690   -3.5700    2.5600 C   0  0  0  0  0  0  0  0  0  0  0  0
   -7.8030   -2.6460    2.8290 N   0  0  0  0  0  0  0  0  0  0  0  0
   -7.9060   -1.5250    2.1160 C   0  0  0  0  0  0  0  0  0  0  0  0
   -7.0330   -1.3200    1.0820 C   0  0  0  0  0  0  0  0  0  0  0  0
   -7.2760   -0.0380    0.3980 C   0  0  1  0  0  0  0  0  0  0  0  0
   -8.4070    0.7620    0.9260 C   0  0  0  0  0  0  0  0  0  0  0  0
   -6.0190    0.7170    0.4860 N   0  0  0  0  0  0  0  0  0  0  0  0
    5.8300    1.5390    2.0070 C   0  0  0  0  0  0  0  0  0  0  0  0
    6.5640    2.6930    2.1970 O   0  0  0  0  0  0  0  0  0  0  0  0
    7.7280    2.4950    1.4320 C   0  0  0  0  0  0  0  0  0  0  0  0
  1  2  1  0
  2  3  2  3
  3  4  1  0
  4  5  2  0
  4 33  1  0
  5  6  1  0
  5 31  1  0
  6  7  2  0
  6  8  1  0
  8  9  1  0
  9 10  1  0
 10 11  1  0
 11 12  1  0
 12 13  1  0
 12 14  2  3
 14 15  1  0
 15 16  2  0
 15 20  1  0
 16 17  1  0
 17 18  2  0
 18 19  1  0
 18 30  1  0
 19 20  2  0
 19 21  1  0
 21 22  1  0
 22 23  2  0
 22 27  1  0
 23 24  1  0
 24 25  2  0
 25 26  1  0
 26 27  2  0
 27 28  1  0
 28 29  1  1
 28 30  1  0
 31 32  1  0
 32 33  1  0
M  END
