
     RDKit          3D

 33 34  0  0  0  0  0  0  0  0999 V2000
   -0.9350   -2.6450   -0.7570 C   0  0  0  0  0  0  0  0  0  0  0  0
   -0.0810   -1.4710   -1.3170 C   0  0  2  0  0  0  0  0  0  0  0  0
    0.9980   -1.2020   -0.3870 N   0  0  0  0  0  0  0  0  0  0  0  0
    2.2530   -1.8450   -0.4860 C   0  0  0  0  0  0  0  0  0  0  0  0
    2.4230   -2.6850   -1.4270 O   0  0  0  0  0  0  0  0  0  0  0  0
    3.3700   -1.5590    0.4890 C   0  0  1  0  0  0  0  0  0  0  0  0
    2.8560   -1.6240    1.8980 C   0  0  0  0  0  0  0  0  0  0  0  0
    2.3960   -2.9050    2.2400 O   0  0  0  0  0  0  0  0  0  0  0  0
    4.4700   -2.4250    0.2360 N   0  0  0  0  0  0  0  0  0  0  0  0
    5.8360   -1.7290   -0.4200 S   0  0  2  0  0  0  0  0  0  0  0  0
    5.4750   -1.2060   -1.8170 O   0  0  0  0  0  0  0  0  0  0  0  0
    6.8520   -2.8510   -0.7420 O   0  0  0  0  0  0  0  0  0  0  0  0
    6.7000   -0.5110    0.4430 C   0  0  0  0  0  0  0  0  0  0  0  0
    6.0140    0.7240    0.7930 C   0  0  0  0  0  0  0  0  0  0  0  0
    5.4680    0.8670    2.0460 C   0  0  0  0  0  0  0  0  0  0  0  0
    4.8020    1.9960    2.4670 C   0  0  0  0  0  0  0  0  0  0  0  0
    4.6880    3.0370    1.5560 C   0  0  0  0  0  0  0  0  0  0  0  0
    5.2290    2.9040    0.3060 C   0  0  0  0  0  0  0  0  0  0  0  0
    5.9010    1.7680   -0.1230 C   0  0  0  0  0  0  0  0  0  0  0  0
   -0.9310   -0.3460   -1.6540 C   0  0  0  0  0  0  0  0  0  0  0  0
   -0.8720    0.8190   -1.2080 O   0  0  0  0  0  0  0  0  0  0  0  0
   -1.9750   -0.5910   -2.6180 N   0  0  0  0  0  0  0  0  0  0  0  0
   -2.9070    0.4180   -3.0340 C   0  0  0  0  0  0  0  0  0  0  0  0
   -3.9250    0.5470   -1.9300 C   0  0  0  0  0  0  0  0  0  0  0  0
   -4.9270   -0.4190   -1.8260 C   0  0  0  0  0  0  0  0  0  0  0  0
   -5.8620   -0.3610   -0.8530 C   0  0  0  0  0  0  0  0  0  0  0  0
   -5.8320    0.6840    0.0720 C   0  0  0  0  0  0  0  0  0  0  0  0
   -6.8350    0.6630    1.0800 N   0  0  0  0  0  0  0  0  0  0  0  0
   -7.1030    1.7770    1.9260 C   0  0  0  0  0  0  0  0  0  0  0  0
   -7.3240    1.5620    3.3050 N   0  0  0  0  0  0  0  0  0  0  0  0
   -7.1580    2.9680    1.3940 N   0  0  0  0  0  0  0  0  0  0  0  0
   -4.8730    1.6370    0.0000 C   0  0  0  0  0  0  0  0  0  0  0  0
   -3.9070    1.5670   -1.0160 C   0  0  0  0  0  0  0  0  0  0  0  0
  2  1  1  1
  2  3  1  0
  2 20  1  0
  3  4  1  0
  4  5  2  0
  4  6  1  0
  6  7  1  1
  6  9  1  0
  7  8  1  0
  9 10  1  0
 10 11  2  0
 10 12  2  0
 10 13  1  1
 13 14  1  0
 14 15  2  0
 14 19  1  0
 15 16  1  0
 16 17  2  0
 17 18  1  0
 18 19  2  0
 20 21  2  0
 20 22  1  0
 22 23  1  0
 23 24  1  0
 24 25  2  0
 24 33  1  0
 25 26  1  0
 26 27  2  0
 27 28  1  0
 27 32  1  0
 28 29  1  0
 29 30  1  0
 29 31  2  0
 32 33  2  0
M  CHG  1  31   1
M  END
