
     RDKit          3D

 33 36  0  0  0  0  0  0  0  0999 V2000
    8.1930   -1.6260   -2.9780 C   0  0  0  0  0  0  0  0  0  0  0  0
    8.4210   -2.1360   -1.5710 C   0  0  0  0  0  0  0  0  0  0  0  0
    7.8040   -1.2690   -0.6310 O   0  0  0  0  0  0  0  0  0  0  0  0
    6.4390   -1.0420   -0.6640 C   0  0  0  0  0  0  0  0  0  0  0  0
    5.7900   -1.6360   -1.5570 O   0  0  0  0  0  0  0  0  0  0  0  0
    5.7810   -0.1480    0.2990 C   0  0  0  0  0  0  0  0  0  0  0  0
    6.5470    0.4930    1.2770 C   0  0  0  0  0  0  0  0  0  0  0  0
    5.9960    1.3440    2.2120 C   0  0  0  0  0  0  0  0  0  0  0  0
    4.6320    1.5270    2.1250 C   0  0  0  0  0  0  0  0  0  0  0  0
    3.8290    0.9310    1.1950 C   0  0  0  0  0  0  0  0  0  0  0  0
    4.4220    0.0730    0.2600 C   0  0  0  0  0  0  0  0  0  0  0  0
    3.4390   -0.3850   -0.5390 N   0  0  0  0  0  0  0  0  0  0  0  0
    2.2390    0.1200   -0.1860 C   0  0  0  0  0  0  0  0  0  0  0  0
    0.9440   -0.0270   -0.6690 C   0  0  0  0  0  0  0  0  0  0  0  0
   -0.0880    0.6590   -0.0510 C   0  0  0  0  0  0  0  0  0  0  0  0
    0.1360    1.4840    1.0300 C   0  0  0  0  0  0  0  0  0  0  0  0
   -0.9470    2.2260    1.7050 C   0  0  0  0  0  0  0  0  0  0  0  0
   -1.5780    1.4710    2.8200 C   0  0  0  0  0  0  0  0  0  0  0  0
   -2.2060    0.1610    2.4480 C   0  0  0  0  0  0  0  0  0  0  0  0
   -3.2950    0.3460    1.4970 C   0  0  0  0  0  0  0  0  0  0  0  0
   -3.6640    1.4900    1.1440 O   0  0  0  0  0  0  0  0  0  0  0  0
   -4.0190   -0.7350    0.9000 N   0  0  0  0  0  0  0  0  0  0  0  0
   -5.0840   -0.5520   -0.0300 C   0  0  0  0  0  0  0  0  0  0  0  0
   -6.3870   -0.4340    0.4030 C   0  0  0  0  0  0  0  0  0  0  0  0
   -6.6410   -0.5060    1.8840 C   0  0  0  0  0  0  0  0  0  0  0  0
   -7.4150   -0.2580   -0.4920 C   0  0  0  0  0  0  0  0  0  0  0  0
   -7.1230   -0.2000   -1.8320 C   0  0  0  0  0  0  0  0  0  0  0  0
   -5.8390   -0.3110   -2.3250 C   0  0  0  0  0  0  0  0  0  0  0  0
   -5.5720   -0.2420   -3.7890 C   0  0  0  0  0  0  0  0  0  0  0  0
   -4.8490   -0.4870   -1.3860 C   0  0  0  0  0  0  0  0  0  0  0  0
   -3.4330   -0.6150   -1.8560 C   0  0  0  0  0  0  0  0  0  0  0  0
    1.4380    1.6010    1.4770 C   0  0  0  0  0  0  0  0  0  0  0  0
    2.4840    0.9360    0.8890 C   0  0  0  0  0  0  0  0  0  0  0  0
  1  2  1  0
  2  3  1  0
  3  4  1  0
  4  5  2  0
  4  6  1  0
  6  7  2  0
  6 11  1  0
  7  8  1  0
  8  9  2  0
  9 10  1  0
 10 11  2  0
 10 33  1  0
 11 12  1  0
 12 13  1  0
 13 14  2  0
 13 33  1  0
 14 15  1  0
 15 16  2  0
 16 17  1  0
 16 32  1  0
 17 18  1  0
 18 19  1  0
 19 20  1  0
 20 21  2  0
 20 22  1  0
 22 23  1  0
 23 24  2  0
 23 30  1  0
 24 25  1  0
 24 26  1  0
 26 27  2  0
 27 28  1  0
 28 29  1  0
 28 30  2  0
 30 31  1  0
 32 33  2  0
M  END
