
     RDKit          3D

 33 36  0  0  0  0  0  0  0  0999 V2000
   -7.0380    2.0010   -1.4640 C   0  0  0  0  0  0  0  0  0  0  0  0
   -7.5720    0.9300   -1.0060 C   0  0  0  0  0  0  0  0  0  0  0  0
   -7.0290    0.0470    0.0230 C   0  0  0  0  0  0  0  0  0  0  0  0
   -7.7850   -0.9690    0.3690 C   0  0  0  0  0  0  0  0  0  0  0  0
   -7.4610   -1.9880    1.3640 C   0  0  0  0  0  0  0  0  0  0  0  0
   -5.7870    0.3240    0.6900 C   0  0  0  0  0  0  0  0  0  0  0  0
   -5.5840    0.1000    2.0250 C   0  0  0  0  0  0  0  0  0  0  0  0
   -4.3290    0.2570    2.5750 C   0  0  0  0  0  0  0  0  0  0  0  0
   -3.2370    0.6380    1.8430 C   0  0  0  0  0  0  0  0  0  0  0  0
   -3.4430    0.8640    0.4920 C   0  0  0  0  0  0  0  0  0  0  0  0
   -2.3790    1.2580   -0.3260 O   0  0  0  0  0  0  0  0  0  0  0  0
   -1.4570    0.3250   -0.7590 C   0  0  0  0  0  0  0  0  0  0  0  0
   -0.1120    0.5470   -0.3850 C   0  0  0  0  0  0  0  0  0  0  0  0
    0.9110   -0.2710   -0.7280 C   0  0  0  0  0  0  0  0  0  0  0  0
    2.2710   -0.1030   -0.3960 N   0  0  0  0  0  0  0  0  0  0  0  0
    2.8890    0.9780    0.2420 C   0  0  0  0  0  0  0  0  0  0  0  0
    2.1790    1.9500    0.5780 O   0  0  0  0  0  0  0  0  0  0  0  0
    4.3300    1.0330    0.5370 C   0  0  0  0  0  0  0  0  0  0  0  0
    4.8450    2.1690    1.1230 C   0  0  0  0  0  0  0  0  0  0  0  0
    6.1850    2.2920    1.4310 C   0  0  0  0  0  0  0  0  0  0  0  0
    7.0530    1.2590    1.1520 C   0  0  0  0  0  0  0  0  0  0  0  0
    6.5650    0.1110    0.5650 C   0  0  0  0  0  0  0  0  0  0  0  0
    5.1990    0.0230    0.2680 C   0  0  0  0  0  0  0  0  0  0  0  0
    7.5210   -0.9610    0.2870 C   0  0  0  0  0  0  0  0  0  0  0  0
    8.8920   -0.4820   -0.0480 C   0  0  0  0  0  0  0  0  0  0  0  0
    9.4040    0.6580    0.7530 C   0  0  0  0  0  0  0  0  0  0  0  0
    8.4270    1.4080    1.4780 N   0  0  0  0  0  0  0  0  0  0  0  0
    0.5540   -1.3910   -1.5020 C   0  0  0  0  0  0  0  0  0  0  0  0
   -0.7400   -1.6370   -1.8840 C   0  0  0  0  0  0  0  0  0  0  0  0
   -1.7550   -0.7780   -1.5130 C   0  0  0  0  0  0  0  0  0  0  0  0
   -3.0420   -1.0430   -1.9050 O   0  0  0  0  0  0  0  0  0  0  0  0
   -3.3880   -2.1680   -2.6820 C   0  0  0  0  0  0  0  0  0  0  0  0
   -4.6800    0.7140   -0.0790 C   0  0  0  0  0  0  0  0  0  0  0  0
  1  2  2  0
  2  3  1  0
  3  4  2  3
  3  6  1  0
  4  5  1  0
  6  7  2  0
  6 33  1  0
  7  8  1  0
  8  9  2  0
  9 10  1  0
 10 11  1  0
 10 33  2  0
 11 12  1  0
 12 13  2  0
 12 30  1  0
 13 14  1  0
 14 15  1  0
 14 28  2  0
 15 16  1  0
 16 17  2  0
 16 18  1  0
 18 19  2  0
 18 23  1  0
 19 20  1  0
 20 21  2  0
 21 22  1  0
 21 27  1  0
 22 23  2  0
 22 24  1  0
 24 25  1  0
 25 26  1  0
 26 27  1  0
 28 29  1  0
 29 30  2  0
 30 31  1  0
 31 32  1  0
M  END
