
     RDKit          3D

  7  6  0  0  0  0  0  0  0  0999 V2000
   -2.6940   -0.2400    0.0270 C   0  0  0  0  0  0  0  0  0  0  0  0
   -1.4490   -0.8300    0.7060 C   0  0  0  0  0  0  0  0  0  0  0  0
   -0.4630    0.2160    0.8250 N   0  0  0  0  0  0  0  0  0  0  0  0
    0.1100    0.6040   -0.4500 C   0  0  0  0  0  0  0  0  0  0  0  0
    1.0530   -0.4510   -0.9820 C   0  0  0  0  0  0  0  0  0  0  0  0
    2.1190   -0.6840   -0.1120 O   0  0  0  0  0  0  0  0  0  0  0  0
    2.8970    0.4370    0.1290 C   0  0  0  0  0  0  0  0  0  0  0  0
  1  2  1  0
  2  3  1  0
  3  4  1  0
  4  5  1  0
  5  6  1  0
  6  7  1  0
M  END
