
     RDKit          3D

  6  5  0  0  0  0  0  0  0  0999 V2000
    1.5700    1.0130   -0.3400 C   0  0  0  0  0  0  0  0  0  0  0  0
    0.6110   -0.1470   -0.4330 C   0  0  1  0  0  0  0  0  0  0  0  0
    1.1150   -1.1830    0.5580 C   0  0  0  0  0  0  0  0  0  0  0  0
   -0.7320    0.2240   -0.2340 N   0  0  0  0  0  0  0  0  0  0  0  0
   -1.1340    0.6600    1.0510 C   0  0  0  0  0  0  0  0  0  0  0  0
   -1.7160   -0.3840   -1.0550 C   0  0  0  0  0  0  0  0  0  0  0  0
  2  1  1  1
  2  3  1  0
  2  4  1  0
  4  5  1  0
  4  6  1  0
M  END
