
     RDKit          3D

  7  6  0  0  0  0  0  0  0  0999 V2000
   -0.8790    1.7190   -0.0040 C   0  0  0  0  0  0  0  0  0  0  0  0
   -0.4780    0.2530    0.1240 C   0  0  1  0  0  0  0  0  0  0  0  0
   -1.6020   -0.5670   -0.4290 C   0  0  0  0  0  0  0  0  0  0  0  0
   -1.3730   -1.9250   -0.2610 O   0  0  0  0  0  0  0  0  0  0  0  0
    0.7880   -0.0080   -0.4980 N   0  0  0  0  0  0  0  0  0  0  0  0
    1.7820    0.7980    0.2080 C   0  0  0  0  0  0  0  0  0  0  0  0
    1.1490   -1.3850   -0.2320 C   0  0  0  0  0  0  0  0  0  0  0  0
  2  1  1  6
  2  3  1  0
  2  5  1  0
  3  4  1  0
  5  6  1  0
  5  7  1  0
M  END
