
     RDKit          3D

  7  7  0  0  0  0  0  0  0  0999 V2000
   -2.3340   -0.1200   -0.3810 C   0  0  0  0  0  0  0  0  0  0  0  0
   -1.1070    0.7910   -0.3300 C   0  0  0  0  0  0  0  0  0  0  0  0
    0.0290   -0.0870   -0.5480 N   0  0  0  0  0  0  0  0  0  0  0  0
    1.2520    0.6750   -0.7160 C   0  0  0  0  0  0  0  0  0  0  0  0
    2.2580   -0.2570   -0.0500 C   0  0  0  0  0  0  0  0  0  0  0  0
    1.5500   -0.5890    1.1040 O   0  0  0  0  0  0  0  0  0  0  0  0
    0.2840   -0.9050    0.6250 C   0  0  0  0  0  0  0  0  0  0  0  0
  1  2  1  0
  2  3  1  0
  3  4  1  0
  3  7  1  0
  4  5  1  0
  5  6  1  0
  6  7  1  0
M  END
