
     RDKit          3D

  7  6  0  0  0  0  0  0  0  0999 V2000
   -2.0640   -1.0480    0.4400 C   0  0  0  0  0  0  0  0  0  0  0  0
   -1.1880   -0.3450   -0.5750 C   0  0  0  0  0  0  0  0  0  0  0  0
   -0.1180    0.3800   -0.0230 N   0  0  0  0  0  0  0  0  0  0  0  0
    0.9390   -0.3010    0.5980 C   0  0  0  0  0  0  0  0  0  0  0  0
    1.8240   -1.1180   -0.2810 C   0  0  0  0  0  0  0  0  0  0  0  0
    0.0960    1.7080   -0.4730 C   0  0  0  0  0  0  0  0  0  0  0  0
    1.2080    2.2440    0.2180 O   0  0  0  0  0  0  0  0  0  0  0  0
  1  2  1  0
  2  3  1  0
  3  4  1  0
  3  6  1  0
  4  5  1  0
  6  7  1  0
M  END
