
     RDKit          3D

 17 18  0  0  0  0  0  0  0  0999 V2000
    4.6000   -1.0390    0.1260 C   0  0  0  0  0  0  0  0  0  0  0  0
    3.3280   -0.3640   -0.3070 C   0  0  0  0  0  0  0  0  0  0  0  0
    2.1190   -0.8130    0.1680 C   0  0  0  0  0  0  0  0  0  0  0  0
    0.9580   -0.2160   -0.2110 N   0  0  0  0  0  0  0  0  0  0  0  0
   -0.3360   -0.6680    0.2740 C   0  0  1  0  0  0  0  0  0  0  0  0
   -0.9050    0.2920    1.2860 C   0  0  0  0  0  0  0  0  0  0  0  0
   -2.2720    0.6020    0.7170 C   0  0  2  0  0  0  0  0  0  0  0  0
   -3.2420    0.5320    1.7130 O   0  0  0  0  0  0  0  0  0  0  0  0
   -2.4800   -0.5720   -0.2220 C   0  0  1  0  0  0  0  0  0  0  0  0
   -3.5190   -0.2600   -1.2770 C   0  0  0  0  0  0  0  0  0  0  0  0
   -4.7750   -0.0730   -0.7290 O   0  0  0  0  0  0  0  0  0  0  0  0
   -1.2390   -0.7550   -0.7710 O   0  0  0  0  0  0  0  0  0  0  0  0
    1.0100    0.8190   -1.0580 C   0  0  0  0  0  0  0  0  0  0  0  0
   -0.0360    1.4020   -1.4370 O   0  0  0  0  0  0  0  0  0  0  0  0
    2.1780    1.3040   -1.5580 N   0  0  0  0  0  0  0  0  0  0  0  0
    3.3230    0.7040   -1.1750 C   0  0  0  0  0  0  0  0  0  0  0  0
    4.4550    1.1020   -1.6020 O   0  0  0  0  0  0  0  0  0  0  0  0
  1  2  1  0
  2  3  2  0
  2 16  1  0
  3  4  1  0
  5  4  1  6
  4 13  1  0
  5  6  1  0
  5 12  1  0
  6  7  1  0
  7  8  1  1
  7  9  1  0
  9 10  1  6
  9 12  1  0
 10 11  1  0
 13 14  2  0
 13 15  1  0
 15 16  1  0
 16 17  2  0
M  END
