
     RDKit          3D

  7  6  0  0  0  0  0  0  0  0999 V2000
   -2.7540    0.7110   -0.2390 C   0  0  0  0  0  0  0  0  0  0  0  0
   -2.2950   -0.3920    0.5730 N   0  0  0  0  0  0  0  0  0  0  0  0
   -1.0510   -0.9030    0.0290 C   0  0  0  0  0  0  0  0  0  0  0  0
    0.0190    0.0800    0.3670 C   0  0  0  0  0  0  0  0  0  0  0  0
    1.3880   -0.3280   -0.1440 C   0  0  0  0  0  0  0  0  0  0  0  0
    2.2660    0.6610    0.2370 O   0  0  0  0  0  0  0  0  0  0  0  0
    3.5730    0.4380   -0.1560 C   0  0  0  0  0  0  0  0  0  0  0  0
  1  2  1  0
  2  3  1  0
  3  4  1  0
  4  5  1  0
  5  6  1  0
  6  7  1  0
M  CHG  1   2   1
M  END
