
     RDKit          3D

  7  6  0  0  0  0  0  0  0  0999 V2000
   -2.4300    0.5770   -0.6970 C   0  0  0  0  0  0  0  0  0  0  0  0
   -1.5940   -0.3410   -1.2680 O   0  0  0  0  0  0  0  0  0  0  0  0
   -0.9440   -1.1910   -0.4180 C   0  0  0  0  0  0  0  0  0  0  0  0
   -0.0820   -0.3960    0.5250 C   0  0  0  0  0  0  0  0  0  0  0  0
    0.8640    0.3490   -0.2620 N   0  0  0  0  0  0  0  0  0  0  0  0
    1.7530    1.1570    0.5330 C   0  0  0  0  0  0  0  0  0  0  0  0
    1.5570   -0.4310   -1.2320 C   0  0  0  0  0  0  0  0  0  0  0  0
  1  2  1  0
  2  3  1  0
  3  4  1  0
  4  5  1  0
  5  6  1  0
  5  7  1  0
M  END
