
     RDKit          3D

 21 24  0  0  0  0  0  0  0  0999 V2000
    3.7310   -1.7950   -0.5860 C   0  0  0  0  0  0  0  0  0  0  0  0
    3.2640   -0.6120    0.2060 C   0  0  1  0  0  0  0  0  0  0  0  0
    3.7430    0.6350   -0.5510 C   0  0  0  0  0  0  0  0  0  0  0  0
    3.4600    1.8030    0.3850 C   0  0  0  0  0  0  0  0  0  0  0  0
    1.9600    1.9570    0.4440 C   0  0  0  0  0  0  0  0  0  0  0  0
    1.2120    0.7430    0.0100 C   0  0  1  0  0  0  0  0  0  0  0  0
    1.8050   -0.5570    0.4740 C   0  0  1  0  0  0  0  0  0  0  0  0
    0.9960   -1.6730   -0.0820 C   0  0  0  0  0  0  0  0  0  0  0  0
   -0.2360   -1.3420   -0.7950 C   0  0  0  0  0  0  0  0  0  0  0  0
   -1.0770   -0.1980   -0.3090 C   0  0  1  0  0  0  0  0  0  0  0  0
   -1.8490    0.3020   -1.5040 C   0  0  0  0  0  0  0  0  0  0  0  0
   -3.2920   -0.0560   -1.5290 C   0  0  2  0  0  0  0  0  0  0  0  0
   -4.0610    0.9470   -0.9410 O   0  0  0  0  0  0  0  0  0  0  0  0
   -3.6040   -1.3940   -0.9110 C   0  0  0  0  0  0  0  0  0  0  0  0
   -3.2050   -1.3220    0.5200 C   0  0  0  0  0  0  0  0  0  0  0  0
   -1.9200   -0.6880    0.8190 C   0  0  1  0  0  0  0  0  0  0  0  0
   -1.1500   -1.6240    1.5560 O   0  0  0  0  0  0  0  0  0  0  0  0
   -2.0340    0.5040    1.7830 C   0  0  0  0  0  0  0  0  0  0  0  0
   -0.5400    0.8730    1.8170 C   0  0  0  0  0  0  0  0  0  0  0  0
   -0.2410    0.8830    0.3420 C   0  0  1  0  0  0  0  0  0  0  0  0
   -0.6300    2.2960   -0.1100 C   0  0  0  0  0  0  0  0  0  0  0  0
  2  1  1  6
  2  3  1  0
  2  7  1  0
  3  4  1  0
  4  5  1  0
  6  5  1  1
  6  7  1  0
  6 20  1  0
  7  8  1  6
  8  9  1  0
 10  9  1  6
 10 11  1  0
 10 16  1  0
 10 20  1  0
 11 12  1  0
 12 13  1  1
 12 14  1  0
 14 15  1  0
 15 16  1  0
 16 17  1  1
 16 18  1  0
 18 19  1  0
 19 20  1  0
 20 21  1  6
M  END
