
     RDKit          3D

 20 20  0  0  0  0  0  0  0  0999 V2000
   -4.6890    0.4170    1.3700 C   0  0  0  0  0  0  0  0  0  0  0  0
   -3.9560    0.3340    0.0460 C   0  0  0  0  0  0  0  0  0  0  0  0
   -2.5890   -0.2340    0.2880 C   0  0  2  0  0  0  0  0  0  0  0  0
   -2.7970   -1.6270    0.8990 C   0  0  0  0  0  0  0  0  0  0  0  0
   -1.8780    0.5680    1.2350 N   0  0  0  0  0  0  0  0  0  0  0  0
   -1.7900   -0.4280   -0.9580 C   0  0  1  0  0  0  0  0  0  0  0  0
   -2.4210   -1.3290   -1.8920 N   0  0  0  0  0  0  0  0  0  0  0  0
   -1.3830    0.8720   -1.6120 C   0  0  2  0  0  0  0  0  0  0  0  0
   -2.4460    1.5660   -2.1560 O   0  0  0  0  0  0  0  0  0  0  0  0
   -0.3790    0.5930   -2.7110 C   0  0  0  0  0  0  0  0  0  0  0  0
    0.7450   -0.1090   -2.2750 O   0  0  0  0  0  0  0  0  0  0  0  0
    1.6380    0.3050   -1.3110 C   0  0  0  0  0  0  0  0  0  0  0  0
    1.4370    1.4180   -0.7600 O   0  0  0  0  0  0  0  0  0  0  0  0
    2.8110   -0.5410   -0.9270 C   0  0  0  0  0  0  0  0  0  0  0  0
    3.6430    0.0990    0.1330 C   0  0  1  0  0  0  0  0  0  0  0  0
    4.2070    1.4370   -0.2880 C   0  0  0  0  0  0  0  0  0  0  0  0
    2.9170    0.2940    1.4290 C   0  0  0  0  0  0  0  0  0  0  0  0
    3.7820   -0.4660    2.4110 C   0  0  0  0  0  0  0  0  0  0  0  0
    4.4200   -1.5060    1.4840 C   0  0  0  0  0  0  0  0  0  0  0  0
    4.7300   -0.7360    0.3850 O   0  0  0  0  0  0  0  0  0  0  0  0
  1  2  1  0
  2  3  1  0
  3  4  1  1
  3  5  1  0
  3  6  1  0
  6  7  1  6
  6  8  1  0
  8  9  1  6
  8 10  1  0
 10 11  1  0
 11 12  1  0
 12 13  2  0
 12 14  1  0
 14 15  1  0
 15 16  1  6
 15 17  1  0
 15 20  1  0
 17 18  1  0
 18 19  1  0
 19 20  1  0
M  CHG  1   5   1
M  END
