
     RDKit          3D

 20 20  0  0  0  0  0  0  0  0999 V2000
   -3.8610    2.4770   -0.7360 C   0  0  0  0  0  0  0  0  0  0  0  0
   -4.6160    1.5200    0.1350 C   0  0  0  0  0  0  0  0  0  0  0  0
   -4.2210    0.1060    0.1250 C   0  0  0  0  0  0  0  0  0  0  0  0
   -2.8860   -0.3440    0.5370 C   0  0  1  0  0  0  0  0  0  0  0  0
   -2.5080    0.0020    1.8900 N   0  0  0  0  0  0  0  0  0  0  0  0
   -2.9550   -1.8980    0.5660 C   0  0  0  0  0  0  0  0  0  0  0  0
   -1.9530   -2.4780   -0.4070 C   0  0  0  0  0  0  0  0  0  0  0  0
   -0.5880   -2.0250    0.0830 C   0  0  0  0  0  0  0  0  0  0  0  0
   -0.4880   -0.5610   -0.2050 C   0  0  1  0  0  0  0  0  0  0  0  0
    0.1940   -0.4330   -1.4130 O   0  0  0  0  0  0  0  0  0  0  0  0
    1.3930    0.2230   -1.3340 C   0  0  0  0  0  0  0  0  0  0  0  0
    2.4110   -0.4170   -0.4380 C   0  0  0  0  0  0  0  0  0  0  0  0
    3.6650    0.4180   -0.4610 C   0  0  0  0  0  0  0  0  0  0  0  0
    3.7070    1.4610   -1.1640 O   0  0  0  0  0  0  0  0  0  0  0  0
    4.8040    0.0650    0.2890 N   0  0  0  0  0  0  0  0  0  0  0  0
    5.9490    0.8970    0.2200 C   0  0  0  0  0  0  0  0  0  0  0  0
    5.9910    1.9320   -0.4780 O   0  0  0  0  0  0  0  0  0  0  0  0
    7.1410    0.4920    1.0290 C   0  0  0  0  0  0  0  0  0  0  0  0
    8.1650    1.4060    0.8480 O   0  0  0  0  0  0  0  0  0  0  0  0
   -1.8250    0.1140   -0.3860 C   0  0  0  0  0  0  0  0  0  0  0  0
  1  2  1  0
  2  3  1  0
  3  4  1  0
  4  5  1  1
  4  6  1  0
  4 20  1  0
  6  7  1  0
  7  8  1  0
  8  9  1  0
  9 10  1  6
  9 20  1  0
 10 11  1  0
 11 12  1  0
 12 13  1  0
 13 14  2  0
 13 15  1  0
 15 16  1  0
 16 17  2  0
 16 18  1  0
 18 19  1  0
M  CHG  1   5   1
M  END
