
     RDKit          3D

 19 19  0  0  0  0  0  0  0  0999 V2000
    4.7770    2.4000   -0.8720 C   0  0  0  0  0  0  0  0  0  0  0  0
    4.4440    1.4320    0.2470 C   0  0  0  0  0  0  0  0  0  0  0  0
    3.9080    0.1900   -0.2660 N   0  0  0  0  0  0  0  0  0  0  0  0
    2.6340    0.1470   -0.8930 C   0  0  0  0  0  0  0  0  0  0  0  0
    2.5370    0.3550   -2.3510 C   0  0  0  0  0  0  0  0  0  0  0  0
    1.5360   -0.0730   -0.1970 C   0  0  0  0  0  0  0  0  0  0  0  0
    0.2290   -0.1230   -0.7960 C   0  0  0  0  0  0  0  0  0  0  0  0
    0.0530    0.0400   -2.0210 O   0  0  0  0  0  0  0  0  0  0  0  0
   -0.8720   -0.3640    0.0440 O   0  0  0  0  0  0  0  0  0  0  0  0
   -2.1440   -0.4100   -0.5610 C   0  0  2  0  0  0  0  0  0  0  0  0
   -2.9710    0.7390    0.0190 C   0  0  0  0  0  0  0  0  0  0  0  0
   -4.3950    0.5240   -0.4250 C   0  0  0  0  0  0  0  0  0  0  0  0
   -4.9640   -0.5910    0.4420 C   0  0  0  0  0  0  0  0  0  0  0  0
   -3.8430   -1.5170    0.8580 C   0  0  0  0  0  0  0  0  0  0  0  0
   -2.8490   -1.7150   -0.2540 C   0  0  1  0  0  0  0  0  0  0  0  0
   -3.5130   -2.1600   -1.3760 O   0  0  0  0  0  0  0  0  0  0  0  0
    1.6930   -0.2790    1.2860 C   0  0  2  0  0  0  0  0  0  0  0  0
    1.1830   -1.6380    1.6950 C   0  0  0  0  0  0  0  0  0  0  0  0
    0.8850    0.7290    1.9420 N   0  0  0  0  0  0  0  0  0  0  0  0
  1  2  1  0
  2  3  1  0
  3  4  1  0
  4  5  1  0
  4  6  2  3
  6  7  1  0
  6 17  1  0
  7  8  2  0
  7  9  1  0
 10  9  1  1
 10 11  1  0
 10 15  1  0
 11 12  1  0
 12 13  1  0
 13 14  1  0
 14 15  1  0
 15 16  1  6
 17 18  1  6
 17 19  1  0
M  CHG  1  19   1
M  END
