
     RDKit          3D

 20 20  0  0  0  0  0  0  0  0999 V2000
   -5.2350    1.2570   -1.7090 C   0  0  0  0  0  0  0  0  0  0  0  0
   -5.2890    0.0150   -0.8440 C   0  0  0  0  0  0  0  0  0  0  0  0
   -4.2610    0.0170    0.1440 O   0  0  0  0  0  0  0  0  0  0  0  0
   -2.9190    0.0600   -0.1850 C   0  0  0  0  0  0  0  0  0  0  0  0
   -2.6090    0.0980   -1.4010 O   0  0  0  0  0  0  0  0  0  0  0  0
   -1.8330    0.0640    0.8230 C   0  0  1  0  0  0  0  0  0  0  0  0
   -2.0250    1.2920    1.6830 C   0  0  0  0  0  0  0  0  0  0  0  0
   -2.0130   -1.1650    1.7090 C   0  0  0  0  0  0  0  0  0  0  0  0
   -3.3680   -1.0600    2.3690 C   0  0  0  0  0  0  0  0  0  0  0  0
   -0.5270    0.1120    0.2310 N   0  0  0  0  0  0  0  0  0  0  0  0
   -0.0300   -0.8820   -0.6590 C   0  0  0  0  0  0  0  0  0  0  0  0
   -0.7930   -1.8450   -0.9270 O   0  0  0  0  0  0  0  0  0  0  0  0
    1.3220   -0.8210   -1.2640 C   0  0  2  0  0  0  0  0  0  0  0  0
    2.2030   -1.9670   -0.8130 C   0  0  0  0  0  0  0  0  0  0  0  0
    3.5900   -1.4250   -1.1720 C   0  0  0  0  0  0  0  0  0  0  0  0
    3.3230    0.0260   -1.3350 C   0  0  2  0  0  0  0  0  0  0  0  0
    4.3410    0.9070   -0.6520 C   0  0  0  0  0  0  0  0  0  0  0  0
    4.4140    0.6810    0.8240 C   0  0  0  0  0  0  0  0  0  0  0  0
    5.4240    1.5850    1.3570 N   0  0  0  0  0  0  0  0  0  0  0  0
    2.0360    0.2850   -0.8780 O   0  0  0  0  0  0  0  0  0  0  0  0
  1  2  1  0
  2  3  1  0
  3  4  1  0
  4  5  2  0
  4  6  1  0
  6  7  1  1
  6  8  1  0
  6 10  1  0
  8  9  1  0
 10 11  1  0
 11 12  2  0
 13 11  1  1
 13 14  1  0
 13 20  1  0
 14 15  1  0
 15 16  1  0
 16 17  1  1
 16 20  1  0
 17 18  1  0
 18 19  1  0
M  CHG  1  19   1
M  END
