
     RDKit          3D

 20 21  0  0  0  0  0  0  0  0999 V2000
    3.8130   -0.9990    1.2780 C   0  0  0  0  0  0  0  0  0  0  0  0
    3.5190    0.1420    0.3540 C   0  0  2  0  0  0  0  0  0  0  0  0
    2.0500    0.2960    0.0690 C   0  0  1  0  0  0  0  0  0  0  0  0
    1.5740   -0.9220   -0.5280 N   0  0  0  0  0  0  0  0  0  0  0  0
    1.3090    0.5540    1.3380 C   0  0  0  0  0  0  0  0  0  0  0  0
   -0.1820    0.7140    1.0710 C   0  0  0  0  0  0  0  0  0  0  0  0
   -0.7180   -0.4300    0.4920 O   0  0  0  0  0  0  0  0  0  0  0  0
   -2.0550   -0.2400    0.2720 C   0  0  1  0  0  0  0  0  0  0  0  0
   -2.4040   -0.3250   -1.2130 C   0  0  0  0  0  0  0  0  0  0  0  0
   -3.7140    0.4500   -1.3720 C   0  0  0  0  0  0  0  0  0  0  0  0
   -4.6520   -0.0450   -0.2960 C   0  0  1  0  0  0  0  0  0  0  0  0
   -4.7200    0.8000    0.7970 O   0  0  0  0  0  0  0  0  0  0  0  0
   -5.9270   -0.1080   -0.8580 O   0  0  0  0  0  0  0  0  0  0  0  0
   -6.2410    1.1400   -1.2600 N   0  0  0  0  0  0  0  0  0  0  0  0
   -4.2290   -1.4150    0.2240 C   0  0  0  0  0  0  0  0  0  0  0  0
   -2.9260   -1.2540    0.9740 C   0  0  0  0  0  0  0  0  0  0  0  0
    4.3250    0.0960   -0.9260 C   0  0  0  0  0  0  0  0  0  0  0  0
    5.7190    0.3680   -0.3660 C   0  0  0  0  0  0  0  0  0  0  0  0
    5.4030    1.2580    0.8030 C   0  0  0  0  0  0  0  0  0  0  0  0
    4.0420    1.3130    0.9440 O   0  0  0  0  0  0  0  0  0  0  0  0
  2  1  1  1
  2  3  1  0
  2 17  1  0
  2 20  1  0
  3  4  1  1
  3  5  1  0
  5  6  1  0
  6  7  1  0
  8  7  1  6
  8  9  1  0
  8 16  1  0
  9 10  1  0
 10 11  1  0
 11 12  1  1
 11 13  1  0
 11 15  1  0
 13 14  1  0
 15 16  1  0
 17 18  1  0
 18 19  1  0
 19 20  1  0
M  CHG  1   4   1
M  END
