
     RDKit          3D

 20 21  0  0  0  0  0  0  0  0999 V2000
   -4.2340   -1.0670   -0.5580 N   0  0  0  0  0  0  0  0  0  0  0  0
   -2.8950   -1.1730    0.0660 C   0  0  1  0  0  0  0  0  0  0  0  0
   -2.0200   -1.7370   -0.9780 C   0  0  0  0  0  0  0  0  0  0  0  0
   -0.5450   -1.6810   -0.7470 C   0  0  0  0  0  0  0  0  0  0  0  0
   -0.1420   -0.9500    0.4960 C   0  0  0  0  0  0  0  0  0  0  0  0
   -0.2560    0.4510    0.4040 N   0  0  0  0  0  0  0  0  0  0  0  0
    0.7940    1.2150    0.8210 C   0  0  0  0  0  0  0  0  0  0  0  0
    2.0250    1.2410   -0.0240 C   0  0  0  0  0  0  0  0  0  0  0  0
    2.7230   -0.0280   -0.2490 C   0  0  0  0  0  0  0  0  0  0  0  0
    2.5660   -0.6840   -1.3060 O   0  0  0  0  0  0  0  0  0  0  0  0
    3.5730   -0.5350    0.7000 O   0  0  0  0  0  0  0  0  0  0  0  0
    4.3060   -1.7380    0.6030 C   0  0  0  0  0  0  0  0  0  0  0  0
    5.2550   -1.6900   -0.5840 C   0  0  0  0  0  0  0  0  0  0  0  0
    6.1380   -0.6260   -0.4140 O   0  0  0  0  0  0  0  0  0  0  0  0
   -1.5460    0.9880    0.2170 C   0  0  1  0  0  0  0  0  0  0  0  0
   -1.7730    2.3320    0.9010 C   0  0  0  0  0  0  0  0  0  0  0  0
   -1.4360    3.3410   -0.1210 C   0  0  0  0  0  0  0  0  0  0  0  0
   -1.1050    2.6780   -1.2920 O   0  0  0  0  0  0  0  0  0  0  0  0
   -1.7370    1.4110   -1.2000 C   0  0  0  0  0  0  0  0  0  0  0  0
   -2.5650    0.0550    0.7550 C   0  0  0  0  0  0  0  0  0  0  0  0
  2  1  1  6
  2  3  1  0
  2 20  1  0
  3  4  1  0
  4  5  1  0
  5  6  1  0
  6  7  1  0
  6 15  1  0
  7  8  1  0
  8  9  1  0
  9 10  2  0
  9 11  1  0
 11 12  1  0
 12 13  1  0
 13 14  1  0
 15 16  1  1
 15 19  1  0
 15 20  1  0
 16 17  1  0
 17 18  1  0
 18 19  1  0
M  CHG  1   1   1
M  END
