
     RDKit          3D

 22 24  0  0  0  0  0  0  0  0999 V2000
   -5.5730    2.6770    0.0490 C   0  0  0  0  0  0  0  0  0  0  0  0
   -4.6420    1.5110   -0.0900 C   0  0  0  0  0  0  0  0  0  0  0  0
   -4.9570    0.2380   -0.5130 C   0  0  0  0  0  0  0  0  0  0  0  0
   -3.8210   -0.5540   -0.5040 C   0  0  0  0  0  0  0  0  0  0  0  0
   -3.5690   -1.8370   -0.8150 N   0  0  0  0  0  0  0  0  0  0  0  0
   -2.3340   -2.3470   -0.7070 C   0  0  0  0  0  0  0  0  0  0  0  0
   -2.0920   -3.5540   -0.9980 O   0  0  0  0  0  0  0  0  0  0  0  0
   -1.2410   -1.5850   -0.2690 C   0  0  0  0  0  0  0  0  0  0  0  0
    0.0250   -2.1790   -0.1400 N   0  0  0  0  0  0  0  0  0  0  0  0
    1.2600   -1.5610    0.1020 C   0  0  0  0  0  0  0  0  0  0  0  0
    1.5970   -0.3230   -0.3840 C   0  0  0  0  0  0  0  0  0  0  0  0
    2.8300    0.2900   -0.1040 C   0  0  0  0  0  0  0  0  0  0  0  0
    3.7490   -0.3420    0.6760 C   0  0  0  0  0  0  0  0  0  0  0  0
    5.0070    0.2030    1.0240 N   0  0  0  0  0  0  0  0  0  0  0  0
    5.3980    1.5340    0.7930 C   0  0  0  0  0  0  0  0  0  0  0  0
    6.7250    1.9450    1.2020 N   0  0  0  0  0  0  0  0  0  0  0  0
    4.6850    2.3910    0.2610 O   0  0  0  0  0  0  0  0  0  0  0  0
    3.4210   -1.6060    1.1790 C   0  0  0  0  0  0  0  0  0  0  0  0
    2.2210   -2.1790    0.8940 C   0  0  0  0  0  0  0  0  0  0  0  0
   -1.5390   -0.2760    0.0410 C   0  0  0  0  0  0  0  0  0  0  0  0
   -2.8120    0.2740   -0.0640 C   0  0  0  0  0  0  0  0  0  0  0  0
   -3.3280    1.4970    0.1750 N   0  0  0  0  0  0  0  0  0  0  0  0
  1  2  1  0
  2  3  2  0
  2 22  1  0
  3  4  1  0
  4  5  1  0
  4 21  2  0
  5  6  1  0
  6  7  2  0
  6  8  1  0
  8  9  1  0
  8 20  2  0
  9 10  1  0
 10 11  2  0
 10 19  1  0
 11 12  1  0
 12 13  2  0
 13 14  1  0
 13 18  1  0
 14 15  1  0
 15 16  1  0
 15 17  2  0
 18 19  2  0
 20 21  1  0
 21 22  1  0
M  END
