
     RDKit          3D

 22 24  0  0  0  0  0  0  0  0999 V2000
    6.9240    0.8670    0.7100 N   0  0  0  0  0  0  0  0  0  0  0  0
    5.6310    0.2570    0.8960 C   0  0  0  0  0  0  0  0  0  0  0  0
    5.0970   -0.1880   -0.4590 C   0  0  0  0  0  0  0  0  0  0  0  0
    3.7590   -0.8170   -0.2400 C   0  0  0  0  0  0  0  0  0  0  0  0
    2.5760   -0.0990   -0.2690 C   0  0  0  0  0  0  0  0  0  0  0  0
    1.5750   -0.9990   -0.0300 C   0  0  0  0  0  0  0  0  0  0  0  0
    0.1470   -0.6830    0.0310 C   0  0  0  0  0  0  0  0  0  0  0  0
   -0.3130    0.6000   -0.1550 C   0  0  0  0  0  0  0  0  0  0  0  0
   -1.6580    0.9440   -0.1060 C   0  0  0  0  0  0  0  0  0  0  0  0
   -2.5900   -0.0160    0.1380 C   0  0  0  0  0  0  0  0  0  0  0  0
   -4.0170    0.3450    0.1910 C   0  0  0  0  0  0  0  0  0  0  0  0
   -5.0010   -0.5900    0.4340 C   0  0  0  0  0  0  0  0  0  0  0  0
   -6.3500   -0.2340    0.4820 C   0  0  0  0  0  0  0  0  0  0  0  0
   -7.1810   -1.1420    0.7080 O   0  0  0  0  0  0  0  0  0  0  0  0
   -6.7060    1.0420    0.2880 N   0  0  0  0  0  0  0  0  0  0  0  0
   -5.7620    1.9650    0.0500 C   0  0  0  0  0  0  0  0  0  0  0  0
   -6.0610    3.1890   -0.1390 O   0  0  0  0  0  0  0  0  0  0  0  0
   -4.4430    1.6040    0.0060 N   0  0  0  0  0  0  0  0  0  0  0  0
   -2.1520   -1.3040    0.3270 C   0  0  0  0  0  0  0  0  0  0  0  0
   -0.7940   -1.6430    0.2750 C   0  0  0  0  0  0  0  0  0  0  0  0
    2.1500   -2.1990    0.1330 N   0  0  0  0  0  0  0  0  0  0  0  0
    3.4610   -2.0880    0.0060 N   0  0  0  0  0  0  0  0  0  0  0  0
  1  2  1  0
  2  3  1  0
  3  4  1  0
  4  5  2  0
  4 22  1  0
  5  6  1  0
  6  7  1  0
  6 21  2  0
  7  8  2  0
  7 20  1  0
  8  9  1  0
  9 10  2  0
 10 11  1  0
 10 19  1  0
 11 12  2  0
 11 18  1  0
 12 13  1  0
 13 14  2  0
 13 15  1  0
 15 16  1  0
 16 17  2  0
 16 18  1  0
 19 20  2  0
 21 22  1  0
M  END
