
     RDKit          3D

 18 20  0  0  0  0  0  0  0  0999 V2000
   -1.3570   -3.3570   -0.6850 C   0  0  0  0  0  0  0  0  0  0  0  0
   -1.0910   -1.8910   -0.5860 C   0  0  0  0  0  0  0  0  0  0  0  0
    0.1860   -1.4740   -0.9160 C   0  0  0  0  0  0  0  0  0  0  0  0
    0.4820   -0.1210   -0.8400 C   0  0  0  0  0  0  0  0  0  0  0  0
    1.7370    0.3230   -1.1610 O   0  0  0  0  0  0  0  0  0  0  0  0
    2.7950    0.4590   -0.3020 C   0  0  0  0  0  0  0  0  0  0  0  0
    3.9910    0.9310   -0.8360 C   0  0  0  0  0  0  0  0  0  0  0  0
    5.1240    1.1080   -0.0680 C   0  0  0  0  0  0  0  0  0  0  0  0
    5.0410    0.8020    1.2630 C   0  0  0  0  0  0  0  0  0  0  0  0
    3.8800    0.3420    1.7930 N   0  0  0  0  0  0  0  0  0  0  0  0
    2.7830    0.1730    1.0350 C   0  0  0  0  0  0  0  0  0  0  0  0
   -0.5260    0.7220   -0.4360 C   0  0  0  0  0  0  0  0  0  0  0  0
   -1.7950    0.3050   -0.1080 C   0  0  0  0  0  0  0  0  0  0  0  0
   -2.8310    1.2870    0.3210 C   0  0  1  0  0  0  0  0  0  0  0  0
   -4.1250    1.1970   -0.4560 C   0  0  0  0  0  0  0  0  0  0  0  0
   -4.7790    0.7570    0.6990 O   0  0  0  0  0  0  0  0  0  0  0  0
   -3.6350    0.9060    1.5160 C   0  0  0  0  0  0  0  0  0  0  0  0
   -2.0510   -1.0150   -0.1930 N   0  0  0  0  0  0  0  0  0  0  0  0
  1  2  1  0
  2  3  2  0
  2 18  1  0
  3  4  1  0
  4  5  1  0
  4 12  2  0
  5  6  1  0
  6  7  2  0
  6 11  1  0
  7  8  1  0
  8  9  2  0
  9 10  1  0
 10 11  2  0
 12 13  1  0
 14 13  1  6
 13 18  2  0
 14 15  1  0
 14 17  1  0
 15 16  1  0
 16 17  1  0
M  END
