
     RDKit          3D

 18 20  0  0  0  0  0  0  0  0999 V2000
    6.0890    0.0100   -2.6540 O   0  0  0  0  0  0  0  0  0  0  0  0
    5.9540   -0.0980   -1.4200 C   0  0  0  0  0  0  0  0  0  0  0  0
    4.6350   -0.0830   -0.8280 C   0  0  0  0  0  0  0  0  0  0  0  0
    3.5150    0.0500   -1.6180 C   0  0  0  0  0  0  0  0  0  0  0  0
    2.2360    0.0700   -1.1020 C   0  0  0  0  0  0  0  0  0  0  0  0
    2.0990   -0.0500    0.2720 C   0  0  0  0  0  0  0  0  0  0  0  0
    0.9560   -0.0480    0.9020 O   0  0  0  0  0  0  0  0  0  0  0  0
   -0.3520    0.0170    0.9440 C   0  0  0  0  0  0  0  0  0  0  0  0
   -0.9440   -0.0710    2.2320 C   0  0  0  0  0  0  0  0  0  0  0  0
   -2.3010   -0.0100    2.3470 C   0  0  0  0  0  0  0  0  0  0  0  0
   -3.1070    0.1360    1.2340 C   0  0  0  0  0  0  0  0  0  0  0  0
   -2.5440    0.2220   -0.0100 C   0  0  0  0  0  0  0  0  0  0  0  0
   -1.1670    0.1630   -0.1640 C   0  0  0  0  0  0  0  0  0  0  0  0
   -3.6180    0.3750   -1.0540 C   0  0  0  0  0  0  0  0  0  0  0  0
   -4.8720   -0.0090   -0.3110 C   0  0  0  0  0  0  0  0  0  0  0  0
   -4.5370    0.2260    1.0790 N   0  0  0  0  0  0  0  0  0  0  0  0
    3.2390   -0.1830    1.0490 N   0  0  0  0  0  0  0  0  0  0  0  0
    4.4600   -0.1990    0.5330 C   0  0  0  0  0  0  0  0  0  0  0  0
  1  2  2  0
  2  3  1  0
  3  4  2  0
  3 18  1  0
  4  5  1  0
  5  6  2  0
  6  7  1  0
  6 17  1  0
  7  8  1  0
  8  9  2  0
  8 13  1  0
  9 10  1  0
 10 11  2  0
 11 12  1  0
 11 16  1  0
 12 13  2  0
 12 14  1  0
 14 15  1  0
 15 16  1  0
 17 18  2  0
M  END
