
     RDKit          3D

 22 24  0  0  0  0  0  0  0  0999 V2000
   -2.9530    1.3440    2.3290 N   0  0  0  0  0  0  0  0  0  0  0  0
   -3.1790    0.2400    1.4470 C   0  0  0  0  0  0  0  0  0  0  0  0
   -4.2660   -0.5870    1.6240 C   0  0  0  0  0  0  0  0  0  0  0  0
   -4.5000   -1.6600    0.7790 C   0  0  0  0  0  0  0  0  0  0  0  0
   -3.6400   -1.9150   -0.2560 C   0  0  0  0  0  0  0  0  0  0  0  0
   -2.5290   -1.1050   -0.4720 C   0  0  0  0  0  0  0  0  0  0  0  0
   -1.6850   -1.3780   -1.5560 N   0  0  0  0  0  0  0  0  0  0  0  0
   -0.3310   -0.9960   -1.7090 C   0  0  0  0  0  0  0  0  0  0  0  0
    0.2760   -1.3060   -2.9400 C   0  0  0  0  0  0  0  0  0  0  0  0
    1.5970   -0.9790   -3.1440 C   0  0  0  0  0  0  0  0  0  0  0  0
    2.2430   -0.3830   -2.1640 N   0  0  0  0  0  0  0  0  0  0  0  0
    1.6750   -0.0740   -0.9630 C   0  0  0  0  0  0  0  0  0  0  0  0
    2.5660    0.6000   -0.0420 C   0  0  0  0  0  0  0  0  0  0  0  0
    3.8040    1.0900   -0.4400 C   0  0  0  0  0  0  0  0  0  0  0  0
    4.6570    1.7190    0.4420 C   0  0  0  0  0  0  0  0  0  0  0  0
    5.8900    2.2010    0.0220 O   0  0  0  0  0  0  0  0  0  0  0  0
    4.3120    1.8770    1.7210 N   0  0  0  0  0  0  0  0  0  0  0  0
    3.1450    1.4270    2.1470 C   0  0  0  0  0  0  0  0  0  0  0  0
    2.2420    0.7760    1.2740 C   0  0  0  0  0  0  0  0  0  0  0  0
    1.0740    0.3620    1.8740 O   0  0  0  0  0  0  0  0  0  0  0  0
    0.4020   -0.3860   -0.7590 N   0  0  0  0  0  0  0  0  0  0  0  0
   -2.3390   -0.0490    0.3950 C   0  0  0  0  0  0  0  0  0  0  0  0
  1  2  1  0
  2  3  2  0
  2 22  1  0
  3  4  1  0
  4  5  2  0
  5  6  1  0
  6  7  1  0
  6 22  2  0
  7  8  1  0
  8  9  2  0
  8 21  1  0
  9 10  1  0
 10 11  2  0
 11 12  1  0
 12 13  1  0
 12 21  2  0
 13 14  2  0
 13 19  1  0
 14 15  1  0
 15 16  1  0
 15 17  2  0
 17 18  1  0
 18 19  2  0
 19 20  1  0
M  END
