
     RDKit          3D

 36 39  0  0  0  0  0  0  0  0999 V2000
   -4.5440    6.6630    0.3130 C   0  0  0  0  0  0  0  0  0  0  0  0
   -3.5830    5.6420   -0.0960 O   0  0  0  0  0  0  0  0  0  0  0  0
   -2.7800    5.0990    0.9020 C   0  0  0  0  0  0  0  0  0  0  0  0
   -2.9140    5.5190    2.0710 O   0  0  0  0  0  0  0  0  0  0  0  0
   -1.7790    4.0120    0.5860 C   0  0  0  0  0  0  0  0  0  0  0  0
   -0.8310    3.5600    2.0790 Cl  0  0  0  0  0  0  0  0  0  0  0  0
   -1.4860    3.5190   -0.4350 C   0  0  0  0  0  0  0  0  0  0  0  0
   -1.6470    3.4230   -2.1280 Cl  0  0  0  0  0  0  0  0  0  0  0  0
   -0.9860    1.9070   -0.0430 C   0  0  0  0  0  0  0  0  0  0  0  0
   -0.5970    1.2900   -1.0040 C   0  0  0  0  0  0  0  0  0  0  0  0
   -0.1000   -0.0500   -1.4000 C   0  0  1  0  0  0  0  0  0  0  0  0
    1.1990   -0.4790   -0.9440 C   0  0  1  0  0  0  0  0  0  0  0  0
    1.6280   -1.8040   -1.6130 C   0  0  0  0  0  0  0  0  0  0  0  0
    2.9690   -2.0330   -0.9530 C   0  0  0  0  0  0  0  0  0  0  0  0
    3.3380   -0.7770   -0.3810 N   0  0  1  0  0  0  0  0  0  0  0  0
    4.6500   -0.4900   -0.1110 C   0  0  2  0  0  0  0  0  0  0  0  0
    5.1510    0.9360    0.0230 C   0  0  0  0  0  0  0  0  0  0  0  0
    6.5270    1.0540   -0.6760 C   0  0  0  0  0  0  0  0  0  0  0  0
    7.4090    0.0860   -0.2640 O   0  0  0  0  0  0  0  0  0  0  0  0
    6.8940   -1.2200   -0.2750 C   0  0  0  0  0  0  0  0  0  0  0  0
    5.6120   -1.1700   -1.1180 C   0  0  0  0  0  0  0  0  0  0  0  0
    2.4800    0.2760   -0.9930 C   0  0  0  0  0  0  0  0  0  0  0  0
   -1.1240   -0.8760   -0.6200 N   0  0  0  0  0  0  0  0  0  0  0  0
   -2.4020   -0.4800   -0.4370 N   0  0  0  0  0  0  0  0  0  0  0  0
   -3.0330   -1.3520    0.4790 C   0  0  0  0  0  0  0  0  0  0  0  0
   -4.4510   -1.1530    0.8380 C   0  0  2  0  0  0  0  0  0  0  0  0
   -4.6520   -0.8670    2.3140 C   0  0  0  0  0  0  0  0  0  0  0  0
   -5.1360   -2.5040    0.5400 C   0  0  0  0  0  0  0  0  0  0  0  0
   -5.0720   -0.1910   -0.1170 C   0  0  0  0  0  0  0  0  0  0  0  0
   -2.0820   -2.2320    0.7640 C   0  0  0  0  0  0  0  0  0  0  0  0
   -2.0880   -3.4480    1.5560 C   0  0  0  0  0  0  0  0  0  0  0  0
   -1.0470   -4.2010    1.5730 C   0  0  0  0  0  0  0  0  0  0  0  0
   -0.9110   -5.6190    2.0010 C   0  0  0  0  0  0  0  0  0  0  0  0
   -0.8150   -6.6950    2.3070 N   0  0  0  0  0  0  0  0  0  0  0  0
    0.1110   -3.3680    0.5530 S   0  0  0  0  0  0  0  0  0  0  0  0
   -0.9760   -1.9750    0.1530 C   0  0  0  0  0  0  0  0  0  0  0  0
  1  2  1  0
  2  3  1  0
  3  4  2  0
  3  5  1  0
  5  6  1  0
  5  7  2  3
  7  8  1  0
  7  9  1  0
  9 10  2  3
 10 11  1  0
 11 12  1  0
 11 23  1  1
 12 13  1  6
 12 22  1  0
 13 14  1  0
 15 14  1  6
 15 16  1  0
 15 22  1  0
 16 17  1  6
 16 21  1  0
 17 18  1  0
 18 19  1  0
 19 20  1  0
 20 21  1  0
 23 24  1  0
 23 36  1  0
 24 25  2  0
 25 26  1  0
 25 30  1  0
 26 27  1  1
 26 28  1  0
 26 29  1  0
 30 31  1  0
 30 36  2  0
 31 32  2  0
 32 33  1  0
 32 35  1  0
 33 34  3  0
 35 36  1  0
M  CHG  1  15   1
M  END
