
     RDKit          3D

 36 37  0  0  0  0  0  0  0  0999 V2000
   -5.2490    3.6940    4.4480 C   0  0  0  0  0  0  0  0  0  0  0  0
   -5.9150    2.7040    3.5720 C   0  0  0  0  0  0  0  0  0  0  0  0
   -5.1520    1.6740    2.9250 C   0  0  0  0  0  0  0  0  0  0  0  0
   -3.8490    1.4760    2.9860 C   0  0  0  0  0  0  0  0  0  0  0  0
   -2.8910    2.5300    3.9280 Cl  0  0  0  0  0  0  0  0  0  0  0  0
   -3.3020    0.3160    2.1900 C   0  0  0  0  0  0  0  0  0  0  0  0
   -4.2660   -0.2680    1.6540 N   0  0  0  0  0  0  0  0  0  0  0  0
   -4.1870   -1.6800    0.6430 S   0  0  1  0  0  0  0  0  0  0  0  0
   -4.3810   -1.2250   -0.7420 O   0  0  0  0  0  0  0  0  0  0  0  0
   -2.7540   -2.2250    0.7520 O   0  0  0  0  0  0  0  0  0  0  0  0
   -5.3220   -2.8930    1.1410 C   0  0  0  0  0  0  0  0  0  0  0  0
   -5.3090   -4.1190    0.2750 C   0  0  0  0  0  0  0  0  0  0  0  0
   -2.0940    0.1470    1.6020 N   0  0  0  0  0  0  0  0  0  0  0  0
   -0.8410   -0.0000    2.1690 C   0  0  0  0  0  0  0  0  0  0  0  0
   -0.9740   -0.0680    3.4420 O   0  0  0  0  0  0  0  0  0  0  0  0
    0.4560   -0.0840    1.5670 C   0  0  1  0  0  0  0  0  0  0  0  0
    1.1950   -1.3500    1.9160 C   0  0  0  0  0  0  0  0  0  0  0  0
    2.1760   -1.7840    0.8720 C   0  0  0  0  0  0  0  0  0  0  0  0
    1.5340   -1.9970   -0.4790 C   0  0  2  0  0  0  0  0  0  0  0  0
    2.6250   -1.9500   -1.4930 C   0  0  0  0  0  0  0  0  0  0  0  0
    2.7860   -2.9480   -2.1960 O   0  0  0  0  0  0  0  0  0  0  0  0
    3.4610   -0.8490   -1.6840 N   0  0  0  0  0  0  0  0  0  0  0  0
    4.5240   -0.5480   -2.5180 C   0  0  0  0  0  0  0  0  0  0  0  0
    5.1730   -1.1680   -3.4600 C   0  0  0  0  0  0  0  0  0  0  0  0
    5.0850   -2.4940   -4.0940 C   0  0  0  0  0  0  0  0  0  0  0  0
    4.7730   -2.1740   -5.9000 S   0  0  0  0  0  0  0  0  0  0  0  0
    6.2950   -0.2430   -3.9950 C   0  0  0  0  0  0  0  0  0  0  0  0
    6.4990    0.5690   -2.8550 O   0  0  0  0  0  0  0  0  0  0  0  0
    5.2070    0.8440   -2.4510 C   0  0  0  0  0  0  0  0  0  0  0  0
    0.4590   -0.9880   -0.7580 C   0  0  0  0  0  0  0  0  0  0  0  0
    0.5150    0.1150    0.1440 N   0  0  0  0  0  0  0  0  0  0  0  0
    0.6420    1.4360   -0.3670 C   0  0  0  0  0  0  0  0  0  0  0  0
    0.6700    2.4320    0.4390 O   0  0  0  0  0  0  0  0  0  0  0  0
    0.7480    1.7640   -1.8050 C   0  0  0  0  0  0  0  0  0  0  0  0
    1.0600    3.2270   -2.0360 C   0  0  0  0  0  0  0  0  0  0  0  0
    2.3700    3.6260   -1.4060 C   0  0  0  0  0  0  0  0  0  0  0  0
  1  2  1  0
  2  3  1  0
  3  4  2  3
  4  5  1  0
  4  6  1  0
  6  7  2  3
  6 13  1  0
  7  8  1  0
  8  9  2  0
  8 10  2  0
  8 11  1  1
 11 12  1  0
 13 14  1  0
 14 15  2  0
 16 14  1  6
 16 17  1  0
 16 31  1  0
 17 18  1  0
 18 19  1  0
 19 20  1  6
 19 30  1  0
 20 21  2  0
 20 22  1  0
 22 23  1  0
 23 24  2  0
 23 29  1  0
 24 25  1  0
 24 27  1  0
 25 26  1  0
 27 28  1  0
 28 29  1  0
 30 31  1  0
 31 32  1  0
 32 33  2  0
 32 34  1  0
 34 35  1  0
 35 36  1  0
M  END
