
     RDKit          3D

 37 40  0  0  0  0  0  0  0  0999 V2000
   -4.5740   -3.6650    1.2890 C   0  0  0  0  0  0  0  0  0  0  0  0
   -3.6380   -2.7700    0.5430 C   0  0  0  0  0  0  0  0  0  0  0  0
   -2.4070   -2.4680    1.0780 C   0  0  0  0  0  0  0  0  0  0  0  0
   -1.5440   -1.6350    0.3750 C   0  0  0  0  0  0  0  0  0  0  0  0
   -1.8770   -1.1010   -0.8390 C   0  0  0  0  0  0  0  0  0  0  0  0
   -0.9740   -0.2640   -1.5840 C   0  0  0  0  0  0  0  0  0  0  0  0
   -0.6870   -0.5830   -2.9260 C   0  0  0  0  0  0  0  0  0  0  0  0
    0.1930    0.1610   -3.6490 C   0  0  0  0  0  0  0  0  0  0  0  0
    0.8020    1.2390   -3.0410 C   0  0  0  0  0  0  0  0  0  0  0  0
    0.5160    1.5210   -1.7750 N   0  0  0  0  0  0  0  0  0  0  0  0
   -0.3440    0.8170   -1.0270 C   0  0  0  0  0  0  0  0  0  0  0  0
   -0.5940    1.3380    0.3400 C   0  0  0  0  0  0  0  0  0  0  0  0
    0.4920    1.1090    1.2330 C   0  0  0  0  0  0  0  0  0  0  0  0
    0.3430    1.5550    2.4260 O   0  0  0  0  0  0  0  0  0  0  0  0
    1.7320    0.4710    1.0520 N   0  0  0  0  0  0  0  0  0  0  0  0
    2.6810    0.4370    2.2170 C   0  0  0  0  0  0  0  0  0  0  0  0
    4.0780    0.6130    1.7360 C   0  0  0  0  0  0  0  0  0  0  0  0
    4.4370   -0.3490    0.7850 O   0  0  0  0  0  0  0  0  0  0  0  0
    3.3770   -1.1370    0.4250 C   0  0  2  0  0  0  0  0  0  0  0  0
    3.7970   -2.0830   -0.6760 C   0  0  0  0  0  0  0  0  0  0  0  0
    4.8830   -2.9280   -0.2220 N   0  0  1  0  0  0  0  0  0  0  0  0
    5.8310   -3.1960   -1.2880 C   0  0  0  0  0  0  0  0  0  0  0  0
    5.7530   -2.2560    1.1170 S   0  0  0  0  0  0  0  0  0  0  0  0
    6.5560   -3.3080    1.8470 O   0  0  0  0  0  0  0  0  0  0  0  0
    2.2670   -0.1890   -0.0950 C   0  0  0  0  0  0  0  0  0  0  0  0
   -1.7400    1.9420    0.5500 C   0  0  0  0  0  0  0  0  0  0  0  0
   -2.6290    1.9990   -0.7220 C   0  0  0  0  0  0  0  0  0  0  0  0
   -3.2920    3.3610   -0.8130 C   0  0  0  0  0  0  0  0  0  0  0  0
   -2.4130    4.3620   -0.1470 C   0  0  0  0  0  0  0  0  0  0  0  0
   -2.4180    4.1150    1.3200 C   0  0  0  0  0  0  0  0  0  0  0  0
   -2.4360    2.5750    1.6100 C   0  0  2  0  0  0  0  0  0  0  0  0
   -2.2210    2.4790    3.0440 C   0  0  1  0  0  0  0  0  0  0  0  0
   -3.5280    3.5330    3.8330 Cl  0  0  0  0  0  0  0  0  0  0  0  0
   -2.6160    0.8720    3.6940 Cl  0  0  0  0  0  0  0  0  0  0  0  0
   -3.1100   -1.4240   -1.3390 C   0  0  0  0  0  0  0  0  0  0  0  0
   -3.5870   -0.8900   -2.6500 C   0  0  0  0  0  0  0  0  0  0  0  0
   -3.9590   -2.2430   -0.6490 N   0  0  0  0  0  0  0  0  0  0  0  0
  1  2  1  0
  2  3  2  0
  2 37  1  0
  3  4  1  0
  4  5  2  0
  5  6  1  0
  5 35  1  0
  6  7  2  0
  6 11  1  0
  7  8  1  0
  8  9  2  0
  9 10  1  0
 10 11  2  0
 11 12  1  0
 12 13  1  0
 12 26  2  3
 13 14  2  0
 13 15  1  0
 15 16  1  0
 15 25  1  0
 16 17  1  0
 17 18  1  0
 18 19  1  0
 19 20  1  6
 19 25  1  0
 20 21  1  0
 21 22  1  6
 21 23  1  0
 23 24  2  0
 26 27  1  0
 26 31  1  0
 27 28  1  0
 28 29  1  0
 29 30  1  0
 31 30  1  6
 31 32  1  0
 32 33  1  1
 32 34  1  0
 35 36  1  0
 35 37  2  0
M  CHG  1  21   1
M  END
