
     RDKit          3D

 37 39  0  0  0  0  0  0  0  0999 V2000
   -6.6510   -3.3850   -2.3680 C   0  0  0  0  0  0  0  0  0  0  0  0
   -5.9860   -3.3440   -0.9940 C   0  0  0  0  0  0  0  0  0  0  0  0
   -5.0760   -2.1970   -0.9890 C   0  0  0  0  0  0  0  0  0  0  0  0
   -4.9040   -1.1100   -0.3400 C   0  0  0  0  0  0  0  0  0  0  0  0
   -5.9170   -0.8020    0.7820 C   0  0  0  0  0  0  0  0  0  0  0  0
   -3.6790   -0.3770   -0.4620 N   0  0  0  0  0  0  0  0  0  0  0  0
   -3.3420    0.9420    0.1320 C   0  0  0  0  0  0  0  0  0  0  0  0
   -3.3930    1.0270    1.4430 C   0  0  0  0  0  0  0  0  0  0  0  0
   -3.1290    2.0950    2.3870 C   0  0  0  0  0  0  0  0  0  0  0  0
   -2.4870    3.5370    1.6410 Cl  0  0  0  0  0  0  0  0  0  0  0  0
   -3.1000    2.1730   -0.6100 C   0  0  0  0  0  0  0  0  0  0  0  0
   -4.3880    3.5200   -0.3440 Cl  0  0  0  0  0  0  0  0  0  0  0  0
   -2.1700    2.6050   -1.4070 C   0  0  0  0  0  0  0  0  0  0  0  0
   -0.9370    2.1600   -1.9670 C   0  0  0  0  0  0  0  0  0  0  0  0
    0.3210    2.2710   -1.5730 C   0  0  0  0  0  0  0  0  0  0  0  0
    0.8170    2.9410   -0.3430 C   0  0  0  0  0  0  0  0  0  0  0  0
    2.2180    3.1230   -0.2390 N   0  0  2  0  0  0  0  0  0  0  0  0
    2.9250    3.2600   -1.4650 C   0  0  0  0  0  0  0  0  0  0  0  0
    2.9150    2.0670    0.5470 C   0  0  0  0  0  0  0  0  0  0  0  0
    2.4260    0.7860   -0.0100 C   0  0  0  0  0  0  0  0  0  0  0  0
    2.6320   -0.4310    0.6850 N   0  0  0  0  0  0  0  0  0  0  0  0
    3.7970   -0.6310    1.4900 C   0  0  0  0  0  0  0  0  0  0  0  0
    4.9310   -1.2200    0.6690 C   0  0  2  0  0  0  0  0  0  0  0  0
    6.2070   -1.2660    1.4610 C   0  0  0  0  0  0  0  0  0  0  0  0
    7.2860   -0.7570    0.4930 C   0  0  0  0  0  0  0  0  0  0  0  0
    6.5060   -0.7690   -0.8160 C   0  0  0  0  0  0  0  0  0  0  0  0
    5.2580   -0.3580   -0.3820 O   0  0  0  0  0  0  0  0  0  0  0  0
    1.6850   -1.5230    0.6000 C   0  0  0  0  0  0  0  0  0  0  0  0
    2.2260   -2.6700    0.6310 O   0  0  0  0  0  0  0  0  0  0  0  0
    0.2500   -1.3820    0.4890 C   0  0  1  0  0  0  0  0  0  0  0  0
   -0.3640   -2.7620    0.8280 C   0  0  0  0  0  0  0  0  0  0  0  0
   -0.2870   -0.4590    1.5050 C   0  0  0  0  0  0  0  0  0  0  0  0
   -0.2790   -1.1630   -0.9140 C   0  0  0  0  0  0  0  0  0  0  0  0
    0.6810   -0.9250   -1.7470 O   0  0  0  0  0  0  0  0  0  0  0  0
   -1.5550   -1.2110   -1.2680 N   0  0  0  0  0  0  0  0  0  0  0  0
   -2.7660   -1.0790   -1.3340 C   0  0  0  0  0  0  0  0  0  0  0  0
   -3.9940   -1.9110   -2.4560 S   0  0  0  0  0  0  0  0  0  0  0  0
  1  2  1  0
  2  3  1  0
  3  4  2  0
  3 37  1  0
  4  5  1  0
  4  6  1  0
  6  7  1  0
  6 36  1  0
  7  8  2  3
  7 11  1  0
  8  9  1  0
  9 10  1  0
 11 12  1  0
 11 13  2  0
 13 14  1  0
 14 15  2  0
 15 16  1  0
 16 17  1  0
 17 18  1  6
 17 19  1  0
 19 20  1  0
 20 21  1  0
 21 22  1  0
 21 28  1  0
 23 22  1  1
 23 24  1  0
 23 27  1  0
 24 25  1  0
 25 26  1  0
 26 27  1  0
 28 29  2  0
 28 30  1  0
 30 31  1  1
 30 32  1  0
 30 33  1  0
 33 34  2  0
 33 35  1  0
 35 36  2  0
 36 37  1  0
M  CHG  1  17   1
M  END
