
     RDKit          3D

 37 40  0  0  0  0  0  0  0  0999 V2000
   -3.0400   -5.2300    1.6100 C   0  0  0  0  0  0  0  0  0  0  0  0
   -3.1240   -4.0540    2.2420 C   0  0  0  0  0  0  0  0  0  0  0  0
   -2.6290   -2.8780    1.5690 C   0  0  0  0  0  0  0  0  0  0  0  0
   -2.6410   -1.6810    2.1430 C   0  0  0  0  0  0  0  0  0  0  0  0
   -2.1320   -0.6010    1.3860 N   0  0  0  0  0  0  0  0  0  0  0  0
   -2.9390    0.2940    0.6090 C   0  0  0  0  0  0  0  0  0  0  0  0
   -2.8430    1.7230    1.1010 C   0  0  0  0  0  0  0  0  0  0  0  0
   -3.6190    2.6680    0.2210 C   0  0  0  0  0  0  0  0  0  0  0  0
   -4.2830    2.3040   -0.8450 C   0  0  0  0  0  0  0  0  0  0  0  0
   -4.9540    3.5010   -1.4840 C   0  0  0  0  0  0  0  0  0  0  0  0
   -4.8990    4.5310   -0.3690 C   0  0  0  0  0  0  0  0  0  0  0  0
   -3.6950    4.1220    0.4460 C   0  0  2  0  0  0  0  0  0  0  0  0
   -2.2550    4.8920   -0.2900 Cl  0  0  0  0  0  0  0  0  0  0  0  0
   -3.8330    4.5690    2.1550 Cl  0  0  0  0  0  0  0  0  0  0  0  0
   -0.6720   -0.4620    1.3770 C   0  0  0  0  0  0  0  0  0  0  0  0
   -0.1340   -0.8480    0.0110 C   0  0  2  0  0  0  0  0  0  0  0  0
    1.3790   -0.5620    0.0280 C   0  0  0  0  0  0  0  0  0  0  0  0
    1.9250   -0.5870   -1.3110 N   0  0  0  0  0  0  0  0  0  0  0  0
    3.2170   -1.1630   -1.3720 C   0  0  1  0  0  0  0  0  0  0  0  0
    3.7520   -1.3560   -2.7550 C   0  0  0  0  0  0  0  0  0  0  0  0
    4.1070   -0.2380   -0.5290 C   0  0  2  0  0  0  0  0  0  0  0  0
    4.1560    1.1580   -1.0640 C   0  0  0  0  0  0  0  0  0  0  0  0
    5.4710    1.5050   -1.7160 C   0  0  0  0  0  0  0  0  0  0  0  0
    6.7980    1.3620   -0.5470 S   0  0  1  0  0  0  0  0  0  0  0  0
    7.9890    0.8040   -1.3150 O   0  0  0  0  0  0  0  0  0  0  0  0
    7.1560    2.6430    0.1240 O   0  0  0  0  0  0  0  0  0  0  0  0
    6.2520    0.1240    0.6390 C   0  0  0  0  0  0  0  0  0  0  0  0
    5.4210   -0.8420   -0.1880 C   0  0  0  0  0  0  0  0  0  0  0  0
    0.9240   -1.0160   -2.2190 C   0  0  0  0  0  0  0  0  0  0  0  0
   -0.1790    0.0450   -2.1410 C   0  0  1  0  0  0  0  0  0  0  0  0
   -1.1370    0.0250   -3.2650 C   0  0  0  0  0  0  0  0  0  0  0  0
   -0.7450    0.0030   -0.8990 O   0  0  0  0  0  0  0  0  0  0  0  0
   -3.1780   -1.5860    3.5200 C   0  0  0  0  0  0  0  0  0  0  0  0
   -3.0980   -0.2530    4.1710 C   0  0  0  0  0  0  0  0  0  0  0  0
   -3.0390    0.7670    4.6690 N   0  0  0  0  0  0  0  0  0  0  0  0
   -3.6270   -2.6400    4.1350 C   0  0  0  0  0  0  0  0  0  0  0  0
   -3.6480   -3.9690    3.5640 N   0  0  0  0  0  0  0  0  0  0  0  0
  1  2  2  0
  2  3  1  0
  2 37  1  0
  3  4  2  0
  4  5  1  0
  4 33  1  0
  5  6  1  0
  5 15  1  0
  6  7  1  0
  7  8  1  0
  8  9  2  0
  8 12  1  0
  9 10  1  0
 10 11  1  0
 11 12  1  0
 12 13  1  6
 12 14  1  0
 16 15  1  1
 16 17  1  0
 16 32  1  0
 17 18  1  0
 18 19  1  0
 18 29  1  0
 19 20  1  6
 19 21  1  0
 21 22  1  6
 21 28  1  0
 22 23  1  0
 24 23  1  6
 24 25  2  0
 24 26  2  0
 24 27  1  0
 27 28  1  0
 29 30  1  0
 30 31  1  6
 30 32  1  0
 33 34  1  0
 33 36  2  0
 34 35  3  0
 36 37  1  0
M  END
