
     RDKit          3D

 37 40  0  0  0  0  0  0  0  0999 V2000
   -6.3670   -0.9400    0.6700 C   0  0  0  0  0  0  0  0  0  0  0  0
   -5.2830   -0.0200    1.1890 C   0  0  0  0  0  0  0  0  0  0  0  0
   -4.0330   -0.7080    1.3670 N   0  0  0  0  0  0  0  0  0  0  0  0
   -3.7930   -1.3220    2.6740 C   0  0  0  0  0  0  0  0  0  0  0  0
   -3.0440   -0.8180    0.3590 C   0  0  0  0  0  0  0  0  0  0  0  0
   -1.9710   -1.4320    0.5750 O   0  0  0  0  0  0  0  0  0  0  0  0
   -3.2530   -0.2230   -0.9400 C   0  0  0  0  0  0  0  0  0  0  0  0
   -2.8250    1.0870   -1.1090 C   0  0  0  0  0  0  0  0  0  0  0  0
   -2.0530    2.0170    0.1920 S   0  0  0  0  0  0  0  0  0  0  0  0
   -0.2690    1.7340    0.1010 C   0  0  0  0  0  0  0  0  0  0  0  0
    0.2980    0.6990   -1.1280 Cl  0  0  0  0  0  0  0  0  0  0  0  0
    0.4740    2.3950    0.9910 C   0  0  0  0  0  0  0  0  0  0  0  0
   -0.2470    3.2920    1.9500 C   0  0  0  0  0  0  0  0  0  0  0  0
    0.6280    4.1050    2.7910 C   0  0  0  0  0  0  0  0  0  0  0  0
   -0.0420    5.2750    3.9100 Cl  0  0  0  0  0  0  0  0  0  0  0  0
    1.9380    3.9850    2.7340 C   0  0  0  0  0  0  0  0  0  0  0  0
    2.6090    3.0790    1.8580 C   0  0  0  0  0  0  0  0  0  0  0  0
    1.9030    2.2840    1.0030 C   0  0  0  0  0  0  0  0  0  0  0  0
    2.6530    1.3870    0.1960 N   0  0  0  0  0  0  0  0  0  0  0  0
    2.8120   -0.0530    0.2550 C   0  0  0  0  0  0  0  0  0  0  0  0
    4.3740   -0.0530    0.3700 C   0  0  1  0  0  0  0  0  0  0  0  0
    4.9010   -1.3740    0.3760 N   0  0  2  0  0  0  0  0  0  0  0  0
    4.8500   -1.9030    1.7180 C   0  0  0  0  0  0  0  0  0  0  0  0
    5.4940   -3.2610    1.8270 C   0  0  0  0  0  0  0  0  0  0  0  0
    6.4860   -3.4440    0.8650 O   0  0  0  0  0  0  0  0  0  0  0  0
    7.1620   -2.2510    0.7340 C   0  0  0  0  0  0  0  0  0  0  0  0
    6.3030   -1.2860   -0.0520 C   0  0  0  0  0  0  0  0  0  0  0  0
    4.6510    0.7070   -0.9380 C   0  0  0  0  0  0  0  0  0  0  0  0
    3.5740    1.7670   -0.8520 C   0  0  0  0  0  0  0  0  0  0  0  0
    3.5300    2.7700   -1.5750 O   0  0  0  0  0  0  0  0  0  0  0  0
   -3.0230    1.6410   -2.3290 N   0  0  0  0  0  0  0  0  0  0  0  0
   -3.6060    0.9530   -3.3280 C   0  0  0  0  0  0  0  0  0  0  0  0
   -3.8130    1.5940   -4.6750 C   0  0  0  0  0  0  0  0  0  0  0  0
   -4.0320   -0.3470   -3.1620 C   0  0  0  0  0  0  0  0  0  0  0  0
   -4.6760   -1.0660   -4.3110 C   0  0  0  0  0  0  0  0  0  0  0  0
   -3.8510   -0.9510   -1.9380 C   0  0  0  0  0  0  0  0  0  0  0  0
   -4.3050   -2.3630   -1.7340 C   0  0  0  0  0  0  0  0  0  0  0  0
  1  2  1  0
  2  3  1  0
  3  4  1  0
  3  5  1  0
  5  6  2  0
  5  7  1  0
  7  8  2  0
  7 36  1  0
  8  9  1  0
  8 31  1  0
  9 10  1  0
 10 11  1  0
 10 12  2  3
 12 13  1  0
 12 18  1  0
 13 14  1  0
 14 15  1  0
 14 16  2  0
 16 17  1  0
 17 18  2  0
 18 19  1  0
 19 20  1  0
 19 29  1  0
 21 20  1  6
 21 22  1  0
 21 28  1  0
 22 23  1  1
 22 27  1  0
 23 24  1  0
 24 25  1  0
 25 26  1  0
 26 27  1  0
 28 29  1  0
 29 30  2  0
 31 32  2  0
 32 33  1  0
 32 34  1  0
 34 35  1  0
 34 36  2  0
 36 37  1  0
M  CHG  1  22   1
M  END
