
     RDKit          3D

 37 40  0  0  0  0  0  0  0  0999 V2000
   -5.3670    0.5490   -2.4400 C   0  0  0  0  0  0  0  0  0  0  0  0
   -6.4770    0.4630   -1.3940 C   0  0  1  0  0  0  0  0  0  0  0  0
   -6.9420   -0.9510   -1.2740 C   0  0  0  0  0  0  0  0  0  0  0  0
   -5.9290   -1.8030   -0.5350 C   0  0  2  0  0  0  0  0  0  0  0  0
   -6.5030   -3.1880   -0.3750 C   0  0  0  0  0  0  0  0  0  0  0  0
   -5.7310   -1.1990    0.8310 C   0  0  0  0  0  0  0  0  0  0  0  0
   -5.4580    0.2020    0.8070 N   0  0  0  0  0  0  0  0  0  0  0  0
   -4.5790    0.6870    1.8590 C   0  0  0  0  0  0  0  0  0  0  0  0
   -4.1210   -0.0990    2.7220 O   0  0  0  0  0  0  0  0  0  0  0  0
   -4.2130    2.1130    1.9290 C   0  0  0  0  0  0  0  0  0  0  0  0
   -3.3290    2.3910    3.0920 C   0  0  0  0  0  0  0  0  0  0  0  0
   -2.0130    1.7110    3.1370 C   0  0  0  0  0  0  0  0  0  0  0  0
   -1.1030    2.0030    2.0070 C   0  0  0  0  0  0  0  0  0  0  0  0
   -1.4660    2.7930    1.1060 O   0  0  0  0  0  0  0  0  0  0  0  0
    0.1870    1.4160    1.8980 N   0  0  0  0  0  0  0  0  0  0  0  0
    0.9370    1.8050    0.7250 C   0  0  0  0  0  0  0  0  0  0  0  0
    1.2830    0.5750   -0.1000 C   0  0  0  0  0  0  0  0  0  0  0  0
    2.4000   -0.1470    0.5560 C   0  0  0  0  0  0  0  0  0  0  0  0
    3.1880   -0.5110   -0.4300 C   0  0  0  0  0  0  0  0  0  0  0  0
    2.6850   -0.0680   -2.0330 Cl  0  0  0  0  0  0  0  0  0  0  0  0
    4.4330   -1.2850   -0.3620 C   0  0  0  0  0  0  0  0  0  0  0  0
    5.5190   -1.1060   -1.2580 C   0  0  0  0  0  0  0  0  0  0  0  0
    5.9010   -0.3540   -2.2190 C   0  0  0  0  0  0  0  0  0  0  0  0
    5.4120    0.7910   -2.9530 C   0  0  0  0  0  0  0  0  0  0  0  0
    6.6070    1.5260   -3.4040 N   0  0  0  0  0  0  0  0  0  0  0  0
    7.7500    0.7490   -3.0530 C   0  0  0  0  0  0  0  0  0  0  0  0
    7.2340   -0.6650   -2.9310 C   0  0  2  0  0  0  0  0  0  0  0  0
    6.9310   -1.2920   -4.5710 S   0  0  0  0  0  0  0  0  0  0  0  0
    7.4800   -2.7250   -4.6100 O   0  0  0  0  0  0  0  0  0  0  0  0
    4.5400   -2.2550    0.5820 C   0  0  0  0  0  0  0  0  0  0  0  0
    6.0480   -3.0980    0.5560 Cl  0  0  0  0  0  0  0  0  0  0  0  0
    3.6050   -2.6650    1.6590 C   0  0  0  0  0  0  0  0  0  0  0  0
    3.2570   -1.4980    2.5590 C   0  0  0  0  0  0  0  0  0  0  0  0
    2.5570   -0.4220    1.9440 N   0  0  0  0  0  0  0  0  0  0  0  0
    2.0360    0.3060    3.0910 C   0  0  0  0  0  0  0  0  0  0  0  0
    0.5440    0.5250    2.9780 C   0  0  0  0  0  0  0  0  0  0  0  0
   -6.0060    1.0970   -0.1470 C   0  0  0  0  0  0  0  0  0  0  0  0
  2  1  1  6
  2  3  1  0
  2 37  1  0
  3  4  1  0
  4  5  1  1
  4  6  1  0
  6  7  1  0
  7  8  1  0
  7 37  1  0
  8  9  2  0
  8 10  1  0
 10 11  1  0
 11 12  1  0
 12 13  1  0
 13 14  2  0
 13 15  1  0
 15 16  1  0
 15 36  1  0
 16 17  1  0
 17 18  1  0
 18 19  2  0
 18 34  1  0
 19 20  1  0
 19 21  1  0
 21 22  1  0
 21 30  2  0
 22 23  2  3
 23 24  1  0
 23 27  1  0
 24 25  1  0
 25 26  1  0
 26 27  1  0
 27 28  1  6
 28 29  2  0
 30 31  1  0
 30 32  1  0
 32 33  1  0
 33 34  1  0
 34 35  1  0
 35 36  1  0
M  CHG  1  25   1
M  END
