
     RDKit          3D

 36 39  0  0  0  0  0  0  0  0999 V2000
    5.4800   -4.6840    0.0180 C   0  0  0  0  0  0  0  0  0  0  0  0
    5.0180   -4.1690   -1.3330 C   0  0  2  0  0  0  0  0  0  0  0  0
    4.5350   -5.3480   -2.1460 C   0  0  0  0  0  0  0  0  0  0  0  0
    6.1980   -3.4730   -1.9730 C   0  0  0  0  0  0  0  0  0  0  0  0
    3.9540   -3.2590   -1.2080 O   0  0  0  0  0  0  0  0  0  0  0  0
    4.0760   -2.0590   -0.4970 C   0  0  0  0  0  0  0  0  0  0  0  0
    5.1660   -1.8020    0.0240 O   0  0  0  0  0  0  0  0  0  0  0  0
    2.9210   -1.1990   -0.4190 N   0  0  0  0  0  0  0  0  0  0  0  0
    1.6750   -1.5660   -1.0450 C   0  0  0  0  0  0  0  0  0  0  0  0
    1.1550   -0.3490   -1.7760 C   0  0  0  0  0  0  0  0  0  0  0  0
    0.9610    0.6670   -0.7490 N   0  0  0  0  0  0  0  0  0  0  0  0
   -0.0650    1.5950   -1.0890 C   0  0  2  0  0  0  0  0  0  0  0  0
    0.1700    2.4250   -2.2840 C   0  0  0  0  0  0  0  0  0  0  0  0
    1.5390    3.5050   -2.3630 S   0  0  0  0  0  0  0  0  0  0  0  0
    1.4590    4.9500   -1.3320 C   0  0  0  0  0  0  0  0  0  0  0  0
    2.4700    5.8240   -1.2630 C   0  0  0  0  0  0  0  0  0  0  0  0
    4.0050    5.7340   -2.1240 Cl  0  0  0  0  0  0  0  0  0  0  0  0
    2.1480    6.9370   -0.3430 C   0  0  0  0  0  0  0  0  0  0  0  0
    0.6350    6.9540   -0.3490 C   0  0  0  0  0  0  0  0  0  0  0  0
    0.3730    5.4420   -0.4390 C   0  0  0  0  0  0  0  0  0  0  0  0
   -0.5850    2.2970    0.1360 C   0  0  0  0  0  0  0  0  0  0  0  0
   -1.1480    1.3230    1.1010 C   0  0  0  0  0  0  0  0  0  0  0  0
   -0.2990    0.6660    1.8010 O   0  0  0  0  0  0  0  0  0  0  0  0
   -2.5190    1.0840    1.2890 N   0  0  0  0  0  0  0  0  0  0  0  0
   -3.5450    1.7680    0.5460 C   0  0  0  0  0  0  0  0  0  0  0  0
   -4.4180    0.7300   -0.1650 C   0  0  0  0  0  0  0  0  0  0  0  0
   -3.8380   -0.6590    0.1450 C   0  0  0  0  0  0  0  0  0  0  0  0
   -3.9210   -0.8280    1.6210 C   0  0  1  0  0  0  0  0  0  0  0  0
   -3.7560   -2.1920    2.0820 N   0  0  2  0  0  0  0  0  0  0  0  0
   -4.5450   -3.1040    1.3220 C   0  0  0  0  0  0  0  0  0  0  0  0
   -5.9510   -2.6500    1.5850 C   0  0  0  0  0  0  0  0  0  0  0  0
   -5.8760   -2.2120    3.0400 C   0  0  0  0  0  0  0  0  0  0  0  0
   -4.4290   -2.2790    3.3890 C   0  0  0  0  0  0  0  0  0  0  0  0
   -2.9610    0.1150    2.2710 C   0  0  0  0  0  0  0  0  0  0  0  0
    2.1820    1.1630   -0.2340 C   0  0  0  0  0  0  0  0  0  0  0  0
    3.0290    0.0230    0.2980 C   0  0  0  0  0  0  0  0  0  0  0  0
  2  1  1  1
  2  3  1  0
  2  4  1  0
  2  5  1  0
  5  6  1  0
  6  7  2  0
  6  8  1  0
  8  9  1  0
  8 36  1  0
  9 10  1  0
 10 11  1  0
 11 12  1  0
 11 35  1  0
 12 13  1  6
 12 21  1  0
 13 14  1  0
 14 15  1  0
 15 16  2  0
 15 20  1  0
 16 17  1  0
 16 18  1  0
 18 19  1  0
 19 20  1  0
 21 22  1  0
 22 23  2  0
 22 24  1  0
 24 25  1  0
 24 34  1  0
 25 26  1  0
 26 27  1  0
 28 27  1  6
 28 29  1  0
 28 34  1  0
 29 30  1  6
 29 33  1  0
 30 31  1  0
 31 32  1  0
 32 33  1  0
 35 36  1  0
M  CHG  1  29   1
M  END
