
     RDKit          3D

 32 34  0  0  0  0  0  0  0  0999 V2000
    5.3390   -3.5170   -0.2170 O   0  0  0  0  0  0  0  0  0  0  0  0
    5.8690   -2.3030    0.2200 C   0  0  0  0  0  0  0  0  0  0  0  0
    5.0960   -1.1220   -0.3270 C   0  0  1  0  0  0  0  0  0  0  0  0
    3.7760   -1.1280    0.0490 O   0  0  0  0  0  0  0  0  0  0  0  0
    3.2240    0.1250    0.2620 C   0  0  1  0  0  0  0  0  0  0  0  0
    1.8970   -0.0700    0.5360 O   0  0  0  0  0  0  0  0  0  0  0  0
    0.9870    0.4730   -0.3020 C   0  0  2  0  0  0  0  0  0  0  0  0
   -0.0050    1.4190    0.2720 C   0  0  1  0  0  0  0  0  0  0  0  0
    0.3840    2.8800    0.0520 C   0  0  0  0  0  0  0  0  0  0  0  0
    0.5320    3.0910   -1.2970 O   0  0  0  0  0  0  0  0  0  0  0  0
   -1.2040    1.2860   -0.4270 O   0  0  0  0  0  0  0  0  0  0  0  0
   -1.8890    0.1190   -0.0960 C   0  0  1  0  0  0  0  0  0  0  0  0
   -2.9740   -0.1060   -0.8830 O   0  0  0  0  0  0  0  0  0  0  0  0
   -4.1910   -0.0220   -0.2730 C   0  0  1  0  0  0  0  0  0  0  0  0
   -5.0080    1.1700   -0.8450 C   0  0  2  0  0  0  0  0  0  0  0  0
   -4.7560    2.3160   -0.1260 O   0  0  0  0  0  0  0  0  0  0  0  0
   -6.4600    0.7810   -0.6040 C   0  0  0  0  0  0  0  0  0  0  0  0
   -6.6060   -0.1490    0.4840 N   0  0  0  0  0  0  0  0  0  0  0  0
   -6.1120   -1.3650    0.2570 O   0  0  0  0  0  0  0  0  0  0  0  0
   -5.0180   -1.2230   -0.6010 C   0  0  2  0  0  0  0  0  0  0  0  0
   -4.2230   -2.4780   -0.7300 C   0  0  0  0  0  0  0  0  0  0  0  0
   -3.7470   -2.8280    0.5170 O   0  0  0  0  0  0  0  0  0  0  0  0
   -0.9110   -1.0090   -0.0440 C   0  0  2  0  0  0  0  0  0  0  0  0
   -0.3620   -1.0460    1.2500 O   0  0  0  0  0  0  0  0  0  0  0  0
    0.1930   -0.6130   -1.0470 C   0  0  1  0  0  0  0  0  0  0  0  0
   -0.4070   -0.1390   -2.1790 O   0  0  0  0  0  0  0  0  0  0  0  0
    3.9180    0.8240    1.4090 C   0  0  2  0  0  0  0  0  0  0  0  0
    3.6320    2.1940    1.4200 O   0  0  0  0  0  0  0  0  0  0  0  0
    5.4190    0.7070    1.3490 C   0  0  1  0  0  0  0  0  0  0  0  0
    5.7950   -0.1630    2.3770 O   0  0  0  0  0  0  0  0  0  0  0  0
    5.8120    0.1600    0.0060 C   0  0  2  0  0  0  0  0  0  0  0  0
    5.6860    1.1000   -1.0090 O   0  0  0  0  0  0  0  0  0  0  0  0
  1  2  1  0
  3  2  1  1
  3  4  1  0
  3 31  1  0
  4  5  1  0
  5  6  1  1
  5 27  1  0
  7  6  1  1
  7  8  1  0
  7 25  1  0
  8  9  1  6
  8 11  1  0
  9 10  1  0
 11 12  1  0
 12 13  1  6
 12 23  1  0
 14 13  1  6
 14 15  1  0
 14 20  1  0
 15 16  1  1
 15 17  1  0
 17 18  1  0
 18 19  1  0
 19 20  1  0
 20 21  1  1
 21 22  1  0
 23 24  1  1
 23 25  1  0
 25 26  1  6
 27 28  1  6
 27 29  1  0
 29 30  1  1
 29 31  1  0
 31 32  1  6
M  CHG  1  18   1
M  END
