
     RDKit          3D

 16 16  0  0  0  0  0  0  0  0999 V2000
    0.5270   -0.4920    2.1220 O   0  0  0  0  0  0  0  0  0  0  0  0
    1.4010   -0.1860    1.2730 C   0  0  0  0  0  0  0  0  0  0  0  0
    2.7590   -0.8520    1.3050 C   0  0  0  0  0  0  0  0  0  0  0  0
    3.4930   -0.3280    0.2760 O   0  0  0  0  0  0  0  0  0  0  0  0
    4.6890   -0.7870    0.1530 O   0  0  0  0  0  0  0  0  0  0  0  0
    5.1510   -0.8400   -1.0540 O   0  0  0  0  0  0  0  0  0  0  0  0
    1.0910    0.7600    0.3270 O   0  0  0  0  0  0  0  0  0  0  0  0
   -0.1110    1.4470    0.1740 C   0  0  0  0  0  0  0  0  0  0  0  0
   -1.3190    0.6300   -0.1300 C   0  0  2  0  0  0  0  0  0  0  0  0
   -1.2150   -0.0930   -1.4560 C   0  0  0  0  0  0  0  0  0  0  0  0
   -0.1960   -1.0120   -1.5010 O   0  0  0  0  0  0  0  0  0  0  0  0
   -2.3920    1.5170   -0.2520 O   0  0  0  0  0  0  0  0  0  0  0  0
   -3.5210    0.8960    0.2100 C   0  0  0  0  0  0  0  0  0  0  0  0
   -3.0730   -0.4140    0.7630 C   0  0  0  0  0  0  0  0  0  0  0  0
   -3.7960   -1.3950    1.0880 O   0  0  0  0  0  0  0  0  0  0  0  0
   -1.6830   -0.3070    0.8390 O   0  0  0  0  0  0  0  0  0  0  0  0
  1  2  2  0
  2  3  1  0
  2  7  1  0
  3  4  1  0
  4  5  1  0
  5  6  1  0
  7  8  1  0
  9  8  1  1
  9 10  1  0
  9 12  1  0
  9 16  1  0
 10 11  1  0
 12 13  1  0
 13 14  1  0
 14 15  2  0
 14 16  1  0
M  END
