
     RDKit          3D

 28 30  0  0  0  0  0  0  0  0999 V2000
   -3.5650   -3.0650   -1.5800 C   0  0  0  0  0  0  0  0  0  0  0  0
   -2.5350   -2.0620   -1.3340 N   0  0  0  0  0  0  0  0  0  0  0  0
   -2.2840   -1.0210   -2.2610 C   0  0  0  0  0  0  0  0  0  0  0  0
   -2.9280   -0.9140   -3.3310 O   0  0  0  0  0  0  0  0  0  0  0  0
   -1.2500   -0.0950   -1.9070 N   0  0  0  0  0  0  0  0  0  0  0  0
   -0.8210    0.1320   -0.5820 C   0  0  2  0  0  0  0  0  0  0  0  0
   -1.6430    0.9630    0.1510 O   0  0  0  0  0  0  0  0  0  0  0  0
   -2.9330    0.5480    0.3290 C   0  0  0  0  0  0  0  0  0  0  0  0
   -3.7070    1.5990    1.1460 C   0  0  0  0  0  0  0  0  0  0  0  0
   -3.7110    2.8230    0.4770 O   0  0  0  0  0  0  0  0  0  0  0  0
   -4.3740    3.6690    1.2070 O   0  0  0  0  0  0  0  0  0  0  0  0
    0.4210    0.7670   -0.6210 O   0  0  0  0  0  0  0  0  0  0  0  0
    0.4260    1.7680   -1.5580 C   0  0  0  0  0  0  0  0  0  0  0  0
    1.3230    2.9310   -1.1590 C   0  0  0  0  0  0  0  0  0  0  0  0
    2.6140    2.7620   -1.5870 O   0  0  0  0  0  0  0  0  0  0  0  0
    3.5820    2.8200   -0.6160 C   0  0  0  0  0  0  0  0  0  0  0  0
    3.4570    1.6730    0.3420 C   0  0  0  0  0  0  0  0  0  0  0  0
    3.6900    0.3540   -0.3420 C   0  0  0  0  0  0  0  0  0  0  0  0
    3.6580   -0.8160    0.5480 C   0  0  0  0  0  0  0  0  0  0  0  0
    2.4650   -1.2070    1.2510 C   0  0  0  0  0  0  0  0  0  0  0  0
    1.3310   -0.6170    1.6130 C   0  0  0  0  0  0  0  0  0  0  0  0
    0.2180   -1.4250    1.0980 C   0  0  0  0  0  0  0  0  0  0  0  0
   -0.6960   -1.1620    0.1990 C   0  0  0  0  0  0  0  0  0  0  0  0
   -1.7570   -2.1150   -0.1430 C   0  0  0  0  0  0  0  0  0  0  0  0
   -2.0460   -3.0840    0.6550 O   0  0  0  0  0  0  0  0  0  0  0  0
    0.1560   -2.8670    1.6410 C   0  0  0  0  0  0  0  0  0  0  0  0
    1.4800   -3.2550    2.2800 C   0  0  0  0  0  0  0  0  0  0  0  0
    2.5500   -2.6020    1.6520 O   0  0  0  0  0  0  0  0  0  0  0  0
  1  2  1  0
  2  3  1  0
  2 24  1  0
  3  4  2  0
  3  5  1  0
  5  6  1  0
  6  7  1  1
  6 12  1  0
  6 23  1  0
  7  8  1  0
  8  9  1  0
  9 10  1  0
 10 11  1  0
 12 13  1  0
 13 14  1  0
 14 15  1  0
 15 16  1  0
 16 17  1  0
 17 18  1  0
 18 19  1  0
 19 20  1  0
 20 21  2  0
 20 28  1  0
 21 22  1  0
 22 23  2  0
 22 26  1  0
 23 24  1  0
 24 25  2  0
 26 27  1  0
 27 28  1  0
M  END
