
     RDKit          3D

 16 16  0  0  0  0  0  0  0  0999 V2000
   -3.8960   -0.4090   -0.0150 O   0  0  0  0  0  0  0  0  0  0  0  0
   -2.9750   -1.2140   -0.3020 C   0  0  0  0  0  0  0  0  0  0  0  0
   -3.2540   -2.5970   -0.2260 O   0  0  0  0  0  0  0  0  0  0  0  0
   -1.7430   -0.7440   -0.6740 O   0  0  0  0  0  0  0  0  0  0  0  0
   -1.4730    0.6510   -0.7440 C   0  0  2  0  0  0  0  0  0  0  0  0
   -0.1480    0.8690   -1.1540 O   0  0  0  0  0  0  0  0  0  0  0  0
    0.6970    0.3250   -0.3070 O   0  0  0  0  0  0  0  0  0  0  0  0
    1.7820    1.1810   -0.1020 C   0  0  0  0  0  0  0  0  0  0  0  0
    2.7810    0.6110    0.8570 C   0  0  0  0  0  0  0  0  0  0  0  0
    3.3550   -0.7050    0.3750 C   0  0  0  0  0  0  0  0  0  0  0  0
    4.2720   -1.1760    1.3110 O   0  0  0  0  0  0  0  0  0  0  0  0
   -1.7260    1.2370    0.6160 C   0  0  0  0  0  0  0  0  0  0  0  0
   -2.8990    1.9460    0.4830 O   0  0  0  0  0  0  0  0  0  0  0  0
   -3.0690    2.2710   -0.7800 O   0  0  0  0  0  0  0  0  0  0  0  0
   -2.4290    1.3650   -1.6090 C   0  0  0  0  0  0  0  0  0  0  0  0
   -2.6620    1.2320   -2.8300 O   0  0  0  0  0  0  0  0  0  0  0  0
  1  2  2  0
  2  3  1  0
  2  4  1  0
  5  4  1  1
  5  6  1  0
  5 12  1  0
  5 15  1  0
  6  7  1  0
  7  8  1  0
  8  9  1  0
  9 10  1  0
 10 11  1  0
 12 13  1  0
 13 14  1  0
 14 15  1  0
 15 16  2  0
M  END
