
     RDKit          3D

 21 22  0  0  0  0  0  0  0  0999 V2000
    6.0320   -0.1810   -0.7960 O   0  0  0  0  0  0  0  0  0  0  0  0
    4.7970   -0.0990   -0.5140 C   0  0  0  0  0  0  0  0  0  0  0  0
    3.9580    0.5950   -1.3560 C   0  0  0  0  0  0  0  0  0  0  0  0
    2.6060    0.6650   -1.0160 C   0  0  0  0  0  0  0  0  0  0  0  0
    2.1340    0.0770    0.0960 N   0  0  0  0  0  0  0  0  0  0  0  0
    0.7540    0.1650    0.4170 C   0  0  2  0  0  0  0  0  0  0  0  0
    0.2900   -0.8590    1.2170 O   0  0  0  0  0  0  0  0  0  0  0  0
   -1.0640   -0.9500    1.0910 C   0  0  2  0  0  0  0  0  0  0  0  0
   -1.4330   -2.3950    0.7280 C   0  0  0  0  0  0  0  0  0  0  0  0
   -2.8120   -2.5300    0.5900 O   0  0  0  0  0  0  0  0  0  0  0  0
   -1.4960   -0.0580   -0.0540 C   0  0  1  0  0  0  0  0  0  0  0  0
   -1.7860    1.1780    0.4570 O   0  0  0  0  0  0  0  0  0  0  0  0
   -3.1010    1.8840    0.1570 P   0  0  0  0  0  0  0  0  0  0  0  0
   -2.7490    3.2270    1.0000 O   0  0  0  0  0  0  0  0  0  0  0  0
   -3.8590    0.6120    0.9540 O   0  0  0  0  0  0  0  0  0  0  0  0
   -2.9710    1.8130   -1.4810 O   0  0  0  0  0  0  0  0  0  0  0  0
   -0.1580    0.0700   -0.7890 C   0  0  2  0  0  0  0  0  0  0  0  0
    0.1490   -1.0750   -1.4790 O   0  0  0  0  0  0  0  0  0  0  0  0
    2.9760   -0.5830    0.8830 C   0  0  0  0  0  0  0  0  0  0  0  0
    2.5670   -1.1510    1.9410 O   0  0  0  0  0  0  0  0  0  0  0  0
    4.2910   -0.6720    0.5850 N   0  0  0  0  0  0  0  0  0  0  0  0
  1  2  2  0
  2  3  1  0
  2 21  1  0
  3  4  2  0
  4  5  1  0
  6  5  1  6
  5 19  1  0
  6  7  1  0
  6 17  1  0
  7  8  1  0
  8  9  1  6
  8 11  1  0
  9 10  1  0
 11 12  1  1
 11 17  1  0
 12 13  1  0
 13 14  1  0
 13 15  1  0
 13 16  1  0
 17 18  1  1
 19 20  2  0
 19 21  1  0
M  END
