
     RDKit          3D

 27 28  0  0  0  0  0  0  0  0999 V2000
    5.7770   -1.4180   -0.6640 C   0  0  0  0  0  0  0  0  0  0  0  0
    5.4130    0.0390   -0.8490 C   0  0  0  0  0  0  0  0  0  0  0  0
    4.0340    0.2330   -0.3440 C   0  0  0  0  0  0  0  0  0  0  0  0
    2.9860   -0.0160   -1.0480 N   0  0  0  0  0  0  0  0  0  0  0  0
    1.6690    0.1890   -0.5120 C   0  0  0  0  0  0  0  0  0  0  0  0
    0.8770   -0.8960   -0.3690 C   0  0  0  0  0  0  0  0  0  0  0  0
    1.4090   -2.1810   -0.7630 C   0  0  0  0  0  0  0  0  0  0  0  0
    2.5840   -2.2490   -1.2240 O   0  0  0  0  0  0  0  0  0  0  0  0
    0.7390   -3.3760   -0.6820 O   0  0  0  0  0  0  0  0  0  0  0  0
    1.3270   -4.5960   -1.0880 C   0  0  0  0  0  0  0  0  0  0  0  0
   -0.4480   -0.6740    0.1800 C   0  0  0  0  0  0  0  0  0  0  0  0
   -1.2880   -1.6880    0.3530 C   0  0  0  0  0  0  0  0  0  0  0  0
   -2.6080   -1.3540    0.9170 C   0  0  0  0  0  0  0  0  0  0  0  0
   -3.4680   -2.3250    1.1040 C   0  0  0  0  0  0  0  0  0  0  0  0
   -5.1400   -2.0530    1.7960 P   0  0  0  0  0  0  0  0  0  0  0  0
   -5.5740   -0.4080    1.5830 O   0  0  0  0  0  0  0  0  0  0  0  0
   -6.3020   -3.0260    0.9220 O   0  0  0  0  0  0  0  0  0  0  0  0
   -0.8090    0.6220    0.5170 O   0  0  0  0  0  0  0  0  0  0  0  0
   -0.1610    1.6920   -0.1390 C   0  0  1  0  0  0  0  0  0  0  0  0
   -0.7290    1.7450   -1.5520 C   0  0  0  0  0  0  0  0  0  0  0  0
   -2.2260    1.8460   -1.4060 C   0  0  0  0  0  0  0  0  0  0  0  0
   -2.6520    2.9500   -0.6150 N   0  0  0  0  0  0  0  0  0  0  0  0
   -1.9950    3.0800    0.6480 C   0  0  0  0  0  0  0  0  0  0  0  0
   -0.5060    3.0070    0.5080 C   0  0  1  0  0  0  0  0  0  0  0  0
    0.1950    3.2210    1.8140 C   0  0  0  0  0  0  0  0  0  0  0  0
   -0.1070    4.0550   -0.3480 O   0  0  0  0  0  0  0  0  0  0  0  0
    1.2400    1.4610   -0.1610 O   0  0  0  0  0  0  0  0  0  0  0  0
  1  2  1  0
  2  3  1  0
  3  4  2  3
  4  5  1  0
  5  6  2  0
  5 27  1  0
  6  7  1  0
  6 11  1  0
  7  8  2  0
  7  9  1  0
  9 10  1  0
 11 12  2  3
 11 18  1  0
 12 13  1  0
 13 14  2  3
 14 15  1  0
 15 16  1  0
 15 17  1  0
 18 19  1  0
 19 20  1  6
 19 24  1  0
 19 27  1  0
 20 21  1  0
 21 22  1  0
 22 23  1  0
 23 24  1  0
 24 25  1  1
 24 26  1  0
M  END
