
     RDKit          3D

 28 31  0  0  0  0  0  0  0  0999 V2000
   -1.6720   -2.5320   -2.2410 C   0  0  0  0  0  0  0  0  0  0  0  0
   -0.2870   -2.6830   -1.6910 C   0  0  1  0  0  0  0  0  0  0  0  0
    0.6350   -2.8360   -2.8860 N   0  0  0  0  0  0  0  0  0  0  0  0
    1.1420   -1.8400   -3.4840 C   0  0  0  0  0  0  0  0  0  0  0  0
    0.9300   -0.4590   -3.0990 C   0  0  0  0  0  0  0  0  0  0  0  0
    0.1870   -0.2260   -2.0020 C   0  0  0  0  0  0  0  0  0  0  0  0
   -0.2090    1.0090   -1.4680 C   0  0  0  0  0  0  0  0  0  0  0  0
    0.2860    2.0870   -1.9670 O   0  0  0  0  0  0  0  0  0  0  0  0
   -1.1450    1.2000   -0.4390 N   0  0  0  0  0  0  0  0  0  0  0  0
   -1.9640    0.2960    0.3860 C   0  0  0  0  0  0  0  0  0  0  0  0
   -3.0490    1.3420    0.2710 C   0  0  1  0  0  0  0  0  0  0  0  0
   -3.6680    1.7550    1.4120 O   0  0  0  0  0  0  0  0  0  0  0  0
   -2.8090    2.1200    2.2960 O   0  0  0  0  0  0  0  0  0  0  0  0
   -1.6320    2.5320    1.6660 C   0  0  0  0  0  0  0  0  0  0  0  0
   -1.8380    2.2900    0.2220 C   0  0  1  0  0  0  0  0  0  0  0  0
    0.2390   -1.4460   -1.0940 C   0  0  0  0  0  0  0  0  0  0  0  0
    0.6460   -1.1290    0.1060 C   0  0  0  0  0  0  0  0  0  0  0  0
    1.1710    0.1600    0.4200 C   0  0  0  0  0  0  0  0  0  0  0  0
    1.4960    0.4230    1.6770 C   0  0  0  0  0  0  0  0  0  0  0  0
    2.0560    1.6840    2.1960 C   0  0  2  0  0  0  0  0  0  0  0  0
    1.5090    2.0020    3.4380 O   0  0  0  0  0  0  0  0  0  0  0  0
    1.8870    3.0120    0.9410 P   0  0  0  0  0  0  0  0  0  0  0  0
    2.2850    4.5720    1.5820 O   0  0  0  0  0  0  0  0  0  0  0  0
    0.5860   -2.0630    1.1750 O   0  0  0  0  0  0  0  0  0  0  0  0
    0.8440   -3.4210    1.2860 C   0  0  0  0  0  0  0  0  0  0  0  0
    0.6230   -4.2190    0.0760 C   0  0  0  0  0  0  0  0  0  0  0  0
    1.2130   -5.3320    0.0850 O   0  0  0  0  0  0  0  0  0  0  0  0
   -0.1380   -3.8540   -1.0010 O   0  0  0  0  0  0  0  0  0  0  0  0
  2  1  1  6
  2  3  1  0
  2 16  1  0
  2 28  1  0
  3  4  2  0
  4  5  1  0
  5  6  2  0
  6  7  1  0
  6 16  1  0
  7  8  2  0
  7  9  1  0
  9 10  1  0
  9 15  1  0
 11 10  1  1
 11 12  1  0
 11 15  1  0
 12 13  1  0
 13 14  1  0
 15 14  1  1
 16 17  2  0
 17 18  1  0
 17 24  1  0
 18 19  2  3
 19 20  1  0
 20 21  1  1
 20 22  1  0
 22 23  1  0
 24 25  1  0
 25 26  1  0
 26 27  2  0
 26 28  1  0
M  END
