
     RDKit          3D

 25 25  0  0  0  0  0  0  0  0999 V2000
    4.8240   -2.0780   -0.0030 O   0  0  0  0  0  0  0  0  0  0  0  0
    5.5670   -1.1000    0.3010 C   0  0  0  0  0  0  0  0  0  0  0  0
    6.8460   -1.2960    0.8380 O   0  0  0  0  0  0  0  0  0  0  0  0
    5.0470    0.1710    0.0720 O   0  0  0  0  0  0  0  0  0  0  0  0
    3.8110    0.3510   -0.4470 O   0  0  0  0  0  0  0  0  0  0  0  0
    2.7000    0.5260    0.3660 C   0  0  0  0  0  0  0  0  0  0  0  0
    2.8780    0.5120    1.6070 O   0  0  0  0  0  0  0  0  0  0  0  0
    1.3320    0.7260   -0.1580 C   0  0  1  0  0  0  0  0  0  0  0  0
    0.4600    0.8670    0.8930 O   0  0  0  0  0  0  0  0  0  0  0  0
    1.3370    1.9300   -1.0760 C   0  0  0  0  0  0  0  0  0  0  0  0
    0.0700    2.4660   -1.2390 O   0  0  0  0  0  0  0  0  0  0  0  0
   -0.2210    3.4330   -0.2700 C   0  0  0  0  0  0  0  0  0  0  0  0
   -1.7200    3.6120   -0.1130 C   0  0  0  0  0  0  0  0  0  0  0  0
   -2.2810    2.7010    0.7530 O   0  0  0  0  0  0  0  0  0  0  0  0
   -3.1740    1.4600   -0.0680 P   0  0  0  0  0  0  0  0  0  0  0  0
   -4.4200    0.8510    0.9740 O   0  0  0  0  0  0  0  0  0  0  0  0
   -2.1850    0.1560   -0.5560 O   0  0  0  0  0  0  0  0  0  0  0  0
   -2.2480   -0.9410    0.2970 C   0  0  0  0  0  0  0  0  0  0  0  0
   -1.7800   -2.2160   -0.3240 C   0  0  2  0  0  0  0  0  0  0  0  0
   -2.6430   -3.3490    0.2500 C   0  0  0  0  0  0  0  0  0  0  0  0
   -3.9730   -3.1580   -0.0350 O   0  0  0  0  0  0  0  0  0  0  0  0
   -0.3370   -2.4910   -0.1000 C   0  0  0  0  0  0  0  0  0  0  0  0
   -0.0570   -3.7380    0.0250 O   0  0  0  0  0  0  0  0  0  0  0  0
    0.6400   -1.5380   -0.0260 O   0  0  0  0  0  0  0  0  0  0  0  0
    0.9690   -0.5420   -0.9390 C   0  0  0  0  0  0  0  0  0  0  0  0
  1  2  2  0
  2  3  1  0
  2  4  1  0
  4  5  1  0
  5  6  1  0
  6  7  2  0
  6  8  1  0
  8  9  1  1
  8 10  1  0
  8 25  1  0
 10 11  1  0
 11 12  1  0
 12 13  1  0
 13 14  1  0
 14 15  1  0
 15 16  1  0
 15 17  1  0
 17 18  1  0
 18 19  1  0
 19 20  1  1
 19 22  1  0
 20 21  1  0
 22 23  2  0
 22 24  1  0
 24 25  1  0
M  END
