
     RDKit          3D

 25 26  0  0  0  0  0  0  0  0999 V2000
    1.8710    4.1160   -1.1600 C   0  0  0  0  0  0  0  0  0  0  0  0
    1.4190    2.8990   -0.6090 O   0  0  0  0  0  0  0  0  0  0  0  0
    0.5770    2.0700   -1.3080 C   0  0  0  0  0  0  0  0  0  0  0  0
    0.2320    2.4520   -2.4570 O   0  0  0  0  0  0  0  0  0  0  0  0
    0.0330    0.7790   -0.8540 C   0  0  1  0  0  0  0  0  0  0  0  0
    0.3800    0.3530    0.3540 O   0  0  0  0  0  0  0  0  0  0  0  0
    1.6160    0.0460    0.7440 C   0  0  0  0  0  0  0  0  0  0  0  0
    2.3420   -1.0560    0.0340 C   0  0  0  0  0  0  0  0  0  0  0  0
    3.7360   -1.2360    0.6640 C   0  0  0  0  0  0  0  0  0  0  0  0
    4.4290   -2.2540    0.0210 O   0  0  0  0  0  0  0  0  0  0  0  0
    5.6020   -2.3480    0.6090 O   0  0  0  0  0  0  0  0  0  0  0  0
   -1.3850    0.9780   -0.7900 O   0  0  0  0  0  0  0  0  0  0  0  0
   -1.9320   -0.1700   -0.2320 C   0  0  1  0  0  0  0  0  0  0  0  0
   -1.8640   -0.0940    1.1820 O   0  0  0  0  0  0  0  0  0  0  0  0
   -2.7290    1.2620    1.7910 P   0  0  0  0  0  0  0  0  0  0  0  0
   -4.2270    1.4860    0.9890 O   0  0  0  0  0  0  0  0  0  0  0  0
   -2.9210    1.0510    3.5020 O   0  0  0  0  0  0  0  0  0  0  0  0
   -3.3150   -0.0870   -0.5000 O   0  0  0  0  0  0  0  0  0  0  0  0
   -3.8750   -1.1840    0.1960 C   0  0  0  0  0  0  0  0  0  0  0  0
   -3.6150   -2.2940   -0.5660 O   0  0  0  0  0  0  0  0  0  0  0  0
   -2.2990   -2.6000   -0.7510 C   0  0  0  0  0  0  0  0  0  0  0  0
   -1.3380   -1.4510   -0.6700 C   0  0  1  0  0  0  0  0  0  0  0  0
   -0.5780   -1.3320   -1.8590 O   0  0  0  0  0  0  0  0  0  0  0  0
    0.1590   -0.1680   -1.9900 C   0  0  0  0  0  0  0  0  0  0  0  0
    0.8470   -0.0080   -3.0130 O   0  0  0  0  0  0  0  0  0  0  0  0
  1  2  1  0
  2  3  1  0
  3  4  2  0
  3  5  1  0
  5  6  1  1
  5 12  1  0
  5 24  1  0
  6  7  1  0
  7  8  1  0
  8  9  1  0
  9 10  1  0
 10 11  1  0
 12 13  1  0
 13 14  1  1
 13 18  1  0
 13 22  1  0
 14 15  1  0
 15 16  1  0
 15 17  1  0
 18 19  1  0
 19 20  1  0
 20 21  1  0
 22 21  1  6
 22 23  1  0
 23 24  1  0
 24 25  2  0
M  END
