
     RDKit          3D

 24 24  0  0  0  0  0  0  0  0999 V2000
    0.4630    2.3690    1.3170 C   0  0  0  0  0  0  0  0  0  0  0  0
    1.1010    1.0350    0.9740 C   0  0  1  0  0  0  0  0  0  0  0  0
    0.0240    0.0090    0.9620 C   0  0  0  0  0  0  0  0  0  0  0  0
   -0.6930    0.1490   -0.2250 O   0  0  0  0  0  0  0  0  0  0  0  0
   -2.0170   -0.2420   -0.1000 C   0  0  2  0  0  0  0  0  0  0  0  0
   -2.3280   -0.7460    1.1390 O   0  0  0  0  0  0  0  0  0  0  0  0
   -3.3050    0.0570    1.7710 C   0  0  0  0  0  0  0  0  0  0  0  0
   -4.8660    0.1260    0.7690 P   0  0  0  0  0  0  0  0  0  0  0  0
   -5.2110    1.7390    0.2460 O   0  0  0  0  0  0  0  0  0  0  0  0
   -6.2110   -0.4810    1.6520 O   0  0  0  0  0  0  0  0  0  0  0  0
   -2.3320   -1.1650   -1.2090 C   0  0  0  0  0  0  0  0  0  0  0  0
   -3.1710   -2.0670   -1.0070 O   0  0  0  0  0  0  0  0  0  0  0  0
   -1.7140   -1.0200   -2.4050 O   0  0  0  0  0  0  0  0  0  0  0  0
   -0.3750   -0.7620   -2.6770 C   0  0  0  0  0  0  0  0  0  0  0  0
    0.5620   -1.6750   -1.9850 C   0  0  0  0  0  0  0  0  0  0  0  0
    0.0720   -2.6390   -1.3410 O   0  0  0  0  0  0  0  0  0  0  0  0
    1.9100   -1.4700   -2.0510 O   0  0  0  0  0  0  0  0  0  0  0  0
    2.5710   -0.2420   -1.9440 C   0  0  0  0  0  0  0  0  0  0  0  0
    2.7110    0.2190   -0.5090 C   0  0  1  0  0  0  0  0  0  0  0  0
    4.0020    0.7500   -0.3610 O   0  0  0  0  0  0  0  0  0  0  0  0
    4.9950   -0.1610    0.6800 P   0  0  0  0  0  0  0  0  0  0  0  0
    6.4990   -0.6260   -0.0230 O   0  0  0  0  0  0  0  0  0  0  0  0
    5.3040    0.5880    2.2000 O   0  0  0  0  0  0  0  0  0  0  0  0
    1.8360    1.1890   -0.1430 O   0  0  0  0  0  0  0  0  0  0  0  0
  2  1  1  6
  2  3  1  0
  2 24  1  0
  3  4  1  0
  4  5  1  0
  5  6  1  1
  5 11  1  0
  6  7  1  0
  7  8  1  0
  8  9  1  0
  8 10  1  0
 11 12  2  0
 11 13  1  0
 13 14  1  0
 14 15  1  0
 15 16  2  0
 15 17  1  0
 17 18  1  0
 18 19  1  0
 19 20  1  6
 19 24  1  0
 20 21  1  0
 21 22  1  0
 21 23  1  0
M  END
