
     RDKit          3D

 25 25  0  0  0  0  0  0  0  0999 V2000
   -0.8890   -2.4840    2.1420 O   0  0  0  0  0  0  0  0  0  0  0  0
   -1.0950   -3.1270    1.0650 C   0  0  0  0  0  0  0  0  0  0  0  0
   -1.5660   -4.4160    1.1840 O   0  0  0  0  0  0  0  0  0  0  0  0
   -0.8350   -2.4990   -0.1410 O   0  0  0  0  0  0  0  0  0  0  0  0
   -0.3530   -1.1750   -0.1850 C   0  0  1  0  0  0  0  0  0  0  0  0
    0.9990   -1.1910   -0.8160 C   0  0  0  0  0  0  0  0  0  0  0  0
    1.6760    0.1430   -0.8330 C   0  0  1  0  0  0  0  0  0  0  0  0
    2.8740    0.1080   -1.7670 C   0  0  0  0  0  0  0  0  0  0  0  0
    3.5370    1.3060   -1.8230 O   0  0  0  0  0  0  0  0  0  0  0  0
    4.0400    1.7420   -0.6200 C   0  0  0  0  0  0  0  0  0  0  0  0
    5.2500    0.5900    0.1400 P   0  0  0  0  0  0  0  0  0  0  0  0
    4.5290   -0.3800    1.4080 O   0  0  0  0  0  0  0  0  0  0  0  0
    6.5330    1.4980    0.8780 O   0  0  0  0  0  0  0  0  0  0  0  0
    6.4760    1.4480    2.1960 O   0  0  0  0  0  0  0  0  0  0  0  0
    0.6750    1.1460   -1.3380 C   0  0  0  0  0  0  0  0  0  0  0  0
    1.1510    2.1060   -2.0150 O   0  0  0  0  0  0  0  0  0  0  0  0
   -0.6680    1.0040   -1.0680 O   0  0  0  0  0  0  0  0  0  0  0  0
   -1.3100   -0.2430   -0.8920 C   0  0  2  0  0  0  0  0  0  0  0  0
   -2.5200    0.0130   -0.0640 C   0  0  0  0  0  0  0  0  0  0  0  0
   -3.2240   -0.9890    0.1980 O   0  0  0  0  0  0  0  0  0  0  0  0
   -2.8840    1.2400    0.4020 O   0  0  0  0  0  0  0  0  0  0  0  0
   -3.9920    1.5360    1.1660 C   0  0  0  0  0  0  0  0  0  0  0  0
   -5.3300    1.2760    0.5710 C   0  0  0  0  0  0  0  0  0  0  0  0
   -5.6010   -0.0200    0.2180 O   0  0  0  0  0  0  0  0  0  0  0  0
   -6.7970   -0.1380   -0.2920 O   0  0  0  0  0  0  0  0  0  0  0  0
  1  2  2  0
  2  3  1  0
  2  4  1  0
  5  4  1  6
  5  6  1  0
  5 18  1  0
  6  7  1  0
  7  8  1  6
  7 15  1  0
  8  9  1  0
  9 10  1  0
 10 11  1  0
 11 12  1  0
 11 13  1  0
 13 14  1  0
 15 16  2  0
 15 17  1  0
 17 18  1  0
 18 19  1  1
 19 20  2  0
 19 21  1  0
 21 22  1  0
 22 23  1  0
 23 24  1  0
 24 25  1  0
M  END
