
     RDKit          3D

 25 25  0  0  0  0  0  0  0  0999 V2000
    3.5910   -2.1740    0.3210 O   0  0  0  0  0  0  0  0  0  0  0  0
    4.0140   -1.5670   -0.6950 C   0  0  0  0  0  0  0  0  0  0  0  0
    5.2770   -1.8580   -1.2250 O   0  0  0  0  0  0  0  0  0  0  0  0
    3.1800   -0.6130   -1.2510 O   0  0  0  0  0  0  0  0  0  0  0  0
    1.9190   -0.3340   -0.7080 C   0  0  2  0  0  0  0  0  0  0  0  0
    0.8240   -0.4890   -1.6920 C   0  0  0  0  0  0  0  0  0  0  0  0
    0.9020    0.1320   -2.7760 O   0  0  0  0  0  0  0  0  0  0  0  0
   -0.2300   -1.3150   -1.3590 O   0  0  0  0  0  0  0  0  0  0  0  0
    0.0510   -2.4140   -0.6090 O   0  0  0  0  0  0  0  0  0  0  0  0
   -0.5990   -2.7970    0.5170 C   0  0  0  0  0  0  0  0  0  0  0  0
   -0.3430   -3.8980    1.0510 O   0  0  0  0  0  0  0  0  0  0  0  0
   -1.6230   -1.9240    1.1380 C   0  0  0  0  0  0  0  0  0  0  0  0
   -2.1010   -0.9370    0.2920 O   0  0  0  0  0  0  0  0  0  0  0  0
   -2.4240    0.3730    0.4760 C   0  0  0  0  0  0  0  0  0  0  0  0
   -3.8020    0.9470    0.3500 C   0  0  0  0  0  0  0  0  0  0  0  0
   -4.3420    0.6930   -1.0630 C   0  0  0  0  0  0  0  0  0  0  0  0
   -4.3930   -0.6820   -1.3130 O   0  0  0  0  0  0  0  0  0  0  0  0
   -4.8550   -0.8480   -2.5200 O   0  0  0  0  0  0  0  0  0  0  0  0
   -1.4840    1.2470    0.7880 C   0  0  0  0  0  0  0  0  0  0  0  0
   -0.0420    0.9600    0.9730 C   0  0  0  0  0  0  0  0  0  0  0  0
    0.6430    1.6170   -0.0350 O   0  0  0  0  0  0  0  0  0  0  0  0
    1.8950    1.1410   -0.2830 C   0  0  1  0  0  0  0  0  0  0  0  0
    2.8820    1.3580    0.8360 C   0  0  0  0  0  0  0  0  0  0  0  0
    3.0480    2.7120    1.1210 O   0  0  0  0  0  0  0  0  0  0  0  0
    3.8980    2.9060    2.0850 O   0  0  0  0  0  0  0  0  0  0  0  0
  1  2  2  0
  2  3  1  0
  2  4  1  0
  5  4  1  6
  5  6  1  0
  5 22  1  0
  6  7  2  0
  6  8  1  0
  8  9  1  0
  9 10  1  0
 10 11  2  0
 10 12  1  0
 12 13  1  0
 13 14  1  0
 14 15  1  0
 14 19  2  0
 15 16  1  0
 16 17  1  0
 17 18  1  0
 19 20  1  0
 20 21  1  0
 21 22  1  0
 22 23  1  1
 23 24  1  0
 24 25  1  0
M  END
