
     RDKit          3D

 25 24  0  0  0  0  0  0  0  0999 V2000
    2.1950   -4.2400   -1.5100 C   0  0  0  0  0  0  0  0  0  0  0  0
    1.6330   -2.9930   -0.9170 C   0  0  0  0  0  0  0  0  0  0  0  0
    1.2830   -2.9390    0.2630 O   0  0  0  0  0  0  0  0  0  0  0  0
    1.5080   -1.8970   -1.7060 O   0  0  0  0  0  0  0  0  0  0  0  0
    1.0330   -0.6290   -1.3980 C   0  0  2  0  0  0  0  0  0  0  0  0
    1.0870    0.1130   -2.7820 C   0  0  0  0  0  0  0  0  0  0  0  0
    1.7500    0.1710   -0.6030 O   0  0  0  0  0  0  0  0  0  0  0  0
    2.1030   -0.1170    0.6520 C   0  0  0  0  0  0  0  0  0  0  0  0
    2.8570    1.1420    1.1650 C   0  0  0  0  0  0  0  0  0  0  0  0
    1.9690    2.2590    1.1040 O   0  0  0  0  0  0  0  0  0  0  0  0
    2.4490    3.4820    1.5190 C   0  0  0  0  0  0  0  0  0  0  0  0
    3.6160    3.6230    1.9360 O   0  0  0  0  0  0  0  0  0  0  0  0
   -0.4150   -0.7500   -1.0680 C   0  0  0  0  0  0  0  0  0  0  0  0
   -1.0230   -1.8540   -1.0910 O   0  0  0  0  0  0  0  0  0  0  0  0
   -1.1520    0.3580   -0.7220 O   0  0  0  0  0  0  0  0  0  0  0  0
   -2.5310    0.3360   -0.3940 C   0  0  2  0  0  0  0  0  0  0  0  0
   -3.2730   -0.1630   -1.4960 O   0  0  0  0  0  0  0  0  0  0  0  0
   -2.9680    1.7750   -0.2930 C   0  0  0  0  0  0  0  0  0  0  0  0
   -2.2980    2.5750    0.6030 O   0  0  0  0  0  0  0  0  0  0  0  0
   -2.2410    2.5140    1.9550 C   0  0  0  0  0  0  0  0  0  0  0  0
   -2.8690    1.6360    2.5630 O   0  0  0  0  0  0  0  0  0  0  0  0
   -1.4700    3.4440    2.7080 O   0  0  0  0  0  0  0  0  0  0  0  0
   -2.9560   -0.7190    1.0380 P   0  0  0  0  0  0  0  0  0  0  0  0
   -1.4680   -1.0440    1.9140 O   0  0  0  0  0  0  0  0  0  0  0  0
   -3.5590   -2.2450    0.4770 O   0  0  0  0  0  0  0  0  0  0  0  0
  1  2  1  0
  2  3  2  0
  2  4  1  0
  4  5  1  0
  5  6  1  6
  5  7  1  0
  5 13  1  0
  7  8  1  0
  8  9  1  0
  9 10  1  0
 10 11  1  0
 11 12  2  0
 13 14  2  0
 13 15  1  0
 15 16  1  0
 16 17  1  6
 16 18  1  0
 16 23  1  0
 18 19  1  0
 19 20  1  0
 20 21  2  0
 20 22  1  0
 23 24  1  0
 23 25  1  0
M  END
