
     RDKit          3D

 25 25  0  0  0  0  0  0  0  0999 V2000
   -6.0020    0.7990    1.4110 C   0  0  0  0  0  0  0  0  0  0  0  0
   -4.9450    0.3260    0.5740 O   0  0  0  0  0  0  0  0  0  0  0  0
   -3.8140    1.0910    0.4050 C   0  0  0  0  0  0  0  0  0  0  0  0
   -3.7450    2.1970    0.9990 O   0  0  0  0  0  0  0  0  0  0  0  0
   -2.6510    0.6990   -0.4420 C   0  0  1  0  0  0  0  0  0  0  0  0
   -2.8190   -0.5160   -1.0450 O   0  0  0  0  0  0  0  0  0  0  0  0
   -2.4970    1.8310   -1.4680 C   0  0  0  0  0  0  0  0  0  0  0  0
   -2.0600    2.8830   -0.5880 O   0  0  0  0  0  0  0  0  0  0  0  0
   -1.2870    2.3350    0.4190 C   0  0  0  0  0  0  0  0  0  0  0  0
   -0.6510    2.9790    1.2720 O   0  0  0  0  0  0  0  0  0  0  0  0
   -1.3470    0.8580    0.3090 C   0  0  2  0  0  0  0  0  0  0  0  0
   -0.3180    0.4680   -0.5280 O   0  0  0  0  0  0  0  0  0  0  0  0
    0.5400   -0.4630    0.0210 C   0  0  1  0  0  0  0  0  0  0  0  0
    0.5140   -1.6870   -0.9030 C   0  0  0  0  0  0  0  0  0  0  0  0
    1.3590   -2.6830   -0.4220 O   0  0  0  0  0  0  0  0  0  0  0  0
    1.2640   -4.0150   -1.5230 P   0  0  0  0  0  0  0  0  0  0  0  0
    2.1510   -5.3910   -0.9700 O   0  0  0  0  0  0  0  0  0  0  0  0
   -0.3920   -4.3850   -1.8210 O   0  0  0  0  0  0  0  0  0  0  0  0
    1.9170    0.0730   -0.0460 C   0  0  0  0  0  0  0  0  0  0  0  0
    2.0960    1.2040   -0.5520 O   0  0  0  0  0  0  0  0  0  0  0  0
    3.0320   -0.6090    0.4200 O   0  0  0  0  0  0  0  0  0  0  0  0
    4.3430   -0.1180    0.3660 C   0  0  0  0  0  0  0  0  0  0  0  0
    4.5140    1.1770    1.1260 C   0  0  0  0  0  0  0  0  0  0  0  0
    5.8620    1.5460    0.9850 O   0  0  0  0  0  0  0  0  0  0  0  0
    6.0080    2.6780    1.6500 O   0  0  0  0  0  0  0  0  0  0  0  0
  1  2  1  0
  2  3  1  0
  3  4  2  0
  3  5  1  0
  5  6  1  6
  5  7  1  0
  5 11  1  0
  7  8  1  0
  8  9  1  0
  9 10  2  0
  9 11  1  0
 11 12  1  6
 12 13  1  0
 13 14  1  6
 13 19  1  0
 14 15  1  0
 15 16  1  0
 16 17  1  0
 16 18  1  0
 19 20  2  0
 19 21  1  0
 21 22  1  0
 22 23  1  0
 23 24  1  0
 24 25  1  0
M  END
