
     RDKit          3D

 25 25  0  0  0  0  0  0  0  0999 V2000
    2.1000    1.9250   -1.3710 O   0  0  0  0  0  0  0  0  0  0  0  0
    3.1440    1.3140   -1.1200 C   0  0  0  0  0  0  0  0  0  0  0  0
    4.2810    2.1200   -0.8920 O   0  0  0  0  0  0  0  0  0  0  0  0
    4.1900    3.5310   -0.9550 C   0  0  0  0  0  0  0  0  0  0  0  0
    5.4350    4.0560   -0.6940 O   0  0  0  0  0  0  0  0  0  0  0  0
    5.8020    3.6680    0.5080 O   0  0  0  0  0  0  0  0  0  0  0  0
    3.1830   -0.0440   -1.0710 O   0  0  0  0  0  0  0  0  0  0  0  0
    2.0680   -0.8640   -1.2920 C   0  0  0  0  0  0  0  0  0  0  0  0
    1.0060   -0.5950   -0.2870 C   0  0  2  0  0  0  0  0  0  0  0  0
    1.4560   -0.8390    1.1360 C   0  0  0  0  0  0  0  0  0  0  0  0
    1.9890   -2.5620    1.4390 P   0  0  0  0  0  0  0  0  0  0  0  0
    3.6410   -2.8560    1.1020 O   0  0  0  0  0  0  0  0  0  0  0  0
    0.9350   -3.7330    0.7340 O   0  0  0  0  0  0  0  0  0  0  0  0
   -0.2120   -1.4260   -0.4980 C   0  0  0  0  0  0  0  0  0  0  0  0
   -0.3540   -2.2670   -1.4100 O   0  0  0  0  0  0  0  0  0  0  0  0
   -1.2540   -1.2410    0.3950 O   0  0  0  0  0  0  0  0  0  0  0  0
   -2.4700   -1.9590    0.3190 C   0  0  0  0  0  0  0  0  0  0  0  0
   -3.3400   -1.4730    1.4580 C   0  0  0  0  0  0  0  0  0  0  0  0
   -3.6100   -0.1240    1.3950 O   0  0  0  0  0  0  0  0  0  0  0  0
   -4.2860    0.2760    0.2630 C   0  0  2  0  0  0  0  0  0  0  0  0
   -3.4680    1.1600   -0.4270 O   0  0  0  0  0  0  0  0  0  0  0  0
   -4.2070    2.2660   -0.7660 C   0  0  0  0  0  0  0  0  0  0  0  0
   -5.2680    2.3490    0.1920 O   0  0  0  0  0  0  0  0  0  0  0  0
   -5.5230    1.0480    0.5960 C   0  0  0  0  0  0  0  0  0  0  0  0
   -6.5390    0.5430    1.1300 O   0  0  0  0  0  0  0  0  0  0  0  0
  1  2  2  0
  2  3  1  0
  2  7  1  0
  3  4  1  0
  4  5  1  0
  5  6  1  0
  7  8  1  0
  9  8  1  6
  9 10  1  0
  9 14  1  0
 10 11  1  0
 11 12  1  0
 11 13  1  0
 14 15  2  0
 14 16  1  0
 16 17  1  0
 17 18  1  0
 18 19  1  0
 20 19  1  1
 20 21  1  0
 20 24  1  0
 21 22  1  0
 22 23  1  0
 23 24  1  0
 24 25  2  0
M  END
