
     RDKit          3D

 20 21  0  0  0  0  0  0  0  0999 V2000
    6.0070    1.4980   -0.6280 O   0  0  0  0  0  0  0  0  0  0  0  0
    4.8610    1.0800   -0.3370 C   0  0  0  0  0  0  0  0  0  0  0  0
    3.9180    1.9850    0.1100 C   0  0  0  0  0  0  0  0  0  0  0  0
    2.6550    1.5060    0.4270 C   0  0  0  0  0  0  0  0  0  0  0  0
    2.3290    0.2060    0.3130 N   0  0  0  0  0  0  0  0  0  0  0  0
    0.9820   -0.1710    0.6730 C   0  0  1  0  0  0  0  0  0  0  0  0
    0.0450    0.7050   -0.1390 C   0  0  0  0  0  0  0  0  0  0  0  0
   -1.2430   -0.0760   -0.0720 C   0  0  2  0  0  0  0  0  0  0  0  0
   -2.0340    0.3940    0.9380 O   0  0  0  0  0  0  0  0  0  0  0  0
   -3.5400    0.8550    0.6050 P   0  0  0  0  0  0  0  0  0  0  0  0
   -4.1330    2.3010    1.1500 O   0  0  0  0  0  0  0  0  0  0  0  0
   -4.6340   -0.2440   -0.0890 O   0  0  0  0  0  0  0  0  0  0  0  0
   -3.2600    1.4140   -0.7790 O   0  0  0  0  0  0  0  0  0  0  0  0
   -0.7590   -1.4580    0.2890 C   0  0  1  0  0  0  0  0  0  0  0  0
   -1.1890   -2.4270   -0.8210 C   0  0  0  0  0  0  0  0  0  0  0  0
   -0.6680   -3.6930   -0.5960 O   0  0  0  0  0  0  0  0  0  0  0  0
    0.6280   -1.4290    0.2560 O   0  0  0  0  0  0  0  0  0  0  0  0
    3.2620   -0.6430   -0.1220 C   0  0  0  0  0  0  0  0  0  0  0  0
    2.9340   -1.8590   -0.2220 O   0  0  0  0  0  0  0  0  0  0  0  0
    4.4950   -0.2020   -0.4360 N   0  0  0  0  0  0  0  0  0  0  0  0
  1  2  2  0
  2  3  1  0
  2 20  1  0
  3  4  2  0
  4  5  1  0
  6  5  1  6
  5 18  1  0
  6  7  1  0
  6 17  1  0
  7  8  1  0
  8  9  1  1
  8 14  1  0
  9 10  1  0
 10 11  1  0
 10 12  1  0
 10 13  1  0
 14 15  1  6
 14 17  1  0
 15 16  1  0
 18 19  2  0
 18 20  1  0
M  END
