
     RDKit          3D

 25 25  0  0  0  0  0  0  0  0999 V2000
   -4.1520   -3.0110    0.7550 O   0  0  0  0  0  0  0  0  0  0  0  0
   -4.1570   -2.2430   -0.2230 C   0  0  0  0  0  0  0  0  0  0  0  0
   -5.2300   -2.3170   -1.1140 O   0  0  0  0  0  0  0  0  0  0  0  0
   -3.1100   -1.3580   -0.3830 O   0  0  0  0  0  0  0  0  0  0  0  0
   -2.0690   -1.3580    0.5740 C   0  0  0  0  0  0  0  0  0  0  0  0
   -1.0020   -0.3340    0.2550 C   0  0  1  0  0  0  0  0  0  0  0  0
   -1.6760    1.0150    0.2330 C   0  0  0  0  0  0  0  0  0  0  0  0
   -2.3360    1.2880    1.4240 O   0  0  0  0  0  0  0  0  0  0  0  0
   -3.0590    2.8590    1.2580 P   0  0  0  0  0  0  0  0  0  0  0  0
   -4.4240    2.6910    0.1940 O   0  0  0  0  0  0  0  0  0  0  0  0
   -1.9600    4.0070    0.5900 O   0  0  0  0  0  0  0  0  0  0  0  0
   -0.0520   -0.4420    1.2660 O   0  0  0  0  0  0  0  0  0  0  0  0
    0.6080   -1.6570    1.0980 C   0  0  0  0  0  0  0  0  0  0  0  0
    2.1070   -1.5260    1.2240 C   0  0  0  0  0  0  0  0  0  0  0  0
    2.7110   -1.4950   -0.0420 O   0  0  0  0  0  0  0  0  0  0  0  0
    4.0490   -1.2090    0.0810 C   0  0  0  0  0  0  0  0  0  0  0  0
    4.3630    0.2630   -0.0000 C   0  0  0  0  0  0  0  0  0  0  0  0
    4.0490    0.8400   -1.2310 O   0  0  0  0  0  0  0  0  0  0  0  0
    3.1240    1.8380   -1.4420 C   0  0  0  0  0  0  0  0  0  0  0  0
    3.3570    2.8680   -2.1360 O   0  0  0  0  0  0  0  0  0  0  0  0
    1.7530    1.7340   -0.8300 C   0  0  0  0  0  0  0  0  0  0  0  0
    0.7860    1.3720   -1.7410 O   0  0  0  0  0  0  0  0  0  0  0  0
    0.1090    0.2100   -1.9050 C   0  0  0  0  0  0  0  0  0  0  0  0
   -0.0790   -0.1830   -3.1140 O   0  0  0  0  0  0  0  0  0  0  0  0
   -0.4140   -0.6240   -0.9630 O   0  0  0  0  0  0  0  0  0  0  0  0
  1  2  2  0
  2  3  1  0
  2  4  1  0
  4  5  1  0
  6  5  1  1
  6  7  1  0
  6 12  1  0
  6 25  1  0
  7  8  1  0
  8  9  1  0
  9 10  1  0
  9 11  1  0
 12 13  1  0
 13 14  1  0
 14 15  1  0
 15 16  1  0
 16 17  1  0
 17 18  1  0
 18 19  1  0
 19 20  2  0
 19 21  1  0
 21 22  1  0
 22 23  1  0
 23 24  2  0
 23 25  1  0
M  END
