
     RDKit          3D

 21 22  0  0  0  0  0  0  0  0999 V2000
    6.0650    1.6950   -0.6580 O   0  0  0  0  0  0  0  0  0  0  0  0
    4.9090    1.2870   -0.3510 C   0  0  0  0  0  0  0  0  0  0  0  0
    4.5500   -0.0400   -0.4580 C   0  0  0  0  0  0  0  0  0  0  0  0
    3.2810   -0.4500   -0.1140 C   0  0  0  0  0  0  0  0  0  0  0  0
    2.3550    0.4530    0.3400 N   0  0  0  0  0  0  0  0  0  0  0  0
    1.0950   -0.0680    0.6620 C   0  0  2  0  0  0  0  0  0  0  0  0
    0.7720   -1.0440   -0.3110 O   0  0  0  0  0  0  0  0  0  0  0  0
   -0.4900   -1.4440    0.1730 C   0  0  2  0  0  0  0  0  0  0  0  0
   -1.1500   -2.4250   -0.7580 C   0  0  0  0  0  0  0  0  0  0  0  0
   -2.3820   -2.7600   -0.2010 O   0  0  0  0  0  0  0  0  0  0  0  0
   -1.1840   -0.1050    0.1850 C   0  0  1  0  0  0  0  0  0  0  0  0
   -2.2980   -0.0640    0.9340 O   0  0  0  0  0  0  0  0  0  0  0  0
   -3.5700    0.4490   -0.1330 P   0  0  0  0  0  0  0  0  0  0  0  0
   -3.2260   -0.1170   -1.7200 O   0  0  0  0  0  0  0  0  0  0  0  0
   -5.0710   -0.2510    0.4210 O   0  0  0  0  0  0  0  0  0  0  0  0
   -3.6830    2.1440   -0.1000 O   0  0  0  0  0  0  0  0  0  0  0  0
   -0.0730    0.7710    0.7950 C   0  0  1  0  0  0  0  0  0  0  0  0
   -0.4270    0.9480    2.1190 F   0  0  0  0  0  0  0  0  0  0  0  0
    2.7710    1.7080    0.4160 C   0  0  0  0  0  0  0  0  0  0  0  0
    1.9480    2.5580    0.8270 O   0  0  0  0  0  0  0  0  0  0  0  0
    3.9980    2.1500    0.0910 N   0  0  0  0  0  0  0  0  0  0  0  0
  1  2  2  0
  2  3  1  0
  2 21  1  0
  3  4  2  0
  4  5  1  0
  6  5  1  6
  5 19  1  0
  6  7  1  0
  6 17  1  0
  7  8  1  0
  8  9  1  6
  8 11  1  0
  9 10  1  0
 11 12  1  1
 11 17  1  0
 12 13  1  0
 13 14  1  0
 13 15  1  0
 13 16  1  0
 17 18  1  1
 19 20  2  0
 19 21  1  0
M  END
