
     RDKit          3D

  8  7  0  0  0  0  0  0  0  0999 V2000
   -1.5930    0.7520   -1.0350 O   0  0  0  0  0  0  0  0  0  0  0  0
   -1.6890    0.0260   -0.0140 C   0  0  0  0  0  0  0  0  0  0  0  0
   -2.8590    0.1200    0.7210 O   0  0  0  0  0  0  0  0  0  0  0  0
   -0.6400   -0.8290    0.3350 O   0  0  0  0  0  0  0  0  0  0  0  0
    0.4520   -0.8200   -0.4780 O   0  0  0  0  0  0  0  0  0  0  0  0
    1.6830   -0.3660   -0.0210 C   0  0  0  0  0  0  0  0  0  0  0  0
    1.7160    0.0300    1.1760 O   0  0  0  0  0  0  0  0  0  0  0  0
    2.8130   -0.3480   -0.8380 O   0  0  0  0  0  0  0  0  0  0  0  0
  1  2  2  0
  2  3  1  0
  2  4  1  0
  4  5  1  0
  5  6  1  0
  6  7  2  0
  6  8  1  0
M  END
