
     RDKit          3D

  8  8  0  0  0  0  0  0  0  0999 V2000
   -1.3070   -0.3580   -1.2970 C   0  0  0  0  0  0  0  0  0  0  0  0
   -0.3450   -0.2090   -0.4040 C   0  0  0  0  0  0  0  0  0  0  0  0
    0.7940   -1.0940   -0.1960 C   0  0  0  0  0  0  0  0  0  0  0  0
    1.5210   -0.5790    0.8010 C   0  0  0  0  0  0  0  0  0  0  0  0
    2.7070   -1.1000    1.3370 O   0  0  0  0  0  0  0  0  0  0  0  0
    0.8930    0.6120    1.2500 N   0  0  0  0  0  0  0  0  0  0  0  0
   -0.1840    0.8560    0.5790 C   0  0  0  0  0  0  0  0  0  0  0  0
   -1.0160    1.9430    0.7810 O   0  0  0  0  0  0  0  0  0  0  0  0
  1  2  2  0
  2  3  1  0
  2  7  1  0
  3  4  2  0
  4  5  1  0
  4  6  1  0
  6  7  2  0
  7  8  1  0
M  CHG  1   5  -1
M  END
