
     RDKit          3D

  8  8  0  0  0  0  0  0  0  0999 V2000
   -2.4870   -1.4050    0.3560 O   0  0  0  0  0  0  0  0  0  0  0  0
   -1.1410   -1.4090    0.0680 C   0  0  0  0  0  0  0  0  0  0  0  0
   -0.3980   -0.3160    0.0260 C   0  0  0  0  0  0  0  0  0  0  0  0
   -0.8720    1.0370    0.2720 C   0  0  0  0  0  0  0  0  0  0  0  0
    0.1910    1.8370    0.1310 C   0  0  0  0  0  0  0  0  0  0  0  0
    1.3220    1.0390   -0.1960 N   0  0  0  0  0  0  0  0  0  0  0  0
    1.0230   -0.2130   -0.2660 C   0  0  0  0  0  0  0  0  0  0  0  0
    1.8660   -1.2590   -0.5590 O   0  0  0  0  0  0  0  0  0  0  0  0
  1  2  1  0
  2  3  2  3
  3  4  1  0
  3  7  1  0
  4  5  2  0
  5  6  1  0
  6  7  2  0
  7  8  1  0
M  CHG  1   1  -1
M  END
