
     RDKit          3D

  8  8  0  0  0  0  0  0  0  0999 V2000
    2.4210   -1.2440   -0.2950 O   0  0  0  0  0  0  0  0  0  0  0  0
    1.8800   -0.1220   -0.2530 C   0  0  0  0  0  0  0  0  0  0  0  0
    2.6540    1.0030   -0.3910 O   0  0  0  0  0  0  0  0  0  0  0  0
    0.4380   -0.0090   -0.0600 C   0  0  0  0  0  0  0  0  0  0  0  0
   -0.2950    1.0800    0.0090 C   0  0  0  0  0  0  0  0  0  0  0  0
   -1.7060    0.7810    0.2100 C   0  0  0  0  0  0  0  0  0  0  0  0
   -1.8000   -0.5040    0.2600 N   0  0  0  0  0  0  0  0  0  0  0  0
   -0.5190   -1.1410    0.1030 C   0  0  0  0  0  0  0  0  0  0  0  0
  1  2  2  0
  2  3  1  0
  2  4  1  0
  4  5  2  0
  4  8  1  0
  5  6  1  0
  6  7  2  0
  7  8  1  0
M  CHG  1   3  -1
M  END
