
     RDKit          3D

  8  8  0  0  0  0  0  0  0  0999 V2000
   -2.6040    0.6880    1.4750 O   0  0  0  0  0  0  0  0  0  0  0  0
   -1.4420    1.2260    1.0850 N   0  0  0  0  0  0  0  0  0  0  0  0
   -0.4920    0.3970    0.3730 C   0  0  0  0  0  0  0  0  0  0  0  0
    0.5400    0.9500   -0.2260 C   0  0  0  0  0  0  0  0  0  0  0  0
    1.5170    0.1690   -0.9500 C   0  0  0  0  0  0  0  0  0  0  0  0
    1.3950   -1.1390   -1.0290 C   0  0  0  0  0  0  0  0  0  0  0  0
    0.3120   -1.7150   -0.3990 O   0  0  0  0  0  0  0  0  0  0  0  0
   -0.6880   -1.0660    0.3230 C   0  0  0  0  0  0  0  0  0  0  0  0
  1  2  1  0
  2  3  1  0
  3  4  2  0
  3  8  1  0
  4  5  1  0
  5  6  2  0
  6  7  1  0
  7  8  1  0
M  CHG  1   1  -1
M  END
