
     RDKit          3D

  8  8  0  0  0  0  0  0  0  0999 V2000
    2.8450   -0.5900   -1.1320 O   0  0  0  0  0  0  0  0  0  0  0  0
    2.1120   -0.6410   -0.0150 N   0  0  0  0  0  0  0  0  0  0  0  0
    0.7650   -0.2060    0.0030 C   0  0  0  0  0  0  0  0  0  0  0  0
   -0.2580   -1.0470    0.0110 C   0  0  0  0  0  0  0  0  0  0  0  0
   -1.6820   -0.6370    0.0290 C   0  0  0  0  0  0  0  0  0  0  0  0
   -1.8270    0.7630    0.0370 O   0  0  0  0  0  0  0  0  0  0  0  0
   -0.7900    1.6670    0.0290 C   0  0  0  0  0  0  0  0  0  0  0  0
    0.4450    1.2220    0.0130 C   0  0  0  0  0  0  0  0  0  0  0  0
  1  2  1  0
  2  3  1  0
  3  4  2  0
  3  8  1  0
  4  5  1  0
  5  6  1  0
  6  7  1  0
  7  8  2  0
M  CHG  1   1  -1
M  END
