
     RDKit          3D

 20 21  0  0  0  0  0  0  0  0999 V2000
    1.7150    2.6790    1.9460 O   0  0  0  0  0  0  0  0  0  0  0  0
    1.9210    2.3550    0.7250 C   0  0  0  0  0  0  0  0  0  0  0  0
    3.2030    1.6520    0.4650 C   0  0  0  0  0  0  0  0  0  0  0  0
    3.3460    0.2630    1.5840 S   0  0  0  0  0  0  0  0  0  0  0  0
    3.9760   -1.2120    0.8440 C   0  0  0  0  0  0  0  0  0  0  0  0
    5.2160   -1.4780    0.9250 O   0  0  0  0  0  0  0  0  0  0  0  0
    3.0880   -2.0880    0.1640 N   0  0  0  0  0  0  0  0  0  0  0  0
    1.9340   -1.5320   -0.5290 C   0  0  0  0  0  0  0  0  0  0  0  0
    0.6780   -2.1570   -0.0340 C   0  0  0  0  0  0  0  0  0  0  0  0
   -0.3740   -1.4810    0.4000 C   0  0  0  0  0  0  0  0  0  0  0  0
   -0.4490    0.0070    0.4530 C   0  0  2  0  0  0  0  0  0  0  0  0
   -1.6920    0.4480    1.0240 N   0  0  0  0  0  0  0  0  0  0  0  0
   -2.9660    0.1100    0.4300 C   0  0  0  0  0  0  0  0  0  0  0  0
   -4.0640    0.7650    0.2980 C   0  0  0  0  0  0  0  0  0  0  0  0
   -4.7420   -0.3110   -0.3770 C   0  0  0  0  0  0  0  0  0  0  0  0
   -3.4930   -1.0670   -0.2300 C   0  0  0  0  0  0  0  0  0  0  0  0
   -0.2240    0.5860   -0.9010 C   0  0  0  0  0  0  0  0  0  0  0  0
   -0.5670   -0.1280   -1.8780 O   0  0  0  0  0  0  0  0  0  0  0  0
    0.3360    1.8510   -1.1430 N   0  0  0  0  0  0  0  0  0  0  0  0
    0.9410    2.6890   -0.2140 N   0  0  0  0  0  0  0  0  0  0  0  0
  1  2  2  0
  2  3  1  0
  2 20  1  0
  3  4  1  0
  4  5  1  0
  5  6  2  0
  5  7  1  0
  7  8  1  0
  8  9  1  0
  9 10  2  0
 10 11  1  0
 11 12  1  6
 11 17  1  0
 12 13  1  0
 13 14  2  0
 13 16  1  0
 14 15  1  0
 15 16  1  0
 17 18  2  0
 17 19  1  0
 19 20  1  0
M  END
