
     RDKit          3D

  8  8  0  0  0  0  0  0  0  0999 V2000
    2.8110   -0.6710   -0.0180 O   0  0  0  0  0  0  0  0  0  0  0  0
    2.0130    0.2580    0.2170 C   0  0  0  0  0  0  0  0  0  0  0  0
    2.5310    1.4650    0.6280 O   0  0  0  0  0  0  0  0  0  0  0  0
    0.5860    0.0640    0.0600 C   0  0  0  0  0  0  0  0  0  0  0  0
   -0.0800   -1.0910   -0.3450 C   0  0  0  0  0  0  0  0  0  0  0  0
   -1.4400   -0.8500   -0.3630 C   0  0  0  0  0  0  0  0  0  0  0  0
   -1.5770    0.4620    0.0370 C   0  0  0  0  0  0  0  0  0  0  0  0
   -0.3640    0.9840    0.2820 N   0  0  0  0  0  0  0  0  0  0  0  0
  1  2  2  0
  2  3  1  0
  2  4  1  0
  4  5  2  0
  4  8  1  0
  5  6  1  0
  6  7  2  0
  7  8  1  0
M  CHG  1   3  -1
M  END
