
     RDKit          3D

  8  8  0  0  0  0  0  0  0  0999 V2000
   -0.2060    2.5270    0.5090 O   0  0  0  0  0  0  0  0  0  0  0  0
    0.4360    1.3270    0.2960 C   0  0  0  0  0  0  0  0  0  0  0  0
    1.6960    1.1590    0.4800 N   0  0  0  0  0  0  0  0  0  0  0  0
    2.0220   -0.2120    0.1620 C   0  0  0  0  0  0  0  0  0  0  0  0
    0.7400   -0.8260   -0.2410 C   0  0  0  0  0  0  0  0  0  0  0  0
   -0.2210    0.1110   -0.1580 C   0  0  0  0  0  0  0  0  0  0  0  0
   -1.6260   -0.1470   -0.4870 C   0  0  0  0  0  0  0  0  0  0  0  0
   -2.4970    0.0680    0.5710 O   0  0  0  0  0  0  0  0  0  0  0  0
  1  2  1  0
  2  3  2  0
  2  6  1  0
  3  4  1  0
  4  5  1  0
  5  6  2  0
  6  7  1  0
  7  8  1  0
M  CHG  1   1  -1
M  END
