
     RDKit          3D

 22 23  0  0  0  0  0  0  0  0999 V2000
    4.6300    1.5780   -2.3430 C   0  0  0  0  0  0  0  0  0  0  0  0
    3.5120    1.3840   -1.5090 O   0  0  0  0  0  0  0  0  0  0  0  0
    3.0020    0.1040   -1.2170 C   0  0  0  0  0  0  0  0  0  0  0  0
    3.6280   -0.8510   -1.7630 O   0  0  0  0  0  0  0  0  0  0  0  0
    1.8390   -0.0910   -0.3490 C   0  0  2  0  0  0  0  0  0  0  0  0
    1.5690   -1.4270   -0.2430 O   0  0  0  0  0  0  0  0  0  0  0  0
    0.5470   -1.7250    0.6660 C   0  0  2  0  0  0  0  0  0  0  0  0
    0.2880   -3.1850    0.5350 C   0  0  0  0  0  0  0  0  0  0  0  0
    0.9130   -3.9310   -0.2620 O   0  0  0  0  0  0  0  0  0  0  0  0
   -0.6880   -3.8030    1.3170 O   0  0  0  0  0  0  0  0  0  0  0  0
   -0.6530   -0.9190    0.3380 C   0  0  1  0  0  0  0  0  0  0  0  0
   -1.3410   -1.4040   -0.8930 C   0  0  0  0  0  0  0  0  0  0  0  0
   -1.6500   -0.7610    1.4320 C   0  0  1  0  0  0  0  0  0  0  0  0
   -1.0720   -0.6450    2.6920 O   0  0  0  0  0  0  0  0  0  0  0  0
   -2.3830    0.5220    1.0470 C   0  0  0  0  0  0  0  0  0  0  0  0
   -1.4810    1.2390    0.0640 C   0  0  1  0  0  0  0  0  0  0  0  0
   -1.9400    1.0490   -1.2600 O   0  0  0  0  0  0  0  0  0  0  0  0
   -1.4440    2.7220    0.2790 C   0  0  0  0  0  0  0  0  0  0  0  0
   -2.7620    3.1930    0.0930 O   0  0  0  0  0  0  0  0  0  0  0  0
   -0.1980    0.5430    0.2140 C   0  0  1  0  0  0  0  0  0  0  0  0
    0.3960    0.8440    1.4550 O   0  0  0  0  0  0  0  0  0  0  0  0
    0.7180    0.6620   -0.7780 O   0  0  0  0  0  0  0  0  0  0  0  0
  1  2  1  0
  2  3  1  0
  3  4  2  0
  5  3  1  6
  5  6  1  0
  5 22  1  0
  6  7  1  0
  7  8  1  6
  7 11  1  0
  8  9  2  0
  8 10  1  0
 11 12  1  6
 11 13  1  0
 11 20  1  0
 13 14  1  1
 13 15  1  0
 15 16  1  0
 16 17  1  6
 16 18  1  0
 16 20  1  0
 18 19  1  0
 20 21  1  1
 20 22  1  0
M  END
