
     RDKit          3D

 22 22  0  0  0  0  0  0  0  0999 V2000
   -3.1690    0.4610   -2.4090 O   0  0  0  0  0  0  0  0  0  0  0  0
   -3.5380    1.4550   -1.5140 C   0  0  0  0  0  0  0  0  0  0  0  0
   -3.0160    1.2050   -0.1170 C   0  0  1  0  0  0  0  0  0  0  0  0
   -1.6450    1.1370   -0.0610 O   0  0  0  0  0  0  0  0  0  0  0  0
   -1.1600   -0.1020    0.3420 C   0  0  0  0  0  0  0  0  0  0  0  0
    0.3700    0.0220    0.3430 C   0  0  1  0  0  0  0  0  0  0  0  0
    0.7690    1.0240    1.2280 O   0  0  0  0  0  0  0  0  0  0  0  0
    0.9610   -1.2700    0.8490 C   0  0  0  0  0  0  0  0  0  0  0  0
    2.3350   -1.2140    0.9050 O   0  0  0  0  0  0  0  0  0  0  0  0
    2.9580   -1.0180   -0.2900 C   0  0  1  0  0  0  0  0  0  0  0  0
    3.7850    0.2490   -0.3380 C   0  0  0  0  0  0  0  0  0  0  0  0
    5.1340    0.0100   -0.0890 O   0  0  0  0  0  0  0  0  0  0  0  0
    5.7450   -0.6610   -1.1460 C   0  0  0  0  0  0  0  0  0  0  0  0
    4.7650   -1.6480   -1.7920 C   0  0  1  0  0  0  0  0  0  0  0  0
    5.4870   -2.6510   -2.4050 O   0  0  0  0  0  0  0  0  0  0  0  0
    3.9040   -2.1720   -0.6500 C   0  0  2  0  0  0  0  0  0  0  0  0
    3.1800   -3.2940   -1.0590 O   0  0  0  0  0  0  0  0  0  0  0  0
   -3.5640    2.1400    0.7290 O   0  0  0  0  0  0  0  0  0  0  0  0
   -4.4110    1.6240    1.6840 C   0  0  1  0  0  0  0  0  0  0  0  0
   -3.9990    1.9090    2.9870 O   0  0  0  0  0  0  0  0  0  0  0  0
   -5.8260    2.1330    1.4840 C   0  0  0  0  0  0  0  0  0  0  0  0
   -6.6240    1.5650    2.4920 O   0  0  0  0  0  0  0  0  0  0  0  0
  1  2  1  0
  3  2  1  6
  3  4  1  0
  3 18  1  0
  4  5  1  0
  5  6  1  0
  6  7  1  1
  6  8  1  0
  8  9  1  0
 10  9  1  1
 10 11  1  0
 10 16  1  0
 11 12  1  0
 12 13  1  0
 13 14  1  0
 14 15  1  1
 14 16  1  0
 16 17  1  6
 18 19  1  0
 19 20  1  1
 19 21  1  0
 21 22  1  0
M  END
