
     RDKit          3D

 22 24  0  0  0  0  0  0  0  0999 V2000
    4.3270    1.3770    2.1690 O   0  0  0  0  0  0  0  0  0  0  0  0
    3.4470    0.8990    1.4380 C   0  0  0  0  0  0  0  0  0  0  0  0
    3.1600   -0.4440    1.4800 O   0  0  0  0  0  0  0  0  0  0  0  0
    2.5590   -0.9970    0.3120 C   0  0  2  0  0  0  0  0  0  0  0  0
    3.4790   -0.8590   -0.7260 O   0  0  0  0  0  0  0  0  0  0  0  0
    1.3170   -0.1530   -0.0250 C   0  0  1  0  0  0  0  0  0  0  0  0
    0.7010   -0.8520   -1.2040 C   0  0  2  0  0  0  0  0  0  0  0  0
    1.3260   -0.5190   -2.3900 O   0  0  0  0  0  0  0  0  0  0  0  0
   -0.7770   -0.5880   -1.3600 C   0  0  1  0  0  0  0  0  0  0  0  0
   -1.3000   -1.3300   -2.3820 O   0  0  0  0  0  0  0  0  0  0  0  0
   -1.4000   -1.0580   -0.0380 C   0  0  2  0  0  0  0  0  0  0  0  0
   -2.8850   -1.1220   -0.1010 C   0  0  0  0  0  0  0  0  0  0  0  0
   -3.5710    0.1460    0.3120 C   0  0  0  0  0  0  0  0  0  0  0  0
   -2.7450    1.3700    0.2020 C   0  0  0  0  0  0  0  0  0  0  0  0
   -1.4110    1.2310    0.4040 O   0  0  0  0  0  0  0  0  0  0  0  0
   -1.0190    0.0200    0.9540 C   0  0  1  0  0  0  0  0  0  0  0  0
   -1.6480   -0.2240    2.1780 O   0  0  0  0  0  0  0  0  0  0  0  0
    0.4470   -0.0110    1.1590 C   0  0  2  0  0  0  0  0  0  0  0  0
    0.7550    1.1440    1.9170 O   0  0  0  0  0  0  0  0  0  0  0  0
    1.8580    1.2140   -0.4120 C   0  0  2  0  0  0  0  0  0  0  0  0
    2.5420    1.1560   -1.6240 O   0  0  0  0  0  0  0  0  0  0  0  0
    2.7420    1.7000    0.5710 O   0  0  0  0  0  0  0  0  0  0  0  0
  1  2  2  0
  2  3  1  0
  2 22  1  0
  3  4  1  0
  4  5  1  6
  6  4  1  1
  6  7  1  0
  6 18  1  0
  6 20  1  0
  7  8  1  6
  7  9  1  0
  9 10  1  6
  9 11  1  0
 11 12  1  6
 11 16  1  0
 12 13  1  0
 13 14  1  0
 14 15  1  0
 15 16  1  0
 16 17  1  1
 16 18  1  0
 18 19  1  6
 20 21  1  6
 20 22  1  0
M  END
