
     RDKit          3D

 23 23  0  0  0  0  0  0  0  0999 V2000
   -3.1750    0.2560   -1.6610 O   0  0  0  0  0  0  0  0  0  0  0  0
   -3.5550    0.2540   -0.4700 C   0  0  0  0  0  0  0  0  0  0  0  0
   -4.9170   -0.0190   -0.2830 O   0  0  0  0  0  0  0  0  0  0  0  0
   -2.6610    0.5180    0.6330 C   0  0  2  0  0  0  0  0  0  0  0  0
   -2.7610    1.9420    1.1650 C   0  0  0  0  0  0  0  0  0  0  0  0
   -2.4600    2.8840    0.1860 O   0  0  0  0  0  0  0  0  0  0  0  0
   -1.2690   -0.0280    0.5980 C   0  0  1  0  0  0  0  0  0  0  0  0
   -1.1890   -1.5130    0.5690 C   0  0  0  0  0  0  0  0  0  0  0  0
   -1.7830   -2.2680   -0.5490 C   0  0  1  0  0  0  0  0  0  0  0  0
   -1.2570   -2.0050   -1.8090 O   0  0  0  0  0  0  0  0  0  0  0  0
   -1.4350   -3.6350   -0.3250 O   0  0  0  0  0  0  0  0  0  0  0  0
   -0.4050    0.6290   -0.4510 C   0  0  0  0  0  0  0  0  0  0  0  0
    0.9930    0.5920    0.1930 C   0  0  2  0  0  0  0  0  0  0  0  0
    1.6330    1.9320   -0.1130 C   0  0  0  0  0  0  0  0  0  0  0  0
    0.9070    2.9770    0.5060 O   0  0  0  0  0  0  0  0  0  0  0  0
    1.6870   -0.3960   -0.3980 O   0  0  0  0  0  0  0  0  0  0  0  0
    2.9520   -0.6600   -0.0320 C   0  0  1  0  0  0  0  0  0  0  0  0
    2.9800   -1.9540    0.5090 O   0  0  0  0  0  0  0  0  0  0  0  0
    3.9660   -0.6570   -1.1520 C   0  0  1  0  0  0  0  0  0  0  0  0
    4.0400    0.5670   -1.8050 O   0  0  0  0  0  0  0  0  0  0  0  0
    5.2200   -0.8660   -0.5570 O   0  0  0  0  0  0  0  0  0  0  0  0
    0.6630    0.4470    1.6270 C   0  0  0  0  0  0  0  0  0  0  0  0
   -0.6880    0.3690    1.8150 O   0  0  0  0  0  0  0  0  0  0  0  0
  1  2  2  0
  2  3  1  0
  2  4  1  0
  4  5  1  6
  4  7  1  0
  5  6  1  0
  7  8  1  6
  7 12  1  0
  7 23  1  0
  8  9  1  0
  9 10  1  6
  9 11  1  0
 12 13  1  0
 13 14  1  1
 13 16  1  0
 13 22  1  0
 14 15  1  0
 16 17  1  0
 17 18  1  6
 17 19  1  0
 19 20  1  1
 19 21  1  0
 22 23  1  0
M  END
