
     RDKit          3D

 23 23  0  0  0  0  0  0  0  0999 V2000
   -2.7310    1.5720    0.6180 C   0  0  0  0  0  0  0  0  0  0  0  0
   -1.7570    0.4270    0.5490 C   0  0  1  0  0  0  0  0  0  0  0  0
   -0.9080    0.5900    1.6730 O   0  0  0  0  0  0  0  0  0  0  0  0
   -2.3930   -0.9050    0.6800 C   0  0  1  0  0  0  0  0  0  0  0  0
   -3.1130   -1.0290    2.0060 C   0  0  0  0  0  0  0  0  0  0  0  0
   -3.6960   -2.3130    2.0720 O   0  0  0  0  0  0  0  0  0  0  0  0
   -3.2940   -1.3240   -0.4230 C   0  0  0  0  0  0  0  0  0  0  0  0
   -4.3730   -0.5160   -0.6520 O   0  0  0  0  0  0  0  0  0  0  0  0
   -0.8460    0.5240   -0.6550 C   0  0  2  0  0  0  0  0  0  0  0  0
   -1.5170    0.3800   -1.8590 O   0  0  0  0  0  0  0  0  0  0  0  0
    0.3130   -0.4450   -0.5680 C   0  0  0  0  0  0  0  0  0  0  0  0
    1.5030    0.4640   -0.5870 C   0  0  1  0  0  0  0  0  0  0  0  0
    1.6990    0.9260    0.7130 O   0  0  0  0  0  0  0  0  0  0  0  0
    2.7170   -0.1750   -1.1320 C   0  0  0  0  0  0  0  0  0  0  0  0
    2.7800   -0.6660   -2.2840 O   0  0  0  0  0  0  0  0  0  0  0  0
    3.8380   -0.2340   -0.3320 O   0  0  0  0  0  0  0  0  0  0  0  0
    5.0560   -0.8070   -0.7100 C   0  0  0  0  0  0  0  0  0  0  0  0
    6.0380   -0.6980    0.3850 C   0  0  0  0  0  0  0  0  0  0  0  0
    5.7090   -0.1450    1.4650 O   0  0  0  0  0  0  0  0  0  0  0  0
    7.3280   -1.2190    0.1940 O   0  0  0  0  0  0  0  0  0  0  0  0
    1.0470    1.5010   -1.4160 O   0  0  0  0  0  0  0  0  0  0  0  0
   -0.1280    1.8560   -0.7070 C   0  0  1  0  0  0  0  0  0  0  0  0
   -0.8450    2.8300   -1.3630 O   0  0  0  0  0  0  0  0  0  0  0  0
  2  1  1  6
  2  3  1  0
  2  4  1  0
  2  9  1  0
  4  5  1  1
  4  7  1  0
  5  6  1  0
  7  8  1  0
  9 10  1  6
  9 11  1  0
  9 22  1  0
 11 12  1  0
 12 13  1  1
 12 14  1  0
 12 21  1  0
 14 15  2  0
 14 16  1  0
 16 17  1  0
 17 18  1  0
 18 19  2  0
 18 20  1  0
 21 22  1  0
 22 23  1  6
M  END
