
     RDKit          3D

 23 24  0  0  0  0  0  0  0  0999 V2000
   -4.8570    1.2540   -0.8990 O   0  0  0  0  0  0  0  0  0  0  0  0
   -3.7940    0.5550   -1.4670 C   0  0  0  0  0  0  0  0  0  0  0  0
   -2.8570    0.0740   -0.3950 C   0  0  2  0  0  0  0  0  0  0  0  0
   -1.7770   -0.6320   -0.9220 O   0  0  0  0  0  0  0  0  0  0  0  0
   -0.7450   -0.7440    0.0360 C   0  0  1  0  0  0  0  0  0  0  0  0
    0.0460    0.3740    0.0810 O   0  0  0  0  0  0  0  0  0  0  0  0
    1.3340    0.2190   -0.3380 C   0  0  2  0  0  0  0  0  0  0  0  0
    2.2970    0.6380    0.7190 C   0  0  1  0  0  0  0  0  0  0  0  0
    2.1790   -0.1750    1.9980 C   0  0  0  0  0  0  0  0  0  0  0  0
    2.9400    0.4760    2.9960 O   0  0  0  0  0  0  0  0  0  0  0  0
    3.6040    0.6940    0.3720 O   0  0  0  0  0  0  0  0  0  0  0  0
    3.9720    1.0220   -0.8700 C   0  0  1  0  0  0  0  0  0  0  0  0
    5.2300    0.4620   -1.1800 O   0  0  0  0  0  0  0  0  0  0  0  0
    3.0280    0.6710   -1.9790 C   0  0  2  0  0  0  0  0  0  0  0  0
    3.4010    1.2630   -3.1830 O   0  0  0  0  0  0  0  0  0  0  0  0
    1.6380    1.1070   -1.5550 C   0  0  2  0  0  0  0  0  0  0  0  0
    1.6190    2.4100   -1.1040 O   0  0  0  0  0  0  0  0  0  0  0  0
   -1.3330   -1.1980    1.3220 C   0  0  2  0  0  0  0  0  0  0  0  0
   -0.5230   -2.2160    1.8780 O   0  0  0  0  0  0  0  0  0  0  0  0
   -2.6710   -1.8900    1.0260 C   0  0  2  0  0  0  0  0  0  0  0  0
   -2.4930   -2.7960   -0.0050 O   0  0  0  0  0  0  0  0  0  0  0  0
   -3.6260   -0.8190    0.5710 C   0  0  1  0  0  0  0  0  0  0  0  0
   -4.1300   -0.0520    1.6050 O   0  0  0  0  0  0  0  0  0  0  0  0
  1  2  1  0
  3  2  1  6
  3  4  1  0
  3 22  1  0
  4  5  1  0
  5  6  1  1
  5 18  1  0
  7  6  1  1
  7  8  1  0
  7 16  1  0
  8  9  1  1
  8 11  1  0
  9 10  1  0
 11 12  1  0
 12 13  1  6
 12 14  1  0
 14 15  1  6
 14 16  1  0
 16 17  1  1
 18 19  1  6
 18 20  1  0
 20 21  1  6
 20 22  1  0
 22 23  1  1
M  END
