
     RDKit          3D

 13 12  0  0  0  0  0  0  0  0999 V2000
   -2.4420   -1.7340   -2.3840 C   0  0  0  0  0  0  0  0  0  0  0  0
   -1.5550   -0.7820   -1.9110 O   0  0  0  0  0  0  0  0  0  0  0  0
   -1.3840   -0.5660   -0.5030 C   0  0  0  0  0  0  0  0  0  0  0  0
   -2.1010   -1.2880    0.2950 C   0  0  0  0  0  0  0  0  0  0  0  0
   -2.0970   -1.2390    1.6570 O   0  0  0  0  0  0  0  0  0  0  0  0
   -0.4200    0.4320   -0.0990 C   0  0  0  0  0  0  0  0  0  0  0  0
    0.2230    1.1480   -1.0520 C   0  0  0  0  0  0  0  0  0  0  0  0
    1.2000    2.1900   -0.8850 C   0  0  0  0  0  0  0  0  0  0  0  0
    1.4710    2.5760    0.4200 N   0  0  0  0  0  0  0  0  0  0  0  0
   -0.0670    0.7320    1.1740 O   0  0  0  0  0  0  0  0  0  0  0  0
    0.6820   -0.0490    2.0550 C   0  0  0  0  0  0  0  0  0  0  0  0
    2.0480   -0.4090    1.5070 C   0  0  0  0  0  0  0  0  0  0  0  0
    2.7440   -1.2070    2.4380 O   0  0  0  0  0  0  0  0  0  0  0  0
  1  2  1  0
  2  3  1  0
  3  4  2  3
  3  6  1  0
  4  5  1  0
  6  7  2  3
  6 10  1  0
  7  8  1  0
  8  9  1  0
 10 11  1  0
 11 12  1  0
 12 13  1  0
M  END
