
     RDKit          3D

 33 36  0  0  0  0  0  0  0  0999 V2000
   -2.2550   -4.5620   -0.9090 O   0  0  0  0  0  0  0  0  0  0  0  0
   -1.9630   -3.3490   -0.8830 C   0  0  0  0  0  0  0  0  0  0  0  0
   -1.5660   -2.5290    0.2830 C   0  0  0  0  0  0  0  0  0  0  0  0
   -1.6690   -1.1110   -0.1670 C   0  0  2  0  0  0  0  0  0  0  0  0
   -0.5960   -0.2670    0.2480 N   0  0  0  0  0  0  0  0  0  0  0  0
    0.7200   -0.6020   -0.1680 C   0  0  0  0  0  0  0  0  0  0  0  0
    0.9440   -1.6170   -0.8860 O   0  0  0  0  0  0  0  0  0  0  0  0
    1.8780    0.2260    0.2230 C   0  0  0  0  0  0  0  0  0  0  0  0
    1.6580    1.2350    0.9370 O   0  0  0  0  0  0  0  0  0  0  0  0
    3.1920   -0.0980   -0.1850 N   0  0  0  0  0  0  0  0  0  0  0  0
    4.3320    0.7060    0.1930 C   0  0  2  0  0  0  0  0  0  0  0  0
    5.0180    1.3260   -1.0030 C   0  0  0  0  0  0  0  0  0  0  0  0
    6.2220    2.0910   -0.4680 C   0  0  2  0  0  0  0  0  0  0  0  0
    7.5020    1.3100   -0.6980 C   0  0  0  0  0  0  0  0  0  0  0  0
    7.7030    0.5660    0.6050 C   0  0  0  0  0  0  0  0  0  0  0  0
    6.4480    0.9260    1.3720 C   0  0  1  0  0  0  0  0  0  0  0  0
    6.1820    2.2080    0.9100 O   0  0  0  0  0  0  0  0  0  0  0  0
    5.3490   -0.0490    0.9840 C   0  0  1  0  0  0  0  0  0  0  0  0
    4.8290   -0.6070    2.1440 O   0  0  0  0  0  0  0  0  0  0  0  0
   -3.0050   -0.5730    0.1990 C   0  0  0  0  0  0  0  0  0  0  0  0
   -3.1100    0.5180    0.8130 O   0  0  0  0  0  0  0  0  0  0  0  0
   -4.1600   -1.2550   -0.1210 O   0  0  0  0  0  0  0  0  0  0  0  0
   -5.4690   -0.8290    0.1810 C   0  0  0  0  0  0  0  0  0  0  0  0
   -5.8160    0.4850   -0.4370 C   0  0  1  0  0  0  0  0  0  0  0  0
   -5.7090    0.3730   -1.8190 O   0  0  0  0  0  0  0  0  0  0  0  0
   -7.2440    0.8820   -0.0750 C   0  0  0  0  0  0  0  0  0  0  0  0
   -7.5480    1.8180    0.8070 C   0  0  0  0  0  0  0  0  0  0  0  0
   -8.8390    2.1370    1.0950 C   0  0  0  0  0  0  0  0  0  0  0  0
   -9.7810    1.0060    0.0160 S   0  0  0  0  0  0  0  0  0  0  0  0
   -8.3110    0.2130   -0.7180 C   0  0  0  0  0  0  0  0  0  0  0  0
   -1.6360   -1.1760   -1.6660 C   0  0  0  0  0  0  0  0  0  0  0  0
   -1.3610   -0.1940   -2.3770 O   0  0  0  0  0  0  0  0  0  0  0  0
   -1.9630   -2.4970   -2.0340 N   0  0  0  0  0  0  0  0  0  0  0  0
  1  2  2  0
  2  3  1  0
  2 33  1  0
  3  4  1  0
  4  5  1  1
  4 20  1  0
  4 31  1  0
  5  6  1  0
  6  7  2  0
  6  8  1  0
  8  9  2  0
  8 10  1  0
 11 10  1  6
 11 12  1  0
 11 18  1  0
 13 12  1  1
 13 14  1  0
 13 17  1  0
 14 15  1  0
 16 15  1  6
 16 17  1  0
 16 18  1  0
 18 19  1  1
 20 21  2  0
 20 22  1  0
 22 23  1  0
 23 24  1  0
 24 25  1  6
 24 26  1  0
 26 27  1  0
 26 30  2  0
 27 28  2  0
 28 29  1  0
 29 30  1  0
 31 32  2  0
 31 33  1  0
M  END
