
     RDKit          3D

 33 35  0  0  0  0  0  0  0  0999 V2000
    2.6850    0.0880   -1.7740 C   0  0  0  0  0  0  0  0  0  0  0  0
    2.0790    0.7470   -0.5800 C   0  0  0  0  0  0  0  0  0  0  0  0
    0.7200    0.6920   -0.4360 N   0  0  0  0  0  0  0  0  0  0  0  0
    0.0550    1.2390    0.5830 C   0  0  0  0  0  0  0  0  0  0  0  0
   -1.4260    1.1620    0.7110 C   0  0  0  0  0  0  0  0  0  0  0  0
   -2.0150    0.3880   -0.4240 C   0  0  1  0  0  0  0  0  0  0  0  0
   -1.6630    1.0480   -1.6110 O   0  0  0  0  0  0  0  0  0  0  0  0
   -1.6090   -1.0320   -0.5430 C   0  0  1  0  0  0  0  0  0  0  0  0
   -1.6520   -1.8490    0.7010 C   0  0  0  0  0  0  0  0  0  0  0  0
   -2.9030   -2.6310    0.9050 C   0  0  0  0  0  0  0  0  0  0  0  0
   -4.1440   -1.9800    0.3730 C   0  0  0  0  0  0  0  0  0  0  0  0
   -3.9280   -1.0760   -0.7900 C   0  0  2  0  0  0  0  0  0  0  0  0
   -2.6710   -1.5510   -1.5280 C   0  0  2  0  0  0  0  0  0  0  0  0
   -2.6250   -2.9080   -1.6840 O   0  0  0  0  0  0  0  0  0  0  0  0
   -3.5180    0.3300   -0.3890 C   0  0  2  0  0  0  0  0  0  0  0  0
   -4.0570    1.1660   -1.3960 O   0  0  0  0  0  0  0  0  0  0  0  0
   -4.1030    0.7700    0.8370 N   0  0  0  0  0  0  0  0  0  0  0  0
   -5.5310    0.8260    0.8960 C   0  0  0  0  0  0  0  0  0  0  0  0
   -6.2320    0.5020   -0.0920 O   0  0  0  0  0  0  0  0  0  0  0  0
   -6.2060    1.2390    2.0380 O   0  0  0  0  0  0  0  0  0  0  0  0
   -7.9280    1.3120    2.1240 S   0  0  0  0  0  0  0  0  0  0  0  0
   -8.4270    2.7540    2.1940 O   0  0  0  0  0  0  0  0  0  0  0  0
    0.8170    1.8980    1.5410 C   0  0  0  0  0  0  0  0  0  0  0  0
    2.1750    1.9640    1.4180 C   0  0  0  0  0  0  0  0  0  0  0  0
    2.8760    1.3810    0.3320 C   0  0  0  0  0  0  0  0  0  0  0  0
    4.1870    1.4770    0.2660 O   0  0  0  0  0  0  0  0  0  0  0  0
    5.3120    1.2080   -0.3740 C   0  0  1  0  0  0  0  0  0  0  0  0
    5.9430    2.5410   -0.8600 C   0  0  0  0  0  0  0  0  0  0  0  0
    6.3820    0.4730    0.4300 C   0  0  0  0  0  0  0  0  0  0  0  0
    5.8370   -0.7630    0.8470 O   0  0  0  0  0  0  0  0  0  0  0  0
    6.5570   -1.6730    1.6020 C   0  0  0  0  0  0  0  0  0  0  0  0
    5.9230   -2.9040    1.9810 N   0  0  0  0  0  0  0  0  0  0  0  0
    7.7250   -1.4220    1.9390 O   0  0  0  0  0  0  0  0  0  0  0  0
  1  2  1  0
  2  3  2  0
  2 25  1  0
  3  4  1  0
  4  5  1  0
  4 23  2  0
  5  6  1  0
  6  7  1  6
  6  8  1  0
  6 15  1  0
  8  9  1  1
  8 13  1  0
  9 10  1  0
 10 11  1  0
 12 11  1  1
 12 13  1  0
 12 15  1  0
 13 14  1  1
 15 16  1  6
 15 17  1  0
 17 18  1  0
 18 19  2  0
 18 20  1  0
 20 21  1  0
 21 22  2  0
 23 24  1  0
 24 25  2  0
 25 26  1  0
 26 27  1  0
 27 28  1  1
 27 29  1  0
 29 30  1  0
 30 31  1  0
 31 32  1  0
 31 33  2  0
M  END
