
     RDKit          3D

 33 36  0  0  0  0  0  0  0  0999 V2000
    2.0490    2.7610   -2.4970 N   0  0  0  0  0  0  0  0  0  0  0  0
    1.0150    2.8100   -1.5230 C   0  0  0  0  0  0  0  0  0  0  0  0
   -0.1450    3.0970   -1.9260 O   0  0  0  0  0  0  0  0  0  0  0  0
    1.2900    2.5320   -0.0710 C   0  0  2  0  0  0  0  0  0  0  0  0
    2.5860    2.2300    0.1760 O   0  0  0  0  0  0  0  0  0  0  0  0
    3.4220    1.1980   -0.0560 C   0  0  0  0  0  0  0  0  0  0  0  0
    4.7530    1.2940    0.4060 C   0  0  0  0  0  0  0  0  0  0  0  0
    5.6630    0.2970    0.2140 C   0  0  0  0  0  0  0  0  0  0  0  0
    5.2500   -0.8320   -0.4540 C   0  0  0  0  0  0  0  0  0  0  0  0
    3.9570   -0.9410   -0.9110 C   0  0  0  0  0  0  0  0  0  0  0  0
    3.0220    0.0650   -0.7230 C   0  0  0  0  0  0  0  0  0  0  0  0
    1.7120   -0.0940   -1.2120 O   0  0  0  0  0  0  0  0  0  0  0  0
    6.2480   -1.9080   -0.6560 C   0  0  0  0  0  0  0  0  0  0  0  0
    7.0740   -2.0200    0.5890 C   0  0  0  0  0  0  0  0  0  0  0  0
    7.8020   -0.7330    0.9150 C   0  0  0  0  0  0  0  0  0  0  0  0
    6.9890    0.4010    0.6770 O   0  0  0  0  0  0  0  0  0  0  0  0
    0.2580    1.5750    0.4260 C   0  0  0  0  0  0  0  0  0  0  0  0
   -0.8790    1.1860   -0.1770 N   0  0  0  0  0  0  0  0  0  0  0  0
   -1.5100    0.3180    0.6140 C   0  0  0  0  0  0  0  0  0  0  0  0
   -2.7970   -0.3810    0.3770 C   0  0  2  0  0  0  0  0  0  0  0  0
   -3.0430   -1.2630    1.4110 O   0  0  0  0  0  0  0  0  0  0  0  0
   -2.7380   -1.2280   -0.9020 C   0  0  0  0  0  0  0  0  0  0  0  0
   -4.3620   -2.0280   -1.0270 S   0  0  0  0  0  0  0  0  0  0  0  0
   -5.5060   -1.4250    0.2330 C   0  0  2  0  0  0  0  0  0  0  0  0
   -6.9190   -1.5810   -0.3430 C   0  0  0  0  0  0  0  0  0  0  0  0
   -7.0500   -0.8390   -1.5140 O   0  0  0  0  0  0  0  0  0  0  0  0
   -5.2570   -0.0210    0.6570 C   0  0  1  0  0  0  0  0  0  0  0  0
   -5.4540    0.1710    2.1530 C   0  0  0  0  0  0  0  0  0  0  0  0
   -5.2200    1.4770    2.5340 O   0  0  0  0  0  0  0  0  0  0  0  0
   -3.9470    0.5610    0.2090 C   0  0  2  0  0  0  0  0  0  0  0  0
   -4.1040    0.8880   -1.1580 O   0  0  0  0  0  0  0  0  0  0  0  0
   -0.7290    0.1970    1.6970 N   0  0  0  0  0  0  0  0  0  0  0  0
    0.3100    0.9450    1.5700 O   0  0  0  0  0  0  0  0  0  0  0  0
  1  2  1  0
  2  3  2  0
  2  4  1  0
  4  5  1  6
  4 17  1  0
  5  6  1  0
  6  7  2  0
  6 11  1  0
  7  8  1  0
  8  9  2  0
  8 16  1  0
  9 10  1  0
  9 13  1  0
 10 11  2  0
 11 12  1  0
 13 14  1  0
 14 15  1  0
 15 16  1  0
 17 18  2  0
 17 33  1  0
 18 19  1  0
 19 20  1  0
 19 32  2  0
 20 21  1  1
 20 22  1  0
 20 30  1  0
 22 23  1  0
 23 24  1  0
 24 25  1  6
 24 27  1  0
 25 26  1  0
 27 28  1  1
 27 30  1  0
 28 29  1  0
 30 31  1  6
 32 33  1  0
M  END
