
     RDKit          3D

 35 38  0  0  0  0  0  0  0  0999 V2000
    5.8970    4.2610   -1.2170 C   0  0  0  0  0  0  0  0  0  0  0  0
    5.0330    3.1080   -0.7630 C   0  0  0  0  0  0  0  0  0  0  0  0
    4.1640    3.4980    0.3060 N   0  0  0  0  0  0  0  0  0  0  0  0
    3.5820    2.3980    1.0420 C   0  0  1  0  0  0  0  0  0  0  0  0
    2.9450    1.4780    0.0650 C   0  0  0  0  0  0  0  0  0  0  0  0
    2.3080    0.3080    0.6400 N   0  0  0  0  0  0  0  0  0  0  0  0
    1.2340    0.4340    1.5430 C   0  0  0  0  0  0  0  0  0  0  0  0
    0.9090    1.6490    1.8010 O   0  0  0  0  0  0  0  0  0  0  0  0
    0.5160   -0.6510    2.1730 C   0  0  0  0  0  0  0  0  0  0  0  0
    0.3520   -0.5310    3.5720 C   0  0  0  0  0  0  0  0  0  0  0  0
   -0.2660   -1.5270    4.2770 C   0  0  0  0  0  0  0  0  0  0  0  0
   -0.7180   -2.6150    3.6450 N   0  0  0  0  0  0  0  0  0  0  0  0
   -0.5910   -2.7870    2.3020 C   0  0  0  0  0  0  0  0  0  0  0  0
    0.0390   -1.7800    1.5700 C   0  0  0  0  0  0  0  0  0  0  0  0
    0.1590   -1.9330    0.1270 C   0  0  2  0  0  0  0  0  0  0  0  0
   -0.6520   -0.8570   -0.5590 C   0  0  0  0  0  0  0  0  0  0  0  0
   -0.0860   -0.0470   -1.3250 O   0  0  0  0  0  0  0  0  0  0  0  0
   -2.0440   -0.7780   -0.3270 N   0  0  0  0  0  0  0  0  0  0  0  0
   -2.8820    0.2470   -0.9660 C   0  0  2  0  0  0  0  0  0  0  0  0
   -3.5870    1.1060    0.0280 C   0  0  0  0  0  0  0  0  0  0  0  0
   -5.0860    0.9850    0.0060 C   0  0  0  0  0  0  0  0  0  0  0  0
   -5.7190    1.7030   -1.1330 C   0  0  0  0  0  0  0  0  0  0  0  0
   -4.8370    1.8230   -2.3470 C   0  0  0  0  0  0  0  0  0  0  0  0
   -4.4390    0.4900   -2.9170 C   0  0  1  0  0  0  0  0  0  0  0  0
   -3.4610    0.7880   -4.0620 C   0  0  0  0  0  0  0  0  0  0  0  0
   -3.8100   -0.4380   -1.9410 C   0  0  0  0  0  0  0  0  0  0  0  0
   -0.4120   -3.2060   -0.3770 C   0  0  0  0  0  0  0  0  0  0  0  0
   -0.3360   -3.4940   -1.8640 C   0  0  0  0  0  0  0  0  0  0  0  0
   -0.9860   -4.1230    0.3630 C   0  0  0  0  0  0  0  0  0  0  0  0
   -1.5340   -5.3770   -0.2420 C   0  0  0  0  0  0  0  0  0  0  0  0
   -0.7970   -6.5420    0.3840 C   0  0  0  0  0  0  0  0  0  0  0  0
   -1.0830   -3.9220    1.7090 O   0  0  0  0  0  0  0  0  0  0  0  0
    4.6910    1.7520    1.8390 C   0  0  1  0  0  0  0  0  0  0  0  0
    5.3520    2.7230    2.8280 C   0  0  0  0  0  0  0  0  0  0  0  0
    4.5650    1.5330    3.2850 C   0  0  0  0  0  0  0  0  0  0  0  0
  1  2  1  0
  2  3  1  0
  3  4  1  0
  4  5  1  6
  4 33  1  0
  5  6  1  0
  6  7  1  0
  7  8  2  0
  7  9  1  0
  9 10  2  0
  9 14  1  0
 10 11  1  0
 11 12  2  0
 12 13  1  0
 13 14  2  0
 13 32  1  0
 14 15  1  0
 15 16  1  6
 15 27  1  0
 16 17  2  0
 16 18  1  0
 19 18  1  1
 19 20  1  0
 19 26  1  0
 20 21  1  0
 21 22  1  0
 22 23  1  0
 23 24  1  0
 24 25  1  6
 24 26  1  0
 27 28  1  0
 27 29  2  0
 29 30  1  0
 29 32  1  0
 30 31  1  0
 33 34  1  1
 33 35  1  0
 34 35  1  0
M  CHG  1   3   1
M  END
