
     RDKit          3D

 33 35  0  0  0  0  0  0  0  0999 V2000
    4.5720    3.9350    0.2510 C   0  0  0  0  0  0  0  0  0  0  0  0
    3.3660    3.2930   -0.2480 C   0  0  0  0  0  0  0  0  0  0  0  0
    2.4530    3.7550   -1.0540 C   0  0  0  0  0  0  0  0  0  0  0  0
    1.3740    2.9020   -1.3610 C   0  0  0  0  0  0  0  0  0  0  0  0
    1.3240    1.6910   -0.8230 C   0  0  0  0  0  0  0  0  0  0  0  0
    0.2700    0.6920   -1.0430 C   0  0  0  0  0  0  0  0  0  0  0  0
    0.2810   -0.4480   -0.4010 C   0  0  0  0  0  0  0  0  0  0  0  0
    1.2900   -0.8370    0.5760 C   0  0  0  0  0  0  0  0  0  0  0  0
    1.7830    0.0220    1.3360 O   0  0  0  0  0  0  0  0  0  0  0  0
    1.7270   -2.2450    0.6740 C   0  0  2  0  0  0  0  0  0  0  0  0
    3.2350   -2.2770    0.6950 C   0  0  0  0  0  0  0  0  0  0  0  0
    3.7850   -3.6540    0.8480 C   0  0  0  0  0  0  0  0  0  0  0  0
    3.0070   -4.6040    1.0210 O   0  0  0  0  0  0  0  0  0  0  0  0
    5.1460   -3.8350    0.7930 O   0  0  0  0  0  0  0  0  0  0  0  0
    1.3110   -2.9110   -0.6150 C   0  0  0  0  0  0  0  0  0  0  0  0
    2.0930   -3.6950   -1.1880 O   0  0  0  0  0  0  0  0  0  0  0  0
    0.0460   -2.6670   -1.1970 N   0  0  0  0  0  0  0  0  0  0  0  0
   -0.7370   -1.5500   -0.6130 C   0  0  1  0  0  0  0  0  0  0  0  0
   -1.2690   -2.0710    0.6110 N   0  0  0  0  0  0  0  0  0  0  0  0
   -2.1740   -1.4010    1.4490 C   0  0  0  0  0  0  0  0  0  0  0  0
   -1.8980   -1.2280    2.6880 O   0  0  0  0  0  0  0  0  0  0  0  0
   -3.4930   -0.8420    1.0260 C   0  0  1  0  0  0  0  0  0  0  0  0
   -4.4860   -2.0080    1.1020 C   0  0  0  0  0  0  0  0  0  0  0  0
   -3.8920    0.1850    1.8790 O   0  0  0  0  0  0  0  0  0  0  0  0
   -4.0070    1.3590    1.1730 C   0  0  0  0  0  0  0  0  0  0  0  0
   -2.7220    1.6640    0.3970 C   0  0  2  0  0  0  0  0  0  0  0  0
   -2.2240    2.9060    0.8380 O   0  0  0  0  0  0  0  0  0  0  0  0
   -3.0100    1.7790   -1.0550 C   0  0  0  0  0  0  0  0  0  0  0  0
   -2.1530    1.0080   -1.9270 N   0  0  0  0  0  0  0  0  0  0  0  0
   -0.7630    1.0260   -2.0490 C   0  0  0  0  0  0  0  0  0  0  0  0
   -0.2920    1.3840   -3.2110 O   0  0  0  0  0  0  0  0  0  0  0  0
    2.8780    1.6170    0.0310 S   0  0  0  0  0  0  0  0  0  0  0  0
    3.8530    0.6870   -0.7290 O   0  0  0  0  0  0  0  0  0  0  0  0
  1  2  1  0
  2  3  2  0
 32  2  1  6
  3  4  1  0
  4  5  2  0
  5  6  1  0
  5 32  1  0
  6  7  2  0
  6 30  1  0
  7  8  1  0
  7 18  1  0
  8  9  2  0
  8 10  1  0
 10 11  1  6
 10 15  1  0
 11 12  1  0
 12 13  2  0
 12 14  1  0
 15 16  2  0
 15 17  1  0
 18 17  1  1
 18 19  1  0
 19 20  1  0
 20 21  2  0
 20 22  1  0
 22 23  1  1
 22 24  1  0
 24 25  1  0
 25 26  1  0
 26 27  1  1
 26 28  1  0
 28 29  1  0
 29 30  1  0
 30 31  2  0
 32 33  2  0
M  END
