
     RDKit          3D

 35 38  0  0  0  0  0  0  0  0999 V2000
    1.4790    4.9810   -0.0080 C   0  0  0  0  0  0  0  0  0  0  0  0
    1.7100    3.7280    0.8050 C   0  0  2  0  0  0  0  0  0  0  0  0
    3.1350    3.5620    1.1380 C   0  0  0  0  0  0  0  0  0  0  0  0
    0.9800    2.5450    0.3690 N   0  0  0  0  0  0  0  0  0  0  0  0
   -0.1800    2.1080    1.1210 C   0  0  0  0  0  0  0  0  0  0  0  0
    0.0180    2.0790    2.3680 O   0  0  0  0  0  0  0  0  0  0  0  0
   -1.4960    1.7190    0.6230 C   0  0  0  0  0  0  0  0  0  0  0  0
   -1.6580    0.6760   -0.2920 N   0  0  0  0  0  0  0  0  0  0  0  0
   -1.9330   -0.6580    0.0890 C   0  0  2  0  0  0  0  0  0  0  0  0
   -3.3700   -1.0870   -0.2140 C   0  0  2  0  0  0  0  0  0  0  0  0
   -4.4110   -0.3120    0.5180 C   0  0  0  0  0  0  0  0  0  0  0  0
   -5.6150   -1.1410    0.6960 N   0  0  0  0  0  0  0  0  0  0  0  0
   -6.7560   -0.3500    1.0370 C   0  0  0  0  0  0  0  0  0  0  0  0
   -5.8170   -2.0390   -0.3840 C   0  0  1  0  0  0  0  0  0  0  0  0
   -6.2050   -1.3600   -1.6750 C   0  0  0  0  0  0  0  0  0  0  0  0
   -4.6380   -2.9410   -0.5410 C   0  0  0  0  0  0  0  0  0  0  0  0
   -3.5800   -2.4380    0.1680 O   0  0  0  0  0  0  0  0  0  0  0  0
   -1.4620   -1.1480    1.4090 C   0  0  0  0  0  0  0  0  0  0  0  0
   -0.6200   -2.3610    1.4000 C   0  0  0  0  0  0  0  0  0  0  0  0
    0.4780   -2.6330    0.7460 C   0  0  0  0  0  0  0  0  0  0  0  0
    1.2610   -1.8320   -0.2090 C   0  0  0  0  0  0  0  0  0  0  0  0
    1.6230   -0.4400    0.2950 C   0  0  1  0  0  0  0  0  0  0  0  0
    2.7340   -0.5430    1.2890 C   0  0  0  0  0  0  0  0  0  0  0  0
    3.9660   -1.0980    0.9130 N   0  0  0  0  0  0  0  0  0  0  0  0
    4.8750   -0.5320    0.0130 C   0  0  0  0  0  0  0  0  0  0  0  0
    4.7150    0.5690   -0.5600 O   0  0  0  0  0  0  0  0  0  0  0  0
    6.1270   -1.2930   -0.2890 C   0  0  2  0  0  0  0  0  0  0  0  0
    6.1040   -2.7790   -0.2350 C   0  0  0  0  0  0  0  0  0  0  0  0
    6.7640   -1.9880    0.8870 C   0  0  0  0  0  0  0  0  0  0  0  0
    1.7690    0.4850   -0.8280 C   0  0  0  0  0  0  0  0  0  0  0  0
    2.2180   -0.0430   -2.0390 C   0  0  0  0  0  0  0  0  0  0  0  0
    2.3940    0.7080   -3.1720 C   0  0  0  0  0  0  0  0  0  0  0  0
    2.1180    2.0500   -3.1290 C   0  0  0  0  0  0  0  0  0  0  0  0
    1.6730    2.5690   -1.9280 C   0  0  0  0  0  0  0  0  0  0  0  0
    1.4860    1.8360   -0.7740 C   0  0  0  0  0  0  0  0  0  0  0  0
  2  1  1  6
  2  3  1  0
  2  4  1  0
  4  5  1  0
  4 35  1  0
  5  6  2  0
  5  7  1  0
  7  8  1  0
  8  9  1  0
  9 10  1  0
  9 18  1  1
 10 11  1  1
 10 17  1  0
 11 12  1  0
 12 13  1  0
 12 14  1  0
 14 15  1  6
 14 16  1  0
 16 17  1  0
 18 19  1  0
 19 20  2  0
 20 21  1  0
 21 22  1  0
 22 23  1  6
 22 30  1  0
 23 24  1  0
 24 25  1  0
 25 26  2  0
 27 25  1  1
 27 28  1  0
 27 29  1  0
 28 29  1  0
 30 31  2  0
 30 35  1  0
 31 32  1  0
 32 33  2  0
 33 34  1  0
 34 35  2  0
M  CHG  1   8   1
M  END
