
     RDKit          3D

 34 35  0  0  0  0  0  0  0  0999 V2000
   -3.8690   -5.0130   -0.5120 N   0  0  0  0  0  0  0  0  0  0  0  0
   -3.4120   -4.8700    0.8210 C   0  0  0  0  0  0  0  0  0  0  0  0
   -4.2630   -5.2410    1.8820 N   0  0  0  0  0  0  0  0  0  0  0  0
   -2.2230   -4.4140    1.0550 N   0  0  0  0  0  0  0  0  0  0  0  0
   -1.4540   -4.0860   -0.1370 C   0  0  0  0  0  0  0  0  0  0  0  0
   -1.7730   -2.6990   -0.6720 C   0  0  0  0  0  0  0  0  0  0  0  0
   -1.3270   -1.6890    0.3510 C   0  0  0  0  0  0  0  0  0  0  0  0
   -1.5490   -0.2890    0.0970 C   0  0  2  0  0  0  0  0  0  0  0  0
   -1.1530    0.4270   -1.0330 N   0  0  0  0  0  0  0  0  0  0  0  0
   -1.5670    2.0180   -1.0980 S   0  0  1  0  0  0  0  0  0  0  0  0
   -0.8780    2.8030    0.0640 O   0  0  0  0  0  0  0  0  0  0  0  0
   -0.9530    2.7220   -2.3370 O   0  0  0  0  0  0  0  0  0  0  0  0
   -3.2020    2.5450   -1.0610 C   0  0  0  0  0  0  0  0  0  0  0  0
   -4.3100    1.7760   -0.9150 C   0  0  0  0  0  0  0  0  0  0  0  0
   -5.5790    2.3650   -0.8220 C   0  0  0  0  0  0  0  0  0  0  0  0
   -5.6970    3.7490   -0.8790 C   0  0  0  0  0  0  0  0  0  0  0  0
   -4.5900    4.5480   -1.0290 C   0  0  0  0  0  0  0  0  0  0  0  0
   -4.7550    6.0220   -1.0920 C   0  0  1  0  0  0  0  0  0  0  0  0
   -4.7980    6.4670   -2.4010 F   0  0  0  0  0  0  0  0  0  0  0  0
   -5.7850    6.5070   -0.3440 F   0  0  0  0  0  0  0  0  0  0  0  0
   -3.5760    6.5970   -0.5760 F   0  0  0  0  0  0  0  0  0  0  0  0
   -3.3790    3.9290   -1.1170 C   0  0  0  0  0  0  0  0  0  0  0  0
   -0.4610    0.3620    1.1220 C   0  0  0  0  0  0  0  0  0  0  0  0
   -0.9940    0.9880    2.0340 O   0  0  0  0  0  0  0  0  0  0  0  0
    0.8900    0.1830    0.8710 N   0  0  0  0  0  0  0  0  0  0  0  0
    1.5370   -0.4900   -0.2040 C   0  0  0  0  0  0  0  0  0  0  0  0
    2.9180   -0.9080    0.1370 C   0  0  0  0  0  0  0  0  0  0  0  0
    3.7310    0.0890    0.7510 N   0  0  1  0  0  0  0  0  0  0  0  0
    4.9150    0.4300    0.0310 C   0  0  0  0  0  0  0  0  0  0  0  0
    6.0360   -0.5680    0.3580 C   0  0  0  0  0  0  0  0  0  0  0  0
    7.2640   -0.1530   -0.4170 C   0  0  0  0  0  0  0  0  0  0  0  0
    7.6330    1.2200   -0.0110 N   0  0  0  0  0  0  0  0  0  0  0  0
    2.9930    1.3040    1.0560 C   0  0  0  0  0  0  0  0  0  0  0  0
    1.7890    0.8490    1.8560 C   0  0  0  0  0  0  0  0  0  0  0  0
  1  2  1  0
  2  3  1  0
  2  4  2  3
  4  5  1  0
  5  6  1  0
  6  7  1  0
  8  7  1  6
  8  9  1  0
  8 23  1  0
 10  9  1  6
 10 11  2  0
 10 12  2  0
 10 13  1  0
 13 14  2  0
 13 22  1  0
 14 15  1  0
 15 16  2  0
 16 17  1  0
 17 18  1  0
 17 22  2  0
 18 19  1  6
 18 20  1  0
 18 21  1  0
 23 24  2  0
 23 25  1  0
 25 26  1  0
 25 34  1  0
 26 27  1  0
 27 28  1  0
 28 29  1  6
 28 33  1  0
 29 30  1  0
 30 31  1  0
 31 32  1  0
 33 34  1  0
M  CHG  3   4   1  28   1  32   1
M  END
