
     RDKit          3D

 35 38  0  0  0  0  0  0  0  0999 V2000
   -5.3420    2.1660    2.0750 C   0  0  0  0  0  0  0  0  0  0  0  0
   -4.2290    3.1990    2.0050 C   0  0  0  0  0  0  0  0  0  0  0  0
   -3.7150    3.1690    0.6530 N   0  0  0  0  0  0  0  0  0  0  0  0
   -4.3190    4.0510   -0.3260 C   0  0  0  0  0  0  0  0  0  0  0  0
   -2.6410    2.2930    0.2990 C   0  0  0  0  0  0  0  0  0  0  0  0
   -2.1700    1.5620    1.1910 O   0  0  0  0  0  0  0  0  0  0  0  0
   -2.0940    2.2390   -1.0710 C   0  0  0  0  0  0  0  0  0  0  0  0
   -1.0230    1.2410   -1.3030 C   0  0  2  0  0  0  0  0  0  0  0  0
   -1.3610   -0.1840   -1.0730 C   0  0  0  0  0  0  0  0  0  0  0  0
   -1.8500   -1.0140   -2.2120 C   0  0  0  0  0  0  0  0  0  0  0  0
   -2.7950   -2.0540   -1.7280 C   0  0  0  0  0  0  0  0  0  0  0  0
   -2.6380   -3.0380   -0.9120 C   0  0  0  0  0  0  0  0  0  0  0  0
   -3.7810   -4.0120   -0.5440 C   0  0  0  0  0  0  0  0  0  0  0  0
   -3.5650   -4.2620    0.9340 C   0  0  0  0  0  0  0  0  0  0  0  0
   -2.2680   -3.5110    1.2900 C   0  0  0  0  0  0  0  0  0  0  0  0
   -1.6010   -3.6150   -0.1060 C   0  0  2  0  0  0  0  0  0  0  0  0
   -0.2580   -3.2990   -0.0820 N   0  0  0  0  0  0  0  0  0  0  0  0
    0.2760   -2.7800    1.1630 C   0  0  0  0  0  0  0  0  0  0  0  0
    1.3080   -1.6870    0.9960 C   0  0  2  0  0  0  0  0  0  0  0  0
    2.4290   -1.9310    1.7580 O   0  0  0  0  0  0  0  0  0  0  0  0
    0.6900   -0.3120    1.2850 C   0  0  0  0  0  0  0  0  0  0  0  0
    0.9790    0.6850    0.2950 N   0  0  0  0  0  0  0  0  0  0  0  0
    2.4040    0.8240    0.0310 C   0  0  0  0  0  0  0  0  0  0  0  0
    3.0730    1.5590    1.0160 C   0  0  0  0  0  0  0  0  0  0  0  0
    4.4170    1.7390    0.8600 C   0  0  0  0  0  0  0  0  0  0  0  0
    5.1200    1.2200   -0.2320 C   0  0  0  0  0  0  0  0  0  0  0  0
    6.5140    1.4570   -0.3090 N   0  0  0  0  0  0  0  0  0  0  0  0
    7.2060    1.5820   -1.4460 C   0  0  0  0  0  0  0  0  0  0  0  0
    8.5350    1.8040   -1.1170 C   0  0  0  0  0  0  0  0  0  0  0  0
    8.6400    1.8120    0.2640 C   0  0  0  0  0  0  0  0  0  0  0  0
    7.3610    1.5930    0.7230 C   0  0  0  0  0  0  0  0  0  0  0  0
    4.4030    0.5050   -1.1690 C   0  0  0  0  0  0  0  0  0  0  0  0
    3.0270    0.2970   -1.0470 C   0  0  0  0  0  0  0  0  0  0  0  0
    0.1430    1.5540   -0.4240 C   0  0  0  0  0  0  0  0  0  0  0  0
    0.3640    2.8240   -0.3570 O   0  0  0  0  0  0  0  0  0  0  0  0
  1  2  1  0
  2  3  1  0
  3  4  1  0
  3  5  1  0
  5  6  2  0
  5  7  1  0
  8  7  1  1
  8  9  1  0
  8 34  1  0
  9 10  1  0
 10 11  1  0
 11 12  2  0
 12 13  1  0
 12 16  1  0
 13 14  1  0
 14 15  1  0
 16 15  1  1
 16 17  1  0
 17 18  1  0
 18 19  1  0
 19 20  1  1
 19 21  1  0
 21 22  1  0
 22 23  1  0
 22 34  1  0
 23 24  2  0
 23 33  1  0
 24 25  1  0
 25 26  2  0
 26 27  1  0
 26 32  1  0
 27 28  1  0
 27 31  1  0
 28 29  2  0
 29 30  1  0
 30 31  2  0
 32 33  2  0
 34 35  2  0
M  CHG  1  17   1
M  END
