
     RDKit          3D

 37 39  0  0  0  0  0  0  0  0999 V2000
   -3.7190   -1.7870    2.9410 C   0  0  0  0  0  0  0  0  0  0  0  0
   -4.1510   -1.5770    1.4990 C   0  0  0  0  0  0  0  0  0  0  0  0
   -4.3960   -2.9040    0.8220 C   0  0  0  0  0  0  0  0  0  0  0  0
   -4.8260   -2.8400   -0.5860 C   0  0  0  0  0  0  0  0  0  0  0  0
   -3.8610   -2.1840   -1.5070 N   0  0  0  0  0  0  0  0  0  0  0  0
   -2.8970   -3.0470   -2.0800 C   0  0  0  0  0  0  0  0  0  0  0  0
   -1.6890   -2.9680   -2.4940 C   0  0  0  0  0  0  0  0  0  0  0  0
   -0.6350   -2.0250   -2.6240 C   0  0  0  0  0  0  0  0  0  0  0  0
    0.2990   -1.5570   -1.7670 C   0  0  0  0  0  0  0  0  0  0  0  0
    1.2620   -0.5840   -2.2000 C   0  0  0  0  0  0  0  0  0  0  0  0
    2.2570    0.0510   -1.7510 C   0  0  0  0  0  0  0  0  0  0  0  0
    2.9480    0.1100   -0.5210 C   0  0  0  0  0  0  0  0  0  0  0  0
    2.6960   -0.5320    0.5050 O   0  0  0  0  0  0  0  0  0  0  0  0
    4.1400    1.0790   -0.4670 C   0  0  2  0  0  0  0  0  0  0  0  0
    5.1430    0.6560   -1.5130 C   0  0  0  0  0  0  0  0  0  0  0  0
    6.2730    1.6660   -1.5060 C   0  0  0  0  0  0  0  0  0  0  0  0
    6.6150    2.1100   -0.1120 C   0  0  0  0  0  0  0  0  0  0  0  0
    6.2200    1.0600    0.8230 N   0  0  0  0  0  0  0  0  0  0  0  0
    4.7680    0.9260    0.8900 C   0  0  1  0  0  0  0  0  0  0  0  0
    4.2690    2.0250    1.7550 C   0  0  0  0  0  0  0  0  0  0  0  0
    2.8840    2.1180    2.0040 N   0  0  0  0  0  0  0  0  0  0  0  0
    5.0330    2.8700    2.2690 O   0  0  0  0  0  0  0  0  0  0  0  0
    0.3240   -2.0280   -0.3670 C   0  0  0  0  0  0  0  0  0  0  0  0
   -0.0960   -1.1460    0.5840 O   0  0  0  0  0  0  0  0  0  0  0  0
   -0.6820    0.0110    0.1660 C   0  0  0  0  0  0  0  0  0  0  0  0
   -1.1660    0.8150    1.3450 C   0  0  0  0  0  0  0  0  0  0  0  0
   -0.4480    0.8020    2.5200 C   0  0  0  0  0  0  0  0  0  0  0  0
   -0.8450    1.5310    3.6260 C   0  0  0  0  0  0  0  0  0  0  0  0
   -1.9890    2.2950    3.5580 C   0  0  0  0  0  0  0  0  0  0  0  0
   -2.7100    2.3160    2.3990 C   0  0  0  0  0  0  0  0  0  0  0  0
   -2.3080    1.5770    1.2780 C   0  0  0  0  0  0  0  0  0  0  0  0
   -3.3260    1.6470   -0.1850 S   0  0  0  0  0  0  0  0  0  0  0  0
   -2.3930    2.1290   -1.6460 C   0  0  0  0  0  0  0  0  0  0  0  0
   -2.4900    1.0540   -2.7390 C   0  0  0  0  0  0  0  0  0  0  0  0
   -3.3260    0.0930   -2.4100 O   0  0  0  0  0  0  0  0  0  0  0  0
   -4.0280   -0.7730   -1.7410 C   0  0  0  0  0  0  0  0  0  0  0  0
   -5.1150   -0.3240   -1.1450 O   0  0  0  0  0  0  0  0  0  0  0  0
  1  2  1  0
  2  3  1  0
  3  4  1  0
  4  5  1  0
  5  6  1  0
  5 36  1  0
  6  7  2  0
  7  8  1  0
  8  9  2  0
  9 10  1  0
  9 23  1  0
 10 11  2  3
 11 12  1  0
 12 13  2  0
 14 12  1  1
 14 15  1  0
 14 19  1  0
 15 16  1  0
 16 17  1  0
 17 18  1  0
 18 19  1  0
 19 20  1  1
 20 21  1  0
 20 22  2  0
 23 24  1  0
 24 25  1  0
 25 26  1  0
 26 27  2  0
 26 31  1  0
 27 28  1  0
 28 29  2  0
 29 30  1  0
 30 31  2  0
 31 32  1  0
 32 33  1  0
 33 34  1  0
 34 35  1  0
 35 36  1  0
 36 37  2  0
M  END
