
     RDKit          3D

 37 40  0  0  0  0  0  0  0  0999 V2000
   10.2420    2.3260   -0.7870 C   0  0  0  0  0  0  0  0  0  0  0  0
   10.1680    0.5560   -1.2020 S   0  0  0  0  0  0  0  0  0  0  0  0
    8.9740   -0.2160   -0.1140 C   0  0  2  0  0  0  0  0  0  0  0  0
    8.8300   -1.7040   -0.3700 C   0  0  0  0  0  0  0  0  0  0  0  0
    7.8100   -2.3150    0.5710 C   0  0  0  0  0  0  0  0  0  0  0  0
    7.2820   -1.2880    1.5500 C   0  0  0  0  0  0  0  0  0  0  0  0
    6.7640   -0.0440    0.9170 C   0  0  2  0  0  0  0  0  0  0  0  0
    5.3240   -0.1640    0.5590 C   0  0  0  0  0  0  0  0  0  0  0  0
    4.7650   -1.2430    0.8310 O   0  0  0  0  0  0  0  0  0  0  0  0
    4.5920    0.8630   -0.0540 N   0  0  0  0  0  0  0  0  0  0  0  0
    3.2330    0.8560   -0.4350 C   0  0  0  0  0  0  0  0  0  0  0  0
    2.6540    1.9980   -1.0060 C   0  0  0  0  0  0  0  0  0  0  0  0
    1.3350    2.0320   -1.3920 C   0  0  0  0  0  0  0  0  0  0  0  0
    0.5050    0.9640   -1.2460 C   0  0  0  0  0  0  0  0  0  0  0  0
    1.0340   -0.1740   -0.6910 C   0  0  0  0  0  0  0  0  0  0  0  0
    2.3800   -0.2120   -0.2960 C   0  0  0  0  0  0  0  0  0  0  0  0
    0.1480   -1.3170   -0.5340 C   0  0  0  0  0  0  0  0  0  0  0  0
    0.6720   -2.3610   -0.0130 O   0  0  0  0  0  0  0  0  0  0  0  0
   -1.1780   -1.3010   -0.9140 O   0  0  0  0  0  0  0  0  0  0  0  0
   -1.7220   -0.1750   -1.5270 C   0  0  1  0  0  0  0  0  0  0  0  0
   -2.9930    0.1430   -0.7920 C   0  0  0  0  0  0  0  0  0  0  0  0
   -3.2040    1.2830   -0.3670 O   0  0  0  0  0  0  0  0  0  0  0  0
   -3.9210   -0.8920   -0.6070 N   0  0  0  0  0  0  0  0  0  0  0  0
   -5.1650   -0.7220    0.0730 C   0  0  0  0  0  0  0  0  0  0  0  0
   -5.2280   -0.9220    1.4370 C   0  0  0  0  0  0  0  0  0  0  0  0
   -3.9740   -1.3080    2.1420 C   0  0  0  0  0  0  0  0  0  0  0  0
   -6.4100   -0.7720    2.1450 C   0  0  0  0  0  0  0  0  0  0  0  0
   -7.5860   -0.4110    1.4930 C   0  0  0  0  0  0  0  0  0  0  0  0
   -8.8310   -0.2610    2.2860 C   0  0  0  0  0  0  0  0  0  0  0  0
   -7.5040   -0.2160    0.1320 C   0  0  0  0  0  0  0  0  0  0  0  0
   -8.7300    0.1700   -0.6090 C   0  0  0  0  0  0  0  0  0  0  0  0
   -9.0670    1.6330   -0.3950 C   0  0  0  0  0  0  0  0  0  0  0  0
  -10.2280    1.9330   -1.1160 O   0  0  0  0  0  0  0  0  0  0  0  0
   -6.3180   -0.3670   -0.5720 C   0  0  0  0  0  0  0  0  0  0  0  0
   -6.2650   -0.1490   -2.0420 C   0  0  0  0  0  0  0  0  0  0  0  0
   -0.8670    0.9620   -1.6350 N   0  0  0  0  0  0  0  0  0  0  0  0
    7.6060    0.4150   -0.2220 C   0  0  0  0  0  0  0  0  0  0  0  0
  1  2  1  0
  3  2  1  6
  3  4  1  0
  3 37  1  0
  4  5  1  0
  5  6  1  0
  6  7  1  0
  7  8  1  6
  7 37  1  0
  8  9  2  0
  8 10  1  0
 10 11  1  0
 11 12  2  0
 11 16  1  0
 12 13  1  0
 13 14  2  0
 14 15  1  0
 14 36  1  0
 15 16  2  0
 15 17  1  0
 17 18  2  0
 17 19  1  0
 19 20  1  0
 20 21  1  1
 20 36  1  0
 21 22  2  0
 21 23  1  0
 23 24  1  0
 24 25  2  0
 24 34  1  0
 25 26  1  0
 25 27  1  0
 27 28  2  0
 28 29  1  0
 28 30  1  0
 30 31  1  0
 30 34  2  0
 31 32  1  0
 32 33  1  0
 34 35  1  0
M  END
