
     RDKit          3D

 37 39  0  0  0  0  0  0  0  0999 V2000
   12.7370    0.0380    3.0080 C   0  0  0  0  0  0  0  0  0  0  0  0
   11.5540    0.1300    2.4560 C   0  0  0  0  0  0  0  0  0  0  0  0
   10.3210    0.2300    1.8950 C   0  0  0  0  0  0  0  0  0  0  0  0
    9.0030    0.3620    1.3030 C   0  0  0  0  0  0  0  0  0  0  0  0
    7.9090    0.4820    0.8110 C   0  0  0  0  0  0  0  0  0  0  0  0
    6.7180   -0.2300    1.2400 C   0  0  0  0  0  0  0  0  0  0  0  0
    5.5420   -0.1720    0.6680 C   0  0  0  0  0  0  0  0  0  0  0  0
    5.3020    0.6200   -0.4670 C   0  0  0  0  0  0  0  0  0  0  0  0
    3.9890    0.4780   -1.0750 C   0  0  0  0  0  0  0  0  0  0  0  0
    3.8200    0.4770   -2.2980 O   0  0  0  0  0  0  0  0  0  0  0  0
    2.8530    0.3100   -0.2180 N   0  0  0  0  0  0  0  0  0  0  0  0
    1.5840    0.0410   -0.5520 N   0  0  0  0  0  0  0  0  0  0  0  0
    0.3480    0.6260   -0.3700 C   0  0  0  0  0  0  0  0  0  0  0  0
    0.3070    1.7380    0.1860 O   0  0  0  0  0  0  0  0  0  0  0  0
   -0.8820   -0.0250   -0.8310 N   0  0  0  0  0  0  0  0  0  0  0  0
   -1.8940    0.9150   -1.2470 C   0  0  1  0  0  0  0  0  0  0  0  0
   -1.6140    1.0660   -2.8350 C   0  0  0  0  0  0  0  0  0  0  0  0
   -3.2990    0.6030   -1.1650 C   0  0  0  0  0  0  0  0  0  0  0  0
   -4.2330    1.7140   -1.6740 C   0  0  0  0  0  0  0  0  0  0  0  0
   -5.6630    1.1370   -1.6040 C   0  0  1  0  0  0  0  0  0  0  0  0
   -6.0700    0.7490   -0.3670 O   0  0  0  0  0  0  0  0  0  0  0  0
   -6.6620    2.0830   -2.2390 C   0  0  0  0  0  0  0  0  0  0  0  0
   -6.7040    3.6610   -1.4640 S   0  0  2  0  0  0  0  0  0  0  0  0
   -6.3040    3.5780   -0.0450 O   0  0  0  0  0  0  0  0  0  0  0  0
   -8.0980    4.2180   -1.6440 O   0  0  0  0  0  0  0  0  0  0  0  0
   -1.1690   -1.3980   -0.6440 C   0  0  1  0  0  0  0  0  0  0  0  0
   -0.1760   -2.4570   -0.8000 C   0  0  0  0  0  0  0  0  0  0  0  0
    0.5520   -2.5340    0.5430 C   0  0  0  0  0  0  0  0  0  0  0  0
   -0.5960   -2.3250    1.4570 C   0  0  0  0  0  0  0  0  0  0  0  0
   -0.7080   -2.7370    2.7910 C   0  0  0  0  0  0  0  0  0  0  0  0
   -1.9280   -2.5900    3.4580 C   0  0  0  0  0  0  0  0  0  0  0  0
   -2.9740   -2.0480    2.7770 C   0  0  0  0  0  0  0  0  0  0  0  0
   -4.3150   -1.8870    3.3710 C   0  0  0  0  0  0  0  0  0  0  0  0
   -2.8190   -1.6440    1.4420 C   0  0  0  0  0  0  0  0  0  0  0  0
   -1.6470   -1.7670    0.7720 C   0  0  0  0  0  0  0  0  0  0  0  0
    6.3660    1.3160   -0.9050 C   0  0  0  0  0  0  0  0  0  0  0  0
    7.5970    1.2910   -0.3570 C   0  0  0  0  0  0  0  0  0  0  0  0
  1  2  3  0
  2  3  1  0
  3  4  3  0
  4  5  1  0
  5  6  2  0
  5 37  1  0
  6  7  1  0
  7  8  2  0
  8  9  1  0
  8 36  1  0
  9 10  2  0
  9 11  1  0
 11 12  1  0
 12 13  1  0
 13 14  2  0
 13 15  1  0
 15 16  1  0
 26 15  1  1
 16 17  1  6
 16 18  1  0
 18 19  1  0
 19 20  1  0
 20 21  1  1
 20 22  1  0
 23 22  1  1
 23 24  2  0
 23 25  2  0
 26 27  1  0
 26 35  1  0
 27 28  1  0
 28 29  1  0
 29 30  2  0
 29 35  1  0
 30 31  1  0
 31 32  2  0
 32 33  1  0
 32 34  1  0
 34 35  2  0
 36 37  2  0
M  END
