
     RDKit          3D

 37 40  0  0  0  0  0  0  0  0999 V2000
   -1.7680   -2.5930    0.4150 C   0  0  0  0  0  0  0  0  0  0  0  0
   -2.9690   -1.6950    0.7430 C   0  0  0  0  0  0  0  0  0  0  0  0
   -3.1410   -0.6170   -0.2730 C   0  0  2  0  0  0  0  0  0  0  0  0
   -1.9980    0.3230   -0.3840 C   0  0  0  0  0  0  0  0  0  0  0  0
   -1.1090    0.3320    0.4720 O   0  0  0  0  0  0  0  0  0  0  0  0
   -1.9280    1.2410   -1.5050 C   0  0  0  0  0  0  0  0  0  0  0  0
   -0.8740    1.7160   -2.0940 C   0  0  0  0  0  0  0  0  0  0  0  0
    0.5200    1.5090   -1.8620 C   0  0  0  0  0  0  0  0  0  0  0  0
    1.5250    2.0600   -2.5050 C   0  0  0  0  0  0  0  0  0  0  0  0
    2.8310    1.6990   -2.0940 C   0  0  0  0  0  0  0  0  0  0  0  0
    2.9560    0.8440   -1.1120 C   0  0  0  0  0  0  0  0  0  0  0  0
    4.1420    0.2880   -0.4720 C   0  0  0  0  0  0  0  0  0  0  0  0
    4.0030   -0.5170    0.4610 O   0  0  0  0  0  0  0  0  0  0  0  0
    5.4310    0.6490   -0.8970 N   0  0  0  0  0  0  0  0  0  0  0  0
    6.6710    0.1850   -0.3710 C   0  0  0  0  0  0  0  0  0  0  0  0
    7.8290    0.7900   -0.8880 C   0  0  0  0  0  0  0  0  0  0  0  0
    9.0780    0.4230   -0.4660 C   0  0  0  0  0  0  0  0  0  0  0  0
    9.2310   -0.5620    0.4870 C   0  0  0  0  0  0  0  0  0  0  0  0
   10.5960   -0.9670    0.9490 C   0  0  0  0  0  0  0  0  0  0  0  0
    8.0870   -1.1450    0.9840 C   0  0  0  0  0  0  0  0  0  0  0  0
    8.2290   -2.2000    2.0050 C   0  0  0  0  0  0  0  0  0  0  0  0
    6.8050   -0.7860    0.5680 C   0  0  0  0  0  0  0  0  0  0  0  0
    1.2640    0.4210   -0.7030 S   0  0  0  0  0  0  0  0  0  0  0  0
    1.0810   -1.0490   -1.1010 O   0  0  0  0  0  0  0  0  0  0  0  0
   -3.2220    1.6350   -2.0180 N   0  0  0  0  0  0  0  0  0  0  0  0
   -4.3830    1.1440   -1.4480 C   0  0  0  0  0  0  0  0  0  0  0  0
   -5.5210    1.6970   -1.6660 O   0  0  0  0  0  0  0  0  0  0  0  0
   -4.4760   -0.0680   -0.5220 C   0  0  1  0  0  0  0  0  0  0  0  0
   -5.0850   -0.9980   -1.4340 O   0  0  0  0  0  0  0  0  0  0  0  0
   -5.4740    0.1560    0.5050 C   0  0  0  0  0  0  0  0  0  0  0  0
   -5.2770    0.6560    1.6940 C   0  0  0  0  0  0  0  0  0  0  0  0
   -3.9800    1.1110    2.2330 C   0  0  0  0  0  0  0  0  0  0  0  0
   -6.3920    0.7540    2.5880 N   0  0  0  0  0  0  0  0  0  0  0  0
   -7.7740    0.7540    2.2150 C   0  0  0  0  0  0  0  0  0  0  0  0
   -7.9460    0.1890    0.8660 C   0  0  0  0  0  0  0  0  0  0  0  0
   -9.3500   -0.0710    0.3880 C   0  0  0  0  0  0  0  0  0  0  0  0
   -6.9060   -0.0600    0.1450 C   0  0  0  0  0  0  0  0  0  0  0  0
  1  2  1  0
  3  2  1  1
  3  4  1  0
  3 28  1  0
  4  5  2  0
  4  6  1  0
  6  7  2  3
  6 25  1  0
  7  8  1  0
  8  9  2  0
 23  8  1  6
  9 10  1  0
 10 11  2  0
 11 12  1  0
 11 23  1  0
 12 13  2  0
 12 14  1  0
 14 15  1  0
 15 16  2  0
 15 22  1  0
 16 17  1  0
 17 18  2  0
 18 19  1  0
 18 20  1  0
 20 21  1  0
 20 22  2  0
 23 24  2  0
 25 26  1  0
 26 27  2  0
 26 28  1  0
 28 29  1  6
 28 30  1  0
 30 31  2  0
 30 37  1  0
 31 32  1  0
 31 33  1  0
 33 34  1  0
 34 35  1  0
 35 36  1  0
 35 37  2  0
M  END
