
     RDKit          3D

 37 39  0  0  0  0  0  0  0  0999 V2000
    7.7890   -1.4900    1.6330 C   0  0  0  0  0  0  0  0  0  0  0  0
    6.7880   -1.1670    2.7130 C   0  0  0  0  0  0  0  0  0  0  0  0
    5.5030   -1.1200    2.1690 O   0  0  0  0  0  0  0  0  0  0  0  0
    5.1300   -0.2150    1.2080 C   0  0  0  0  0  0  0  0  0  0  0  0
    6.0090    0.7190    0.7380 C   0  0  0  0  0  0  0  0  0  0  0  0
    5.5480    1.5780   -0.2220 C   0  0  0  0  0  0  0  0  0  0  0  0
    4.2460    1.5580   -0.7450 C   0  0  0  0  0  0  0  0  0  0  0  0
    3.9210    2.4750   -1.7010 O   0  0  0  0  0  0  0  0  0  0  0  0
    3.3810    0.6100   -0.2550 C   0  0  0  0  0  0  0  0  0  0  0  0
    1.9810    0.4920   -0.7310 C   0  0  0  0  0  0  0  0  0  0  0  0
    1.5380    1.2750   -1.6150 O   0  0  0  0  0  0  0  0  0  0  0  0
    1.1020   -0.4620   -0.2410 N   0  0  0  0  0  0  0  0  0  0  0  0
   -0.2910   -0.6210   -0.6710 C   0  0  0  0  0  0  0  0  0  0  0  0
   -0.6190   -1.7440   -1.2380 C   0  0  0  0  0  0  0  0  0  0  0  0
   -1.7450   -2.3530   -1.7930 N   0  0  0  0  0  0  0  0  0  0  0  0
   -3.0180   -2.0030   -2.2250 C   0  0  0  0  0  0  0  0  0  0  0  0
   -3.2210   -2.0100   -3.5310 O   0  0  0  0  0  0  0  0  0  0  0  0
   -4.2390   -1.6150   -1.5420 C   0  0  0  0  0  0  0  0  0  0  0  0
   -4.9500   -0.3950   -2.1170 C   0  0  0  0  0  0  0  0  0  0  0  0
   -4.8130   -2.1720   -0.4880 C   0  0  0  0  0  0  0  0  0  0  0  0
   -4.3680   -3.3280    0.2720 C   0  0  0  0  0  0  0  0  0  0  0  0
   -3.4310   -3.4190    1.1690 C   0  0  0  0  0  0  0  0  0  0  0  0
   -2.3640   -2.1820    1.7910 S   0  0  0  0  0  0  0  0  0  0  0  0
   -1.2380   -2.6910    2.6310 O   0  0  0  0  0  0  0  0  0  0  0  0
   -3.1460   -0.7040    2.3640 C   0  0  1  0  0  0  0  0  0  0  0  0
   -3.1930   -0.5980    3.8710 C   0  0  0  0  0  0  0  0  0  0  0  0
   -2.3940    0.4680    1.7490 C   0  0  0  0  0  0  0  0  0  0  0  0
   -2.3230    0.1790    0.3340 N   0  0  0  0  0  0  0  0  0  0  0  0
   -1.0930    0.5630   -0.3120 C   0  0  2  0  0  0  0  0  0  0  0  0
   -1.2360    1.5830   -1.3710 C   0  0  0  0  0  0  0  0  0  0  0  0
   -1.4660    1.2500   -2.7090 C   0  0  0  0  0  0  0  0  0  0  0  0
   -1.5920    2.2160   -3.6770 C   0  0  0  0  0  0  0  0  0  0  0  0
   -1.4980    3.5600   -3.3860 C   0  0  0  0  0  0  0  0  0  0  0  0
   -1.2720    3.9220   -2.0770 C   0  0  0  0  0  0  0  0  0  0  0  0
   -1.1470    2.9470   -1.1160 C   0  0  0  0  0  0  0  0  0  0  0  0
   -0.8980    3.3930    0.2720 C   0  0  0  0  0  0  0  0  0  0  0  0
    3.8250   -0.2600    0.7070 C   0  0  0  0  0  0  0  0  0  0  0  0
  1  2  1  0
  2  3  1  0
  3  4  1  0
  4  5  2  0
  4 37  1  0
  5  6  1  0
  6  7  2  0
  7  8  1  0
  7  9  1  0
  9 10  1  0
  9 37  2  0
 10 11  2  0
 10 12  1  0
 12 13  1  0
 13 14  2  0
 13 29  1  0
 14 15  1  0
 15 16  1  0
 16 17  2  0
 16 18  1  0
 18 19  1  0
 18 20  2  0
 20 21  1  0
 21 22  2  0
 23 22  1  1
 23 24  2  0
 23 25  1  0
 25 26  1  1
 25 27  1  0
 27 28  1  0
 28 29  1  0
 29 30  1  6
 30 31  2  0
 30 35  1  0
 31 32  1  0
 32 33  2  0
 33 34  1  0
 34 35  2  0
 35 36  1  0
M  END
