
     RDKit          3D

 25 25  0  0  0  0  0  0  0  0999 V2000
   -3.3480   -2.7980   -2.8170 C   0  0  0  0  0  0  0  0  0  0  0  0
   -3.1120   -1.5690   -2.0220 C   0  0  0  0  0  0  0  0  0  0  0  0
   -3.9770   -0.5460   -1.9720 N   0  0  0  0  0  0  0  0  0  0  0  0
   -3.7280    0.5660   -1.2320 C   0  0  0  0  0  0  0  0  0  0  0  0
   -2.5750    0.6970   -0.4970 C   0  0  0  0  0  0  0  0  0  0  0  0
   -2.1890    1.8570    0.3010 C   0  0  0  0  0  0  0  0  0  0  0  0
   -3.1170    2.8590    0.3920 O   0  0  0  0  0  0  0  0  0  0  0  0
   -4.5380    2.4450    1.1840 P   0  0  1  0  0  0  0  0  0  0  0  0
   -5.7100    3.0130    0.4270 O   0  0  0  0  0  0  0  0  0  0  0  0
   -4.6790    0.7850    1.3500 O   0  0  0  0  0  0  0  0  0  0  0  0
   -4.5720    3.1600    2.7380 O   0  0  0  0  0  0  0  0  0  0  0  0
   -1.6340   -0.3720   -0.5290 C   0  0  0  0  0  0  0  0  0  0  0  0
   -0.3970   -0.2670    0.2650 C   0  0  0  0  0  0  0  0  0  0  0  0
    0.4310   -1.4030    0.0760 N   0  0  0  0  0  0  0  0  0  0  0  0
    1.6250   -1.3940    0.9050 C   0  0  1  0  0  0  0  0  0  0  0  0
    2.5510   -0.2530    0.6470 C   0  0  0  0  0  0  0  0  0  0  0  0
    3.0740   -0.2120   -0.7650 C   0  0  0  0  0  0  0  0  0  0  0  0
    4.0060    0.9200   -1.0420 C   0  0  0  0  0  0  0  0  0  0  0  0
    5.2300    0.8600   -0.1570 C   0  0  0  0  0  0  0  0  0  0  0  0
    6.1200    1.9870   -0.4720 N   0  0  0  0  0  0  0  0  0  0  0  0
    1.3330   -1.6050    2.3360 C   0  0  0  0  0  0  0  0  0  0  0  0
    0.1250   -1.7740    2.6700 O   0  0  0  0  0  0  0  0  0  0  0  0
    2.2660   -1.6320    3.3310 O   0  0  0  0  0  0  0  0  0  0  0  0
   -1.9390   -1.4560   -1.2850 C   0  0  0  0  0  0  0  0  0  0  0  0
   -1.0760   -2.5290   -1.3610 O   0  0  0  0  0  0  0  0  0  0  0  0
  1  2  1  0
  2  3  2  0
  2 24  1  0
  3  4  1  0
  4  5  2  0
  5  6  1  0
  5 12  1  0
  6  7  1  0
  7  8  1  0
  8  9  2  0
  8 10  1  1
  8 11  1  0
 12 13  1  0
 12 24  2  0
 13 14  1  0
 14 15  1  0
 15 16  1  1
 15 21  1  0
 16 17  1  0
 17 18  1  0
 18 19  1  0
 19 20  1  0
 21 22  2  0
 21 23  1  0
 24 25  1  0
M  END
