
     RDKit          3D

 25 25  0  0  0  0  0  0  0  0999 V2000
   -2.5330    4.0360    1.7170 O   0  0  0  0  0  0  0  0  0  0  0  0
   -1.8560    3.3970    0.8780 C   0  0  0  0  0  0  0  0  0  0  0  0
   -2.4680    2.1820    0.2850 C   0  0  0  0  0  0  0  0  0  0  0  0
   -2.1600    1.1270    1.1150 O   0  0  0  0  0  0  0  0  0  0  0  0
   -2.3430   -0.2070    1.0260 C   0  0  0  0  0  0  0  0  0  0  0  0
   -2.7880   -0.8360    2.0290 O   0  0  0  0  0  0  0  0  0  0  0  0
   -2.0570   -0.9840   -0.1660 C   0  0  0  0  0  0  0  0  0  0  0  0
   -2.9780   -2.1460   -0.4540 C   0  0  0  0  0  0  0  0  0  0  0  0
   -4.2690   -1.7220   -0.6260 O   0  0  0  0  0  0  0  0  0  0  0  0
   -5.0430   -2.7500   -0.8740 O   0  0  0  0  0  0  0  0  0  0  0  0
   -4.3580   -3.5760   -1.6440 O   0  0  0  0  0  0  0  0  0  0  0  0
   -1.0730   -0.7850   -1.0150 C   0  0  0  0  0  0  0  0  0  0  0  0
   -0.1110    0.2000   -0.9440 O   0  0  0  0  0  0  0  0  0  0  0  0
    0.8350    0.4270    0.0520 C   0  0  1  0  0  0  0  0  0  0  0  0
    2.0030   -0.5190   -0.1760 C   0  0  0  0  0  0  0  0  0  0  0  0
    3.0930   -0.3840    0.8370 C   0  0  0  0  0  0  0  0  0  0  0  0
    4.4190   -1.6220    0.3760 P   0  0  0  0  0  0  0  0  0  0  0  0
    4.4170   -2.9750    1.4310 O   0  0  0  0  0  0  0  0  0  0  0  0
    5.9780   -0.9030    0.3560 O   0  0  0  0  0  0  0  0  0  0  0  0
    1.3810    1.8450   -0.1670 C   0  0  1  0  0  0  0  0  0  0  0  0
    2.5880    1.7550   -0.8480 O   0  0  0  0  0  0  0  0  0  0  0  0
    0.4610    2.5900   -1.0980 C   0  0  0  0  0  0  0  0  0  0  0  0
    0.2180    2.0690   -2.2170 O   0  0  0  0  0  0  0  0  0  0  0  0
   -0.0630    3.7930   -0.6800 O   0  0  0  0  0  0  0  0  0  0  0  0
   -0.5940    3.8720    0.5700 O   0  0  0  0  0  0  0  0  0  0  0  0
  1  2  2  0
  2  3  1  0
  2 25  1  0
  3  4  1  0
  4  5  1  0
  5  6  2  0
  5  7  1  0
  7  8  1  0
  7 12  2  0
  8  9  1  0
  9 10  1  0
 10 11  1  0
 12 13  1  0
 13 14  1  0
 14 15  1  6
 14 20  1  0
 15 16  1  0
 16 17  1  0
 17 18  1  0
 17 19  1  0
 20 21  1  6
 20 22  1  0
 22 23  2  0
 22 24  1  0
 24 25  1  0
M  END
