
     RDKit          3D

 22 22  0  0  0  0  0  0  0  0999 V2000
   -1.7890    1.5630    1.9660 C   0  0  0  0  0  0  0  0  0  0  0  0
   -2.2950    1.2320    0.7910 C   0  0  0  0  0  0  0  0  0  0  0  0
   -1.6020    0.2790   -0.1220 C   0  0  2  0  0  0  0  0  0  0  0  0
   -2.5710   -0.5750   -0.6370 O   0  0  0  0  0  0  0  0  0  0  0  0
   -2.0900   -1.5160   -1.5070 C   0  0  0  0  0  0  0  0  0  0  0  0
   -3.1960   -2.2850   -1.9240 O   0  0  0  0  0  0  0  0  0  0  0  0
   -0.4550   -0.3750    0.4550 C   0  0  0  0  0  0  0  0  0  0  0  0
   -0.6490   -1.3280    1.3540 C   0  0  0  0  0  0  0  0  0  0  0  0
   -1.9600   -1.7980    1.8340 C   0  0  0  0  0  0  0  0  0  0  0  0
   -2.0740   -3.2690    1.5020 C   0  0  0  0  0  0  0  0  0  0  0  0
    0.4580   -1.9550    1.9080 O   0  0  0  0  0  0  0  0  0  0  0  0
    1.7600   -1.6370    1.5720 C   0  0  0  0  0  0  0  0  0  0  0  0
    1.9670   -0.6700    0.6590 C   0  0  0  0  0  0  0  0  0  0  0  0
    3.3430   -0.3390    0.3080 C   0  0  0  0  0  0  0  0  0  0  0  0
    3.5930    0.5850   -0.5700 C   0  0  0  0  0  0  0  0  0  0  0  0
    4.9600    0.9150   -0.9200 C   0  0  0  0  0  0  0  0  0  0  0  0
    5.2580    1.8470   -1.8080 C   0  0  0  0  0  0  0  0  0  0  0  0
    6.5620    2.1450   -2.1250 O   0  0  0  0  0  0  0  0  0  0  0  0
    0.8480   -0.0590    0.1210 O   0  0  0  0  0  0  0  0  0  0  0  0
   -1.1660    1.1210   -1.3180 C   0  0  1  0  0  0  0  0  0  0  0  0
   -2.3740    1.7250   -2.0110 C   0  0  0  0  0  0  0  0  0  0  0  0
   -0.3490    2.3230   -0.8380 C   0  0  0  0  0  0  0  0  0  0  0  0
  1  2  2  0
  2  3  1  0
  3  4  1  6
  3  7  1  0
  3 20  1  0
  4  5  1  0
  5  6  1  0
  7  8  2  0
  7 19  1  0
  8  9  1  0
  8 11  1  0
  9 10  1  0
 11 12  1  0
 12 13  2  0
 13 14  1  0
 13 19  1  0
 14 15  2  3
 15 16  1  0
 16 17  2  3
 17 18  1  0
 20 21  1  1
 20 22  1  0
M  END
