
     RDKit          3D

 23 23  0  0  0  0  0  0  0  0999 V2000
   -3.6620    3.9490   -1.4690 C   0  0  0  0  0  0  0  0  0  0  0  0
   -4.0710    2.5800   -1.0500 C   0  0  0  0  0  0  0  0  0  0  0  0
   -3.9740    1.5380   -2.1520 C   0  0  2  0  0  0  0  0  0  0  0  0
   -2.7600    1.3710   -2.6620 O   0  0  0  0  0  0  0  0  0  0  0  0
   -1.7570    0.7320   -1.9700 C   0  0  0  0  0  0  0  0  0  0  0  0
   -1.9240   -0.6900   -1.7110 C   0  0  0  0  0  0  0  0  0  0  0  0
   -3.0040   -1.2860   -2.1660 O   0  0  0  0  0  0  0  0  0  0  0  0
   -1.0380   -1.5340   -1.0070 C   0  0  0  0  0  0  0  0  0  0  0  0
   -1.4940   -2.9140   -0.8990 O   0  0  0  0  0  0  0  0  0  0  0  0
    0.0910   -1.3380   -0.4420 C   0  0  0  0  0  0  0  0  0  0  0  0
    0.8520   -0.1300   -0.3420 C   0  0  0  0  0  0  0  0  0  0  0  0
    2.0120   -0.1030    0.2860 C   0  0  0  0  0  0  0  0  0  0  0  0
    2.6060   -1.2320    0.9060 C   0  0  0  0  0  0  0  0  0  0  0  0
    3.7940   -1.0760    1.5190 C   0  0  0  0  0  0  0  0  0  0  0  0
    4.3890   -2.2400    2.1490 C   0  0  0  0  0  0  0  0  0  0  0  0
    5.5680   -2.1340    2.7680 C   0  0  0  0  0  0  0  0  0  0  0  0
    6.3080   -0.8620    2.8410 C   0  0  0  0  0  0  0  0  0  0  0  0
    6.0840   -3.2760    3.3490 O   0  0  0  0  0  0  0  0  0  0  0  0
    6.7690   -3.2530    4.5740 C   0  0  0  0  0  0  0  0  0  0  0  0
   -4.8660    2.1060   -3.2840 C   0  0  0  0  0  0  0  0  0  0  0  0
   -6.2200    1.8030   -2.7270 C   0  0  0  0  0  0  0  0  0  0  0  0
   -6.1040    0.8110   -1.8510 C   0  0  0  0  0  0  0  0  0  0  0  0
   -4.7520    0.4310   -1.7870 O   0  0  0  0  0  0  0  0  0  0  0  0
  1  2  1  0
  3  2  1  1
  3  4  1  0
  3 20  1  0
  3 23  1  0
  4  5  1  0
  5  6  1  0
  6  7  2  0
  6  8  1  0
  8  9  1  0
  8 10  2  3
 10 11  1  0
 11 12  2  3
 12 13  1  0
 13 14  2  3
 14 15  1  0
 15 16  2  3
 16 17  1  0
 16 18  1  0
 18 19  1  0
 20 21  1  0
 21 22  2  0
 22 23  1  0
M  END
