
     RDKit          3D

 25 25  0  0  0  0  0  0  0  0999 V2000
   -1.1920    5.5440   -0.2060 O   0  0  0  0  0  0  0  0  0  0  0  0
   -1.9220    4.7490   -0.8320 C   0  0  0  0  0  0  0  0  0  0  0  0
   -2.6760    5.1640   -1.9200 O   0  0  0  0  0  0  0  0  0  0  0  0
   -1.9630    3.3080   -0.3680 C   0  0  0  0  0  0  0  0  0  0  0  0
   -1.1540    3.1900    0.6830 O   0  0  0  0  0  0  0  0  0  0  0  0
   -0.9900    2.1430    1.4480 C   0  0  0  0  0  0  0  0  0  0  0  0
   -0.5840    0.7920    0.9020 C   0  0  2  0  0  0  0  0  0  0  0  0
   -1.7050    0.0940    0.2240 C   0  0  0  0  0  0  0  0  0  0  0  0
   -2.2200    0.4140   -0.8690 O   0  0  0  0  0  0  0  0  0  0  0  0
   -2.2790   -1.0350    0.8180 O   0  0  0  0  0  0  0  0  0  0  0  0
   -3.3530   -1.7400    0.2140 C   0  0  0  0  0  0  0  0  0  0  0  0
   -2.8880   -2.3990   -1.4500 P   0  0  0  0  0  0  0  0  0  0  0  0
   -4.3410   -2.6930   -2.3470 O   0  0  0  0  0  0  0  0  0  0  0  0
   -2.0370   -3.9030   -1.3040 O   0  0  0  0  0  0  0  0  0  0  0  0
   -0.3090   -0.0490    2.0380 O   0  0  0  0  0  0  0  0  0  0  0  0
    0.3380   -1.1070    1.4640 C   0  0  0  0  0  0  0  0  0  0  0  0
    0.9290   -0.5590    0.2130 C   0  0  2  0  0  0  0  0  0  0  0  0
    2.3040   -0.8030    0.0720 O   0  0  0  0  0  0  0  0  0  0  0  0
    2.8870   -1.4660   -0.9830 C   0  0  0  0  0  0  0  0  0  0  0  0
    2.1420   -1.8860   -1.8900 O   0  0  0  0  0  0  0  0  0  0  0  0
    4.3670   -1.7000   -1.0850 C   0  0  0  0  0  0  0  0  0  0  0  0
    5.2670   -1.0010    0.3510 P   0  0  0  0  0  0  0  0  0  0  0  0
    6.8070   -1.8030    0.4670 O   0  0  0  0  0  0  0  0  0  0  0  0
    5.4630    0.7020    0.1840 O   0  0  0  0  0  0  0  0  0  0  0  0
    0.6060    0.7810    0.2380 O   0  0  0  0  0  0  0  0  0  0  0  0
  1  2  2  0
  2  3  1  0
  2  4  1  0
  4  5  1  0
  5  6  1  0
  7  6  1  1
  7  8  1  0
  7 15  1  0
  7 25  1  0
  8  9  2  0
  8 10  1  0
 10 11  1  0
 11 12  1  0
 12 13  1  0
 12 14  1  0
 15 16  1  0
 16 17  1  0
 17 18  1  1
 17 25  1  0
 18 19  1  0
 19 20  2  0
 19 21  1  0
 21 22  1  0
 22 23  1  0
 22 24  1  0
M  END
