
     RDKit          3D

 25 25  0  0  0  0  0  0  0  0999 V2000
    2.7270    3.8490    1.9220 O   0  0  0  0  0  0  0  0  0  0  0  0
    3.4570    2.8410    1.7610 C   0  0  0  0  0  0  0  0  0  0  0  0
    3.1540    1.8850    0.8190 O   0  0  0  0  0  0  0  0  0  0  0  0
    1.9980    2.0040   -0.0130 C   0  0  0  0  0  0  0  0  0  0  0  0
    1.9190    0.8070   -0.9550 C   0  0  0  0  0  0  0  0  0  0  0  0
    1.8270   -0.4590   -0.1740 C   0  0  2  0  0  0  0  0  0  0  0  0
    0.7320   -0.5040    0.6390 O   0  0  0  0  0  0  0  0  0  0  0  0
   -0.4620   -0.4080   -0.0610 C   0  0  0  0  0  0  0  0  0  0  0  0
   -1.5830   -0.4900    0.9260 C   0  0  0  0  0  0  0  0  0  0  0  0
   -2.9540   -0.4140    0.3770 C   0  0  1  0  0  0  0  0  0  0  0  0
   -3.2600    0.8380   -0.3570 C   0  0  0  0  0  0  0  0  0  0  0  0
   -4.2350    1.5950   -0.0420 O   0  0  0  0  0  0  0  0  0  0  0  0
   -2.4920    1.2330   -1.4190 O   0  0  0  0  0  0  0  0  0  0  0  0
   -2.7070    2.3330   -2.1160 O   0  0  0  0  0  0  0  0  0  0  0  0
   -3.3390   -1.5640   -0.5200 C   0  0  0  0  0  0  0  0  0  0  0  0
   -4.7610   -1.3540   -0.5690 O   0  0  0  0  0  0  0  0  0  0  0  0
   -5.0820   -1.0260    0.7560 C   0  0  0  0  0  0  0  0  0  0  0  0
   -6.2340   -1.1580    1.2940 O   0  0  0  0  0  0  0  0  0  0  0  0
   -3.9540   -0.5330    1.4010 O   0  0  0  0  0  0  0  0  0  0  0  0
    3.0720   -0.5780    0.6420 C   0  0  0  0  0  0  0  0  0  0  0  0
    2.9900   -0.6960    1.8740 O   0  0  0  0  0  0  0  0  0  0  0  0
    4.3020   -0.5580    0.0310 O   0  0  0  0  0  0  0  0  0  0  0  0
    1.7560   -1.8930   -1.3560 P   0  0  0  0  0  0  0  0  0  0  0  0
    3.3330   -2.2590   -1.9680 O   0  0  0  0  0  0  0  0  0  0  0  0
    1.0280   -3.2380   -0.5590 O   0  0  0  0  0  0  0  0  0  0  0  0
  1  2  2  0
  2  3  1  0
  3  4  1  0
  4  5  1  0
  6  5  1  6
  6  7  1  0
  6 20  1  0
  6 23  1  0
  7  8  1  0
  8  9  1  0
 10  9  1  1
 10 11  1  0
 10 15  1  0
 10 19  1  0
 11 12  2  0
 11 13  1  0
 13 14  1  0
 15 16  1  0
 16 17  1  0
 17 18  2  0
 17 19  1  0
 20 21  2  0
 20 22  1  0
 23 24  1  0
 23 25  1  0
M  END
