
     RDKit          3D

 25 26  0  0  0  0  0  0  0  0999 V2000
   -3.2210   -3.5820    0.6300 O   0  0  0  0  0  0  0  0  0  0  0  0
   -3.8640   -2.9200   -0.1920 C   0  0  0  0  0  0  0  0  0  0  0  0
   -5.2040   -3.3240   -0.4220 O   0  0  0  0  0  0  0  0  0  0  0  0
   -3.3110   -1.8840   -0.8200 O   0  0  0  0  0  0  0  0  0  0  0  0
   -2.1270   -1.2430   -0.8260 C   0  0  0  0  0  0  0  0  0  0  0  0
   -1.7560   -0.4160    0.3470 C   0  0  1  0  0  0  0  0  0  0  0  0
   -1.6360   -1.1440    1.6380 C   0  0  0  0  0  0  0  0  0  0  0  0
   -0.7500   -2.1870    1.4790 O   0  0  0  0  0  0  0  0  0  0  0  0
    0.5270   -1.7970    1.1680 C   0  0  0  0  0  0  0  0  0  0  0  0
    0.6510   -0.8320    0.0290 C   0  0  2  0  0  0  0  0  0  0  0  0
    1.8940   -0.1880    0.1530 O   0  0  0  0  0  0  0  0  0  0  0  0
    2.6860   -0.3940   -0.9700 C   0  0  0  0  0  0  0  0  0  0  0  0
    3.9910    0.3380   -0.7310 C   0  0  0  0  0  0  0  0  0  0  0  0
    4.5710   -0.2090    0.4180 O   0  0  0  0  0  0  0  0  0  0  0  0
    5.7210    0.3900    0.6840 O   0  0  0  0  0  0  0  0  0  0  0  0
    6.6380   -0.0980   -0.1440 O   0  0  0  0  0  0  0  0  0  0  0  0
   -0.3830    0.2350    0.1230 C   0  0  2  0  0  0  0  0  0  0  0  0
   -0.1450    1.0770    1.2320 O   0  0  0  0  0  0  0  0  0  0  0  0
   -0.6150    2.3480    0.8780 C   0  0  0  0  0  0  0  0  0  0  0  0
   -0.7680    2.3700   -0.4370 C   0  0  0  0  0  0  0  0  0  0  0  0
   -1.2410    3.5050   -1.2380 C   0  0  0  0  0  0  0  0  0  0  0  0
   -1.3460    3.4130   -2.4690 O   0  0  0  0  0  0  0  0  0  0  0  0
   -1.5770    4.6940   -0.6220 O   0  0  0  0  0  0  0  0  0  0  0  0
   -2.0140    5.7430   -1.3580 O   0  0  0  0  0  0  0  0  0  0  0  0
   -0.4010    1.1250   -0.9430 O   0  0  0  0  0  0  0  0  0  0  0  0
  1  2  2  0
  2  3  1  0
  2  4  1  0
  4  5  1  0
  6  5  1  6
  6  7  1  0
  6 17  1  0
  7  8  1  0
  8  9  1  0
  9 10  1  0
 10 11  1  1
 10 17  1  0
 11 12  1  0
 12 13  1  0
 13 14  1  0
 14 15  1  0
 15 16  1  0
 17 18  1  1
 17 25  1  0
 18 19  1  0
 19 20  2  0
 20 21  1  0
 20 25  1  0
 21 22  2  0
 21 23  1  0
 23 24  1  0
M  END
