
     RDKit          3D

 17 18  0  0  0  0  0  0  0  0999 V2000
    3.8000    2.0080    0.0500 C   0  0  0  0  0  0  0  0  0  0  0  0
    3.5490    0.6100   -0.5040 C   0  0  0  0  0  0  0  0  0  0  0  0
    2.5120   -0.0410    0.3870 C   0  0  2  0  0  0  0  0  0  0  0  0
    2.1930   -1.4320   -0.0760 C   0  0  0  0  0  0  0  0  0  0  0  0
    1.0010   -1.9640    0.5030 N   0  0  0  0  0  0  0  0  0  0  0  0
   -0.1100   -1.1500    0.3100 N   0  0  0  0  0  0  0  0  0  0  0  0
    0.1010    0.2510    0.2410 C   0  0  0  0  0  0  0  0  0  0  0  0
   -0.9660    1.0160    0.0560 C   0  0  0  0  0  0  0  0  0  0  0  0
   -0.7650    2.3860   -0.0120 O   0  0  0  0  0  0  0  0  0  0  0  0
   -2.3120    0.4690   -0.0720 C   0  0  0  0  0  0  0  0  0  0  0  0
   -3.4680    1.4160   -0.2800 C   0  0  0  0  0  0  0  0  0  0  0  0
   -4.7100    0.7240   -0.3850 N   0  0  0  0  0  0  0  0  0  0  0  0
   -2.4630   -0.7940   -0.0040 N   0  0  0  0  0  0  0  0  0  0  0  0
   -1.4160   -1.7610    0.1910 C   0  0  2  0  0  0  0  0  0  0  0  0
   -1.6470   -2.4800    1.4540 N   0  0  0  0  0  0  0  0  0  0  0  0
   -1.4470   -2.7200   -0.8250 O   0  0  0  0  0  0  0  0  0  0  0  0
    1.3740    0.7930    0.3610 O   0  0  0  0  0  0  0  0  0  0  0  0
  1  2  1  0
  3  2  1  6
  3  4  1  0
  3 17  1  0
  4  5  1  0
  5  6  1  0
  6  7  1  0
  6 14  1  0
  7  8  2  0
  7 17  1  0
  8  9  1  0
  8 10  1  0
 10 11  1  0
 10 13  2  0
 11 12  1  0
 13 14  1  0
 14 15  1  1
 14 16  1  0
M  END
