
     RDKit          3D

 17 18  0  0  0  0  0  0  0  0999 V2000
   -1.3720    2.9480    0.0470 C   0  0  0  0  0  0  0  0  0  0  0  0
   -0.5860    1.6880   -0.0020 C   0  0  0  0  0  0  0  0  0  0  0  0
    0.7260    1.8350   -0.0370 C   0  0  0  0  0  0  0  0  0  0  0  0
    1.7510    0.7980   -0.0880 C   0  0  0  0  0  0  0  0  0  0  0  0
    3.0650    1.0460   -0.3340 N   0  0  0  0  0  0  0  0  0  0  0  0
    3.6900   -0.1420   -0.3010 C   0  0  0  0  0  0  0  0  0  0  0  0
    4.9410   -0.3190   -0.4890 O   0  0  0  0  0  0  0  0  0  0  0  0
    2.7950   -1.0980   -0.0420 N   0  0  0  0  0  0  0  0  0  0  0  0
    1.5560   -0.5550    0.1010 C   0  0  0  0  0  0  0  0  0  0  0  0
    0.3420   -1.3370    0.3930 C   0  0  1  0  0  0  0  0  0  0  0  0
    0.1540   -1.3720    1.8180 N   0  0  0  0  0  0  0  0  0  0  0  0
   -0.8680   -0.8760   -0.3670 C   0  0  2  0  0  0  0  0  0  0  0  0
   -1.9390   -1.8030   -0.1920 N   0  0  0  0  0  0  0  0  0  0  0  0
   -0.5090   -0.9380   -1.7360 O   0  0  0  0  0  0  0  0  0  0  0  0
   -0.1860   -2.1380   -2.0940 O   0  0  0  0  0  0  0  0  0  0  0  0
   -1.2960    0.4470   -0.0060 N   0  0  0  0  0  0  0  0  0  0  0  0
   -2.6810    0.6210    0.4410 C   0  0  0  0  0  0  0  0  0  0  0  0
  1  2  1  0
  2  3  2  0
  2 16  1  0
  3  4  1  0
  4  5  1  0
  4  9  2  0
  5  6  1  0
  6  7  2  0
  6  8  1  0
  8  9  1  0
  9 10  1  0
 10 11  1  1
 10 12  1  0
 12 13  1  6
 12 14  1  0
 12 16  1  0
 14 15  1  0
 16 17  1  0
M  END
