
     RDKit          3D

 21 23  0  0  0  0  0  0  0  0999 V2000
    5.5990    0.1800    1.3940 C   0  0  0  0  0  0  0  0  0  0  0  0
    4.4560    0.9420    0.8610 C   0  0  0  0  0  0  0  0  0  0  0  0
    3.5100    0.3730    0.1370 C   0  0  0  0  0  0  0  0  0  0  0  0
    2.3750    1.1550   -0.3860 C   0  0  0  0  0  0  0  0  0  0  0  0
    1.4210    0.6030   -1.1110 C   0  0  0  0  0  0  0  0  0  0  0  0
    0.3790    1.3930   -1.5740 O   0  0  0  0  0  0  0  0  0  0  0  0
   -0.9490    1.1530   -1.2260 C   0  0  0  0  0  0  0  0  0  0  0  0
   -1.9790    1.9380   -1.6880 C   0  0  0  0  0  0  0  0  0  0  0  0
   -3.2850    1.6820   -1.3320 C   0  0  0  0  0  0  0  0  0  0  0  0
   -3.5860    0.6250   -0.4980 C   0  0  0  0  0  0  0  0  0  0  0  0
   -4.8700    0.3250   -0.1110 C   0  0  0  0  0  0  0  0  0  0  0  0
   -5.9150    1.1110   -0.5720 O   0  0  0  0  0  0  0  0  0  0  0  0
   -5.1340   -0.7460    0.7270 C   0  0  0  0  0  0  0  0  0  0  0  0
   -4.0680   -1.5090    1.1670 C   0  0  0  0  0  0  0  0  0  0  0  0
   -2.7740   -1.2440    0.8060 C   0  0  0  0  0  0  0  0  0  0  0  0
   -2.5500   -0.1600   -0.0380 C   0  0  0  0  0  0  0  0  0  0  0  0
   -1.2470    0.0950   -0.3930 C   0  0  0  0  0  0  0  0  0  0  0  0
    1.5030   -0.7810   -1.3840 N   0  0  0  0  0  0  0  0  0  0  0  0
    2.4550   -1.5330   -0.9680 C   0  0  0  0  0  0  0  0  0  0  0  0
    2.3820   -2.8780   -1.3290 O   0  0  0  0  0  0  0  0  0  0  0  0
    3.5780   -1.0690   -0.1590 C   0  0  0  0  0  0  0  0  0  0  0  0
  1  2  1  0
  2  3  2  3
  3  4  1  0
  3 21  1  0
  4  5  2  0
  5  6  1  0
  5 18  1  0
  6  7  1  0
  7  8  2  0
  7 17  1  0
  8  9  1  0
  9 10  2  0
 10 11  1  0
 10 16  1  0
 11 12  1  0
 11 13  2  0
 13 14  1  0
 14 15  2  0
 15 16  1  0
 16 17  2  0
 18 19  2  0
 19 20  1  0
 19 21  1  0
M  END
