
     RDKit          3D

 21 22  0  0  0  0  0  0  0  0999 V2000
   -3.4270    0.0670    1.7690 C   0  0  0  0  0  0  0  0  0  0  0  0
   -3.2800   -0.8790    0.8570 C   0  0  0  0  0  0  0  0  0  0  0  0
   -1.9570   -1.1330    0.2510 C   0  0  0  0  0  0  0  0  0  0  0  0
   -1.8650   -2.0850   -0.6510 C   0  0  0  0  0  0  0  0  0  0  0  0
   -3.0660   -2.8900   -1.0520 C   0  0  0  0  0  0  0  0  0  0  0  0
   -0.8460   -0.4140    0.5980 O   0  0  0  0  0  0  0  0  0  0  0  0
   -0.6220    0.8980    0.2310 C   0  0  0  0  0  0  0  0  0  0  0  0
   -1.5820    1.5540   -0.5480 C   0  0  0  0  0  0  0  0  0  0  0  0
   -1.3870    2.8660   -0.9320 C   0  0  0  0  0  0  0  0  0  0  0  0
   -0.2380    3.5220   -0.5400 C   0  0  0  0  0  0  0  0  0  0  0  0
   -0.0110    4.8730   -0.9200 N   0  0  0  0  0  0  0  0  0  0  0  0
    0.6970    2.8680    0.2240 C   0  0  0  0  0  0  0  0  0  0  0  0
    0.5280    1.5330    0.6310 C   0  0  0  0  0  0  0  0  0  0  0  0
    1.5140    0.9390    1.4010 O   0  0  0  0  0  0  0  0  0  0  0  0
    2.2330   -0.1850    1.0430 C   0  0  0  0  0  0  0  0  0  0  0  0
    1.9000   -1.4540    1.4580 C   0  0  0  0  0  0  0  0  0  0  0  0
    2.6500   -2.5740    1.0740 C   0  0  0  0  0  0  0  0  0  0  0  0
    3.7530   -2.4140    0.2600 C   0  0  0  0  0  0  0  0  0  0  0  0
    4.1090   -1.1590   -0.1700 C   0  0  0  0  0  0  0  0  0  0  0  0
    5.2260   -0.9560   -1.0010 O   0  0  0  0  0  0  0  0  0  0  0  0
    3.3620   -0.0930    0.2190 C   0  0  0  0  0  0  0  0  0  0  0  0
  1  2  2  0
  2  3  1  0
  3  4  2  3
  3  6  1  0
  4  5  1  0
  6  7  1  0
  7  8  2  0
  7 13  1  0
  8  9  1  0
  9 10  2  0
 10 11  1  0
 10 12  1  0
 12 13  2  0
 13 14  1  0
 14 15  1  0
 15 16  2  0
 15 21  1  0
 16 17  1  0
 17 18  2  0
 18 19  1  0
 19 20  1  0
 19 21  2  0
M  END
