
     RDKit          3D

 20 20  0  0  0  0  0  0  0  0999 V2000
   -2.8290   -2.6080    0.7530 C   0  0  0  0  0  0  0  0  0  0  0  0
   -1.3570   -2.6330    0.4940 C   0  0  1  0  0  0  0  0  0  0  0  0
   -1.0030   -3.9340    0.1380 O   0  0  0  0  0  0  0  0  0  0  0  0
   -0.9530   -1.7670   -0.6010 N   0  0  0  0  0  0  0  0  0  0  0  0
   -0.8740   -0.3920   -0.2370 C   0  0  2  0  0  0  0  0  0  0  0  0
   -1.7680    0.4990   -1.1120 C   0  0  1  0  0  0  0  0  0  0  0  0
   -2.9690   -0.0880   -1.3900 O   0  0  0  0  0  0  0  0  0  0  0  0
   -1.8710    1.7880   -0.3910 C   0  0  0  0  0  0  0  0  0  0  0  0
   -0.7620    2.2840    0.1180 C   0  0  0  0  0  0  0  0  0  0  0  0
   -0.8070    3.5470    0.8360 C   0  0  0  0  0  0  0  0  0  0  0  0
   -1.8950    4.1570    0.9690 O   0  0  0  0  0  0  0  0  0  0  0  0
    0.3440    4.0790    1.3730 O   0  0  0  0  0  0  0  0  0  0  0  0
    0.4250    1.5780   -0.0510 O   0  0  0  0  0  0  0  0  0  0  0  0
    0.5030    0.2020   -0.3590 C   0  0  1  0  0  0  0  0  0  0  0  0
    1.5080   -0.4570    0.5480 C   0  0  2  0  0  0  0  0  0  0  0  0
    1.0390   -0.2570    1.8680 O   0  0  0  0  0  0  0  0  0  0  0  0
    2.7940    0.3360    0.4490 C   0  0  2  0  0  0  0  0  0  0  0  0
    2.5140    1.6790    0.6970 O   0  0  0  0  0  0  0  0  0  0  0  0
    3.4360    0.2340   -0.9080 C   0  0  0  0  0  0  0  0  0  0  0  0
    4.6050    0.9810   -0.9040 O   0  0  0  0  0  0  0  0  0  0  0  0
  2  1  1  6
  2  3  1  0
  2  4  1  0
  5  4  1  6
  5  6  1  0
  5 14  1  0
  6  7  1  1
  6  8  1  0
  8  9  2  0
  9 10  1  0
  9 13  1  0
 10 11  2  0
 10 12  1  0
 14 13  1  1
 14 15  1  0
 15 16  1  1
 15 17  1  0
 17 18  1  6
 17 19  1  0
 19 20  1  0
M  CHG  1   4   1
M  END
