
     RDKit          3D

 21 23  0  0  0  0  0  0  0  0999 V2000
   -3.7390    3.3540    0.0650 C   0  0  0  0  0  0  0  0  0  0  0  0
   -2.6170    2.6620    0.5390 O   0  0  0  0  0  0  0  0  0  0  0  0
   -2.4420    1.3370    0.1670 C   0  0  0  0  0  0  0  0  0  0  0  0
   -3.3510    0.7030   -0.6540 C   0  0  0  0  0  0  0  0  0  0  0  0
   -3.2290   -0.6000   -1.0520 C   0  0  0  0  0  0  0  0  0  0  0  0
   -4.1950   -1.2990   -1.9340 C   0  0  0  0  0  0  0  0  0  0  0  0
   -2.1310   -1.3060   -0.5990 C   0  0  0  0  0  0  0  0  0  0  0  0
   -1.9230   -2.6400   -0.9530 O   0  0  0  0  0  0  0  0  0  0  0  0
   -1.2030   -0.6850    0.2300 C   0  0  0  0  0  0  0  0  0  0  0  0
   -1.3310    0.6120    0.6220 C   0  0  0  0  0  0  0  0  0  0  0  0
   -0.4650    1.2840    1.4280 O   0  0  0  0  0  0  0  0  0  0  0  0
    0.7080    0.8130    2.0050 C   0  0  0  0  0  0  0  0  0  0  0  0
    1.7380    0.3700    1.0320 C   0  0  0  0  0  0  0  0  0  0  0  0
    1.6700    0.6130   -0.3220 C   0  0  0  0  0  0  0  0  0  0  0  0
    2.6600    0.1750   -1.1820 C   0  0  0  0  0  0  0  0  0  0  0  0
    3.7580   -0.5310   -0.6840 C   0  0  0  0  0  0  0  0  0  0  0  0
    4.8800   -1.0900   -1.2440 C   0  0  0  0  0  0  0  0  0  0  0  0
    5.6230   -1.6670   -0.2460 C   0  0  0  0  0  0  0  0  0  0  0  0
    4.9840   -1.4770    0.9270 N   0  0  0  0  0  0  0  0  0  0  0  0
    3.8410   -0.7820    0.6690 C   0  0  0  0  0  0  0  0  0  0  0  0
    2.8350   -0.3290    1.4900 C   0  0  0  0  0  0  0  0  0  0  0  0
  1  2  1  0
  2  3  1  0
  3  4  2  0
  3 10  1  0
  4  5  1  0
  5  6  1  0
  5  7  2  0
  7  8  1  0
  7  9  1  0
  9 10  2  0
 10 11  1  0
 11 12  1  0
 12 13  1  0
 13 14  2  0
 13 21  1  0
 14 15  1  0
 15 16  2  0
 16 17  1  0
 16 20  1  0
 17 18  2  0
 18 19  1  0
 19 20  1  0
 20 21  2  0
M  END
