
     RDKit          3D

 21 22  0  0  0  0  0  0  0  0999 V2000
   -5.4780   -2.4080   -0.8080 C   0  0  0  0  0  0  0  0  0  0  0  0
   -5.5170   -0.9470   -0.8680 C   0  0  0  0  0  0  0  0  0  0  0  0
   -4.4850   -0.2240   -0.5390 C   0  0  0  0  0  0  0  0  0  0  0  0
   -3.2630   -0.8800   -0.0990 C   0  0  0  0  0  0  0  0  0  0  0  0
   -2.2250   -0.1260    0.2310 C   0  0  0  0  0  0  0  0  0  0  0  0
   -1.0680   -0.7610    0.6470 O   0  0  0  0  0  0  0  0  0  0  0  0
    0.0280   -1.0210   -0.2380 C   0  0  0  0  0  0  0  0  0  0  0  0
    1.0600   -1.7310    0.6540 C   0  0  0  0  0  0  0  0  0  0  0  0
    1.4040   -0.7420    1.7370 C   0  0  0  0  0  0  0  0  0  0  0  0
    1.9900    0.3600    1.1730 O   0  0  0  0  0  0  0  0  0  0  0  0
    3.2210    0.1190    0.5740 C   0  0  2  0  0  0  0  0  0  0  0  0
    4.3280    0.8460    1.3180 C   0  0  0  0  0  0  0  0  0  0  0  0
    5.6340    0.6250    0.6440 C   0  0  0  0  0  0  0  0  0  0  0  0
    5.5920    0.8600   -0.7290 O   0  0  0  0  0  0  0  0  0  0  0  0
    4.6790    0.0710   -1.3770 C   0  0  0  0  0  0  0  0  0  0  0  0
    3.2850    0.4740   -0.8690 C   0  0  0  0  0  0  0  0  0  0  0  0
   -2.2370    1.3270    0.1800 C   0  0  0  0  0  0  0  0  0  0  0  0
   -1.0210    2.1020    0.5710 C   0  0  0  0  0  0  0  0  0  0  0  0
   -3.3180    2.0190   -0.2120 C   0  0  0  0  0  0  0  0  0  0  0  0
   -4.4950    1.2480   -0.5890 C   0  0  0  0  0  0  0  0  0  0  0  0
   -5.5710    1.8410   -0.9760 N   0  0  0  0  0  0  0  0  0  0  0  0
  1  2  1  0
  2  3  2  3
  3  4  1  0
  3 20  1  0
  4  5  2  0
  5  6  1  0
  5 17  1  0
  6  7  1  0
  7  8  1  0
  8  9  1  0
  9 10  1  0
 11 10  1  1
 11 12  1  0
 11 16  1  0
 12 13  1  0
 13 14  1  0
 14 15  1  0
 15 16  1  0
 17 18  1  0
 17 19  2  0
 19 20  1  0
 20 21  2  0
M  END
