
     RDKit          3D

 21 22  0  0  0  0  0  0  0  0999 V2000
   -2.4820    4.1350    0.0550 C   0  0  0  0  0  0  0  0  0  0  0  0
   -1.6520    2.9250    0.5030 C   0  0  0  0  0  0  0  0  0  0  0  0
   -1.0320    2.2440   -0.6710 C   0  0  0  0  0  0  0  0  0  0  0  0
   -0.2360    1.0510   -0.2890 C   0  0  0  0  0  0  0  0  0  0  0  0
    1.1100    1.1180   -0.3260 C   0  0  0  0  0  0  0  0  0  0  0  0
    1.6960    2.3280   -0.7300 O   0  0  0  0  0  0  0  0  0  0  0  0
    1.9900    0.0320    0.0200 C   0  0  0  0  0  0  0  0  0  0  0  0
    3.3820    0.1520   -0.0330 C   0  0  0  0  0  0  0  0  0  0  0  0
    4.1950   -0.9080    0.3060 C   0  0  0  0  0  0  0  0  0  0  0  0
    5.5670   -0.7110    0.2280 O   0  0  0  0  0  0  0  0  0  0  0  0
    6.5270   -1.6780    0.5350 C   0  0  0  0  0  0  0  0  0  0  0  0
    3.6270   -2.0850    0.6960 C   0  0  0  0  0  0  0  0  0  0  0  0
    2.2490   -2.1940    0.7450 C   0  0  0  0  0  0  0  0  0  0  0  0
    1.4110   -1.1570    0.4140 C   0  0  0  0  0  0  0  0  0  0  0  0
   -0.0170   -1.2790    0.4670 N   0  0  0  0  0  0  0  0  0  0  0  0
   -0.8740   -0.1980    0.1220 C   0  0  0  0  0  0  0  0  0  0  0  0
   -2.1840   -0.3050    0.1000 C   0  0  0  0  0  0  0  0  0  0  0  0
   -2.9250   -1.4890    0.4870 C   0  0  0  0  0  0  0  0  0  0  0  0
   -4.2550   -1.5270    0.4390 C   0  0  0  0  0  0  0  0  0  0  0  0
   -4.9880   -2.7480    0.8400 C   0  0  0  0  0  0  0  0  0  0  0  0
   -4.9540   -0.4000    0.0060 O   0  0  0  0  0  0  0  0  0  0  0  0
  1  2  1  0
  2  3  1  0
  3  4  1  0
  4  5  2  0
  4 16  1  0
  5  6  1  0
  5  7  1  0
  7  8  2  0
  7 14  1  0
  8  9  1  0
  9 10  1  0
  9 12  2  0
 10 11  1  0
 12 13  1  0
 13 14  2  0
 14 15  1  0
 15 16  1  0
 16 17  2  3
 17 18  1  0
 18 19  2  3
 19 20  1  0
 19 21  1  0
M  END
