
     RDKit          3D

 19 20  0  0  0  0  0  0  0  0999 V2000
    7.8160    0.4760    0.8940 C   0  0  0  0  0  0  0  0  0  0  0  0
    6.4830   -0.0880    0.6540 C   0  0  0  0  0  0  0  0  0  0  0  0
    5.3790    0.6130    0.5720 C   0  0  0  0  0  0  0  0  0  0  0  0
    4.0900   -0.0420    0.3300 C   0  0  0  0  0  0  0  0  0  0  0  0
    3.0100    0.6970    0.2540 C   0  0  0  0  0  0  0  0  0  0  0  0
    1.6530    0.2770    0.0260 C   0  0  0  0  0  0  0  0  0  0  0  0
    0.6270    1.2200   -0.0210 C   0  0  0  0  0  0  0  0  0  0  0  0
   -0.6890    0.9140   -0.2330 C   0  0  0  0  0  0  0  0  0  0  0  0
   -1.0530   -0.4040   -0.4140 C   0  0  0  0  0  0  0  0  0  0  0  0
   -0.0530   -1.3500   -0.3710 C   0  0  0  0  0  0  0  0  0  0  0  0
    1.2700   -1.0340   -0.1580 C   0  0  0  0  0  0  0  0  0  0  0  0
    2.1880   -2.0570   -0.1330 O   0  0  0  0  0  0  0  0  0  0  0  0
   -2.3880   -0.7350   -0.6310 O   0  0  0  0  0  0  0  0  0  0  0  0
   -3.2390    0.3080   -1.0760 C   0  0  1  0  0  0  0  0  0  0  0  0
   -4.6850   -0.1270   -1.1180 C   0  0  0  0  0  0  0  0  0  0  0  0
   -5.1560   -0.5470    0.2490 C   0  0  0  0  0  0  0  0  0  0  0  0
   -6.5490   -0.9550    0.1580 N   0  0  0  0  0  0  0  0  0  0  0  0
   -3.0420    1.4630   -0.1060 C   0  0  0  0  0  0  0  0  0  0  0  0
   -1.6890    1.8840   -0.2740 O   0  0  0  0  0  0  0  0  0  0  0  0
  1  2  1  0
  2  3  2  3
  3  4  1  0
  4  5  2  3
  5  6  1  0
  6  7  2  0
  6 11  1  0
  7  8  1  0
  8  9  2  0
  8 19  1  0
  9 10  1  0
  9 13  1  0
 10 11  2  0
 11 12  1  0
 13 14  1  0
 14 15  1  1
 14 18  1  0
 15 16  1  0
 16 17  1  0
 18 19  1  0
M  CHG  1  17   1
M  END
