
     RDKit          3D

 19 20  0  0  0  0  0  0  0  0999 V2000
    6.0330    0.6820    0.9100 C   0  0  0  0  0  0  0  0  0  0  0  0
    5.8970   -0.5140   -0.0090 C   0  0  2  0  0  0  0  0  0  0  0  0
    6.8420   -0.4100   -1.0230 O   0  0  0  0  0  0  0  0  0  0  0  0
    4.5190   -0.5130   -0.6230 C   0  0  0  0  0  0  0  0  0  0  0  0
    4.1490   -1.2460   -1.7300 C   0  0  0  0  0  0  0  0  0  0  0  0
    2.8130   -0.9360   -1.9280 C   0  0  0  0  0  0  0  0  0  0  0  0
    2.4240   -0.0410   -0.9520 C   0  0  0  0  0  0  0  0  0  0  0  0
    1.0560    0.5660   -0.7840 C   0  0  0  0  0  0  0  0  0  0  0  0
    0.1840   -0.2600    0.0960 C   0  0  0  0  0  0  0  0  0  0  0  0
   -1.1610    0.3520    0.2600 C   0  0  1  0  0  0  0  0  0  0  0  0
   -0.9960    1.6410    0.8260 O   0  0  0  0  0  0  0  0  0  0  0  0
   -1.9890    0.4020   -0.9860 C   0  0  0  0  0  0  0  0  0  0  0  0
   -2.9600   -0.7410   -1.1350 C   0  0  0  0  0  0  0  0  0  0  0  0
   -4.1420   -0.6930   -0.2370 C   0  0  0  0  0  0  0  0  0  0  0  0
   -4.2410    0.5260    0.6260 C   0  0  1  0  0  0  0  0  0  0  0  0
   -5.5510    0.4950    1.2810 N   0  0  0  0  0  0  0  0  0  0  0  0
   -3.1380    0.5620    1.6610 C   0  0  0  0  0  0  0  0  0  0  0  0
   -2.0050   -0.3840    1.2950 C   0  0  0  0  0  0  0  0  0  0  0  0
    3.4820    0.1670   -0.2140 O   0  0  0  0  0  0  0  0  0  0  0  0
  2  1  1  1
  2  3  1  0
  2  4  1  0
  4  5  2  0
  4 19  1  0
  5  6  1  0
  6  7  2  0
  7  8  1  0
  7 19  1  0
  8  9  1  0
  9 10  1  0
 10 11  1  1
 10 12  1  0
 10 18  1  0
 12 13  1  0
 13 14  1  0
 14 15  1  0
 15 16  1  1
 15 17  1  0
 17 18  1  0
M  CHG  1  16   1
M  END
