
     RDKit          3D

 19 20  0  0  0  0  0  0  0  0999 V2000
    6.2220   -1.7730   -0.3120 C   0  0  0  0  0  0  0  0  0  0  0  0
    4.7410   -1.8540   -0.2420 C   0  0  0  0  0  0  0  0  0  0  0  0
    4.0830   -1.3500    0.7900 C   0  0  0  0  0  0  0  0  0  0  0  0
    2.7120   -1.4220    0.8600 O   0  0  0  0  0  0  0  0  0  0  0  0
    1.8950   -0.3920    0.4460 C   0  0  0  0  0  0  0  0  0  0  0  0
    0.5160   -0.5430    0.5500 C   0  0  0  0  0  0  0  0  0  0  0  0
   -0.3050    0.4680    0.1440 C   0  0  0  0  0  0  0  0  0  0  0  0
    0.2510    1.6240   -0.3630 C   0  0  0  0  0  0  0  0  0  0  0  0
    1.6180    1.7640   -0.4620 C   0  0  0  0  0  0  0  0  0  0  0  0
    2.4840    0.7500   -0.0560 C   0  0  0  0  0  0  0  0  0  0  0  0
    3.8680    0.8930   -0.1570 O   0  0  0  0  0  0  0  0  0  0  0  0
   -0.6350    2.7270   -0.8040 C   0  0  0  0  0  0  0  0  0  0  0  0
   -1.9490    2.3000   -1.3510 C   0  0  0  0  0  0  0  0  0  0  0  0
   -2.2390    0.8230   -1.2130 C   0  0  0  0  0  0  0  0  0  0  0  0
   -1.7860    0.4310    0.2010 C   0  0  1  0  0  0  0  0  0  0  0  0
   -2.3260   -0.8430    0.5310 N   0  0  0  0  0  0  0  0  0  0  0  0
   -3.7430   -0.6850    0.7950 C   0  0  0  0  0  0  0  0  0  0  0  0
   -4.5640   -1.6940    0.0110 C   0  0  0  0  0  0  0  0  0  0  0  0
   -5.9240   -1.5430    0.2640 O   0  0  0  0  0  0  0  0  0  0  0  0
  1  2  1  0
  2  3  2  3
  3  4  1  0
  4  5  1  0
  5  6  2  0
  5 10  1  0
  6  7  1  0
  7  8  2  0
  7 15  1  0
  8  9  1  0
  8 12  1  0
  9 10  2  0
 10 11  1  0
 12 13  1  0
 13 14  1  0
 14 15  1  0
 15 16  1  6
 16 17  1  0
 17 18  1  0
 18 19  1  0
M  CHG  1  16   1
M  END
