
     RDKit          3D

 19 20  0  0  0  0  0  0  0  0999 V2000
    4.7540    1.4630   -0.9240 C   0  0  0  0  0  0  0  0  0  0  0  0
    3.6830    0.4460   -1.0300 C   0  0  0  0  0  0  0  0  0  0  0  0
    2.6790    0.5060   -0.1880 C   0  0  0  0  0  0  0  0  0  0  0  0
    1.6310   -0.5840   -0.3760 C   0  0  0  0  0  0  0  0  0  0  0  0
    0.4190   -0.2680    0.0060 C   0  0  0  0  0  0  0  0  0  0  0  0
   -0.7890   -1.0140   -0.0290 C   0  0  0  0  0  0  0  0  0  0  0  0
   -1.9930   -0.7550    0.3810 C   0  0  0  0  0  0  0  0  0  0  0  0
   -2.8470    0.1850    1.0090 C   0  0  0  0  0  0  0  0  0  0  0  0
   -4.1510   -0.1770    1.1480 C   0  0  0  0  0  0  0  0  0  0  0  0
   -5.1790    0.6610    1.7700 C   0  0  0  0  0  0  0  0  0  0  0  0
   -4.7170    1.8770    2.2480 O   0  0  0  0  0  0  0  0  0  0  0  0
   -3.4190    2.2790    2.1310 C   0  0  0  0  0  0  0  0  0  0  0  0
   -2.5180    1.4610    1.5330 C   0  0  0  0  0  0  0  0  0  0  0  0
   -1.2230    2.0530    1.5260 N   0  0  0  0  0  0  0  0  0  0  0  0
   -0.7240   -2.3910   -0.7660 C   0  0  0  0  0  0  0  0  0  0  0  0
   -0.3000   -2.1740   -2.0560 O   0  0  0  0  0  0  0  0  0  0  0  0
    2.2620   -1.7790   -0.9110 C   0  0  0  0  0  0  0  0  0  0  0  0
    2.7170   -1.4230   -2.2070 O   0  0  0  0  0  0  0  0  0  0  0  0
    3.8060   -0.5650   -2.0960 C   0  0  0  0  0  0  0  0  0  0  0  0
  1  2  1  0
  2  3  2  0
  2 19  1  0
  3  4  1  0
  4  5  2  3
  4 17  1  0
  5  6  1  0
  6  7  2  3
  6 15  1  0
  7  8  1  0
  8  9  2  0
  8 13  1  0
  9 10  1  0
 10 11  1  0
 11 12  1  0
 12 13  2  0
 13 14  1  0
 15 16  1  0
 17 18  1  0
 18 19  1  0
M  END
