
     RDKit          3D

 10 11  0  0  0  0  0  0  0  0999 V2000
   -1.8970   -1.7090   -0.0410 N   0  0  0  0  0  0  0  0  0  0  0  0
   -1.2430   -0.4620    0.0510 C   0  0  0  0  0  0  0  0  0  0  0  0
   -1.9460    0.6680    0.2440 N   0  0  0  0  0  0  0  0  0  0  0  0
   -1.3100    1.8720    0.3330 C   0  0  0  0  0  0  0  0  0  0  0  0
    0.0350    1.9640    0.2290 N   0  0  0  0  0  0  0  0  0  0  0  0
    0.7870    0.8550    0.0340 C   0  0  0  0  0  0  0  0  0  0  0  0
    2.1030    0.6220   -0.1060 N   0  0  0  0  0  0  0  0  0  0  0  0
    2.3040   -0.6940   -0.2790 C   0  0  0  0  0  0  0  0  0  0  0  0
    1.0940   -1.2770   -0.2450 N   0  0  0  0  0  0  0  0  0  0  0  0
    0.1360   -0.3630   -0.0550 C   0  0  0  0  0  0  0  0  0  0  0  0
  1  2  1  0
  2  3  2  0
  2 10  1  0
  3  4  1  0
  4  5  2  0
  5  6  1  0
  6  7  1  0
  6 10  2  0
  7  8  1  0
  8  9  2  0
  9 10  1  0
M  END
