
     RDKit          3D

 20 20  0  0  0  0  0  0  0  0999 V2000
   -5.0020   -1.7540    0.0810 C   0  0  0  0  0  0  0  0  0  0  0  0
   -4.9210   -0.6310   -0.8770 C   0  0  0  0  0  0  0  0  0  0  0  0
   -3.6190    0.2290   -0.6920 C   0  0  1  0  0  0  0  0  0  0  0  0
   -3.6690    1.2260   -1.6460 O   0  0  0  0  0  0  0  0  0  0  0  0
   -3.8790    0.8770    0.6640 C   0  0  0  0  0  0  0  0  0  0  0  0
   -5.1840    1.6800    0.4800 C   0  0  0  0  0  0  0  0  0  0  0  0
   -2.4720   -0.6900   -0.7630 C   0  0  0  0  0  0  0  0  0  0  0  0
   -1.0800   -0.2100   -0.7070 C   0  0  2  0  0  0  0  0  0  0  0  0
   -0.1450   -1.4340   -0.7730 C   0  0  0  0  0  0  0  0  0  0  0  0
   -0.6880    0.6840    0.3970 C   0  0  0  0  0  0  0  0  0  0  0  0
    0.8060    1.0420    0.3410 C   0  0  0  0  0  0  0  0  0  0  0  0
    1.6260   -0.0870    0.4330 O   0  0  0  0  0  0  0  0  0  0  0  0
    2.9900    0.0950    0.3950 C   0  0  0  0  0  0  0  0  0  0  0  0
    3.8150   -1.0250    0.4860 C   0  0  0  0  0  0  0  0  0  0  0  0
    5.1860   -0.9200    0.4550 C   0  0  0  0  0  0  0  0  0  0  0  0
    6.0420   -2.1350    0.5550 C   0  0  0  0  0  0  0  0  0  0  0  0
    5.7290    0.3560    0.3280 C   0  0  0  0  0  0  0  0  0  0  0  0
    4.9490    1.4790    0.2360 C   0  0  0  0  0  0  0  0  0  0  0  0
    5.5830    2.8250    0.1010 C   0  0  0  0  0  0  0  0  0  0  0  0
    3.5740    1.3360    0.2710 C   0  0  0  0  0  0  0  0  0  0  0  0
  1  2  1  0
  2  3  1  0
  3  4  1  6
  3  5  1  0
  3  7  1  0
  5  6  1  0
  7  8  1  0
  8  9  1  1
  8 10  1  0
 10 11  1  0
 11 12  1  0
 12 13  1  0
 13 14  2  0
 13 20  1  0
 14 15  1  0
 15 16  1  0
 15 17  2  0
 17 18  1  0
 18 19  1  0
 18 20  2  0
M  END
