
     RDKit          3D

 20 20  0  0  0  0  0  0  0  0999 V2000
   -2.5470   -3.4310   -1.3550 C   0  0  0  0  0  0  0  0  0  0  0  0
   -1.8300   -2.1420   -1.5260 C   0  0  0  0  0  0  0  0  0  0  0  0
   -1.7590   -1.3590   -0.1810 C   0  0  2  0  0  0  0  0  0  0  0  0
   -3.2240   -1.1280    0.2140 C   0  0  0  0  0  0  0  0  0  0  0  0
   -3.4770   -0.4220    1.4690 C   0  0  0  0  0  0  0  0  0  0  0  0
   -1.1140   -0.0730   -0.5750 C   0  0  0  0  0  0  0  0  0  0  0  0
   -0.8100    0.9270    0.4810 C   0  0  2  0  0  0  0  0  0  0  0  0
   -0.2460    2.1360   -0.2730 C   0  0  0  0  0  0  0  0  0  0  0  0
    0.0850    3.3100    0.5700 C   0  0  0  0  0  0  0  0  0  0  0  0
    0.6210    4.4660   -0.3100 C   0  0  0  0  0  0  0  0  0  0  0  0
   -0.3410    4.8440   -1.2460 O   0  0  0  0  0  0  0  0  0  0  0  0
    0.1800    0.3890    1.5010 C   0  0  2  0  0  0  0  0  0  0  0  0
    0.4290    1.3520    2.4680 O   0  0  0  0  0  0  0  0  0  0  0  0
    1.4190   -0.1670    0.9410 C   0  0  0  0  0  0  0  0  0  0  0  0
    2.4420    0.5990    0.4400 C   0  0  0  0  0  0  0  0  0  0  0  0
    3.6290    0.0590   -0.0770 C   0  0  0  0  0  0  0  0  0  0  0  0
    3.7920   -1.3080   -0.0910 C   0  0  0  0  0  0  0  0  0  0  0  0
    5.0400   -1.9330   -0.6330 C   0  0  0  0  0  0  0  0  0  0  0  0
    2.7630   -2.0680    0.4120 C   0  0  0  0  0  0  0  0  0  0  0  0
    1.5870   -1.5350    0.9250 C   0  0  0  0  0  0  0  0  0  0  0  0
  1  2  1  0
  3  2  1  6
  3  4  1  0
  3  6  1  0
  4  5  1  0
  7  6  1  6
  7  8  1  0
  7 12  1  0
  8  9  1  0
  9 10  1  0
 10 11  1  0
 12 13  1  1
 12 14  1  0
 14 15  2  0
 14 20  1  0
 15 16  1  0
 16 17  2  0
 17 18  1  0
 17 19  1  0
 19 20  2  0
M  END
