
     RDKit          3D

 20 20  0  0  0  0  0  0  0  0999 V2000
   -5.0250    2.6380    0.1300 C   0  0  0  0  0  0  0  0  0  0  0  0
   -4.6990    1.1410    0.0430 C   0  0  0  0  0  0  0  0  0  0  0  0
   -3.2740    0.8940    0.4900 C   0  0  0  0  0  0  0  0  0  0  0  0
   -2.8980   -0.5520    0.4040 C   0  0  1  0  0  0  0  0  0  0  0  0
   -3.0140   -0.9900   -0.9330 O   0  0  0  0  0  0  0  0  0  0  0  0
   -1.4090   -0.7120    0.7200 C   0  0  0  0  0  0  0  0  0  0  0  0
   -0.5590    0.0350   -0.2400 C   0  0  0  0  0  0  0  0  0  0  0  0
    0.9360   -0.1800    0.0900 C   0  0  0  0  0  0  0  0  0  0  0  0
    1.7480    0.6110   -0.9300 C   0  0  0  0  0  0  0  0  0  0  0  0
    3.1860    0.4030   -0.6090 C   0  0  0  0  0  0  0  0  0  0  0  0
    3.8460   -0.6480   -1.1910 C   0  0  0  0  0  0  0  0  0  0  0  0
    5.1680   -0.8590   -0.9110 C   0  0  0  0  0  0  0  0  0  0  0  0
    5.9040   -2.0040   -1.5400 C   0  0  0  0  0  0  0  0  0  0  0  0
    5.8190   -0.0050   -0.0410 C   0  0  0  0  0  0  0  0  0  0  0  0
    5.1470    1.0430    0.5360 C   0  0  0  0  0  0  0  0  0  0  0  0
    5.8380    1.9730    1.4770 C   0  0  0  0  0  0  0  0  0  0  0  0
    3.8290    1.2610    0.2620 C   0  0  0  0  0  0  0  0  0  0  0  0
   -3.7010   -1.4400    1.3040 C   0  0  0  0  0  0  0  0  0  0  0  0
   -5.0230   -1.5470    1.0620 O   0  0  0  0  0  0  0  0  0  0  0  0
   -5.4490   -2.0800   -0.1180 C   0  0  0  0  0  0  0  0  0  0  0  0
  1  2  1  0
  2  3  1  0
  3  4  1  0
  4  5  1  6
  4  6  1  0
  4 18  1  0
  6  7  1  0
  7  8  1  0
  8  9  1  0
  9 10  1  0
 10 11  2  0
 10 17  1  0
 11 12  1  0
 12 13  1  0
 12 14  2  0
 14 15  1  0
 15 16  1  0
 15 17  2  0
 18 19  1  0
 19 20  1  0
M  END
