
     RDKit          3D

 20 20  0  0  0  0  0  0  0  0999 V2000
   -4.2220   -1.7440   -1.1790 C   0  0  0  0  0  0  0  0  0  0  0  0
   -3.5250   -0.6090   -0.5260 C   0  0  0  0  0  0  0  0  0  0  0  0
   -2.2640   -0.7630   -0.1640 C   0  0  0  0  0  0  0  0  0  0  0  0
   -1.5550   -2.0300   -0.4010 C   0  0  0  0  0  0  0  0  0  0  0  0
   -0.4560   -1.8200   -1.2170 O   0  0  0  0  0  0  0  0  0  0  0  0
    0.6130   -0.9950   -0.9360 C   0  0  0  0  0  0  0  0  0  0  0  0
    0.6000    0.3850   -1.4360 C   0  0  0  0  0  0  0  0  0  0  0  0
    1.6020   -1.4700   -0.2390 C   0  0  0  0  0  0  0  0  0  0  0  0
    2.7550   -0.6440    0.0890 C   0  0  0  0  0  0  0  0  0  0  0  0
    2.6470    0.6230    0.6080 C   0  0  0  0  0  0  0  0  0  0  0  0
    3.7620    1.4170    0.9020 C   0  0  0  0  0  0  0  0  0  0  0  0
    4.9900    0.8620    0.6420 C   0  0  0  0  0  0  0  0  0  0  0  0
    6.1950    1.6780    0.9400 C   0  0  0  0  0  0  0  0  0  0  0  0
    5.1700   -0.3910    0.1260 C   0  0  0  0  0  0  0  0  0  0  0  0
    6.5280   -0.8920   -0.1190 C   0  0  0  0  0  0  0  0  0  0  0  0
    4.0510   -1.1460   -0.1510 C   0  0  0  0  0  0  0  0  0  0  0  0
   -4.2310    0.6620   -0.2960 C   0  0  0  0  0  0  0  0  0  0  0  0
   -5.4450    0.5190    0.5780 C   0  0  0  0  0  0  0  0  0  0  0  0
   -6.0900    1.8800    0.7520 C   0  0  0  0  0  0  0  0  0  0  0  0
   -6.4750    2.4230   -0.4650 O   0  0  0  0  0  0  0  0  0  0  0  0
  1  2  1  0
  2  3  2  3
  2 17  1  0
  3  4  1  0
  4  5  1  0
  5  6  1  0
  6  7  1  0
  6  8  2  3
  8  9  1  0
  9 10  2  0
  9 16  1  0
 10 11  1  0
 11 12  2  0
 12 13  1  0
 12 14  1  0
 14 15  1  0
 14 16  2  0
 17 18  1  0
 18 19  1  0
 19 20  1  0
M  END
