
     RDKit          3D

 19 19  0  0  0  0  0  0  0  0999 V2000
   -5.3020    1.0120   -1.5390 C   0  0  0  0  0  0  0  0  0  0  0  0
   -5.1280    1.3260   -0.0930 C   0  0  0  0  0  0  0  0  0  0  0  0
   -3.7670    1.6670    0.3330 C   0  0  0  0  0  0  0  0  0  0  0  0
   -2.7160    0.6090    0.2530 C   0  0  2  0  0  0  0  0  0  0  0  0
   -2.4760    0.0860   -1.0890 C   0  0  0  0  0  0  0  0  0  0  0  0
   -1.3530   -0.9450   -1.0710 C   0  0  0  0  0  0  0  0  0  0  0  0
   -0.0730   -0.2840   -0.6430 C   0  0  0  0  0  0  0  0  0  0  0  0
    0.9920   -1.3620   -0.6600 C   0  0  1  0  0  0  0  0  0  0  0  0
    1.1270   -1.9150   -1.9390 O   0  0  0  0  0  0  0  0  0  0  0  0
    2.3440   -0.8450   -0.3050 C   0  0  0  0  0  0  0  0  0  0  0  0
    2.5580    0.3960    0.2470 C   0  0  0  0  0  0  0  0  0  0  0  0
    3.8540    0.8290    0.5600 C   0  0  0  0  0  0  0  0  0  0  0  0
    3.9930    2.1850    1.1540 C   0  0  0  0  0  0  0  0  0  0  0  0
    4.9370    0.0020    0.3140 C   0  0  0  0  0  0  0  0  0  0  0  0
    4.7530   -1.2490   -0.2390 C   0  0  0  0  0  0  0  0  0  0  0  0
    5.9050   -2.1680   -0.5170 C   0  0  0  0  0  0  0  0  0  0  0  0
    3.4780   -1.6350   -0.5300 C   0  0  0  0  0  0  0  0  0  0  0  0
   -3.0440   -0.3860    1.1900 O   0  0  0  0  0  0  0  0  0  0  0  0
   -2.2270   -0.4650    2.2760 C   0  0  0  0  0  0  0  0  0  0  0  0
  1  2  1  0
  2  3  1  0
  4  3  1  6
  4  5  1  0
  4 18  1  0
  5  6  1  0
  6  7  1  0
  7  8  1  0
  8  9  1  6
  8 10  1  0
 10 11  2  0
 10 17  1  0
 11 12  1  0
 12 13  1  0
 12 14  2  0
 14 15  1  0
 15 16  1  0
 15 17  2  0
 18 19  1  0
M  END
