
     RDKit          3D

 20 20  0  0  0  0  0  0  0  0999 V2000
    1.5460    2.0140   -2.2420 C   0  0  0  0  0  0  0  0  0  0  0  0
    2.2750    2.1960   -1.1590 C   0  0  0  0  0  0  0  0  0  0  0  0
    2.9710    1.0880   -0.5120 C   0  0  0  0  0  0  0  0  0  0  0  0
    3.6860    1.3810    0.5620 C   0  0  0  0  0  0  0  0  0  0  0  0
    2.9310   -0.2640   -1.0420 C   0  0  0  0  0  0  0  0  0  0  0  0
    1.7670   -0.9450   -1.1160 O   0  0  0  0  0  0  0  0  0  0  0  0
    1.1490   -1.2740    0.0800 C   0  0  2  0  0  0  0  0  0  0  0  0
    1.0880   -2.7750    0.2600 C   0  0  0  0  0  0  0  0  0  0  0  0
    0.4340   -3.1090    1.5630 C   0  0  0  0  0  0  0  0  0  0  0  0
    0.4690   -4.6400    1.6690 C   0  0  0  0  0  0  0  0  0  0  0  0
   -0.2460   -0.7570    0.0700 C   0  0  0  0  0  0  0  0  0  0  0  0
   -0.3350    0.6620   -0.1010 O   0  0  0  0  0  0  0  0  0  0  0  0
   -1.6000    1.2240   -0.1130 C   0  0  0  0  0  0  0  0  0  0  0  0
   -2.1420    1.6350    1.1090 C   0  0  0  0  0  0  0  0  0  0  0  0
   -1.3070    1.4310    2.3360 C   0  0  0  0  0  0  0  0  0  0  0  0
   -3.3970    2.2080    1.2100 C   0  0  0  0  0  0  0  0  0  0  0  0
   -4.1270    2.3740    0.0490 C   0  0  0  0  0  0  0  0  0  0  0  0
   -3.5920    1.9690   -1.1550 C   0  0  0  0  0  0  0  0  0  0  0  0
   -2.3280    1.3920   -1.2540 C   0  0  0  0  0  0  0  0  0  0  0  0
   -1.7870    0.9720   -2.5710 C   0  0  0  0  0  0  0  0  0  0  0  0
  1  2  2  0
  2  3  1  0
  3  4  2  0
  3  5  1  0
  5  6  1  0
  6  7  1  0
  7  8  1  6
  7 11  1  0
  8  9  1  0
  9 10  1  0
 11 12  1  0
 12 13  1  0
 13 14  2  0
 13 19  1  0
 14 15  1  0
 14 16  1  0
 16 17  2  0
 17 18  1  0
 18 19  2  0
 19 20  1  0
M  END
