
     RDKit          3D

 20 20  0  0  0  0  0  0  0  0999 V2000
    3.2600   -3.9130    0.2260 C   0  0  0  0  0  0  0  0  0  0  0  0
    3.1760   -2.5800    0.9210 C   0  0  0  0  0  0  0  0  0  0  0  0
    2.1790   -1.6600    0.2260 C   0  0  0  0  0  0  0  0  0  0  0  0
    2.1730   -0.3510    1.0040 C   0  0  0  0  0  0  0  0  0  0  0  0
    1.2350    0.6270    0.4170 C   0  0  0  0  0  0  0  0  0  0  0  0
    1.6830    1.7790   -0.0160 C   0  0  0  0  0  0  0  0  0  0  0  0
    3.1160    2.1540    0.0560 C   0  0  2  0  0  0  0  0  0  0  0  0
    3.5630    2.3230    1.3620 O   0  0  0  0  0  0  0  0  0  0  0  0
    3.3790    3.4130   -0.7740 C   0  0  0  0  0  0  0  0  0  0  0  0
    4.8310    3.7860   -0.6950 C   0  0  0  0  0  0  0  0  0  0  0  0
   -0.1130    0.3310    0.3230 O   0  0  0  0  0  0  0  0  0  0  0  0
   -0.6890    0.2050   -0.9550 C   0  0  0  0  0  0  0  0  0  0  0  0
   -2.1280   -0.1100   -0.7640 C   0  0  0  0  0  0  0  0  0  0  0  0
   -3.0540    0.9110   -0.6770 C   0  0  0  0  0  0  0  0  0  0  0  0
   -4.3980    0.6500   -0.4990 C   0  0  0  0  0  0  0  0  0  0  0  0
   -4.8740   -0.6420   -0.4020 C   0  0  0  0  0  0  0  0  0  0  0  0
   -6.3220   -0.9520   -0.2100 C   0  0  0  0  0  0  0  0  0  0  0  0
   -6.6970   -1.0300    1.2400 C   0  0  0  0  0  0  0  0  0  0  0  0
   -3.9430   -1.6590   -0.4900 C   0  0  0  0  0  0  0  0  0  0  0  0
   -2.5970   -1.4030   -0.6680 C   0  0  0  0  0  0  0  0  0  0  0  0
  1  2  1  0
  2  3  1  0
  3  4  1  0
  4  5  1  0
  5  6  2  3
  5 11  1  0
  6  7  1  0
  7  8  1  1
  7  9  1  0
  9 10  1  0
 11 12  1  0
 12 13  1  0
 13 14  2  0
 13 20  1  0
 14 15  1  0
 15 16  2  0
 16 17  1  0
 16 19  1  0
 17 18  1  0
 19 20  2  0
M  END
