
     RDKit          3D

 20 20  0  0  0  0  0  0  0  0999 V2000
    4.9140    0.7890   -1.2680 C   0  0  0  0  0  0  0  0  0  0  0  0
    4.8010   -0.0920   -0.0690 C   0  0  0  0  0  0  0  0  0  0  0  0
    4.2230    0.4020    1.1710 C   0  0  0  0  0  0  0  0  0  0  0  0
    2.7680    0.8310    1.2170 C   0  0  1  0  0  0  0  0  0  0  0  0
    2.5860    1.9800    0.2710 C   0  0  0  0  0  0  0  0  0  0  0  0
    1.9430   -0.3540    0.9010 C   0  0  0  0  0  0  0  0  0  0  0  0
    0.4670   -0.3090    0.9210 C   0  0  2  0  0  0  0  0  0  0  0  0
   -0.0100   -1.7180    0.5610 C   0  0  0  0  0  0  0  0  0  0  0  0
    0.5890   -2.6780    1.6100 C   0  0  0  0  0  0  0  0  0  0  0  0
   -0.2200    0.7240    0.1110 C   0  0  0  0  0  0  0  0  0  0  0  0
   -1.7080    0.6830    0.1450 C   0  0  0  0  0  0  0  0  0  0  0  0
   -2.4390    1.3840    1.0790 C   0  0  0  0  0  0  0  0  0  0  0  0
   -3.8230    1.3030    1.1280 C   0  0  0  0  0  0  0  0  0  0  0  0
   -4.5130    0.5130    0.2400 C   0  0  0  0  0  0  0  0  0  0  0  0
   -6.0000    0.4050    0.2650 C   0  0  0  0  0  0  0  0  0  0  0  0
   -6.5600    1.2100    1.2390 O   0  0  0  0  0  0  0  0  0  0  0  0
   -3.7960   -0.1910   -0.6970 C   0  0  0  0  0  0  0  0  0  0  0  0
   -2.3980   -0.1010   -0.7390 C   0  0  0  0  0  0  0  0  0  0  0  0
   -1.7460   -0.8200   -1.6990 O   0  0  0  0  0  0  0  0  0  0  0  0
   -2.4540   -1.6250   -2.6090 C   0  0  0  0  0  0  0  0  0  0  0  0
  1  2  1  0
  2  3  1  0
  3  4  1  0
  4  5  1  6
  4  6  1  0
  7  6  1  6
  7  8  1  0
  7 10  1  0
  8  9  1  0
 10 11  1  0
 11 12  2  0
 11 18  1  0
 12 13  1  0
 13 14  2  0
 14 15  1  0
 14 17  1  0
 15 16  1  0
 17 18  2  0
 18 19  1  0
 19 20  1  0
M  END
