
     RDKit          3D

 11 11  0  0  0  0  0  0  0  0999 V2000
    3.5510    0.1090    0.0560 C   0  0  0  0  0  0  0  0  0  0  0  0
    2.2620   -0.1510    0.5690 O   0  0  0  0  0  0  0  0  0  0  0  0
    1.1570    0.0880   -0.2160 C   0  0  0  0  0  0  0  0  0  0  0  0
    1.2780    0.5340   -1.3850 O   0  0  0  0  0  0  0  0  0  0  0  0
   -0.1900   -0.1760    0.3010 C   0  0  2  0  0  0  0  0  0  0  0  0
   -0.1130   -0.6840    1.6620 N   0  0  0  0  0  0  0  0  0  0  0  0
   -1.0050   -1.0610   -0.5910 C   0  0  0  0  0  0  0  0  0  0  0  0
   -2.3360   -0.5250   -0.6490 N   0  0  0  0  0  0  0  0  0  0  0  0
   -2.4240    0.4460    0.4280 C   0  0  0  0  0  0  0  0  0  0  0  0
   -1.0540    1.0840    0.3560 C   0  0  2  0  0  0  0  0  0  0  0  0
   -0.9410    1.7370   -0.8670 O   0  0  0  0  0  0  0  0  0  0  0  0
  1  2  1  0
  2  3  1  0
  3  4  2  0
  3  5  1  0
  5  6  1  1
  5  7  1  0
  5 10  1  0
  7  8  1  0
  8  9  1  0
  9 10  1  0
 10 11  1  6
M  END
