
     RDKit          3D

 11 11  0  0  0  0  0  0  0  0999 V2000
    3.1290   -0.5180    0.4110 C   0  0  0  0  0  0  0  0  0  0  0  0
    1.8250   -0.0810    0.1570 O   0  0  0  0  0  0  0  0  0  0  0  0
    0.6880   -0.5780    0.7450 C   0  0  0  0  0  0  0  0  0  0  0  0
    0.8010   -1.5030    1.5860 O   0  0  0  0  0  0  0  0  0  0  0  0
   -0.6210    0.0090    0.3530 C   0  0  2  0  0  0  0  0  0  0  0  0
   -0.6430    1.5120    0.6350 C   0  0  0  0  0  0  0  0  0  0  0  0
   -1.6860   -0.5860    1.0230 O   0  0  0  0  0  0  0  0  0  0  0  0
   -2.7700   -0.1790    0.2470 C   0  0  0  0  0  0  0  0  0  0  0  0
   -2.2380   -0.3850   -1.1070 N   0  0  0  0  0  0  0  0  0  0  0  0
   -0.9570   -0.2750   -1.0540 C   0  0  0  0  0  0  0  0  0  0  0  0
   -0.0780   -0.4070   -2.1550 N   0  0  0  0  0  0  0  0  0  0  0  0
  1  2  1  0
  2  3  1  0
  3  4  2  0
  3  5  1  0
  5  6  1  6
  5  7  1  0
  5 10  1  0
  7  8  1  0
  8  9  1  0
  9 10  2  0
 10 11  1  0
M  END
