
     RDKit          3D

 11 11  0  0  0  0  0  0  0  0999 V2000
   -2.0620   -1.4820    0.8210 C   0  0  0  0  0  0  0  0  0  0  0  0
   -1.1270   -0.3220    0.6000 C   0  0  2  0  0  0  0  0  0  0  0  0
   -1.7040    0.7120   -0.3400 C   0  0  0  0  0  0  0  0  0  0  0  0
   -0.8220    1.8790   -0.1360 N   0  0  0  0  0  0  0  0  0  0  0  0
    0.4410    1.5820   -0.3280 C   0  0  0  0  0  0  0  0  0  0  0  0
    1.4410    2.5350   -0.1870 O   0  0  0  0  0  0  0  0  0  0  0  0
    0.7120    0.1720   -0.7020 C   0  0  1  0  0  0  0  0  0  0  0  0
    2.1710   -0.1250   -0.6740 C   0  0  0  0  0  0  0  0  0  0  0  0
    2.6870   -1.2200    0.0670 N   0  0  0  0  0  0  0  0  0  0  0  0
    3.0090    0.5860   -1.3100 O   0  0  0  0  0  0  0  0  0  0  0  0
    0.0730   -0.7590    0.0710 O   0  0  0  0  0  0  0  0  0  0  0  0
  2  1  1  6
  2  3  1  0
  2 11  1  0
  3  4  1  0
  4  5  2  0
  5  6  1  0
  5  7  1  0
  7  8  1  1
  7 11  1  0
  8  9  1  0
  8 10  2  0
M  END
