
     RDKit          3D

 11 11  0  0  0  0  0  0  0  0999 V2000
    2.9700    0.2580    0.4040 N   0  0  0  0  0  0  0  0  0  0  0  0
    1.9370   -0.7000    0.3660 C   0  0  0  0  0  0  0  0  0  0  0  0
    2.2130   -1.9100    0.4590 O   0  0  0  0  0  0  0  0  0  0  0  0
    0.5620   -0.2600    0.2180 C   0  0  1  0  0  0  0  0  0  0  0  0
    0.3420    0.6800   -0.8970 C   0  0  0  0  0  0  0  0  0  0  0  0
   -0.7680    1.2170   -1.2510 N   0  0  0  0  0  0  0  0  0  0  0  0
   -2.0790    1.0500   -0.6660 C   0  0  0  0  0  0  0  0  0  0  0  0
   -2.5520    0.0020    0.0250 C   0  0  0  0  0  0  0  0  0  0  0  0
   -1.7410   -1.2050    0.3000 C   0  0  0  0  0  0  0  0  0  0  0  0
   -2.4460   -2.1940    0.6730 O   0  0  0  0  0  0  0  0  0  0  0  0
   -0.3660   -1.3550    0.1970 O   0  0  0  0  0  0  0  0  0  0  0  0
  1  2  1  0
  2  3  2  0
  4  2  1  6
  4  5  1  0
  4 11  1  0
  5  6  2  0
  6  7  1  0
  7  8  2  0
  8  9  1  0
  9 10  2  0
  9 11  1  0
M  END
