
     RDKit          3D

 11 11  0  0  0  0  0  0  0  0999 V2000
    4.2850   -0.0950   -0.0660 C   0  0  0  0  0  0  0  0  0  0  0  0
    3.0050    0.2860    0.4410 O   0  0  0  0  0  0  0  0  0  0  0  0
    1.8300   -0.2030   -0.0820 C   0  0  0  0  0  0  0  0  0  0  0  0
    1.9420   -1.0220   -1.0540 O   0  0  0  0  0  0  0  0  0  0  0  0
    0.5400    0.1590    0.4030 N   0  0  0  0  0  0  0  0  0  0  0  0
   -0.6700   -0.4050   -0.2070 C   0  0  1  0  0  0  0  0  0  0  0  0
   -1.5450   -1.0580    0.8390 C   0  0  0  0  0  0  0  0  0  0  0  0
   -2.6900   -0.2020    1.0280 N   0  0  0  0  0  0  0  0  0  0  0  0
   -2.1970    1.1060    0.6620 C   0  0  0  0  0  0  0  0  0  0  0  0
   -1.5080    0.7760   -0.6470 C   0  0  2  0  0  0  0  0  0  0  0  0
   -2.3970    0.3190   -1.6090 O   0  0  0  0  0  0  0  0  0  0  0  0
  1  2  1  0
  2  3  1  0
  3  4  2  0
  3  5  1  0
  6  5  1  1
  6  7  1  0
  6 10  1  0
  7  8  1  0
  8  9  1  0
  9 10  1  0
 10 11  1  6
M  END
