
     RDKit          3D

 16 17  0  0  0  0  0  0  0  0999 V2000
    3.6360    0.1590    1.6250 C   0  0  0  0  0  0  0  0  0  0  0  0
    3.3480    0.1140    0.1170 C   0  0  2  0  0  0  0  0  0  0  0  0
    3.9700   -1.1840   -0.3920 C   0  0  0  0  0  0  0  0  0  0  0  0
    4.0490    1.2900   -0.5080 C   0  0  0  0  0  0  0  0  0  0  0  0
    1.8780    0.1080   -0.1220 C   0  0  0  0  0  0  0  0  0  0  0  0
    1.2800    0.1630   -1.3090 N   0  0  0  0  0  0  0  0  0  0  0  0
   -0.0300    0.1310   -1.0560 N   0  0  0  0  0  0  0  0  0  0  0  0
   -0.2330    0.0540    0.2660 C   0  0  0  0  0  0  0  0  0  0  0  0
   -1.5080   -0.0090    0.9730 C   0  0  0  0  0  0  0  0  0  0  0  0
   -1.4740   -0.0760    2.2570 O   0  0  0  0  0  0  0  0  0  0  0  0
   -2.8210   -0.0110    0.3690 C   0  0  2  0  0  0  0  0  0  0  0  0
   -3.0190   -1.2350   -0.5460 C   0  0  0  0  0  0  0  0  0  0  0  0
   -4.4080   -0.9100   -1.0940 C   0  0  0  0  0  0  0  0  0  0  0  0
   -4.4680    0.6220   -0.9880 C   0  0  0  0  0  0  0  0  0  0  0  0
   -3.0870    1.0210   -0.6350 N   0  0  0  0  0  0  0  0  0  0  0  0
    0.9760    0.0460    0.7990 O   0  0  0  0  0  0  0  0  0  0  0  0
  2  1  1  1
  2  3  1  0
  2  4  1  0
  2  5  1  0
  5  6  2  0
  5 16  1  0
  6  7  1  0
  7  8  2  0
  8  9  1  0
  8 16  1  0
  9 10  2  0
 11  9  1  6
 11 12  1  0
 11 15  1  0
 12 13  1  0
 13 14  1  0
 14 15  1  0
M  CHG  1  15   1
M  END
