
     RDKit          3D

 11 11  0  0  0  0  0  0  0  0999 V2000
   -2.2220    0.6260   -0.7390 C   0  0  0  0  0  0  0  0  0  0  0  0
   -1.5540   -0.3870    0.1460 C   0  0  2  0  0  0  0  0  0  0  0  0
   -2.0500   -0.1400    1.5670 C   0  0  0  0  0  0  0  0  0  0  0  0
   -1.3700    0.9810    1.9410 O   0  0  0  0  0  0  0  0  0  0  0  0
   -0.2620    1.1170    1.2330 N   0  0  0  0  0  0  0  0  0  0  0  0
   -0.0810   -0.0130    0.3780 C   0  0  2  0  0  0  0  0  0  0  0  0
    0.5230    0.2450   -0.8640 N   0  0  0  0  0  0  0  0  0  0  0  0
    1.7330    0.3000   -1.1940 C   0  0  0  0  0  0  0  0  0  0  0  0
    2.0170    0.5850   -2.5460 O   0  0  0  0  0  0  0  0  0  0  0  0
    2.9050    0.1000   -0.3260 C   0  0  0  0  0  0  0  0  0  0  0  0
    2.5970   -0.1740    0.9790 O   0  0  0  0  0  0  0  0  0  0  0  0
  2  1  1  6
  2  3  1  0
  2  6  1  0
  3  4  1  0
  4  5  1  0
  5  6  1  0
  6  7  1  6
  7  8  2  3
  8  9  1  0
  8 10  1  0
 10 11  1  0
M  END
