
     RDKit          3D

 11 11  0  0  0  0  0  0  0  0999 V2000
   -2.6160   -1.8470    0.0610 C   0  0  0  0  0  0  0  0  0  0  0  0
   -1.3390   -1.3070    0.0530 O   0  0  0  0  0  0  0  0  0  0  0  0
   -0.9720    0.0130    0.1030 C   0  0  0  0  0  0  0  0  0  0  0  0
   -1.6980    1.1320    0.1820 N   0  0  0  0  0  0  0  0  0  0  0  0
   -0.8690    2.1760    0.2020 C   0  0  0  0  0  0  0  0  0  0  0  0
   -1.3040    3.3750    0.2750 O   0  0  0  0  0  0  0  0  0  0  0  0
    0.4130    1.7500    0.1360 N   0  0  0  0  0  0  0  0  0  0  0  0
    0.3690    0.4120    0.0740 C   0  0  0  0  0  0  0  0  0  0  0  0
    1.4960   -0.5570    0.0120 C   0  0  1  0  0  0  0  0  0  0  0  0
    2.8000    0.0500   -0.4020 C   0  0  0  0  0  0  0  0  0  0  0  0
    1.6280   -1.1900    1.2880 O   0  0  0  0  0  0  0  0  0  0  0  0
  1  2  1  0
  2  3  1  0
  3  4  1  0
  3  8  2  0
  4  5  1  0
  5  6  2  0
  5  7  1  0
  7  8  1  0
  8  9  1  0
  9 10  1  1
  9 11  1  0
M  END
