
     RDKit          3D

 29 32  0  0  0  0  0  0  0  0999 V2000
   -4.1580   -0.6410   -2.2730 C   0  0  0  0  0  0  0  0  0  0  0  0
   -4.1820    0.1800   -0.9830 C   0  0  1  0  0  0  0  0  0  0  0  0
   -5.6250    0.3700   -0.5430 C   0  0  0  0  0  0  0  0  0  0  0  0
   -5.8010   -0.4960    0.6630 C   0  0  2  0  0  0  0  0  0  0  0  0
   -6.0580   -1.9440    0.2850 C   0  0  0  0  0  0  0  0  0  0  0  0
   -6.8650    0.0030    1.6020 C   0  0  0  0  0  0  0  0  0  0  0  0
   -6.5270    1.4000    2.0030 C   0  0  0  0  0  0  0  0  0  0  0  0
   -5.0960    1.7170    2.1260 C   0  0  0  0  0  0  0  0  0  0  0  0
   -4.1810    0.7700    1.9510 O   0  0  0  0  0  0  0  0  0  0  0  0
   -4.4760   -0.3830    1.3080 C   0  0  2  0  0  0  0  0  0  0  0  0
   -3.5270   -0.5420    0.1410 C   0  0  2  0  0  0  0  0  0  0  0  0
   -1.8750    0.0290    0.5830 S   0  0  0  0  0  0  0  0  0  0  0  0
   -0.6840   -0.3030   -0.7000 C   0  0  1  0  0  0  0  0  0  0  0  0
   -0.7670    0.5410   -1.9200 C   0  0  0  0  0  0  0  0  0  0  0  0
    0.4830    0.2390   -2.7720 C   0  0  0  0  0  0  0  0  0  0  0  0
    1.7220    0.7920   -2.1180 C   0  0  0  0  0  0  0  0  0  0  0  0
    1.4290    0.9280   -0.6330 C   0  0  2  0  0  0  0  0  0  0  0  0
    2.6930    1.1930    0.1220 C   0  0  0  0  0  0  0  0  0  0  0  0
    2.7860    2.2670    0.7520 O   0  0  0  0  0  0  0  0  0  0  0  0
    3.7440    0.3170    0.1530 O   0  0  0  0  0  0  0  0  0  0  0  0
    4.9600    0.4930    0.8310 C   0  0  1  0  0  0  0  0  0  0  0  0
    5.2580   -0.6210    1.8100 C   0  0  0  0  0  0  0  0  0  0  0  0
    5.6090   -1.8680    1.0790 C   0  0  0  0  0  0  0  0  0  0  0  0
    7.0210   -1.9890    0.6260 C   0  0  0  0  0  0  0  0  0  0  0  0
    7.8940   -0.8060    0.9070 C   0  0  0  0  0  0  0  0  0  0  0  0
    7.4370    0.4870    0.3230 C   0  0  0  0  0  0  0  0  0  0  0  0
    6.0370    0.4580   -0.2340 C   0  0  2  0  0  0  0  0  0  0  0  0
    5.8950    1.5820   -1.0530 O   0  0  0  0  0  0  0  0  0  0  0  0
    0.7530   -0.3250   -0.1540 C   0  0  0  0  0  0  0  0  0  0  0  0
  2  1  1  6
  2  3  1  0
  2 11  1  0
  3  4  1  0
  4  5  1  6
  4  6  1  0
  4 10  1  0
  6  7  1  0
  7  8  1  0
  8  9  1  0
 10  9  1  6
 10 11  1  0
 11 12  1  1
 13 12  1  1
 13 14  1  0
 13 29  1  0
 14 15  1  0
 15 16  1  0
 16 17  1  0
 17 18  1  1
 17 29  1  0
 18 19  2  0
 18 20  1  0
 21 20  1  6
 21 22  1  0
 21 27  1  0
 22 23  1  0
 23 24  1  0
 24 25  1  0
 25 26  1  0
 26 27  1  0
 27 28  1  6
M  END
