
     RDKit          3D

 31 35  0  0  0  0  0  0  0  0999 V2000
   -8.4130    1.0950    1.4080 C   0  0  0  0  0  0  0  0  0  0  0  0
   -7.0050    1.0580    1.3230 O   0  0  0  0  0  0  0  0  0  0  0  0
   -6.4130    0.1900    0.4310 C   0  0  0  0  0  0  0  0  0  0  0  0
   -7.1950   -0.6190   -0.3560 C   0  0  0  0  0  0  0  0  0  0  0  0
   -6.5640   -1.4720   -1.2360 C   0  0  0  0  0  0  0  0  0  0  0  0
   -5.1870   -1.5180   -1.3260 C   0  0  0  0  0  0  0  0  0  0  0  0
   -4.3930   -0.6850   -0.5150 C   0  0  0  0  0  0  0  0  0  0  0  0
   -2.9580   -0.7760   -0.6350 C   0  0  0  0  0  0  0  0  0  0  0  0
   -2.3210   -1.5370   -1.5750 N   0  0  0  0  0  0  0  0  0  0  0  0
   -1.0000   -1.4210   -1.4650 C   0  0  0  0  0  0  0  0  0  0  0  0
    0.0760   -1.9780   -2.1670 C   0  0  0  0  0  0  0  0  0  0  0  0
    1.3320   -1.6270   -1.7710 C   0  0  0  0  0  0  0  0  0  0  0  0
    1.5810   -0.7740   -0.7410 C   0  0  0  0  0  0  0  0  0  0  0  0
    2.8720   -0.3740   -0.2860 N   0  0  0  0  0  0  0  0  0  0  0  0
    4.1170   -0.7670   -0.7940 C   0  0  0  0  0  0  0  0  0  0  0  0
    4.1630   -1.5590   -1.7570 O   0  0  0  0  0  0  0  0  0  0  0  0
    5.3850   -0.2820   -0.2340 C   0  0  0  0  0  0  0  0  0  0  0  0
    5.5740    0.5910    0.8210 C   0  0  0  0  0  0  0  0  0  0  0  0
    6.9340    0.7640    0.9990 C   0  0  0  0  0  0  0  0  0  0  0  0
    7.6520    1.5170    1.8970 C   0  0  0  0  0  0  0  0  0  0  0  0
    9.0400    1.4940    1.8350 C   0  0  0  0  0  0  0  0  0  0  0  0
    9.6460    0.7220    0.8830 C   0  0  0  0  0  0  0  0  0  0  0  0
    8.9030   -0.0270   -0.0080 C   0  0  0  0  0  0  0  0  0  0  0  0
    7.5100   -0.0260    0.0260 C   0  0  0  0  0  0  0  0  0  0  0  0
    6.5680   -0.6170   -0.6700 O   0  0  0  0  0  0  0  0  0  0  0  0
    0.4870   -0.2640   -0.0950 N   0  0  0  0  0  0  0  0  0  0  0  0
   -0.7500   -0.5590   -0.4240 C   0  0  0  0  0  0  0  0  0  0  0  0
   -1.9860   -0.1960    0.0460 N   0  0  0  0  0  0  0  0  0  0  0  0
   -5.0200    0.1530    0.3470 C   0  0  0  0  0  0  0  0  0  0  0  0
   -4.3250    0.9940    1.1640 O   0  0  0  0  0  0  0  0  0  0  0  0
   -4.0980    2.3190    0.6300 C   0  0  0  0  0  0  0  0  0  0  0  0
  1  2  1  0
  2  3  1  0
  3  4  2  0
  3 29  1  0
  4  5  1  0
  5  6  2  0
  6  7  1  0
  7  8  1  0
  7 29  2  0
  8  9  2  0
  8 28  1  0
  9 10  1  0
 10 11  2  0
 10 27  1  0
 11 12  1  0
 12 13  2  0
 13 14  1  0
 13 26  1  0
 14 15  1  0
 15 16  2  0
 15 17  1  0
 17 18  2  0
 17 25  1  0
 18 19  1  0
 19 20  2  0
 19 24  1  0
 20 21  1  0
 21 22  2  0
 22 23  1  0
 23 24  2  0
 24 25  1  0
 26 27  2  0
 27 28  1  0
 29 30  1  0
 30 31  1  0
M  END
