
     RDKit          3D

 29 32  0  0  0  0  0  0  0  0999 V2000
   -1.5260   -3.4680    1.0240 C   0  0  0  0  0  0  0  0  0  0  0  0
   -1.4250   -2.3800   -0.0630 C   0  0  0  0  0  0  0  0  0  0  0  0
   -0.2570   -1.5680    0.2060 C   0  0  0  0  0  0  0  0  0  0  0  0
    0.2000   -0.5040   -0.5270 C   0  0  0  0  0  0  0  0  0  0  0  0
   -0.5630   -0.2220   -1.6360 C   0  0  0  0  0  0  0  0  0  0  0  0
   -1.7190   -0.9830   -1.9490 C   0  0  0  0  0  0  0  0  0  0  0  0
   -2.1440   -2.0370   -1.1760 C   0  0  0  0  0  0  0  0  0  0  0  0
   -3.4500   -2.6560   -1.6020 C   0  0  0  0  0  0  0  0  0  0  0  0
   -4.6160   -1.7260   -1.5560 C   0  0  0  0  0  0  0  0  0  0  0  0
   -4.9020   -0.7600   -0.7440 C   0  0  0  0  0  0  0  0  0  0  0  0
   -4.2090   -0.2050    0.4320 C   0  0  0  0  0  0  0  0  0  0  0  0
   -3.4220    1.0560    0.1760 C   0  0  1  0  0  0  0  0  0  0  0  0
   -4.3630    2.2120    0.5750 C   0  0  0  0  0  0  0  0  0  0  0  0
   -3.7350    3.4420    0.3780 O   0  0  0  0  0  0  0  0  0  0  0  0
   -2.0560    1.1170    1.3660 S   0  0  0  0  0  0  0  0  0  0  0  0
   -0.8490    2.3290    0.8230 C   0  0  0  0  0  0  0  0  0  0  0  0
    0.5080    2.1490    1.3940 C   0  0  0  0  0  0  0  0  0  0  0  0
    0.9800    3.1060    2.0260 O   0  0  0  0  0  0  0  0  0  0  0  0
    1.3380    0.9390    1.2770 C   0  0  2  0  0  0  0  0  0  0  0  0
    2.7840    1.2600    1.5660 C   0  0  0  0  0  0  0  0  0  0  0  0
    3.6300    0.3410    0.6840 C   0  0  2  0  0  0  0  0  0  0  0  0
    4.6520    1.1230   -0.0600 C   0  0  0  0  0  0  0  0  0  0  0  0
    5.2500    0.4770   -1.2540 C   0  0  1  0  0  0  0  0  0  0  0  0
    6.6580   -0.0250   -1.0150 C   0  0  0  0  0  0  0  0  0  0  0  0
    4.5010   -0.5510   -1.8340 O   0  0  0  0  0  0  0  0  0  0  0  0
    3.1490   -0.6250   -1.5550 C   0  0  0  0  0  0  0  0  0  0  0  0
    2.2690   -0.8910   -2.4450 O   0  0  0  0  0  0  0  0  0  0  0  0
    2.6570   -0.3960   -0.1930 C   0  0  2  0  0  0  0  0  0  0  0  0
    1.3600    0.3670   -0.1300 C   0  0  1  0  0  0  0  0  0  0  0  0
  1  2  1  0
  2  3  1  0
  2  7  2  0
  3  4  2  0
  4  5  1  0
 29  4  1  1
  5  6  2  0
  6  7  1  0
  7  8  1  0
  8  9  1  0
  9 10  2  0
 10 11  1  0
 11 12  1  0
 12 13  1  1
 12 15  1  0
 13 14  1  0
 15 16  1  0
 16 17  1  0
 17 18  2  0
 17 19  1  0
 19 20  1  6
 19 29  1  0
 21 20  1  1
 21 22  1  0
 21 28  1  0
 22 23  1  0
 23 24  1  1
 23 25  1  0
 25 26  1  0
 26 27  2  0
 28 26  1  6
 28 29  1  0
M  END
