
     RDKit          3D

 31 35  0  0  0  0  0  0  0  0999 V2000
    1.6340    4.7060   -2.0450 C   0  0  0  0  0  0  0  0  0  0  0  0
    1.1870    3.7150   -1.0400 C   0  0  0  0  0  0  0  0  0  0  0  0
    1.2850    4.0380    0.2880 C   0  0  0  0  0  0  0  0  0  0  0  0
    0.8760    3.1170    1.2300 C   0  0  0  0  0  0  0  0  0  0  0  0
    0.3920    1.9300    0.8310 N   0  0  0  0  0  0  0  0  0  0  0  0
    0.2840    1.5860   -0.4760 C   0  0  0  0  0  0  0  0  0  0  0  0
   -0.2240    0.3160   -0.8290 N   0  0  0  0  0  0  0  0  0  0  0  0
    0.6490   -0.5830   -1.5590 C   0  0  0  0  0  0  0  0  0  0  0  0
    1.8990   -0.8990   -0.8000 C   0  0  0  0  0  0  0  0  0  0  0  0
    2.2120   -2.1190   -0.4590 C   0  0  0  0  0  0  0  0  0  0  0  0
    3.4400   -2.4420    0.2880 C   0  0  0  0  0  0  0  0  0  0  0  0
    3.9250   -3.5840    0.7170 C   0  0  0  0  0  0  0  0  0  0  0  0
    5.1810   -3.2860    1.3990 C   0  0  0  0  0  0  0  0  0  0  0  0
    5.3330   -1.8230    1.2910 C   0  0  0  0  0  0  0  0  0  0  0  0
    4.3120   -1.3420    0.6420 C   0  0  0  0  0  0  0  0  0  0  0  0
    3.9380    0.0450    0.2410 C   0  0  0  0  0  0  0  0  0  0  0  0
    2.7360    0.1270   -0.4550 O   0  0  0  0  0  0  0  0  0  0  0  0
   -1.5380   -0.0760   -0.4730 N   0  0  0  0  0  0  0  0  0  0  0  0
   -2.6450    0.7440   -0.7180 C   0  0  0  0  0  0  0  0  0  0  0  0
   -2.3370    1.8610   -1.3050 O   0  0  0  0  0  0  0  0  0  0  0  0
   -4.0350    0.4920   -0.3990 C   0  0  0  0  0  0  0  0  0  0  0  0
   -4.6150   -0.5040    0.1990 C   0  0  0  0  0  0  0  0  0  0  0  0
   -4.0900   -1.7310    0.7770 C   0  0  0  0  0  0  0  0  0  0  0  0
   -3.1680   -1.9650    1.7600 C   0  0  0  0  0  0  0  0  0  0  0  0
   -3.0140   -3.3320    1.9450 C   0  0  0  0  0  0  0  0  0  0  0  0
   -3.8910   -3.8820    1.0230 C   0  0  0  0  0  0  0  0  0  0  0  0
   -4.4870   -2.9290    0.3740 O   0  0  0  0  0  0  0  0  0  0  0  0
   -6.0410   -0.2710    0.2580 O   0  0  0  0  0  0  0  0  0  0  0  0
   -6.2710    1.0860    0.0320 C   0  0  0  0  0  0  0  0  0  0  0  0
   -5.1090    1.4310   -0.7480 N   0  0  0  0  0  0  0  0  0  0  0  0
    0.6810    2.4770   -1.4330 C   0  0  0  0  0  0  0  0  0  0  0  0
  1  2  1  0
  2  3  2  0
  2 31  1  0
  3  4  1  0
  4  5  2  0
  5  6  1  0
  6  7  1  0
  6 31  2  0
  7  8  1  0
  7 18  1  0
  8  9  1  0
  9 10  2  0
  9 17  1  0
 10 11  1  0
 11 12  2  0
 11 15  1  0
 12 13  1  0
 13 14  1  0
 14 15  2  0
 15 16  1  0
 16 17  1  0
 18 19  1  0
 19 20  2  0
 19 21  1  0
 21 22  2  0
 21 30  1  0
 22 23  1  0
 22 28  1  0
 23 24  2  0
 23 27  1  0
 24 25  1  0
 25 26  2  0
 26 27  1  0
 28 29  1  0
 29 30  1  0
M  END
