
     RDKit          3D

 31 35  0  0  0  0  0  0  0  0999 V2000
   -8.3370    1.7380   -2.0990 C   0  0  0  0  0  0  0  0  0  0  0  0
   -7.9910    0.7700   -0.9860 C   0  0  0  0  0  0  0  0  0  0  0  0
   -6.5050    0.5640   -0.8630 C   0  0  0  0  0  0  0  0  0  0  0  0
   -6.2630   -0.4080    0.2640 C   0  0  1  0  0  0  0  0  0  0  0  0
   -6.9210   -1.7420    0.0200 C   0  0  0  0  0  0  0  0  0  0  0  0
   -6.1280   -2.5560    0.9080 O   0  0  0  0  0  0  0  0  0  0  0  0
   -4.8170   -2.0500    0.7540 C   0  0  0  0  0  0  0  0  0  0  0  0
   -3.6160   -2.6940    0.9490 C   0  0  0  0  0  0  0  0  0  0  0  0
   -2.4230   -2.0330    0.7450 C   0  0  0  0  0  0  0  0  0  0  0  0
   -2.4410   -0.7040    0.3400 C   0  0  0  0  0  0  0  0  0  0  0  0
   -1.3680   -0.0050    0.1250 O   0  0  0  0  0  0  0  0  0  0  0  0
   -0.0970    0.2290    0.0520 C   0  0  0  0  0  0  0  0  0  0  0  0
    0.3980    1.5080   -0.3390 C   0  0  0  0  0  0  0  0  0  0  0  0
    1.7260    1.7640   -0.4190 C   0  0  0  0  0  0  0  0  0  0  0  0
    2.6700    0.8020   -0.1270 C   0  0  0  0  0  0  0  0  0  0  0  0
    4.0960    1.0800   -0.2140 C   0  0  0  0  0  0  0  0  0  0  0  0
    4.6200    2.2640   -0.5760 N   0  0  0  0  0  0  0  0  0  0  0  0
    5.9260    2.1890   -0.5550 O   0  0  0  0  0  0  0  0  0  0  0  0
    6.2870    0.9880   -0.1890 C   0  0  0  0  0  0  0  0  0  0  0  0
    7.6790    0.5330   -0.0530 C   0  0  0  0  0  0  0  0  0  0  0  0
    8.6840    1.3550   -0.3050 C   0  0  0  0  0  0  0  0  0  0  0  0
   10.0610    0.9210   -0.1740 C   0  0  0  0  0  0  0  0  0  0  0  0
   10.3080   -0.3090    0.2000 C   0  0  0  0  0  0  0  0  0  0  0  0
    9.2900   -1.3140    0.5080 C   0  0  0  0  0  0  0  0  0  0  0  0
    7.9750   -0.7900    0.3510 N   0  0  0  0  0  0  0  0  0  0  0  0
    5.1530    0.2890    0.0260 N   0  0  0  0  0  0  0  0  0  0  0  0
    2.2370   -0.4430    0.2530 C   0  0  0  0  0  0  0  0  0  0  0  0
    0.8900   -0.7050    0.3350 C   0  0  0  0  0  0  0  0  0  0  0  0
   -3.7190   -0.1150    0.1620 C   0  0  0  0  0  0  0  0  0  0  0  0
   -3.7560    1.0860   -0.2040 O   0  0  0  0  0  0  0  0  0  0  0  0
   -4.8530   -0.7720    0.3640 N   0  0  0  0  0  0  0  0  0  0  0  0
  1  2  1  0
  2  3  1  0
  4  3  1  6
  4  5  1  0
  4 31  1  0
  5  6  1  0
  6  7  1  0
  7  8  2  0
  7 31  1  0
  8  9  1  0
  9 10  2  0
 10 11  1  0
 10 29  1  0
 11 12  1  0
 12 13  2  0
 12 28  1  0
 13 14  1  0
 14 15  2  0
 15 16  1  0
 15 27  1  0
 16 17  2  0
 16 26  1  0
 17 18  1  0
 18 19  1  0
 19 20  1  0
 19 26  2  0
 20 21  2  0
 20 25  1  0
 21 22  1  0
 22 23  2  0
 23 24  1  0
 24 25  1  0
 27 28  2  0
 29 30  2  0
 29 31  1  0
M  END
