
     RDKit          3D

 29 33  0  0  0  0  0  0  0  0999 V2000
    4.4720   -0.6530   -1.8360 C   0  0  0  0  0  0  0  0  0  0  0  0
    3.5830   -0.5130   -0.6110 C   0  0  1  0  0  0  0  0  0  0  0  0
    4.5700   -0.2620    0.5470 C   0  0  0  0  0  0  0  0  0  0  0  0
    2.6820    0.6510   -0.7630 C   0  0  0  0  0  0  0  0  0  0  0  0
    1.6070    0.6890    0.3120 C   0  0  0  0  0  0  0  0  0  0  0  0
    1.1210    1.8760    0.8390 C   0  0  0  0  0  0  0  0  0  0  0  0
   -0.0370    1.4270    2.0970 S   0  0  0  0  0  0  0  0  0  0  0  0
    0.1990   -0.3820    1.8150 C   0  0  0  0  0  0  0  0  0  0  0  0
    1.1130   -0.4630    0.8280 C   0  0  0  0  0  0  0  0  0  0  0  0
    1.5300   -1.7440    0.1900 C   0  0  1  0  0  0  0  0  0  0  0  0
    0.5650   -2.1990   -0.8780 C   0  0  0  0  0  0  0  0  0  0  0  0
   -0.0700   -1.1760   -1.7140 C   0  0  0  0  0  0  0  0  0  0  0  0
   -1.4590   -1.3840   -1.9500 O   0  0  0  0  0  0  0  0  0  0  0  0
   -2.1480   -0.6970   -1.0370 C   0  0  1  0  0  0  0  0  0  0  0  0
   -2.8090    0.6190   -1.4630 C   0  0  0  0  0  0  0  0  0  0  0  0
   -3.4640    1.0020   -0.1920 C   0  0  2  0  0  0  0  0  0  0  0  0
   -2.9800    2.0890    0.6240 C   0  0  0  0  0  0  0  0  0  0  0  0
   -2.1140    3.0270    0.6200 C   0  0  0  0  0  0  0  0  0  0  0  0
   -1.0800    3.5000   -0.3250 C   0  0  0  0  0  0  0  0  0  0  0  0
    0.0620    4.0570    0.3460 O   0  0  0  0  0  0  0  0  0  0  0  0
    1.2620    3.2960    0.5090 C   0  0  0  0  0  0  0  0  0  0  0  0
    2.4010    3.7380    0.3910 O   0  0  0  0  0  0  0  0  0  0  0  0
   -3.6950   -0.3010    0.6110 C   0  0  2  0  0  0  0  0  0  0  0  0
   -2.8890   -0.4340    1.8210 C   0  0  0  0  0  0  0  0  0  0  0  0
   -2.0390   -1.5990    2.0030 C   0  0  0  0  0  0  0  0  0  0  0  0
   -0.6210   -1.2760    2.5260 C   0  0  0  0  0  0  0  0  0  0  0  0
   -0.4120   -1.9100    3.5800 O   0  0  0  0  0  0  0  0  0  0  0  0
   -3.3650   -1.3490   -0.4190 C   0  0  0  0  0  0  0  0  0  0  0  0
    2.9260   -1.8000   -0.2800 C   0  0  0  0  0  0  0  0  0  0  0  0
  2  1  1  6
  2  3  1  0
  2  4  1  0
  2 29  1  0
  4  5  1  0
  5  6  2  0
  5  9  1  0
  6  7  1  0
  6 21  1  0
  7  8  1  0
  8  9  2  0
  8 26  1  0
  9 10  1  0
 10 11  1  6
 10 29  1  0
 11 12  1  0
 12 13  1  0
 13 14  1  0
 14 15  1  6
 14 28  1  0
 16 15  1  6
 16 17  1  0
 16 23  1  0
 17 18  2  0
 18 19  1  0
 19 20  1  0
 20 21  1  0
 21 22  2  0
 23 24  1  1
 23 28  1  0
 24 25  1  0
 25 26  1  0
 26 27  2  0
M  END
