
     RDKit          3D

 19 21  0  0  0  0  0  0  0  0999 V2000
   -3.9790   -2.3310    0.3270 C   0  0  0  0  0  0  0  0  0  0  0  0
   -3.7750   -0.9940   -0.0540 O   0  0  0  0  0  0  0  0  0  0  0  0
   -2.4930   -0.4770   -0.0650 C   0  0  0  0  0  0  0  0  0  0  0  0
   -1.4410   -1.2670    0.2920 C   0  0  0  0  0  0  0  0  0  0  0  0
   -0.1650   -0.7330    0.2750 C   0  0  0  0  0  0  0  0  0  0  0  0
    0.9030   -1.4910    0.6250 N   0  0  0  0  0  0  0  0  0  0  0  0
    2.1590   -1.0090    0.6210 C   0  0  0  0  0  0  0  0  0  0  0  0
    2.4000    0.2680    0.2630 N   0  0  0  0  0  0  0  0  0  0  0  0
    1.3870    1.0830   -0.0980 C   0  0  0  0  0  0  0  0  0  0  0  0
    1.5670    2.2860   -0.4400 O   0  0  0  0  0  0  0  0  0  0  0  0
    0.1040    0.5700   -0.0880 C   0  0  0  0  0  0  0  0  0  0  0  0
   -0.9890    1.3440   -0.4450 C   0  0  0  0  0  0  0  0  0  0  0  0
   -2.2720    0.8540   -0.4420 C   0  0  0  0  0  0  0  0  0  0  0  0
   -3.3860    1.5830   -0.7880 O   0  0  0  0  0  0  0  0  0  0  0  0
   -3.3930    2.9190   -1.1920 C   0  0  0  0  0  0  0  0  0  0  0  0
    3.7250    0.8110    0.2490 C   0  0  0  0  0  0  0  0  0  0  0  0
    4.7570   -0.1570    0.6570 C   0  0  0  0  0  0  0  0  0  0  0  0
    4.5540   -1.3940    1.0080 C   0  0  0  0  0  0  0  0  0  0  0  0
    3.2150   -1.8810    1.0030 N   0  0  0  0  0  0  0  0  0  0  0  0
  1  2  1  0
  2  3  1  0
  3  4  2  0
  3 13  1  0
  4  5  1  0
  5  6  1  0
  5 11  2  0
  6  7  2  0
  7  8  1  0
  7 19  1  0
  8  9  1  0
  8 16  1  0
  9 10  2  0
  9 11  1  0
 11 12  1  0
 12 13  2  0
 13 14  1  0
 14 15  1  0
 16 17  1  0
 17 18  2  0
 18 19  1  0
M  END
