
     RDKit          3D

 19 21  0  0  0  0  0  0  0  0999 V2000
   -0.7550   -1.3520    0.6220 O   0  0  0  0  0  0  0  0  0  0  0  0
   -1.3240   -0.2520    0.5510 C   0  0  0  0  0  0  0  0  0  0  0  0
   -0.6310    0.9100    0.9560 N   0  0  0  0  0  0  0  0  0  0  0  0
    0.6900    0.9730    1.4440 C   0  0  0  0  0  0  0  0  0  0  0  0
    1.7740    0.5640    0.5430 C   0  0  0  0  0  0  0  0  0  0  0  0
    1.5450    0.2040   -0.6780 C   0  0  0  0  0  0  0  0  0  0  0  0
    2.5680   -0.2160   -1.6280 C   0  0  0  0  0  0  0  0  0  0  0  0
    3.9300   -0.1950   -1.0690 C   0  0  0  0  0  0  0  0  0  0  0  0
    5.0980   -0.4900   -1.5750 N   0  0  0  0  0  0  0  0  0  0  0  0
    6.1590   -0.3120   -0.6280 C   0  0  0  0  0  0  0  0  0  0  0  0
    5.4790    0.1520    0.5910 C   0  0  0  0  0  0  0  0  0  0  0  0
    4.1680    0.2110    0.3010 C   0  0  0  0  0  0  0  0  0  0  0  0
    3.0560    0.5740    1.0420 O   0  0  0  0  0  0  0  0  0  0  0  0
   -2.6560   -0.1710    0.0670 N   0  0  0  0  0  0  0  0  0  0  0  0
   -3.3800    1.0780   -0.0420 C   0  0  0  0  0  0  0  0  0  0  0  0
   -4.8630    0.7020   -0.1080 C   0  0  0  0  0  0  0  0  0  0  0  0
   -5.1030   -0.2630    0.8760 O   0  0  0  0  0  0  0  0  0  0  0  0
   -4.6260   -1.4920    0.4550 C   0  0  0  0  0  0  0  0  0  0  0  0
   -3.3490   -1.3740   -0.3430 C   0  0  0  0  0  0  0  0  0  0  0  0
  1  2  2  0
  2  3  1  0
  2 14  1  0
  3  4  1  0
  4  5  1  0
  5  6  2  0
  5 13  1  0
  6  7  1  0
  7  8  1  0
  8  9  2  0
  8 12  1  0
  9 10  1  0
 10 11  1  0
 11 12  2  0
 12 13  1  0
 14 15  1  0
 14 19  1  0
 15 16  1  0
 16 17  1  0
 17 18  1  0
 18 19  1  0
M  END
