
     RDKit          3D

 19 21  0  0  0  0  0  0  0  0999 V2000
    6.1390   -0.4030   -1.3490 O   0  0  0  0  0  0  0  0  0  0  0  0
    4.8600   -0.2970   -0.8370 C   0  0  0  0  0  0  0  0  0  0  0  0
    3.8080   -0.3800   -1.7320 C   0  0  0  0  0  0  0  0  0  0  0  0
    2.5210   -0.2780   -1.2490 C   0  0  0  0  0  0  0  0  0  0  0  0
    2.2710   -0.1000    0.0810 C   0  0  0  0  0  0  0  0  0  0  0  0
    0.8900    0.0010    0.5350 C   0  0  0  0  0  0  0  0  0  0  0  0
    0.5370    0.1820    1.8590 C   0  0  0  0  0  0  0  0  0  0  0  0
   -0.7950    0.2270    1.8870 N   0  0  0  0  0  0  0  0  0  0  0  0
   -1.2680    0.0810    0.6350 C   0  0  0  0  0  0  0  0  0  0  0  0
   -2.6850    0.0770    0.2650 C   0  0  0  0  0  0  0  0  0  0  0  0
   -3.0800   -0.0790   -1.0460 C   0  0  0  0  0  0  0  0  0  0  0  0
   -4.4420   -0.0770   -1.3630 C   0  0  0  0  0  0  0  0  0  0  0  0
   -5.4000    0.0780   -0.3840 C   0  0  0  0  0  0  0  0  0  0  0  0
   -4.9770    0.2270    0.8830 N   0  0  0  0  0  0  0  0  0  0  0  0
   -3.6600    0.2310    1.2280 C   0  0  0  0  0  0  0  0  0  0  0  0
   -3.2450    0.3870    2.5440 O   0  0  0  0  0  0  0  0  0  0  0  0
   -0.2200   -0.0490   -0.1240 O   0  0  0  0  0  0  0  0  0  0  0  0
    3.3390   -0.0220    0.9480 C   0  0  0  0  0  0  0  0  0  0  0  0
    4.5870   -0.1230    0.4560 N   0  0  0  0  0  0  0  0  0  0  0  0
  1  2  1  0
  2  3  2  0
  2 19  1  0
  3  4  1  0
  4  5  2  0
  5  6  1  0
  5 18  1  0
  6  7  2  0
  6 17  1  0
  7  8  1  0
  8  9  2  0
  9 10  1  0
  9 17  1  0
 10 11  2  0
 10 15  1  0
 11 12  1  0
 12 13  2  0
 13 14  1  0
 14 15  2  0
 15 16  1  0
 18 19  2  0
M  END
