
     RDKit          3D

 19 20  0  0  0  0  0  0  0  0999 V2000
   -4.5580    1.6220    0.3740 C   0  0  0  0  0  0  0  0  0  0  0  0
   -4.0570    0.2440    0.8270 C   0  0  2  0  0  0  0  0  0  0  0  0
   -5.0130   -0.7770    0.2820 C   0  0  0  0  0  0  0  0  0  0  0  0
   -4.0520    0.2760    2.3390 C   0  0  0  0  0  0  0  0  0  0  0  0
   -2.7190    0.0650    0.2510 C   0  0  0  0  0  0  0  0  0  0  0  0
   -1.9500   -1.0190    0.4210 N   0  0  0  0  0  0  0  0  0  0  0  0
   -0.8220   -0.8440   -0.2300 O   0  0  0  0  0  0  0  0  0  0  0  0
   -0.8280    0.3190   -0.8200 C   0  0  0  0  0  0  0  0  0  0  0  0
    0.2530    0.8840   -1.6460 C   0  0  0  0  0  0  0  0  0  0  0  0
    1.5380    0.6970   -1.1430 O   0  0  0  0  0  0  0  0  0  0  0  0
    2.1650   -0.4910   -0.8880 C   0  0  0  0  0  0  0  0  0  0  0  0
    1.5440   -1.5470   -1.1240 O   0  0  0  0  0  0  0  0  0  0  0  0
    3.5180   -0.4590   -0.3580 C   0  0  0  0  0  0  0  0  0  0  0  0
    4.1890    0.6450   -0.1040 C   0  0  0  0  0  0  0  0  0  0  0  0
    5.5040    0.6650    0.4110 N   0  0  0  0  0  0  0  0  0  0  0  0
    6.2270   -0.5350    0.7080 C   0  0  0  0  0  0  0  0  0  0  0  0
    5.4400   -1.7350    0.4080 C   0  0  0  0  0  0  0  0  0  0  0  0
    4.2170   -1.7050   -0.0740 C   0  0  0  0  0  0  0  0  0  0  0  0
   -2.0010    0.9090   -0.5370 N   0  0  0  0  0  0  0  0  0  0  0  0
  2  1  1  6
  2  3  1  0
  2  4  1  0
  2  5  1  0
  5  6  2  0
  5 19  1  0
  6  7  1  0
  7  8  1  0
  8  9  1  0
  8 19  2  0
  9 10  1  0
 10 11  1  0
 11 12  2  0
 11 13  1  0
 13 14  2  0
 13 18  1  0
 14 15  1  0
 15 16  1  0
 16 17  1  0
 17 18  2  0
M  END
