
     RDKit          3D

 28 28  0  0  0  0  0  0  0  0999 V2000
    5.3820    2.8610   -0.2720 C   0  0  0  0  0  0  0  0  0  0  0  0
    5.0530    1.8680    0.8280 C   0  0  0  0  0  0  0  0  0  0  0  0
    5.2880    0.4770    0.2510 C   0  0  0  0  0  0  0  0  0  0  0  0
    4.4110    0.2280   -0.9470 C   0  0  0  0  0  0  0  0  0  0  0  0
    2.9440    0.3210   -0.6360 C   0  0  0  0  0  0  0  0  0  0  0  0
    2.4950   -0.6720    0.4060 C   0  0  2  0  0  0  0  0  0  0  0  0
    2.7280   -2.0800    0.0120 C   0  0  0  0  0  0  0  0  0  0  0  0
    2.0940   -2.5700   -1.1970 C   0  0  0  0  0  0  0  0  0  0  0  0
    1.3770   -1.9520   -2.0090 O   0  0  0  0  0  0  0  0  0  0  0  0
    2.3130   -3.9610   -1.5170 N   0  0  0  0  0  0  0  0  0  0  0  0
    1.7760   -4.5170   -2.6070 O   0  0  0  0  0  0  0  0  0  0  0  0
    1.1740   -0.3360    0.9370 C   0  0  0  0  0  0  0  0  0  0  0  0
    1.0200   -0.3610    2.2090 O   0  0  0  0  0  0  0  0  0  0  0  0
    0.0350    0.0140    0.2090 N   0  0  0  0  0  0  0  0  0  0  0  0
   -1.2820    0.3360    0.8280 C   0  0  2  0  0  0  0  0  0  0  0  0
   -2.2470   -0.6960    0.5730 C   0  0  0  0  0  0  0  0  0  0  0  0
   -1.6200   -1.9280    0.7340 O   0  0  0  0  0  0  0  0  0  0  0  0
   -3.5430   -0.9020    0.2410 N   0  0  0  0  0  0  0  0  0  0  0  0
   -4.1060   -2.3340    0.3120 C   0  0  0  0  0  0  0  0  0  0  0  0
   -5.2160   -2.0040    1.3350 C   0  0  0  0  0  0  0  0  0  0  0  0
   -5.5970   -0.5250    1.0520 C   0  0  0  0  0  0  0  0  0  0  0  0
   -4.7190   -0.2800   -0.1920 C   0  0  1  0  0  0  0  0  0  0  0  0
   -4.8070    0.9910   -0.8140 C   0  0  0  0  0  0  0  0  0  0  0  0
   -3.8920    1.4120   -1.5420 O   0  0  0  0  0  0  0  0  0  0  0  0
   -5.9620    1.7800   -0.5930 O   0  0  0  0  0  0  0  0  0  0  0  0
   -1.4640    1.7780    0.7040 C   0  0  2  0  0  0  0  0  0  0  0  0
   -2.7130    2.3790    1.2600 C   0  0  0  0  0  0  0  0  0  0  0  0
   -1.1150    2.3630   -0.6700 C   0  0  0  0  0  0  0  0  0  0  0  0
  1  2  1  0
  2  3  1  0
  3  4  1  0
  4  5  1  0
  6  5  1  6
  6  7  1  0
  6 12  1  0
  7  8  1  0
  8  9  2  0
  8 10  1  0
 10 11  1  0
 12 13  2  0
 12 14  1  0
 15 14  1  6
 15 16  1  0
 15 26  1  0
 16 17  2  0
 16 18  1  0
 18 19  1  0
 18 22  1  0
 19 20  1  0
 20 21  1  0
 21 22  1  0
 22 23  1  1
 23 24  2  0
 23 25  1  0
 26 27  1  6
 26 28  1  0
M  END
