
     RDKit          3D

 19 21  0  0  0  0  0  0  0  0999 V2000
   -2.1320   -2.0500   -1.4130 C   0  0  0  0  0  0  0  0  0  0  0  0
   -2.9640   -1.1880   -0.8500 C   0  0  0  0  0  0  0  0  0  0  0  0
   -4.3910   -1.5170   -0.6940 C   0  0  0  0  0  0  0  0  0  0  0  0
   -5.0210   -0.7410    0.2660 O   0  0  0  0  0  0  0  0  0  0  0  0
   -4.7760    0.6080    0.1320 C   0  0  0  0  0  0  0  0  0  0  0  0
   -3.3420    0.9540    0.0900 C   0  0  0  0  0  0  0  0  0  0  0  0
   -2.4600    0.0890   -0.3840 C   0  0  0  0  0  0  0  0  0  0  0  0
   -1.0740    0.3920   -0.4380 N   0  0  0  0  0  0  0  0  0  0  0  0
   -0.4120    1.0310    0.6770 C   0  0  0  0  0  0  0  0  0  0  0  0
    1.0220    1.2310    0.3580 C   0  0  0  0  0  0  0  0  0  0  0  0
    1.5520    2.3170   -0.2360 N   0  0  0  0  0  0  0  0  0  0  0  0
    2.8760    2.1610   -0.3700 N   0  0  0  0  0  0  0  0  0  0  0  0
    3.1440    0.9540    0.1550 C   0  0  0  0  0  0  0  0  0  0  0  0
    4.4580    0.3140    0.2500 C   0  0  0  0  0  0  0  0  0  0  0  0
    4.7840   -0.9100    0.7740 C   0  0  0  0  0  0  0  0  0  0  0  0
    6.1380   -1.0680    0.6360 C   0  0  0  0  0  0  0  0  0  0  0  0
    6.6020   -0.0010    0.0620 O   0  0  0  0  0  0  0  0  0  0  0  0
    5.6640    0.8600   -0.1960 C   0  0  0  0  0  0  0  0  0  0  0  0
    2.0450    0.4190    0.5790 O   0  0  0  0  0  0  0  0  0  0  0  0
  1  2  2  0
  2  3  1  0
  2  7  1  0
  3  4  1  0
  4  5  1  0
  5  6  1  0
  6  7  2  0
  7  8  1  0
  8  9  1  0
  9 10  1  0
 10 11  2  0
 10 19  1  0
 11 12  1  0
 12 13  2  0
 13 14  1  0
 13 19  1  0
 14 15  1  0
 14 18  2  0
 15 16  2  0
 16 17  1  0
 17 18  1  0
M  END
