
     RDKit          3D

 13 13  0  0  0  0  0  0  0  0999 V2000
    3.6270    0.5890    1.1120 C   0  0  0  0  0  0  0  0  0  0  0  0
    2.6640   -0.3520    0.8280 O   0  0  0  0  0  0  0  0  0  0  0  0
    1.5110    0.2230    0.3200 C   0  0  2  0  0  0  0  0  0  0  0  0
    0.3270   -0.1900    1.1720 C   0  0  0  0  0  0  0  0  0  0  0  0
   -0.6780   -0.6200    0.0990 C   0  0  1  0  0  0  0  0  0  0  0  0
   -0.5530   -1.9870   -0.0330 O   0  0  0  0  0  0  0  0  0  0  0  0
   -2.0750   -0.1990    0.4700 C   0  0  2  0  0  0  0  0  0  0  0  0
   -2.1800    1.1640    0.5960 O   0  0  0  0  0  0  0  0  0  0  0  0
   -2.3610   -0.7600    1.7270 O   0  0  0  0  0  0  0  0  0  0  0  0
   -0.1210    0.1420   -1.0680 C   0  0  2  0  0  0  0  0  0  0  0  0
   -0.7310   -0.2080   -2.3810 C   0  0  0  0  0  0  0  0  0  0  0  0
   -2.0650    0.1920   -2.3550 O   0  0  0  0  0  0  0  0  0  0  0  0
    1.2290   -0.2160   -0.9760 O   0  0  0  0  0  0  0  0  0  0  0  0
  1  2  1  0
  3  2  1  1
  3  4  1  0
  3 13  1  0
  4  5  1  0
  5  6  1  6
  5  7  1  0
  5 10  1  0
  7  8  1  1
  7  9  1  0
 10 11  1  6
 10 13  1  0
 11 12  1  0
M  END
