
     RDKit          3D

 12 12  0  0  0  0  0  0  0  0999 V2000
    3.3300    0.4890    0.2250 O   0  0  0  0  0  0  0  0  0  0  0  0
    2.7150   -0.7710    0.2570 C   0  0  0  0  0  0  0  0  0  0  0  0
    1.4480   -0.7630   -0.6140 C   0  0  0  0  0  0  0  0  0  0  0  0
    0.5520    0.2750   -0.0370 C   0  0  1  0  0  0  0  0  0  0  0  0
    1.2600    1.5000   -0.0990 O   0  0  0  0  0  0  0  0  0  0  0  0
   -0.7320    0.5120   -0.7550 C   0  0  1  0  0  0  0  0  0  0  0  0
   -1.6330   -0.7000   -0.8460 C   0  0  1  0  0  0  0  0  0  0  0  0
   -1.0830   -1.8010   -1.4180 O   0  0  0  0  0  0  0  0  0  0  0  0
   -1.9740   -0.8570    0.6370 C   0  0  0  0  0  0  0  0  0  0  0  0
   -1.8030    0.3710    1.2210 O   0  0  0  0  0  0  0  0  0  0  0  0
   -1.5950    1.3300    0.2270 C   0  0  1  0  0  0  0  0  0  0  0  0
   -0.8320    2.3390    0.7620 O   0  0  0  0  0  0  0  0  0  0  0  0
  1  2  1  0
  2  3  1  0
  3  4  1  0
  4  5  1  6
  6  4  1  1
  6  7  1  0
  6 11  1  0
  7  8  1  1
  7  9  1  0
  9 10  1  0
 10 11  1  0
 11 12  1  1
M  END
