
     RDKit          3D

 13 13  0  0  0  0  0  0  0  0999 V2000
    3.7230    0.5880    1.0280 O   0  0  0  0  0  0  0  0  0  0  0  0
    2.6530   -0.2990    0.7900 C   0  0  0  0  0  0  0  0  0  0  0  0
    2.1580   -0.1520   -0.4930 O   0  0  0  0  0  0  0  0  0  0  0  0
    1.1190   -1.0310   -0.6860 C   0  0  2  0  0  0  0  0  0  0  0  0
    1.4750   -1.9720   -1.6620 O   0  0  0  0  0  0  0  0  0  0  0  0
   -0.1500   -0.3240   -1.1060 C   0  0  0  0  0  0  0  0  0  0  0  0
   -0.6150    0.6750   -0.0830 C   0  0  2  0  0  0  0  0  0  0  0  0
    0.3040    1.6620    0.1700 O   0  0  0  0  0  0  0  0  0  0  0  0
   -1.0860   -0.0740    1.1440 C   0  0  0  0  0  0  0  0  0  0  0  0
   -2.4170   -0.6130    0.6190 C   0  0  0  0  0  0  0  0  0  0  0  0
   -2.8500    0.2420   -0.3540 O   0  0  0  0  0  0  0  0  0  0  0  0
   -1.9690    1.2770   -0.5060 C   0  0  1  0  0  0  0  0  0  0  0  0
   -2.2640    2.2270    0.4930 O   0  0  0  0  0  0  0  0  0  0  0  0
  1  2  1  0
  2  3  1  0
  3  4  1  0
  4  5  1  6
  4  6  1  0
  6  7  1  0
  7  8  1  1
  7  9  1  0
  7 12  1  0
  9 10  1  0
 10 11  1  0
 11 12  1  0
 12 13  1  1
M  END
