
     RDKit          3D

 13 13  0  0  0  0  0  0  0  0999 V2000
    3.5230   -0.6770    1.1850 O   0  0  0  0  0  0  0  0  0  0  0  0
    3.1300    0.0580    0.0720 C   0  0  0  0  0  0  0  0  0  0  0  0
    2.0010   -0.4230   -0.5390 O   0  0  0  0  0  0  0  0  0  0  0  0
    0.8850   -0.4540    0.2530 C   0  0  2  0  0  0  0  0  0  0  0  0
    0.2340   -1.8080    0.3320 C   0  0  0  0  0  0  0  0  0  0  0  0
   -1.1110   -1.4690    0.5060 O   0  0  0  0  0  0  0  0  0  0  0  0
   -1.3120   -0.6010   -0.5640 C   0  0  1  0  0  0  0  0  0  0  0  0
   -2.6830   -0.0050   -0.5850 C   0  0  0  0  0  0  0  0  0  0  0  0
   -3.5940   -1.0840   -0.6840 O   0  0  0  0  0  0  0  0  0  0  0  0
   -0.2010    0.3630   -0.4360 C   0  0  2  0  0  0  0  0  0  0  0  0
    0.2100    0.7830   -1.6880 O   0  0  0  0  0  0  0  0  0  0  0  0
   -0.4950    1.5680    0.4050 C   0  0  0  0  0  0  0  0  0  0  0  0
   -1.5030    2.3280   -0.1860 O   0  0  0  0  0  0  0  0  0  0  0  0
  1  2  1  0
  2  3  1  0
  4  3  1  6
  4  5  1  0
  4 10  1  0
  5  6  1  0
  6  7  1  0
  7  8  1  1
  7 10  1  0
  8  9  1  0
 10 11  1  6
 10 12  1  0
 12 13  1  0
M  END
