
     RDKit          3D

 13 13  0  0  0  0  0  0  0  0999 V2000
    2.3720    1.4080    1.6210 O   0  0  0  0  0  0  0  0  0  0  0  0
    2.4300    0.9030    0.4810 C   0  0  0  0  0  0  0  0  0  0  0  0
    3.6090    0.9300   -0.2450 O   0  0  0  0  0  0  0  0  0  0  0  0
    1.2270    0.2750   -0.0890 C   0  0  1  0  0  0  0  0  0  0  0  0
    1.4840   -1.1900   -0.3910 C   0  0  0  0  0  0  0  0  0  0  0  0
    0.3280   -1.9240   -0.2330 O   0  0  0  0  0  0  0  0  0  0  0  0
   -0.8030   -1.2610   -0.7340 C   0  0  1  0  0  0  0  0  0  0  0  0
   -1.7970   -2.2140   -0.8690 O   0  0  0  0  0  0  0  0  0  0  0  0
   -1.1720   -0.1380    0.1850 C   0  0  2  0  0  0  0  0  0  0  0  0
   -2.0540   -0.5660    1.1690 O   0  0  0  0  0  0  0  0  0  0  0  0
   -1.8750    0.9640   -0.5890 C   0  0  0  0  0  0  0  0  0  0  0  0
   -2.2020    2.0200    0.2590 O   0  0  0  0  0  0  0  0  0  0  0  0
    0.0710    0.3550    0.8610 C   0  0  0  0  0  0  0  0  0  0  0  0
  1  2  2  0
  2  3  1  0
  4  2  1  1
  4  5  1  0
  4 13  1  0
  5  6  1  0
  6  7  1  0
  7  8  1  1
  7  9  1  0
  9 10  1  1
  9 11  1  0
  9 13  1  0
 11 12  1  0
M  END
