
     RDKit          3D

 13 13  0  0  0  0  0  0  0  0999 V2000
    3.4430   -1.1720    0.3920 O   0  0  0  0  0  0  0  0  0  0  0  0
    2.9120   -0.0630   -0.2920 C   0  0  0  0  0  0  0  0  0  0  0  0
    1.5680   -0.2550   -0.5730 O   0  0  0  0  0  0  0  0  0  0  0  0
    0.8440   -0.4300    0.5820 C   0  0  2  0  0  0  0  0  0  0  0  0
    0.2190   -1.6850    0.4900 O   0  0  0  0  0  0  0  0  0  0  0  0
   -0.5880   -1.4880   -0.6360 C   0  0  0  0  0  0  0  0  0  0  0  0
   -1.3330   -0.2210   -0.2640 C   0  0  1  0  0  0  0  0  0  0  0  0
   -1.7310    0.5160   -1.3520 O   0  0  0  0  0  0  0  0  0  0  0  0
   -2.5450   -0.6020    0.5780 C   0  0  0  0  0  0  0  0  0  0  0  0
   -3.3970   -1.3490   -0.2080 O   0  0  0  0  0  0  0  0  0  0  0  0
   -0.3340    0.4850    0.6170 C   0  0  2  0  0  0  0  0  0  0  0  0
   -0.0460    1.8720    0.1120 C   0  0  0  0  0  0  0  0  0  0  0  0
    0.9340    2.5030    0.8490 O   0  0  0  0  0  0  0  0  0  0  0  0
  1  2  1  0
  2  3  1  0
  4  3  1  6
  4  5  1  0
  4 11  1  0
  5  6  1  0
  6  7  1  0
  7  8  1  6
  7  9  1  0
  7 11  1  0
  9 10  1  0
 11 12  1  6
 12 13  1  0
M  END
