
     RDKit          3D

 20 22  0  0  0  0  0  0  0  0999 V2000
   -1.6990   -2.2660    0.3210 C   0  0  0  0  0  0  0  0  0  0  0  0
   -2.1300   -0.8700    0.0470 C   0  0  0  0  0  0  0  0  0  0  0  0
   -3.1150   -0.3950    0.8650 N   0  0  0  0  0  0  0  0  0  0  0  0
   -3.6000    0.8300    0.7100 C   0  0  0  0  0  0  0  0  0  0  0  0
   -4.5210    1.2490    1.4910 O   0  0  0  0  0  0  0  0  0  0  0  0
   -3.1080    1.6050   -0.2660 N   0  0  0  0  0  0  0  0  0  0  0  0
   -3.6390    2.9440   -0.4300 C   0  0  0  0  0  0  0  0  0  0  0  0
   -2.1390    1.1860   -1.0970 C   0  0  0  0  0  0  0  0  0  0  0  0
   -1.6560    1.8840   -2.0210 O   0  0  0  0  0  0  0  0  0  0  0  0
   -1.6060   -0.1000   -0.9600 C   0  0  0  0  0  0  0  0  0  0  0  0
   -0.5360   -0.6070   -1.8110 C   0  0  0  0  0  0  0  0  0  0  0  0
    0.7600   -0.5160   -1.1640 C   0  0  0  0  0  0  0  0  0  0  0  0
    1.5540   -1.2180   -0.4190 N   0  0  0  0  0  0  0  0  0  0  0  0
    2.7110   -0.7710   -0.0050 C   0  0  0  0  0  0  0  0  0  0  0  0
    3.6470   -1.4650    0.8150 C   0  0  0  0  0  0  0  0  0  0  0  0
    4.8300   -0.8660    1.1760 C   0  0  0  0  0  0  0  0  0  0  0  0
    5.2030    0.3860    0.8030 C   0  0  0  0  0  0  0  0  0  0  0  0
    4.2980    1.0890   -0.0040 C   0  0  0  0  0  0  0  0  0  0  0  0
    3.1400    0.4760   -0.3450 C   0  0  0  0  0  0  0  0  0  0  0  0
    1.7180    1.0420   -1.3640 S   0  0  0  0  0  0  0  0  0  0  0  0
  1  2  1  0
  2  3  1  0
  2 10  2  0
  3  4  1  0
  4  5  2  0
  4  6  1  0
  6  7  1  0
  6  8  1  0
  8  9  2  0
  8 10  1  0
 10 11  1  0
 11 12  1  0
 12 13  2  0
 12 20  1  0
 13 14  1  0
 14 15  2  0
 14 19  1  0
 15 16  1  0
 16 17  2  0
 17 18  1  0
 18 19  2  0
 19 20  1  0
M  CHG  1  13   1
M  END
