
     RDKit          3D

 20 21  0  0  0  0  0  0  0  0999 V2000
    4.2290    2.7950   -0.0830 C   0  0  0  0  0  0  0  0  0  0  0  0
    4.3240    1.3260    0.2530 C   0  0  0  0  0  0  0  0  0  0  0  0
    2.8790    0.7810    1.2160 S   0  0  0  0  0  0  0  0  0  0  0  0
    3.0450   -0.9460    1.5810 C   0  0  0  0  0  0  0  0  0  0  0  0
    2.0670   -1.7950    1.3700 C   0  0  0  0  0  0  0  0  0  0  0  0
    2.1860   -3.2050    1.6620 C   0  0  0  0  0  0  0  0  0  0  0  0
    3.2720   -3.6820    2.1440 O   0  0  0  0  0  0  0  0  0  0  0  0
    1.0810   -4.0470    1.4030 N   0  0  0  0  0  0  0  0  0  0  0  0
   -0.0280   -3.6090    0.9210 C   0  0  0  0  0  0  0  0  0  0  0  0
   -0.2660   -2.2100    0.5890 N   0  0  0  0  0  0  0  0  0  0  0  0
   -1.5500   -1.8450    0.1540 C   0  0  0  0  0  0  0  0  0  0  0  0
   -2.2060   -0.7400    0.0260 C   0  0  0  0  0  0  0  0  0  0  0  0
   -1.8660    0.6240    0.3080 C   0  0  0  0  0  0  0  0  0  0  0  0
   -2.2180    1.5190   -0.6140 C   0  0  0  0  0  0  0  0  0  0  0  0
   -1.8870    2.9300   -0.3660 C   0  0  0  0  0  0  0  0  0  0  0  0
   -2.9370    1.1330   -1.8490 C   0  0  0  0  0  0  0  0  0  0  0  0
   -3.3450   -0.2900   -1.9110 C   0  0  0  0  0  0  0  0  0  0  0  0
   -3.5360   -0.8540   -0.5920 N   0  0  0  0  0  0  0  0  0  0  0  0
    0.7880   -1.2980    0.8130 C   0  0  0  0  0  0  0  0  0  0  0  0
    0.7000   -0.0770    0.5550 O   0  0  0  0  0  0  0  0  0  0  0  0
  1  2  1  0
  2  3  1  0
  3  4  1  0
  4  5  2  3
  5  6  1  0
  5 19  1  0
  6  7  2  0
  6  8  1  0
  8  9  2  0
  9 10  1  0
 10 11  1  0
 10 19  1  0
 11 12  2  3
 12 13  1  0
 12 18  1  0
 13 14  2  0
 14 15  1  0
 14 16  1  0
 16 17  1  0
 17 18  1  0
 19 20  2  0
M  CHG  1  18   1
M  END
