
     RDKit          3D

 32 37  0  0  0  0  0  0  0  0999 V2000
    1.8430    2.6580    2.8970 O   0  0  0  0  0  0  0  0  0  0  0  0
    1.8430    2.1570    1.7500 C   0  0  0  0  0  0  0  0  0  0  0  0
    0.7500    1.4330    1.2160 N   0  0  0  0  0  0  0  0  0  0  0  0
    1.0020    0.8640   -0.1970 C   0  0  2  0  0  0  0  0  0  0  0  0
    0.7260    2.0650   -0.9550 C   0  0  0  0  0  0  0  0  0  0  0  0
    1.4940    2.9700   -1.4160 O   0  0  0  0  0  0  0  0  0  0  0  0
   -0.6940    2.1260   -1.1510 O   0  0  0  0  0  0  0  0  0  0  0  0
   -1.2540    0.9040   -0.8530 C   0  0  0  0  0  0  0  0  0  0  0  0
   -2.4360    0.2600   -0.8370 C   0  0  0  0  0  0  0  0  0  0  0  0
   -3.5190    1.0260   -1.2340 O   0  0  0  0  0  0  0  0  0  0  0  0
   -4.7610    0.9420   -0.5890 C   0  0  1  0  0  0  0  0  0  0  0  0
   -5.6850    1.6280   -1.3750 O   0  0  0  0  0  0  0  0  0  0  0  0
   -6.2190    2.6000   -0.7000 O   0  0  0  0  0  0  0  0  0  0  0  0
   -5.2910   -0.8050   -0.3930 P   0  0  0  0  0  0  0  0  0  0  0  0
   -3.8260   -1.7920   -0.4500 N   0  0  0  0  0  0  0  0  0  0  0  0
   -2.6430   -1.1060   -0.4730 N   0  0  0  0  0  0  0  0  0  0  0  0
   -1.4950   -1.8810   -0.0850 C   0  0  0  0  0  0  0  0  0  0  0  0
   -1.4200   -3.1350    0.2580 O   0  0  0  0  0  0  0  0  0  0  0  0
   -0.4570   -3.8550    0.5840 O   0  0  0  0  0  0  0  0  0  0  0  0
    0.8440   -3.6030    0.7020 O   0  0  0  0  0  0  0  0  0  0  0  0
    1.1930   -2.0550    0.3470 P   0  0  0  0  0  0  0  0  0  0  0  0
   -0.2880   -1.2410   -0.0790 C   0  0  0  0  0  0  0  0  0  0  0  0
   -0.1660    0.0960   -0.4420 N   0  0  0  0  0  0  0  0  0  0  0  0
    2.5120   -1.1360   -0.3590 O   0  0  0  0  0  0  0  0  0  0  0  0
    2.2610    0.1930   -0.0190 C   0  0  2  0  0  0  0  0  0  0  0  0
    2.4810    0.0840    1.4290 O   0  0  0  0  0  0  0  0  0  0  0  0
    3.5850   -0.5380    1.6700 O   0  0  0  0  0  0  0  0  0  0  0  0
    4.5050   -0.2130    0.8090 O   0  0  0  0  0  0  0  0  0  0  0  0
    5.4660   -1.2170    0.7830 C   0  0  0  0  0  0  0  0  0  0  0  0
    6.4320   -0.8380   -0.1450 O   0  0  0  0  0  0  0  0  0  0  0  0
    3.2960    0.9960   -0.4050 O   0  0  0  0  0  0  0  0  0  0  0  0
    3.2880    2.3470    0.7010 S   0  0  0  0  0  0  0  0  0  0  0  0
  1  2  2  0
  2  3  1  0
  2 32  1  0
  4  3  1  1
  4  5  1  0
  4 23  1  0
  4 25  1  0
  5  6  2  0
  5  7  1  0
  7  8  1  0
  8  9  2  0
  8 23  1  0
  9 10  1  0
  9 16  1  0
 10 11  1  0
 11 12  1  6
 11 14  1  0
 12 13  1  0
 14 15  1  0
 15 16  1  0
 16 17  1  0
 17 18  1  0
 17 22  2  0
 18 19  1  0
 19 20  1  0
 20 21  1  0
 21 22  1  0
 21 24  1  0
 22 23  1  0
 24 25  1  0
 25 26  1  1
 25 31  1  0
 26 27  1  0
 27 28  1  0
 28 29  1  0
 29 30  1  0
 31 32  1  0
M  END
