
     RDKit          3D

 32 35  0  0  0  0  0  0  0  0999 V2000
   -5.7520    0.8130   -1.5290 N   0  0  0  0  0  0  0  0  0  0  0  0
   -5.3440    0.5980   -0.1590 C   0  0  2  0  0  0  0  0  0  0  0  0
   -6.4960    0.9280    0.7350 C   0  0  1  0  0  0  0  0  0  0  0  0
   -7.5530    0.0160    0.5940 O   0  0  0  0  0  0  0  0  0  0  0  0
   -6.2130    1.0670    2.0630 O   0  0  0  0  0  0  0  0  0  0  0  0
   -4.9760    1.0660    2.4100 O   0  0  0  0  0  0  0  0  0  0  0  0
   -4.3140    2.1520    1.9930 O   0  0  0  0  0  0  0  0  0  0  0  0
   -3.9550    1.7810    0.3110 P   0  0  0  0  0  0  0  0  0  0  0  0
   -2.3230    0.8600    0.2560 C   0  0  1  0  0  0  0  0  0  0  0  0
   -1.3380    1.6620    0.9100 N   0  0  0  0  0  0  0  0  0  0  0  0
   -0.0420    1.4930    0.7920 C   0  0  0  0  0  0  0  0  0  0  0  0
    0.8910    2.3850    1.5170 C   0  0  0  0  0  0  0  0  0  0  0  0
    2.4840    1.9520    0.7100 S   0  0  0  0  0  0  0  0  0  0  0  0
    1.7810    0.9900   -0.6220 C   0  0  1  0  0  0  0  0  0  0  0  0
    0.5690    0.5050    0.0150 N   0  0  0  0  0  0  0  0  0  0  0  0
    1.2200    1.8220   -1.6410 O   0  0  0  0  0  0  0  0  0  0  0  0
    1.1810    0.9870   -2.6870 O   0  0  0  0  0  0  0  0  0  0  0  0
    0.7600   -0.2070   -2.3710 O   0  0  0  0  0  0  0  0  0  0  0  0
    1.6990   -0.9540   -1.7870 O   0  0  0  0  0  0  0  0  0  0  0  0
    2.6180    0.0130   -1.2820 C   0  0  2  0  0  0  0  0  0  0  0  0
    3.8030   -0.5980   -0.7080 C   0  0  2  0  0  0  0  0  0  0  0  0
    4.4740   -1.7570   -2.0530 P   0  0  0  0  0  0  0  0  0  0  0  0
    3.4870   -3.1810   -1.9950 O   0  0  0  0  0  0  0  0  0  0  0  0
    6.0600   -2.1990   -1.4900 O   0  0  0  0  0  0  0  0  0  0  0  0
    6.0680   -1.8040   -0.1300 C   0  0  0  0  0  0  0  0  0  0  0  0
    4.9310   -2.2770    0.4390 O   0  0  0  0  0  0  0  0  0  0  0  0
    3.8700   -1.3390    0.5310 C   0  0  2  0  0  0  0  0  0  0  0  0
    2.4270   -2.3470    1.0320 P   0  0  0  0  0  0  0  0  0  0  0  0
    4.3630   -0.2750    2.0060 P   0  0  0  0  0  0  0  0  0  0  0  0
    5.5980    0.6520    1.9580 O   0  0  0  0  0  0  0  0  0  0  0  0
   -2.5290   -0.3140    1.0160 O   0  0  0  0  0  0  0  0  0  0  0  0
   -2.3870   -1.3740    0.2400 O   0  0  0  0  0  0  0  0  0  0  0  0
  2  1  1  6
  2  3  1  0
  2  8  1  0
  3  4  1  1
  3  5  1  0
  5  6  1  0
  6  7  1  0
  7  8  1  0
  8  9  1  0
  9 10  1  0
  9 31  1  1
 10 11  2  3
 11 12  1  0
 11 15  1  0
 12 13  1  0
 13 14  1  0
 14 15  1  1
 14 16  1  0
 14 20  1  0
 16 17  1  0
 17 18  1  0
 18 19  1  0
 20 19  1  1
 20 21  1  0
 21 22  1  6
 21 27  1  0
 22 23  1  0
 22 24  1  0
 24 25  1  0
 25 26  1  0
 26 27  1  0
 27 28  1  1
 27 29  1  0
 29 30  2  0
 31 32  1  0
M  END
