
     RDKit          3D

 32 34  0  0  0  0  0  0  0  0999 V2000
   -7.9130    2.0470   -0.2230 N   0  0  0  0  0  0  0  0  0  0  0  0
   -7.3070    0.7690   -0.3540 C   0  0  0  0  0  0  0  0  0  0  0  0
   -8.0150   -0.2530   -0.7670 N   0  0  0  0  0  0  0  0  0  0  0  0
   -7.4050   -1.5230   -0.8950 C   0  0  0  0  0  0  0  0  0  0  0  0
   -8.0900   -2.4880   -1.2900 O   0  0  0  0  0  0  0  0  0  0  0  0
   -5.9980   -1.6610   -0.5610 C   0  0  0  0  0  0  0  0  0  0  0  0
   -5.1600   -2.6400   -0.5640 N   0  0  0  0  0  0  0  0  0  0  0  0
   -3.8700   -2.2340   -0.1380 C   0  0  0  0  0  0  0  0  0  0  0  0
   -2.8260   -2.9300   -0.0230 O   0  0  0  0  0  0  0  0  0  0  0  0
   -3.9230   -0.8460    0.1610 N   0  0  0  0  0  0  0  0  0  0  0  0
   -2.8860    0.0200    0.6250 C   0  0  1  0  0  0  0  0  0  0  0  0
   -2.2800   -0.4290    1.9350 C   0  0  0  0  0  0  0  0  0  0  0  0
   -0.8450    0.0550    1.7900 C   0  0  2  0  0  0  0  0  0  0  0  0
   -0.4170    0.7780    2.8800 O   0  0  0  0  0  0  0  0  0  0  0  0
   -0.9110    0.8780    0.5210 C   0  0  1  0  0  0  0  0  0  0  0  0
    0.4570    0.9370   -0.1500 C   0  0  0  0  0  0  0  0  0  0  0  0
    0.9280   -0.3420   -0.2440 O   0  0  0  0  0  0  0  0  0  0  0  0
    2.3990   -0.4980   -0.9420 P   0  0  0  0  0  0  0  0  0  0  0  0
    2.8080    0.5360   -2.2020 O   0  0  0  0  0  0  0  0  0  0  0  0
    1.8800   -1.5010   -1.9880 O   0  0  0  0  0  0  0  0  0  0  0  0
    3.0300    0.5660   -0.0230 O   0  0  0  0  0  0  0  0  0  0  0  0
    4.5320    0.8530    0.2390 P   0  0  0  0  0  0  0  0  0  0  0  0
    4.8330    0.5710   -1.3700 O   0  0  0  0  0  0  0  0  0  0  0  0
    4.2200    2.3870    0.7150 O   0  0  0  0  0  0  0  0  0  0  0  0
    6.0450    0.9910    0.4860 O   0  0  0  0  0  0  0  0  0  0  0  0
    7.1060   -0.2390    0.5350 P   0  0  0  0  0  0  0  0  0  0  0  0
    7.2200   -1.3660   -0.6240 O   0  0  0  0  0  0  0  0  0  0  0  0
    8.2750    0.6360    0.0910 O   0  0  0  0  0  0  0  0  0  0  0  0
    7.9810   -0.5210    1.9880 O   0  0  0  0  0  0  0  0  0  0  0  0
   -1.7930    0.0900   -0.2530 O   0  0  0  0  0  0  0  0  0  0  0  0
   -5.2700   -0.4660   -0.1030 C   0  0  0  0  0  0  0  0  0  0  0  0
   -5.9310    0.6400   -0.0250 N   0  0  0  0  0  0  0  0  0  0  0  0
  1  2  1  0
  2  3  2  0
  2 32  1  0
  3  4  1  0
  4  5  2  0
  4  6  1  0
  6  7  2  0
  6 31  1  0
  7  8  1  0
  8  9  2  0
  8 10  1  0
 11 10  1  6
 10 31  1  0
 11 12  1  0
 11 30  1  0
 12 13  1  0
 13 14  1  1
 13 15  1  0
 15 16  1  6
 15 30  1  0
 16 17  1  0
 17 18  1  0
 18 19  1  0
 18 20  1  0
 18 21  1  0
 21 22  1  0
 22 23  1  0
 22 24  1  0
 22 25  1  0
 25 26  1  0
 26 27  1  0
 26 28  1  0
 26 29  1  0
 31 32  2  0
M  CHG  1   3   1
M  END
