
     RDKit          3D

 32 34  0  0  0  0  0  0  0  0999 V2000
   -2.6500    3.9750    1.1100 C   0  0  0  0  0  0  0  0  0  0  0  0
   -2.1100    3.2040    0.0740 O   0  0  0  0  0  0  0  0  0  0  0  0
   -1.9500    1.9020    0.5950 C   0  0  1  0  0  0  0  0  0  0  0  0
   -1.0830    2.0280    1.6780 O   0  0  0  0  0  0  0  0  0  0  0  0
    0.4100    2.6780    1.0830 P   0  0  0  0  0  0  0  0  0  0  0  0
    0.5430    3.3890   -0.2800 O   0  0  0  0  0  0  0  0  0  0  0  0
   -3.5840    1.3100    1.1210 S   0  0  0  0  0  0  0  0  0  0  0  0
   -4.3830    0.6260   -0.3490 C   0  0  2  0  0  0  0  0  0  0  0  0
   -5.7570    0.1270   -0.0680 C   0  0  0  0  0  0  0  0  0  0  0  0
   -6.7030    0.8440   -0.2350 O   0  0  0  0  0  0  0  0  0  0  0  0
   -5.7940   -1.6280    0.5310 P   0  0  0  0  0  0  0  0  0  0  0  0
   -4.2880   -2.3650    0.4600 C   0  0  0  0  0  0  0  0  0  0  0  0
   -4.0440   -3.6860    0.8530 O   0  0  0  0  0  0  0  0  0  0  0  0
   -3.2940   -1.5300   -0.0320 O   0  0  0  0  0  0  0  0  0  0  0  0
   -3.5720   -0.4990   -0.9580 C   0  0  2  0  0  0  0  0  0  0  0  0
   -2.4350   -0.0450   -1.6020 O   0  0  0  0  0  0  0  0  0  0  0  0
   -1.2960    0.7390   -0.6480 P   0  0  0  0  0  0  0  0  0  0  0  0
    0.0290   -0.1980   -0.1300 O   0  0  0  0  0  0  0  0  0  0  0  0
    0.9140   -0.3910   -1.1500 N   0  0  0  0  0  0  0  0  0  0  0  0
    0.6160   -1.6140   -1.6920 O   0  0  0  0  0  0  0  0  0  0  0  0
    1.3160   -2.5610   -0.9760 C   0  0  0  0  0  0  0  0  0  0  0  0
    1.0110   -3.9690   -0.9290 N   0  0  0  0  0  0  0  0  0  0  0  0
    0.8610   -4.6480    0.2190 O   0  0  0  0  0  0  0  0  0  0  0  0
    0.8770   -4.6030   -2.1000 O   0  0  0  0  0  0  0  0  0  0  0  0
    2.3020   -1.9710   -0.3460 C   0  0  0  0  0  0  0  0  0  0  0  0
    2.2130   -0.5930   -0.6850 N   0  0  0  0  0  0  0  0  0  0  0  0
    3.2880    0.3240   -0.5420 C   0  0  0  0  0  0  0  0  0  0  0  0
    3.1520    1.5460   -0.8610 O   0  0  0  0  0  0  0  0  0  0  0  0
    4.5150   -0.0570   -0.0590 O   0  0  0  0  0  0  0  0  0  0  0  0
    5.6240    0.7750    0.1130 C   0  0  0  0  0  0  0  0  0  0  0  0
    5.9860    1.3270   -1.1350 O   0  0  0  0  0  0  0  0  0  0  0  0
    7.3750    2.3610   -0.8720 P   0  0  0  0  0  0  0  0  0  0  0  0
  1  2  1  0
  3  2  1  6
  3  4  1  0
  3  7  1  0
  3 17  1  0
  4  5  1  0
  5  6  2  0
  8  7  1  1
  8  9  1  0
  8 15  1  0
  9 10  2  0
  9 11  1  0
 11 12  2  0
 12 13  1  0
 12 14  1  0
 15 14  1  1
 15 16  1  0
 16 17  1  0
 17 18  1  0
 18 19  1  0
 19 20  1  0
 19 26  1  0
 20 21  1  0
 21 22  1  0
 21 25  2  0
 22 23  1  0
 22 24  1  0
 25 26  1  0
 26 27  1  0
 27 28  2  0
 27 29  1  0
 29 30  1  0
 30 31  1  0
 31 32  1  0
M  END
