
     RDKit          3D

 31 32  0  0  0  0  0  0  0  0999 V2000
   -6.6190    1.7260   -0.2850 C   0  0  0  0  0  0  0  0  0  0  0  0
   -5.3450    1.1120   -0.0980 O   0  0  0  0  0  0  0  0  0  0  0  0
   -4.3060    1.7820    0.5470 C   0  0  0  0  0  0  0  0  0  0  0  0
   -4.5440    2.9380    0.9510 O   0  0  0  0  0  0  0  0  0  0  0  0
   -3.0600    1.1280    0.7060 N   0  0  0  0  0  0  0  0  0  0  0  0
   -1.9500    1.7370    1.3510 C   0  0  0  0  0  0  0  0  0  0  0  0
   -2.0020    2.9700    1.5820 O   0  0  0  0  0  0  0  0  0  0  0  0
   -0.8740    0.9300    1.6870 O   0  0  0  0  0  0  0  0  0  0  0  0
   -0.7480   -0.3280    1.2070 O   0  0  0  0  0  0  0  0  0  0  0  0
   -1.3840   -0.3560   -0.0570 C   0  0  2  0  0  0  0  0  0  0  0  0
   -1.0180   -1.6070   -0.7970 C   0  0  0  0  0  0  0  0  0  0  0  0
    0.8130   -1.6070   -0.9290 S   0  0  0  0  0  0  0  0  0  0  0  0
    1.3540    0.0120   -0.4020 C   0  0  0  0  0  0  0  0  0  0  0  0
    2.5910    0.2320   -0.0770 N   0  0  0  0  0  0  0  0  0  0  0  0
    3.5430   -0.8120   -0.1340 C   0  0  0  0  0  0  0  0  0  0  0  0
    3.3260   -1.8820   -0.7670 O   0  0  0  0  0  0  0  0  0  0  0  0
    4.8540   -0.6870    0.5570 C   0  0  2  0  0  0  0  0  0  0  0  0
    5.6730   -1.8630    0.3710 N   0  0  0  0  0  0  0  0  0  0  0  0
    4.5800   -0.3630    2.3550 P   0  0  0  0  0  0  0  0  0  0  0  0
    5.5750    0.5220   -0.0510 C   0  0  2  0  0  0  0  0  0  0  0  0
    4.4550    1.9760    0.1010 P   0  0  0  0  0  0  0  0  0  0  0  0
    5.7780    0.2880   -1.4220 O   0  0  0  0  0  0  0  0  0  0  0  0
    7.0430    0.3450   -1.7260 O   0  0  0  0  0  0  0  0  0  0  0  0
    0.3940    1.0130   -0.3570 O   0  0  0  0  0  0  0  0  0  0  0  0
   -0.8670    0.7330   -0.7590 O   0  0  0  0  0  0  0  0  0  0  0  0
   -2.8540   -0.2180    0.2110 C   0  0  1  0  0  0  0  0  0  0  0  0
   -3.3650   -1.3810    1.5750 P   0  0  0  0  0  0  0  0  0  0  0  0
   -3.1890   -3.0360    1.0860 O   0  0  0  0  0  0  0  0  0  0  0  0
   -3.9180   -0.5210   -1.2400 P   0  0  0  0  0  0  0  0  0  0  0  0
   -3.7110    0.5980   -2.5200 O   0  0  0  0  0  0  0  0  0  0  0  0
   -3.9260   -2.1580   -1.7450 O   0  0  0  0  0  0  0  0  0  0  0  0
  1  2  1  0
  2  3  1  0
  3  4  2  0
  3  5  1  0
  5  6  1  0
  5 26  1  0
  6  7  2  0
  6  8  1  0
  8  9  1  0
  9 10  1  0
 10 11  1  6
 10 25  1  0
 10 26  1  0
 11 12  1  0
 12 13  1  0
 13 14  2  3
 13 24  1  0
 14 15  1  0
 15 16  2  0
 15 17  1  0
 17 18  1  1
 17 19  1  0
 17 20  1  0
 20 21  1  6
 20 22  1  0
 22 23  1  0
 24 25  1  0
 26 27  1  1
 26 29  1  0
 27 28  1  0
 29 30  1  0
 29 31  1  0
M  END
