
     RDKit          3D

 32 35  0  0  0  0  0  0  0  0999 V2000
    2.2380    0.7860   -1.4530 O   0  0  0  0  0  0  0  0  0  0  0  0
    2.8750    0.1930   -0.5460 C   0  0  0  0  0  0  0  0  0  0  0  0
    2.1380   -0.1990    0.7000 C   0  0  0  0  0  0  0  0  0  0  0  0
    0.8350    0.3830    0.4600 O   0  0  0  0  0  0  0  0  0  0  0  0
    0.7100    1.3410    1.3400 O   0  0  0  0  0  0  0  0  0  0  0  0
   -0.4720    1.7220    1.5250 O   0  0  0  0  0  0  0  0  0  0  0  0
   -1.3070    0.5750    1.4730 C   0  0  2  0  0  0  0  0  0  0  0  0
   -0.8070   -0.3960    2.2750 O   0  0  0  0  0  0  0  0  0  0  0  0
   -0.6250    0.1420    3.4690 O   0  0  0  0  0  0  0  0  0  0  0  0
   -1.3080    0.1210   -0.3030 S   0  0  0  0  0  0  0  0  0  0  0  0
   -3.0030    0.3440   -0.6040 C   0  0  1  0  0  0  0  0  0  0  0  0
   -3.4220    1.4340   -1.5620 C   0  0  0  0  0  0  0  0  0  0  0  0
   -4.5540    0.9590   -2.1820 O   0  0  0  0  0  0  0  0  0  0  0  0
   -5.0140   -0.1210   -1.5000 N   0  0  0  0  0  0  0  0  0  0  0  0
   -3.7410   -0.8190   -1.2230 C   0  0  0  0  0  0  0  0  0  0  0  0
   -5.3040    0.3880    0.2440 P   0  0  0  0  0  0  0  0  0  0  0  0
   -6.0640   -1.0990    1.0060 C   0  0  0  0  0  0  0  0  0  0  0  0
   -5.6620   -1.4770    2.0910 O   0  0  0  0  0  0  0  0  0  0  0  0
   -7.4160   -2.0280    0.1940 P   0  0  0  0  0  0  0  0  0  0  0  0
   -8.7810   -1.0430   -0.0950 O   0  0  0  0  0  0  0  0  0  0  0  0
   -6.8530   -2.7220   -1.2950 O   0  0  0  0  0  0  0  0  0  0  0  0
   -3.6080    0.6360    0.6710 N   0  0  0  0  0  0  0  0  0  0  0  0
   -2.7020    1.0140    1.6320 C   0  0  0  0  0  0  0  0  0  0  0  0
   -3.0570    1.7720    2.6400 O   0  0  0  0  0  0  0  0  0  0  0  0
    4.5950   -0.1310   -0.8390 P   0  0  0  0  0  0  0  0  0  0  0  0
    5.4720    1.4010   -1.3820 C   0  0  0  0  0  0  0  0  0  0  0  0
    6.7500    1.0240   -1.7640 O   0  0  0  0  0  0  0  0  0  0  0  0
    7.5860    0.4430   -0.3770 P   0  0  0  0  0  0  0  0  0  0  0  0
    9.1740   -0.0550   -0.8750 O   0  0  0  0  0  0  0  0  0  0  0  0
    6.8160   -0.9670    0.3990 N   0  0  0  0  0  0  0  0  0  0  0  0
    6.9140   -2.0220   -0.4380 O   0  0  0  0  0  0  0  0  0  0  0  0
    5.4310   -0.6990    0.7270 C   0  0  0  0  0  0  0  0  0  0  0  0
  1  2  2  0
  2  3  1  0
  2 25  1  0
  3  4  1  0
  4  5  1  0
  5  6  1  0
  7  6  1  6
  7  8  1  0
  7 10  1  0
  7 23  1  0
  8  9  1  0
 10 11  1  0
 11 12  1  6
 11 15  1  0
 11 22  1  0
 12 13  1  0
 13 14  1  0
 14 15  1  0
 14 16  1  0
 16 17  1  0
 16 22  1  0
 17 18  2  0
 17 19  1  0
 19 20  1  0
 19 21  1  0
 22 23  1  0
 23 24  2  0
 25 26  1  0
 25 32  1  0
 26 27  1  0
 27 28  1  0
 28 29  1  0
 28 30  1  0
 30 31  1  0
 30 32  1  0
M  END
