
     RDKit          3D

 32 36  0  0  0  0  0  0  0  0999 V2000
    0.4110    0.1810    4.0860 C   0  0  0  0  0  0  0  0  0  0  0  0
    1.2800   -0.7010    3.4920 O   0  0  0  0  0  0  0  0  0  0  0  0
    0.8540   -1.1630    2.3330 O   0  0  0  0  0  0  0  0  0  0  0  0
    0.3260    0.1400    1.3790 P   0  0  0  0  0  0  0  0  0  0  0  0
    1.5940    1.1850    0.8500 O   0  0  0  0  0  0  0  0  0  0  0  0
    2.1010    0.7030   -0.3120 C   0  0  1  0  0  0  0  0  0  0  0  0
    2.9230    1.7720   -1.0070 C   0  0  1  0  0  0  0  0  0  0  0  0
    2.2250    2.9130   -1.3150 O   0  0  0  0  0  0  0  0  0  0  0  0
    4.0000    2.0730   -0.1800 O   0  0  0  0  0  0  0  0  0  0  0  0
    2.9910   -0.3700   -0.1240 O   0  0  0  0  0  0  0  0  0  0  0  0
    3.4920   -0.7670   -1.3090 N   0  0  0  0  0  0  0  0  0  0  0  0
    4.7010   -0.4820   -1.8020 O   0  0  0  0  0  0  0  0  0  0  0  0
    2.6130   -1.6090   -2.1310 C   0  0  0  0  0  0  0  0  0  0  0  0
    3.0660   -2.4200   -2.9440 O   0  0  0  0  0  0  0  0  0  0  0  0
    1.2380   -1.4880   -1.9880 N   0  0  0  0  0  0  0  0  0  0  0  0
    0.3000   -2.3680   -2.1490 O   0  0  0  0  0  0  0  0  0  0  0  0
   -0.4100   -2.6600   -0.9840 C   0  0  2  0  0  0  0  0  0  0  0  0
    0.4550   -3.5130   -0.2480 O   0  0  0  0  0  0  0  0  0  0  0  0
   -1.7370   -3.8060   -1.5620 S   0  0  0  0  0  0  0  0  0  0  0  0
   -2.5700   -4.4780   -0.2520 O   0  0  0  0  0  0  0  0  0  0  0  0
   -3.3180   -3.4880    0.3810 C   0  0  0  0  0  0  0  0  0  0  0  0
   -2.7820   -1.8490   -0.2320 P   0  0  0  0  0  0  0  0  0  0  0  0
   -3.5820   -0.5340    0.5040 O   0  0  0  0  0  0  0  0  0  0  0  0
   -1.0050   -1.6730   -0.2420 N   0  0  0  0  0  0  0  0  0  0  0  0
   -0.5930   -0.3370   -0.1310 C   0  0  1  0  0  0  0  0  0  0  0  0
   -1.7450    0.4770   -0.2290 O   0  0  0  0  0  0  0  0  0  0  0  0
   -1.7000    1.8300   -0.3100 C   0  0  0  0  0  0  0  0  0  0  0  0
   -0.6240    2.4420   -0.3000 O   0  0  0  0  0  0  0  0  0  0  0  0
   -2.9780    2.5970   -0.4130 C   0  0  1  0  0  0  0  0  0  0  0  0
   -3.0260    3.8870    0.3500 C   0  0  0  0  0  0  0  0  0  0  0  0
   -2.9960    4.1180   -1.4520 P   0  0  0  0  0  0  0  0  0  0  0  0
    0.6770    0.1610   -1.4120 P   0  0  0  0  0  0  0  0  0  0  0  0
  1  2  1  0
  2  3  1  0
  3  4  1  0
  4  5  1  0
  4 25  1  0
  6  5  1  1
  6  7  1  0
  6 10  1  0
  6 32  1  0
  7  8  1  1
  7  9  1  0
 10 11  1  0
 11 12  1  0
 11 13  1  0
 13 14  2  0
 13 15  1  0
 15 16  1  0
 15 32  1  0
 16 17  1  0
 17 18  1  1
 17 19  1  0
 17 24  1  0
 19 20  1  0
 20 21  1  0
 21 22  1  0
 22 23  1  0
 22 24  1  0
 24 25  1  0
 25 26  1  6
 25 32  1  0
 26 27  1  0
 27 28  2  0
 29 27  1  1
 29 30  1  0
 29 31  1  0
 30 31  1  0
M  END
