
     RDKit          3D

 17 18  0  0  0  0  0  0  0  0999 V2000
   -3.5610    0.4510   -1.0290 N   0  0  0  0  0  0  0  0  0  0  0  0
   -2.3680   -0.3400   -0.6430 C   0  0  1  0  0  0  0  0  0  0  0  0
   -1.2190    0.6260   -0.7770 C   0  0  0  0  0  0  0  0  0  0  0  0
    0.1030    0.0410   -0.4950 C   0  0  0  0  0  0  0  0  0  0  0  0
    0.2500   -1.2710   -0.4530 C   0  0  0  0  0  0  0  0  0  0  0  0
    1.5310   -1.9700   -0.1730 C   0  0  0  0  0  0  0  0  0  0  0  0
    2.1790   -1.4850    1.0870 C   0  0  0  0  0  0  0  0  0  0  0  0
    2.9150   -0.2290    1.0260 C   0  0  0  0  0  0  0  0  0  0  0  0
    2.3110    0.9070    0.3760 C   0  0  0  0  0  0  0  0  0  0  0  0
    2.9180    2.0930    0.3300 O   0  0  0  0  0  0  0  0  0  0  0  0
    2.1940    2.9460   -0.2960 N   0  0  0  0  0  0  0  0  0  0  0  0
    1.0450    2.4030   -0.7210 C   0  0  0  0  0  0  0  0  0  0  0  0
    0.1060    2.9070   -1.3520 O   0  0  0  0  0  0  0  0  0  0  0  0
    1.1280    1.0950   -0.2870 C   0  0  0  0  0  0  0  0  0  0  0  0
   -2.6030   -0.7160    0.7800 C   0  0  0  0  0  0  0  0  0  0  0  0
   -3.7320   -0.4170    1.3070 O   0  0  0  0  0  0  0  0  0  0  0  0
   -1.7300   -1.3610    1.6150 O   0  0  0  0  0  0  0  0  0  0  0  0
  2  1  1  1
  2  3  1  0
  2 15  1  0
  3  4  1  0
  4  5  2  0
  4 14  1  0
  5  6  1  0
  6  7  1  0
  7  8  1  0
  8  9  1  0
  9 10  1  0
  9 14  2  0
 10 11  1  0
 11 12  1  0
 12 13  2  0
 12 14  1  0
 15 16  2  0
 15 17  1  0
M  CHG  1   1   1
M  END
