
     RDKit          3D

 21 22  0  0  0  0  0  0  0  0999 V2000
    6.4330   -0.3890    0.5670 C   0  0  0  0  0  0  0  0  0  0  0  0
    6.1180    0.7530   -0.3630 C   0  0  2  0  0  0  0  0  0  0  0  0
    5.3060    1.6690    0.3820 O   0  0  0  0  0  0  0  0  0  0  0  0
    4.0030    1.2570    0.1710 C   0  0  0  0  0  0  0  0  0  0  0  0
    3.9030    0.4720   -0.8740 C   0  0  0  0  0  0  0  0  0  0  0  0
    2.6800   -0.1380   -1.3780 C   0  0  0  0  0  0  0  0  0  0  0  0
    2.6750   -0.8860   -2.3980 O   0  0  0  0  0  0  0  0  0  0  0  0
    1.4860    0.0850   -0.7510 O   0  0  0  0  0  0  0  0  0  0  0  0
    0.2590   -0.4700   -1.1780 C   0  0  0  0  0  0  0  0  0  0  0  0
   -0.8560   -0.0150   -0.2560 C   0  0  0  0  0  0  0  0  0  0  0  0
   -0.5910    0.7410    0.7050 O   0  0  0  0  0  0  0  0  0  0  0  0
   -2.1830   -0.4310   -0.4650 N   0  0  0  0  0  0  0  0  0  0  0  0
   -3.3060   -0.0830    0.3120 C   0  0  0  0  0  0  0  0  0  0  0  0
   -3.3390    0.7160    1.4130 C   0  0  0  0  0  0  0  0  0  0  0  0
   -4.4990    1.0070    2.1230 C   0  0  0  0  0  0  0  0  0  0  0  0
   -5.6950    0.4820    1.7280 C   0  0  0  0  0  0  0  0  0  0  0  0
   -7.3050    0.8730    2.6960 Br  0  0  0  0  0  0  0  0  0  0  0  0
   -5.7030   -0.3330    0.6180 C   0  0  0  0  0  0  0  0  0  0  0  0
   -4.5430   -0.6120   -0.0760 C   0  0  0  0  0  0  0  0  0  0  0  0
   -4.6220   -1.4640   -1.2190 N   0  0  0  0  0  0  0  0  0  0  0  0
    5.1970    0.3590   -1.3780 O   0  0  0  0  0  0  0  0  0  0  0  0
  2  1  1  1
  2  3  1  0
  2 21  1  0
  3  4  1  0
  4  5  2  0
  5  6  1  0
  5 21  1  0
  6  7  2  0
  6  8  1  0
  8  9  1  0
  9 10  1  0
 10 11  2  0
 10 12  1  0
 12 13  1  0
 13 14  2  0
 13 19  1  0
 14 15  1  0
 15 16  2  0
 16 17  1  0
 16 18  1  0
 18 19  2  0
 19 20  1  0
M  END
