
     RDKit          3D

 15 16  0  0  0  0  0  0  0  0999 V2000
    1.8230    1.1940   -1.6970 C   0  0  0  0  0  0  0  0  0  0  0  0
    2.3200    0.4120   -0.7740 C   0  0  0  0  0  0  0  0  0  0  0  0
    3.6410    0.5520   -0.3900 O   0  0  0  0  0  0  0  0  0  0  0  0
    4.2460   -0.2310    0.5760 C   0  0  0  0  0  0  0  0  0  0  0  0
    3.5310   -1.1720    1.1730 C   0  0  0  0  0  0  0  0  0  0  0  0
    2.1310   -1.3780    0.8180 C   0  0  0  0  0  0  0  0  0  0  0  0
    1.5430   -0.6310   -0.1070 C   0  0  0  0  0  0  0  0  0  0  0  0
    0.2230   -0.7970   -0.4690 O   0  0  0  0  0  0  0  0  0  0  0  0
   -0.7470   -0.0030    0.1440 C   0  0  0  0  0  0  0  0  0  0  0  0
   -2.1240   -0.3120   -0.3630 C   0  0  0  0  0  0  0  0  0  0  0  0
   -2.4970   -1.2160   -1.2870 N   0  0  0  0  0  0  0  0  0  0  0  0
   -3.8260   -1.1570   -1.4350 N   0  0  0  0  0  0  0  0  0  0  0  0
   -4.3290   -0.2440   -0.6350 N   0  0  0  0  0  0  0  0  0  0  0  0
   -3.2850    0.3040    0.0510 C   0  0  0  0  0  0  0  0  0  0  0  0
   -3.3700    1.3320    1.0240 N   0  0  0  0  0  0  0  0  0  0  0  0
  1  2  2  0
  2  3  1  0
  2  7  1  0
  3  4  1  0
  4  5  2  0
  5  6  1  0
  6  7  2  0
  7  8  1  0
  8  9  1  0
  9 10  1  0
 10 11  1  0
 10 14  2  0
 11 12  2  0
 12 13  1  0
 13 14  1  0
 14 15  1  0
M  END
