
     RDKit          3D

 15 16  0  0  0  0  0  0  0  0999 V2000
   -3.6110   -0.7340    0.2740 C   0  0  0  0  0  0  0  0  0  0  0  0
   -2.9880   -0.1370   -0.9520 C   0  0  0  0  0  0  0  0  0  0  0  0
   -2.7810    1.2170   -0.9010 O   0  0  0  0  0  0  0  0  0  0  0  0
   -1.9580    1.6670    0.0940 C   0  0  0  0  0  0  0  0  0  0  0  0
   -0.5810    1.1210    0.0420 C   0  0  0  0  0  0  0  0  0  0  0  0
   -0.2030   -0.0010    0.7130 C   0  0  0  0  0  0  0  0  0  0  0  0
    1.0620   -0.4280    0.6100 N   0  0  0  0  0  0  0  0  0  0  0  0
    1.7160   -1.4960    1.1540 C   0  0  0  0  0  0  0  0  0  0  0  0
    1.1600   -2.3170    1.9110 O   0  0  0  0  0  0  0  0  0  0  0  0
    2.9980   -1.5010    0.7490 N   0  0  0  0  0  0  0  0  0  0  0  0
    3.2140   -0.4460   -0.0650 C   0  0  0  0  0  0  0  0  0  0  0  0
    4.4110   -0.0590   -0.7200 N   0  0  0  0  0  0  0  0  0  0  0  0
    1.9930    0.2020   -0.1320 C   0  0  0  0  0  0  0  0  0  0  0  0
    1.6180    1.3380   -0.8140 C   0  0  0  0  0  0  0  0  0  0  0  0
    0.3500    1.7730   -0.7160 N   0  0  0  0  0  0  0  0  0  0  0  0
  1  2  1  0
  2  3  1  0
  3  4  1  0
  4  5  1  0
  5  6  2  0
  5 15  1  0
  6  7  1  0
  7  8  1  0
  7 13  1  0
  8  9  2  0
  8 10  1  0
 10 11  1  0
 11 12  1  0
 11 13  2  0
 13 14  1  0
 14 15  2  0
M  END
