
     RDKit          3D

 21 21  0  0  0  0  0  0  0  0999 V2000
    7.9370   -0.4820   -0.3320 C   0  0  0  0  0  0  0  0  0  0  0  0
    6.7540   -1.1360    0.0190 O   0  0  0  0  0  0  0  0  0  0  0  0
    5.5340   -0.4960   -0.1340 C   0  0  0  0  0  0  0  0  0  0  0  0
    5.4700    0.6700   -0.5860 O   0  0  0  0  0  0  0  0  0  0  0  0
    4.3050   -1.2340    0.2530 C   0  0  0  0  0  0  0  0  0  0  0  0
    3.1810   -0.4020    0.0170 O   0  0  0  0  0  0  0  0  0  0  0  0
    1.8880   -0.8080    0.2800 C   0  0  0  0  0  0  0  0  0  0  0  0
    1.6690   -1.9400    0.7410 O   0  0  0  0  0  0  0  0  0  0  0  0
    0.7750    0.1340   -0.0000 C   0  0  0  0  0  0  0  0  0  0  0  0
   -0.4340   -0.2770    0.2580 C   0  0  0  0  0  0  0  0  0  0  0  0
   -1.6340    0.5070    0.0470 C   0  0  0  0  0  0  0  0  0  0  0  0
   -2.8430   -0.0380    0.3570 C   0  0  0  0  0  0  0  0  0  0  0  0
   -2.8280   -1.3710    0.8780 N   0  0  0  0  0  0  0  0  0  0  0  0
   -4.0850    0.6850    0.1730 C   0  0  0  0  0  0  0  0  0  0  0  0
   -5.1360    0.4350    0.9040 C   0  0  0  0  0  0  0  0  0  0  0  0
   -5.1600   -0.5730    1.9540 C   0  0  0  0  0  0  0  0  0  0  0  0
   -6.7230    1.4580    0.5580 Br  0  0  0  0  0  0  0  0  0  0  0  0
   -4.0890    1.7430   -0.8990 C   0  0  0  0  0  0  0  0  0  0  0  0
   -2.9070    2.5630   -0.6750 N   0  0  0  0  0  0  0  0  0  0  0  0
   -1.6650    1.8570   -0.4890 C   0  0  0  0  0  0  0  0  0  0  0  0
   -0.5810    2.4490   -0.8090 O   0  0  0  0  0  0  0  0  0  0  0  0
  1  2  1  0
  2  3  1  0
  3  4  2  0
  3  5  1  0
  5  6  1  0
  6  7  1  0
  7  8  2  0
  7  9  1  0
  9 10  2  3
 10 11  1  0
 11 12  2  0
 11 20  1  0
 12 13  1  0
 12 14  1  0
 14 15  2  3
 14 18  1  0
 15 16  1  0
 15 17  1  0
 18 19  1  0
 19 20  1  0
 20 21  2  0
M  END
