
     RDKit          3D

 21 22  0  0  0  0  0  0  0  0999 V2000
    1.0120   -1.8990   -2.5020 N   0  0  0  0  0  0  0  0  0  0  0  0
    1.9080   -1.3990   -1.5100 C   0  0  0  0  0  0  0  0  0  0  0  0
    3.1010   -1.7930   -1.7820 O   0  0  0  0  0  0  0  0  0  0  0  0
    1.5940   -0.5820   -0.3650 C   0  0  0  0  0  0  0  0  0  0  0  0
    0.4170   -0.1530   -0.0690 C   0  0  0  0  0  0  0  0  0  0  0  0
   -0.8640   -0.2940   -0.6970 C   0  0  0  0  0  0  0  0  0  0  0  0
   -1.1320   -0.9130   -1.7450 O   0  0  0  0  0  0  0  0  0  0  0  0
   -2.0510    0.3290   -0.1070 N   0  0  0  0  0  0  0  0  0  0  0  0
   -3.3250    0.1790   -0.7470 C   0  0  1  0  0  0  0  0  0  0  0  0
   -4.2340   -0.5220    0.2690 C   0  0  0  0  0  0  0  0  0  0  0  0
   -4.7210    0.6400    1.0780 C   0  0  0  0  0  0  0  0  0  0  0  0
   -5.0300    1.5950    0.0500 O   0  0  0  0  0  0  0  0  0  0  0  0
   -4.0490    1.4510   -0.9160 C   0  0  0  0  0  0  0  0  0  0  0  0
   -3.8190    2.2950   -1.8080 O   0  0  0  0  0  0  0  0  0  0  0  0
    2.7390   -0.0510    0.4380 C   0  0  0  0  0  0  0  0  0  0  0  0
    3.9170   -0.5530    0.2480 C   0  0  0  0  0  0  0  0  0  0  0  0
    5.1370   -0.0910    0.9990 C   0  0  0  0  0  0  0  0  0  0  0  0
    4.8890    1.0130    1.7970 O   0  0  0  0  0  0  0  0  0  0  0  0
    3.6540    1.5460    1.9880 C   0  0  0  0  0  0  0  0  0  0  0  0
    2.5810    1.0510    1.3400 C   0  0  0  0  0  0  0  0  0  0  0  0
    0.9700    2.0400    1.6530 Br  0  0  0  0  0  0  0  0  0  0  0  0
  1  2  1  0
  2  3  2  0
  2  4  1  0
  4  5  2  3
  4 15  1  0
  5  6  1  0
  6  7  2  0
  6  8  1  0
  9  8  1  1
  9 10  1  0
  9 13  1  0
 10 11  1  0
 11 12  1  0
 12 13  1  0
 13 14  2  0
 15 16  2  0
 15 20  1  0
 16 17  1  0
 17 18  1  0
 18 19  1  0
 19 20  2  0
 20 21  1  0
M  END
