
     RDKit          3D

 17 17  0  0  0  0  0  0  0  0999 V2000
   -4.5720    1.1950   -0.8400 O   0  0  0  0  0  0  0  0  0  0  0  0
   -3.4460    1.0700   -0.2940 C   0  0  0  0  0  0  0  0  0  0  0  0
   -3.1000   -0.2370    0.3110 C   0  0  0  0  0  0  0  0  0  0  0  0
   -2.4320   -1.0740   -0.6040 O   0  0  0  0  0  0  0  0  0  0  0  0
   -1.5980   -1.9420    0.0720 C   0  0  0  0  0  0  0  0  0  0  0  0
   -0.1470   -1.8180   -0.3700 C   0  0  0  0  0  0  0  0  0  0  0  0
    0.5790   -1.3220    0.6710 O   0  0  0  0  0  0  0  0  0  0  0  0
    1.5320   -0.3890    0.3530 C   0  0  1  0  0  0  0  0  0  0  0  0
    2.6240   -0.9500   -0.2920 O   0  0  0  0  0  0  0  0  0  0  0  0
    3.6990   -0.7820    0.4040 O   0  0  0  0  0  0  0  0  0  0  0  0
    4.6210   -0.2790   -0.4030 O   0  0  0  0  0  0  0  0  0  0  0  0
    5.7840   -0.5770    0.1470 O   0  0  0  0  0  0  0  0  0  0  0  0
    1.0340    0.7450   -0.4980 C   0  0  0  0  0  0  0  0  0  0  0  0
   -0.2580    1.1070   -0.2490 O   0  0  0  0  0  0  0  0  0  0  0  0
   -0.4440    2.3810    0.2110 C   0  0  0  0  0  0  0  0  0  0  0  0
   -1.7580    2.4340    0.7320 O   0  0  0  0  0  0  0  0  0  0  0  0
   -2.5810    2.1230   -0.2700 O   0  0  0  0  0  0  0  0  0  0  0  0
  1  2  2  0
  2  3  1  0
  2 17  1  0
  3  4  1  0
  4  5  1  0
  5  6  1  0
  6  7  1  0
  7  8  1  0
  8  9  1  6
  8 13  1  0
  9 10  1  0
 10 11  1  0
 11 12  1  0
 13 14  1  0
 14 15  1  0
 15 16  1  0
 16 17  1  0
M  END
