
     RDKit          3D

 17 17  0  0  0  0  0  0  0  0999 V2000
   -3.6070   -1.9670    0.9930 O   0  0  0  0  0  0  0  0  0  0  0  0
   -3.7160   -1.4020   -0.1190 C   0  0  0  0  0  0  0  0  0  0  0  0
   -4.6840   -1.8840   -0.9950 O   0  0  0  0  0  0  0  0  0  0  0  0
   -2.8810   -0.3450   -0.4150 O   0  0  0  0  0  0  0  0  0  0  0  0
   -1.9340    0.0570    0.5540 C   0  0  1  0  0  0  0  0  0  0  0  0
   -0.5320   -0.0110    0.0010 C   0  0  0  0  0  0  0  0  0  0  0  0
    0.3840    0.8520    0.8360 C   0  0  1  0  0  0  0  0  0  0  0  0
    1.7580    0.7030    0.2330 C   0  0  0  0  0  0  0  0  0  0  0  0
    2.3860    1.6830   -0.1840 O   0  0  0  0  0  0  0  0  0  0  0  0
    2.3000   -0.5390    0.1570 O   0  0  0  0  0  0  0  0  0  0  0  0
    3.5380   -0.9180   -0.3460 C   0  0  0  0  0  0  0  0  0  0  0  0
    4.6080   -0.3850    0.3030 O   0  0  0  0  0  0  0  0  0  0  0  0
    4.7450    0.8880    0.3360 O   0  0  0  0  0  0  0  0  0  0  0  0
    0.0600    2.1810    0.8020 O   0  0  0  0  0  0  0  0  0  0  0  0
   -1.2450    2.4160    0.6730 O   0  0  0  0  0  0  0  0  0  0  0  0
   -2.2240    1.4740    0.8840 C   0  0  0  0  0  0  0  0  0  0  0  0
   -3.3620    1.7670    1.3480 O   0  0  0  0  0  0  0  0  0  0  0  0
  1  2  2  0
  2  3  1  0
  2  4  1  0
  5  4  1  6
  5  6  1  0
  5 16  1  0
  6  7  1  0
  7  8  1  6
  7 14  1  0
  8  9  2  0
  8 10  1  0
 10 11  1  0
 11 12  1  0
 12 13  1  0
 14 15  1  0
 15 16  1  0
 16 17  2  0
M  END
