
     RDKit          3D

 17 18  0  0  0  0  0  0  0  0999 V2000
   -4.1950   -0.4270   -2.0410 O   0  0  0  0  0  0  0  0  0  0  0  0
   -3.9500   -0.4570   -0.8200 C   0  0  0  0  0  0  0  0  0  0  0  0
   -4.7240   -1.0410    0.2190 O   0  0  0  0  0  0  0  0  0  0  0  0
   -4.2270    0.0370    1.0510 C   0  0  0  0  0  0  0  0  0  0  0  0
   -3.0040   -0.0460    0.1710 C   0  0  1  0  0  0  0  0  0  0  0  0
   -2.1300   -1.0670    0.5170 O   0  0  0  0  0  0  0  0  0  0  0  0
   -1.1200   -0.7790   -0.4350 C   0  0  0  0  0  0  0  0  0  0  0  0
   -0.9010    0.7240   -0.0010 C   0  0  2  0  0  0  0  0  0  0  0  0
   -0.3990    0.5730    1.2820 O   0  0  0  0  0  0  0  0  0  0  0  0
    0.7190   -0.0560    1.3550 O   0  0  0  0  0  0  0  0  0  0  0  0
    1.4980    0.2350    0.2970 C   0  0  0  0  0  0  0  0  0  0  0  0
    2.8080   -0.6150    0.3570 C   0  0  0  0  0  0  0  0  0  0  0  0
    3.4680   -0.1960   -0.8800 O   0  0  0  0  0  0  0  0  0  0  0  0
    3.7660    1.1050   -0.6040 O   0  0  0  0  0  0  0  0  0  0  0  0
    4.9980    1.3850   -0.7760 O   0  0  0  0  0  0  0  0  0  0  0  0
    5.8530    0.5950   -0.1950 O   0  0  0  0  0  0  0  0  0  0  0  0
   -2.2440    1.1020    0.0080 O   0  0  0  0  0  0  0  0  0  0  0  0
  1  2  2  0
  2  3  1  0
  2  5  1  0
  3  4  1  0
  5  4  1  1
  5  6  1  0
  5 17  1  0
  6  7  1  0
  7  8  1  0
  8  9  1  1
  8 17  1  0
  9 10  1  0
 10 11  1  0
 11 12  1  0
 12 13  1  0
 13 14  1  0
 14 15  1  0
 15 16  1  0
M  END
