
     RDKit          3D

 17 18  0  0  0  0  0  0  0  0999 V2000
   -0.6990    2.3170    0.3660 O   0  0  0  0  0  0  0  0  0  0  0  0
   -1.5800    1.4650    0.1450 C   0  0  0  0  0  0  0  0  0  0  0  0
   -2.9200    1.8700    0.1580 O   0  0  0  0  0  0  0  0  0  0  0  0
   -3.9320    1.0840   -0.4150 C   0  0  0  0  0  0  0  0  0  0  0  0
   -3.4150   -0.3260   -0.5230 C   0  0  0  0  0  0  0  0  0  0  0  0
   -2.1530   -0.3990   -1.0810 O   0  0  0  0  0  0  0  0  0  0  0  0
   -1.2020    0.0710   -0.1680 C   0  0  2  0  0  0  0  0  0  0  0  0
   -1.0210   -0.8240    1.0140 C   0  0  0  0  0  0  0  0  0  0  0  0
    0.3080   -1.3370    0.8850 O   0  0  0  0  0  0  0  0  0  0  0  0
    0.8700   -0.4330    0.0720 C   0  0  1  0  0  0  0  0  0  0  0  0
    2.2470   -0.8200   -0.4390 C   0  0  0  0  0  0  0  0  0  0  0  0
    3.0010   -0.7020    0.7250 O   0  0  0  0  0  0  0  0  0  0  0  0
    3.7500    0.3280    0.6450 O   0  0  0  0  0  0  0  0  0  0  0  0
    3.8000    0.9990   -0.4650 O   0  0  0  0  0  0  0  0  0  0  0  0
    5.1260    0.8080   -0.7600 O   0  0  0  0  0  0  0  0  0  0  0  0
    5.3830   -0.4680   -0.4660 O   0  0  0  0  0  0  0  0  0  0  0  0
    0.0330    0.0520   -0.8590 O   0  0  0  0  0  0  0  0  0  0  0  0
  1  2  2  0
  2  3  1  0
  2  7  1  0
  3  4  1  0
  4  5  1  0
  5  6  1  0
  6  7  1  0
  7  8  1  1
  7 17  1  0
  8  9  1  0
  9 10  1  0
 10 11  1  6
 10 17  1  0
 11 12  1  0
 12 13  1  0
 13 14  1  0
 14 15  1  0
 15 16  1  0
M  END
