
     RDKit          3D

 17 18  0  0  0  0  0  0  0  0999 V2000
   -2.1070    1.9610   -2.1860 O   0  0  0  0  0  0  0  0  0  0  0  0
   -2.7430    1.6430   -1.1480 C   0  0  0  0  0  0  0  0  0  0  0  0
   -4.0010    2.2320   -0.9230 O   0  0  0  0  0  0  0  0  0  0  0  0
   -2.1760    0.7380   -0.2910 O   0  0  0  0  0  0  0  0  0  0  0  0
   -0.9260    0.1920   -0.5760 C   0  0  1  0  0  0  0  0  0  0  0  0
    0.0940    0.4750    0.5360 C   0  0  0  0  0  0  0  0  0  0  0  0
    1.1070   -0.6030    0.2560 C   0  0  1  0  0  0  0  0  0  0  0  0
    1.7660   -0.2510   -0.9240 O   0  0  0  0  0  0  0  0  0  0  0  0
    1.9610   -0.8810    1.3140 O   0  0  0  0  0  0  0  0  0  0  0  0
    2.7750    0.1160    1.8220 C   0  0  0  0  0  0  0  0  0  0  0  0
    2.6990    1.2480    1.2850 O   0  0  0  0  0  0  0  0  0  0  0  0
    3.6510   -0.0550    2.8620 O   0  0  0  0  0  0  0  0  0  0  0  0
    0.2120   -1.7600   -0.0750 C   0  0  0  0  0  0  0  0  0  0  0  0
   -0.9380   -1.3010   -0.5460 C   0  0  0  0  0  0  0  0  0  0  0  0
   -1.7090   -2.4240   -0.8280 O   0  0  0  0  0  0  0  0  0  0  0  0
   -0.9640   -3.5300   -0.7700 O   0  0  0  0  0  0  0  0  0  0  0  0
    0.1010   -3.1360   -0.0870 O   0  0  0  0  0  0  0  0  0  0  0  0
  1  2  2  0
  2  3  1  0
  2  4  1  0
  5  4  1  1
  5  6  1  0
  5 14  1  0
  6  7  1  0
  7  8  1  6
  7  9  1  0
  7 13  1  0
  9 10  1  0
 10 11  2  0
 10 12  1  0
 13 14  2  0
 13 17  1  0
 14 15  1  0
 15 16  1  0
 16 17  1  0
M  END
