
     RDKit          3D

 22 23  0  0  0  0  0  0  0  0999 V2000
   -4.4970    3.5560   -1.0220 O   0  0  0  0  0  0  0  0  0  0  0  0
   -3.7750    2.6210   -0.6380 C   0  0  0  0  0  0  0  0  0  0  0  0
   -4.2780    1.5200   -0.0190 C   0  0  0  0  0  0  0  0  0  0  0  0
   -3.4420    0.5000    0.3930 C   0  0  0  0  0  0  0  0  0  0  0  0
   -3.9030   -0.6430    1.0280 O   0  0  0  0  0  0  0  0  0  0  0  0
   -2.1320    0.6420    0.1600 N   0  0  0  0  0  0  0  0  0  0  0  0
   -1.2010   -0.4070    0.5750 C   0  0  2  0  0  0  0  0  0  0  0  0
    0.1080    0.0390    0.5020 O   0  0  0  0  0  0  0  0  0  0  0  0
    0.9030   -1.0950    0.3230 C   0  0  2  0  0  0  0  0  0  0  0  0
    2.1370   -0.6830   -0.4000 C   0  0  0  0  0  0  0  0  0  0  0  0
    2.8760    0.2750    0.3000 O   0  0  0  0  0  0  0  0  0  0  0  0
    4.1570    0.7440   -0.3830 P   0  0  0  0  0  0  0  0  0  0  0  0
    3.3350    1.3190   -1.6890 O   0  0  0  0  0  0  0  0  0  0  0  0
    4.7470   -0.7970   -0.4040 O   0  0  0  0  0  0  0  0  0  0  0  0
    4.4980    1.7440    0.8780 O   0  0  0  0  0  0  0  0  0  0  0  0
    0.1130   -2.0180   -0.5940 C   0  0  1  0  0  0  0  0  0  0  0  0
    0.3490   -3.3420   -0.2510 O   0  0  0  0  0  0  0  0  0  0  0  0
   -1.3050   -1.5850   -0.3590 C   0  0  1  0  0  0  0  0  0  0  0  0
   -1.9910   -2.6580    0.2020 O   0  0  0  0  0  0  0  0  0  0  0  0
   -1.6290    1.7300   -0.4530 C   0  0  0  0  0  0  0  0  0  0  0  0
   -0.3980    1.8420   -0.6610 O   0  0  0  0  0  0  0  0  0  0  0  0
   -2.4390    2.7230   -0.8550 N   0  0  0  0  0  0  0  0  0  0  0  0
  1  2  2  0
  2  3  1  0
  2 22  1  0
  3  4  2  0
  4  5  1  0
  4  6  1  0
  7  6  1  6
  6 20  1  0
  7  8  1  0
  7 18  1  0
  8  9  1  0
  9 10  1  6
  9 16  1  0
 10 11  1  0
 11 12  1  0
 12 13  1  0
 12 14  1  0
 12 15  1  0
 16 17  1  1
 16 18  1  0
 18 19  1  1
 20 21  2  0
 20 22  1  0
M  END
