
     RDKit          3D

 20 19  0  0  0  0  0  0  0  0999 V2000
    3.6790    2.0270   -0.0520 C   0  0  0  0  0  0  0  0  0  0  0  0
    2.9960    0.8420   -0.2310 O   0  0  0  0  0  0  0  0  0  0  0  0
    2.9260    0.0980    0.9280 C   0  0  0  0  0  0  0  0  0  0  0  0
    2.2180   -1.2020    0.8060 C   0  0  0  0  0  0  0  0  0  0  0  0
    0.9400   -1.2890    0.4600 O   0  0  0  0  0  0  0  0  0  0  0  0
    0.5660   -0.7360   -0.7340 C   0  0  1  0  0  0  0  0  0  0  0  0
    0.5670   -2.0160   -1.6390 C   0  0  0  0  0  0  0  0  0  0  0  0
    0.7440   -3.2880   -1.0430 N   0  0  0  0  0  0  0  0  0  0  0  0
    0.4180   -1.9440   -2.8610 O   0  0  0  0  0  0  0  0  0  0  0  0
   -0.8360   -0.2750   -0.7810 C   0  0  1  0  0  0  0  0  0  0  0  0
   -1.1310    0.3600   -2.1220 C   0  0  0  0  0  0  0  0  0  0  0  0
   -2.4630    0.8190   -2.1810 O   0  0  0  0  0  0  0  0  0  0  0  0
   -1.7250   -1.5260   -0.7470 C   0  0  0  0  0  0  0  0  0  0  0  0
   -3.0800   -1.1890   -0.7850 O   0  0  0  0  0  0  0  0  0  0  0  0
   -1.3380    0.6500    0.2750 C   0  0  1  0  0  0  0  0  0  0  0  0
   -2.7250    0.8300   -0.0820 O   0  0  0  0  0  0  0  0  0  0  0  0
   -1.3240    0.0840    1.6440 C   0  0  0  0  0  0  0  0  0  0  0  0
   -1.9430    0.9110    2.6460 N   0  0  0  0  0  0  0  0  0  0  0  0
   -0.8160    2.0590    0.2170 C   0  0  0  0  0  0  0  0  0  0  0  0
    0.4930    2.2260    0.5590 O   0  0  0  0  0  0  0  0  0  0  0  0
  1  2  1  0
  2  3  1  0
  3  4  1  0
  4  5  1  0
  6  5  1  1
  6  7  1  0
  6 10  1  0
  7  8  1  0
  7  9  2  0
 10 11  1  6
 10 13  1  0
 10 15  1  0
 11 12  1  0
 13 14  1  0
 15 16  1  6
 15 17  1  0
 15 19  1  0
 17 18  1  0
 19 20  1  0
M  CHG  1  18   1
M  END
