
     RDKit          3D

 20 19  0  0  0  0  0  0  0  0999 V2000
    4.2670   -2.3430   -0.1780 N   0  0  0  0  0  0  0  0  0  0  0  0
    4.4030   -1.3080    0.7740 C   0  0  0  0  0  0  0  0  0  0  0  0
    5.0720   -1.4910    1.8160 O   0  0  0  0  0  0  0  0  0  0  0  0
    3.7390    0.0270    0.5370 C   0  0  1  0  0  0  0  0  0  0  0  0
    4.9080    1.0240    0.4950 C   0  0  0  0  0  0  0  0  0  0  0  0
    4.3640    2.3470    0.2650 N   0  0  0  0  0  0  0  0  0  0  0  0
    3.0580    0.0440   -0.6410 O   0  0  0  0  0  0  0  0  0  0  0  0
    1.7010    0.3040   -0.5740 C   0  0  0  0  0  0  0  0  0  0  0  0
    1.0180   -0.7520    0.2170 C   0  0  0  0  0  0  0  0  0  0  0  0
   -0.3520   -0.5710    0.3340 O   0  0  0  0  0  0  0  0  0  0  0  0
   -1.0170   -0.5550   -0.8620 C   0  0  0  0  0  0  0  0  0  0  0  0
   -2.5230   -0.3420   -0.4750 C   0  0  1  0  0  0  0  0  0  0  0  0
   -3.2240   -0.3220   -1.7020 O   0  0  0  0  0  0  0  0  0  0  0  0
   -2.9000   -1.5230    0.3430 C   0  0  0  0  0  0  0  0  0  0  0  0
   -4.3100   -1.5250    0.8350 C   0  0  0  0  0  0  0  0  0  0  0  0
   -4.5500   -2.7120    1.5550 O   0  0  0  0  0  0  0  0  0  0  0  0
   -2.6630    1.0030    0.1530 C   0  0  2  0  0  0  0  0  0  0  0  0
   -2.1130    1.1240    1.4110 O   0  0  0  0  0  0  0  0  0  0  0  0
   -3.9880    1.6790   -0.0170 C   0  0  0  0  0  0  0  0  0  0  0  0
   -3.8730    3.0670    0.2170 O   0  0  0  0  0  0  0  0  0  0  0  0
  1  2  1  0
  2  3  2  0
  2  4  1  0
  4  5  1  6
  4  7  1  0
  5  6  1  0
  7  8  1  0
  8  9  1  0
  9 10  1  0
 10 11  1  0
 11 12  1  0
 12 13  1  6
 12 14  1  0
 12 17  1  0
 14 15  1  0
 15 16  1  0
 17 18  1  1
 17 19  1  0
 19 20  1  0
M  CHG  1   6   1
M  END
