
     RDKit          3D

 20 22  0  0  0  0  0  0  0  0999 V2000
   -1.4390    1.3950   -2.8480 O   0  0  0  0  0  0  0  0  0  0  0  0
   -2.2070    1.5780   -1.7080 C   0  0  0  0  0  0  0  0  0  0  0  0
   -2.1310    0.3630   -0.8260 C   0  0  2  0  0  0  0  0  0  0  0  0
   -2.9580    0.5230    0.4310 C   0  0  1  0  0  0  0  0  0  0  0  0
   -4.1600    1.1460    0.2000 O   0  0  0  0  0  0  0  0  0  0  0  0
   -3.1210   -0.8720    1.0030 C   0  0  2  0  0  0  0  0  0  0  0  0
   -3.9560   -0.8760    2.1160 O   0  0  0  0  0  0  0  0  0  0  0  0
   -1.8000   -1.5080    1.2480 C   0  0  1  0  0  0  0  0  0  0  0  0
   -1.7760   -2.8530    0.8170 O   0  0  0  0  0  0  0  0  0  0  0  0
   -0.6500   -0.8230    0.6020 C   0  0  0  0  0  0  0  0  0  0  0  0
    0.6460   -0.9670    0.8740 N   0  0  0  0  0  0  0  0  0  0  0  0
    1.3370   -0.1720    0.0660 C   0  0  0  0  0  0  0  0  0  0  0  0
    2.7980    0.0130   -0.0080 C   0  0  0  0  0  0  0  0  0  0  0  0
    3.6070   -0.7020    0.8460 C   0  0  0  0  0  0  0  0  0  0  0  0
    4.9900   -0.5710    0.8250 C   0  0  0  0  0  0  0  0  0  0  0  0
    5.5700    0.3020   -0.0770 C   0  0  0  0  0  0  0  0  0  0  0  0
    4.7630    1.0120   -0.9260 C   0  0  0  0  0  0  0  0  0  0  0  0
    3.3880    0.8770   -0.9000 C   0  0  0  0  0  0  0  0  0  0  0  0
    0.4460    0.4850   -0.7310 C   0  0  0  0  0  0  0  0  0  0  0  0
   -0.7780    0.0720   -0.3880 N   0  0  0  0  0  0  0  0  0  0  0  0
  1  2  1  0
  3  2  1  1
  3  4  1  0
  3 20  1  0
  4  5  1  6
  4  6  1  0
  6  7  1  1
  6  8  1  0
  8  9  1  6
  8 10  1  0
 10 11  2  0
 10 20  1  0
 11 12  1  0
 12 13  1  0
 12 19  2  0
 13 14  2  0
 13 18  1  0
 14 15  1  0
 15 16  2  0
 16 17  1  0
 17 18  2  0
 19 20  1  0
M  END
