
     RDKit          3D

 21 20  0  0  0  0  0  0  0  0999 V2000
    1.5630   -3.9870    1.3360 N   0  0  0  0  0  0  0  0  0  0  0  0
    1.2300   -2.6540    1.0500 C   0  0  0  0  0  0  0  0  0  0  0  0
    1.3400   -1.7890    1.9380 O   0  0  0  0  0  0  0  0  0  0  0  0
    0.7540   -2.2680   -0.2820 C   0  0  1  0  0  0  0  0  0  0  0  0
    0.7230   -3.4110   -1.0780 O   0  0  0  0  0  0  0  0  0  0  0  0
   -0.6940   -1.7700   -0.2350 C   0  0  0  0  0  0  0  0  0  0  0  0
   -0.8250   -0.6430    0.5160 O   0  0  0  0  0  0  0  0  0  0  0  0
   -2.1420   -0.2300    0.5840 C   0  0  0  0  0  0  0  0  0  0  0  0
   -2.7800    0.1180   -0.7160 C   0  0  2  0  0  0  0  0  0  0  0  0
   -2.1150    1.1810   -1.3380 O   0  0  0  0  0  0  0  0  0  0  0  0
   -4.2370    0.3700   -0.6100 C   0  0  0  0  0  0  0  0  0  0  0  0
   -4.6750    1.4860    0.2840 C   0  0  0  0  0  0  0  0  0  0  0  0
   -4.3140    1.2590    1.5940 O   0  0  0  0  0  0  0  0  0  0  0  0
    1.6340   -1.2690   -0.9430 C   0  0  0  0  0  0  0  0  0  0  0  0
    2.2050   -1.5340   -2.0460 O   0  0  0  0  0  0  0  0  0  0  0  0
    1.8770    0.0160   -0.3810 N   0  0  0  0  0  0  0  0  0  0  0  0
    2.7470    0.9450   -1.0770 C   0  0  0  0  0  0  0  0  0  0  0  0
    2.9050    2.2450   -0.3680 C   0  0  2  0  0  0  0  0  0  0  0  0
    3.7550    3.0490   -1.1260 O   0  0  0  0  0  0  0  0  0  0  0  0
    3.6340    2.0050    0.9600 C   0  0  0  0  0  0  0  0  0  0  0  0
    3.8880    3.2030    1.6180 O   0  0  0  0  0  0  0  0  0  0  0  0
  1  2  1  0
  2  3  2  0
  2  4  1  0
  4  5  1  6
  4  6  1  0
  4 14  1  0
  6  7  1  0
  7  8  1  0
  8  9  1  0
  9 10  1  1
  9 11  1  0
 11 12  1  0
 12 13  1  0
 14 15  2  0
 14 16  1  0
 16 17  1  0
 17 18  1  0
 18 19  1  6
 18 20  1  0
 20 21  1  0
M  END
