
     RDKit          3D

 20 19  0  0  0  0  0  0  0  0999 V2000
   -2.5590    1.8820    3.0000 C   0  0  0  0  0  0  0  0  0  0  0  0
   -2.7120    1.3080    1.7690 O   0  0  0  0  0  0  0  0  0  0  0  0
   -2.3400   -0.0080    1.7590 C   0  0  0  0  0  0  0  0  0  0  0  0
   -2.4660   -0.7260    0.4740 C   0  0  0  0  0  0  0  0  0  0  0  0
   -1.6820   -0.2100   -0.6840 C   0  0  2  0  0  0  0  0  0  0  0  0
   -2.0290    1.2120   -1.0590 C   0  0  0  0  0  0  0  0  0  0  0  0
   -1.3070    1.6190   -2.1990 O   0  0  0  0  0  0  0  0  0  0  0  0
   -2.0690   -1.1100   -1.8690 C   0  0  0  0  0  0  0  0  0  0  0  0
   -3.4490   -0.9490   -2.1350 O   0  0  0  0  0  0  0  0  0  0  0  0
   -0.2750   -0.3510   -0.3780 N   0  0  0  0  0  0  0  0  0  0  0  0
    0.6290   -0.0000   -1.4040 C   0  0  0  0  0  0  0  0  0  0  0  0
    1.9260   -0.7860   -1.2510 C   0  0  1  0  0  0  0  0  0  0  0  0
    2.8130   -0.4400   -2.2890 O   0  0  0  0  0  0  0  0  0  0  0  0
    2.6100   -0.5060    0.0650 C   0  0  1  0  0  0  0  0  0  0  0  0
    1.7830   -0.8510    1.1170 O   0  0  0  0  0  0  0  0  0  0  0  0
    3.8980   -1.3090    0.0890 C   0  0  0  0  0  0  0  0  0  0  0  0
    4.6060   -1.1020    1.2550 O   0  0  0  0  0  0  0  0  0  0  0  0
    2.9970    0.9380    0.1580 C   0  0  0  0  0  0  0  0  0  0  0  0
    2.4890    1.6860    1.2420 N   0  0  0  0  0  0  0  0  0  0  0  0
    3.7510    1.4620   -0.7060 O   0  0  0  0  0  0  0  0  0  0  0  0
  1  2  1  0
  2  3  1  0
  3  4  1  0
  5  4  1  1
  5  6  1  0
  5  8  1  0
  5 10  1  0
  6  7  1  0
  8  9  1  0
 10 11  1  0
 11 12  1  0
 12 13  1  6
 12 14  1  0
 14 15  1  1
 14 16  1  0
 14 18  1  0
 16 17  1  0
 18 19  1  0
 18 20  2  0
M  CHG  1  10   1
M  END
