
     RDKit          3D

 21 23  0  0  0  0  0  0  0  0999 V2000
    0.3360    2.8210   -0.8630 C   0  0  0  0  0  0  0  0  0  0  0  0
    0.6460    1.9930    0.2070 O   0  0  0  0  0  0  0  0  0  0  0  0
    1.1290    0.7040    0.1540 C   0  0  0  0  0  0  0  0  0  0  0  0
    2.5000    0.4770    0.0910 C   0  0  0  0  0  0  0  0  0  0  0  0
    2.9930   -0.8040    0.0380 C   0  0  0  0  0  0  0  0  0  0  0  0
    2.1540   -1.9200    0.0450 C   0  0  0  0  0  0  0  0  0  0  0  0
    2.6830   -3.1960   -0.0100 O   0  0  0  0  0  0  0  0  0  0  0  0
    0.8150   -1.6670    0.1080 C   0  0  0  0  0  0  0  0  0  0  0  0
   -0.1330   -2.6780    0.1210 O   0  0  0  0  0  0  0  0  0  0  0  0
    0.2820   -0.3680    0.1630 C   0  0  0  0  0  0  0  0  0  0  0  0
   -1.1580   -0.1910    0.2510 C   0  0  0  0  0  0  0  0  0  0  0  0
   -1.9220    0.2330   -0.8060 C   0  0  0  0  0  0  0  0  0  0  0  0
   -3.3080    0.3900   -0.6940 C   0  0  0  0  0  0  0  0  0  0  0  0
   -4.0060    0.8300   -1.8290 O   0  0  0  0  0  0  0  0  0  0  0  0
   -3.9670    0.1280    0.4770 C   0  0  0  0  0  0  0  0  0  0  0  0
   -3.2110   -0.2990    1.5470 C   0  0  0  0  0  0  0  0  0  0  0  0
   -3.8780   -0.5660    2.7310 O   0  0  0  0  0  0  0  0  0  0  0  0
   -1.8490   -0.4550    1.4430 C   0  0  0  0  0  0  0  0  0  0  0  0
    4.3980   -0.7640   -0.0200 O   0  0  0  0  0  0  0  0  0  0  0  0
    4.6930    0.5800   -0.4490 C   0  0  0  0  0  0  0  0  0  0  0  0
    3.6100    1.3470    0.0650 O   0  0  0  0  0  0  0  0  0  0  0  0
  1  2  1  0
  2  3  1  0
  3  4  2  0
  3 10  1  0
  4  5  1  0
  4 21  1  0
  5  6  2  0
  5 19  1  0
  6  7  1  0
  6  8  1  0
  8  9  1  0
  8 10  2  0
 10 11  1  0
 11 12  2  0
 11 18  1  0
 12 13  1  0
 13 14  1  0
 13 15  2  0
 15 16  1  0
 16 17  1  0
 16 18  2  0
 19 20  1  0
 20 21  1  0
M  END
