
     RDKit          3D

 16 17  0  0  0  0  0  0  0  0999 V2000
    4.9890    0.0950    0.4380 C   0  0  0  0  0  0  0  0  0  0  0  0
    4.2570   -0.8760   -0.1990 O   0  0  0  0  0  0  0  0  0  0  0  0
    3.2300   -0.3250   -1.4180 S   0  0  0  0  0  0  0  0  0  0  0  0
    1.8730    0.6720   -0.8430 C   0  0  0  0  0  0  0  0  0  0  0  0
    0.8690   -0.1010    0.0130 C   0  0  1  0  0  0  0  0  0  0  0  0
   -0.1570    0.8630    0.3870 C   0  0  0  0  0  0  0  0  0  0  0  0
   -1.4320    0.7050    0.1670 C   0  0  0  0  0  0  0  0  0  0  0  0
   -2.3780    1.7210    0.5740 N   0  0  0  0  0  0  0  0  0  0  0  0
   -3.7490    1.5340    0.3280 C   0  0  0  0  0  0  0  0  0  0  0  0
   -4.6100    2.4200    0.6800 O   0  0  0  0  0  0  0  0  0  0  0  0
   -4.1950    0.3610   -0.3150 N   0  0  0  0  0  0  0  0  0  0  0  0
   -3.3720   -0.7180   -0.7640 C   0  0  0  0  0  0  0  0  0  0  0  0
   -1.9340   -0.4820   -0.4880 C   0  0  0  0  0  0  0  0  0  0  0  0
   -1.0760   -1.4180   -0.8650 C   0  0  0  0  0  0  0  0  0  0  0  0
    0.3850   -1.3290   -0.6590 C   0  0  2  0  0  0  0  0  0  0  0  0
    0.7170   -2.4570    0.1350 O   0  0  0  0  0  0  0  0  0  0  0  0
  1  2  1  0
  2  3  1  0
  3  4  1  0
  5  4  1  6
  5  6  1  0
  5 15  1  0
  6  7  2  0
  7  8  1  0
  7 13  1  0
  8  9  1  0
  9 10  2  0
  9 11  1  0
 11 12  1  0
 12 13  1  0
 13 14  2  0
 14 15  1  0
 15 16  1  1
M  END
