
     RDKit          3D

 21 24  0  0  0  0  0  0  0  0999 V2000
    4.4460    0.8730   -1.1990 C   0  0  0  0  0  0  0  0  0  0  0  0
    2.9630    0.9180   -1.0560 C   0  0  0  0  0  0  0  0  0  0  0  0
    2.1950    1.7900   -1.7150 N   0  0  0  0  0  0  0  0  0  0  0  0
    0.8640    1.7860   -1.5470 C   0  0  0  0  0  0  0  0  0  0  0  0
   -0.1120    2.5380   -2.0890 N   0  0  0  0  0  0  0  0  0  0  0  0
   -1.2850    2.1690   -1.6320 N   0  0  0  0  0  0  0  0  0  0  0  0
   -1.1460    1.1320   -0.7450 C   0  0  0  0  0  0  0  0  0  0  0  0
   -2.2660    0.4960   -0.0760 C   0  0  0  0  0  0  0  0  0  0  0  0
   -2.4180    0.5030    1.2920 C   0  0  0  0  0  0  0  0  0  0  0  0
   -3.5140   -0.0720    1.9290 C   0  0  0  0  0  0  0  0  0  0  0  0
   -4.5060   -0.6800    1.1900 C   0  0  0  0  0  0  0  0  0  0  0  0
   -4.3780   -0.7000   -0.1830 C   0  0  0  0  0  0  0  0  0  0  0  0
   -3.2760   -0.1210   -0.8080 C   0  0  0  0  0  0  0  0  0  0  0  0
   -3.1320   -0.1320   -2.1730 O   0  0  0  0  0  0  0  0  0  0  0  0
    0.2090    0.8980   -0.7000 C   0  0  0  0  0  0  0  0  0  0  0  0
    0.9850   -0.0160   -0.0080 C   0  0  0  0  0  0  0  0  0  0  0  0
    2.3540   -0.0060   -0.1840 C   0  0  0  0  0  0  0  0  0  0  0  0
    3.2160   -0.9580    0.5280 C   0  0  0  0  0  0  0  0  0  0  0  0
    2.5210   -1.6230    1.4970 O   0  0  0  0  0  0  0  0  0  0  0  0
    1.3090   -2.1430    1.0900 C   0  0  0  0  0  0  0  0  0  0  0  0
    0.2980   -0.9860    0.8840 C   0  0  0  0  0  0  0  0  0  0  0  0
  1  2  1  0
  2  3  2  0
  2 17  1  0
  3  4  1  0
  4  5  1  0
  4 15  2  0
  5  6  1  0
  6  7  2  0
  7  8  1  0
  7 15  1  0
  8  9  2  0
  8 13  1  0
  9 10  1  0
 10 11  2  0
 11 12  1  0
 12 13  2  0
 13 14  1  0
 15 16  1  0
 16 17  2  0
 16 21  1  0
 17 18  1  0
 18 19  1  0
 19 20  1  0
 20 21  1  0
M  END
