
     RDKit          3D

 20 23  0  0  0  0  0  0  0  0999 V2000
    4.4270   -2.3040    0.4020 N   0  0  0  0  0  0  0  0  0  0  0  0
    4.1790   -0.9860   -0.0570 C   0  0  0  0  0  0  0  0  0  0  0  0
    5.2640   -0.2070   -0.4500 C   0  0  0  0  0  0  0  0  0  0  0  0
    5.0620    1.0890   -0.9050 C   0  0  0  0  0  0  0  0  0  0  0  0
    3.7720    1.5750   -0.9550 C   0  0  0  0  0  0  0  0  0  0  0  0
    2.7090    0.7870   -0.5600 C   0  0  0  0  0  0  0  0  0  0  0  0
    1.3480    1.0740   -0.5300 C   0  0  0  0  0  0  0  0  0  0  0  0
    0.7280   -0.0600   -0.0520 C   0  0  0  0  0  0  0  0  0  0  0  0
   -0.7010   -0.1980    0.1400 C   0  0  0  0  0  0  0  0  0  0  0  0
   -1.1940   -1.3830    0.6240 C   0  0  0  0  0  0  0  0  0  0  0  0
   -2.5720   -1.5360    0.8170 C   0  0  0  0  0  0  0  0  0  0  0  0
   -3.4510   -0.5240    0.5340 C   0  0  0  0  0  0  0  0  0  0  0  0
   -2.9220    0.6650    0.0450 C   0  0  0  0  0  0  0  0  0  0  0  0
   -1.5650    0.8200   -0.1460 C   0  0  0  0  0  0  0  0  0  0  0  0
   -3.7800    1.7140   -0.2540 O   0  0  0  0  0  0  0  0  0  0  0  0
   -5.0910    1.6560    0.2880 C   0  0  0  0  0  0  0  0  0  0  0  0
   -5.6310    0.2620   -0.0410 C   0  0  0  0  0  0  0  0  0  0  0  0
   -4.8270   -0.6440    0.7150 O   0  0  0  0  0  0  0  0  0  0  0  0
    1.6830   -0.9720    0.1870 N   0  0  0  0  0  0  0  0  0  0  0  0
    2.8950   -0.4870   -0.1110 C   0  0  0  0  0  0  0  0  0  0  0  0
  1  2  1  0
  2  3  2  0
  2 20  1  0
  3  4  1  0
  4  5  2  0
  5  6  1  0
  6  7  1  0
  6 20  2  0
  7  8  2  0
  8  9  1  0
  8 19  1  0
  9 10  2  0
  9 14  1  0
 10 11  1  0
 11 12  2  0
 12 13  1  0
 12 18  1  0
 13 14  2  0
 13 15  1  0
 15 16  1  0
 16 17  1  0
 17 18  1  0
 19 20  1  0
M  END
