
     RDKit          3D

 16 16  0  0  0  0  0  0  0  0999 V2000
   -4.1920    1.5240    0.4860 C   0  0  0  0  0  0  0  0  0  0  0  0
   -2.4900    1.0260    0.9600 S   0  0  0  0  0  0  0  0  0  0  0  0
   -1.7260    0.3660   -0.5830 C   0  0  2  0  0  0  0  0  0  0  0  0
   -2.7550   -0.5130   -1.2350 C   0  0  0  0  0  0  0  0  0  0  0  0
   -0.6040   -0.5310   -0.1620 C   0  0  2  0  0  0  0  0  0  0  0  0
   -0.9700   -1.5380    0.7590 N   0  0  0  0  0  0  0  0  0  0  0  0
    0.7140    0.0840    0.0690 C   0  0  0  0  0  0  0  0  0  0  0  0
    1.7500   -0.7860    0.2510 C   0  0  0  0  0  0  0  0  0  0  0  0
    1.5200   -2.2420    0.2310 C   0  0  0  0  0  0  0  0  0  0  0  0
    3.0320   -0.2700    0.4050 N   0  0  0  0  0  0  0  0  0  0  0  0
    3.3900    1.0100   -0.3030 C   0  0  2  0  0  0  0  0  0  0  0  0
    4.6630    1.4790    0.0690 C   0  0  0  0  0  0  0  0  0  0  0  0
    4.8820    2.6800    0.3320 O   0  0  0  0  0  0  0  0  0  0  0  0
    2.3340    1.8670    0.3790 O   0  0  0  0  0  0  0  0  0  0  0  0
    1.0410    1.4860    0.1450 C   0  0  0  0  0  0  0  0  0  0  0  0
    0.0770    2.2800   -0.0030 O   0  0  0  0  0  0  0  0  0  0  0  0
  1  2  1  0
  2  3  1  0
  3  4  1  1
  3  5  1  0
  5  6  1  1
  5  7  1  0
  7  8  2  0
  7 15  1  0
  8  9  1  0
  8 10  1  0
 10 11  1  0
 11 12  1  1
 11 14  1  0
 12 13  2  0
 14 15  1  0
 15 16  2  0
M  END
