
     RDKit          3D

 16 17  0  0  0  0  0  0  0  0999 V2000
    6.0610    0.6930    0.9050 O   0  0  0  0  0  0  0  0  0  0  0  0
    4.8990    0.1990    0.2560 C   0  0  0  0  0  0  0  0  0  0  0  0
    3.8950    0.0850    1.2590 N   0  0  0  0  0  0  0  0  0  0  0  0
    2.6530   -0.4290    0.8050 C   0  0  0  0  0  0  0  0  0  0  0  0
    1.8590    0.4550   -0.1170 C   0  0  1  0  0  0  0  0  0  0  0  0
    2.5110    0.7500   -1.2920 O   0  0  0  0  0  0  0  0  0  0  0  0
    0.6000   -0.3160   -0.4390 C   0  0  0  0  0  0  0  0  0  0  0  0
    0.6900   -1.3310   -1.4250 C   0  0  0  0  0  0  0  0  0  0  0  0
   -1.0650   -1.9280   -1.4150 S   0  0  0  0  0  0  0  0  0  0  0  0
   -1.5840   -0.6970   -0.0850 C   0  0  0  0  0  0  0  0  0  0  0  0
   -3.0400   -0.8920    0.2040 C   0  0  1  0  0  0  0  0  0  0  0  0
   -3.6160    0.1030    1.1200 C   0  0  0  0  0  0  0  0  0  0  0  0
   -4.8580    0.5780    0.3500 C   0  0  0  0  0  0  0  0  0  0  0  0
   -4.3770    0.3360   -1.0850 C   0  0  0  0  0  0  0  0  0  0  0  0
   -3.7770   -0.9170   -0.9790 O   0  0  0  0  0  0  0  0  0  0  0  0
   -0.5880   -0.1750    0.0820 N   0  0  0  0  0  0  0  0  0  0  0  0
  1  2  1  0
  2  3  1  0
  3  4  1  0
  4  5  1  0
  5  6  1  6
  5  7  1  0
  7  8  2  0
  7 16  1  0
  8  9  1  0
  9 10  1  0
 11 10  1  6
 10 16  2  0
 11 12  1  0
 11 15  1  0
 12 13  1  0
 13 14  1  0
 14 15  1  0
M  END
