
     RDKit          3D

 21 23  0  0  0  0  0  0  0  0999 V2000
   -5.1170    2.3020   -1.7990 C   0  0  0  0  0  0  0  0  0  0  0  0
   -4.5250    1.3670   -1.0580 C   0  0  0  0  0  0  0  0  0  0  0  0
   -3.0750    1.3350   -0.9300 C   0  0  0  0  0  0  0  0  0  0  0  0
   -2.4370    0.4340   -0.2120 C   0  0  0  0  0  0  0  0  0  0  0  0
   -1.0210    0.4350   -0.1100 N   0  0  0  0  0  0  0  0  0  0  0  0
   -0.1930   -0.6310   -0.5150 C   0  0  0  0  0  0  0  0  0  0  0  0
   -0.7060   -1.6600   -0.9990 O   0  0  0  0  0  0  0  0  0  0  0  0
    1.2610   -0.5770   -0.3870 C   0  0  0  0  0  0  0  0  0  0  0  0
    1.9740    0.4840    0.1250 C   0  0  0  0  0  0  0  0  0  0  0  0
    3.3210    0.1710    0.0860 C   0  0  0  0  0  0  0  0  0  0  0  0
    4.4780    0.8190    0.4510 C   0  0  0  0  0  0  0  0  0  0  0  0
    5.7160    0.2420    0.2880 C   0  0  0  0  0  0  0  0  0  0  0  0
    6.8940    0.8990    0.6580 O   0  0  0  0  0  0  0  0  0  0  0  0
    5.8090   -1.0250   -0.2570 C   0  0  0  0  0  0  0  0  0  0  0  0
    4.6420   -1.6730   -0.6220 C   0  0  0  0  0  0  0  0  0  0  0  0
    3.3990   -1.0960   -0.4600 C   0  0  0  0  0  0  0  0  0  0  0  0
    2.1540   -1.5210   -0.7340 N   0  0  0  0  0  0  0  0  0  0  0  0
   -3.2300   -0.5700    0.4810 C   0  0  0  0  0  0  0  0  0  0  0  0
   -2.5590   -1.6270    1.3180 C   0  0  0  0  0  0  0  0  0  0  0  0
   -4.5100   -0.5640    0.3840 N   0  0  0  0  0  0  0  0  0  0  0  0
   -5.3240    0.3410   -0.3490 C   0  0  0  0  0  0  0  0  0  0  0  0
  1  2  2  0
  2  3  1  0
  2 21  1  0
  3  4  2  0
  4  5  1  0
  4 18  1  0
  5  6  1  0
  6  7  2  0
  6  8  1  0
  8  9  2  0
  8 17  1  0
  9 10  1  0
 10 11  2  0
 10 16  1  0
 11 12  1  0
 12 13  1  0
 12 14  2  0
 14 15  1  0
 15 16  2  0
 16 17  1  0
 18 19  1  0
 18 20  2  0
 20 21  1  0
M  END
