
     RDKit          3D

 21 24  0  0  0  0  0  0  0  0999 V2000
   -5.4770   -0.1700    0.0050 C   0  0  0  0  0  0  0  0  0  0  0  0
   -3.9960    0.0060    0.0290 C   0  0  0  0  0  0  0  0  0  0  0  0
   -3.4250    1.2410    0.2520 C   0  0  0  0  0  0  0  0  0  0  0  0
   -2.0360    1.4220    0.2780 C   0  0  0  0  0  0  0  0  0  0  0  0
   -1.2000    0.3440    0.0770 C   0  0  0  0  0  0  0  0  0  0  0  0
   -1.7670   -0.8890   -0.1450 C   0  0  0  0  0  0  0  0  0  0  0  0
   -3.1380   -1.0570   -0.1690 C   0  0  0  0  0  0  0  0  0  0  0  0
   -3.7080   -2.3480   -0.4010 N   0  0  0  0  0  0  0  0  0  0  0  0
    0.2450    0.5420    0.1060 C   0  0  0  0  0  0  0  0  0  0  0  0
    1.2440   -0.2960   -0.0520 O   0  0  0  0  0  0  0  0  0  0  0  0
    2.3940    0.3210    0.0550 C   0  0  0  0  0  0  0  0  0  0  0  0
    3.7050   -0.3170   -0.0680 C   0  0  0  0  0  0  0  0  0  0  0  0
    4.8670    0.4160    0.0590 C   0  0  0  0  0  0  0  0  0  0  0  0
    6.0820   -0.2250   -0.0640 C   0  0  0  0  0  0  0  0  0  0  0  0
    6.2190   -1.5410   -0.3040 N   0  0  0  0  0  0  0  0  0  0  0  0
    5.0780   -2.2720   -0.4310 C   0  0  0  0  0  0  0  0  0  0  0  0
    3.8510   -1.6580   -0.3130 C   0  0  0  0  0  0  0  0  0  0  0  0
    2.1100    1.6100    0.2910 N   0  0  0  0  0  0  0  0  0  0  0  0
    0.7870    1.7910    0.3310 C   0  0  0  0  0  0  0  0  0  0  0  0
   -0.0980    2.9520    0.5470 C   0  0  0  0  0  0  0  0  0  0  0  0
   -1.4620    2.6480    0.4980 O   0  0  0  0  0  0  0  0  0  0  0  0
  1  2  1  0
  2  3  2  0
  2  7  1  0
  3  4  1  0
  4  5  2  0
  4 21  1  0
  5  6  1  0
  5  9  1  0
  6  7  2  0
  7  8  1  0
  9 10  1  0
  9 19  2  0
 10 11  1  0
 11 12  1  0
 11 18  2  0
 12 13  2  0
 12 17  1  0
 13 14  1  0
 14 15  2  0
 15 16  1  0
 16 17  2  0
 18 19  1  0
 19 20  1  0
 20 21  1  0
M  END
