
     RDKit          3D

 21 24  0  0  0  0  0  0  0  0999 V2000
    2.2890    1.5720    1.9620 C   0  0  0  0  0  0  0  0  0  0  0  0
    2.6060    0.8080    0.7230 C   0  0  0  0  0  0  0  0  0  0  0  0
    1.7540    0.1080   -0.0910 C   0  0  0  0  0  0  0  0  0  0  0  0
    0.2940    0.0000    0.1570 C   0  0  0  0  0  0  0  0  0  0  0  0
   -0.1640    0.5850    1.1630 O   0  0  0  0  0  0  0  0  0  0  0  0
   -0.5300   -0.7270   -0.7070 N   0  0  0  0  0  0  0  0  0  0  0  0
   -1.9260   -0.8840   -0.5600 C   0  0  0  0  0  0  0  0  0  0  0  0
   -2.5500   -1.8210   -1.3940 C   0  0  0  0  0  0  0  0  0  0  0  0
   -3.9030   -2.0090   -1.3060 C   0  0  0  0  0  0  0  0  0  0  0  0
   -4.6950   -1.3000   -0.4120 C   0  0  0  0  0  0  0  0  0  0  0  0
   -4.1040   -0.3730    0.4190 C   0  0  0  0  0  0  0  0  0  0  0  0
   -2.7330   -0.2010    0.3100 C   0  0  0  0  0  0  0  0  0  0  0  0
   -5.1400    0.2500    1.2760 C   0  0  0  0  0  0  0  0  0  0  0  0
   -6.4030   -0.0530    0.4600 C   0  0  0  0  0  0  0  0  0  0  0  0
   -6.0560   -1.2940   -0.1220 O   0  0  0  0  0  0  0  0  0  0  0  0
    2.4150   -0.4530   -1.1200 N   0  0  0  0  0  0  0  0  0  0  0  0
    3.7130   -0.1270   -0.9940 C   0  0  0  0  0  0  0  0  0  0  0  0
    3.8650    0.6510    0.1340 C   0  0  0  0  0  0  0  0  0  0  0  0
    5.2790    1.0100    0.2830 C   0  0  0  0  0  0  0  0  0  0  0  0
    5.8510    0.7900   -1.0900 C   0  0  0  0  0  0  0  0  0  0  0  0
    4.9880   -0.2890   -1.5980 N   0  0  0  0  0  0  0  0  0  0  0  0
  1  2  1  0
  2  3  2  0
  2 18  1  0
  3  4  1  0
  3 16  1  0
  4  5  2  0
  4  6  1  0
  6  7  1  0
  7  8  2  0
  7 12  1  0
  8  9  1  0
  9 10  2  0
 10 11  1  0
 10 15  1  0
 11 12  2  0
 11 13  1  0
 13 14  1  0
 14 15  1  0
 16 17  1  0
 17 18  2  0
 17 21  1  0
 18 19  1  0
 19 20  1  0
 20 21  1  0
M  END
