
     RDKit          3D

 11 11  0  0  0  0  0  0  0  0999 V2000
   -1.6240    1.6080    0.5520 C   0  0  0  0  0  0  0  0  0  0  0  0
   -1.8330    0.3180   -0.1700 C   0  0  2  0  0  0  0  0  0  0  0  0
   -2.9400   -0.3530    0.3370 O   0  0  0  0  0  0  0  0  0  0  0  0
   -0.6240   -0.5790   -0.1550 C   0  0  2  0  0  0  0  0  0  0  0  0
   -0.8800   -1.6980   -0.9400 O   0  0  0  0  0  0  0  0  0  0  0  0
   -0.2490   -1.0070    1.2460 C   0  0  0  0  0  0  0  0  0  0  0  0
    0.9910   -0.3460    1.4140 O   0  0  0  0  0  0  0  0  0  0  0  0
    1.5020   -0.5030    0.1210 C   0  0  2  0  0  0  0  0  0  0  0  0
    2.8530    0.1080   -0.0490 C   0  0  0  0  0  0  0  0  0  0  0  0
    2.9020    1.4540    0.1860 O   0  0  0  0  0  0  0  0  0  0  0  0
    0.5150    0.0550   -0.6500 O   0  0  0  0  0  0  0  0  0  0  0  0
  2  1  1  1
  2  3  1  0
  2  4  1  0
  4  5  1  6
  4  6  1  0
  4 11  1  0
  6  7  1  0
  7  8  1  0
  8  9  1  1
  8 11  1  0
  9 10  1  0
M  END
