
     RDKit          3D

 10 10  0  0  0  0  0  0  0  0999 V2000
    2.4630    0.6220   -0.1300 O   0  0  0  0  0  0  0  0  0  0  0  0
    1.6310   -0.4490    0.1130 C   0  0  1  0  0  0  0  0  0  0  0  0
    1.2070   -0.5410    1.4280 O   0  0  0  0  0  0  0  0  0  0  0  0
    0.3700   -0.3140   -0.7420 C   0  0  1  0  0  0  0  0  0  0  0  0
   -0.4230   -1.3960   -0.4680 O   0  0  0  0  0  0  0  0  0  0  0  0
   -1.7270   -1.1260   -0.1850 C   0  0  0  0  0  0  0  0  0  0  0  0
   -1.8770    0.0370    0.7590 C   0  0  0  0  0  0  0  0  0  0  0  0
   -1.1770    1.1450    0.4080 O   0  0  0  0  0  0  0  0  0  0  0  0
   -0.2800    1.0140   -0.6050 C   0  0  1  0  0  0  0  0  0  0  0  0
    0.7380    1.9680   -0.3700 O   0  0  0  0  0  0  0  0  0  0  0  0
  2  1  1  1
  2  3  1  0
  2  4  1  0
  4  5  1  1
  4  9  1  0
  5  6  1  0
  6  7  1  0
  7  8  1  0
  8  9  1  0
  9 10  1  1
M  END
