
     RDKit          3D

 11 11  0  0  0  0  0  0  0  0999 V2000
   -3.4150   -0.3100    0.3450 O   0  0  0  0  0  0  0  0  0  0  0  0
   -2.1960   -0.2340   -0.3220 C   0  0  2  0  0  0  0  0  0  0  0  0
   -1.7440   -1.5220   -0.6650 O   0  0  0  0  0  0  0  0  0  0  0  0
   -1.1380    0.4370    0.5610 C   0  0  0  0  0  0  0  0  0  0  0  0
    0.1410    0.4540   -0.2880 C   0  0  2  0  0  0  0  0  0  0  0  0
    0.4500   -0.8400   -0.5820 O   0  0  0  0  0  0  0  0  0  0  0  0
    1.2300   -1.3680    0.4180 C   0  0  0  0  0  0  0  0  0  0  0  0
    2.5550   -0.5960    0.3370 C   0  0  0  0  0  0  0  0  0  0  0  0
    2.3000    0.6580    0.8030 O   0  0  0  0  0  0  0  0  0  0  0  0
    1.1930    1.2810    0.3200 C   0  0  1  0  0  0  0  0  0  0  0  0
    1.6330    2.3010   -0.5590 O   0  0  0  0  0  0  0  0  0  0  0  0
  2  1  1  1
  2  3  1  0
  2  4  1  0
  5  4  1  1
  5  6  1  0
  5 10  1  0
  6  7  1  0
  7  8  1  0
  8  9  1  0
  9 10  1  0
 10 11  1  6
M  END
