
     RDKit          3D

 11 11  0  0  0  0  0  0  0  0999 V2000
    1.8700    1.3170   -1.0350 O   0  0  0  0  0  0  0  0  0  0  0  0
    2.1110    0.4920    0.0450 C   0  0  0  0  0  0  0  0  0  0  0  0
    1.3190   -0.7810    0.0350 C   0  0  2  0  0  0  0  0  0  0  0  0
    1.6570   -1.4770   -1.1250 O   0  0  0  0  0  0  0  0  0  0  0  0
   -0.1630   -0.5940    0.1370 C   0  0  1  0  0  0  0  0  0  0  0  0
   -0.7530   -1.8610    0.1620 O   0  0  0  0  0  0  0  0  0  0  0  0
   -0.6200    0.1410    1.3490 C   0  0  0  0  0  0  0  0  0  0  0  0
   -1.9350    0.5120    1.3530 O   0  0  0  0  0  0  0  0  0  0  0  0
   -2.5410    0.4550    0.1240 C   0  0  0  0  0  0  0  0  0  0  0  0
   -1.5090    0.9990   -0.8770 C   0  0  0  0  0  0  0  0  0  0  0  0
   -0.5850   -0.0030   -1.0590 O   0  0  0  0  0  0  0  0  0  0  0  0
  1  2  1  0
  2  3  1  0
  3  4  1  6
  3  5  1  0
  5  6  1  1
  5  7  1  0
  5 11  1  0
  7  8  1  0
  8  9  1  0
  9 10  1  0
 10 11  1  0
M  END
