
     RDKit          3D

 11 11  0  0  0  0  0  0  0  0999 V2000
   -2.7440    0.2560    0.5030 C   0  0  0  0  0  0  0  0  0  0  0  0
   -1.7270   -0.2760   -0.4770 C   0  0  1  0  0  0  0  0  0  0  0  0
   -2.1430   -0.0060   -1.8000 O   0  0  0  0  0  0  0  0  0  0  0  0
   -0.3700    0.3700   -0.2680 C   0  0  2  0  0  0  0  0  0  0  0  0
    0.6060    0.0300   -1.3300 C   0  0  0  0  0  0  0  0  0  0  0  0
    1.6310   -0.7920   -0.9320 O   0  0  0  0  0  0  0  0  0  0  0  0
    2.2530   -0.4350    0.2310 C   0  0  1  0  0  0  0  0  0  0  0  0
    3.3720    0.3950   -0.0130 O   0  0  0  0  0  0  0  0  0  0  0  0
    1.3810    0.2350    1.2400 C   0  0  2  0  0  0  0  0  0  0  0  0
    1.6350   -0.2740    2.5330 O   0  0  0  0  0  0  0  0  0  0  0  0
    0.0340    0.1070    1.0180 O   0  0  0  0  0  0  0  0  0  0  0  0
  2  1  1  1
  2  3  1  0
  2  4  1  0
  4  5  1  6
  4 11  1  0
  5  6  1  0
  6  7  1  0
  7  8  1  6
  7  9  1  0
  9 10  1  1
  9 11  1  0
M  END
