
     RDKit          3D

 11 11  0  0  0  0  0  0  0  0999 V2000
    3.3460    0.8380   -0.1040 O   0  0  0  0  0  0  0  0  0  0  0  0
    2.6590   -0.3340   -0.3130 C   0  0  0  0  0  0  0  0  0  0  0  0
    1.4170   -0.4140    0.5610 C   0  0  2  0  0  0  0  0  0  0  0  0
    0.7200   -1.5890    0.3570 O   0  0  0  0  0  0  0  0  0  0  0  0
   -0.6390   -1.3160    0.5460 C   0  0  0  0  0  0  0  0  0  0  0  0
   -1.0760   -0.4630   -0.6240 C   0  0  1  0  0  0  0  0  0  0  0  0
   -2.5280   -0.0740   -0.5150 C   0  0  0  0  0  0  0  0  0  0  0  0
   -2.8030    0.6520    0.6300 O   0  0  0  0  0  0  0  0  0  0  0  0
   -0.1560    0.7050   -0.7180 C   0  0  1  0  0  0  0  0  0  0  0  0
   -0.8170    1.9280   -0.7790 O   0  0  0  0  0  0  0  0  0  0  0  0
    0.6440    0.7250    0.4190 O   0  0  0  0  0  0  0  0  0  0  0  0
  1  2  1  0
  3  2  1  6
  3  4  1  0
  3 11  1  0
  4  5  1  0
  5  6  1  0
  6  7  1  1
  6  9  1  0
  7  8  1  0
  9 10  1  1
  9 11  1  0
M  END
