
     RDKit          3D

 11 11  0  0  0  0  0  0  0  0999 V2000
    2.3190    1.1850    0.0520 O   0  0  0  0  0  0  0  0  0  0  0  0
    2.4310   -0.0740   -0.5300 C   0  0  0  0  0  0  0  0  0  0  0  0
    1.1330   -0.8420   -0.3810 C   0  0  1  0  0  0  0  0  0  0  0  0
    0.8350   -1.1960    1.0380 C   0  0  0  0  0  0  0  0  0  0  0  0
   -0.5160   -1.5300    1.1250 O   0  0  0  0  0  0  0  0  0  0  0  0
   -1.3560   -0.4940    0.7670 C   0  0  2  0  0  0  0  0  0  0  0  0
   -2.4420   -1.0230    0.0510 O   0  0  0  0  0  0  0  0  0  0  0  0
   -0.6900    0.5360   -0.1000 C   0  0  2  0  0  0  0  0  0  0  0  0
   -1.7030    1.3410   -0.8490 C   0  0  0  0  0  0  0  0  0  0  0  0
   -2.5220    1.9960    0.0690 O   0  0  0  0  0  0  0  0  0  0  0  0
    0.1340   -0.1230   -1.0110 O   0  0  0  0  0  0  0  0  0  0  0  0
  1  2  1  0
  3  2  1  1
  3  4  1  0
  3 11  1  0
  4  5  1  0
  5  6  1  0
  6  7  1  6
  6  8  1  0
  8  9  1  6
  8 11  1  0
  9 10  1  0
M  END
