
     RDKit          3D

 11 11  0  0  0  0  0  0  0  0999 V2000
   -2.4440   -0.4100    0.7160 C   0  0  0  0  0  0  0  0  0  0  0  0
   -1.2480   -0.1450   -0.1870 C   0  0  2  0  0  0  0  0  0  0  0  0
   -0.7010   -1.4200   -0.4980 O   0  0  0  0  0  0  0  0  0  0  0  0
    0.6960   -1.5580   -0.5360 C   0  0  0  0  0  0  0  0  0  0  0  0
    1.2750   -2.6230   -0.2000 O   0  0  0  0  0  0  0  0  0  0  0  0
    1.4210   -0.3450   -1.0030 C   0  0  2  0  0  0  0  0  0  0  0  0
    2.7740   -0.5680   -1.1110 O   0  0  0  0  0  0  0  0  0  0  0  0
    1.0860    0.7750   -0.0740 C   0  0  2  0  0  0  0  0  0  0  0  0
    2.0760    0.7930    0.9350 O   0  0  0  0  0  0  0  0  0  0  0  0
   -0.2590    0.6700    0.5670 C   0  0  1  0  0  0  0  0  0  0  0  0
   -0.7880    1.9640    0.7460 O   0  0  0  0  0  0  0  0  0  0  0  0
  2  1  1  1
  2  3  1  0
  2 10  1  0
  3  4  1  0
  4  5  2  0
  4  6  1  0
  6  7  1  1
  6  8  1  0
  8  9  1  1
  8 10  1  0
 10 11  1  6
M  END
