
     RDKit          3D

 24 27  0  0  0  0  0  0  0  0999 V2000
   -2.1010    4.5690    0.9010 O   0  0  0  0  0  0  0  0  0  0  0  0
   -1.0090    3.8290    0.4630 C   0  0  0  0  0  0  0  0  0  0  0  0
   -1.4100    2.3900    0.2340 C   0  0  0  0  0  0  0  0  0  0  0  0
   -2.6400    1.8760    0.4210 N   0  0  0  0  0  0  0  0  0  0  0  0
   -2.6290    0.5900    0.1260 N   0  0  0  0  0  0  0  0  0  0  0  0
   -3.7290   -0.3190    0.1910 C   0  0  0  0  0  0  0  0  0  0  0  0
   -3.7470   -1.4150    1.0270 C   0  0  0  0  0  0  0  0  0  0  0  0
   -4.8340   -2.2700    1.0570 C   0  0  0  0  0  0  0  0  0  0  0  0
   -5.9190   -2.0160    0.2320 C   0  0  0  0  0  0  0  0  0  0  0  0
   -7.0400   -2.8320    0.2130 O   0  0  0  0  0  0  0  0  0  0  0  0
   -5.9020   -0.9230   -0.6020 C   0  0  0  0  0  0  0  0  0  0  0  0
   -4.8100   -0.0690   -0.6290 C   0  0  0  0  0  0  0  0  0  0  0  0
   -1.3660    0.2390   -0.2660 C   0  0  0  0  0  0  0  0  0  0  0  0
   -0.6050    1.3730   -0.1960 C   0  0  0  0  0  0  0  0  0  0  0  0
    0.8150    1.3140   -0.5580 C   0  0  0  0  0  0  0  0  0  0  0  0
    1.2890    0.0100   -0.0620 N   0  0  2  0  0  0  0  0  0  0  0  0
    2.7060    0.0050   -0.0030 C   0  0  1  0  0  0  0  0  0  0  0  0
    3.2490   -0.5660    1.3110 C   0  0  0  0  0  0  0  0  0  0  0  0
    4.6960   -0.0650    1.3980 C   0  0  0  0  0  0  0  0  0  0  0  0
    5.4570   -0.6690    0.2520 C   0  0  0  0  0  0  0  0  0  0  0  0
    4.8510   -0.3750   -1.0890 C   0  0  0  0  0  0  0  0  0  0  0  0
    3.3750   -0.7130   -1.1430 C   0  0  0  0  0  0  0  0  0  0  0  0
    0.7020   -1.0340   -0.8300 C   0  0  0  0  0  0  0  0  0  0  0  0
   -0.7790   -1.0560   -0.7060 C   0  0  0  0  0  0  0  0  0  0  0  0
  1  2  1  0
  2  3  1  0
  3  4  2  0
  3 14  1  0
  4  5  1  0
  5  6  1  0
  5 13  1  0
  6  7  2  0
  6 12  1  0
  7  8  1  0
  8  9  2  0
  9 10  1  0
  9 11  1  0
 11 12  2  0
 13 14  2  0
 13 24  1  0
 14 15  1  0
 16 15  1  6
 16 17  1  0
 16 23  1  0
 17 18  1  1
 17 22  1  0
 18 19  1  0
 19 20  1  0
 20 21  1  0
 21 22  1  0
 23 24  1  0
M  CHG  1  16   1
M  END
