
     RDKit          3D

 25 28  0  0  0  0  0  0  0  0999 V2000
   -1.3450   -2.7250   -0.7310 C   0  0  0  0  0  0  0  0  0  0  0  0
   -1.5910   -1.4290    0.0250 C   0  0  2  0  0  0  0  0  0  0  0  0
   -2.9700   -1.4940    0.6160 C   0  0  0  0  0  0  0  0  0  0  0  0
   -3.8440   -1.0340   -0.5120 C   0  0  0  0  0  0  0  0  0  0  0  0
   -2.8790   -0.6620   -1.6400 C   0  0  0  0  0  0  0  0  0  0  0  0
   -1.6300   -0.3720   -0.9640 N   0  0  1  0  0  0  0  0  0  0  0  0
   -1.7300    0.8810   -0.3190 C   0  0  2  0  0  0  0  0  0  0  0  0
   -2.4780    1.9610   -1.0060 C   0  0  0  0  0  0  0  0  0  0  0  0
   -2.1590    3.1420   -0.0620 C   0  0  0  0  0  0  0  0  0  0  0  0
   -0.6870    2.8520    0.1790 C   0  0  0  0  0  0  0  0  0  0  0  0
    0.3560    3.7040    0.5090 C   0  0  0  0  0  0  0  0  0  0  0  0
    1.6170    3.1860    0.6610 C   0  0  0  0  0  0  0  0  0  0  0  0
    2.9700    4.2360    1.0810 Cl  0  0  0  0  0  0  0  0  0  0  0  0
    1.9080    1.8470    0.5010 C   0  0  0  0  0  0  0  0  0  0  0  0
    3.2370    1.3460    0.6680 N   0  0  0  0  0  0  0  0  0  0  0  0
    3.5040   -0.0610    0.4910 C   0  0  0  0  0  0  0  0  0  0  0  0
    3.3570   -0.8030    1.5660 C   0  0  0  0  0  0  0  0  0  0  0  0
    3.5790   -2.2410    1.5900 C   0  0  0  0  0  0  0  0  0  0  0  0
    3.4280   -2.9310    2.6440 O   0  0  0  0  0  0  0  0  0  0  0  0
    3.9860   -2.8380    0.3290 C   0  0  0  0  0  0  0  0  0  0  0  0
    4.1990   -4.0890    0.2710 O   0  0  0  0  0  0  0  0  0  0  0  0
    4.1330   -2.0100   -0.7990 N   0  0  0  0  0  0  0  0  0  0  0  0
    3.9070   -0.6100   -0.7850 C   0  0  0  0  0  0  0  0  0  0  0  0
    0.8590    1.0200    0.1730 C   0  0  0  0  0  0  0  0  0  0  0  0
   -0.4380    1.5180    0.0110 C   0  0  0  0  0  0  0  0  0  0  0  0
  2  1  1  6
  2  3  1  0
  2  6  1  0
  3  4  1  0
  4  5  1  0
  6  5  1  6
  6  7  1  0
  7  8  1  6
  7 25  1  0
  8  9  1  0
  9 10  1  0
 10 11  2  0
 10 25  1  0
 11 12  1  0
 12 13  1  0
 12 14  2  0
 14 15  1  0
 14 24  1  0
 15 16  1  0
 16 17  2  0
 16 23  1  0
 17 18  1  0
 18 19  2  0
 18 20  1  0
 20 21  2  0
 20 22  1  0
 22 23  1  0
 24 25  2  0
M  CHG  1   6   1
M  END
