
     RDKit          3D

 21 24  0  0  0  0  0  0  0  0999 V2000
   -3.0890    1.1580   -0.0920 C   0  0  0  0  0  0  0  0  0  0  0  0
   -2.8850   -0.2510    0.4040 C   0  0  2  0  0  0  0  0  0  0  0  0
   -2.2480   -0.3050    1.7400 C   0  0  0  0  0  0  0  0  0  0  0  0
   -0.8720    0.2740    1.6900 C   0  0  0  0  0  0  0  0  0  0  0  0
   -0.0350   -0.3050    0.6020 C   0  0  1  0  0  0  0  0  0  0  0  0
   -0.7470   -0.2260   -0.7380 C   0  0  1  0  0  0  0  0  0  0  0  0
    0.0940   -0.6190   -1.8900 C   0  0  0  0  0  0  0  0  0  0  0  0
    1.4480   -1.1240   -1.5840 C   0  0  0  0  0  0  0  0  0  0  0  0
    2.1480   -0.5280   -0.4360 C   0  0  1  0  0  0  0  0  0  0  0  0
    3.3590    0.3120   -0.7960 C   0  0  0  0  0  0  0  0  0  0  0  0
    4.1210    0.7200    0.4020 C   0  0  2  0  0  0  0  0  0  0  0  0
    5.0730   -0.2790    0.7110 O   0  0  0  0  0  0  0  0  0  0  0  0
    3.3530    1.0670    1.6090 C   0  0  0  0  0  0  0  0  0  0  0  0
    2.0450    0.3910    1.7890 C   0  0  0  0  0  0  0  0  0  0  0  0
    1.2900    0.3310    0.4630 C   0  0  2  0  0  0  0  0  0  0  0  0
    1.1780    1.7540   -0.0260 C   0  0  0  0  0  0  0  0  0  0  0  0
   -1.9940   -1.0500   -0.5590 C   0  0  2  0  0  0  0  0  0  0  0  0
   -2.8530   -1.1630   -1.7540 C   0  0  0  0  0  0  0  0  0  0  0  0
   -4.2670   -1.3200   -1.1780 C   0  0  0  0  0  0  0  0  0  0  0  0
   -4.1490   -0.9770    0.2670 C   0  0  0  0  0  0  0  0  0  0  0  0
   -4.9490   -1.2580    1.1080 O   0  0  0  0  0  0  0  0  0  0  0  0
  2  1  1  6
  2  3  1  0
  2 17  1  0
  2 20  1  0
  3  4  1  0
  5  4  1  1
  5  6  1  0
  5 15  1  0
  6  7  1  6
  6 17  1  0
  7  8  1  0
  9  8  1  6
  9 10  1  0
  9 15  1  0
 10 11  1  0
 11 12  1  1
 11 13  1  0
 13 14  1  0
 14 15  1  0
 15 16  1  6
 17 18  1  6
 18 19  1  0
 19 20  1  0
 20 21  2  0
M  END
