
     RDKit          3D

 21 23  0  0  0  0  0  0  0  0999 V2000
   -4.6760   -1.5110    0.1060 C   0  0  0  0  0  0  0  0  0  0  0  0
   -3.7900   -0.2680   -0.0600 C   0  0  2  0  0  0  0  0  0  0  0  0
   -4.7850    0.8990   -0.1780 C   0  0  0  0  0  0  0  0  0  0  0  0
   -3.0450   -0.3270   -1.3420 C   0  0  0  0  0  0  0  0  0  0  0  0
   -1.7330   -0.9880   -1.3380 C   0  0  0  0  0  0  0  0  0  0  0  0
   -0.8770   -0.7970   -0.0920 C   0  0  2  0  0  0  0  0  0  0  0  0
   -1.6130   -0.6160    1.1670 C   0  0  2  0  0  0  0  0  0  0  0  0
   -2.9820   -0.0680    1.1520 C   0  0  0  0  0  0  0  0  0  0  0  0
   -0.8780    0.1620    2.0760 O   0  0  0  0  0  0  0  0  0  0  0  0
   -0.6200    1.4510    1.6380 C   0  0  0  0  0  0  0  0  0  0  0  0
   -0.4870    1.5450    0.1480 C   0  0  0  0  0  0  0  0  0  0  0  0
    0.2030    0.2650   -0.3460 C   0  0  1  0  0  0  0  0  0  0  0  0
    1.4710    0.0600    0.3880 C   0  0  1  0  0  0  0  0  0  0  0  0
    1.9860   -1.3870    0.2060 C   0  0  0  0  0  0  0  0  0  0  0  0
    3.3350   -1.6090    0.7790 C   0  0  0  0  0  0  0  0  0  0  0  0
    4.5150   -1.2650   -0.0250 C   0  0  0  0  0  0  0  0  0  0  0  0
    4.3340   -0.4590   -1.2340 C   0  0  0  0  0  0  0  0  0  0  0  0
    3.1560    0.4270   -1.3230 C   0  0  0  0  0  0  0  0  0  0  0  0
    2.6270    0.9240   -0.0040 C   0  0  1  0  0  0  0  0  0  0  0  0
    2.4570    2.3960   -0.0380 C   0  0  0  0  0  0  0  0  0  0  0  0
    3.6250    0.7670    1.0080 O   0  0  0  0  0  0  0  0  0  0  0  0
  2  1  1  1
  2  3  1  0
  2  4  1  0
  2  8  1  0
  4  5  1  0
  6  5  1  6
  6  7  1  0
  6 12  1  0
  7  8  1  6
  7  9  1  0
  9 10  1  0
 10 11  1  0
 12 11  1  1
 12 13  1  0
 13 14  1  6
 13 19  1  0
 14 15  1  0
 15 16  1  0
 16 17  1  0
 17 18  1  0
 18 19  1  0
 19 20  1  6
 19 21  1  0
M  END
