
     RDKit          3D

 28 29  0  0  0  0  0  0  0  0999 V2000
    0.1220   -3.0220   -2.1420 N   0  0  0  0  0  0  0  0  0  0  0  0
    0.4260   -1.6500   -1.8300 C   0  0  0  0  0  0  0  0  0  0  0  0
    0.4810   -0.8740   -2.7840 O   0  0  0  0  0  0  0  0  0  0  0  0
    0.6490   -1.2430   -0.4620 N   0  0  0  0  0  0  0  0  0  0  0  0
    0.5740   -2.1830    0.6010 C   0  0  0  0  0  0  0  0  0  0  0  0
    0.9580   -3.3510    0.3120 O   0  0  0  0  0  0  0  0  0  0  0  0
    0.1090   -1.7690    1.8080 O   0  0  0  0  0  0  0  0  0  0  0  0
   -1.1030   -1.2470    2.2020 C   0  0  0  0  0  0  0  0  0  0  0  0
   -2.0990   -1.0150    1.1140 C   0  0  0  0  0  0  0  0  0  0  0  0
   -2.5310    0.2930    1.0880 O   0  0  0  0  0  0  0  0  0  0  0  0
   -3.6990    0.5150    0.4160 C   0  0  0  0  0  0  0  0  0  0  0  0
   -3.5640    1.2380   -0.8890 C   0  0  0  0  0  0  0  0  0  0  0  0
   -2.8120    2.4600   -0.8240 N   0  0  0  0  0  0  0  0  0  0  0  0
   -1.6950    2.7390   -0.0330 C   0  0  0  0  0  0  0  0  0  0  0  0
   -1.6870    3.8360    0.6290 O   0  0  0  0  0  0  0  0  0  0  0  0
   -0.5390    1.9070    0.1140 N   0  0  0  0  0  0  0  0  0  0  0  0
   -0.0890    1.0230   -0.9290 C   0  0  0  0  0  0  0  0  0  0  0  0
    0.9490    0.1710   -0.2810 C   0  0  2  0  0  0  0  0  0  0  0  0
    2.2390    0.4760   -0.8900 N   0  0  0  0  0  0  0  0  0  0  0  0
    3.3940   -0.2130   -0.4380 C   0  0  0  0  0  0  0  0  0  0  0  0
    3.2540   -1.0610    0.4740 O   0  0  0  0  0  0  0  0  0  0  0  0
    4.6580    0.0420   -0.9900 O   0  0  0  0  0  0  0  0  0  0  0  0
    5.6990   -0.6590   -0.4980 O   0  0  0  0  0  0  0  0  0  0  0  0
    6.4120    0.2100    0.2020 O   0  0  0  0  0  0  0  0  0  0  0  0
    5.6370    0.8840    1.0320 O   0  0  0  0  0  0  0  0  0  0  0  0
    1.0400    0.5700    1.0840 N   0  0  0  0  0  0  0  0  0  0  0  0
    0.3380    1.7920    1.2280 C   0  0  0  0  0  0  0  0  0  0  0  0
    0.4600    2.6450    2.1770 O   0  0  0  0  0  0  0  0  0  0  0  0
  1  2  1  0
  2  3  2  0
  2  4  1  0
  4  5  1  0
  4 18  1  0
  5  6  2  0
  5  7  1  0
  7  8  1  0
  8  9  1  0
  9 10  1  0
 10 11  1  0
 11 12  1  0
 12 13  1  0
 13 14  1  0
 14 15  2  0
 14 16  1  0
 16 17  1  0
 16 27  1  0
 17 18  1  0
 18 19  1  6
 18 26  1  0
 19 20  1  0
 20 21  2  0
 20 22  1  0
 22 23  1  0
 23 24  1  0
 24 25  1  0
 26 27  1  0
 27 28  2  0
M  END
