
     RDKit          3D

 25 25  0  0  0  0  0  0  0  0999 V2000
   -2.7840    1.3780   -0.8940 C   0  0  0  0  0  0  0  0  0  0  0  0
   -2.3790   -0.0330   -0.3830 C   0  0  1  0  0  0  0  0  0  0  0  0
   -1.0070   -0.1590   -0.4050 O   0  0  0  0  0  0  0  0  0  0  0  0
   -0.2650    0.7060    0.3340 C   0  0  2  0  0  0  0  0  0  0  0  0
    0.5760    1.6330   -0.5440 C   0  0  0  0  0  0  0  0  0  0  0  0
    1.8180    2.0980    0.1530 C   0  0  0  0  0  0  0  0  0  0  0  0
    2.2110    3.4920    0.2180 C   0  0  0  0  0  0  0  0  0  0  0  0
    3.2610    3.7980    0.8170 O   0  0  0  0  0  0  0  0  0  0  0  0
    1.4590    4.4930   -0.3640 O   0  0  0  0  0  0  0  0  0  0  0  0
    2.5930    1.1630    0.7400 C   0  0  0  0  0  0  0  0  0  0  0  0
    2.0130   -0.1980    0.5580 C   0  0  1  0  0  0  0  0  0  0  0  0
    2.7740   -1.1950    1.1110 O   0  0  0  0  0  0  0  0  0  0  0  0
    3.3320   -2.3440    0.2790 P   0  0  0  0  0  0  0  0  0  0  0  0
    3.9620   -3.1560    1.5590 O   0  0  0  0  0  0  0  0  0  0  0  0
    1.7780   -2.6870   -0.2060 O   0  0  0  0  0  0  0  0  0  0  0  0
    4.2430   -1.3230   -0.6250 O   0  0  0  0  0  0  0  0  0  0  0  0
    0.6370   -0.0770    1.2370 C   0  0  1  0  0  0  0  0  0  0  0  0
    0.8410    0.6700    2.4020 O   0  0  0  0  0  0  0  0  0  0  0  0
   -2.8620   -0.0240    1.0080 C   0  0  0  0  0  0  0  0  0  0  0  0
   -4.1250    0.0890    1.1910 O   0  0  0  0  0  0  0  0  0  0  0  0
   -2.1220   -0.1220    2.1610 O   0  0  0  0  0  0  0  0  0  0  0  0
   -3.0530   -1.2140   -1.4620 P   0  0  0  0  0  0  0  0  0  0  0  0
   -3.8410   -2.0520   -0.4720 O   0  0  0  0  0  0  0  0  0  0  0  0
   -2.1350   -2.5700   -1.8630 O   0  0  0  0  0  0  0  0  0  0  0  0
   -4.4440   -0.8550   -2.3100 O   0  0  0  0  0  0  0  0  0  0  0  0
  2  1  1  6
  2  3  1  0
  2 19  1  0
  2 22  1  0
  4  3  1  6
  4  5  1  0
  4 17  1  0
  5  6  1  0
  6  7  1  0
  6 10  2  0
  7  8  2  0
  7  9  1  0
 10 11  1  0
 11 12  1  1
 11 17  1  0
 12 13  1  0
 13 14  1  0
 13 15  1  0
 13 16  1  0
 17 18  1  1
 19 20  2  0
 19 21  1  0
 22 23  1  0
 22 24  1  0
 22 25  1  0
M  END
