
     RDKit          3D

 28 29  0  0  0  0  0  0  0  0999 V2000
   -0.1770    5.5660   -0.8920 O   0  0  0  0  0  0  0  0  0  0  0  0
    0.2010    4.3550   -1.1440 C   0  0  0  0  0  0  0  0  0  0  0  0
   -0.8260    3.4140   -0.9110 N   0  0  0  0  0  0  0  0  0  0  0  0
   -1.1140    2.2230   -1.7180 C   0  0  0  0  0  0  0  0  0  0  0  0
   -1.0230    1.0440   -0.7380 C   0  0  0  0  0  0  0  0  0  0  0  0
   -2.1000    0.4780   -0.3140 N   0  0  0  0  0  0  0  0  0  0  0  0
   -1.8780   -0.5780    0.5890 N   0  0  0  0  0  0  0  0  0  0  0  0
   -1.8970   -0.9920    1.6460 C   0  0  0  0  0  0  0  0  0  0  0  0
   -2.3850   -0.0960    2.7700 O   0  0  0  0  0  0  0  0  0  0  0  0
   -1.5030   -2.3230    2.2640 C   0  0  0  0  0  0  0  0  0  0  0  0
   -1.9150   -2.7010    3.5350 C   0  0  0  0  0  0  0  0  0  0  0  0
   -2.6640   -1.9750    4.2910 O   0  0  0  0  0  0  0  0  0  0  0  0
   -1.5530   -3.9180    4.1330 O   0  0  0  0  0  0  0  0  0  0  0  0
   -0.7190   -3.1140    1.4480 C   0  0  0  0  0  0  0  0  0  0  0  0
   -0.3320   -2.7900    0.2140 O   0  0  0  0  0  0  0  0  0  0  0  0
   -0.7560   -3.1340   -1.0630 C   0  0  0  0  0  0  0  0  0  0  0  0
   -0.6960   -2.0320   -2.0800 C   0  0  0  0  0  0  0  0  0  0  0  0
    0.4900   -1.2160   -2.0310 N   0  0  0  0  0  0  0  0  0  0  0  0
    0.9120   -0.3750   -0.9840 C   0  0  0  0  0  0  0  0  0  0  0  0
    0.2570    0.5790   -0.4470 N   0  0  0  0  0  0  0  0  0  0  0  0
    2.2280   -0.6300   -0.4900 O   0  0  0  0  0  0  0  0  0  0  0  0
    3.0480    0.4180    0.0030 C   0  0  0  0  0  0  0  0  0  0  0  0
    3.4480    1.1730   -1.1290 O   0  0  0  0  0  0  0  0  0  0  0  0
    4.0340    2.2550   -0.6690 O   0  0  0  0  0  0  0  0  0  0  0  0
    3.4570    3.4610   -0.3190 C   0  0  0  0  0  0  0  0  0  0  0  0
    3.7630    3.8570    0.8690 O   0  0  0  0  0  0  0  0  0  0  0  0
    2.6620    4.1200   -1.1790 O   0  0  0  0  0  0  0  0  0  0  0  0
    1.4130    3.9520   -1.5810 O   0  0  0  0  0  0  0  0  0  0  0  0
  1  2  2  0
  2  3  1  0
  2 28  1  0
  3  4  1  0
  4  5  1  0
  5  6  2  0
  5 20  1  0
  6  7  1  0
  7  8  2  0
  8  9  1  0
  8 10  1  0
 10 11  1  0
 10 14  2  0
 11 12  2  0
 11 13  1  0
 14 15  1  0
 15 16  1  0
 16 17  1  0
 17 18  1  0
 18 19  1  0
 19 20  2  0
 19 21  1  0
 21 22  1  0
 22 23  1  0
 23 24  1  0
 24 25  1  0
 25 26  2  0
 25 27  1  0
 27 28  1  0
M  END
