
     RDKit          3D

 16 16  0  0  0  0  0  0  0  0999 V2000
    1.5880   -1.9460    1.0110 C   0  0  0  0  0  0  0  0  0  0  0  0
    2.0140   -0.4780    1.1120 C   0  0  1  0  0  0  0  0  0  0  0  0
    3.3590   -0.4410    0.7580 O   0  0  0  0  0  0  0  0  0  0  0  0
    4.1230    0.0130    1.7210 O   0  0  0  0  0  0  0  0  0  0  0  0
    4.3550    1.3160    1.5810 O   0  0  0  0  0  0  0  0  0  0  0  0
    1.1760    0.2650    0.1420 C   0  0  0  0  0  0  0  0  0  0  0  0
    1.7660    0.8060   -0.8280 O   0  0  0  0  0  0  0  0  0  0  0  0
   -0.2030    0.3720    0.2790 O   0  0  0  0  0  0  0  0  0  0  0  0
   -0.8930    1.1000   -0.7000 C   0  0  0  0  0  0  0  0  0  0  0  0
   -2.3760    1.1600   -0.4670 C   0  0  2  0  0  0  0  0  0  0  0  0
   -2.6240    1.7670    0.7620 O   0  0  0  0  0  0  0  0  0  0  0  0
   -3.0490   -0.1270   -0.6380 C   0  0  0  0  0  0  0  0  0  0  0  0
   -3.9850   -0.4310   -1.4680 N   0  0  0  0  0  0  0  0  0  0  0  0
   -4.3460   -1.7550   -1.3080 O   0  0  0  0  0  0  0  0  0  0  0  0
   -3.7340   -2.1940   -0.2000 O   0  0  0  0  0  0  0  0  0  0  0  0
   -2.7860   -1.2740    0.0860 O   0  0  0  0  0  0  0  0  0  0  0  0
  2  1  1  6
  2  3  1  0
  2  6  1  0
  3  4  1  0
  4  5  1  0
  6  7  2  0
  6  8  1  0
  8  9  1  0
  9 10  1  0
 10 11  1  1
 10 12  1  0
 12 13  2  0
 12 16  1  0
 13 14  1  0
 14 15  1  0
 15 16  1  0
M  END
