
     RDKit          3D

 16 16  0  0  0  0  0  0  0  0999 V2000
    2.3760   -0.4580   -1.9850 O   0  0  0  0  0  0  0  0  0  0  0  0
    1.9340    0.0220   -0.8850 C   0  0  0  0  0  0  0  0  0  0  0  0
    1.3770   -0.9820    0.0590 C   0  0  0  0  0  0  0  0  0  0  0  0
    0.5570   -1.8980   -0.6250 O   0  0  0  0  0  0  0  0  0  0  0  0
   -0.1620   -2.5210    0.3120 O   0  0  0  0  0  0  0  0  0  0  0  0
   -1.4450   -2.0950    0.5840 C   0  0  0  0  0  0  0  0  0  0  0  0
   -2.2990   -2.9160    1.0630 O   0  0  0  0  0  0  0  0  0  0  0  0
   -1.9270   -0.7110    0.3570 C   0  0  0  0  0  0  0  0  0  0  0  0
   -1.3000   -0.0960   -0.7610 O   0  0  0  0  0  0  0  0  0  0  0  0
   -1.2410    1.2880   -0.8840 C   0  0  0  0  0  0  0  0  0  0  0  0
   -1.5170    1.8140   -2.0230 O   0  0  0  0  0  0  0  0  0  0  0  0
   -0.8990    2.0410    0.1920 O   0  0  0  0  0  0  0  0  0  0  0  0
    0.2150    2.0340    0.9750 C   0  0  0  0  0  0  0  0  0  0  0  0
    0.0730    2.0110    2.2270 O   0  0  0  0  0  0  0  0  0  0  0  0
    1.4830    2.0500    0.4640 O   0  0  0  0  0  0  0  0  0  0  0  0
    1.9870    1.4160   -0.6160 N   0  0  0  0  0  0  0  0  0  0  0  0
  1  2  2  0
  2  3  1  0
  2 16  1  0
  3  4  1  0
  4  5  1  0
  5  6  1  0
  6  7  2  0
  6  8  1  0
  8  9  1  0
  9 10  1  0
 10 11  2  0
 10 12  1  0
 12 13  1  0
 13 14  2  0
 13 15  1  0
 15 16  1  0
M  END
