
     RDKit          3D

 16 16  0  0  0  0  0  0  0  0999 V2000
    3.8410    0.2330    0.2740 O   0  0  0  0  0  0  0  0  0  0  0  0
    3.3040   -0.6770   -0.4250 C   0  0  0  0  0  0  0  0  0  0  0  0
    3.7550   -0.8940   -1.7020 O   0  0  0  0  0  0  0  0  0  0  0  0
    2.2840   -1.3940    0.1690 O   0  0  0  0  0  0  0  0  0  0  0  0
    1.8800   -1.1030    1.4960 C   0  0  0  0  0  0  0  0  0  0  0  0
    1.4310    0.2280    1.6020 O   0  0  0  0  0  0  0  0  0  0  0  0
    0.4020    0.4330    0.8010 O   0  0  0  0  0  0  0  0  0  0  0  0
    0.3900    1.3250   -0.2510 C   0  0  0  0  0  0  0  0  0  0  0  0
    1.4150    2.0060   -0.4920 O   0  0  0  0  0  0  0  0  0  0  0  0
   -0.8300    1.4530   -1.0650 C   0  0  0  0  0  0  0  0  0  0  0  0
   -1.8860    0.5720   -0.6070 N   0  0  0  0  0  0  0  0  0  0  0  0
   -2.8380    0.8480    0.3090 O   0  0  0  0  0  0  0  0  0  0  0  0
   -3.8900   -0.0220    0.0760 C   0  0  0  0  0  0  0  0  0  0  0  0
   -3.2640   -1.2070   -0.4020 O   0  0  0  0  0  0  0  0  0  0  0  0
   -2.1110   -0.7620   -1.0470 C   0  0  0  0  0  0  0  0  0  0  0  0
   -1.4290   -1.4560   -1.8640 O   0  0  0  0  0  0  0  0  0  0  0  0
  1  2  2  0
  2  3  1  0
  2  4  1  0
  4  5  1  0
  5  6  1  0
  6  7  1  0
  7  8  1  0
  8  9  2  0
  8 10  1  0
 10 11  1  0
 11 12  1  0
 11 15  1  0
 12 13  1  0
 13 14  1  0
 14 15  1  0
 15 16  2  0
M  END
