
     RDKit          3D

 28 31  0  0  0  0  0  0  0  0999 V2000
   -1.0380    2.7310    0.5830 O   0  0  0  0  0  0  0  0  0  0  0  0
   -1.9750    2.2690   -0.1480 C   0  0  0  0  0  0  0  0  0  0  0  0
   -2.9520    3.1630   -0.8270 C   0  0  0  0  0  0  0  0  0  0  0  0
   -2.7000    4.4980   -0.5690 O   0  0  0  0  0  0  0  0  0  0  0  0
   -3.5380    5.2920   -1.1570 O   0  0  0  0  0  0  0  0  0  0  0  0
   -2.0800    0.8600   -0.3140 N   0  0  0  0  0  0  0  0  0  0  0  0
   -1.1840   -0.0850    0.2940 C   0  0  1  0  0  0  0  0  0  0  0  0
   -1.7270   -1.4390    0.2020 N   0  0  0  0  0  0  0  0  0  0  0  0
   -1.0230   -2.6910    0.0270 C   0  0  0  0  0  0  0  0  0  0  0  0
   -1.9420   -3.7220    0.6230 C   0  0  0  0  0  0  0  0  0  0  0  0
   -3.2550   -3.1540    0.4060 N   0  0  0  0  0  0  0  0  0  0  0  0
   -4.5680   -3.4180    0.2460 O   0  0  0  0  0  0  0  0  0  0  0  0
   -5.2350   -2.3230    0.5470 O   0  0  0  0  0  0  0  0  0  0  0  0
   -4.3490   -1.2560    0.4390 C   0  0  0  0  0  0  0  0  0  0  0  0
   -3.1090   -1.7310    0.3360 C   0  0  0  0  0  0  0  0  0  0  0  0
    0.1720   -0.0220   -0.0990 N   0  0  0  0  0  0  0  0  0  0  0  0
    0.9440   -0.1100    0.9120 C   0  0  0  0  0  0  0  0  0  0  0  0
    2.4030   -0.0940    1.0120 C   0  0  0  0  0  0  0  0  0  0  0  0
    3.0950   -0.1890    2.1630 N   0  0  0  0  0  0  0  0  0  0  0  0
    4.3640   -0.1580    1.9080 O   0  0  0  0  0  0  0  0  0  0  0  0
    4.5430   -0.0450    0.6160 C   0  0  0  0  0  0  0  0  0  0  0  0
    5.8780    0.0120    0.0030 C   0  0  0  0  0  0  0  0  0  0  0  0
    5.7740    0.2540   -1.3670 O   0  0  0  0  0  0  0  0  0  0  0  0
    6.9770    0.3030   -1.9300 O   0  0  0  0  0  0  0  0  0  0  0  0
    7.0250    1.4220   -2.5950 O   0  0  0  0  0  0  0  0  0  0  0  0
    3.3280   -0.0030    0.0590 N   0  0  0  0  0  0  0  0  0  0  0  0
    0.0920   -0.2380    2.0090 O   0  0  0  0  0  0  0  0  0  0  0  0
   -1.1270    0.1480    1.6970 O   0  0  0  0  0  0  0  0  0  0  0  0
  1  2  2  0
  2  3  1  0
  2  6  1  0
  3  4  1  0
  4  5  1  0
  7  6  1  6
  7  8  1  0
  7 16  1  0
  7 28  1  0
  8  9  1  0
  8 15  1  0
  9 10  1  0
 10 11  1  0
 11 12  1  0
 11 15  1  0
 12 13  1  0
 13 14  1  0
 14 15  2  0
 16 17  2  0
 17 18  1  0
 17 27  1  0
 18 19  2  0
 18 26  1  0
 19 20  1  0
 20 21  1  0
 21 22  1  0
 21 26  2  0
 22 23  1  0
 23 24  1  0
 24 25  1  0
 27 28  1  0
M  END
