
     RDKit          3D

 28 29  0  0  0  0  0  0  0  0999 V2000
    1.6510   -5.0000   -0.6340 C   0  0  0  0  0  0  0  0  0  0  0  0
    1.3910   -4.1130    0.4390 O   0  0  0  0  0  0  0  0  0  0  0  0
    1.9620   -2.8610    0.3570 N   0  0  0  0  0  0  0  0  0  0  0  0
    1.1950   -1.8440    0.2470 C   0  0  0  0  0  0  0  0  0  0  0  0
   -0.1430   -1.7530    0.1940 N   0  0  0  0  0  0  0  0  0  0  0  0
   -0.5360   -0.5070    0.0790 N   0  0  0  0  0  0  0  0  0  0  0  0
   -1.8670    0.0510   -0.0120 C   0  0  2  0  0  0  0  0  0  0  0  0
   -2.8890   -0.8380    0.5950 C   0  0  0  0  0  0  0  0  0  0  0  0
   -2.7150   -1.2610    1.7610 O   0  0  0  0  0  0  0  0  0  0  0  0
   -4.0470   -1.2110   -0.1210 N   0  0  0  0  0  0  0  0  0  0  0  0
   -5.0570   -2.0640    0.4240 C   0  0  0  0  0  0  0  0  0  0  0  0
   -4.9240   -2.5100    1.5870 O   0  0  0  0  0  0  0  0  0  0  0  0
   -6.1950   -2.4290   -0.2830 O   0  0  0  0  0  0  0  0  0  0  0  0
   -2.2030    0.4380   -1.3180 O   0  0  0  0  0  0  0  0  0  0  0  0
   -2.7260    1.7270   -1.3090 C   0  0  0  0  0  0  0  0  0  0  0  0
   -3.2920    2.3180   -2.2890 O   0  0  0  0  0  0  0  0  0  0  0  0
   -2.5290    2.2840   -0.0300 N   0  0  0  0  0  0  0  0  0  0  0  0
   -2.9420    3.6350    0.3840 C   0  0  0  0  0  0  0  0  0  0  0  0
   -1.8690    1.3120    0.7630 C   0  0  0  0  0  0  0  0  0  0  0  0
   -1.3670    1.4370    1.9040 O   0  0  0  0  0  0  0  0  0  0  0  0
    0.5730    0.2550    0.0550 C   0  0  0  0  0  0  0  0  0  0  0  0
    1.6770   -0.5380    0.1570 C   0  0  0  0  0  0  0  0  0  0  0  0
    3.0240   -0.1720    0.1740 O   0  0  0  0  0  0  0  0  0  0  0  0
    3.3470    1.2010    0.0730 C   0  0  0  0  0  0  0  0  0  0  0  0
    4.8590    1.3660    0.1110 C   0  0  0  0  0  0  0  0  0  0  0  0
    5.1610    2.7320    0.0100 O   0  0  0  0  0  0  0  0  0  0  0  0
    6.4800    2.8620    0.0450 O   0  0  0  0  0  0  0  0  0  0  0  0
    6.7870    4.0570   -0.3730 O   0  0  0  0  0  0  0  0  0  0  0  0
  1  2  1  0
  2  3  1  0
  3  4  2  3
  4  5  1  0
  4 22  1  0
  5  6  1  0
  7  6  1  6
  6 21  1  0
  7  8  1  0
  7 14  1  0
  7 19  1  0
  8  9  2  0
  8 10  1  0
 10 11  1  0
 11 12  2  0
 11 13  1  0
 14 15  1  0
 15 16  2  0
 15 17  1  0
 17 18  1  0
 17 19  1  0
 19 20  2  0
 21 22  2  0
 22 23  1  0
 23 24  1  0
 24 25  1  0
 25 26  1  0
 26 27  1  0
 27 28  1  0
M  END
