
     RDKit          3D

 20 20  0  0  0  0  0  0  0  0999 V2000
    3.8770   -3.3710   -1.1130 C   0  0  0  0  0  0  0  0  0  0  0  0
    3.5860   -1.9090   -0.7570 C   0  0  0  0  0  0  0  0  0  0  0  0
    4.5170   -1.4340    0.1560 O   0  0  0  0  0  0  0  0  0  0  0  0
    4.1060    0.2190    0.4960 P   0  0  0  0  0  0  0  0  0  0  0  0
    2.3150    0.5420    0.2040 C   0  0  0  0  0  0  0  0  0  0  0  0
    1.4510    0.1490    1.3830 C   0  0  0  0  0  0  0  0  0  0  0  0
    0.0140    0.4760    0.9900 C   0  0  0  0  0  0  0  0  0  0  0  0
   -0.8710    0.1520    2.0080 O   0  0  0  0  0  0  0  0  0  0  0  0
   -2.1720    0.4590    1.6300 C   0  0  0  0  0  0  0  0  0  0  0  0
   -2.6330   -0.2760    0.3990 C   0  0  1  0  0  0  0  0  0  0  0  0
   -2.6150   -1.7610    0.5440 C   0  0  0  0  0  0  0  0  0  0  0  0
   -2.7970   -2.3640   -0.6810 O   0  0  0  0  0  0  0  0  0  0  0  0
   -3.6670   -1.6630   -1.5090 C   0  0  0  0  0  0  0  0  0  0  0  0
   -4.7030   -0.8820   -0.7390 C   0  0  0  0  0  0  0  0  0  0  0  0
   -4.0950    0.1340    0.1860 C   0  0  1  0  0  0  0  0  0  0  0  0
   -4.8340    0.1200    1.4970 C   0  0  0  0  0  0  0  0  0  0  0  0
   -4.0670    1.5050   -0.4400 C   0  0  0  0  0  0  0  0  0  0  0  0
    5.0140    1.2110   -0.6000 O   0  0  0  0  0  0  0  0  0  0  0  0
    5.2370    2.4810   -0.0710 C   0  0  0  0  0  0  0  0  0  0  0  0
    6.0180    3.3600   -0.9920 C   0  0  0  0  0  0  0  0  0  0  0  0
  1  2  1  0
  2  3  1  0
  3  4  1  0
  4  5  1  0
  4 18  1  0
  5  6  1  0
  6  7  1  0
  7  8  1  0
  8  9  1  0
 10  9  1  1
 10 11  1  0
 10 15  1  0
 11 12  1  0
 12 13  1  0
 13 14  1  0
 14 15  1  0
 15 16  1  1
 15 17  1  0
 18 19  1  0
 19 20  1  0
M  END
