
     RDKit          3D

 20 20  0  0  0  0  0  0  0  0999 V2000
   -4.4040   -0.4800   -0.8920 C   0  0  0  0  0  0  0  0  0  0  0  0
   -3.6820   -1.3980    0.1000 C   0  0  2  0  0  0  0  0  0  0  0  0
   -3.5110   -2.7270   -0.6060 C   0  0  0  0  0  0  0  0  0  0  0  0
   -4.5200   -1.5890    1.3200 C   0  0  0  0  0  0  0  0  0  0  0  0
   -2.3110   -0.8500    0.3810 C   0  0  0  0  0  0  0  0  0  0  0  0
   -2.3080    0.5130    0.9670 C   0  0  0  0  0  0  0  0  0  0  0  0
   -1.0250    0.9790    1.2120 O   0  0  0  0  0  0  0  0  0  0  0  0
   -0.2510    1.0810    0.0850 C   0  0  2  0  0  0  0  0  0  0  0  0
    0.9490    0.1470    0.2370 C   0  0  0  0  0  0  0  0  0  0  0  0
    1.8230    0.2470   -1.0090 C   0  0  0  0  0  0  0  0  0  0  0  0
    3.0210   -0.6530   -0.9130 C   0  0  0  0  0  0  0  0  0  0  0  0
    3.8980   -0.3110    0.2700 C   0  0  0  0  0  0  0  0  0  0  0  0
    5.0870   -1.2440    0.3210 C   0  0  0  0  0  0  0  0  0  0  0  0
    5.9240   -0.9830    1.3780 O   0  0  0  0  0  0  0  0  0  0  0  0
    6.9190   -1.8150    1.3620 O   0  0  0  0  0  0  0  0  0  0  0  0
    0.2740    2.4730   -0.0540 C   0  0  0  0  0  0  0  0  0  0  0  0
    0.3040    3.2300   -1.1910 C   0  0  0  0  0  0  0  0  0  0  0  0
    0.8740    4.4320   -0.8260 C   0  0  0  0  0  0  0  0  0  0  0  0
    1.1560    4.3240    0.5280 C   0  0  0  0  0  0  0  0  0  0  0  0
    0.7830    3.1470    0.9410 O   0  0  0  0  0  0  0  0  0  0  0  0
  2  1  1  6
  2  3  1  0
  2  4  1  0
  2  5  1  0
  5  6  1  0
  6  7  1  0
  7  8  1  0
  8  9  1  1
  8 16  1  0
  9 10  1  0
 10 11  1  0
 11 12  1  0
 12 13  1  0
 13 14  1  0
 14 15  1  0
 16 17  2  0
 16 20  1  0
 17 18  1  0
 18 19  2  0
 19 20  1  0
M  END
