
     RDKit          3D

 25 26  0  0  0  0  0  0  0  0999 V2000
   -0.0160   -2.8210   -2.4800 C   0  0  0  0  0  0  0  0  0  0  0  0
   -1.0780   -2.1140   -2.4560 C   0  0  0  0  0  0  0  0  0  0  0  0
   -1.5990   -1.2540   -1.4000 C   0  0  0  0  0  0  0  0  0  0  0  0
   -2.7750   -0.6100   -1.6550 C   0  0  0  0  0  0  0  0  0  0  0  0
   -3.5270   -0.8990   -3.2470 Cl  0  0  0  0  0  0  0  0  0  0  0  0
   -3.4200    0.2500   -0.7640 N   0  0  0  0  0  0  0  0  0  0  0  0
   -2.8540    0.5670    0.6350 S   0  0  2  0  0  0  0  0  0  0  0  0
   -3.9490    0.0990    1.6800 N   0  0  0  0  0  0  0  0  0  0  0  0
   -5.2560    0.2040    1.2950 O   0  0  0  0  0  0  0  0  0  0  0  0
   -5.7280    1.0500    0.2840 C   0  0  0  0  0  0  0  0  0  0  0  0
   -2.6590    2.2250    0.8780 O   0  0  0  0  0  0  0  0  0  0  0  0
   -2.8360    2.4630    2.2400 C   0  0  0  0  0  0  0  0  0  0  0  0
   -1.6000    1.5240    3.1060 Cl  0  0  0  0  0  0  0  0  0  0  0  0
   -1.4000   -0.2870    0.8340 N   0  0  0  0  0  0  0  0  0  0  0  0
   -0.9510   -1.0520   -0.1260 C   0  0  0  0  0  0  0  0  0  0  0  0
    0.6400   -1.8940    0.2800 P   0  0  0  0  0  0  0  0  0  0  0  0
    0.6790   -2.4350    1.9010 O   0  0  0  0  0  0  0  0  0  0  0  0
    2.0950   -0.8850   -0.2060 C   0  0  0  0  0  0  0  0  0  0  0  0
    2.9390   -0.6970    0.9300 O   0  0  0  0  0  0  0  0  0  0  0  0
    4.1140    0.0260    0.8640 C   0  0  0  0  0  0  0  0  0  0  0  0
    5.2800   -0.5860    0.9680 C   0  0  0  0  0  0  0  0  0  0  0  0
    6.4840    0.1330    0.9030 O   0  0  0  0  0  0  0  0  0  0  0  0
    6.5160    1.4870    0.7320 N   0  0  0  0  0  0  0  0  0  0  0  0
    5.2720    2.1710    0.6180 C   0  0  0  0  0  0  0  0  0  0  0  0
    4.1490    1.4820    0.6800 C   0  0  0  0  0  0  0  0  0  0  0  0
  1  2  2  0
  2  3  1  0
  3  4  2  0
  3 15  1  0
  4  5  1  0
  4  6  1  0
  6  7  2  0
  7  8  2  0
  7 11  1  6
  7 14  1  0
  8  9  1  0
  9 10  1  0
 11 12  1  0
 12 13  1  0
 14 15  2  0
 15 16  1  0
 16 17  1  0
 16 18  1  0
 18 19  1  0
 19 20  1  0
 20 21  2  0
 20 25  1  0
 21 22  1  0
 22 23  1  0
 23 24  1  0
 24 25  2  0
M  END
