
     RDKit          3D

 24 24  0  0  0  0  0  0  0  0999 V2000
   -5.1290   -0.4040   -1.7020 C   0  0  0  0  0  0  0  0  0  0  0  0
   -4.0050   -0.3430   -1.0220 C   0  0  0  0  0  0  0  0  0  0  0  0
   -3.8040   -1.1900    0.1600 C   0  0  0  0  0  0  0  0  0  0  0  0
   -3.2480   -0.2750    1.2210 C   0  0  0  0  0  0  0  0  0  0  0  0
   -3.8070   -0.3250    2.5750 C   0  0  0  0  0  0  0  0  0  0  0  0
   -2.2830    0.5290    0.8770 N   0  0  0  0  0  0  0  0  0  0  0  0
   -1.8000    0.5030   -0.4860 C   0  0  2  0  0  0  0  0  0  0  0  0
   -0.9790   -0.6650   -0.7250 N   0  0  0  0  0  0  0  0  0  0  0  0
   -0.2040   -1.1450    0.1540 N   0  0  0  0  0  0  0  0  0  0  0  0
    0.5850   -2.2370   -0.0230 N   0  0  0  0  0  0  0  0  0  0  0  0
    1.7970   -2.4740    0.1560 C   0  0  0  0  0  0  0  0  0  0  0  0
    2.3310   -4.1240   -0.2480 Cl  0  0  0  0  0  0  0  0  0  0  0  0
    2.8030   -1.5590    0.6510 C   0  0  0  0  0  0  0  0  0  0  0  0
    2.5350   -0.3250    0.9800 C   0  0  0  0  0  0  0  0  0  0  0  0
    3.6000    0.5670    1.4800 C   0  0  0  0  0  0  0  0  0  0  0  0
    3.3520    1.8170    1.8190 C   0  0  0  0  0  0  0  0  0  0  0  0
    1.7120    2.4050    1.6610 Cl  0  0  0  0  0  0  0  0  0  0  0  0
    4.8670    0.0500    1.5830 O   0  0  0  0  0  0  0  0  0  0  0  0
    6.0790    0.5980    0.4160 P   0  0  0  0  0  0  0  0  0  0  0  0
    7.3640    1.4390    1.2290 O   0  0  0  0  0  0  0  0  0  0  0  0
    6.7170   -0.7300   -0.4900 O   0  0  0  0  0  0  0  0  0  0  0  0
   -1.0080    1.6330   -0.6740 O   0  0  0  0  0  0  0  0  0  0  0  0
   -0.5050    1.6790   -1.9600 C   0  0  0  0  0  0  0  0  0  0  0  0
   -2.9510    0.5830   -1.4570 C   0  0  0  0  0  0  0  0  0  0  0  0
  1  2  2  0
  2  3  1  0
  2 24  1  0
  3  4  1  0
  4  5  1  0
  4  6  2  0
  6  7  1  0
  7  8  1  0
  7 22  1  1
  7 24  1  0
  8  9  2  3
  9 10  1  0
 10 11  2  3
 11 12  1  0
 11 13  1  0
 13 14  2  3
 14 15  1  0
 15 16  2  3
 15 18  1  0
 16 17  1  0
 18 19  1  0
 19 20  1  0
 19 21  1  0
 22 23  1  0
M  END
