
     RDKit          3D

 25 26  0  0  0  0  0  0  0  0999 V2000
   -4.0930   -2.8580    1.4320 C   0  0  0  0  0  0  0  0  0  0  0  0
   -3.7780   -1.6200    1.1100 C   0  0  0  0  0  0  0  0  0  0  0  0
   -4.8690   -0.6790    1.1690 N   0  0  0  0  0  0  0  0  0  0  0  0
   -4.7900    0.6700    0.9460 O   0  0  0  0  0  0  0  0  0  0  0  0
   -3.7560    1.4590    0.4920 N   0  0  0  0  0  0  0  0  0  0  0  0
   -2.5400    1.1110    0.1870 C   0  0  0  0  0  0  0  0  0  0  0  0
   -1.9160   -0.1870    0.2310 C   0  0  0  0  0  0  0  0  0  0  0  0
   -0.7350   -0.3640   -0.2450 N   0  0  0  0  0  0  0  0  0  0  0  0
   -0.0180    0.7750   -0.8380 C   0  0  0  0  0  0  0  0  0  0  0  0
   -0.3400    1.2530   -1.9810 C   0  0  0  0  0  0  0  0  0  0  0  0
   -1.4190    0.7710   -2.8430 C   0  0  0  0  0  0  0  0  0  0  0  0
   -1.6540    1.2990   -3.9320 O   0  0  0  0  0  0  0  0  0  0  0  0
    0.4720    2.4030   -2.4570 C   0  0  2  0  0  0  0  0  0  0  0  0
   -0.6270    3.8270   -2.4470 Cl  0  0  0  0  0  0  0  0  0  0  0  0
    0.9720    2.2260   -3.7740 N   0  0  0  0  0  0  0  0  0  0  0  0
    2.0100    1.7210   -4.0540 O   0  0  0  0  0  0  0  0  0  0  0  0
    1.6160    2.6200   -1.1250 S   0  0  0  0  0  0  0  0  0  0  0  0
    1.0620    1.3420   -0.0970 C   0  0  0  0  0  0  0  0  0  0  0  0
    1.6020    1.0100    1.1500 O   0  0  0  0  0  0  0  0  0  0  0  0
    2.8970    0.5290    1.2400 C   0  0  0  0  0  0  0  0  0  0  0  0
    4.2820    1.4640    0.7170 Cl  0  0  0  0  0  0  0  0  0  0  0  0
    3.0910   -0.6660    1.7340 C   0  0  0  0  0  0  0  0  0  0  0  0
    4.4600   -1.2070    1.8430 C   0  0  0  0  0  0  0  0  0  0  0  0
    4.6410   -2.7850    0.8500 P   0  0  0  0  0  0  0  0  0  0  0  0
   -2.4610   -1.3480    0.7540 O   0  0  0  0  0  0  0  0  0  0  0  0
  1  2  2  0
  2  3  1  0
  2 25  1  0
  3  4  1  0
  4  5  1  0
  5  6  2  0
  6  7  1  0
  7  8  2  3
  7 25  1  0
  8  9  1  0
  9 10  2  0
  9 18  1  0
 10 11  1  0
 10 13  1  0
 11 12  2  0
 13 14  1  6
 13 15  1  0
 13 17  1  0
 15 16  2  0
 17 18  2  0
 18 19  1  0
 19 20  1  0
 20 21  1  0
 20 22  2  3
 22 23  1  0
 23 24  1  0
M  END
