
     RDKit          3D

 26 28  0  0  0  0  0  0  0  0999 V2000
   -4.5210   -2.1640   -1.1540 C   0  0  0  0  0  0  0  0  0  0  0  0
   -3.4660   -1.4190   -0.9480 C   0  0  0  0  0  0  0  0  0  0  0  0
   -2.0720   -1.8320   -1.0300 C   0  0  0  0  0  0  0  0  0  0  0  0
   -1.5280   -2.7090   -1.8610 C   0  0  0  0  0  0  0  0  0  0  0  0
   -1.3770   -1.0490    0.0470 C   0  0  1  0  0  0  0  0  0  0  0  0
   -1.4020   -1.9180    1.1660 O   0  0  0  0  0  0  0  0  0  0  0  0
    0.0290   -0.9150   -0.3560 C   0  0  0  0  0  0  0  0  0  0  0  0
    0.8980   -0.1550    0.6340 C   0  0  0  0  0  0  0  0  0  0  0  0
    0.4300    0.2500    1.6910 O   0  0  0  0  0  0  0  0  0  0  0  0
    2.2950    0.0810    0.2990 C   0  0  0  0  0  0  0  0  0  0  0  0
    2.8640   -0.6640   -0.7400 C   0  0  0  0  0  0  0  0  0  0  0  0
    4.1760   -0.5160   -1.0680 C   0  0  0  0  0  0  0  0  0  0  0  0
    4.8040   -1.3080   -2.1800 C   0  0  0  0  0  0  0  0  0  0  0  0
    4.9520    0.3780   -0.3690 C   0  0  0  0  0  0  0  0  0  0  0  0
    4.4000    1.1270    0.6650 C   0  0  0  0  0  0  0  0  0  0  0  0
    5.1760    2.0270    1.3520 C   0  0  0  0  0  0  0  0  0  0  0  0
    4.6450    2.7820    2.3650 C   0  0  0  0  0  0  0  0  0  0  0  0
    3.3290    2.6690    2.7290 C   0  0  0  0  0  0  0  0  0  0  0  0
    2.5480    1.7560    2.0310 C   0  0  0  0  0  0  0  0  0  0  0  0
    3.0670    0.9750    0.9960 C   0  0  0  0  0  0  0  0  0  0  0  0
   -2.1860    0.1420    0.2810 C   0  0  2  0  0  0  0  0  0  0  0  0
   -1.5570    1.4860    0.0620 C   0  0  0  0  0  0  0  0  0  0  0  0
   -2.6800    0.1260    1.7280 C   0  0  0  0  0  0  0  0  0  0  0  0
   -3.4360    0.0200   -0.5920 C   0  0  2  0  0  0  0  0  0  0  0  0
   -4.6730    0.5000    0.0760 C   0  0  0  0  0  0  0  0  0  0  0  0
   -3.2580    0.7780   -1.8960 C   0  0  0  0  0  0  0  0  0  0  0  0
  1  2  2  0
  2  3  1  0
  2 24  1  0
  3  4  2  0
  3  5  1  0
  5  6  1  1
  5  7  1  0
  5 21  1  0
  7  8  1  0
  8  9  2  0
  8 10  1  0
 10 11  2  0
 10 20  1  0
 11 12  1  0
 12 13  1  0
 12 14  2  0
 14 15  1  0
 15 16  2  0
 15 20  1  0
 16 17  1  0
 17 18  2  0
 18 19  1  0
 19 20  2  0
 21 22  1  6
 21 23  1  0
 21 24  1  0
 24 25  1  1
 24 26  1  0
M  END
