
     RDKit          3D

 26 28  0  0  0  0  0  0  0  0999 V2000
    2.6610   -1.5830   -2.7340 C   0  0  0  0  0  0  0  0  0  0  0  0
    3.1150   -0.4070   -2.0180 C   0  0  0  0  0  0  0  0  0  0  0  0
    2.1390    0.1560   -0.9950 C   0  0  0  0  0  0  0  0  0  0  0  0
    2.7890    1.1560   -0.1730 C   0  0  0  0  0  0  0  0  0  0  0  0
    3.9250    1.8180   -0.5430 C   0  0  0  0  0  0  0  0  0  0  0  0
    4.3580    2.7540    0.4850 C   0  0  0  0  0  0  0  0  0  0  0  0
    3.4090    2.5430    1.5760 C   0  0  0  0  0  0  0  0  0  0  0  0
    2.5150    1.6190    1.1500 C   0  0  0  0  0  0  0  0  0  0  0  0
    1.0180   -0.4720   -0.8230 C   0  0  0  0  0  0  0  0  0  0  0  0
    0.7310   -1.6590   -1.5370 O   0  0  0  0  0  0  0  0  0  0  0  0
   -0.4840   -2.1750   -1.2230 C   0  0  2  0  0  0  0  0  0  0  0  0
   -0.3880   -3.6110   -0.6980 C   0  0  0  0  0  0  0  0  0  0  0  0
   -1.2650   -2.1930   -2.5650 C   0  0  0  0  0  0  0  0  0  0  0  0
   -1.0880   -1.2780   -0.2520 C   0  0  0  0  0  0  0  0  0  0  0  0
   -2.3690   -1.3090    0.4590 C   0  0  2  0  0  0  0  0  0  0  0  0
   -2.3500   -2.3790    1.4040 O   0  0  0  0  0  0  0  0  0  0  0  0
   -3.6390   -1.4300   -0.2770 C   0  0  0  0  0  0  0  0  0  0  0  0
   -3.8970   -2.6560   -1.0620 C   0  0  0  0  0  0  0  0  0  0  0  0
   -0.1710   -0.2730   -0.0320 C   0  0  0  0  0  0  0  0  0  0  0  0
   -0.5110    0.8400    0.8480 C   0  0  0  0  0  0  0  0  0  0  0  0
   -0.5520    2.1410    0.3600 C   0  0  0  0  0  0  0  0  0  0  0  0
   -0.8600    3.2150    1.1490 C   0  0  0  0  0  0  0  0  0  0  0  0
   -1.1360    2.9910    2.4670 C   0  0  0  0  0  0  0  0  0  0  0  0
   -1.4700    4.1420    3.3310 C   0  0  0  0  0  0  0  0  0  0  0  0
   -1.1050    1.7260    2.9840 C   0  0  0  0  0  0  0  0  0  0  0  0
   -0.7930    0.6490    2.1780 C   0  0  0  0  0  0  0  0  0  0  0  0
  1  2  1  0
  2  3  1  0
  3  4  1  0
  3  9  2  3
  4  5  2  0
  4  8  1  0
  5  6  1  0
  6  7  1  0
  7  8  2  0
  9 10  1  0
  9 19  1  0
 10 11  1  0
 11 12  1  1
 11 13  1  0
 11 14  1  0
 14 15  1  0
 14 19  2  0
 15 16  1  1
 15 17  1  0
 17 18  1  0
 19 20  1  0
 20 21  2  0
 20 26  1  0
 21 22  1  0
 22 23  2  0
 23 24  1  0
 23 25  1  0
 25 26  2  0
M  END
