
     RDKit          3D

 26 28  0  0  0  0  0  0  0  0999 V2000
    5.8520   -2.9230   -0.5890 C   0  0  0  0  0  0  0  0  0  0  0  0
    4.7510   -2.4500   -1.5020 C   0  0  0  0  0  0  0  0  0  0  0  0
    4.1940   -1.1110   -1.0940 C   0  0  0  0  0  0  0  0  0  0  0  0
    3.6100   -1.1340    0.2980 C   0  0  0  0  0  0  0  0  0  0  0  0
    3.0890    0.2130    0.6130 C   0  0  0  0  0  0  0  0  0  0  0  0
    3.9160    1.1350    1.2100 C   0  0  0  0  0  0  0  0  0  0  0  0
    3.4670    2.3960    1.5160 C   0  0  0  0  0  0  0  0  0  0  0  0
    2.1460    2.7580    1.2220 C   0  0  0  0  0  0  0  0  0  0  0  0
    1.2960    1.8200    0.6170 C   0  0  0  0  0  0  0  0  0  0  0  0
    1.7710    0.5680    0.3170 C   0  0  0  0  0  0  0  0  0  0  0  0
   -0.0620    2.1750    0.2530 C   0  0  0  0  0  0  0  0  0  0  0  0
   -1.0200    1.3530   -0.0780 C   0  0  0  0  0  0  0  0  0  0  0  0
   -2.3810    1.9070   -0.4670 C   0  0  0  0  0  0  0  0  0  0  0  0
   -3.1250    0.9160   -1.3540 C   0  0  0  0  0  0  0  0  0  0  0  0
   -3.5420   -0.3140   -0.5080 C   0  0  1  0  0  0  0  0  0  0  0  0
   -4.8620    0.0680    0.1370 C   0  0  0  0  0  0  0  0  0  0  0  0
   -3.7270   -1.3800   -1.5280 C   0  0  0  0  0  0  0  0  0  0  0  0
   -4.1500   -2.7160   -1.0900 C   0  0  0  0  0  0  0  0  0  0  0  0
   -2.5130   -0.5340    0.5350 C   0  0  2  0  0  0  0  0  0  0  0  0
   -2.3670   -1.8940    1.1020 C   0  0  0  0  0  0  0  0  0  0  0  0
   -2.7420    0.3430    1.6140 O   0  0  0  0  0  0  0  0  0  0  0  0
   -1.0820   -0.1270    0.0290 C   0  0  0  0  0  0  0  0  0  0  0  0
   -0.4270    3.5810    0.5650 C   0  0  0  0  0  0  0  0  0  0  0  0
   -1.5610    4.0000    0.2940 O   0  0  0  0  0  0  0  0  0  0  0  0
    0.5120    4.5140    1.1930 C   0  0  0  0  0  0  0  0  0  0  0  0
    1.7140    4.1210    1.5000 C   0  0  0  0  0  0  0  0  0  0  0  0
  1  2  1  0
  2  3  1  0
  3  4  1  0
  4  5  1  0
  5  6  2  0
  5 10  1  0
  6  7  1  0
  7  8  2  0
  8  9  1  0
  8 26  1  0
  9 10  2  0
  9 11  1  0
 11 12  2  3
 11 23  1  0
 12 13  1  0
 12 22  1  0
 13 14  1  0
 14 15  1  0
 15 16  1  1
 15 17  1  0
 15 19  1  0
 17 18  1  0
 19 20  1  1
 19 21  1  0
 19 22  1  0
 23 24  2  0
 23 25  1  0
 25 26  2  0
M  END
