
     RDKit          3D

 26 28  0  0  0  0  0  0  0  0999 V2000
    3.4260    2.1970    0.6160 C   0  0  0  0  0  0  0  0  0  0  0  0
    4.3300    1.0490    0.9890 C   0  0  0  0  0  0  0  0  0  0  0  0
    4.4520   -0.0170   -0.0090 C   0  0  0  0  0  0  0  0  0  0  0  0
    3.2490   -0.7710   -0.4300 C   0  0  2  0  0  0  0  0  0  0  0  0
    3.7610   -1.7070   -1.3840 O   0  0  0  0  0  0  0  0  0  0  0  0
    2.2760    0.0220   -1.2210 C   0  0  0  0  0  0  0  0  0  0  0  0
    2.6900    0.5510   -2.5910 C   0  0  0  0  0  0  0  0  0  0  0  0
    1.0460    0.3030   -0.8320 C   0  0  0  0  0  0  0  0  0  0  0  0
    0.5200   -0.1520    0.4400 C   0  0  0  0  0  0  0  0  0  0  0  0
   -0.6920    0.1250    0.8620 C   0  0  0  0  0  0  0  0  0  0  0  0
   -1.6020    0.9210    0.0810 C   0  0  0  0  0  0  0  0  0  0  0  0
   -1.2570    2.2040   -0.3710 C   0  0  0  0  0  0  0  0  0  0  0  0
   -2.1510    2.9250   -1.1290 C   0  0  0  0  0  0  0  0  0  0  0  0
   -3.3860    2.4190   -1.4610 C   0  0  0  0  0  0  0  0  0  0  0  0
   -3.7390    1.1700   -1.0300 C   0  0  0  0  0  0  0  0  0  0  0  0
   -2.8400    0.4380   -0.2650 C   0  0  0  0  0  0  0  0  0  0  0  0
   -3.0730   -0.9240    0.2480 C   0  0  0  0  0  0  0  0  0  0  0  0
   -4.3400   -0.8620    1.1110 C   0  0  0  0  0  0  0  0  0  0  0  0
   -5.5240   -0.9860    0.1700 C   0  0  0  0  0  0  0  0  0  0  0  0
   -5.9410    0.3960   -0.2700 C   0  0  0  0  0  0  0  0  0  0  0  0
   -5.1140    0.7720   -1.4760 C   0  0  0  0  0  0  0  0  0  0  0  0
    1.4470   -0.9470    1.2570 C   0  0  0  0  0  0  0  0  0  0  0  0
    1.2440   -1.0450    2.4680 O   0  0  0  0  0  0  0  0  0  0  0  0
    2.6190   -1.6280    0.6290 C   0  0  2  0  0  0  0  0  0  0  0  0
    3.5300   -2.0740    1.7170 C   0  0  0  0  0  0  0  0  0  0  0  0
    2.0420   -2.8960   -0.0200 C   0  0  0  0  0  0  0  0  0  0  0  0
  1  2  1  0
  2  3  1  0
  3  4  1  0
  4  5  1  6
  4  6  1  0
  4 24  1  0
  6  7  1  0
  6  8  2  0
  8  9  1  0
  9 10  2  3
  9 22  1  0
 10 11  1  0
 11 12  2  0
 11 16  1  0
 12 13  1  0
 13 14  2  0
 14 15  1  0
 15 16  2  0
 15 21  1  0
 16 17  1  0
 17 18  1  0
 18 19  1  0
 19 20  1  0
 20 21  1  0
 22 23  2  0
 22 24  1  0
 24 25  1  1
 24 26  1  0
M  END
