
     RDKit          3D

 26 28  0  0  0  0  0  0  0  0999 V2000
   -5.0370    2.0380    0.7450 C   0  0  0  0  0  0  0  0  0  0  0  0
   -5.3110    1.5060   -0.6230 C   0  0  0  0  0  0  0  0  0  0  0  0
   -4.1310    0.8590   -1.2990 C   0  0  0  0  0  0  0  0  0  0  0  0
   -3.5730   -0.2910   -0.5650 C   0  0  0  0  0  0  0  0  0  0  0  0
   -4.2000   -1.5110   -0.4840 C   0  0  0  0  0  0  0  0  0  0  0  0
   -5.5120   -1.7180   -1.1410 C   0  0  0  0  0  0  0  0  0  0  0  0
   -3.6380   -2.5900    0.2100 C   0  0  0  0  0  0  0  0  0  0  0  0
   -2.4220   -2.3970    0.8210 C   0  0  0  0  0  0  0  0  0  0  0  0
   -1.7820   -1.1730    0.7460 C   0  0  0  0  0  0  0  0  0  0  0  0
   -0.4950   -1.0650    1.3960 C   0  0  0  0  0  0  0  0  0  0  0  0
   -0.4240   -1.1790    2.6730 O   0  0  0  0  0  0  0  0  0  0  0  0
    0.7600   -0.8330    0.7020 C   0  0  0  0  0  0  0  0  0  0  0  0
    0.7960   -0.7840   -0.6730 C   0  0  0  0  0  0  0  0  0  0  0  0
    1.9790   -0.5850   -1.3550 C   0  0  0  0  0  0  0  0  0  0  0  0
    2.0210   -0.5310   -2.8400 C   0  0  0  0  0  0  0  0  0  0  0  0
    3.1630   -0.4320   -0.6250 C   0  0  0  0  0  0  0  0  0  0  0  0
    3.1490   -0.4780    0.7600 C   0  0  0  0  0  0  0  0  0  0  0  0
    1.9560   -0.6770    1.3900 C   0  0  0  0  0  0  0  0  0  0  0  0
    1.9030   -0.7290    2.7620 O   0  0  0  0  0  0  0  0  0  0  0  0
    4.4580   -0.2920    1.4210 C   0  0  0  0  0  0  0  0  0  0  0  0
    5.0060    0.9990    0.7780 C   0  0  0  0  0  0  0  0  0  0  0  0
    5.4620    0.5870   -0.5980 C   0  0  2  0  0  0  0  0  0  0  0  0
    5.8900    1.8080   -1.4180 C   0  0  0  0  0  0  0  0  0  0  0  0
    4.4470   -0.2320   -1.3270 C   0  0  0  0  0  0  0  0  0  0  0  0
   -2.3290   -0.1080    0.0650 C   0  0  0  0  0  0  0  0  0  0  0  0
   -1.6300    1.1760    0.0070 C   0  0  0  0  0  0  0  0  0  0  0  0
  1  2  1  0
  2  3  1  0
  3  4  1  0
  4  5  2  0
  4 25  1  0
  5  6  1  0
  5  7  1  0
  7  8  2  0
  8  9  1  0
  9 10  1  0
  9 25  2  0
 10 11  2  0
 10 12  1  0
 12 13  2  0
 12 18  1  0
 13 14  1  0
 14 15  1  0
 14 16  2  0
 16 17  1  0
 16 24  1  0
 17 18  2  0
 17 20  1  0
 18 19  1  0
 20 21  1  0
 21 22  1  0
 22 23  1  6
 22 24  1  0
 25 26  1  0
M  END
