
     RDKit          3D

 19 18  0  0  0  0  0  0  0  0999 V2000
    5.5300   -1.5320    1.6450 C   0  0  0  0  0  0  0  0  0  0  0  0
    4.7630   -0.2970    1.1860 C   0  0  2  0  0  0  0  0  0  0  0  0
    5.4000    0.3040   -0.0320 C   0  0  0  0  0  0  0  0  0  0  0  0
    4.8320    0.7090    2.3050 C   0  0  0  0  0  0  0  0  0  0  0  0
    3.4500   -0.7090    0.9010 O   0  0  0  0  0  0  0  0  0  0  0  0
    2.4890    0.1890    0.4540 C   0  0  0  0  0  0  0  0  0  0  0  0
    2.8340    1.3760    0.3150 O   0  0  0  0  0  0  0  0  0  0  0  0
    1.1780   -0.2940    0.1830 N   0  0  0  0  0  0  0  0  0  0  0  0
    0.1990    0.6620   -0.2800 C   0  0  0  0  0  0  0  0  0  0  0  0
   -1.0970   -0.0010   -0.5110 C   0  0  0  0  0  0  0  0  0  0  0  0
   -1.1880   -1.2420   -0.2900 O   0  0  0  0  0  0  0  0  0  0  0  0
   -2.2520    0.6880   -0.9710 N   0  0  0  0  0  0  0  0  0  0  0  0
   -3.4970    0.0210   -1.1870 C   0  0  1  0  0  0  0  0  0  0  0  0
   -3.3860   -1.0920   -2.2370 C   0  0  0  0  0  0  0  0  0  0  0  0
   -4.0550   -0.5930    0.0840 C   0  0  0  0  0  0  0  0  0  0  0  0
   -4.2820    0.4110    1.0830 N   0  0  0  0  0  0  0  0  0  0  0  0
   -4.5210    0.9620   -1.6910 C   0  0  0  0  0  0  0  0  0  0  0  0
   -5.8180    0.5180   -1.9720 N   0  0  0  0  0  0  0  0  0  0  0  0
   -4.2100    2.1600   -1.8630 O   0  0  0  0  0  0  0  0  0  0  0  0
  2  1  1  1
  2  3  1  0
  2  4  1  0
  2  5  1  0
  5  6  1  0
  6  7  2  0
  6  8  1  0
  8  9  1  0
  9 10  1  0
 10 11  2  0
 10 12  1  0
 12 13  1  0
 13 14  1  6
 13 15  1  0
 13 17  1  0
 15 16  1  0
 17 18  1  0
 17 19  2  0
M  CHG  1  16   1
M  END
