
     RDKit          3D

 30 35  0  0  0  0  0  0  0  0999 V2000
    5.0500    1.7040    0.5460 C   0  0  0  0  0  0  0  0  0  0  0  0
    4.6560    0.5960    1.4970 C   0  0  2  0  0  0  0  0  0  0  0  0
    5.2440   -0.6820    0.9750 C   0  0  0  0  0  0  0  0  0  0  0  0
    4.8610   -1.8280    1.8880 C   0  0  0  0  0  0  0  0  0  0  0  0
    3.3920   -1.7970    2.2270 C   0  0  0  0  0  0  0  0  0  0  0  0
    2.7570   -0.6500    1.4690 C   0  0  1  0  0  0  0  0  0  0  0  0
    1.2580   -0.6910    1.5390 C   0  0  2  0  0  0  0  0  0  0  0  0
    0.8770   -2.0660    1.2220 N   0  0  0  0  0  0  0  0  0  0  0  0
    0.5760    0.1440    0.5180 C   0  0  0  0  0  0  0  0  0  0  0  0
    1.1770    1.1450   -0.1960 C   0  0  0  0  0  0  0  0  0  0  0  0
    0.4960    1.9120   -1.1510 C   0  0  0  0  0  0  0  0  0  0  0  0
   -0.8280    1.6800   -1.4090 C   0  0  0  0  0  0  0  0  0  0  0  0
   -1.4600    0.6740   -0.7010 C   0  0  0  0  0  0  0  0  0  0  0  0
   -2.8890    0.3730   -0.9320 C   0  0  1  0  0  0  0  0  0  0  0  0
   -3.0540    0.0510   -2.3770 C   0  0  0  0  0  0  0  0  0  0  0  0
   -3.3940   -1.3540   -2.7170 C   0  0  0  0  0  0  0  0  0  0  0  0
   -2.7970   -2.3840   -1.7670 C   0  0  0  0  0  0  0  0  0  0  0  0
   -3.3060   -1.9900   -0.4020 C   0  0  0  0  0  0  0  0  0  0  0  0
   -3.3350   -0.7400   -0.0580 C   0  0  0  0  0  0  0  0  0  0  0  0
   -3.8590   -0.5160    1.2650 C   0  0  0  0  0  0  0  0  0  0  0  0
   -4.1620   -1.7030    1.7530 C   0  0  0  0  0  0  0  0  0  0  0  0
   -3.8330   -2.7600    0.7320 C   0  0  0  0  0  0  0  0  0  0  0  0
   -3.9530    0.8120    1.7660 O   0  0  0  0  0  0  0  0  0  0  0  0
   -3.5660    1.8780    0.9370 C   0  0  0  0  0  0  0  0  0  0  0  0
   -3.7790    1.5370   -0.5280 C   0  0  0  0  0  0  0  0  0  0  0  0
   -0.7790   -0.0640    0.2270 C   0  0  0  0  0  0  0  0  0  0  0  0
   -1.3080    2.5660   -2.4020 O   0  0  0  0  0  0  0  0  0  0  0  0
   -0.3470    3.5770   -2.5690 C   0  0  0  0  0  0  0  0  0  0  0  0
    0.9450    3.0250   -2.0240 C   0  0  0  0  0  0  0  0  0  0  0  0
    3.3180    0.5600    1.7690 O   0  0  0  0  0  0  0  0  0  0  0  0
  2  1  1  6
  2  3  1  0
  2 30  1  0
  3  4  1  0
  4  5  1  0
  6  5  1  1
  6  7  1  0
  6 30  1  0
  7  8  1  6
  7  9  1  0
  9 10  2  0
  9 26  1  0
 10 11  1  0
 11 12  2  0
 11 29  1  0
 12 13  1  0
 12 27  1  0
 14 13  1  6
 13 26  2  0
 14 15  1  0
 14 19  1  0
 14 25  1  0
 15 16  1  0
 16 17  1  0
 17 18  1  0
 18 19  2  0
 18 22  1  0
 19 20  1  0
 20 21  2  0
 20 23  1  0
 21 22  1  0
 23 24  1  0
 24 25  1  0
 27 28  1  0
 28 29  1  0
M  END
