
     RDKit          3D

 30 32  0  0  0  0  0  0  0  0999 V2000
    5.0570   -0.4490    2.7950 C   0  0  0  0  0  0  0  0  0  0  0  0
    3.7300   -1.1720    2.8170 C   0  0  1  0  0  0  0  0  0  0  0  0
    2.7260   -0.4710    1.8940 C   0  0  0  0  0  0  0  0  0  0  0  0
    1.7810   -1.5640    1.6020 C   0  0  0  0  0  0  0  0  0  0  0  0
    0.5670   -1.4030    1.0190 C   0  0  0  0  0  0  0  0  0  0  0  0
    0.1380   -0.0870    0.6460 C   0  0  0  0  0  0  0  0  0  0  0  0
   -0.9000    0.3790    0.0910 C   0  0  0  0  0  0  0  0  0  0  0  0
   -0.9190    1.8040   -0.0890 O   0  0  0  0  0  0  0  0  0  0  0  0
    0.1740    2.5520    0.2600 C   0  0  0  0  0  0  0  0  0  0  0  0
   -0.0350    4.0240   -0.0090 C   0  0  0  0  0  0  0  0  0  0  0  0
   -0.5730    4.8590    0.9340 C   0  0  0  0  0  0  0  0  0  0  0  0
   -0.7500    6.2090    0.6480 C   0  0  0  0  0  0  0  0  0  0  0  0
   -0.3710    6.6690   -0.5950 C   0  0  0  0  0  0  0  0  0  0  0  0
    0.1700    5.8150   -1.5350 C   0  0  0  0  0  0  0  0  0  0  0  0
    0.3170    4.5220   -1.2050 N   0  0  0  0  0  0  0  0  0  0  0  0
   -2.0920   -0.2580   -0.4170 C   0  0  0  0  0  0  0  0  0  0  0  0
   -3.1340    0.4120   -0.9460 C   0  0  0  0  0  0  0  0  0  0  0  0
   -3.2880    1.8450   -1.1150 C   0  0  2  0  0  0  0  0  0  0  0  0
   -3.2900    2.5220    0.1030 F   0  0  0  0  0  0  0  0  0  0  0  0
   -4.5470    2.0900   -1.7320 F   0  0  0  0  0  0  0  0  0  0  0  0
   -2.3930    2.4470   -1.9760 F   0  0  0  0  0  0  0  0  0  0  0  0
   -2.2190   -1.7530   -0.4120 C   0  0  0  0  0  0  0  0  0  0  0  0
   -1.1970   -2.2890   -1.2630 N   0  0  0  0  0  0  0  0  0  0  0  0
   -1.2750   -3.7430   -1.2870 C   0  0  0  0  0  0  0  0  0  0  0  0
   -2.6390   -4.1440   -1.7770 C   0  0  0  0  0  0  0  0  0  0  0  0
   -3.1110   -3.3300   -2.8010 O   0  0  0  0  0  0  0  0  0  0  0  0
   -2.0680   -2.7020   -3.4810 C   0  0  0  0  0  0  0  0  0  0  0  0
   -1.3180   -1.7460   -2.5790 C   0  0  0  0  0  0  0  0  0  0  0  0
    2.3920   -2.8240    2.0470 C   0  0  0  0  0  0  0  0  0  0  0  0
    3.8160   -2.4800    2.1970 N   0  0  0  0  0  0  0  0  0  0  0  0
  2  1  1  6
  2  3  1  0
  2 30  1  0
  3  4  1  0
  4  5  2  3
  4 29  1  0
  5  6  1  0
  6  7  2  3
  7  8  1  0
  7 16  1  0
  8  9  1  0
  9 10  1  0
 10 11  2  0
 10 15  1  0
 11 12  1  0
 12 13  2  0
 13 14  1  0
 14 15  2  0
 16 17  2  3
 16 22  1  0
 17 18  1  0
 18 19  1  1
 18 20  1  0
 18 21  1  0
 22 23  1  0
 23 24  1  0
 23 28  1  0
 24 25  1  0
 25 26  1  0
 26 27  1  0
 27 28  1  0
 29 30  1  0
M  CHG  1  30   1
M  END
