
     RDKit          3D

 30 32  0  0  0  0  0  0  0  0999 V2000
   -5.8670    2.0470   -1.1080 C   0  0  0  0  0  0  0  0  0  0  0  0
   -5.3170    0.7150   -0.7820 C   0  0  0  0  0  0  0  0  0  0  0  0
   -5.0500    0.3510    0.4650 C   0  0  0  0  0  0  0  0  0  0  0  0
   -5.2790    1.2370    1.6180 C   0  0  0  0  0  0  0  0  0  0  0  0
   -5.7830    2.4590    1.3220 F   0  0  0  0  0  0  0  0  0  0  0  0
   -4.5010   -1.0380    0.6210 C   0  0  0  0  0  0  0  0  0  0  0  0
   -3.4220   -1.3370   -0.2680 N   0  0  0  0  0  0  0  0  0  0  0  0
   -2.1790   -0.9660    0.4030 C   0  0  0  0  0  0  0  0  0  0  0  0
   -0.9820   -1.2600   -0.4010 C   0  0  0  0  0  0  0  0  0  0  0  0
    0.3560   -0.9240    0.1220 C   0  0  1  0  0  0  0  0  0  0  0  0
    0.8100   -1.5390    1.3870 C   0  0  0  0  0  0  0  0  0  0  0  0
    0.0520   -1.2750    2.5660 N   0  0  0  0  0  0  0  0  0  0  0  0
    1.3530   -1.2070   -0.9560 C   0  0  0  0  0  0  0  0  0  0  0  0
    2.6280   -0.4370   -0.9440 C   0  0  0  0  0  0  0  0  0  0  0  0
    2.8700    0.4540    0.1340 N   0  0  0  0  0  0  0  0  0  0  0  0
    4.1080    1.0090    0.4850 C   0  0  0  0  0  0  0  0  0  0  0  0
    4.0690    1.7550    1.5510 O   0  0  0  0  0  0  0  0  0  0  0  0
    5.4150    0.9050   -0.1140 C   0  0  0  0  0  0  0  0  0  0  0  0
    5.7180    0.3180   -1.3200 C   0  0  0  0  0  0  0  0  0  0  0  0
    7.0410    0.2340   -1.7900 C   0  0  0  0  0  0  0  0  0  0  0  0
    8.0820    0.7390   -1.0550 C   0  0  0  0  0  0  0  0  0  0  0  0
    9.3590    0.6700   -1.4860 F   0  0  0  0  0  0  0  0  0  0  0  0
    7.7820    1.3260    0.1480 C   0  0  0  0  0  0  0  0  0  0  0  0
    8.7840    1.8370    0.9000 F   0  0  0  0  0  0  0  0  0  0  0  0
    6.5010    1.4210    0.6290 C   0  0  0  0  0  0  0  0  0  0  0  0
    1.7260    0.8450    0.9490 C   0  0  0  0  0  0  0  0  0  0  0  0
    1.8630    1.3410    2.0660 O   0  0  0  0  0  0  0  0  0  0  0  0
    0.3990    0.5950    0.3250 C   0  0  0  0  0  0  0  0  0  0  0  0
   -3.5740   -0.8400   -1.5840 C   0  0  0  0  0  0  0  0  0  0  0  0
   -5.0080   -0.3330   -1.8250 C   0  0  0  0  0  0  0  0  0  0  0  0
  1  2  1  0
  2  3  2  0
  2 30  1  0
  3  4  1  0
  3  6  1  0
  4  5  1  0
  6  7  1  0
  7  8  1  0
  7 29  1  0
  8  9  1  0
 10  9  1  6
 10 11  1  0
 10 13  1  0
 10 28  1  0
 11 12  1  0
 13 14  1  0
 14 15  1  0
 15 16  1  0
 15 26  1  0
 16 17  2  0
 16 18  1  0
 18 19  2  0
 18 25  1  0
 19 20  1  0
 20 21  2  0
 21 22  1  0
 21 23  1  0
 23 24  1  0
 23 25  2  0
 26 27  2  0
 26 28  1  0
 29 30  1  0
M  CHG  1  12   1
M  END
