
     RDKit          3D

 30 32  0  0  0  0  0  0  0  0999 V2000
   -5.4190    2.4900   -0.8680 C   0  0  0  0  0  0  0  0  0  0  0  0
   -5.2770    1.5180   -1.7330 C   0  0  0  0  0  0  0  0  0  0  0  0
   -6.4010    1.0160   -2.3970 O   0  0  0  0  0  0  0  0  0  0  0  0
   -3.9800    0.9260   -2.0410 C   0  0  0  0  0  0  0  0  0  0  0  0
   -3.8530   -0.0520   -2.9130 C   0  0  0  0  0  0  0  0  0  0  0  0
   -2.8380    1.4360   -1.3680 N   0  0  0  0  0  0  0  0  0  0  0  0
   -2.2360    0.7010   -0.3120 C   0  0  0  0  0  0  0  0  0  0  0  0
   -0.9790    0.2510   -0.4760 C   0  0  0  0  0  0  0  0  0  0  0  0
   -0.3920   -0.4970    0.6200 C   0  0  0  0  0  0  0  0  0  0  0  0
    0.9000   -0.4480    0.8210 C   0  0  0  0  0  0  0  0  0  0  0  0
    1.7600    0.3440   -0.0360 C   0  0  0  0  0  0  0  0  0  0  0  0
    3.0890    0.3890    0.1760 C   0  0  0  0  0  0  0  0  0  0  0  0
    3.9710    1.1780   -0.6720 C   0  0  0  0  0  0  0  0  0  0  0  0
    3.3900    2.2790   -1.4970 C   0  0  1  0  0  0  0  0  0  0  0  0
    2.7590    3.3380   -0.6190 C   0  0  0  0  0  0  0  0  0  0  0  0
    4.4880    2.9550   -2.2890 C   0  0  0  0  0  0  0  0  0  0  0  0
    5.2710    0.9360   -0.7230 C   0  0  0  0  0  0  0  0  0  0  0  0
    5.7990   -0.1680    0.1160 C   0  0  1  0  0  0  0  0  0  0  0  0
    7.1820   -0.0990    0.2510 O   0  0  0  0  0  0  0  0  0  0  0  0
    5.1150   -0.0140    1.4800 C   0  0  0  0  0  0  0  0  0  0  0  0
    3.6540   -0.3970    1.3160 C   0  0  2  0  0  0  0  0  0  0  0  0
    3.5100   -1.7680    1.1160 O   0  0  0  0  0  0  0  0  0  0  0  0
   -1.2250   -1.3230    1.5350 C   0  0  2  0  0  0  0  0  0  0  0  0
   -0.8150   -2.7490    1.4390 C   0  0  0  0  0  0  0  0  0  0  0  0
   -1.9510   -3.7250    1.3500 C   0  0  0  0  0  0  0  0  0  0  0  0
   -2.9680   -3.3600    0.3020 C   0  0  0  0  0  0  0  0  0  0  0  0
   -3.1610   -1.8850    0.1540 C   0  0  0  0  0  0  0  0  0  0  0  0
   -2.6990   -1.0790    1.3170 C   0  0  1  0  0  0  0  0  0  0  0  0
   -3.4450   -1.3610    2.5840 C   0  0  0  0  0  0  0  0  0  0  0  0
   -2.8930    0.3840    0.9770 C   0  0  0  0  0  0  0  0  0  0  0  0
  1  2  2  0
  2  3  1  0
  2  4  1  0
  4  5  2  0
  4  6  1  0
  6  7  1  0
  7  8  2  0
  7 30  1  0
  8  9  1  0
  9 10  2  3
  9 23  1  0
 10 11  1  0
 11 12  2  3
 12 13  1  0
 12 21  1  0
 13 14  1  0
 13 17  2  0
 14 15  1  1
 14 16  1  0
 17 18  1  0
 18 19  1  1
 18 20  1  0
 20 21  1  0
 21 22  1  6
 23 24  1  6
 23 28  1  0
 24 25  1  0
 25 26  1  0
 26 27  1  0
 27 28  1  0
 28 29  1  1
 28 30  1  0
M  END
