
     RDKit          3D

 30 34  0  0  0  0  0  0  0  0999 V2000
    4.5500   -1.6540    0.1100 C   0  0  0  0  0  0  0  0  0  0  0  0
    3.9120   -0.3650   -0.2940 C   0  0  0  0  0  0  0  0  0  0  0  0
    2.6160   -0.3540   -0.7980 C   0  0  0  0  0  0  0  0  0  0  0  0
    2.0100    0.8140   -1.1750 C   0  0  0  0  0  0  0  0  0  0  0  0
    0.6940    0.9080   -1.6840 N   0  0  0  0  0  0  0  0  0  0  0  0
   -0.2730   -0.1430   -1.7080 C   0  0  0  0  0  0  0  0  0  0  0  0
   -0.7730   -0.5580   -0.3840 C   0  0  1  0  0  0  0  0  0  0  0  0
   -1.4510    0.5540    0.3700 C   0  0  0  0  0  0  0  0  0  0  0  0
   -2.8130    0.4800    0.2480 C   0  0  0  0  0  0  0  0  0  0  0  0
   -3.3390    1.4860    0.9400 O   0  0  0  0  0  0  0  0  0  0  0  0
   -2.3740    2.1700    1.4780 C   0  0  0  0  0  0  0  0  0  0  0  0
   -2.3720    3.3080    2.2920 C   0  0  0  0  0  0  0  0  0  0  0  0
   -1.1890    3.8450    2.7380 C   0  0  0  0  0  0  0  0  0  0  0  0
    0.0520    3.3100    2.4190 C   0  0  0  0  0  0  0  0  0  0  0  0
    0.0380    2.1940    1.6200 C   0  0  0  0  0  0  0  0  0  0  0  0
   -1.1370    1.6460    1.1670 C   0  0  0  0  0  0  0  0  0  0  0  0
   -3.1300   -0.6830   -0.6010 C   0  0  2  0  0  0  0  0  0  0  0  0
   -4.3330   -1.4420   -0.1910 C   0  0  2  0  0  0  0  0  0  0  0  0
   -4.4230   -1.6090    1.3070 C   0  0  0  0  0  0  0  0  0  0  0  0
   -4.3150   -2.7770   -0.8660 C   0  0  2  0  0  0  0  0  0  0  0  0
   -4.1640   -3.8320    0.0490 O   0  0  0  0  0  0  0  0  0  0  0  0
   -3.2950   -2.8970   -1.9610 C   0  0  0  0  0  0  0  0  0  0  0  0
   -1.8860   -2.5490   -1.4900 C   0  0  2  0  0  0  0  0  0  0  0  0
   -1.2780   -3.7150   -1.0270 O   0  0  0  0  0  0  0  0  0  0  0  0
   -1.9000   -1.5450   -0.4150 C   0  0  1  0  0  0  0  0  0  0  0  0
    2.7660    1.9770   -1.0230 C   0  0  0  0  0  0  0  0  0  0  0  0
    4.0490    1.9910   -0.5270 C   0  0  0  0  0  0  0  0  0  0  0  0
    4.8360    3.2430   -0.3740 C   0  0  0  0  0  0  0  0  0  0  0  0
    4.6360    0.8000   -0.1540 C   0  0  0  0  0  0  0  0  0  0  0  0
    6.0310    0.7850    0.3890 C   0  0  0  0  0  0  0  0  0  0  0  0
  1  2  1  0
  2  3  2  0
  2 29  1  0
  3  4  1  0
  4  5  1  0
  4 26  2  0
  5  6  1  0
  7  6  1  6
  7  8  1  0
 25  7  1  6
  8  9  2  0
  8 16  1  0
  9 10  1  0
 17  9  1  1
 10 11  1  0
 11 12  2  0
 11 16  1  0
 12 13  1  0
 13 14  2  0
 14 15  1  0
 15 16  2  0
 17 18  1  0
 17 25  1  0
 18 19  1  1
 18 20  1  0
 20 21  1  1
 20 22  1  0
 22 23  1  0
 23 24  1  1
 23 25  1  0
 26 27  1  0
 27 28  1  0
 27 29  2  0
 29 30  1  0
M  END
