
     RDKit          3D

 30 33  0  0  0  0  0  0  0  0999 V2000
    4.0070    0.2400    3.7290 C   0  0  0  0  0  0  0  0  0  0  0  0
    3.2010    0.2250    2.4500 C   0  0  0  0  0  0  0  0  0  0  0  0
    3.7310    0.5980    1.3310 C   0  0  0  0  0  0  0  0  0  0  0  0
    3.3670    0.7420   -0.0170 C   0  0  0  0  0  0  0  0  0  0  0  0
    4.3950    1.0970   -0.8470 C   0  0  0  0  0  0  0  0  0  0  0  0
    5.7330    1.2930   -0.2980 C   0  0  0  0  0  0  0  0  0  0  0  0
    2.1150    0.4380   -0.7180 C   0  0  0  0  0  0  0  0  0  0  0  0
    0.9180    0.2260   -0.2450 C   0  0  0  0  0  0  0  0  0  0  0  0
   -0.0280    0.1400    0.8370 C   0  0  0  0  0  0  0  0  0  0  0  0
    0.1120    1.0880    2.0260 C   0  0  0  0  0  0  0  0  0  0  0  0
   -1.0420   -0.6520    0.6190 C   0  0  0  0  0  0  0  0  0  0  0  0
   -2.0810   -0.8980    1.5480 N   0  0  0  0  0  0  0  0  0  0  0  0
   -3.1820   -0.1110    1.8670 C   0  0  0  0  0  0  0  0  0  0  0  0
   -3.4590    1.1220    1.3210 C   0  0  0  0  0  0  0  0  0  0  0  0
   -4.5570    1.8890    1.6410 C   0  0  0  0  0  0  0  0  0  0  0  0
   -5.4580    1.4390    2.5550 C   0  0  0  0  0  0  0  0  0  0  0  0
   -5.2270    0.2130    3.1300 C   0  0  0  0  0  0  0  0  0  0  0  0
   -4.1090   -0.5670    2.8020 C   0  0  0  0  0  0  0  0  0  0  0  0
   -4.0290   -1.7650    3.4680 O   0  0  0  0  0  0  0  0  0  0  0  0
   -0.9590   -1.1430   -0.7860 C   0  0  1  0  0  0  0  0  0  0  0  0
   -2.1950   -0.8830   -1.6050 C   0  0  2  0  0  0  0  0  0  0  0  0
   -3.3930   -1.5450   -0.9740 C   0  0  0  0  0  0  0  0  0  0  0  0
   -1.9640   -1.6380   -2.9320 C   0  0  0  0  0  0  0  0  0  0  0  0
   -2.4890    0.4310   -1.8340 O   0  0  0  0  0  0  0  0  0  0  0  0
    0.2880   -0.7040   -1.3140 C   0  0  1  0  0  0  0  0  0  0  0  0
    0.5750    0.0680   -2.4890 C   0  0  2  0  0  0  0  0  0  0  0  0
    1.1740   -0.7630   -3.6330 C   0  0  0  0  0  0  0  0  0  0  0  0
    2.5380   -0.6140   -2.9960 C   0  0  0  0  0  0  0  0  0  0  0  0
    2.0200    0.5350   -2.2380 C   0  0  2  0  0  0  0  0  0  0  0  0
    2.2410    1.8140   -2.7330 O   0  0  0  0  0  0  0  0  0  0  0  0
  1  2  1  0
  2  3  2  3
  3  4  1  0
  4  5  2  3
  4  7  1  0
  5  6  1  0
  7  8  2  0
  7 29  1  0
  8  9  1  0
 25  8  1  1
  9 10  1  0
  9 11  2  0
 11 12  1  0
 20 11  1  1
 12 13  1  0
 13 14  2  0
 13 18  1  0
 14 15  1  0
 15 16  2  0
 16 17  1  0
 17 18  2  0
 18 19  1  0
 20 21  1  0
 20 25  1  0
 21 22  1  1
 21 23  1  0
 21 24  1  0
 25 26  1  0
 26 27  1  6
 26 29  1  0
 27 28  1  0
 28 29  1  0
 29 30  1  6
M  END
