
     RDKit          3D

 12 12  0  0  0  0  0  0  0  0999 V2000
    3.1350    1.1470    0.0740 C   0  0  0  0  0  0  0  0  0  0  0  0
    2.1620    0.1620   -0.3640 N   0  0  0  0  0  0  0  0  0  0  0  0
    2.3050   -1.0080    0.4000 C   0  0  0  0  0  0  0  0  0  0  0  0
    1.1010   -1.8340    0.6230 C   0  0  0  0  0  0  0  0  0  0  0  0
    0.0970   -1.5550   -0.4630 C   0  0  0  0  0  0  0  0  0  0  0  0
   -0.2880   -0.1180   -0.5900 C   0  0  1  0  0  0  0  0  0  0  0  0
   -0.7790   -0.0090   -1.9830 N   0  0  0  0  0  0  0  0  0  0  0  0
   -1.4500    0.2880    0.2700 C   0  0  1  0  0  0  0  0  0  0  0  0
   -1.2380    0.0970    1.7390 C   0  0  0  0  0  0  0  0  0  0  0  0
   -1.8220    1.7480    0.1000 C   0  0  0  0  0  0  0  0  0  0  0  0
   -2.7150   -0.4850   -0.0950 C   0  0  0  0  0  0  0  0  0  0  0  0
    0.8930    0.7700   -0.4820 C   0  0  0  0  0  0  0  0  0  0  0  0
  1  2  1  0
  2  3  1  0
  2 12  1  0
  3  4  1  0
  4  5  1  0
  5  6  1  0
  6  7  1  6
  6  8  1  0
  6 12  1  0
  8  9  1  1
  8 10  1  0
  8 11  1  0
M  CHG  1   7   1
M  END
