
     RDKit          3D

 12 12  0  0  0  0  0  0  0  0999 V2000
   -1.7530   -1.5220   -0.9820 C   0  0  0  0  0  0  0  0  0  0  0  0
   -1.7980   -0.3970    0.0200 C   0  0  1  0  0  0  0  0  0  0  0  0
   -1.7130   -0.9480    1.4190 C   0  0  0  0  0  0  0  0  0  0  0  0
   -0.8730    0.6890   -0.2730 C   0  0  0  0  0  0  0  0  0  0  0  0
   -1.3160    1.8940   -0.5940 C   0  0  0  0  0  0  0  0  0  0  0  0
   -0.4300    3.0080   -0.8930 C   0  0  0  0  0  0  0  0  0  0  0  0
    0.8810    2.9000   -0.8680 C   0  0  0  0  0  0  0  0  0  0  0  0
    1.4400    1.6250   -0.5300 N   0  0  0  0  0  0  0  0  0  0  0  0
    0.5880    0.5090   -0.2310 C   0  0  0  0  0  0  0  0  0  0  0  0
    1.0250   -0.6900    0.0530 C   0  0  0  0  0  0  0  0  0  0  0  0
    2.4550   -1.0160    0.1310 C   0  0  0  0  0  0  0  0  0  0  0  0
    2.8390   -1.5040    1.4480 N   0  0  0  0  0  0  0  0  0  0  0  0
  2  1  1  6
  2  3  1  0
  2  4  1  0
  4  5  2  0
  4  9  1  0
  5  6  1  0
  6  7  2  0
  7  8  1  0
  8  9  1  0
  9 10  2  3
 10 11  1  0
 11 12  1  0
M  END
