
     RDKit          3D

 12 12  0  0  0  0  0  0  0  0999 V2000
   -3.4870    1.2710   -1.1770 C   0  0  0  0  0  0  0  0  0  0  0  0
   -2.1790    0.6970   -0.6850 C   0  0  0  0  0  0  0  0  0  0  0  0
   -2.0250   -0.4070   -0.0060 C   0  0  0  0  0  0  0  0  0  0  0  0
   -0.5720   -0.5910    0.2680 C   0  0  1  0  0  0  0  0  0  0  0  0
   -0.3680   -0.5280    1.7770 C   0  0  0  0  0  0  0  0  0  0  0  0
   -0.0960   -1.9120   -0.2930 C   0  0  0  0  0  0  0  0  0  0  0  0
    0.0500    0.5890   -0.3640 C   0  0  0  0  0  0  0  0  0  0  0  0
    1.4820    0.9270   -0.3980 C   0  0  0  0  0  0  0  0  0  0  0  0
    2.4790    0.2860    0.1040 C   0  0  0  0  0  0  0  0  0  0  0  0
    2.5230   -0.9130    0.8270 N   0  0  0  0  0  0  0  0  0  0  0  0
    3.7990    0.8820   -0.0980 N   0  0  0  0  0  0  0  0  0  0  0  0
   -0.9030    1.3440   -0.9250 C   0  0  0  0  0  0  0  0  0  0  0  0
  1  2  1  0
  2  3  2  0
  2 12  1  0
  3  4  1  0
  4  5  1  1
  4  6  1  0
  4  7  1  0
  7  8  1  0
  7 12  2  0
  8  9  2  3
  9 10  1  0
  9 11  1  0
M  END
