
     RDKit          3D

 11 12  0  0  0  0  0  0  0  0999 V2000
    2.1480    1.6310   -0.1750 N   0  0  0  0  0  0  0  0  0  0  0  0
    1.4700    0.3980   -0.0410 C   0  0  0  0  0  0  0  0  0  0  0  0
    2.1100   -0.8110    0.0930 C   0  0  0  0  0  0  0  0  0  0  0  0
    1.4540   -2.0080    0.2240 C   0  0  0  0  0  0  0  0  0  0  0  0
    0.0750   -2.0260    0.2230 C   0  0  0  0  0  0  0  0  0  0  0  0
   -0.6150   -0.8400    0.0920 C   0  0  0  0  0  0  0  0  0  0  0  0
   -1.9640   -0.8660    0.0920 N   0  0  0  0  0  0  0  0  0  0  0  0
   -2.6670    0.2730   -0.0340 C   0  0  0  0  0  0  0  0  0  0  0  0
   -2.0290    1.4890   -0.1670 C   0  0  0  0  0  0  0  0  0  0  0  0
   -0.6500    1.5300   -0.1690 C   0  0  0  0  0  0  0  0  0  0  0  0
    0.0720    0.3680   -0.0400 C   0  0  0  0  0  0  0  0  0  0  0  0
  1  2  1  0
  2  3  2  0
  2 11  1  0
  3  4  1  0
  4  5  2  0
  5  6  1  0
  6  7  2  0
  6 11  1  0
  7  8  1  0
  8  9  2  0
  9 10  1  0
 10 11  2  0
M  CHG  1   7   1
M  END
