
     RDKit          3D

 12 12  0  0  0  0  0  0  0  0999 V2000
   -5.1410   -0.2460   -0.1340 C   0  0  0  0  0  0  0  0  0  0  0  0
   -3.7570   -0.2810    0.3950 C   0  0  0  0  0  0  0  0  0  0  0  0
   -2.7540   -0.0490   -0.4280 C   0  0  0  0  0  0  0  0  0  0  0  0
   -1.3630   -0.0700    0.0360 C   0  0  0  0  0  0  0  0  0  0  0  0
   -0.3980    0.1610   -0.7860 N   0  0  0  0  0  0  0  0  0  0  0  0
    0.9430    0.1440   -0.3540 C   0  0  0  0  0  0  0  0  0  0  0  0
    1.7080   -0.9680   -0.5800 C   0  0  0  0  0  0  0  0  0  0  0  0
    3.0190   -0.9760   -0.1540 C   0  0  0  0  0  0  0  0  0  0  0  0
    3.5410    0.1260    0.4900 C   0  0  0  0  0  0  0  0  0  0  0  0
    4.8980    0.1210    0.9330 N   0  0  0  0  0  0  0  0  0  0  0  0
    2.7720    1.2480    0.7200 C   0  0  0  0  0  0  0  0  0  0  0  0
    1.4570    1.2390    0.2850 C   0  0  0  0  0  0  0  0  0  0  0  0
  1  2  1  0
  2  3  2  3
  3  4  1  0
  4  5  2  3
  5  6  1  0
  6  7  2  0
  6 12  1  0
  7  8  1  0
  8  9  2  0
  9 10  1  0
  9 11  1  0
 11 12  2  0
M  CHG  1   5   1
M  END
