
     RDKit          3D

 12 13  0  0  0  0  0  0  0  0999 V2000
    3.5120   -1.1900    0.4290 N   0  0  0  0  0  0  0  0  0  0  0  0
    2.6300   -0.0530    0.1710 C   0  0  0  0  0  0  0  0  0  0  0  0
    1.2360   -0.5740    0.1240 C   0  0  0  0  0  0  0  0  0  0  0  0
    0.1890    0.4640   -0.1350 C   0  0  2  0  0  0  0  0  0  0  0  0
   -1.1790   -0.1160   -0.1710 C   0  0  0  0  0  0  0  0  0  0  0  0
   -1.9630   -0.0690   -1.1650 N   0  0  0  0  0  0  0  0  0  0  0  0
   -3.2140   -0.7180   -0.8970 C   0  0  0  0  0  0  0  0  0  0  0  0
   -2.8260   -1.7110    0.2110 C   0  0  0  0  0  0  0  0  0  0  0  0
   -1.8390   -0.8440    0.9630 C   0  0  0  0  0  0  0  0  0  0  0  0
    0.4090    1.4010   -1.2770 C   0  0  0  0  0  0  0  0  0  0  0  0
   -0.2600    2.4800   -0.4120 C   0  0  0  0  0  0  0  0  0  0  0  0
    0.2530    1.6670    0.7840 C   0  0  0  0  0  0  0  0  0  0  0  0
  1  2  1  0
  2  3  1  0
  4  3  1  1
  4  5  1  0
  4 10  1  0
  4 12  1  0
  5  6  2  0
  5  9  1  0
  6  7  1  0
  7  8  1  0
  8  9  1  0
 10 11  1  0
 11 12  1  0
M  CHG  1   1   1
M  END
