
     RDKit          3D

 36 40  0  0  0  0  0  0  0  0999 V2000
   -1.8570    5.3860    2.0880 C   0  0  0  0  0  0  0  0  0  0  0  0
   -1.2070    4.3170    1.5080 O   0  0  0  0  0  0  0  0  0  0  0  0
   -1.9030    3.9440    0.3650 C   0  0  0  0  0  0  0  0  0  0  0  0
   -1.1910    2.7470   -0.3000 C   0  0  2  0  0  0  0  0  0  0  0  0
   -1.9320    2.3320   -1.5390 C   0  0  0  0  0  0  0  0  0  0  0  0
   -2.8160    1.2100   -1.2600 C   0  0  0  0  0  0  0  0  0  0  0  0
   -2.1850   -0.1170   -0.7960 C   0  0  1  0  0  0  0  0  0  0  0  0
   -3.2760   -0.7700   -0.0020 C   0  0  2  0  0  0  0  0  0  0  0  0
   -3.3760   -2.1750    0.2850 C   0  0  1  0  0  0  0  0  0  0  0  0
   -2.5210   -2.9690    1.1490 C   0  0  0  0  0  0  0  0  0  0  0  0
   -2.9240   -2.6160    2.5620 C   0  0  0  0  0  0  0  0  0  0  0  0
   -4.4460   -2.7590    2.4090 C   0  0  0  0  0  0  0  0  0  0  0  0
   -4.7250   -2.4050    0.9640 C   0  0  0  0  0  0  0  0  0  0  0  0
   -4.4590   -0.5050   -0.7470 O   0  0  0  0  0  0  0  0  0  0  0  0
   -4.4820   -1.1210   -1.9710 C   0  0  0  0  0  0  0  0  0  0  0  0
   -3.2670   -1.0370   -2.7910 C   0  0  0  0  0  0  0  0  0  0  0  0
   -1.9520   -0.8480   -2.0690 C   0  0  2  0  0  0  0  0  0  0  0  0
   -1.1460   -2.0940   -2.0420 C   0  0  0  0  0  0  0  0  0  0  0  0
   -1.2280    0.0500   -2.9040 O   0  0  0  0  0  0  0  0  0  0  0  0
   -1.0380    0.2390    0.0430 C   0  0  1  0  0  0  0  0  0  0  0  0
   -0.8550   -0.5350    1.1830 O   0  0  0  0  0  0  0  0  0  0  0  0
    0.3080    0.3180   -0.5920 C   0  0  0  0  0  0  0  0  0  0  0  0
    1.4170    0.6610    0.3940 C   0  0  2  0  0  0  0  0  0  0  0  0
    2.7510    0.7200   -0.2950 C   0  0  0  0  0  0  0  0  0  0  0  0
    3.7400   -0.2910    0.1900 C   0  0  1  0  0  0  0  0  0  0  0  0
    2.9490   -1.5820    0.4250 C   0  0  0  0  0  0  0  0  0  0  0  0
    2.0290   -1.2730    1.5620 C   0  0  0  0  0  0  0  0  0  0  0  0
    1.3750   -0.1020    1.5200 O   0  0  0  0  0  0  0  0  0  0  0  0
    4.8620   -0.4910   -0.7730 C   0  0  0  0  0  0  0  0  0  0  0  0
    5.9790    0.4800   -0.3690 C   0  0  2  0  0  0  0  0  0  0  0  0
    7.0640    0.5040   -1.4110 C   0  0  0  0  0  0  0  0  0  0  0  0
    8.0380    1.3930   -0.9940 O   0  0  0  0  0  0  0  0  0  0  0  0
    6.5210    0.1530    0.9990 C   0  0  0  0  0  0  0  0  0  0  0  0
    5.4090   -0.5940    1.7450 C   0  0  0  0  0  0  0  0  0  0  0  0
    4.2260    0.0820    1.4510 O   0  0  0  0  0  0  0  0  0  0  0  0
   -1.3030    1.6270    0.6630 C   0  0  0  0  0  0  0  0  0  0  0  0
  1  2  1  0
  2  3  1  0
  4  3  1  1
  4  5  1  0
  4 36  1  0
  5  6  1  0
  7  6  1  6
  7  8  1  0
  7 17  1  0
  7 20  1  0
  8  9  1  0
  8 14  1  6
  9 10  1  1
  9 13  1  0
 10 11  1  0
 11 12  1  0
 12 13  1  0
 14 15  1  0
 15 16  1  0
 16 17  1  0
 17 18  1  1
 17 19  1  0
 20 21  1  1
 20 22  1  0
 20 36  1  0
 23 22  1  6
 23 24  1  0
 23 28  1  0
 25 24  1  6
 25 26  1  0
 25 29  1  0
 25 35  1  0
 26 27  1  0
 27 28  1  0
 29 30  1  0
 30 31  1  6
 30 33  1  0
 31 32  1  0
 33 34  1  0
 34 35  1  0
M  END
