
     RDKit          3D

 37 40  0  0  0  0  0  0  0  0999 V2000
    0.7210   -0.0220    3.0050 C   0  0  0  0  0  0  0  0  0  0  0  0
    0.1930    0.9110    1.9610 C   0  0  0  0  0  0  0  0  0  0  0  0
    0.1830    0.2460    0.5470 C   0  0  2  0  0  0  0  0  0  0  0  0
    1.6940   -0.0730    0.3540 C   0  0  0  0  0  0  0  0  0  0  0  0
    2.0480   -0.2110   -1.0930 C   0  0  2  0  0  0  0  0  0  0  0  0
    3.4730   -0.6340   -1.2940 C   0  0  2  0  0  0  0  0  0  0  0  0
    3.7190   -1.9650   -0.6220 C   0  0  0  0  0  0  0  0  0  0  0  0
    4.5280    0.3640   -1.1970 C   0  0  0  0  0  0  0  0  0  0  0  0
    4.7920    1.1510   -0.0020 C   0  0  1  0  0  0  0  0  0  0  0  0
    5.1460    0.3810    1.2350 C   0  0  0  0  0  0  0  0  0  0  0  0
    6.0300    1.4140    1.9500 C   0  0  0  0  0  0  0  0  0  0  0  0
    6.7240    2.0500    0.9640 O   0  0  0  0  0  0  0  0  0  0  0  0
    6.1520    1.8450   -0.2500 C   0  0  0  0  0  0  0  0  0  0  0  0
    1.6370    0.9060   -1.9840 C   0  0  0  0  0  0  0  0  0  0  0  0
    0.1780    1.2460   -1.7610 C   0  0  0  0  0  0  0  0  0  0  0  0
   -0.0390    1.4450   -0.2960 C   0  0  1  0  0  0  0  0  0  0  0  0
   -0.9150    2.4120    0.1190 O   0  0  0  0  0  0  0  0  0  0  0  0
   -2.0490    3.0000   -0.2710 C   0  0  0  0  0  0  0  0  0  0  0  0
   -2.0940    4.2040   -0.6170 O   0  0  0  0  0  0  0  0  0  0  0  0
   -3.2770    2.2140   -0.2960 C   0  0  1  0  0  0  0  0  0  0  0  0
   -3.5070    1.7790   -1.6970 C   0  0  0  0  0  0  0  0  0  0  0  0
   -3.0840    1.2030    0.6550 O   0  0  0  0  0  0  0  0  0  0  0  0
   -4.5590    2.8620    0.1550 C   0  0  0  0  0  0  0  0  0  0  0  0
   -5.5460    1.6570    0.2050 C   0  0  0  0  0  0  0  0  0  0  0  0
   -5.0440    0.5500    0.8230 O   0  0  0  0  0  0  0  0  0  0  0  0
   -4.9890   -0.7740    0.6950 C   0  0  0  0  0  0  0  0  0  0  0  0
   -5.7550   -1.4870    1.4570 O   0  0  0  0  0  0  0  0  0  0  0  0
   -4.1560   -1.6130   -0.2150 C   0  0  0  0  0  0  0  0  0  0  0  0
   -2.8290   -2.0080    0.3900 C   0  0  1  0  0  0  0  0  0  0  0  0
   -2.8680   -1.6300    1.7440 O   0  0  0  0  0  0  0  0  0  0  0  0
   -2.8370   -3.5430    0.4210 C   0  0  0  0  0  0  0  0  0  0  0  0
   -3.0190   -3.9260   -0.9980 C   0  0  0  0  0  0  0  0  0  0  0  0
   -2.1300   -3.4110   -1.8260 C   0  0  0  0  0  0  0  0  0  0  0  0
   -1.0970   -2.5430   -1.2380 C   0  0  0  0  0  0  0  0  0  0  0  0
   -1.6160   -1.4440   -0.3200 C   0  0  2  0  0  0  0  0  0  0  0  0
   -0.5810   -0.9450    0.6200 C   0  0  1  0  0  0  0  0  0  0  0  0
    0.3210   -2.0540    0.7320 O   0  0  0  0  0  0  0  0  0  0  0  0
  1  2  1  0
  3  2  1  1
  3  4  1  0
  3 16  1  0
  3 36  1  0
  5  4  1  1
  5  6  1  0
  5 14  1  0
  6  7  1  1
  6  8  1  0
  9  8  1  6
  9 10  1  0
  9 13  1  0
 10 11  1  0
 11 12  1  0
 12 13  1  0
 14 15  1  0
 16 15  1  6
 16 17  1  0
 17 18  1  0
 18 19  2  0
 18 20  1  0
 20 21  1  6
 20 22  1  0
 20 23  1  0
 23 24  1  0
 24 25  1  0
 25 26  1  0
 26 27  2  0
 26 28  1  0
 28 29  1  0
 29 30  1  1
 29 31  1  0
 29 35  1  0
 31 32  1  0
 32 33  2  0
 33 34  1  0
 35 34  1  1
 35 36  1  0
 36 37  1  6
M  END
