
     RDKit          3D

 37 40  0  0  0  0  0  0  0  0999 V2000
    0.2780   -4.9180    1.5790 C   0  0  0  0  0  0  0  0  0  0  0  0
    0.1520   -5.0120    0.1040 C   0  0  0  0  0  0  0  0  0  0  0  0
    0.1670   -3.6880   -0.6320 C   0  0  2  0  0  0  0  0  0  0  0  0
    1.4800   -3.0140   -0.3000 C   0  0  0  0  0  0  0  0  0  0  0  0
    2.3760   -2.7800   -1.4960 C   0  0  2  0  0  0  0  0  0  0  0  0
    3.1430   -3.9010   -1.8000 O   0  0  0  0  0  0  0  0  0  0  0  0
    3.3340   -1.5730   -1.2740 C   0  0  0  0  0  0  0  0  0  0  0  0
    2.4370   -0.4000   -1.4620 C   0  0  0  0  0  0  0  0  0  0  0  0
    2.9710    0.9800   -1.4690 C   0  0  2  0  0  0  0  0  0  0  0  0
    3.8500    1.2190   -0.3030 C   0  0  0  0  0  0  0  0  0  0  0  0
    5.0500    1.5370   -0.4880 O   0  0  0  0  0  0  0  0  0  0  0  0
    3.4050    1.1060    1.0030 O   0  0  0  0  0  0  0  0  0  0  0  0
    4.2200    1.3290    2.1310 C   0  0  0  0  0  0  0  0  0  0  0  0
    4.7650    2.7160    2.1790 C   0  0  0  0  0  0  0  0  0  0  0  0
    5.5510    2.8230    3.3310 O   0  0  0  0  0  0  0  0  0  0  0  0
    1.8330    1.9870   -1.5610 C   0  0  0  0  0  0  0  0  0  0  0  0
    0.6390    1.7120   -0.7100 C   0  0  1  0  0  0  0  0  0  0  0  0
    0.2090    3.0880   -0.1520 C   0  0  0  0  0  0  0  0  0  0  0  0
   -0.5090    1.2790   -1.5910 C   0  0  0  0  0  0  0  0  0  0  0  0
   -1.7830    0.9030   -0.8850 C   0  0  1  0  0  0  0  0  0  0  0  0
   -1.7700    1.3710    0.5340 C   0  0  0  0  0  0  0  0  0  0  0  0
   -2.6500    2.2270    1.0290 C   0  0  0  0  0  0  0  0  0  0  0  0
   -2.6060    2.6430    2.3620 O   0  0  0  0  0  0  0  0  0  0  0  0
   -3.1570    3.9250    2.6230 C   0  0  0  0  0  0  0  0  0  0  0  0
   -4.5680    4.0380    2.0840 C   0  0  0  0  0  0  0  0  0  0  0  0
   -4.6530    3.6940    0.7300 O   0  0  0  0  0  0  0  0  0  0  0  0
   -3.7180    2.7830    0.2110 C   0  0  0  0  0  0  0  0  0  0  0  0
   -3.8060    2.4260   -1.0290 C   0  0  0  0  0  0  0  0  0  0  0  0
   -2.9030    1.4950   -1.6740 C   0  0  1  0  0  0  0  0  0  0  0  0
   -2.4130    2.1840   -2.8250 O   0  0  0  0  0  0  0  0  0  0  0  0
   -2.0420   -0.6040   -0.8270 C   0  0  1  0  0  0  0  0  0  0  0  0
   -0.8010   -1.3810   -0.5830 C   0  0  0  0  0  0  0  0  0  0  0  0
   -1.0650   -2.8720   -0.5770 C   0  0  2  0  0  0  0  0  0  0  0  0
   -2.0890   -3.1530    0.4490 C   0  0  0  0  0  0  0  0  0  0  0  0
   -2.4260   -1.8960    1.2770 C   0  0  0  0  0  0  0  0  0  0  0  0
   -3.0410   -0.9300    0.2500 C   0  0  2  0  0  0  0  0  0  0  0  0
   -4.1320   -1.6630   -0.2820 O   0  0  0  0  0  0  0  0  0  0  0  0
  1  2  1  0
  3  2  1  1
  3  4  1  0
  3 33  1  0
  4  5  1  0
  5  6  1  1
  5  7  1  0
  7  8  1  0
  8  9  1  0
  9 10  1  1
  9 16  1  0
 10 11  2  0
 10 12  1  0
 12 13  1  0
 13 14  1  0
 14 15  1  0
 16 17  1  0
 17 18  1  6
 17 19  1  0
 20 19  1  6
 20 21  1  0
 20 29  1  0
 20 31  1  0
 21 22  2  0
 22 23  1  0
 22 27  1  0
 23 24  1  0
 24 25  1  0
 25 26  1  0
 26 27  1  0
 27 28  2  0
 28 29  1  0
 29 30  1  6
 31 32  1  1
 31 36  1  0
 32 33  1  0
 33 34  1  1
 34 35  1  0
 35 36  1  0
 36 37  1  6
M  END
