
     RDKit          3D

 37 41  0  0  0  0  0  0  0  0999 V2000
   -4.1300   -3.8840    1.1100 C   0  0  0  0  0  0  0  0  0  0  0  0
   -4.6540   -2.9300    0.0680 C   0  0  0  0  0  0  0  0  0  0  0  0
   -4.7030   -1.5000    0.4900 C   0  0  2  0  0  0  0  0  0  0  0  0
   -5.5910   -1.3450    1.6800 C   0  0  0  0  0  0  0  0  0  0  0  0
   -6.8840   -1.7560    1.4300 O   0  0  0  0  0  0  0  0  0  0  0  0
   -5.1560   -0.6590   -0.6720 C   0  0  0  0  0  0  0  0  0  0  0  0
   -4.5450    0.7520   -0.5360 C   0  0  0  0  0  0  0  0  0  0  0  0
   -3.0970    0.6850   -0.8900 C   0  0  1  0  0  0  0  0  0  0  0  0
   -3.0470    0.6780   -2.3080 O   0  0  0  0  0  0  0  0  0  0  0  0
   -2.2380    1.8040   -0.4490 C   0  0  2  0  0  0  0  0  0  0  0  0
   -2.6590    3.1630   -0.8640 C   0  0  1  0  0  0  0  0  0  0  0  0
   -2.7400    3.2930   -2.2540 O   0  0  0  0  0  0  0  0  0  0  0  0
   -3.7720    3.7950   -0.1100 C   0  0  0  0  0  0  0  0  0  0  0  0
   -4.0210    5.1630   -0.6950 C   0  0  0  0  0  0  0  0  0  0  0  0
   -4.6240    5.2430   -1.7900 O   0  0  0  0  0  0  0  0  0  0  0  0
   -3.6040    6.2910   -0.0560 O   0  0  0  0  0  0  0  0  0  0  0  0
   -0.8940    1.5470   -1.1710 C   0  0  0  0  0  0  0  0  0  0  0  0
   -0.2480    0.4200   -0.4040 C   0  0  1  0  0  0  0  0  0  0  0  0
   -1.1050   -0.7930   -0.2860 C   0  0  0  0  0  0  0  0  0  0  0  0
   -2.5510   -0.6490   -0.4560 C   0  0  1  0  0  0  0  0  0  0  0  0
   -3.2990   -0.9870    0.8470 C   0  0  0  0  0  0  0  0  0  0  0  0
    0.9980    0.0420   -1.1900 C   0  0  0  0  0  0  0  0  0  0  0  0
    2.1560    0.0660   -0.1850 C   0  0  1  0  0  0  0  0  0  0  0  0
    2.2700    1.5470    0.2000 C   0  0  0  0  0  0  0  0  0  0  0  0
    0.9830    1.8830    0.9180 C   0  0  0  0  0  0  0  0  0  0  0  0
    0.0450    0.8930    0.8610 O   0  0  0  0  0  0  0  0  0  0  0  0
    1.7800   -0.7230    0.8720 O   0  0  0  0  0  0  0  0  0  0  0  0
    2.9860   -1.2110    1.3720 C   0  0  0  0  0  0  0  0  0  0  0  0
    3.8020   -1.3630    0.1230 C   0  0  2  0  0  0  0  0  0  0  0  0
    5.2700   -1.3530    0.3300 C   0  0  1  0  0  0  0  0  0  0  0  0
    5.6110   -2.5240    1.2580 C   0  0  0  0  0  0  0  0  0  0  0  0
    5.9440   -1.6220   -0.9910 C   0  0  0  0  0  0  0  0  0  0  0  0
    7.0530   -0.6650   -1.3020 C   0  0  0  0  0  0  0  0  0  0  0  0
    7.9860   -0.5400   -0.1240 C   0  0  0  0  0  0  0  0  0  0  0  0
    7.2660   -0.1250    1.1220 C   0  0  0  0  0  0  0  0  0  0  0  0
    5.7800   -0.1120    1.0000 C   0  0  0  0  0  0  0  0  0  0  0  0
    3.3200   -0.4070   -0.7330 O   0  0  0  0  0  0  0  0  0  0  0  0
  1  2  1  0
  3  2  1  6
  3  4  1  0
  3  6  1  0
  3 21  1  0
  4  5  1  0
  6  7  1  0
  7  8  1  0
  8  9  1  6
  8 10  1  0
  8 20  1  0
 10 11  1  0
 10 17  1  6
 11 12  1  6
 11 13  1  0
 13 14  1  0
 14 15  2  0
 14 16  1  0
 18 17  1  6
 18 19  1  0
 18 22  1  0
 18 26  1  0
 20 19  1  1
 20 21  1  0
 23 22  1  6
 23 24  1  0
 23 27  1  0
 23 37  1  0
 24 25  1  0
 25 26  1  0
 27 28  1  0
 29 28  1  1
 29 30  1  0
 29 37  1  0
 30 31  1  1
 30 32  1  0
 30 36  1  0
 32 33  1  0
 33 34  1  0
 34 35  1  0
 35 36  1  0
M  END
