
     RDKit          3D

 37 40  0  0  0  0  0  0  0  0999 V2000
    5.0980    3.0680   -2.9430 C   0  0  0  0  0  0  0  0  0  0  0  0
    5.8170    2.1900   -2.0530 N   0  0  0  0  0  0  0  0  0  0  0  0
    6.6530    1.1500   -2.6250 C   0  0  0  0  0  0  0  0  0  0  0  0
    5.7400    2.3000   -0.6360 C   0  0  0  0  0  0  0  0  0  0  0  0
    6.6440    3.1250   -0.0140 C   0  0  0  0  0  0  0  0  0  0  0  0
    6.5690    3.2280    1.3480 C   0  0  0  0  0  0  0  0  0  0  0  0
    5.6430    2.5500    2.0830 C   0  0  0  0  0  0  0  0  0  0  0  0
    5.6170    2.6960    3.4700 O   0  0  0  0  0  0  0  0  0  0  0  0
    4.7210    1.7130    1.4820 C   0  0  0  0  0  0  0  0  0  0  0  0
    3.7770    0.9750    2.2760 C   0  0  0  0  0  0  0  0  0  0  0  0
    3.9660    0.9810    3.5460 O   0  0  0  0  0  0  0  0  0  0  0  0
    2.6390    0.2270    1.7940 C   0  0  0  0  0  0  0  0  0  0  0  0
    2.3020   -0.9320    2.4760 C   0  0  0  0  0  0  0  0  0  0  0  0
    1.2000   -1.6730    2.0930 C   0  0  0  0  0  0  0  0  0  0  0  0
    0.3990   -1.3060    1.0390 C   0  0  0  0  0  0  0  0  0  0  0  0
   -0.7420   -2.1240    0.6880 C   0  0  0  0  0  0  0  0  0  0  0  0
   -0.9360   -3.2260    1.2840 O   0  0  0  0  0  0  0  0  0  0  0  0
   -1.6950   -1.7850   -0.3030 N   0  0  0  0  0  0  0  0  0  0  0  0
   -2.8180   -2.6710   -0.5910 C   0  0  2  0  0  0  0  0  0  0  0  0
   -2.8050   -3.1120   -2.0380 C   0  0  0  0  0  0  0  0  0  0  0  0
   -3.6620   -4.3400   -2.2170 C   0  0  0  0  0  0  0  0  0  0  0  0
   -5.0540   -4.1600   -1.6510 C   0  0  0  0  0  0  0  0  0  0  0  0
   -5.1130   -4.1450   -0.2310 N   0  0  0  0  0  0  0  0  0  0  0  0
   -5.0450   -2.8640    0.3850 C   0  0  0  0  0  0  0  0  0  0  0  0
   -4.1430   -1.9330   -0.3550 C   0  0  1  0  0  0  0  0  0  0  0  0
   -3.9200   -0.6810    0.3230 N   0  0  0  0  0  0  0  0  0  0  0  0
   -4.3050    0.5810   -0.1600 C   0  0  0  0  0  0  0  0  0  0  0  0
   -4.8880    0.6170   -1.2650 O   0  0  0  0  0  0  0  0  0  0  0  0
   -4.0740    1.8430    0.5290 C   0  0  0  0  0  0  0  0  0  0  0  0
   -3.3540    1.9310    1.7020 C   0  0  0  0  0  0  0  0  0  0  0  0
   -3.1580    3.1530    2.3280 C   0  0  0  0  0  0  0  0  0  0  0  0
   -3.6550    4.2930    1.8270 N   0  0  0  0  0  0  0  0  0  0  0  0
   -4.3650    4.2460    0.6820 C   0  0  0  0  0  0  0  0  0  0  0  0
   -4.5790    3.0270    0.0270 C   0  0  0  0  0  0  0  0  0  0  0  0
    0.7380   -0.1630    0.3730 C   0  0  0  0  0  0  0  0  0  0  0  0
    1.8450    0.5960    0.7460 C   0  0  0  0  0  0  0  0  0  0  0  0
    4.7970    1.6090    0.1110 C   0  0  0  0  0  0  0  0  0  0  0  0
  1  2  1  0
  2  3  1  0
  2  4  1  0
  4  5  2  0
  4 37  1  0
  5  6  1  0
  6  7  2  0
  7  8  1  0
  7  9  1  0
  9 10  1  0
  9 37  2  0
 10 11  2  0
 10 12  1  0
 12 13  2  0
 12 36  1  0
 13 14  1  0
 14 15  2  0
 15 16  1  0
 15 35  1  0
 16 17  2  0
 16 18  1  0
 19 18  1  6
 19 20  1  0
 19 25  1  0
 20 21  1  0
 21 22  1  0
 22 23  1  0
 23 24  1  0
 24 25  1  0
 25 26  1  1
 26 27  1  0
 27 28  2  0
 27 29  1  0
 29 30  2  0
 29 34  1  0
 30 31  1  0
 31 32  2  0
 32 33  1  0
 33 34  2  0
 35 36  2  0
M  CHG  1  23   1
M  END
