
     RDKit          3D

 36 40  0  0  0  0  0  0  0  0999 V2000
   -3.1950    2.2070   -2.7460 C   0  0  0  0  0  0  0  0  0  0  0  0
   -3.8220    0.9810   -2.0400 C   0  0  2  0  0  0  0  0  0  0  0  0
   -4.4170    0.1670   -3.2040 C   0  0  0  0  0  0  0  0  0  0  0  0
   -4.9410    1.5220   -1.2530 C   0  0  0  0  0  0  0  0  0  0  0  0
   -4.8440    1.2930    0.2360 C   0  0  1  0  0  0  0  0  0  0  0  0
   -6.2220    1.5590    0.7760 C   0  0  0  0  0  0  0  0  0  0  0  0
   -6.4700    1.0980    2.0320 O   0  0  0  0  0  0  0  0  0  0  0  0
   -5.3350    0.5640    2.5800 C   0  0  0  0  0  0  0  0  0  0  0  0
   -4.9370   -0.6210    1.6790 C   0  0  1  0  0  0  0  0  0  0  0  0
   -4.2130   -1.5490    2.5960 C   0  0  0  0  0  0  0  0  0  0  0  0
   -6.2950   -1.3100    1.4210 C   0  0  0  0  0  0  0  0  0  0  0  0
   -4.3750   -0.1460    0.4470 C   0  0  1  0  0  0  0  0  0  0  0  0
   -4.9980   -0.8600   -0.6180 O   0  0  0  0  0  0  0  0  0  0  0  0
   -2.9420   -0.1470    0.1010 C   0  0  1  0  0  0  0  0  0  0  0  0
   -2.0840    0.8340    0.8160 C   0  0  0  0  0  0  0  0  0  0  0  0
   -0.6610    0.2410    0.6580 C   0  0  0  0  0  0  0  0  0  0  0  0
   -0.7820   -1.0000   -0.0940 C   0  0  1  0  0  0  0  0  0  0  0  0
    0.1960   -2.0920    0.1940 C   0  0  0  0  0  0  0  0  0  0  0  0
    1.4990   -1.7980   -0.0640 O   0  0  0  0  0  0  0  0  0  0  0  0
    2.3790   -0.9450    0.5020 C   0  0  0  0  0  0  0  0  0  0  0  0
    2.1190   -0.2120    1.4730 O   0  0  0  0  0  0  0  0  0  0  0  0
    3.7610   -0.8690   -0.0680 C   0  0  1  0  0  0  0  0  0  0  0  0
    3.5990   -0.4460   -1.5360 C   0  0  0  0  0  0  0  0  0  0  0  0
    4.2730    0.8930   -1.5820 C   0  0  1  0  0  0  0  0  0  0  0  0
    3.8950    1.4470   -0.1950 C   0  0  0  0  0  0  0  0  0  0  0  0
    4.5030    0.2590    0.5840 C   0  0  2  0  0  0  0  0  0  0  0  0
    5.9250    0.3640    0.1130 C   0  0  1  0  0  0  0  0  0  0  0  0
    6.7150   -0.8930    0.3410 C   0  0  0  0  0  0  0  0  0  0  0  0
    8.1400   -0.7670   -0.1390 C   0  0  0  0  0  0  0  0  0  0  0  0
    8.8210    0.2530    0.5020 O   0  0  0  0  0  0  0  0  0  0  0  0
    8.9130    0.1080    1.8680 C   0  0  0  0  0  0  0  0  0  0  0  0
    9.5820   -1.0780    2.2220 O   0  0  0  0  0  0  0  0  0  0  0  0
    5.7550    0.6630   -1.3740 C   0  0  2  0  0  0  0  0  0  0  0  0
    6.4230    1.8170   -1.7500 O   0  0  0  0  0  0  0  0  0  0  0  0
   -2.2110   -1.4370    0.3260 C   0  0  0  0  0  0  0  0  0  0  0  0
   -2.8010    0.1750   -1.3830 C   0  0  0  0  0  0  0  0  0  0  0  0
  2  1  1  6
  2  3  1  0
  2  4  1  0
  2 36  1  0
  5  4  1  6
  5  6  1  0
  5 12  1  0
  6  7  1  0
  7  8  1  0
  8  9  1  0
  9 10  1  1
  9 11  1  0
  9 12  1  0
 12 13  1  6
 12 14  1  0
 14 15  1  1
 14 35  1  0
 14 36  1  0
 15 16  1  0
 16 17  1  0
 17 18  1  1
 17 35  1  0
 18 19  1  0
 19 20  1  0
 20 21  2  0
 22 20  1  1
 22 23  1  0
 22 26  1  0
 24 23  1  1
 24 25  1  0
 24 33  1  0
 26 25  1  6
 26 27  1  0
 27 28  1  6
 27 33  1  0
 28 29  1  0
 29 30  1  0
 30 31  1  0
 31 32  1  0
 33 34  1  1
M  END
