
     RDKit          3D

 43 47  0  0  0  0  0  0  0  0999 V2000
    5.6750    2.1280    3.5290 C   0  0  0  0  0  0  0  0  0  0  0  0
    6.8790    1.4100    3.0170 C   0  0  0  0  0  0  0  0  0  0  0  0
    6.8230    0.7350    1.8510 C   0  0  0  0  0  0  0  0  0  0  0  0
    7.9960    0.0580    1.3840 C   0  0  0  0  0  0  0  0  0  0  0  0
    8.1710   -0.6450    0.2780 C   0  0  0  0  0  0  0  0  0  0  0  0
    7.2400   -0.9310   -0.7700 C   0  0  0  0  0  0  0  0  0  0  0  0
    7.6220   -1.6660   -1.8440 C   0  0  0  0  0  0  0  0  0  0  0  0
    8.8110   -2.2830   -2.2380 C   0  0  0  0  0  0  0  0  0  0  0  0
   10.1270   -2.3390   -1.6170 C   0  0  0  0  0  0  0  0  0  0  0  0
    8.7530   -2.9380   -3.3740 O   0  0  0  0  0  0  0  0  0  0  0  0
    5.9750   -0.5340   -0.8000 O   0  0  0  0  0  0  0  0  0  0  0  0
    5.2150    0.5080   -1.1220 C   0  0  0  0  0  0  0  0  0  0  0  0
    5.6970    1.7170   -1.6170 C   0  0  0  0  0  0  0  0  0  0  0  0
    4.8250    2.7410   -1.9170 C   0  0  0  0  0  0  0  0  0  0  0  0
    3.4650    2.6240   -1.7440 C   0  0  0  0  0  0  0  0  0  0  0  0
    2.9680    1.4380   -1.2570 C   0  0  0  0  0  0  0  0  0  0  0  0
    3.8020    0.4010   -0.9520 C   0  0  0  0  0  0  0  0  0  0  0  0
    3.3190   -0.8610   -0.4770 N   0  0  0  0  0  0  0  0  0  0  0  0
    1.9760   -1.1960   -0.2690 C   0  0  0  0  0  0  0  0  0  0  0  0
    1.6960   -2.0670    0.5920 O   0  0  0  0  0  0  0  0  0  0  0  0
    0.8880   -0.5390   -1.0480 C   0  0  1  0  0  0  0  0  0  0  0  0
   -0.3940   -0.8740   -0.4790 N   0  0  0  0  0  0  0  0  0  0  0  0
   -1.4720   -1.4950   -1.1250 C   0  0  0  0  0  0  0  0  0  0  0  0
   -1.3210   -1.7870   -2.3530 O   0  0  0  0  0  0  0  0  0  0  0  0
   -2.7560   -1.8160   -0.4150 C   0  0  1  0  0  0  0  0  0  0  0  0
   -3.3550   -0.5940    0.1810 C   0  0  0  0  0  0  0  0  0  0  0  0
   -4.6990   -0.2130   -0.3970 C   0  0  2  0  0  0  0  0  0  0  0  0
   -5.0750    1.1590    0.0380 C   0  0  0  0  0  0  0  0  0  0  0  0
   -5.9710    1.1540    1.2650 C   0  0  0  0  0  0  0  0  0  0  0  0
   -7.2690    0.4480    1.0700 C   0  0  1  0  0  0  0  0  0  0  0  0
   -7.6570   -0.3300    2.3040 C   0  0  0  0  0  0  0  0  0  0  0  0
   -7.8130    0.5000    3.5340 C   0  0  0  0  0  0  0  0  0  0  0  0
   -8.3890    1.3340    0.5590 C   0  0  0  0  0  0  0  0  0  0  0  0
   -7.9710    1.4850   -0.8770 C   0  0  0  0  0  0  0  0  0  0  0  0
   -8.0860    2.4400   -1.6560 O   0  0  0  0  0  0  0  0  0  0  0  0
   -7.3870    0.2640   -1.2020 O   0  0  0  0  0  0  0  0  0  0  0  0
   -7.1460   -0.5250   -0.0860 C   0  0  1  0  0  0  0  0  0  0  0  0
   -5.7900   -1.2010   -0.0850 C   0  0  0  0  0  0  0  0  0  0  0  0
   -4.4940   -0.2030   -1.9150 C   0  0  0  0  0  0  0  0  0  0  0  0
   -4.2660   -1.6170   -2.2780 C   0  0  0  0  0  0  0  0  0  0  0  0
   -4.6100   -2.0440   -3.3880 O   0  0  0  0  0  0  0  0  0  0  0  0
   -3.6550   -2.4150   -1.3160 O   0  0  0  0  0  0  0  0  0  0  0  0
    1.1770    1.2660   -0.9960 S   0  0  0  0  0  0  0  0  0  0  0  0
  1  2  1  0
  2  3  2  3
  3  4  1  0
  4  5  2  3
  5  6  1  0
  6  7  2  3
  6 11  1  0
  7  8  1  0
  8  9  1  0
  8 10  2  0
 11 12  1  0
 12 13  2  0
 12 17  1  0
 13 14  1  0
 14 15  2  0
 15 16  1  0
 16 17  2  0
 16 43  1  0
 17 18  1  0
 18 19  1  0
 19 20  2  0
 19 21  1  0
 21 22  1  1
 21 43  1  0
 22 23  1  0
 23 24  2  0
 25 23  1  6
 25 26  1  0
 25 42  1  0
 27 26  1  1
 27 28  1  0
 27 38  1  0
 27 39  1  0
 28 29  1  0
 29 30  1  0
 30 31  1  1
 30 33  1  0
 30 37  1  0
 31 32  1  0
 33 34  1  0
 34 35  2  0
 34 36  1  0
 36 37  1  0
 37 38  1  6
 39 40  1  0
 40 41  2  0
 40 42  1  0
M  END
