
     RDKit          3D

 43 44  0  0  0  0  0  0  0  0999 V2000
    2.0620   -1.3220   -2.2170 C   0  0  0  0  0  0  0  0  0  0  0  0
    2.1280   -0.8320   -0.7970 C   0  0  2  0  0  0  0  0  0  0  0  0
    2.1470   -2.1020    0.0730 C   0  0  0  0  0  0  0  0  0  0  0  0
    1.0100   -0.1130   -0.3950 O   0  0  0  0  0  0  0  0  0  0  0  0
    0.5110    1.0420   -0.9310 C   0  0  0  0  0  0  0  0  0  0  0  0
    1.1250    1.5340   -1.9180 O   0  0  0  0  0  0  0  0  0  0  0  0
   -0.7080    1.6820   -0.3620 C   0  0  1  0  0  0  0  0  0  0  0  0
   -1.8080    1.8370   -1.3710 C   0  0  0  0  0  0  0  0  0  0  0  0
   -3.0440    1.6210   -0.4870 C   0  0  1  0  0  0  0  0  0  0  0  0
   -4.1830    1.0660   -1.2410 C   0  0  0  0  0  0  0  0  0  0  0  0
   -3.9770    0.1300   -2.0450 O   0  0  0  0  0  0  0  0  0  0  0  0
   -5.4700    1.5390   -1.0950 O   0  0  0  0  0  0  0  0  0  0  0  0
   -5.9660    2.2640   -0.0160 C   0  0  1  0  0  0  0  0  0  0  0  0
   -6.2200    3.6630   -0.4380 C   0  0  0  0  0  0  0  0  0  0  0  0
   -5.9410    4.0230   -1.7820 N   0  0  0  0  0  0  0  0  0  0  0  0
   -6.6740    4.5330    0.3610 O   0  0  0  0  0  0  0  0  0  0  0  0
   -7.2180    1.6480    0.5780 C   0  0  0  0  0  0  0  0  0  0  0  0
   -6.8460    0.7400    1.5650 O   0  0  0  0  0  0  0  0  0  0  0  0
   -7.3910   -0.5210    1.3490 C   0  0  0  0  0  0  0  0  0  0  0  0
   -6.3080   -1.4210    0.8190 C   0  0  2  0  0  0  0  0  0  0  0  0
   -6.3590   -1.3820   -0.5730 O   0  0  0  0  0  0  0  0  0  0  0  0
   -6.5170   -2.8720    1.2530 C   0  0  0  0  0  0  0  0  0  0  0  0
   -6.4680   -2.9190    2.6350 O   0  0  0  0  0  0  0  0  0  0  0  0
   -4.9420   -1.0050    1.3330 C   0  0  0  0  0  0  0  0  0  0  0  0
   -4.0250   -1.2580    0.2850 O   0  0  0  0  0  0  0  0  0  0  0  0
   -2.7470   -0.7320    0.2360 C   0  0  0  0  0  0  0  0  0  0  0  0
   -1.7720   -1.4490   -0.0980 O   0  0  0  0  0  0  0  0  0  0  0  0
   -2.5080    0.6830    0.5760 C   0  0  1  0  0  0  0  0  0  0  0  0
   -1.1500    0.9250    0.6880 O   0  0  0  0  0  0  0  0  0  0  0  0
    3.4450   -0.1420   -0.5270 C   0  0  2  0  0  0  0  0  0  0  0  0
    3.5890    1.0710   -1.1530 O   0  0  0  0  0  0  0  0  0  0  0  0
    4.5760   -1.1090   -0.8140 C   0  0  0  0  0  0  0  0  0  0  0  0
    5.9020   -0.4860   -0.5670 C   0  0  0  0  0  0  0  0  0  0  0  0
    5.9170    0.6970   -0.1820 O   0  0  0  0  0  0  0  0  0  0  0  0
    7.0930   -1.1910   -0.7570 N   0  0  0  0  0  0  0  0  0  0  0  0
    8.3990   -0.7030   -0.5400 C   0  0  0  0  0  0  0  0  0  0  0  0
    8.6590   -0.3720    0.8960 C   0  0  2  0  0  0  0  0  0  0  0  0
    7.8380    0.6000    1.4720 O   0  0  0  0  0  0  0  0  0  0  0  0
    7.2170    0.3590    2.7060 C   0  0  0  0  0  0  0  0  0  0  0  0
    7.4240   -0.7480    3.2640 O   0  0  0  0  0  0  0  0  0  0  0  0
   10.0810    0.1790    0.9170 C   0  0  0  0  0  0  0  0  0  0  0  0
   11.1000   -0.6450    0.3750 N   0  0  0  0  0  0  0  0  0  0  0  0
   10.3390    1.2980    1.3870 O   0  0  0  0  0  0  0  0  0  0  0  0
  2  1  1  6
  2  3  1  0
  2  4  1  0
  2 30  1  0
  4  5  1  0
  5  6  2  0
  7  5  1  6
  7  8  1  0
  7 29  1  0
  9  8  1  6
  9 10  1  0
  9 28  1  0
 10 11  2  0
 10 12  1  0
 12 13  1  0
 13 14  1  6
 13 17  1  0
 14 15  1  0
 14 16  2  0
 17 18  1  0
 18 19  1  0
 19 20  1  0
 20 21  1  6
 20 22  1  0
 20 24  1  0
 22 23  1  0
 24 25  1  0
 25 26  1  0
 26 27  2  0
 26 28  1  0
 28 29  1  6
 30 31  1  6
 30 32  1  0
 32 33  1  0
 33 34  2  0
 33 35  1  0
 35 36  1  0
 37 36  1  6
 37 38  1  0
 37 41  1  0
 38 39  1  0
 39 40  2  0
 41 42  1  0
 41 43  2  0
M  END
