
     RDKit          3D

 43 44  0  0  0  0  0  0  0  0999 V2000
   -3.6600   -6.0260   -0.2580 C   0  0  0  0  0  0  0  0  0  0  0  0
   -2.7610   -5.1780   -1.1290 C   0  0  1  0  0  0  0  0  0  0  0  0
   -2.8650   -5.6280   -2.4520 O   0  0  0  0  0  0  0  0  0  0  0  0
   -3.2090   -3.7340   -1.0270 C   0  0  1  0  0  0  0  0  0  0  0  0
   -3.0810   -3.3310    0.3410 N   0  0  0  0  0  0  0  0  0  0  0  0
   -2.2970   -2.2030    0.3550 N   0  0  0  0  0  0  0  0  0  0  0  0
   -1.8260   -1.8880   -0.8030 C   0  0  0  0  0  0  0  0  0  0  0  0
   -0.9660   -0.7690   -1.1620 C   0  0  0  0  0  0  0  0  0  0  0  0
   -0.5840   -0.5860   -2.3410 O   0  0  0  0  0  0  0  0  0  0  0  0
   -0.5640    0.1120   -0.1860 O   0  0  0  0  0  0  0  0  0  0  0  0
    0.2710    1.2540   -0.3900 C   0  0  1  0  0  0  0  0  0  0  0  0
   -0.6490    2.4030   -0.4370 C   0  0  1  0  0  0  0  0  0  0  0  0
   -1.6460    2.1770   -1.6700 C   0  0  0  0  0  0  0  0  0  0  0  0
   -2.4980    3.3890   -1.3820 C   0  0  0  0  0  0  0  0  0  0  0  0
   -2.9820    4.1590   -2.2260 O   0  0  0  0  0  0  0  0  0  0  0  0
   -2.6370    3.4740    0.0540 N   0  0  0  0  0  0  0  0  0  0  0  0
   -3.5010    4.3500    0.8140 C   0  0  2  0  0  0  0  0  0  0  0  0
   -4.9570    4.0980    0.5000 C   0  0  0  0  0  0  0  0  0  0  0  0
   -5.2010    4.3180   -0.8450 O   0  0  0  0  0  0  0  0  0  0  0  0
   -3.2150    5.7820    0.5170 C   0  0  0  0  0  0  0  0  0  0  0  0
   -2.3090    6.0380   -0.3100 O   0  0  0  0  0  0  0  0  0  0  0  0
   -3.8900    6.8180    1.1010 O   0  0  0  0  0  0  0  0  0  0  0  0
   -3.6520    8.1050    0.8520 O   0  0  0  0  0  0  0  0  0  0  0  0
   -1.7230    2.4810    0.5700 C   0  0  0  0  0  0  0  0  0  0  0  0
   -1.8950    1.8850    1.6310 O   0  0  0  0  0  0  0  0  0  0  0  0
    1.5140    1.2450    0.3650 C   0  0  1  0  0  0  0  0  0  0  0  0
    1.1750    1.1250    1.8650 C   0  0  0  0  0  0  0  0  0  0  0  0
    0.4770   -0.0580    2.0240 O   0  0  0  0  0  0  0  0  0  0  0  0
    2.5430    0.2080    0.0590 C   0  0  1  0  0  0  0  0  0  0  0  0
    3.6260    0.4120    0.9140 O   0  0  0  0  0  0  0  0  0  0  0  0
    2.2400   -1.2010   -0.0260 C   0  0  0  0  0  0  0  0  0  0  0  0
    3.4610   -2.0380   -0.3510 C   0  0  2  0  0  0  0  0  0  0  0  0
    4.0190   -1.5260   -1.6940 C   0  0  0  0  0  0  0  0  0  0  0  0
    3.0020   -3.4700   -0.6830 C   0  0  0  0  0  0  0  0  0  0  0  0
    4.0670   -4.2770   -0.9820 O   0  0  0  0  0  0  0  0  0  0  0  0
    4.5260   -2.1490    0.6460 C   0  0  0  0  0  0  0  0  0  0  0  0
    4.1470   -2.7370    1.9550 C   0  0  0  0  0  0  0  0  0  0  0  0
    2.9970   -3.1200    2.2710 O   0  0  0  0  0  0  0  0  0  0  0  0
    5.1210   -2.8980    2.9530 O   0  0  0  0  0  0  0  0  0  0  0  0
    2.3430    2.5600    0.2430 C   0  0  1  0  0  0  0  0  0  0  0  0
    1.6870    3.7790    0.7740 C   0  0  0  0  0  0  0  0  0  0  0  0
    3.5760    2.4290    0.8910 O   0  0  0  0  0  0  0  0  0  0  0  0
   -2.3160   -2.8660   -1.6890 O   0  0  0  0  0  0  0  0  0  0  0  0
  2  1  1  1
  2  3  1  0
  2  4  1  0
  4  5  1  1
  4 43  1  0
  5  6  1  0
  6  7  2  0
  7  8  1  0
  7 43  1  0
  8  9  2  0
  8 10  1  0
 11 10  1  1
 11 12  1  0
 11 26  1  0
 12 13  1  6
 12 24  1  0
 13 14  1  0
 14 15  2  0
 14 16  1  0
 16 17  1  0
 16 24  1  0
 17 18  1  6
 17 20  1  0
 18 19  1  0
 20 21  2  0
 20 22  1  0
 22 23  1  0
 24 25  2  0
 26 27  1  1
 26 29  1  0
 26 40  1  0
 27 28  1  0
 29 30  1  1
 29 31  1  0
 31 32  1  0
 32 33  1  6
 32 34  1  0
 32 36  1  0
 34 35  1  0
 36 37  1  0
 37 38  2  0
 37 39  1  0
 40 41  1  1
 40 42  1  0
M  CHG  1  23  -1
M  END
