
     RDKit          3D

 43 47  0  0  0  0  0  0  0  0999 V2000
   11.0220    0.1130    2.2270 C   0  0  0  0  0  0  0  0  0  0  0  0
   10.4800   -0.1230    0.9690 O   0  0  0  0  0  0  0  0  0  0  0  0
    9.0940   -0.3160    1.0360 C   0  0  2  0  0  0  0  0  0  0  0  0
    8.7970   -1.6960    0.5580 C   0  0  0  0  0  0  0  0  0  0  0  0
    8.3550   -1.7910   -0.8650 C   0  0  0  0  0  0  0  0  0  0  0  0
    7.0800   -1.0920   -1.1850 C   0  0  0  0  0  0  0  0  0  0  0  0
    6.3440   -0.5610    0.0230 C   0  0  2  0  0  0  0  0  0  0  0  0
    4.9970   -0.3220   -0.4170 O   0  0  0  0  0  0  0  0  0  0  0  0
    3.9150   -0.9280    0.1580 C   0  0  0  0  0  0  0  0  0  0  0  0
    4.1020   -1.7250    1.1070 O   0  0  0  0  0  0  0  0  0  0  0  0
    2.5690   -0.6750   -0.2990 C   0  0  0  0  0  0  0  0  0  0  0  0
    1.5180   -1.3120    0.3120 C   0  0  0  0  0  0  0  0  0  0  0  0
    0.2450   -1.0470   -0.1510 C   0  0  0  0  0  0  0  0  0  0  0  0
    0.0190   -0.1720   -1.1920 C   0  0  0  0  0  0  0  0  0  0  0  0
    1.0790    0.4580   -1.7950 C   0  0  0  0  0  0  0  0  0  0  0  0
    2.3780    0.2010   -1.3400 C   0  0  0  0  0  0  0  0  0  0  0  0
    0.8070    1.3220   -2.8350 O   0  0  0  0  0  0  0  0  0  0  0  0
   -0.4700    1.5820   -3.3520 C   0  0  0  0  0  0  0  0  0  0  0  0
   -1.3590    0.3860   -3.1200 C   0  0  1  0  0  0  0  0  0  0  0  0
   -0.8140   -0.8030   -3.8520 C   0  0  0  0  0  0  0  0  0  0  0  0
   -1.2760    0.1320   -1.6640 N   0  0  0  0  0  0  0  0  0  0  0  0
   -2.3850    0.2440   -0.8300 C   0  0  0  0  0  0  0  0  0  0  0  0
   -3.4970    0.4110   -1.4190 O   0  0  0  0  0  0  0  0  0  0  0  0
   -2.3860    0.1990    0.6120 C   0  0  0  0  0  0  0  0  0  0  0  0
   -3.4570    0.9670    1.3390 C   0  0  1  0  0  0  0  0  0  0  0  0
   -3.5050    2.4220    1.1300 C   0  0  0  0  0  0  0  0  0  0  0  0
   -3.8170    3.0390   -0.5090 S   0  0  0  0  0  0  0  0  0  0  0  0
   -5.5070    2.8030   -1.0540 C   0  0  0  0  0  0  0  0  0  0  0  0
   -4.7700    0.2620    1.1090 C   0  0  0  0  0  0  0  0  0  0  0  0
   -4.8240   -0.7910    0.4400 O   0  0  0  0  0  0  0  0  0  0  0  0
   -5.9690    0.7880    1.6560 N   0  0  0  0  0  0  0  0  0  0  0  0
   -7.2560    0.2490    1.5290 C   0  0  0  0  0  0  0  0  0  0  0  0
   -8.2780    0.8880    2.2500 C   0  0  0  0  0  0  0  0  0  0  0  0
   -9.5870    0.4730    2.2180 C   0  0  0  0  0  0  0  0  0  0  0  0
   -9.9310   -0.6110    1.4550 C   0  0  0  0  0  0  0  0  0  0  0  0
   -8.9510   -1.2370    0.7540 C   0  0  0  0  0  0  0  0  0  0  0  0
   -7.6310   -0.8330    0.7750 C   0  0  0  0  0  0  0  0  0  0  0  0
   -9.5690   -2.3680    0.0160 C   0  0  0  0  0  0  0  0  0  0  0  0
  -10.8340   -2.5290    0.5660 O   0  0  0  0  0  0  0  0  0  0  0  0
  -11.1910   -1.3450    1.1660 C   0  0  0  0  0  0  0  0  0  0  0  0
    6.9380    0.7680    0.3660 C   0  0  1  0  0  0  0  0  0  0  0  0
    6.5270    1.2230    1.6280 O   0  0  0  0  0  0  0  0  0  0  0  0
    8.4470    0.7780    0.2530 C   0  0  0  0  0  0  0  0  0  0  0  0
  1  2  1  0
  3  2  1  6
  3  4  1  0
  3 43  1  0
  4  5  1  0
  5  6  1  0
  6  7  1  0
  7  8  1  6
  7 41  1  0
  8  9  1  0
  9 10  2  0
  9 11  1  0
 11 12  2  0
 11 16  1  0
 12 13  1  0
 13 14  2  0
 14 15  1  0
 14 21  1  0
 15 16  2  0
 15 17  1  0
 17 18  1  0
 18 19  1  0
 19 20  1  6
 19 21  1  0
 21 22  1  0
 22 23  2  0
 22 24  1  0
 25 24  1  6
 25 26  1  0
 25 29  1  0
 26 27  1  0
 27 28  1  0
 29 30  2  0
 29 31  1  0
 31 32  1  0
 32 33  2  0
 32 37  1  0
 33 34  1  0
 34 35  2  0
 35 36  1  0
 35 40  1  0
 36 37  2  0
 36 38  1  0
 38 39  1  0
 39 40  1  0
 41 42  1  1
 41 43  1  0
M  END
