
     RDKit          3D

 37 41  0  0  0  0  0  0  0  0999 V2000
   -5.6240    3.8220   -1.0850 C   0  0  0  0  0  0  0  0  0  0  0  0
   -4.4050    3.0010   -1.1590 C   0  0  0  0  0  0  0  0  0  0  0  0
   -3.9920    2.5960   -2.2520 O   0  0  0  0  0  0  0  0  0  0  0  0
   -3.6680    2.6380   -0.0950 O   0  0  0  0  0  0  0  0  0  0  0  0
   -2.5070    1.8760   -0.0000 C   0  0  2  0  0  0  0  0  0  0  0  0
   -2.6100    0.5290    0.5090 C   0  0  1  0  0  0  0  0  0  0  0  0
   -1.2940   -0.1970    0.5100 C   0  0  0  0  0  0  0  0  0  0  0  0
   -0.2170    0.4570    0.2350 C   0  0  0  0  0  0  0  0  0  0  0  0
    1.0650   -0.2280    0.2460 C   0  0  0  0  0  0  0  0  0  0  0  0
    1.2000   -1.1060    1.1260 O   0  0  0  0  0  0  0  0  0  0  0  0
    2.1080    0.1450   -0.7530 C   0  0  2  0  0  0  0  0  0  0  0  0
    3.3640   -0.5850   -0.3260 C   0  0  0  0  0  0  0  0  0  0  0  0
    4.4600   -0.2530   -1.3130 C   0  0  0  0  0  0  0  0  0  0  0  0
    5.7310   -0.9580   -0.9370 C   0  0  0  0  0  0  0  0  0  0  0  0
    5.8220   -2.1530   -1.2780 O   0  0  0  0  0  0  0  0  0  0  0  0
    6.6810   -0.2540   -0.2570 O   0  0  0  0  0  0  0  0  0  0  0  0
    7.8930   -0.7620    0.1430 C   0  0  0  0  0  0  0  0  0  0  0  0
    8.7750   -1.1190   -1.0110 C   0  0  0  0  0  0  0  0  0  0  0  0
    8.2410   -2.0630   -1.8330 O   0  0  0  0  0  0  0  0  0  0  0  0
    2.2680    1.6410   -0.7680 C   0  0  0  0  0  0  0  0  0  0  0  0
    1.2710    2.2890    0.2130 C   0  0  0  0  0  0  0  0  0  0  0  0
   -0.1090    1.9110   -0.1850 C   0  0  2  0  0  0  0  0  0  0  0  0
   -1.2630    2.7140    0.2030 C   0  0  1  0  0  0  0  0  0  0  0  0
   -1.3790    3.7650   -0.9580 C   0  0  0  0  0  0  0  0  0  0  0  0
   -1.2180    3.5830    1.3880 C   0  0  0  0  0  0  0  0  0  0  0  0
   -0.0450    4.3410    1.5060 O   0  0  0  0  0  0  0  0  0  0  0  0
   -1.6920   -1.5560    0.7930 C   0  0  2  0  0  0  0  0  0  0  0  0
   -0.9440   -2.7210    1.1480 C   0  0  0  0  0  0  0  0  0  0  0  0
   -1.9360   -3.9210    1.1740 C   0  0  0  0  0  0  0  0  0  0  0  0
   -2.4280   -4.2450   -0.1920 C   0  0  1  0  0  0  0  0  0  0  0  0
   -3.9250   -3.8970   -0.1870 C   0  0  0  0  0  0  0  0  0  0  0  0
   -3.8600   -2.3650   -0.2180 C   0  0  0  0  0  0  0  0  0  0  0  0
   -2.4890   -1.9380   -0.4460 C   0  0  2  0  0  0  0  0  0  0  0  0
   -1.9260   -3.2060   -1.1230 C   0  0  0  0  0  0  0  0  0  0  0  0
   -2.5630   -1.2480    1.9960 C   0  0  0  0  0  0  0  0  0  0  0  0
   -3.0810    0.1650    1.8410 C   0  0  1  0  0  0  0  0  0  0  0  0
   -2.7320    0.9660    2.9040 O   0  0  0  0  0  0  0  0  0  0  0  0
  1  2  1  0
  2  3  2  0
  2  4  1  0
  5  4  1  1
  5  6  1  0
  5 23  1  0
  6  7  1  1
  6 36  1  0
  7  8  2  0
  7 27  1  0
  8  9  1  0
  8 22  1  0
  9 10  2  0
  9 11  1  0
 11 12  1  1
 11 20  1  0
 12 13  1  0
 13 14  1  0
 14 15  2  0
 14 16  1  0
 16 17  1  0
 17 18  1  0
 18 19  1  0
 20 21  1  0
 22 21  1  1
 22 23  1  0
 23 24  1  6
 23 25  1  0
 25 26  1  0
 27 28  1  1
 27 33  1  0
 27 35  1  0
 28 29  1  0
 30 29  1  1
 30 31  1  0
 30 34  1  0
 31 32  1  0
 33 32  1  1
 33 34  1  0
 35 36  1  0
 36 37  1  1
M  END
