
     RDKit          3D

 37 41  0  0  0  0  0  0  0  0999 V2000
    5.1090    3.1330   -0.6290 C   0  0  0  0  0  0  0  0  0  0  0  0
    4.7710    1.6420   -0.5010 C   0  0  2  0  0  0  0  0  0  0  0  0
    5.4370    0.9320   -1.6230 C   0  0  0  0  0  0  0  0  0  0  0  0
    3.2730    1.5410   -0.5000 C   0  0  0  0  0  0  0  0  0  0  0  0
    3.0710    0.2470    0.3090 C   0  0  1  0  0  0  0  0  0  0  0  0
    1.7790    0.3690    1.0040 C   0  0  0  0  0  0  0  0  0  0  0  0
    0.7550   -0.7010    0.5730 C   0  0  1  0  0  0  0  0  0  0  0  0
   -0.5870   -0.4650    1.1230 C   0  0  1  0  0  0  0  0  0  0  0  0
   -0.5290    0.7250    1.8220 O   0  0  0  0  0  0  0  0  0  0  0  0
   -1.5620    0.7980    2.7100 C   0  0  0  0  0  0  0  0  0  0  0  0
   -2.8110    0.7970    1.9270 C   0  0  0  0  0  0  0  0  0  0  0  0
   -2.6130    0.6500    0.4000 C   0  0  1  0  0  0  0  0  0  0  0  0
   -3.9330    0.5400   -0.0160 O   0  0  0  0  0  0  0  0  0  0  0  0
   -1.9950    1.9020   -0.1080 C   0  0  0  0  0  0  0  0  0  0  0  0
   -2.6710    3.2030    0.1320 C   0  0  1  0  0  0  0  0  0  0  0  0
   -1.7810    4.1530   -0.5000 O   0  0  0  0  0  0  0  0  0  0  0  0
   -3.9570    3.5000   -0.5150 C   0  0  0  0  0  0  0  0  0  0  0  0
   -5.0800    2.8470   -0.1460 O   0  0  0  0  0  0  0  0  0  0  0  0
   -1.7980   -0.6190    0.1950 C   0  0  2  0  0  0  0  0  0  0  0  0
   -2.5120   -1.7840    0.8600 C   0  0  0  0  0  0  0  0  0  0  0  0
   -3.7210   -2.3840    0.3880 C   0  0  2  0  0  0  0  0  0  0  0  0
   -4.8880   -1.6620    0.2880 O   0  0  0  0  0  0  0  0  0  0  0  0
   -4.1170   -3.5080    1.4010 C   0  0  0  0  0  0  0  0  0  0  0  0
   -4.4870   -2.8420    2.5680 O   0  0  0  0  0  0  0  0  0  0  0  0
   -1.5240   -1.0720   -1.1610 C   0  0  1  0  0  0  0  0  0  0  0  0
   -1.6230   -0.2380   -2.3640 C   0  0  0  0  0  0  0  0  0  0  0  0
   -1.3350   -1.3480   -3.4390 C   0  0  0  0  0  0  0  0  0  0  0  0
    0.0230   -1.7470   -2.9290 C   0  0  0  0  0  0  0  0  0  0  0  0
   -0.1390   -1.6990   -1.4020 C   0  0  2  0  0  0  0  0  0  0  0  0
   -0.0120   -3.1010   -0.9480 C   0  0  0  0  0  0  0  0  0  0  0  0
    0.8900   -0.7620   -0.9000 C   0  0  2  0  0  0  0  0  0  0  0  0
    2.2690   -1.3820   -1.1610 C   0  0  0  0  0  0  0  0  0  0  0  0
    3.2790   -0.7740   -0.5320 O   0  0  0  0  0  0  0  0  0  0  0  0
    4.2670    0.3230    1.2410 C   0  0  1  0  0  0  0  0  0  0  0  0
    3.8780    0.6990    2.6460 C   0  0  0  0  0  0  0  0  0  0  0  0
    4.9690   -1.0210    1.3130 C   0  0  0  0  0  0  0  0  0  0  0  0
    5.1370    1.2480    0.7510 O   0  0  0  0  0  0  0  0  0  0  0  0
  2  1  1  1
  2  3  1  0
  2  4  1  0
  2 37  1  0
  5  4  1  6
  5  6  1  0
  5 33  1  0
  5 34  1  0
  7  6  1  6
  7  8  1  0
  7 31  1  0
  8  9  1  6
  8 19  1  0
  9 10  1  0
 10 11  1  0
 11 12  1  0
 12 13  1  6
 12 14  1  0
 12 19  1  0
 14 15  1  0
 15 16  1  6
 15 17  1  0
 17 18  1  0
 19 20  1  1
 19 25  1  0
 20 21  1  0
 21 22  1  1
 21 23  1  0
 23 24  1  0
 25 26  1  6
 25 29  1  0
 26 27  1  0
 27 28  1  0
 28 29  1  0
 29 30  1  1
 29 31  1  0
 31 32  1  1
 32 33  1  0
 34 35  1  1
 34 36  1  0
 34 37  1  0
M  END
