
     RDKit          3D

 36 40  0  0  0  0  0  0  0  0999 V2000
   -5.4870   -2.3410   -1.9480 C   0  0  0  0  0  0  0  0  0  0  0  0
   -5.0100   -1.4500   -0.7790 C   0  0  2  0  0  0  0  0  0  0  0  0
   -5.3900   -2.2210    0.4760 C   0  0  0  0  0  0  0  0  0  0  0  0
   -5.8390   -0.1930   -0.9070 C   0  0  0  0  0  0  0  0  0  0  0  0
   -4.9530    1.0390   -1.0480 C   0  0  1  0  0  0  0  0  0  0  0  0
   -5.8060    2.2230   -1.1190 C   0  0  0  0  0  0  0  0  0  0  0  0
   -5.5650    3.2590   -0.2710 O   0  0  0  0  0  0  0  0  0  0  0  0
   -4.9820    2.8990    0.9280 C   0  0  0  0  0  0  0  0  0  0  0  0
   -3.6030    2.3060    0.5040 C   0  0  1  0  0  0  0  0  0  0  0  0
   -3.0810    3.2970   -0.4800 C   0  0  0  0  0  0  0  0  0  0  0  0
   -2.8050    2.4570    1.7780 C   0  0  0  0  0  0  0  0  0  0  0  0
   -3.9440    0.9640    0.0760 C   0  0  1  0  0  0  0  0  0  0  0  0
   -4.6550    0.3980    1.1680 O   0  0  0  0  0  0  0  0  0  0  0  0
   -2.9230   -0.0290   -0.3140 C   0  0  1  0  0  0  0  0  0  0  0  0
   -1.9020    0.4720   -1.3200 C   0  0  0  0  0  0  0  0  0  0  0  0
   -0.5850    0.5990   -0.6310 C   0  0  0  0  0  0  0  0  0  0  0  0
   -0.6340   -0.5790    0.2960 C   0  0  1  0  0  0  0  0  0  0  0  0
    0.3830   -0.5270    1.3900 C   0  0  0  0  0  0  0  0  0  0  0  0
    1.6620   -0.4910    0.7930 O   0  0  0  0  0  0  0  0  0  0  0  0
    2.7960   -0.4390    1.5740 C   0  0  0  0  0  0  0  0  0  0  0  0
    2.6680   -0.4250    2.8180 O   0  0  0  0  0  0  0  0  0  0  0  0
    4.1750   -0.4000    0.9710 C   0  0  1  0  0  0  0  0  0  0  0  0
    5.1510   -0.3450    2.1390 C   0  0  0  0  0  0  0  0  0  0  0  0
    5.8570   -1.6760    2.0560 C   0  0  1  0  0  0  0  0  0  0  0  0
    4.6700   -2.5520    1.6220 C   0  0  0  0  0  0  0  0  0  0  0  0
    4.3940   -1.7300    0.3240 C   0  0  2  0  0  0  0  0  0  0  0  0
    5.7200   -1.9410   -0.3150 C   0  0  1  0  0  0  0  0  0  0  0  0
    5.9970   -1.3500   -1.6180 C   0  0  0  0  0  0  0  0  0  0  0  0
    5.9290    0.1170   -1.8010 C   0  0  0  0  0  0  0  0  0  0  0  0
    6.8070    0.8180   -0.9630 O   0  0  0  0  0  0  0  0  0  0  0  0
    6.6950    2.1980   -1.1850 C   0  0  0  0  0  0  0  0  0  0  0  0
    7.0050    2.5180   -2.5080 O   0  0  0  0  0  0  0  0  0  0  0  0
    6.6820   -1.6590    0.8080 C   0  0  2  0  0  0  0  0  0  0  0  0
    7.6210   -2.7110    0.9290 O   0  0  0  0  0  0  0  0  0  0  0  0
   -2.0590   -0.5380    0.8000 C   0  0  0  0  0  0  0  0  0  0  0  0
   -3.5620   -1.2470   -0.9580 C   0  0  0  0  0  0  0  0  0  0  0  0
  2  1  1  6
  2  3  1  0
  2  4  1  0
  2 36  1  0
  5  4  1  1
  5  6  1  0
  5 12  1  0
  6  7  1  0
  7  8  1  0
  8  9  1  0
  9 10  1  6
  9 11  1  0
  9 12  1  0
 12 13  1  1
 12 14  1  0
 14 15  1  6
 14 35  1  0
 14 36  1  0
 15 16  1  0
 16 17  1  0
 17 18  1  1
 17 35  1  0
 18 19  1  0
 19 20  1  0
 20 21  2  0
 22 20  1  1
 22 23  1  0
 22 26  1  0
 24 23  1  6
 24 25  1  0
 24 33  1  0
 26 25  1  1
 26 27  1  0
 27 28  1  6
 27 33  1  0
 28 29  1  0
 29 30  1  0
 30 31  1  0
 31 32  1  0
 33 34  1  1
M  END
