
     RDKit          3D

 36 40  0  0  0  0  0  0  0  0999 V2000
    8.4520    1.4240    0.3960 C   0  0  0  0  0  0  0  0  0  0  0  0
    8.0050    0.1310   -0.2880 C   0  0  1  0  0  0  0  0  0  0  0  0
    9.0820   -0.2110   -1.2970 C   0  0  0  0  0  0  0  0  0  0  0  0
    7.8880   -0.9280    0.7540 C   0  0  0  0  0  0  0  0  0  0  0  0
    7.0080   -2.0520    0.3770 C   0  0  0  0  0  0  0  0  0  0  0  0
    7.4040   -3.1290    0.8490 O   0  0  0  0  0  0  0  0  0  0  0  0
    5.7840   -2.1970   -0.4190 C   0  0  0  0  0  0  0  0  0  0  0  0
    4.8670   -1.0320   -0.3880 C   0  0  1  0  0  0  0  0  0  0  0  0
    3.7270   -1.1680    0.6010 C   0  0  0  0  0  0  0  0  0  0  0  0
    2.6810   -0.1370    0.1660 C   0  0  2  0  0  0  0  0  0  0  0  0
    3.2510    1.2640    0.2300 C   0  0  0  0  0  0  0  0  0  0  0  0
    4.5720    1.3800   -0.4880 C   0  0  0  0  0  0  0  0  0  0  0  0
    5.5300    0.2880   -0.1300 C   0  0  2  0  0  0  0  0  0  0  0  0
    6.7290    0.3880   -1.0460 C   0  0  0  0  0  0  0  0  0  0  0  0
    1.4660   -0.1610    1.0650 C   0  0  0  0  0  0  0  0  0  0  0  0
    0.3470   -0.2040    0.0190 C   0  0  2  0  0  0  0  0  0  0  0  0
   -0.8170   -0.7270    0.5090 O   0  0  0  0  0  0  0  0  0  0  0  0
   -1.8770    0.1220    0.3280 C   0  0  2  0  0  0  0  0  0  0  0  0
   -2.6100    0.4870    1.5960 C   0  0  0  0  0  0  0  0  0  0  0  0
   -4.0170   -0.0070    1.6240 C   0  0  0  0  0  0  0  0  0  0  0  0
   -4.8740    0.5890    0.4920 C   0  0  2  0  0  0  0  0  0  0  0  0
   -5.1370    2.0190    0.9260 C   0  0  0  0  0  0  0  0  0  0  0  0
   -6.0380    2.7790    0.0060 C   0  0  0  0  0  0  0  0  0  0  0  0
   -7.2460    1.9530   -0.4100 C   0  0  0  0  0  0  0  0  0  0  0  0
   -7.3280    0.8310    0.6270 C   0  0  0  0  0  0  0  0  0  0  0  0
   -6.2080   -0.1380    0.4750 C   0  0  2  0  0  0  0  0  0  0  0  0
   -6.1820   -0.9570    1.6340 O   0  0  0  0  0  0  0  0  0  0  0  0
   -6.3870   -1.0420   -0.6720 C   0  0  0  0  0  0  0  0  0  0  0  0
   -7.3620   -1.9430   -0.5900 O   0  0  0  0  0  0  0  0  0  0  0  0
   -8.6500   -1.8040   -0.4150 C   0  0  0  0  0  0  0  0  0  0  0  0
   -9.3750   -1.0480   -1.3360 O   0  0  0  0  0  0  0  0  0  0  0  0
   -4.0450    0.5720   -0.7130 C   0  0  2  0  0  0  0  0  0  0  0  0
   -4.6390    0.5710   -1.9410 O   0  0  0  0  0  0  0  0  0  0  0  0
   -2.9170   -0.4670   -0.6180 C   0  0  0  0  0  0  0  0  0  0  0  0
    1.0270   -1.0580   -1.0320 C   0  0  0  0  0  0  0  0  0  0  0  0
    2.2790   -0.4680   -1.1010 O   0  0  0  0  0  0  0  0  0  0  0  0
  2  1  1  1
  2  3  1  0
  2  4  1  0
  2 14  1  0
  4  5  1  0
  5  6  2  0
  5  7  1  0
  8  7  1  1
  8  9  1  0
  8 13  1  0
 10  9  1  1
 10 11  1  0
 10 15  1  0
 10 36  1  0
 11 12  1  0
 13 12  1  6
 13 14  1  0
 15 16  1  0
 16 17  1  1
 16 35  1  0
 18 17  1  1
 18 19  1  0
 18 34  1  0
 19 20  1  0
 21 20  1  1
 21 22  1  0
 21 26  1  0
 21 32  1  0
 22 23  1  0
 23 24  1  0
 24 25  1  0
 25 26  1  0
 26 27  1  1
 26 28  1  0
 28 29  1  0
 29 30  1  0
 30 31  1  0
 32 33  1  6
 32 34  1  0
 35 36  1  0
M  END
