
     RDKit          3D

 37 40  0  0  0  0  0  0  0  0999 V2000
    6.7540    2.8870   -0.3420 C   0  0  0  0  0  0  0  0  0  0  0  0
    6.8540    1.7530   -1.2160 N   0  0  0  0  0  0  0  0  0  0  0  0
    6.8450    1.9600   -2.6500 C   0  0  0  0  0  0  0  0  0  0  0  0
    6.9640    0.4430   -0.6860 C   0  0  0  0  0  0  0  0  0  0  0  0
    8.1990   -0.1230   -0.4460 C   0  0  0  0  0  0  0  0  0  0  0  0
    8.3370   -1.3870    0.0690 C   0  0  0  0  0  0  0  0  0  0  0  0
    7.2000   -2.1530    0.3730 C   0  0  0  0  0  0  0  0  0  0  0  0
    7.4280   -3.3990    0.8850 O   0  0  0  0  0  0  0  0  0  0  0  0
    5.9350   -1.6160    0.1460 C   0  0  0  0  0  0  0  0  0  0  0  0
    4.7490   -2.4100    0.3840 C   0  0  0  0  0  0  0  0  0  0  0  0
    4.7880   -3.6800    0.4760 O   0  0  0  0  0  0  0  0  0  0  0  0
    3.4510   -1.7940    0.5330 C   0  0  0  0  0  0  0  0  0  0  0  0
    3.2960   -0.5480    1.0820 C   0  0  0  0  0  0  0  0  0  0  0  0
    2.0120    0.0060    1.1580 C   0  0  0  0  0  0  0  0  0  0  0  0
    0.9320   -0.7150    0.6800 C   0  0  0  0  0  0  0  0  0  0  0  0
   -0.3870   -0.0940    0.7770 C   0  0  0  0  0  0  0  0  0  0  0  0
   -0.4270    1.1630    0.8840 O   0  0  0  0  0  0  0  0  0  0  0  0
   -1.5850   -0.8570    0.7560 N   0  0  0  0  0  0  0  0  0  0  0  0
   -2.8550   -0.1780    0.8550 C   0  0  2  0  0  0  0  0  0  0  0  0
   -3.4600   -0.4320    2.1850 C   0  0  0  0  0  0  0  0  0  0  0  0
   -4.5320   -1.4320    2.3090 C   0  0  0  0  0  0  0  0  0  0  0  0
   -4.4350   -2.6520    1.4610 C   0  0  0  0  0  0  0  0  0  0  0  0
   -5.0870   -2.3550    0.2010 N   0  0  0  0  0  0  0  0  0  0  0  0
   -4.1210   -1.7620   -0.6610 C   0  0  0  0  0  0  0  0  0  0  0  0
   -3.7240   -0.3580   -0.3380 C   0  0  1  0  0  0  0  0  0  0  0  0
   -4.8010    0.5870   -0.3000 N   0  0  0  0  0  0  0  0  0  0  0  0
   -4.9780    1.6220   -1.2520 C   0  0  0  0  0  0  0  0  0  0  0  0
   -4.1310    1.7050   -2.1850 O   0  0  0  0  0  0  0  0  0  0  0  0
   -6.0820    2.5420   -1.1620 C   0  0  0  0  0  0  0  0  0  0  0  0
   -6.3730    3.3430   -2.2510 C   0  0  0  0  0  0  0  0  0  0  0  0
   -7.4390    4.2300   -2.1550 C   0  0  0  0  0  0  0  0  0  0  0  0
   -8.1920    4.3340   -1.0440 N   0  0  0  0  0  0  0  0  0  0  0  0
   -7.9190    3.5670    0.0110 C   0  0  0  0  0  0  0  0  0  0  0  0
   -6.8700    2.6800   -0.0560 C   0  0  0  0  0  0  0  0  0  0  0  0
    1.1020   -1.9710    0.1300 C   0  0  0  0  0  0  0  0  0  0  0  0
    2.3600   -2.5210    0.0520 C   0  0  0  0  0  0  0  0  0  0  0  0
    5.8620   -0.3250   -0.3820 C   0  0  0  0  0  0  0  0  0  0  0  0
  1  2  1  0
  2  3  1  0
  2  4  1  0
  4  5  2  0
  4 37  1  0
  5  6  1  0
  6  7  2  0
  7  8  1  0
  7  9  1  0
  9 10  1  0
  9 37  2  0
 10 11  2  0
 10 12  1  0
 12 13  2  0
 12 36  1  0
 13 14  1  0
 14 15  2  0
 15 16  1  0
 15 35  1  0
 16 17  2  0
 16 18  1  0
 19 18  1  6
 19 20  1  0
 19 25  1  0
 20 21  1  0
 21 22  1  0
 22 23  1  0
 23 24  1  0
 24 25  1  0
 25 26  1  1
 26 27  1  0
 27 28  2  0
 27 29  1  0
 29 30  2  0
 29 34  1  0
 30 31  1  0
 31 32  2  0
 32 33  1  0
 33 34  2  0
 35 36  2  0
M  CHG  1  23   1
M  END
