
     RDKit          3D

 36 40  0  0  0  0  0  0  0  0999 V2000
   -1.8970    5.1740    2.1220 C   0  0  0  0  0  0  0  0  0  0  0  0
   -1.8360    4.0010    2.8420 O   0  0  0  0  0  0  0  0  0  0  0  0
   -1.0400    3.0340    2.2900 C   0  0  0  0  0  0  0  0  0  0  0  0
   -1.5090    2.6200    0.9360 C   0  0  2  0  0  0  0  0  0  0  0  0
   -2.8860    2.0720    0.9010 C   0  0  0  0  0  0  0  0  0  0  0  0
   -3.0310    1.4560   -0.4520 C   0  0  0  0  0  0  0  0  0  0  0  0
   -2.4010    0.0470   -0.5610 C   0  0  1  0  0  0  0  0  0  0  0  0
   -3.4430   -0.8000    0.0060 C   0  0  2  0  0  0  0  0  0  0  0  0
   -3.4790   -2.1580    0.3970 C   0  0  2  0  0  0  0  0  0  0  0  0
   -2.6780   -2.6520    1.5810 C   0  0  0  0  0  0  0  0  0  0  0  0
   -3.3590   -4.0310    1.7740 C   0  0  0  0  0  0  0  0  0  0  0  0
   -3.6820   -4.4590    0.3630 C   0  0  0  0  0  0  0  0  0  0  0  0
   -3.2210   -3.2900   -0.5250 C   0  0  0  0  0  0  0  0  0  0  0  0
   -4.6750   -0.4470   -0.6120 O   0  0  0  0  0  0  0  0  0  0  0  0
   -4.6980   -0.4980   -1.9650 C   0  0  0  0  0  0  0  0  0  0  0  0
   -3.6290    0.3590   -2.6230 C   0  0  0  0  0  0  0  0  0  0  0  0
   -2.2400   -0.0230   -2.0540 C   0  0  2  0  0  0  0  0  0  0  0  0
   -1.8030   -1.1580   -2.7900 C   0  0  0  0  0  0  0  0  0  0  0  0
   -1.4630    1.1190   -2.3880 O   0  0  0  0  0  0  0  0  0  0  0  0
   -1.1000    0.2080    0.1950 C   0  0  1  0  0  0  0  0  0  0  0  0
   -1.3310   -0.1740    1.5160 O   0  0  0  0  0  0  0  0  0  0  0  0
   -0.0250   -0.6760   -0.3210 C   0  0  0  0  0  0  0  0  0  0  0  0
    1.3150   -0.7280    0.2630 C   0  0  2  0  0  0  0  0  0  0  0  0
    2.2230    0.4370    0.2880 C   0  0  0  0  0  0  0  0  0  0  0  0
    3.7000   -0.0070    0.0190 C   0  0  1  0  0  0  0  0  0  0  0  0
    3.8110   -0.5380   -1.3790 C   0  0  0  0  0  0  0  0  0  0  0  0
    2.5430   -1.3820   -1.5870 C   0  0  0  0  0  0  0  0  0  0  0  0
    2.0480   -1.7920   -0.3570 O   0  0  0  0  0  0  0  0  0  0  0  0
    4.5520    1.1880    0.2910 C   0  0  0  0  0  0  0  0  0  0  0  0
    5.8430    0.8450    1.0040 C   0  0  2  0  0  0  0  0  0  0  0  0
    6.9310    1.7940    0.4970 C   0  0  0  0  0  0  0  0  0  0  0  0
    7.1070    1.6580   -0.8630 O   0  0  0  0  0  0  0  0  0  0  0  0
    6.2970   -0.5470    0.6880 C   0  0  0  0  0  0  0  0  0  0  0  0
    5.1910   -1.5150    0.9520 C   0  0  0  0  0  0  0  0  0  0  0  0
    3.9370   -0.9690    0.9830 O   0  0  0  0  0  0  0  0  0  0  0  0
   -0.5960    1.6120    0.2610 C   0  0  0  0  0  0  0  0  0  0  0  0
  1  2  1  0
  2  3  1  0
  4  3  1  1
  4  5  1  0
  4 36  1  0
  5  6  1  0
  7  6  1  6
  7  8  1  0
  7 17  1  0
  7 20  1  0
  8  9  1  0
  8 14  1  6
  9 10  1  1
  9 13  1  0
 10 11  1  0
 11 12  1  0
 12 13  1  0
 14 15  1  0
 15 16  1  0
 16 17  1  0
 17 18  1  1
 17 19  1  0
 20 21  1  1
 20 22  1  0
 20 36  1  0
 23 22  1  6
 23 24  1  0
 23 28  1  0
 25 24  1  1
 25 26  1  0
 25 29  1  0
 25 35  1  0
 26 27  1  0
 27 28  1  0
 29 30  1  0
 30 31  1  6
 30 33  1  0
 31 32  1  0
 33 34  1  0
 34 35  1  0
M  END
