
     RDKit          3D

 37 41  0  0  0  0  0  0  0  0999 V2000
   -5.9970   -3.1460    1.6070 C   0  0  0  0  0  0  0  0  0  0  0  0
   -5.3630   -2.5070    0.4200 C   0  0  0  0  0  0  0  0  0  0  0  0
   -3.8760   -2.2520    0.5640 C   0  0  2  0  0  0  0  0  0  0  0  0
   -3.2390   -3.6110    0.7850 C   0  0  0  0  0  0  0  0  0  0  0  0
   -3.4530   -4.5010   -0.2500 O   0  0  0  0  0  0  0  0  0  0  0  0
   -3.6300   -1.4040    1.7600 C   0  0  0  0  0  0  0  0  0  0  0  0
   -3.4940    0.0420    1.5730 C   0  0  0  0  0  0  0  0  0  0  0  0
   -3.3000    0.5360    0.1840 C   0  0  1  0  0  0  0  0  0  0  0  0
   -4.5490    0.8420   -0.3610 O   0  0  0  0  0  0  0  0  0  0  0  0
   -2.5280    1.8400    0.2160 C   0  0  2  0  0  0  0  0  0  0  0  0
   -3.4420    3.0270    0.0240 C   0  0  1  0  0  0  0  0  0  0  0  0
   -4.4080    3.1070    1.0190 O   0  0  0  0  0  0  0  0  0  0  0  0
   -2.7150    4.3380   -0.0390 C   0  0  0  0  0  0  0  0  0  0  0  0
   -3.7740    5.3920   -0.2250 C   0  0  0  0  0  0  0  0  0  0  0  0
   -4.6820    5.4690    0.6300 O   0  0  0  0  0  0  0  0  0  0  0  0
   -3.7800    6.2670   -1.2970 O   0  0  0  0  0  0  0  0  0  0  0  0
   -1.3790    1.8290   -0.7530 C   0  0  0  0  0  0  0  0  0  0  0  0
   -0.4440    0.7020   -0.3560 C   0  0  1  0  0  0  0  0  0  0  0  0
   -1.1540   -0.6380   -0.2700 C   0  0  0  0  0  0  0  0  0  0  0  0
   -2.5860   -0.4510   -0.6670 C   0  0  1  0  0  0  0  0  0  0  0  0
   -3.3700   -1.7180   -0.7300 C   0  0  0  0  0  0  0  0  0  0  0  0
    0.6680    0.5410   -1.4020 C   0  0  0  0  0  0  0  0  0  0  0  0
    1.9640    0.6300   -0.6530 C   0  0  1  0  0  0  0  0  0  0  0  0
    2.0200    2.0250   -0.0380 C   0  0  0  0  0  0  0  0  0  0  0  0
    0.8940    2.0460    0.9990 C   0  0  0  0  0  0  0  0  0  0  0  0
    0.0430    0.9810    0.8940 O   0  0  0  0  0  0  0  0  0  0  0  0
    1.8850   -0.2610    0.4160 O   0  0  0  0  0  0  0  0  0  0  0  0
    3.2060   -0.7180    0.5920 C   0  0  0  0  0  0  0  0  0  0  0  0
    3.6390   -0.8410   -0.8660 C   0  0  2  0  0  0  0  0  0  0  0  0
    5.1450   -0.8490   -0.9920 C   0  0  2  0  0  0  0  0  0  0  0  0
    5.4650   -0.9850   -2.4660 C   0  0  0  0  0  0  0  0  0  0  0  0
    5.6360   -2.0870   -0.2880 C   0  0  0  0  0  0  0  0  0  0  0  0
    7.1290   -2.1590   -0.3240 C   0  0  0  0  0  0  0  0  0  0  0  0
    7.6960   -0.9970    0.4540 C   0  0  0  0  0  0  0  0  0  0  0  0
    6.6340    0.0140    0.8170 C   0  0  0  0  0  0  0  0  0  0  0  0
    5.7790    0.3600   -0.3790 C   0  0  0  0  0  0  0  0  0  0  0  0
    3.0650    0.3160   -1.3960 O   0  0  0  0  0  0  0  0  0  0  0  0
  1  2  1  0
  3  2  1  6
  3  4  1  0
  3  6  1  0
  3 21  1  0
  4  5  1  0
  6  7  1  0
  7  8  1  0
  8  9  1  6
  8 10  1  0
  8 20  1  0
 10 11  1  0
 10 17  1  6
 11 12  1  1
 11 13  1  0
 13 14  1  0
 14 15  2  0
 14 16  1  0
 18 17  1  6
 18 19  1  0
 18 22  1  0
 18 26  1  0
 20 19  1  1
 20 21  1  0
 23 22  1  6
 23 24  1  0
 23 27  1  0
 23 37  1  0
 24 25  1  0
 25 26  1  0
 27 28  1  0
 29 28  1  1
 29 30  1  0
 29 37  1  0
 30 31  1  6
 30 32  1  0
 30 36  1  0
 32 33  1  0
 33 34  1  0
 34 35  1  0
 35 36  1  0
M  END
