
     RDKit          3D

 10  9  0  0  0  0  0  0  0  0999 V2000
    3.5280    1.0190    0.5490 O   0  0  0  0  0  0  0  0  0  0  0  0
    2.4200    0.5090   -0.1640 C   0  0  0  0  0  0  0  0  0  0  0  0
    1.7970   -0.6530    0.5960 C   0  0  0  0  0  0  0  0  0  0  0  0
    0.7320   -1.1350   -0.1020 O   0  0  0  0  0  0  0  0  0  0  0  0
   -0.2930   -0.2720   -0.3460 C   0  0  1  0  0  0  0  0  0  0  0  0
   -0.4280   -0.1640   -1.7500 O   0  0  0  0  0  0  0  0  0  0  0  0
   -1.6170   -0.8670    0.1340 C   0  0  1  0  0  0  0  0  0  0  0  0
   -1.6080   -1.1290    1.4720 F   0  0  0  0  0  0  0  0  0  0  0  0
   -2.6980    0.1720   -0.1600 C   0  0  0  0  0  0  0  0  0  0  0  0
   -2.3580    1.3250    0.5450 O   0  0  0  0  0  0  0  0  0  0  0  0
  1  2  1  0
  2  3  1  0
  3  4  1  0
  4  5  1  0
  5  6  1  6
  5  7  1  0
  7  8  1  1
  7  9  1  0
  9 10  1  0
M  END
