
     RDKit          3D

 23 26  0  0  0  0  0  0  0  0999 V2000
   -4.2970    2.0740    0.6970 C   0  0  0  0  0  0  0  0  0  0  0  0
   -3.9950    1.0740   -0.3960 C   0  0  0  0  0  0  0  0  0  0  0  0
   -3.9760   -0.2860    0.0300 N   0  0  0  0  0  0  0  0  0  0  0  0
   -3.8220   -1.0880   -1.1940 C   0  0  0  0  0  0  0  0  0  0  0  0
   -3.0600   -0.6460    1.0440 C   0  0  0  0  0  0  0  0  0  0  0  0
   -1.6740   -0.5180    0.6730 N   0  0  0  0  0  0  0  0  0  0  0  0
   -0.9300    0.5980    0.8250 C   0  0  0  0  0  0  0  0  0  0  0  0
   -1.2230    1.7320    1.2790 O   0  0  0  0  0  0  0  0  0  0  0  0
    0.3440    0.3170    0.3730 C   0  0  0  0  0  0  0  0  0  0  0  0
    1.4790    1.0660    0.2940 N   0  0  0  0  0  0  0  0  0  0  0  0
    2.5890    0.4890   -0.2070 C   0  0  0  0  0  0  0  0  0  0  0  0
    2.6120   -0.8210   -0.6380 C   0  0  0  0  0  0  0  0  0  0  0  0
    1.4590   -1.5240   -0.5400 N   0  0  0  0  0  0  0  0  0  0  0  0
    0.3240   -0.9870   -0.0450 C   0  0  0  0  0  0  0  0  0  0  0  0
   -0.9120   -1.4860    0.1440 N   0  0  0  0  0  0  0  0  0  0  0  0
   -1.3070   -2.8420   -0.1650 C   0  0  0  0  0  0  0  0  0  0  0  0
    3.8570   -1.1170   -1.0860 N   0  0  0  0  0  0  0  0  0  0  0  0
    4.6530   -0.0280   -0.9590 C   0  0  0  0  0  0  0  0  0  0  0  0
    5.9770    0.2050   -1.2580 C   0  0  0  0  0  0  0  0  0  0  0  0
    6.4910    1.4510   -1.0000 C   0  0  0  0  0  0  0  0  0  0  0  0
    5.6830    2.4140   -0.4600 C   0  0  0  0  0  0  0  0  0  0  0  0
    4.3890    2.1880   -0.1660 N   0  0  0  0  0  0  0  0  0  0  0  0
    3.8670    0.9710   -0.4120 C   0  0  0  0  0  0  0  0  0  0  0  0
  1  2  1  0
  2  3  1  0
  3  4  1  0
  3  5  1  0
  5  6  1  0
  6  7  1  0
  6 15  1  0
  7  8  2  0
  7  9  1  0
  9 10  2  0
  9 14  1  0
 10 11  1  0
 11 12  2  0
 11 23  1  0
 12 13  1  0
 12 17  1  0
 13 14  2  0
 14 15  1  0
 15 16  1  0
 17 18  1  0
 18 19  2  0
 18 23  1  0
 19 20  1  0
 20 21  2  0
 21 22  1  0
 22 23  2  0
M  END
