
     RDKit          3D

 15 15  0  0  0  0  0  0  0  0999 V2000
   -1.7920   -2.1840   -0.1540 C   0  0  0  0  0  0  0  0  0  0  0  0
   -1.7730   -0.8280   -0.7440 C   0  0  1  0  0  0  0  0  0  0  0  0
   -3.1310   -0.1760   -0.4120 C   0  0  0  0  0  0  0  0  0  0  0  0
   -0.7430    0.1100   -0.3430 C   0  0  1  0  0  0  0  0  0  0  0  0
   -0.7070    0.4610    1.1320 C   0  0  0  0  0  0  0  0  0  0  0  0
    0.3990    1.4150    1.1510 N   0  0  0  0  0  0  0  0  0  0  0  0
    1.2510    1.1310    0.0340 C   0  0  2  0  0  0  0  0  0  0  0  0
    1.3220    2.2510   -0.9220 C   0  0  0  0  0  0  0  0  0  0  0  0
    1.9970    2.2580   -1.9600 O   0  0  0  0  0  0  0  0  0  0  0  0
    0.5680    3.3830   -0.6240 O   0  0  0  0  0  0  0  0  0  0  0  0
    0.6790   -0.1420   -0.6300 C   0  0  1  0  0  0  0  0  0  0  0  0
    1.3340   -1.2550    0.1240 C   0  0  0  0  0  0  0  0  0  0  0  0
    2.7630   -1.3100   -0.3400 C   0  0  0  0  0  0  0  0  0  0  0  0
    3.0670   -1.8170   -1.4550 O   0  0  0  0  0  0  0  0  0  0  0  0
    3.8090   -0.8130    0.4210 O   0  0  0  0  0  0  0  0  0  0  0  0
  2  1  1  1
  2  3  1  0
  2  4  1  0
  4  5  1  1
  4 11  1  0
  5  6  1  0
  6  7  1  0
  7  8  1  6
  7 11  1  0
  8  9  2  0
  8 10  1  0
 11 12  1  1
 12 13  1  0
 13 14  2  0
 13 15  1  0
M  CHG  1   6   1
M  END
