
     RDKit          3D

 10  9  0  0  0  0  0  0  0  0999 V2000
    2.3930    1.0120    0.9750 O   0  0  0  0  0  0  0  0  0  0  0  0
    2.2160   -0.3310    0.6660 C   0  0  0  0  0  0  0  0  0  0  0  0
    1.7200   -0.5000   -0.7710 C   0  0  1  0  0  0  0  0  0  0  0  0
    1.5750   -1.8550   -0.9840 O   0  0  0  0  0  0  0  0  0  0  0  0
    0.3820    0.2080   -0.9450 C   0  0  0  0  0  0  0  0  0  0  0  0
   -0.5510   -0.2730   -0.0520 O   0  0  0  0  0  0  0  0  0  0  0  0
   -1.7790    0.2770   -0.1080 C   0  0  1  0  0  0  0  0  0  0  0  0
   -2.6910   -0.7160   -0.5350 O   0  0  0  0  0  0  0  0  0  0  0  0
   -2.3200    0.8670    1.1430 C   0  0  0  0  0  0  0  0  0  0  0  0
   -2.3880   -0.1390    2.1060 F   0  0  0  0  0  0  0  0  0  0  0  0
  1  2  1  0
  2  3  1  0
  3  4  1  1
  3  5  1  0
  5  6  1  0
  6  7  1  0
  7  8  1  1
  7  9  1  0
  9 10  1  0
M  END
