
     RDKit          3D

 10  9  0  0  0  0  0  0  0  0999 V2000
    3.4620    0.7660    0.8810 O   0  0  0  0  0  0  0  0  0  0  0  0
    2.6430   -0.3210    0.5580 C   0  0  0  0  0  0  0  0  0  0  0  0
    1.3400    0.2430    0.0520 C   0  0  0  0  0  0  0  0  0  0  0  0
    0.4270   -0.7380   -0.3070 O   0  0  0  0  0  0  0  0  0  0  0  0
   -0.7150   -0.1020   -0.7500 C   0  0  1  0  0  0  0  0  0  0  0  0
   -0.8750   -0.3900   -2.1270 O   0  0  0  0  0  0  0  0  0  0  0  0
   -1.9200   -0.4610    0.0100 C   0  0  0  0  0  0  0  0  0  0  0  0
   -2.4040   -1.7580    0.1000 O   0  0  0  0  0  0  0  0  0  0  0  0
   -2.5800    0.4920    0.6400 C   0  0  0  0  0  0  0  0  0  0  0  0
   -3.6950    0.2430    1.3590 F   0  0  0  0  0  0  0  0  0  0  0  0
  1  2  1  0
  2  3  1  0
  3  4  1  0
  4  5  1  0
  5  6  1  6
  5  7  1  0
  7  8  1  0
  7  9  2  3
  9 10  1  0
M  END
