
     RDKit          3D

 23 26  0  0  0  0  0  0  0  0999 V2000
   -4.9640    1.9660    0.5330 C   0  0  0  0  0  0  0  0  0  0  0  0
   -4.2980    0.8180    1.1990 C   0  0  0  0  0  0  0  0  0  0  0  0
   -4.6920    0.2820    2.3850 N   0  0  0  0  0  0  0  0  0  0  0  0
   -3.9350   -0.7450    2.6010 O   0  0  0  0  0  0  0  0  0  0  0  0
   -3.0570   -0.9070    1.6130 C   0  0  0  0  0  0  0  0  0  0  0  0
   -2.0660   -1.9950    1.6060 C   0  0  0  0  0  0  0  0  0  0  0  0
   -3.2550    0.0870    0.6770 C   0  0  0  0  0  0  0  0  0  0  0  0
   -2.3970    0.3880   -0.5240 C   0  0  2  0  0  0  0  0  0  0  0  0
   -2.1450   -0.8740   -1.2810 C   0  0  0  0  0  0  0  0  0  0  0  0
   -0.7910   -1.3800   -1.4490 C   0  0  0  0  0  0  0  0  0  0  0  0
    0.1670   -0.2530   -1.7260 C   0  0  0  0  0  0  0  0  0  0  0  0
    0.0940    0.6580   -0.6160 N   0  0  0  0  0  0  0  0  0  0  0  0
    1.3400    1.1400   -0.1410 C   0  0  0  0  0  0  0  0  0  0  0  0
    2.5690    0.4990   -0.3510 C   0  0  0  0  0  0  0  0  0  0  0  0
    3.5760    1.2430    0.1890 N   0  0  0  0  0  0  0  0  0  0  0  0
    4.9600    0.9230    0.1580 C   0  0  0  0  0  0  0  0  0  0  0  0
    5.9570    1.3550    0.9930 C   0  0  0  0  0  0  0  0  0  0  0  0
    7.1140    0.8110    0.5970 N   0  0  0  0  0  0  0  0  0  0  0  0
    6.9240    0.0280   -0.4740 N   0  0  0  0  0  0  0  0  0  0  0  0
    5.6160    0.0900   -0.7480 C   0  0  0  0  0  0  0  0  0  0  0  0
    3.0000    2.2880    0.7090 N   0  0  0  0  0  0  0  0  0  0  0  0
    1.6580    2.2510    0.5240 N   0  0  0  0  0  0  0  0  0  0  0  0
   -1.1170    1.0430   -0.0360 C   0  0  0  0  0  0  0  0  0  0  0  0
  1  2  1  0
  2  3  2  0
  2  7  1  0
  3  4  1  0
  4  5  1  0
  5  6  1  0
  5  7  2  0
  8  7  1  1
  8  9  1  0
  8 23  1  0
  9 10  1  0
 10 11  1  0
 11 12  1  0
 12 13  1  0
 12 23  1  0
 13 14  2  0
 13 22  1  0
 14 15  1  0
 15 16  1  0
 15 21  1  0
 16 17  1  0
 16 20  2  0
 17 18  2  0
 18 19  1  0
 19 20  1  0
 21 22  2  0
M  END
