
     RDKit          3D

 22 24  0  0  0  0  0  0  0  0999 V2000
    5.6340   -0.9770   -0.9720 C   0  0  0  0  0  0  0  0  0  0  0  0
    4.4200   -0.5110   -0.3020 N   0  0  1  0  0  0  0  0  0  0  0  0
    4.8500    0.5990    0.5400 C   0  0  0  0  0  0  0  0  0  0  0  0
    3.4950   -0.0100   -1.2520 C   0  0  0  0  0  0  0  0  0  0  0  0
    2.0860    0.0760   -0.7900 C   0  0  0  0  0  0  0  0  0  0  0  0
    1.2580    0.5230   -1.6380 O   0  0  0  0  0  0  0  0  0  0  0  0
    1.6000   -0.2850    0.4710 N   0  0  0  0  0  0  0  0  0  0  0  0
    0.2670   -0.2210    0.9390 C   0  0  0  0  0  0  0  0  0  0  0  0
    0.0550   -0.3890    2.3130 C   0  0  0  0  0  0  0  0  0  0  0  0
   -1.1860   -0.3620    2.8970 C   0  0  0  0  0  0  0  0  0  0  0  0
   -2.2960   -0.1580    2.1010 C   0  0  0  0  0  0  0  0  0  0  0  0
   -3.5110   -0.1260    2.6330 N   0  0  0  0  0  0  0  0  0  0  0  0
   -4.5690    0.0720    1.8430 C   0  0  0  0  0  0  0  0  0  0  0  0
   -5.7160    0.1010    2.3530 O   0  0  0  0  0  0  0  0  0  0  0  0
   -4.4630    0.2470    0.4890 C   0  0  0  0  0  0  0  0  0  0  0  0
   -5.5810    0.4510   -0.3060 C   0  0  0  0  0  0  0  0  0  0  0  0
   -5.4710    0.6240   -1.6530 C   0  0  0  0  0  0  0  0  0  0  0  0
   -4.2150    0.5950   -2.2330 C   0  0  0  0  0  0  0  0  0  0  0  0
   -3.0820    0.3940   -1.4730 C   0  0  0  0  0  0  0  0  0  0  0  0
   -3.2030    0.2210   -0.1170 C   0  0  0  0  0  0  0  0  0  0  0  0
   -2.1230    0.0130    0.7280 C   0  0  0  0  0  0  0  0  0  0  0  0
   -0.8520   -0.0210    0.1720 C   0  0  0  0  0  0  0  0  0  0  0  0
  2  1  1  6
  2  3  1  0
  2  4  1  0
  4  5  1  0
  5  6  2  0
  5  7  1  0
  7  8  1  0
  8  9  2  0
  8 22  1  0
  9 10  1  0
 10 11  2  0
 11 12  1  0
 11 21  1  0
 12 13  1  0
 13 14  2  0
 13 15  1  0
 15 16  2  0
 15 20  1  0
 16 17  1  0
 17 18  2  0
 18 19  1  0
 19 20  2  0
 20 21  1  0
 21 22  2  0
M  CHG  1   2   1
M  END
