
     RDKit          3D

 25 28  0  0  0  0  0  0  0  0999 V2000
   -2.8460   -1.6990   -1.7980 C   0  0  0  0  0  0  0  0  0  0  0  0
   -2.3160   -1.8980   -0.4190 C   0  0  0  0  0  0  0  0  0  0  0  0
   -1.4530   -1.1920    0.2210 C   0  0  0  0  0  0  0  0  0  0  0  0
   -1.2130   -1.7520    1.5720 N   0  0  0  0  0  0  0  0  0  0  0  0
   -1.4310   -3.1490    1.6430 C   0  0  0  0  0  0  0  0  0  0  0  0
   -0.8530    0.0960    0.1110 C   0  0  0  0  0  0  0  0  0  0  0  0
   -1.7360    1.1910    0.0590 C   0  0  0  0  0  0  0  0  0  0  0  0
   -1.3250    2.4980    0.0340 C   0  0  0  0  0  0  0  0  0  0  0  0
    0.0200    2.7590    0.0670 C   0  0  0  0  0  0  0  0  0  0  0  0
    0.8990    1.7390    0.1160 C   0  0  0  0  0  0  0  0  0  0  0  0
    2.2300    2.0670    0.1890 C   0  0  0  0  0  0  0  0  0  0  0  0
    3.2160    1.1170    0.2730 C   0  0  0  0  0  0  0  0  0  0  0  0
    2.8070   -0.1920    0.2750 C   0  0  0  0  0  0  0  0  0  0  0  0
    1.4480   -0.5830    0.1980 C   0  0  0  0  0  0  0  0  0  0  0  0
    1.1960   -2.0120    0.0280 C   0  0  0  0  0  0  0  0  0  0  0  0
    2.0130   -2.3020   -1.2630 N   0  0  0  0  0  0  0  0  0  0  0  0
    0.4880    0.3860    0.1330 C   0  0  0  0  0  0  0  0  0  0  0  0
    3.9810   -1.0570    0.4060 C   0  0  0  0  0  0  0  0  0  0  0  0
    5.0700   -0.2320   -0.2740 C   0  0  0  0  0  0  0  0  0  0  0  0
    4.7060    1.1380    0.3480 C   0  0  0  0  0  0  0  0  0  0  0  0
   -2.2250    3.6630   -0.0180 C   0  0  0  0  0  0  0  0  0  0  0  0
   -3.6650    3.3990   -0.2250 C   0  0  0  0  0  0  0  0  0  0  0  0
   -4.0840    2.0270    0.0590 C   0  0  0  0  0  0  0  0  0  0  0  0
   -5.3080    1.8270    0.2840 O   0  0  0  0  0  0  0  0  0  0  0  0
   -3.1190    0.9600    0.0760 N   0  0  0  0  0  0  0  0  0  0  0  0
  1  2  1  0
  2  3  2  3
  3  4  1  0
  3  6  1  0
  4  5  1  0
  6  7  2  0
  6 17  1  0
  7  8  1  0
  7 25  1  0
  8  9  2  0
  8 21  1  0
  9 10  1  0
 10 11  2  0
 10 17  1  0
 11 12  1  0
 12 13  2  0
 12 20  1  0
 13 14  1  0
 13 18  1  0
 14 15  1  0
 14 17  2  0
 15 16  1  0
 18 19  1  0
 19 20  1  0
 21 22  1  0
 22 23  1  0
 23 24  2  0
 23 25  1  0
M  CHG  1   4   1
M  END
