
     RDKit          3D

 28 31  0  0  0  0  0  0  0  0999 V2000
    6.1710    0.8170    0.5820 C   0  0  0  0  0  0  0  0  0  0  0  0
    5.8060   -0.3370   -0.2960 C   0  0  0  0  0  0  0  0  0  0  0  0
    4.8060   -1.2780    0.3400 C   0  0  0  0  0  0  0  0  0  0  0  0
    3.5180   -0.6050    0.6820 C   0  0  0  0  0  0  0  0  0  0  0  0
    2.9130   -0.0570   -0.5800 C   0  0  0  0  0  0  0  0  0  0  0  0
    1.6510    0.6170   -0.3290 N   0  0  0  0  0  0  0  0  0  0  0  0
    1.5770    1.9240   -0.0810 C   0  0  0  0  0  0  0  0  0  0  0  0
    2.6800    2.5540   -0.0770 O   0  0  0  0  0  0  0  0  0  0  0  0
    0.4320    2.5620    0.1530 N   0  0  0  0  0  0  0  0  0  0  0  0
   -0.7640    1.9070    0.1540 C   0  0  0  0  0  0  0  0  0  0  0  0
   -1.7540    2.5810    0.3780 O   0  0  0  0  0  0  0  0  0  0  0  0
   -0.7390    0.5610   -0.0960 C   0  0  0  0  0  0  0  0  0  0  0  0
   -1.9080   -0.1980   -0.1120 C   0  0  0  0  0  0  0  0  0  0  0  0
   -1.7920   -1.5720   -0.3710 C   0  0  0  0  0  0  0  0  0  0  0  0
   -0.6000   -2.1910   -0.6050 C   0  0  0  0  0  0  0  0  0  0  0  0
   -0.5160   -3.6420   -0.8730 C   0  0  0  0  0  0  0  0  0  0  0  0
    0.5430   -1.4330   -0.5870 C   0  0  0  0  0  0  0  0  0  0  0  0
    0.4830   -0.0870   -0.3390 C   0  0  0  0  0  0  0  0  0  0  0  0
   -3.0960   -2.0540   -0.3230 C   0  0  0  0  0  0  0  0  0  0  0  0
   -3.4820   -3.4910   -0.5410 C   0  0  0  0  0  0  0  0  0  0  0  0
   -3.8940   -1.0380   -0.0580 N   0  0  0  0  0  0  0  0  0  0  0  0
   -3.1590    0.1210    0.0740 N   0  0  0  0  0  0  0  0  0  0  0  0
   -3.8660    1.2930    0.3570 C   0  0  0  0  0  0  0  0  0  0  0  0
   -4.3760    2.0320   -0.6940 C   0  0  0  0  0  0  0  0  0  0  0  0
   -5.1620    3.1380   -0.4860 C   0  0  0  0  0  0  0  0  0  0  0  0
   -5.4470    3.5200    0.8000 C   0  0  0  0  0  0  0  0  0  0  0  0
   -4.9700    2.8280    1.8850 C   0  0  0  0  0  0  0  0  0  0  0  0
   -4.1850    1.7240    1.6340 C   0  0  0  0  0  0  0  0  0  0  0  0
  1  2  1  0
  2  3  1  0
  3  4  1  0
  4  5  1  0
  5  6  1  0
  6  7  1  0
  6 18  1  0
  7  8  2  0
  7  9  1  0
  9 10  1  0
 10 11  2  0
 10 12  1  0
 12 13  2  0
 12 18  1  0
 13 14  1  0
 13 22  1  0
 14 15  2  0
 14 19  1  0
 15 16  1  0
 15 17  1  0
 17 18  2  0
 19 20  1  0
 19 21  2  0
 21 22  1  0
 22 23  1  0
 23 24  2  0
 23 28  1  0
 24 25  1  0
 25 26  2  0
 26 27  1  0
 27 28  2  0
M  END
