
     RDKit          3D

 28 31  0  0  0  0  0  0  0  0999 V2000
   -6.3230    1.3850    0.4180 C   0  0  0  0  0  0  0  0  0  0  0  0
   -5.3730    0.6610   -0.1440 C   0  0  0  0  0  0  0  0  0  0  0  0
   -5.6600   -0.0720   -1.3140 O   0  0  0  0  0  0  0  0  0  0  0  0
   -4.9730   -1.2610   -1.7580 C   0  0  0  0  0  0  0  0  0  0  0  0
   -4.6600   -2.1860   -0.6340 C   0  0  0  0  0  0  0  0  0  0  0  0
   -3.5580   -1.8090    0.2160 N   0  0  0  0  0  0  0  0  0  0  0  0
   -2.6140   -2.6110    0.6680 N   0  0  0  0  0  0  0  0  0  0  0  0
   -1.7380   -1.9590    1.4550 C   0  0  0  0  0  0  0  0  0  0  0  0
   -0.5520   -2.4830    2.1500 C   0  0  0  0  0  0  0  0  0  0  0  0
    0.6160   -2.3390    1.2080 C   0  0  0  0  0  0  0  0  0  0  0  0
    1.0370   -3.2460    0.3120 N   0  0  0  0  0  0  0  0  0  0  0  0
    2.0820   -2.7350   -0.3090 N   0  0  0  0  0  0  0  0  0  0  0  0
    2.3360   -1.5180    0.1750 C   0  0  0  0  0  0  0  0  0  0  0  0
    3.3700   -0.5630   -0.1780 C   0  0  0  0  0  0  0  0  0  0  0  0
    3.4800    0.6640    0.4370 C   0  0  0  0  0  0  0  0  0  0  0  0
    4.4740    1.5730    0.0910 C   0  0  0  0  0  0  0  0  0  0  0  0
    4.5280    2.8800    0.8010 C   0  0  0  0  0  0  0  0  0  0  0  0
    5.3720    1.2340   -0.8930 C   0  0  0  0  0  0  0  0  0  0  0  0
    6.4280    2.2030   -1.2560 C   0  0  0  0  0  0  0  0  0  0  0  0
    5.2540   -0.0130   -1.5120 C   0  0  0  0  0  0  0  0  0  0  0  0
    4.2700   -0.8980   -1.1620 C   0  0  0  0  0  0  0  0  0  0  0  0
    4.1690   -2.2010   -1.8270 C   0  0  0  0  0  0  0  0  0  0  0  0
    1.4210   -1.3130    1.0970 O   0  0  0  0  0  0  0  0  0  0  0  0
   -2.1550   -0.6320    1.5110 C   0  0  0  0  0  0  0  0  0  0  0  0
   -3.2760   -0.5770    0.7370 C   0  0  0  0  0  0  0  0  0  0  0  0
   -4.0580    0.6640    0.4920 C   0  0  0  0  0  0  0  0  0  0  0  0
   -3.5280    1.8080    0.8090 C   0  0  0  0  0  0  0  0  0  0  0  0
   -4.1360    3.1180    0.5760 C   0  0  0  0  0  0  0  0  0  0  0  0
  1  2  2  0
  2  3  1  0
  2 26  1  0
  3  4  1  0
  4  5  1  0
  5  6  1  0
  6  7  1  0
  6 25  1  0
  7  8  2  0
  8  9  1  0
  8 24  1  0
  9 10  1  0
 10 11  2  0
 10 23  1  0
 11 12  1  0
 12 13  2  0
 13 14  1  0
 13 23  1  0
 14 15  2  0
 14 21  1  0
 15 16  1  0
 16 17  1  0
 16 18  2  0
 18 19  1  0
 18 20  1  0
 20 21  2  0
 21 22  1  0
 24 25  2  0
 25 26  1  0
 26 27  2  3
 27 28  1  0
M  END
