
     RDKit          3D

 28 31  0  0  0  0  0  0  0  0999 V2000
   -6.1830    0.8850    1.0840 C   0  0  0  0  0  0  0  0  0  0  0  0
   -5.0280    1.8130    0.9750 C   0  0  0  0  0  0  0  0  0  0  0  0
   -5.0750    2.8510    1.7990 C   0  0  0  0  0  0  0  0  0  0  0  0
   -4.1750    3.9870    2.0280 C   0  0  0  0  0  0  0  0  0  0  0  0
   -3.1820    4.5820    1.3770 C   0  0  0  0  0  0  0  0  0  0  0  0
   -2.5380    4.3390    0.0910 C   0  0  0  0  0  0  0  0  0  0  0  0
   -2.5110    3.3080   -0.7210 N   0  0  0  0  0  0  0  0  0  0  0  0
   -3.1080    2.0190   -0.6560 C   0  0  0  0  0  0  0  0  0  0  0  0
   -2.5510    1.0480   -1.4980 C   0  0  0  0  0  0  0  0  0  0  0  0
   -3.2070   -0.1300   -1.3360 C   0  0  0  0  0  0  0  0  0  0  0  0
   -3.0200   -1.4570   -1.9420 C   0  0  0  0  0  0  0  0  0  0  0  0
   -2.2020   -2.4040   -1.1270 C   0  0  0  0  0  0  0  0  0  0  0  0
   -0.8150   -1.9020   -0.9360 C   0  0  0  0  0  0  0  0  0  0  0  0
   -0.4190   -0.8740   -1.5280 O   0  0  0  0  0  0  0  0  0  0  0  0
    0.0890   -2.5760   -0.0780 N   0  0  0  0  0  0  0  0  0  0  0  0
    1.4190   -2.1810    0.1570 C   0  0  0  0  0  0  0  0  0  0  0  0
    2.0470   -2.7740    1.2700 C   0  0  0  0  0  0  0  0  0  0  0  0
    3.3450   -2.5120    1.6240 C   0  0  0  0  0  0  0  0  0  0  0  0
    4.1010   -1.6330    0.8800 C   0  0  0  0  0  0  0  0  0  0  0  0
    3.4930   -1.0570   -0.2020 C   0  0  0  0  0  0  0  0  0  0  0  0
    2.1680   -1.3190   -0.5720 C   0  0  0  0  0  0  0  0  0  0  0  0
    4.0910   -0.1510   -1.0670 O   0  0  0  0  0  0  0  0  0  0  0  0
    5.4240   -0.0090   -1.5210 C   0  0  0  0  0  0  0  0  0  0  0  0
    6.4440   -0.5730   -0.5790 C   0  0  0  0  0  0  0  0  0  0  0  0
    6.1080   -0.2330    0.8600 C   0  0  0  0  0  0  0  0  0  0  0  0
    5.4720   -1.5010    1.4430 C   0  0  0  0  0  0  0  0  0  0  0  0
   -4.1690    0.1300   -0.3910 N   0  0  0  0  0  0  0  0  0  0  0  0
   -4.1000    1.3850   -0.0030 N   0  0  0  0  0  0  0  0  0  0  0  0
  1  2  1  0
  2  3  2  0
  2 28  1  0
  3  4  1  0
  4  5  2  0
  5  6  1  0
  6  7  2  0
  7  8  1  0
  8  9  2  0
  8 28  1  0
  9 10  1  0
 10 11  1  0
 10 27  2  0
 11 12  1  0
 12 13  1  0
 13 14  2  0
 13 15  1  0
 15 16  1  0
 16 17  2  0
 16 21  1  0
 17 18  1  0
 18 19  2  0
 19 20  1  0
 19 26  1  0
 20 21  2  0
 20 22  1  0
 22 23  1  0
 23 24  1  0
 24 25  1  0
 25 26  1  0
 27 28  1  0
M  END
