
     RDKit          3D

 28 31  0  0  0  0  0  0  0  0999 V2000
   -4.4230   -0.1970    3.2530 C   0  0  0  0  0  0  0  0  0  0  0  0
   -4.1700   -1.3330    2.6300 C   0  0  0  0  0  0  0  0  0  0  0  0
   -3.7320   -1.2780    1.2840 N   0  0  0  0  0  0  0  0  0  0  0  0
   -4.3430   -0.3810    0.3050 C   0  0  0  0  0  0  0  0  0  0  0  0
   -3.2730    0.4670   -0.3630 C   0  0  0  0  0  0  0  0  0  0  0  0
   -2.1570   -0.4600   -0.8850 C   0  0  1  0  0  0  0  0  0  0  0  0
   -1.3010    0.1980   -1.8380 C   0  0  0  0  0  0  0  0  0  0  0  0
   -1.4300    0.0070   -3.1920 N   0  0  0  0  0  0  0  0  0  0  0  0
   -0.5020    0.7330   -3.8340 C   0  0  0  0  0  0  0  0  0  0  0  0
   -0.1400    0.9490   -5.1530 C   0  0  0  0  0  0  0  0  0  0  0  0
    0.9010    1.7860   -5.5060 C   0  0  0  0  0  0  0  0  0  0  0  0
    1.6200    2.4400   -4.5390 C   0  0  0  0  0  0  0  0  0  0  0  0
    1.2830    2.2450   -3.2190 C   0  0  0  0  0  0  0  0  0  0  0  0
    0.2420    1.4060   -2.8830 C   0  0  0  0  0  0  0  0  0  0  0  0
   -0.2930    1.0400   -1.6740 N   0  0  0  0  0  0  0  0  0  0  0  0
    0.2200    1.5300   -0.4360 C   0  0  0  0  0  0  0  0  0  0  0  0
    1.2960    0.6220    0.1100 C   0  0  0  0  0  0  0  0  0  0  0  0
    1.6050   -0.3990   -0.5410 O   0  0  0  0  0  0  0  0  0  0  0  0
    1.9530    0.9010    1.3270 N   0  0  0  0  0  0  0  0  0  0  0  0
    2.9710    0.0820    1.8850 C   0  0  0  0  0  0  0  0  0  0  0  0
    4.1960    0.5020    2.1280 C   0  0  0  0  0  0  0  0  0  0  0  0
    5.0220   -0.5470    2.6990 C   0  0  0  0  0  0  0  0  0  0  0  0
    6.2040   -0.4690    3.2710 C   0  0  0  0  0  0  0  0  0  0  0  0
    4.2410   -1.8000    2.5070 C   0  0  0  0  0  0  0  0  0  0  0  0
    2.8590   -1.3090    2.2770 C   0  0  0  0  0  0  0  0  0  0  0  0
    1.8080   -1.9900    2.4040 O   0  0  0  0  0  0  0  0  0  0  0  0
   -1.5700   -1.1380    0.2840 C   0  0  0  0  0  0  0  0  0  0  0  0
   -2.6420   -2.1200    0.8060 C   0  0  0  0  0  0  0  0  0  0  0  0
  1  2  2  0
  2  3  1  0
  3  4  1  0
  3 28  1  0
  4  5  1  0
  5  6  1  0
  6  7  1  1
  6 27  1  0
  7  8  2  0
  7 15  1  0
  8  9  1  0
  9 10  2  0
  9 14  1  0
 10 11  1  0
 11 12  2  0
 12 13  1  0
 13 14  2  0
 14 15  1  0
 15 16  1  0
 16 17  1  0
 17 18  2  0
 17 19  1  0
 19 20  1  0
 20 21  2  0
 20 25  1  0
 21 22  1  0
 22 23  2  0
 22 24  1  0
 24 25  1  0
 25 26  2  0
 27 28  1  0
M  END
