
     RDKit          3D

 25 28  0  0  0  0  0  0  0  0999 V2000
   -4.8050   -1.6550   -0.7300 C   0  0  0  0  0  0  0  0  0  0  0  0
   -3.5520   -1.5800   -0.2850 C   0  0  0  0  0  0  0  0  0  0  0  0
   -2.7860   -0.5050   -0.4560 O   0  0  0  0  0  0  0  0  0  0  0  0
   -1.5960   -0.6330    0.0520 C   0  0  0  0  0  0  0  0  0  0  0  0
   -0.6010    0.4660   -0.0340 C   0  0  0  0  0  0  0  0  0  0  0  0
   -1.0860    1.7610   -0.2500 C   0  0  0  0  0  0  0  0  0  0  0  0
   -0.2950    2.8610   -0.3550 C   0  0  0  0  0  0  0  0  0  0  0  0
   -0.8440    4.1730   -0.5780 C   0  0  0  0  0  0  0  0  0  0  0  0
   -1.9830    4.4950   -1.2840 C   0  0  0  0  0  0  0  0  0  0  0  0
   -2.1680    5.8610   -1.2660 C   0  0  0  0  0  0  0  0  0  0  0  0
   -1.1520    6.3710   -0.5550 N   0  0  0  0  0  0  0  0  0  0  0  0
   -0.3340    5.3810   -0.1260 C   0  0  0  0  0  0  0  0  0  0  0  0
    1.0650    2.6880   -0.2410 C   0  0  0  0  0  0  0  0  0  0  0  0
    1.5590    1.4390   -0.0340 C   0  0  0  0  0  0  0  0  0  0  0  0
    0.7490    0.2800    0.0760 C   0  0  0  0  0  0  0  0  0  0  0  0
    1.3770   -0.9760    0.1810 N   0  0  0  0  0  0  0  0  0  0  0  0
    2.7940   -1.0520    0.4360 C   0  0  1  0  0  0  0  0  0  0  0  0
    3.3160   -2.4650    0.6270 C   0  0  0  0  0  0  0  0  0  0  0  0
    4.5540   -2.0410   -0.1290 C   0  0  2  0  0  0  0  0  0  0  0  0
    5.5390   -1.3280    0.6350 N   0  0  0  0  0  0  0  0  0  0  0  0
    3.6420   -1.0340   -0.8460 C   0  0  0  0  0  0  0  0  0  0  0  0
   -1.5400   -1.8570    0.6030 C   0  0  0  0  0  0  0  0  0  0  0  0
   -2.7880   -2.4830    0.3970 C   0  0  0  0  0  0  0  0  0  0  0  0
   -3.1140   -3.6790    0.7880 C   0  0  0  0  0  0  0  0  0  0  0  0
   -4.3670   -4.4140    0.6260 C   0  0  0  0  0  0  0  0  0  0  0  0
  1  2  2  0
  2  3  1  0
  2 23  1  0
  3  4  1  0
  4  5  1  0
  4 22  2  0
  5  6  2  0
  5 15  1  0
  6  7  1  0
  7  8  1  0
  7 13  2  0
  8  9  1  0
  8 12  2  0
  9 10  2  0
 10 11  1  0
 11 12  1  0
 13 14  1  0
 14 15  2  0
 15 16  1  0
 17 16  1  6
 17 18  1  0
 17 21  1  0
 18 19  1  0
 19 20  1  1
 19 21  1  0
 22 23  1  0
 23 24  2  3
 24 25  1  0
M  CHG  1  20   1
M  END
