
     RDKit          3D

 28 31  0  0  0  0  0  0  0  0999 V2000
   -5.6270   -0.4990    0.1000 C   0  0  0  0  0  0  0  0  0  0  0  0
   -4.5060   -1.2450    0.1460 C   0  0  0  0  0  0  0  0  0  0  0  0
   -3.2080   -0.5700    0.0650 C   0  0  0  0  0  0  0  0  0  0  0  0
   -2.0450   -1.1610    0.0970 C   0  0  0  0  0  0  0  0  0  0  0  0
   -0.7690   -0.4990    0.0180 C   0  0  0  0  0  0  0  0  0  0  0  0
    0.4250   -1.1850    0.0570 N   0  0  0  0  0  0  0  0  0  0  0  0
    1.4220   -0.3200   -0.0350 C   0  0  0  0  0  0  0  0  0  0  0  0
    2.8610   -0.6740   -0.0290 C   0  0  0  0  0  0  0  0  0  0  0  0
    3.7770    0.3320   -0.1320 C   0  0  0  0  0  0  0  0  0  0  0  0
    5.1240   -0.0100   -0.1250 C   0  0  0  0  0  0  0  0  0  0  0  0
    5.5190   -1.3330   -0.0170 C   0  0  0  0  0  0  0  0  0  0  0  0
    6.8580   -1.6810   -0.0100 O   0  0  0  0  0  0  0  0  0  0  0  0
    7.8240   -0.6640   -0.1150 C   0  0  0  0  0  0  0  0  0  0  0  0
    4.5840   -2.3370    0.0860 C   0  0  0  0  0  0  0  0  0  0  0  0
    3.2550   -1.9770    0.0770 C   0  0  0  0  0  0  0  0  0  0  0  0
    0.8790    0.8770   -0.1300 N   0  0  0  0  0  0  0  0  0  0  0  0
   -0.4440    0.7750   -0.0980 N   0  0  0  0  0  0  0  0  0  0  0  0
   -1.3240    1.9270   -0.1830 C   0  0  0  0  0  0  0  0  0  0  0  0
   -1.6820    2.5520    0.9860 C   0  0  0  0  0  0  0  0  0  0  0  0
   -2.4700    3.6970    1.1540 C   0  0  0  0  0  0  0  0  0  0  0  0
   -2.9080    4.5810    0.1950 C   0  0  0  0  0  0  0  0  0  0  0  0
   -3.0790    4.2950   -1.1210 N   0  0  0  0  0  0  0  0  0  0  0  0
   -2.4830    3.3640   -1.8850 C   0  0  0  0  0  0  0  0  0  0  0  0
   -2.6790    3.4930   -3.1140 O   0  0  0  0  0  0  0  0  0  0  0  0
   -1.6870    2.2920   -1.4590 C   0  0  0  0  0  0  0  0  0  0  0  0
   -2.0900   -2.6310    0.2250 C   0  0  0  0  0  0  0  0  0  0  0  0
   -3.2230   -3.2830    0.3010 C   0  0  0  0  0  0  0  0  0  0  0  0
   -4.5750   -2.7070    0.2740 C   0  0  0  0  0  0  0  0  0  0  0  0
  1  2  2  0
  2  3  1  0
  2 28  1  0
  3  4  2  0
  4  5  1  0
  4 26  1  0
  5  6  2  0
  5 17  1  0
  6  7  1  0
  7  8  1  0
  7 16  2  0
  8  9  2  0
  8 15  1  0
  9 10  1  0
 10 11  2  0
 11 12  1  0
 11 14  1  0
 12 13  1  0
 14 15  2  0
 16 17  1  0
 17 18  1  0
 18 19  1  0
 18 25  2  0
 19 20  2  0
 20 21  1  0
 21 22  2  0
 22 23  1  0
 23 24  2  0
 23 25  1  0
 26 27  2  0
 27 28  1  0
M  END
