
     RDKit          3D

 30 32  0  0  0  0  0  0  0  0999 V2000
    3.0640   -4.6660   -0.5950 C   0  0  0  0  0  0  0  0  0  0  0  0
    2.7730   -3.2080   -0.4060 C   0  0  0  0  0  0  0  0  0  0  0  0
    1.5250   -2.7470   -0.0460 C   0  0  0  0  0  0  0  0  0  0  0  0
    1.6470   -1.3750    0.0290 C   0  0  0  0  0  0  0  0  0  0  0  0
    0.7820   -0.3470    0.3330 C   0  0  0  0  0  0  0  0  0  0  0  0
    1.1420    0.9730    0.3460 C   0  0  0  0  0  0  0  0  0  0  0  0
    2.4460    1.2870    0.0290 C   0  0  0  0  0  0  0  0  0  0  0  0
    2.7940    2.5950    0.0400 F   0  0  0  0  0  0  0  0  0  0  0  0
    3.3570    0.2740   -0.2880 C   0  0  0  0  0  0  0  0  0  0  0  0
    4.7280    0.6400   -0.6210 C   0  0  2  0  0  0  0  0  0  0  0  0
    5.5780   -0.5810   -0.7880 C   0  0  0  0  0  0  0  0  0  0  0  0
    5.3310    1.6350    0.3470 C   0  0  0  0  0  0  0  0  0  0  0  0
    2.9590   -1.0410   -0.2860 C   0  0  0  0  0  0  0  0  0  0  0  0
    3.5580   -2.1940   -0.5310 O   0  0  0  0  0  0  0  0  0  0  0  0
    0.2600    1.9510    0.7870 N   0  0  0  0  0  0  0  0  0  0  0  0
   -1.1480    1.7090    0.6430 C   0  0  1  0  0  0  0  0  0  0  0  0
   -1.4720    2.3510   -0.7250 C   0  0  0  0  0  0  0  0  0  0  0  0
   -2.8750    2.2570   -1.1560 C   0  0  0  0  0  0  0  0  0  0  0  0
   -2.9870    2.9510   -2.4990 C   0  0  0  0  0  0  0  0  0  0  0  0
   -4.2250    3.0150   -3.1720 N   0  0  0  0  0  0  0  0  0  0  0  0
   -1.9750    3.4570   -2.9890 O   0  0  0  0  0  0  0  0  0  0  0  0
   -1.5510    0.2990    0.6850 C   0  0  0  0  0  0  0  0  0  0  0  0
   -2.9030   -0.1510    0.9440 C   0  0  0  0  0  0  0  0  0  0  0  0
   -3.8320    0.6580    1.1320 O   0  0  0  0  0  0  0  0  0  0  0  0
   -3.2530   -1.4990    0.9980 O   0  0  0  0  0  0  0  0  0  0  0  0
   -4.5990   -1.9230    1.2560 C   0  0  0  0  0  0  0  0  0  0  0  0
   -5.0840   -1.4510    2.5500 C   0  0  0  0  0  0  0  0  0  0  0  0
   -6.3860   -1.7590    2.9820 N   0  0  0  0  0  0  0  0  0  0  0  0
   -4.3430   -0.7650    3.2890 O   0  0  0  0  0  0  0  0  0  0  0  0
   -0.6240   -0.6600    0.5240 C   0  0  0  0  0  0  0  0  0  0  0  0
  1  2  1  0
  2  3  2  0
  2 14  1  0
  3  4  1  0
  4  5  2  0
  4 13  1  0
  5  6  1  0
  5 30  1  0
  6  7  2  0
  6 15  1  0
  7  8  1  0
  7  9  1  0
  9 10  1  0
  9 13  2  0
 10 11  1  1
 10 12  1  0
 13 14  1  0
 15 16  1  0
 16 17  1  6
 16 22  1  0
 17 18  1  0
 18 19  1  0
 19 20  1  0
 19 21  2  0
 22 23  1  0
 22 30  2  0
 23 24  2  0
 23 25  1  0
 25 26  1  0
 26 27  1  0
 27 28  1  0
 27 29  2  0
M  CHG  1  15   1
M  END
