
     RDKit          3D

 29 30  0  0  0  0  0  0  0  0999 V2000
    3.1290   -3.6730    2.9290 C   0  0  0  0  0  0  0  0  0  0  0  0
    2.4930   -2.7160    2.1000 O   0  0  0  0  0  0  0  0  0  0  0  0
    2.8570   -2.3960    0.8380 C   0  0  0  0  0  0  0  0  0  0  0  0
    3.8840   -3.0420    0.3760 O   0  0  0  0  0  0  0  0  0  0  0  0
    2.2370   -1.4320   -0.0330 C   0  0  0  0  0  0  0  0  0  0  0  0
    1.2070   -0.6970    0.2570 C   0  0  0  0  0  0  0  0  0  0  0  0
    0.3970   -0.5860    1.4180 C   0  0  0  0  0  0  0  0  0  0  0  0
    0.6140   -1.2850    2.4360 O   0  0  0  0  0  0  0  0  0  0  0  0
   -0.7200    0.3300    1.5060 N   0  0  0  0  0  0  0  0  0  0  0  0
   -1.4940    0.3590    2.7280 C   0  0  0  0  0  0  0  0  0  0  0  0
   -2.9510    0.6890    2.4430 C   0  0  0  0  0  0  0  0  0  0  0  0
   -3.1220    1.7150    1.4180 C   0  0  0  0  0  0  0  0  0  0  0  0
   -4.2940    2.0970    1.0030 C   0  0  0  0  0  0  0  0  0  0  0  0
   -5.5770    1.5830    1.4790 C   0  0  0  0  0  0  0  0  0  0  0  0
   -5.4870    0.6170    2.4480 F   0  0  0  0  0  0  0  0  0  0  0  0
   -1.8710    2.3470    0.8370 C   0  0  0  0  0  0  0  0  0  0  0  0
   -1.0000    1.1640    0.3810 C   0  0  2  0  0  0  0  0  0  0  0  0
   -1.6480    0.4400   -0.7310 C   0  0  0  0  0  0  0  0  0  0  0  0
   -1.9480   -0.8450   -0.5890 C   0  0  0  0  0  0  0  0  0  0  0  0
   -2.5840   -1.8000   -1.5110 C   0  0  0  0  0  0  0  0  0  0  0  0
   -3.2550   -1.4780   -2.6040 C   0  0  0  0  0  0  0  0  0  0  0  0
   -3.5310   -0.1480   -3.1610 C   0  0  0  0  0  0  0  0  0  0  0  0
   -2.9350    1.0010   -2.8390 C   0  0  0  0  0  0  0  0  0  0  0  0
   -1.9170    1.1650   -1.8960 O   0  0  0  0  0  0  0  0  0  0  0  0
    2.8480   -1.2880   -1.3570 N   0  0  0  0  0  0  0  0  0  0  0  0
    3.0370   -0.0120   -1.9550 C   0  0  0  0  0  0  0  0  0  0  0  0
    4.0720    0.8370   -1.2370 C   0  0  1  0  0  0  0  0  0  0  0  0
    5.3760    0.1040   -1.2660 C   0  0  0  0  0  0  0  0  0  0  0  0
    4.1760    2.0900   -1.9920 N   0  0  0  0  0  0  0  0  0  0  0  0
  1  2  1  0
  2  3  1  0
  3  4  2  0
  3  5  1  0
  5  6  2  3
  5 25  1  0
  6  7  1  0
  7  8  2  0
  7  9  1  0
  9 10  1  0
  9 17  1  0
 10 11  1  0
 11 12  1  0
 12 13  2  3
 12 16  1  0
 13 14  1  0
 14 15  1  0
 16 17  1  0
 17 18  1  6
 18 19  2  0
 18 24  1  0
 19 20  1  0
 20 21  2  0
 21 22  1  0
 22 23  2  0
 23 24  1  0
 25 26  1  0
 26 27  1  0
 27 28  1  6
 27 29  1  0
M  CHG  1  29   1
M  END
