
     RDKit          3D

 29 31  0  0  0  0  0  0  0  0999 V2000
    6.3780    2.0230   -0.9040 N   0  0  0  0  0  0  0  0  0  0  0  0
    6.6110    1.1440    0.1890 C   0  0  0  0  0  0  0  0  0  0  0  0
    7.7010    1.2610    0.8350 N   0  0  0  0  0  0  0  0  0  0  0  0
    5.5860    0.1580    0.5120 C   0  0  0  0  0  0  0  0  0  0  0  0
    5.7220   -0.7290    1.5530 C   0  0  0  0  0  0  0  0  0  0  0  0
    4.7200   -1.6580    1.8330 C   0  0  0  0  0  0  0  0  0  0  0  0
    3.5940   -1.6610    1.0390 C   0  0  0  0  0  0  0  0  0  0  0  0
    3.4150   -0.7970   -0.0070 C   0  0  0  0  0  0  0  0  0  0  0  0
    2.1870   -0.8500   -0.8170 C   0  0  0  0  0  0  0  0  0  0  0  0
    2.1980   -0.5190   -2.1540 C   0  0  0  0  0  0  0  0  0  0  0  0
    1.0180   -0.5860   -2.8640 C   0  0  0  0  0  0  0  0  0  0  0  0
   -0.1770   -0.9820   -2.2510 C   0  0  0  0  0  0  0  0  0  0  0  0
   -0.2060   -1.3160   -0.9160 C   0  0  0  0  0  0  0  0  0  0  0  0
   -1.4470   -1.7420   -0.2210 C   0  0  2  0  0  0  0  0  0  0  0  0
   -2.6790   -1.1300   -0.8480 C   0  0  0  0  0  0  0  0  0  0  0  0
   -2.6680    0.3840   -0.8240 C   0  0  0  0  0  0  0  0  0  0  0  0
   -3.9500    0.8370   -1.4820 C   0  0  0  0  0  0  0  0  0  0  0  0
   -5.1430    0.3860   -0.8240 N   0  0  0  0  0  0  0  0  0  0  0  0
   -5.5160    0.8750    0.4520 C   0  0  0  0  0  0  0  0  0  0  0  0
   -4.9170    1.9750    1.0340 C   0  0  0  0  0  0  0  0  0  0  0  0
   -5.2780    2.4360    2.2760 C   0  0  0  0  0  0  0  0  0  0  0  0
   -6.2380    1.8240    2.9760 N   0  0  0  0  0  0  0  0  0  0  0  0
   -6.8410    0.7440    2.4250 C   0  0  0  0  0  0  0  0  0  0  0  0
   -6.5230    0.2410    1.1940 C   0  0  0  0  0  0  0  0  0  0  0  0
   -1.3940   -1.5400    1.2390 C   0  0  0  0  0  0  0  0  0  0  0  0
   -1.5130   -2.4620    2.0880 O   0  0  0  0  0  0  0  0  0  0  0  0
   -1.2020   -0.2550    1.7260 O   0  0  0  0  0  0  0  0  0  0  0  0
    1.0010   -1.2380   -0.2280 C   0  0  0  0  0  0  0  0  0  0  0  0
    4.4150    0.1050   -0.2600 C   0  0  0  0  0  0  0  0  0  0  0  0
  1  2  1  0
  2  3  2  0
  2  4  1  0
  4  5  2  0
  4 29  1  0
  5  6  1  0
  6  7  2  0
  7  8  1  0
  8  9  1  0
  8 29  2  0
  9 10  2  0
  9 28  1  0
 10 11  1  0
 11 12  2  0
 12 13  1  0
 13 14  1  0
 13 28  2  0
 14 15  1  6
 14 25  1  0
 15 16  1  0
 16 17  1  0
 17 18  1  0
 18 19  1  0
 19 20  2  0
 19 24  1  0
 20 21  1  0
 21 22  2  0
 22 23  1  0
 23 24  2  0
 25 26  2  0
 25 27  1  0
M  CHG  1   3   1
M  END
