
     RDKit          3D

 30 31  0  0  0  0  0  0  0  0999 V2000
   -4.8070    0.7410    2.8130 C   0  0  0  0  0  0  0  0  0  0  0  0
   -4.1820   -0.2310    1.8300 C   0  0  2  0  0  0  0  0  0  0  0  0
   -4.5690   -1.6150    2.3160 C   0  0  0  0  0  0  0  0  0  0  0  0
   -2.7060   -0.0160    1.8180 C   0  0  0  0  0  0  0  0  0  0  0  0
   -2.0700   -0.0650    0.4810 C   0  0  1  0  0  0  0  0  0  0  0  0
   -0.7020    0.6050    0.6120 C   0  0  0  0  0  0  0  0  0  0  0  0
    0.1650   -0.3450   -0.1090 C   0  0  0  0  0  0  0  0  0  0  0  0
    1.4970   -0.4030    0.0490 C   0  0  0  0  0  0  0  0  0  0  0  0
    2.1430    0.5050    0.9700 C   0  0  0  0  0  0  0  0  0  0  0  0
    3.4140    0.5270    1.1940 C   0  0  0  0  0  0  0  0  0  0  0  0
    4.3760   -0.3410    0.5660 C   0  0  0  0  0  0  0  0  0  0  0  0
    4.1630   -1.2330   -0.2710 O   0  0  0  0  0  0  0  0  0  0  0  0
    5.7680   -0.1850    0.9290 N   0  0  0  0  0  0  0  0  0  0  0  0
    6.8320   -0.9780    0.3790 C   0  0  0  0  0  0  0  0  0  0  0  0
    6.9150   -0.7780   -1.0940 C   0  0  0  0  0  0  0  0  0  0  0  0
    7.1770    0.7010   -1.3390 C   0  0  0  0  0  0  0  0  0  0  0  0
    8.4310    1.0220   -0.6830 N   0  0  0  0  0  0  0  0  0  0  0  0
   -0.6640   -1.0940   -0.9180 O   0  0  0  0  0  0  0  0  0  0  0  0
   -1.8420   -1.3470   -0.1660 C   0  0  1  0  0  0  0  0  0  0  0  0
   -1.5590   -2.5310    0.6920 C   0  0  0  0  0  0  0  0  0  0  0  0
   -2.9070   -1.7080   -1.1960 C   0  0  0  0  0  0  0  0  0  0  0  0
   -2.8540    0.8190   -0.4710 C   0  0  0  0  0  0  0  0  0  0  0  0
   -2.2470    1.5500   -1.3390 O   0  0  0  0  0  0  0  0  0  0  0  0
   -1.6350    2.2860   -2.2130 C   0  0  0  0  0  0  0  0  0  0  0  0
   -1.6330    3.6610   -1.9780 F   0  0  0  0  0  0  0  0  0  0  0  0
   -4.1860    0.8000   -0.3660 C   0  0  0  0  0  0  0  0  0  0  0  0
   -4.9390    1.6390   -1.2690 C   0  0  0  0  0  0  0  0  0  0  0  0
   -6.3500    1.6460   -1.1920 N   0  0  0  0  0  0  0  0  0  0  0  0
   -4.3780    2.3540   -2.1130 O   0  0  0  0  0  0  0  0  0  0  0  0
   -4.7940   -0.0120    0.5900 O   0  0  0  0  0  0  0  0  0  0  0  0
  2  1  1  1
  2  3  1  0
  2  4  1  0
  2 30  1  0
  5  4  1  1
  5  6  1  0
  5 19  1  0
  5 22  1  0
  6  7  1  0
  7  8  2  3
  7 18  1  0
  8  9  1  0
  9 10  2  3
 10 11  1  0
 11 12  2  0
 11 13  1  0
 13 14  1  0
 14 15  1  0
 15 16  1  0
 16 17  1  0
 18 19  1  0
 19 20  1  1
 19 21  1  0
 22 23  1  0
 22 26  2  0
 23 24  1  0
 24 25  1  0
 26 27  1  0
 26 30  1  0
 27 28  1  0
 27 29  2  0
M  END
