
     RDKit          3D

 30 32  0  0  0  0  0  0  0  0999 V2000
    7.1220   -0.5060    1.4510 C   0  0  0  0  0  0  0  0  0  0  0  0
    6.7200   -1.1320    0.1390 C   0  0  0  0  0  0  0  0  0  0  0  0
    5.2940   -0.7680   -0.2420 C   0  0  2  0  0  0  0  0  0  0  0  0
    5.0030   -1.4390   -1.5530 C   0  0  0  0  0  0  0  0  0  0  0  0
    5.8650   -1.0260   -2.5590 O   0  0  0  0  0  0  0  0  0  0  0  0
    5.0550    0.6920   -0.2360 C   0  0  0  0  0  0  0  0  0  0  0  0
    3.7170    1.1850   -0.5910 C   0  0  0  0  0  0  0  0  0  0  0  0
    2.6120    0.7290    0.3110 C   0  0  0  0  0  0  0  0  0  0  0  0
    2.9650    0.0420    1.2840 O   0  0  0  0  0  0  0  0  0  0  0  0
    1.2800    1.0430    0.0910 N   0  0  0  0  0  0  0  0  0  0  0  0
    0.1830    0.6480    0.9020 C   0  0  0  0  0  0  0  0  0  0  0  0
    0.2960   -0.1140    2.0370 C   0  0  0  0  0  0  0  0  0  0  0  0
   -0.8420   -0.4380    2.7520 C   0  0  0  0  0  0  0  0  0  0  0  0
   -2.0550    0.0040    2.3180 C   0  0  0  0  0  0  0  0  0  0  0  0
   -2.1950    0.7760    1.1730 C   0  0  0  0  0  0  0  0  0  0  0  0
   -3.5250    1.2250    0.7340 C   0  0  2  0  0  0  0  0  0  0  0  0
   -4.3970    1.6050    1.8560 N   0  0  0  0  0  0  0  0  0  0  0  0
   -4.2040    0.3530   -0.2330 C   0  0  0  0  0  0  0  0  0  0  0  0
   -4.8150    0.8890   -1.3600 C   0  0  0  0  0  0  0  0  0  0  0  0
   -4.7820    2.2490   -1.5610 O   0  0  0  0  0  0  0  0  0  0  0  0
   -5.3710    2.8800   -2.6680 C   0  0  0  0  0  0  0  0  0  0  0  0
   -5.4540    0.0850   -2.2830 C   0  0  0  0  0  0  0  0  0  0  0  0
   -5.5070   -1.2910   -2.1150 C   0  0  0  0  0  0  0  0  0  0  0  0
   -6.1430   -2.0840   -3.0330 F   0  0  0  0  0  0  0  0  0  0  0  0
   -4.9060   -1.8210   -1.0060 C   0  0  0  0  0  0  0  0  0  0  0  0
   -4.2730   -1.0080   -0.0940 C   0  0  0  0  0  0  0  0  0  0  0  0
   -3.7840   -1.8430    0.8840 O   0  0  0  0  0  0  0  0  0  0  0  0
   -4.0940   -3.1810    0.6370 C   0  0  0  0  0  0  0  0  0  0  0  0
   -4.7920   -3.1210   -0.5700 O   0  0  0  0  0  0  0  0  0  0  0  0
   -1.0740    1.0600    0.5230 N   0  0  0  0  0  0  0  0  0  0  0  0
  1  2  1  0
  3  2  1  6
  3  4  1  0
  3  6  1  0
  4  5  1  0
  6  7  1  0
  7  8  1  0
  8  9  2  0
  8 10  1  0
 10 11  1  0
 11 12  2  0
 11 30  1  0
 12 13  1  0
 13 14  2  0
 14 15  1  0
 15 16  1  0
 15 30  2  0
 16 17  1  1
 16 18  1  0
 18 19  2  0
 18 26  1  0
 19 20  1  0
 19 22  1  0
 20 21  1  0
 22 23  2  0
 23 24  1  0
 23 25  1  0
 25 26  2  0
 25 29  1  0
 26 27  1  0
 27 28  1  0
 28 29  1  0
M  CHG  1  17   1
M  END
