
     RDKit          3D

 40 43  0  0  0  0  0  0  0  0999 V2000
   -3.2950    6.6200   -1.8950 C   0  0  0  0  0  0  0  0  0  0  0  0
   -3.6120    5.2940   -1.4610 O   0  0  0  0  0  0  0  0  0  0  0  0
   -2.5470    4.4790   -1.0970 C   0  0  0  0  0  0  0  0  0  0  0  0
   -1.2330    4.8980   -1.1420 C   0  0  0  0  0  0  0  0  0  0  0  0
   -0.2240    4.0270   -0.7630 C   0  0  0  0  0  0  0  0  0  0  0  0
    1.0690    4.4770   -0.8200 O   0  0  0  0  0  0  0  0  0  0  0  0
    1.4420    5.7600   -1.2360 C   0  0  0  0  0  0  0  0  0  0  0  0
   -0.4850    2.7400   -0.3380 C   0  0  0  0  0  0  0  0  0  0  0  0
    0.5070    1.8480    0.0460 O   0  0  0  0  0  0  0  0  0  0  0  0
    1.0450    1.0140   -0.9040 C   0  0  0  0  0  0  0  0  0  0  0  0
    0.6970    1.0030   -2.0990 O   0  0  0  0  0  0  0  0  0  0  0  0
    2.0940    0.0750   -0.4820 C   0  0  0  0  0  0  0  0  0  0  0  0
    2.7760   -0.8360   -1.1840 C   0  0  0  0  0  0  0  0  0  0  0  0
    3.7080   -1.5860   -0.5450 C   0  0  0  0  0  0  0  0  0  0  0  0
    3.9170   -1.3950    0.7590 C   0  0  0  0  0  0  0  0  0  0  0  0
    2.7080   -0.0400    1.1670 S   0  0  0  0  0  0  0  0  0  0  0  0
    4.8520   -2.0660    1.6810 C   0  0  0  0  0  0  0  0  0  0  0  0
    5.0430   -3.4790    1.1090 C   0  0  0  0  0  0  0  0  0  0  0  0
    5.5250   -3.2310   -0.2960 C   0  0  2  0  0  0  0  0  0  0  0  0
    6.7060   -2.3020   -0.1910 C   0  0  0  0  0  0  0  0  0  0  0  0
    6.6980   -1.1620   -0.7550 N   0  0  0  0  0  0  0  0  0  0  0  0
    7.8390   -2.6820    0.5330 O   0  0  0  0  0  0  0  0  0  0  0  0
    4.5500   -2.6580   -1.2310 C   0  0  0  0  0  0  0  0  0  0  0  0
   -1.8010    2.3320   -0.2980 C   0  0  0  0  0  0  0  0  0  0  0  0
   -2.0940    1.0570    0.1210 O   0  0  0  0  0  0  0  0  0  0  0  0
   -3.3840    0.5420    0.1990 C   0  0  0  0  0  0  0  0  0  0  0  0
   -3.2610   -0.8940    0.7060 C   0  0  0  0  0  0  0  0  0  0  0  0
   -2.1350   -1.3570    0.9580 O   0  0  0  0  0  0  0  0  0  0  0  0
   -4.4240   -1.6700    0.8790 N   0  0  0  0  0  0  0  0  0  0  0  0
   -4.4530   -3.0150    1.3290 C   0  0  0  0  0  0  0  0  0  0  0  0
   -3.3270   -3.8090    1.2550 C   0  0  0  0  0  0  0  0  0  0  0  0
   -3.2350   -5.1440    1.5670 C   0  0  0  0  0  0  0  0  0  0  0  0
   -2.1420   -5.7330    1.4510 O   0  0  0  0  0  0  0  0  0  0  0  0
   -4.6940   -5.8720    2.1010 S   0  0  0  0  0  0  0  0  0  0  0  0
   -5.9790   -4.7670    2.1360 C   0  0  0  0  0  0  0  0  0  0  0  0
   -5.6960   -3.4750    1.7460 C   0  0  0  0  0  0  0  0  0  0  0  0
   -6.8070   -2.5620    1.8200 N   0  0  0  0  0  0  0  0  0  0  0  0
   -6.7470   -1.3850    2.1490 O   0  0  0  0  0  0  0  0  0  0  0  0
   -8.0610   -3.1140    1.5320 O   0  0  0  0  0  0  0  0  0  0  0  0
   -2.8280    3.1830   -0.6700 C   0  0  0  0  0  0  0  0  0  0  0  0
  1  2  1  0
  2  3  1  0
  3  4  2  0
  3 40  1  0
  4  5  1  0
  5  6  1  0
  5  8  2  0
  6  7  1  0
  8  9  1  0
  8 24  1  0
  9 10  1  0
 10 11  2  0
 10 12  1  0
 12 13  2  0
 12 16  1  0
 13 14  1  0
 14 15  2  0
 14 23  1  0
 15 16  1  0
 15 17  1  0
 17 18  1  0
 18 19  1  0
 19 20  1  1
 19 23  1  0
 20 21  2  0
 20 22  1  0
 24 25  1  0
 24 40  2  0
 25 26  1  0
 26 27  1  0
 27 28  2  0
 27 29  1  0
 29 30  1  0
 30 31  2  0
 30 36  1  0
 31 32  1  0
 32 33  2  0
 32 34  1  0
 34 35  1  0
 35 36  2  0
 36 37  1  0
 37 38  2  0
 37 39  1  0
M  CHG  2  37   1  39  -1
M  END
