
     RDKit          3D

 40 44  0  0  0  0  0  0  0  0999 V2000
    1.9530    1.7750    0.5580 O   0  0  0  0  0  0  0  0  0  0  0  0
    2.6310    1.1500    1.4040 C   0  0  0  0  0  0  0  0  0  0  0  0
    3.9520    1.7000    1.8510 C   0  0  0  0  0  0  0  0  0  0  0  0
    4.8980    1.7980    0.7170 C   0  0  0  0  0  0  0  0  0  0  0  0
    5.0140    2.7920   -0.2120 C   0  0  0  0  0  0  0  0  0  0  0  0
    6.0340    2.4460   -1.0680 C   0  0  0  0  0  0  0  0  0  0  0  0
    6.5040    1.2200   -0.6060 C   0  0  0  0  0  0  0  0  0  0  0  0
    7.5930    0.5010   -1.2420 C   0  0  0  0  0  0  0  0  0  0  0  0
    8.0130   -0.6240   -0.7390 C   0  0  0  0  0  0  0  0  0  0  0  0
    7.4740   -1.2660    0.4600 C   0  0  1  0  0  0  0  0  0  0  0  0
    7.5850   -0.4740    1.6060 F   0  0  0  0  0  0  0  0  0  0  0  0
    6.1640   -1.6360    0.3280 F   0  0  0  0  0  0  0  0  0  0  0  0
    8.1820   -2.4570    0.7280 F   0  0  0  0  0  0  0  0  0  0  0  0
    5.7960    0.8980    0.4410 O   0  0  0  0  0  0  0  0  0  0  0  0
    2.1220   -0.0690    1.9140 N   0  0  0  0  0  0  0  0  0  0  0  0
    0.8870   -0.6730    1.5680 C   0  0  0  0  0  0  0  0  0  0  0  0
    0.7190   -2.0210    1.9240 C   0  0  0  0  0  0  0  0  0  0  0  0
   -0.4330   -2.7160    1.6610 C   0  0  0  0  0  0  0  0  0  0  0  0
   -1.4870   -2.0760    1.0150 C   0  0  0  0  0  0  0  0  0  0  0  0
   -1.3590   -0.7690    0.6560 C   0  0  0  0  0  0  0  0  0  0  0  0
   -2.4440   -0.0710   -0.0090 C   0  0  0  0  0  0  0  0  0  0  0  0
   -3.5330   -0.5440   -0.2960 N   0  0  0  0  0  0  0  0  0  0  0  0
   -4.2840   -1.6880   -0.2280 C   0  0  0  0  0  0  0  0  0  0  0  0
   -4.3230   -2.6590   -1.2360 C   0  0  0  0  0  0  0  0  0  0  0  0
   -5.1120   -3.7770   -1.1080 C   0  0  0  0  0  0  0  0  0  0  0  0
   -5.8930   -3.9920    0.0070 C   0  0  0  0  0  0  0  0  0  0  0  0
   -5.8780   -3.0560    1.0180 C   0  0  0  0  0  0  0  0  0  0  0  0
   -5.0920   -1.9410    0.8930 C   0  0  0  0  0  0  0  0  0  0  0  0
   -6.7540   -3.5430    1.9970 O   0  0  0  0  0  0  0  0  0  0  0  0
   -7.6160   -4.5320    1.4130 C   0  0  0  0  0  0  0  0  0  0  0  0
   -6.7610   -5.0230    0.3690 O   0  0  0  0  0  0  0  0  0  0  0  0
   -2.2190    1.3040   -0.3650 O   0  0  0  0  0  0  0  0  0  0  0  0
   -3.2910    2.1430   -0.7400 C   0  0  0  0  0  0  0  0  0  0  0  0
   -2.6770    3.4790   -1.0400 C   0  0  0  0  0  0  0  0  0  0  0  0
   -3.3610    4.6170   -1.4730 C   0  0  0  0  0  0  0  0  0  0  0  0
   -2.4450    5.6300   -1.6340 C   0  0  0  0  0  0  0  0  0  0  0  0
   -1.2250    5.0710   -1.2910 C   0  0  0  0  0  0  0  0  0  0  0  0
    0.3370    5.8640   -1.2930 Cl  0  0  0  0  0  0  0  0  0  0  0  0
   -1.4210    3.8190   -0.9540 O   0  0  0  0  0  0  0  0  0  0  0  0
   -0.1600   -0.0930    0.9450 C   0  0  0  0  0  0  0  0  0  0  0  0
  1  2  2  0
  2  3  1  0
  2 15  1  0
  3  4  1  0
  4  5  2  0
  4 14  1  0
  5  6  1  0
  6  7  2  0
  7  8  1  0
  7 14  1  0
  8  9  2  3
  9 10  1  0
 10 11  1  1
 10 12  1  0
 10 13  1  0
 15 16  1  0
 16 17  2  0
 16 40  1  0
 17 18  1  0
 18 19  2  0
 19 20  1  0
 20 21  1  0
 20 40  2  0
 21 22  2  3
 21 32  1  0
 22 23  1  0
 23 24  2  0
 23 28  1  0
 24 25  1  0
 25 26  2  0
 26 27  1  0
 26 31  1  0
 27 28  2  0
 27 29  1  0
 29 30  1  0
 30 31  1  0
 32 33  1  0
 33 34  1  0
 34 35  2  0
 34 39  1  0
 35 36  1  0
 36 37  2  0
 37 38  1  0
 37 39  1  0
M  END
