
     RDKit          3D

 39 43  0  0  0  0  0  0  0  0999 V2000
    6.4280   -0.9530   -2.9900 C   0  0  0  0  0  0  0  0  0  0  0  0
    5.6530    0.0210   -3.5400 O   0  0  0  0  0  0  0  0  0  0  0  0
    5.3120    1.0210   -2.6900 C   0  0  0  0  0  0  0  0  0  0  0  0
    4.5350    0.6400   -1.4890 C   0  0  1  0  0  0  0  0  0  0  0  0
    3.2030   -0.0160   -1.8270 C   0  0  0  0  0  0  0  0  0  0  0  0
    2.4530    0.0200   -0.6320 O   0  0  0  0  0  0  0  0  0  0  0  0
    3.0420   -0.4740    0.5240 C   0  0  0  0  0  0  0  0  0  0  0  0
    2.2410   -0.8020    1.5910 C   0  0  0  0  0  0  0  0  0  0  0  0
    0.7870   -0.6850    1.6480 C   0  0  0  0  0  0  0  0  0  0  0  0
    0.2610   -1.0440    2.7240 O   0  0  0  0  0  0  0  0  0  0  0  0
   -0.0180   -0.2110    0.6070 N   0  0  0  0  0  0  0  0  0  0  0  0
   -1.4390   -0.1090    0.7250 C   0  0  0  0  0  0  0  0  0  0  0  0
   -2.1140   -0.1640    1.9110 C   0  0  0  0  0  0  0  0  0  0  0  0
   -3.5070    0.0120    1.9390 C   0  0  0  0  0  0  0  0  0  0  0  0
   -4.2490    0.2410    0.8170 C   0  0  0  0  0  0  0  0  0  0  0  0
   -5.6880    0.4310    0.7930 C   0  0  0  0  0  0  0  0  0  0  0  0
   -6.2850    0.6780   -0.4480 C   0  0  0  0  0  0  0  0  0  0  0  0
   -7.6420    0.8710   -0.5940 C   0  0  0  0  0  0  0  0  0  0  0  0
   -8.4710    0.8260    0.5050 C   0  0  0  0  0  0  0  0  0  0  0  0
   -9.8100    1.0130    0.3920 F   0  0  0  0  0  0  0  0  0  0  0  0
   -7.9090    0.5870    1.7270 C   0  0  0  0  0  0  0  0  0  0  0  0
   -8.7560    0.5280    2.9380 C   0  0  0  0  0  0  0  0  0  0  0  0
   -6.5280    0.3930    1.8550 C   0  0  0  0  0  0  0  0  0  0  0  0
   -6.0750    0.1630    3.0950 F   0  0  0  0  0  0  0  0  0  0  0  0
   -3.5350    0.2860   -0.3270 N   0  0  0  0  0  0  0  0  0  0  0  0
   -2.2040    0.1260   -0.4310 C   0  0  0  0  0  0  0  0  0  0  0  0
   -1.6440    0.1670   -1.7800 C   0  0  0  0  0  0  0  0  0  0  0  0
   -2.3650    0.4580   -2.9100 C   0  0  0  0  0  0  0  0  0  0  0  0
   -1.5230    0.4050   -3.9870 C   0  0  0  0  0  0  0  0  0  0  0  0
   -0.2860    0.0760   -3.4660 C   0  0  0  0  0  0  0  0  0  0  0  0
   -0.4340   -0.0470   -2.1760 O   0  0  0  0  0  0  0  0  0  0  0  0
    2.9220   -1.2930    2.7150 C   0  0  0  0  0  0  0  0  0  0  0  0
    4.2910   -1.4360    2.7470 C   0  0  0  0  0  0  0  0  0  0  0  0
    5.0770   -2.0540    4.1820 Cl  0  0  0  0  0  0  0  0  0  0  0  0
    5.0660   -1.0990    1.6630 C   0  0  0  0  0  0  0  0  0  0  0  0
    6.4470   -1.2360    1.6760 O   0  0  0  0  0  0  0  0  0  0  0  0
    7.2950   -0.1700    2.1130 C   0  0  0  0  0  0  0  0  0  0  0  0
    4.4420   -0.6130    0.5380 C   0  0  0  0  0  0  0  0  0  0  0  0
    5.1690   -0.2520   -0.6010 O   0  0  0  0  0  0  0  0  0  0  0  0
  1  2  1  0
  2  3  1  0
  4  3  1  6
  4  5  1  0
  4 39  1  0
  5  6  1  0
  6  7  1  0
  7  8  2  0
  7 38  1  0
  8  9  1  0
  8 32  1  0
  9 10  2  0
  9 11  1  0
 11 12  1  0
 12 13  2  0
 12 26  1  0
 13 14  1  0
 14 15  2  0
 15 16  1  0
 15 25  1  0
 16 17  2  0
 16 23  1  0
 17 18  1  0
 18 19  2  0
 19 20  1  0
 19 21  1  0
 21 22  1  0
 21 23  2  0
 23 24  1  0
 25 26  2  0
 26 27  1  0
 27 28  2  0
 27 31  1  0
 28 29  1  0
 29 30  2  0
 30 31  1  0
 32 33  2  0
 33 34  1  0
 33 35  1  0
 35 36  1  0
 35 38  2  0
 36 37  1  0
 38 39  1  0
M  END
