
     RDKit          3D

 40 44  0  0  0  0  0  0  0  0999 V2000
   -6.1210   -0.3300    1.7290 C   0  0  0  0  0  0  0  0  0  0  0  0
   -5.5140   -1.5010    0.9450 C   0  0  2  0  0  0  0  0  0  0  0  0
   -6.2840   -1.6570   -0.2340 F   0  0  0  0  0  0  0  0  0  0  0  0
   -6.1080   -2.6750    1.6850 F   0  0  0  0  0  0  0  0  0  0  0  0
   -4.2090   -1.6950    0.7940 C   0  0  0  0  0  0  0  0  0  0  0  0
   -2.8800   -1.3300    0.6570 C   0  0  0  0  0  0  0  0  0  0  0  0
   -2.0270   -2.4910    0.5390 C   0  0  0  0  0  0  0  0  0  0  0  0
   -0.7340   -2.6560    0.2160 C   0  0  0  0  0  0  0  0  0  0  0  0
   -0.3410   -4.0590    0.2520 C   0  0  0  0  0  0  0  0  0  0  0  0
   -1.5150   -4.6710    0.2500 C   0  0  0  0  0  0  0  0  0  0  0  0
   -2.4090   -3.9060    0.8880 C   0  0  0  0  0  0  0  0  0  0  0  0
   -2.5940    0.0360    0.3820 C   0  0  0  0  0  0  0  0  0  0  0  0
   -1.5180    0.8160    0.5310 C   0  0  0  0  0  0  0  0  0  0  0  0
   -0.2310    0.5200    1.1020 C   0  0  0  0  0  0  0  0  0  0  0  0
    0.6870    1.4370    1.0160 O   0  0  0  0  0  0  0  0  0  0  0  0
    0.2040   -0.5720    1.7520 O   0  0  0  0  0  0  0  0  0  0  0  0
    1.5070   -0.7230    2.2940 C   0  0  0  0  0  0  0  0  0  0  0  0
    2.5200   -0.5120    1.2180 C   0  0  0  0  0  0  0  0  0  0  0  0
    2.1760   -0.3660    0.0270 O   0  0  0  0  0  0  0  0  0  0  0  0
    3.9070   -0.4620    1.4920 N   0  0  0  0  0  0  0  0  0  0  0  0
    4.8880   -0.2470    0.4650 C   0  0  0  0  0  0  0  0  0  0  0  0
    5.2370    1.0600    0.1020 C   0  0  0  0  0  0  0  0  0  0  0  0
    6.1470    1.2910   -0.8920 C   0  0  0  0  0  0  0  0  0  0  0  0
    6.7380    0.2450   -1.5480 C   0  0  0  0  0  0  0  0  0  0  0  0
    6.4230   -1.0790   -1.2200 C   0  0  0  0  0  0  0  0  0  0  0  0
    5.5030   -1.2560   -0.2180 C   0  0  0  0  0  0  0  0  0  0  0  0
    7.1810   -1.8500   -2.0570 O   0  0  0  0  0  0  0  0  0  0  0  0
    8.2540   -1.0630   -2.6090 C   0  0  0  0  0  0  0  0  0  0  0  0
    7.6790    0.2560   -2.5710 O   0  0  0  0  0  0  0  0  0  0  0  0
   -1.7940    2.1660   -0.0800 C   0  0  0  0  0  0  0  0  0  0  0  0
   -1.0700    3.2640   -0.1840 C   0  0  0  0  0  0  0  0  0  0  0  0
   -1.5930    4.4690   -0.8450 C   0  0  0  0  0  0  0  0  0  0  0  0
   -2.7990    4.5150   -1.3610 C   0  0  0  0  0  0  0  0  0  0  0  0
   -3.3200    5.5960   -1.9740 F   0  0  0  0  0  0  0  0  0  0  0  0
   -3.6250    3.2980   -1.2530 C   0  0  0  0  0  0  0  0  0  0  0  0
   -4.8380    3.3260   -1.7690 C   0  0  0  0  0  0  0  0  0  0  0  0
   -5.4350    4.7930   -2.5570 Cl  0  0  0  0  0  0  0  0  0  0  0  0
   -3.0830    2.1660   -0.6110 N   0  0  0  0  0  0  0  0  0  0  0  0
   -3.6010    0.8830   -0.3530 C   0  0  0  0  0  0  0  0  0  0  0  0
   -4.7470    0.5290   -0.7090 O   0  0  0  0  0  0  0  0  0  0  0  0
  2  1  1  1
  2  3  1  0
  2  4  1  0
  2  5  1  0
  5  6  2  3
  6  7  1  0
  6 12  1  0
  7  8  2  0
  7 11  1  0
  8  9  1  0
  9 10  2  0
 10 11  2  0
 12 13  2  0
 12 39  1  0
 13 14  1  0
 13 30  1  0
 14 15  2  0
 14 16  1  0
 16 17  1  0
 17 18  1  0
 18 19  2  0
 18 20  1  0
 20 21  1  0
 21 22  2  0
 21 26  1  0
 22 23  1  0
 23 24  2  0
 24 25  1  0
 24 29  1  0
 25 26  2  0
 25 27  1  0
 27 28  1  0
 28 29  1  0
 30 31  2  0
 30 38  1  0
 31 32  1  0
 32 33  2  0
 33 34  1  0
 33 35  1  0
 35 36  2  3
 35 38  1  0
 36 37  1  0
 38 39  1  0
 39 40  2  0
M  END
