
     RDKit          3D

 39 43  0  0  0  0  0  0  0  0999 V2000
   -5.0590   -2.3720   -1.9570 C   0  0  0  0  0  0  0  0  0  0  0  0
   -4.9550   -2.8120   -0.4930 C   0  0  1  0  0  0  0  0  0  0  0  0
   -3.7300   -2.1170    0.0730 C   0  0  0  0  0  0  0  0  0  0  0  0
   -4.2720   -0.9140    0.6770 N   0  0  0  0  0  0  0  0  0  0  0  0
   -3.5390    0.2800    0.9050 C   0  0  0  0  0  0  0  0  0  0  0  0
   -4.1360    1.2560    1.4450 O   0  0  0  0  0  0  0  0  0  0  0  0
   -2.1020    0.3760    0.5170 C   0  0  0  0  0  0  0  0  0  0  0  0
   -1.6450    1.6540    0.8560 O   0  0  0  0  0  0  0  0  0  0  0  0
   -0.3330    2.0530    0.6140 C   0  0  0  0  0  0  0  0  0  0  0  0
    0.5660    1.1950    0.0280 C   0  0  0  0  0  0  0  0  0  0  0  0
    1.8700    1.5570   -0.2250 C   0  0  0  0  0  0  0  0  0  0  0  0
    2.8090    0.6330   -0.8460 C   0  0  0  0  0  0  0  0  0  0  0  0
    4.1360    0.8510   -1.1620 C   0  0  0  0  0  0  0  0  0  0  0  0
    4.6410   -0.2940   -1.7360 C   0  0  0  0  0  0  0  0  0  0  0  0
    5.9300   -0.4810   -2.1900 O   0  0  0  0  0  0  0  0  0  0  0  0
    6.9620   -0.8640   -1.3580 C   0  0  0  0  0  0  0  0  0  0  0  0
    6.7310   -1.0730   -0.0220 C   0  0  0  0  0  0  0  0  0  0  0  0
    7.7470   -1.4620    0.8590 C   0  0  0  0  0  0  0  0  0  0  0  0
    7.3770   -1.7080    2.5430 Cl  0  0  0  0  0  0  0  0  0  0  0  0
    9.0120   -1.6390    0.3680 C   0  0  0  0  0  0  0  0  0  0  0  0
    9.2340   -1.4250   -0.9800 C   0  0  0  0  0  0  0  0  0  0  0  0
    8.2310   -1.0420   -1.8470 C   0  0  0  0  0  0  0  0  0  0  0  0
    8.5360   -0.8480   -3.1870 O   0  0  0  0  0  0  0  0  0  0  0  0
    3.6160   -1.1590   -1.7490 N   0  0  0  0  0  0  0  0  0  0  0  0
    2.5550   -0.5960   -1.2240 O   0  0  0  0  0  0  0  0  0  0  0  0
    2.2350    2.8320    0.1400 C   0  0  0  0  0  0  0  0  0  0  0  0
    1.3270    3.7140    0.7370 C   0  0  0  0  0  0  0  0  0  0  0  0
    0.0270    3.3610    0.9930 C   0  0  0  0  0  0  0  0  0  0  0  0
   -0.9330    4.1600    1.5750 O   0  0  0  0  0  0  0  0  0  0  0  0
   -0.6930    5.4640    1.9870 C   0  0  2  0  0  0  0  0  0  0  0  0
   -1.0580    5.5170    3.3400 F   0  0  0  0  0  0  0  0  0  0  0  0
   -1.6450    6.2620    1.3290 F   0  0  0  0  0  0  0  0  0  0  0  0
   -5.6190   -1.1630    0.9780 C   0  0  0  0  0  0  0  0  0  0  0  0
   -6.5030   -0.4850    1.8030 C   0  0  0  0  0  0  0  0  0  0  0  0
   -7.8110   -0.8940    1.9700 C   0  0  0  0  0  0  0  0  0  0  0  0
   -8.2210   -2.0220    1.2770 C   0  0  0  0  0  0  0  0  0  0  0  0
   -9.5190   -2.4130    1.4550 F   0  0  0  0  0  0  0  0  0  0  0  0
   -7.3850   -2.7350    0.4450 C   0  0  0  0  0  0  0  0  0  0  0  0
   -6.0690   -2.2860    0.3030 C   0  0  0  0  0  0  0  0  0  0  0  0
  2  1  1  6
  2  3  1  0
  2 39  1  0
  3  4  1  0
  4  5  1  0
  4 33  1  0
  5  6  2  0
  5  7  1  0
  7  8  1  0
  8  9  1  0
  9 10  2  0
  9 28  1  0
 10 11  1  0
 11 12  1  0
 11 26  2  0
 12 13  2  0
 12 25  1  0
 13 14  1  0
 14 15  1  0
 14 24  2  0
 15 16  1  0
 16 17  2  0
 16 22  1  0
 17 18  1  0
 18 19  1  0
 18 20  2  0
 20 21  1  0
 21 22  2  0
 22 23  1  0
 24 25  1  0
 26 27  1  0
 27 28  2  0
 28 29  1  0
 29 30  1  0
 30 31  1  1
 30 32  1  0
 33 34  2  0
 33 39  1  0
 34 35  1  0
 35 36  2  0
 36 37  1  0
 36 38  1  0
 38 39  2  0
M  END
