
     RDKit          3D

 40 44  0  0  0  0  0  0  0  0999 V2000
    8.7630    2.6290   -2.3310 C   0  0  0  0  0  0  0  0  0  0  0  0
    8.8810    1.0500   -3.0870 S   0  0  2  0  0  0  0  0  0  0  0  0
   10.1740    0.9840   -3.8660 O   0  0  0  0  0  0  0  0  0  0  0  0
    7.7830    0.9850   -4.1450 O   0  0  0  0  0  0  0  0  0  0  0  0
    8.7350   -0.2680   -1.9460 C   0  0  0  0  0  0  0  0  0  0  0  0
    7.4070   -0.2820   -1.2660 C   0  0  0  0  0  0  0  0  0  0  0  0
    7.0670    0.8410   -0.4620 N   0  0  0  0  0  0  0  0  0  0  0  0
    6.5160    0.4530    0.8320 C   0  0  0  0  0  0  0  0  0  0  0  0
    5.0550    0.2380    0.7340 C   0  0  0  0  0  0  0  0  0  0  0  0
    4.3090    0.3890   -0.4070 C   0  0  0  0  0  0  0  0  0  0  0  0
    3.0020    0.0850   -0.0290 C   0  0  0  0  0  0  0  0  0  0  0  0
    3.0110   -0.2340    1.3120 C   0  0  0  0  0  0  0  0  0  0  0  0
    1.8920   -0.6200    2.1610 C   0  0  0  0  0  0  0  0  0  0  0  0
    2.0300   -0.9140    3.4930 C   0  0  0  0  0  0  0  0  0  0  0  0
    0.9600   -1.2800    4.2800 C   0  0  0  0  0  0  0  0  0  0  0  0
   -0.3110   -1.3610    3.7310 C   0  0  0  0  0  0  0  0  0  0  0  0
   -1.3630   -1.7180    4.4870 N   0  0  0  0  0  0  0  0  0  0  0  0
   -2.5800   -1.7870    3.9170 C   0  0  0  0  0  0  0  0  0  0  0  0
   -2.7550   -1.5060    2.6160 N   0  0  0  0  0  0  0  0  0  0  0  0
   -1.7420   -1.1400    1.7930 C   0  0  0  0  0  0  0  0  0  0  0  0
   -1.9300   -0.8720    0.4300 N   0  0  0  0  0  0  0  0  0  0  0  0
   -3.2170   -0.9180   -0.1980 C   0  0  0  0  0  0  0  0  0  0  0  0
   -4.4260   -0.8600    0.4230 C   0  0  0  0  0  0  0  0  0  0  0  0
   -5.6350   -0.9460   -0.2890 C   0  0  0  0  0  0  0  0  0  0  0  0
   -5.6550   -1.0930   -1.6530 C   0  0  0  0  0  0  0  0  0  0  0  0
   -6.8140   -1.1840   -2.3980 O   0  0  0  0  0  0  0  0  0  0  0  0
   -8.1110   -1.1410   -1.8950 C   0  0  0  0  0  0  0  0  0  0  0  0
   -8.4480    0.1230   -1.1770 C   0  0  0  0  0  0  0  0  0  0  0  0
   -9.2290    0.1480   -0.0550 C   0  0  0  0  0  0  0  0  0  0  0  0
   -9.5120    1.3410    0.5660 C   0  0  0  0  0  0  0  0  0  0  0  0
   -9.0320    2.5470    0.0990 C   0  0  0  0  0  0  0  0  0  0  0  0
   -8.2330    2.5090   -1.0510 C   0  0  0  0  0  0  0  0  0  0  0  0
   -7.7570    3.7120   -1.5120 F   0  0  0  0  0  0  0  0  0  0  0  0
   -7.9530    1.3110   -1.6690 C   0  0  0  0  0  0  0  0  0  0  0  0
   -4.4360   -1.1530   -2.2930 C   0  0  0  0  0  0  0  0  0  0  0  0
   -4.4280   -1.3400   -4.0470 Cl  0  0  0  0  0  0  0  0  0  0  0  0
   -3.2510   -1.0690   -1.5970 C   0  0  0  0  0  0  0  0  0  0  0  0
   -0.5010   -1.0710    2.3810 C   0  0  0  0  0  0  0  0  0  0  0  0
    0.5940   -0.7100    1.6310 C   0  0  0  0  0  0  0  0  0  0  0  0
    4.2450   -0.1320    1.7300 O   0  0  0  0  0  0  0  0  0  0  0  0
  2  1  1  1
  2  3  2  0
  2  4  2  0
  2  5  1  0
  5  6  1  0
  6  7  1  0
  7  8  1  0
  8  9  1  0
  9 10  2  0
  9 40  1  0
 10 11  1  0
 11 12  2  0
 12 13  1  0
 12 40  1  0
 13 14  2  0
 13 39  1  0
 14 15  1  0
 15 16  2  0
 16 17  1  0
 16 38  1  0
 17 18  2  0
 18 19  1  0
 19 20  2  0
 20 21  1  0
 20 38  1  0
 21 22  1  0
 22 23  2  0
 22 37  1  0
 23 24  1  0
 24 25  2  0
 25 26  1  0
 25 35  1  0
 26 27  1  0
 27 28  1  0
 28 29  2  0
 28 34  1  0
 29 30  1  0
 30 31  2  0
 31 32  1  0
 32 33  1  0
 32 34  2  0
 35 36  1  0
 35 37  2  0
 38 39  2  0
M  CHG  1   7   1
M  END
