
     RDKit          3D

 17 18  0  0  0  0  0  0  0  0999 V2000
    4.3380    0.8600    1.3580 C   0  0  0  0  0  0  0  0  0  0  0  0
    2.9910    1.2030    1.1660 O   0  0  0  0  0  0  0  0  0  0  0  0
    2.0980    0.3080    0.5480 C   0  0  0  0  0  0  0  0  0  0  0  0
    2.4980   -0.9370    0.1060 C   0  0  0  0  0  0  0  0  0  0  0  0
    1.6110   -1.8080   -0.4990 C   0  0  0  0  0  0  0  0  0  0  0  0
    0.3020   -1.4670   -0.6830 C   0  0  0  0  0  0  0  0  0  0  0  0
   -0.6390   -2.3070   -1.2890 O   0  0  0  0  0  0  0  0  0  0  0  0
   -0.1140   -0.2100   -0.2400 C   0  0  0  0  0  0  0  0  0  0  0  0
   -1.4860    0.1780   -0.4190 C   0  0  0  0  0  0  0  0  0  0  0  0
   -2.5140   -0.6850   -0.1030 C   0  0  0  0  0  0  0  0  0  0  0  0
   -3.8210   -0.2840   -0.2860 C   0  0  0  0  0  0  0  0  0  0  0  0
   -4.8680   -1.1010    0.0120 F   0  0  0  0  0  0  0  0  0  0  0  0
   -4.1460    0.9790   -0.7850 C   0  0  0  0  0  0  0  0  0  0  0  0
   -3.1100    1.8390   -1.1000 C   0  0  0  0  0  0  0  0  0  0  0  0
   -1.7920    1.4300   -0.9140 C   0  0  0  0  0  0  0  0  0  0  0  0
   -0.8530    2.3470   -1.2530 F   0  0  0  0  0  0  0  0  0  0  0  0
    0.7760    0.6580    0.3650 C   0  0  0  0  0  0  0  0  0  0  0  0
  1  2  1  0
  2  3  1  0
  3  4  2  0
  3 17  1  0
  4  5  1  0
  5  6  2  0
  6  7  1  0
  6  8  1  0
  8  9  1  0
  8 17  2  0
  9 10  2  0
  9 15  1  0
 10 11  1  0
 11 12  1  0
 11 13  2  0
 13 14  1  0
 14 15  2  0
 15 16  1  0
M  END
