
     RDKit          3D

 12 11  0  0  0  0  0  0  0  0999 V2000
    3.7370   -1.8350    0.3800 O   0  0  0  0  0  0  0  0  0  0  0  0
    2.7730   -1.3750   -0.5210 C   0  0  0  0  0  0  0  0  0  0  0  0
    1.7130   -0.6710    0.2840 C   0  0  0  0  0  0  0  0  0  0  0  0
    0.6880   -0.1640   -0.5090 O   0  0  0  0  0  0  0  0  0  0  0  0
   -0.2270    0.4560    0.2940 C   0  0  1  0  0  0  0  0  0  0  0  0
   -0.3000    1.9430   -0.0720 C   0  0  0  0  0  0  0  0  0  0  0  0
   -1.5310    2.7440    1.0180 S   0  0  0  0  0  0  0  0  0  0  0  0
   -1.6050    4.3950    0.6040 O   0  0  0  0  0  0  0  0  0  0  0  0
   -1.6250   -0.0940    0.1810 C   0  0  1  0  0  0  0  0  0  0  0  0
   -2.1530    0.0040   -1.0930 O   0  0  0  0  0  0  0  0  0  0  0  0
   -1.7580   -1.4820    0.7480 C   0  0  0  0  0  0  0  0  0  0  0  0
   -1.1200   -2.4460    0.0060 O   0  0  0  0  0  0  0  0  0  0  0  0
  1  2  1  0
  2  3  1  0
  3  4  1  0
  4  5  1  0
  5  6  1  6
  5  9  1  0
  6  7  1  0
  7  8  1  0
  9 10  1  6
  9 11  1  0
 11 12  1  0
M  END
