
     RDKit          3D

 11 11  0  0  0  0  0  0  0  0999 V2000
    3.5060    0.4830    0.0450 O   0  0  0  0  0  0  0  0  0  0  0  0
    2.3300   -0.1770   -0.5700 S   0  0  1  0  0  0  0  0  0  0  0  0
    2.6380   -0.9660   -1.7870 O   0  0  0  0  0  0  0  0  0  0  0  0
    1.4000   -1.1300    0.6320 C   0  0  0  0  0  0  0  0  0  0  0  0
    0.5350    0.0110    1.1880 C   0  0  0  0  0  0  0  0  0  0  0  0
   -0.0480    0.7040    0.0180 C   0  0  2  0  0  0  0  0  0  0  0  0
   -0.5760    1.9310    0.4720 O   0  0  0  0  0  0  0  0  0  0  0  0
   -1.1640   -0.0430   -0.6310 C   0  0  0  0  0  0  0  0  0  0  0  0
   -2.3200   -0.2810    0.3160 C   0  0  0  0  0  0  0  0  0  0  0  0
   -3.3540   -0.9820   -0.3460 O   0  0  0  0  0  0  0  0  0  0  0  0
    1.0630    1.0380   -0.9450 C   0  0  0  0  0  0  0  0  0  0  0  0
  1  2  2  0
  2  3  2  0
  2  4  1  1
  2 11  1  0
  4  5  1  0
  5  6  1  0
  6  7  1  1
  6  8  1  0
  6 11  1  0
  8  9  1  0
  9 10  1  0
M  END
