
     RDKit          3D

 11 11  0  0  0  0  0  0  0  0999 V2000
    2.1050    1.5110    0.4820 O   0  0  0  0  0  0  0  0  0  0  0  0
    2.2940    0.2250   -0.0540 C   0  0  1  0  0  0  0  0  0  0  0  0
    3.6720   -0.0790    0.0800 O   0  0  0  0  0  0  0  0  0  0  0  0
    1.5270   -0.6290    0.6690 O   0  0  0  0  0  0  0  0  0  0  0  0
    0.4910   -1.2720    0.0520 C   0  0  0  0  0  0  0  0  0  0  0  0
   -0.5730   -0.3040   -0.3790 C   0  0  2  0  0  0  0  0  0  0  0  0
   -0.0820    0.5970   -1.2630 O   0  0  0  0  0  0  0  0  0  0  0  0
   -1.1150    0.3220    0.8920 C   0  0  0  0  0  0  0  0  0  0  0  0
   -2.2400    1.2500    0.4400 C   0  0  0  0  0  0  0  0  0  0  0  0
   -3.1270    0.0690   -0.6560 S   0  0  0  0  0  0  0  0  0  0  0  0
   -1.7460   -1.1030   -0.9220 C   0  0  0  0  0  0  0  0  0  0  0  0
  2  1  1  1
  2  3  1  0
  2  4  1  0
  4  5  1  0
  5  6  1  0
  6  7  1  6
  6  8  1  0
  6 11  1  0
  8  9  1  0
  9 10  1  0
 10 11  1  0
M  END
