
     RDKit          3D

 11 10  0  0  0  0  0  0  0  0999 V2000
    4.1650    0.5230    0.3910 C   0  0  0  0  0  0  0  0  0  0  0  0
    2.8860    0.3750   -0.0770 O   0  0  0  0  0  0  0  0  0  0  0  0
    1.9320    0.1640    0.9090 C   0  0  1  0  0  0  0  0  0  0  0  0
    0.9860    1.1810    0.9770 O   0  0  0  0  0  0  0  0  0  0  0  0
    1.2190   -1.1500    0.7560 C   0  0  0  0  0  0  0  0  0  0  0  0
    0.3560   -1.2910   -0.8090 S   0  0  0  0  0  0  0  0  0  0  0  0
   -1.0300   -0.1680   -0.9960 C   0  0  0  0  0  0  0  0  0  0  0  0
   -2.1530   -0.4980   -0.0400 C   0  0  2  0  0  0  0  0  0  0  0  0
   -2.5900   -1.8010   -0.3000 O   0  0  0  0  0  0  0  0  0  0  0  0
   -3.3250    0.4440   -0.2140 C   0  0  0  0  0  0  0  0  0  0  0  0
   -2.9450    1.7510    0.0330 O   0  0  0  0  0  0  0  0  0  0  0  0
  1  2  1  0
  2  3  1  0
  3  4  1  6
  3  5  1  0
  5  6  1  0
  6  7  1  0
  7  8  1  0
  8  9  1  6
  8 10  1  0
 10 11  1  0
M  END
