
     RDKit          3D

 12 12  0  0  0  0  0  0  0  0999 V2000
    3.1330    1.5580    0.1920 O   0  0  0  0  0  0  0  0  0  0  0  0
    2.4790    0.5350   -0.5050 C   0  0  0  0  0  0  0  0  0  0  0  0
    1.3440    0.0690    0.3770 C   0  0  1  0  0  0  0  0  0  0  0  0
    0.2620    1.5190    0.6490 S   0  0  0  0  0  0  0  0  0  0  0  0
   -1.1200    1.3460   -0.5160 C   0  0  2  0  0  0  0  0  0  0  0  0
   -2.0050    2.3960   -0.2500 O   0  0  0  0  0  0  0  0  0  0  0  0
   -1.7780    0.0140   -0.2290 C   0  0  2  0  0  0  0  0  0  0  0  0
   -2.7630    0.2760    0.7520 O   0  0  0  0  0  0  0  0  0  0  0  0
   -0.8490   -1.0000    0.3390 C   0  0  1  0  0  0  0  0  0  0  0  0
   -1.4210   -2.2700    0.1130 O   0  0  0  0  0  0  0  0  0  0  0  0
    0.5140   -1.0140   -0.2750 C   0  0  2  0  0  0  0  0  0  0  0  0
    1.1110   -2.2420    0.0960 O   0  0  0  0  0  0  0  0  0  0  0  0
  1  2  1  0
  3  2  1  6
  3  4  1  0
  3 11  1  0
  4  5  1  0
  5  6  1  1
  5  7  1  0
  7  8  1  1
  7  9  1  0
  9 10  1  6
  9 11  1  0
 11 12  1  1
M  END
