
     RDKit          3D

 12 11  0  0  0  0  0  0  0  0999 V2000
   -3.0660    2.6940   -0.4310 O   0  0  0  0  0  0  0  0  0  0  0  0
   -1.7720    1.9370   -0.2320 S   0  0  0  0  0  0  0  0  0  0  0  0
   -2.0330    0.1720   -0.1080 C   0  0  0  0  0  0  0  0  0  0  0  0
   -0.7590   -0.5490    0.1830 C   0  0  1  0  0  0  0  0  0  0  0  0
   -0.2200   -0.1190    1.3680 O   0  0  0  0  0  0  0  0  0  0  0  0
   -1.1390   -2.0240    0.4300 C   0  0  0  0  0  0  0  0  0  0  0  0
   -1.6910   -2.5290   -0.7260 O   0  0  0  0  0  0  0  0  0  0  0  0
    0.1940   -0.5760   -0.9710 C   0  0  0  0  0  0  0  0  0  0  0  0
    0.7800    0.6000   -1.3130 O   0  0  0  0  0  0  0  0  0  0  0  0
    1.5570    1.2170   -0.3920 C   0  0  0  0  0  0  0  0  0  0  0  0
    2.7470    0.3860    0.0670 C   0  0  0  0  0  0  0  0  0  0  0  0
    3.4260    1.1720    1.0040 O   0  0  0  0  0  0  0  0  0  0  0  0
  1  2  2  0
  2  3  1  0
  3  4  1  0
  4  5  1  1
  4  6  1  0
  4  8  1  0
  6  7  1  0
  8  9  1  0
  9 10  1  0
 10 11  1  0
 11 12  1  0
M  END
