
     RDKit          3D

 11 10  0  0  0  0  0  0  0  0999 V2000
    3.6790    0.8400    1.1420 O   0  0  0  0  0  0  0  0  0  0  0  0
    3.6410    0.1550   -0.0570 C   0  0  0  0  0  0  0  0  0  0  0  0
    2.1670   -0.0530   -0.4900 C   0  0  0  0  0  0  0  0  0  0  0  0
    1.5450   -0.7670    0.4740 O   0  0  0  0  0  0  0  0  0  0  0  0
    0.2610   -1.1460    0.3490 C   0  0  0  0  0  0  0  0  0  0  0  0
   -0.6850    0.0050    0.2030 C   0  0  1  0  0  0  0  0  0  0  0  0
   -0.4020    0.7060   -0.9450 O   0  0  0  0  0  0  0  0  0  0  0  0
   -2.0960   -0.5650    0.1130 C   0  0  1  0  0  0  0  0  0  0  0  0
   -2.3650   -1.2700    1.2820 O   0  0  0  0  0  0  0  0  0  0  0  0
   -3.0510    0.6070    0.0500 C   0  0  0  0  0  0  0  0  0  0  0  0
   -2.7980    1.3260   -1.1150 O   0  0  0  0  0  0  0  0  0  0  0  0
  1  2  1  0
  2  3  1  0
  3  4  1  0
  4  5  1  0
  5  6  1  0
  6  7  1  6
  6  8  1  0
  8  9  1  1
  8 10  1  0
 10 11  1  0
M  END
