
     RDKit          3D

 11 11  0  0  0  0  0  0  0  0999 V2000
   -2.9580    0.2320   -1.5260 O   0  0  0  0  0  0  0  0  0  0  0  0
   -2.5230   -0.1350   -0.4040 C   0  0  0  0  0  0  0  0  0  0  0  0
   -3.2440   -1.1440    0.2330 O   0  0  0  0  0  0  0  0  0  0  0  0
   -1.3140    0.4520    0.2330 C   0  0  1  0  0  0  0  0  0  0  0  0
   -0.3240   -0.6490    0.4370 C   0  0  0  0  0  0  0  0  0  0  0  0
    1.0040   -0.2350   -0.0950 C   0  0  2  0  0  0  0  0  0  0  0  0
    1.8510   -1.3150   -0.0980 O   0  0  0  0  0  0  0  0  0  0  0  0
    1.5580    0.9010    0.7720 C   0  0  0  0  0  0  0  0  0  0  0  0
    2.8100    1.3040    0.2530 O   0  0  0  0  0  0  0  0  0  0  0  0
    0.7870    0.3550   -1.4730 C   0  0  0  0  0  0  0  0  0  0  0  0
   -0.5460    1.5380   -1.0130 S   0  0  0  0  0  0  0  0  0  0  0  0
  1  2  2  0
  2  3  1  0
  4  2  1  6
  4  5  1  0
  4 11  1  0
  5  6  1  0
  6  7  1  6
  6  8  1  0
  6 10  1  0
  8  9  1  0
 10 11  1  0
M  END
