
     RDKit          3D

 25 27  0  0  0  0  0  0  0  0999 V2000
    4.8030   -2.0760    1.2610 O   0  0  0  0  0  0  0  0  0  0  0  0
    4.9140   -1.0970    0.4550 C   0  0  0  0  0  0  0  0  0  0  0  0
    6.0820   -0.9410   -0.2580 C   0  0  0  0  0  0  0  0  0  0  0  0
    7.4040   -2.0800   -0.0580 Cl  0  0  0  0  0  0  0  0  0  0  0  0
    6.1910    0.1220   -1.1260 C   0  0  0  0  0  0  0  0  0  0  0  0
    5.1600    1.0110   -1.2820 C   0  0  0  0  0  0  0  0  0  0  0  0
    4.0050    0.8250   -0.5540 C   0  0  0  0  0  0  0  0  0  0  0  0
    3.9090   -0.2140    0.2900 N   0  0  0  0  0  0  0  0  0  0  0  0
    2.6790   -0.4100    1.0660 C   0  0  0  0  0  0  0  0  0  0  0  0
    1.5070   -0.1250    0.1990 C   0  0  0  0  0  0  0  0  0  0  0  0
    0.3330   -0.9210    0.2420 N   0  0  0  0  0  0  0  0  0  0  0  0
   -0.8280   -0.4060    0.0340 C   0  0  0  0  0  0  0  0  0  0  0  0
   -2.0280   -1.2220    0.0790 C   0  0  0  0  0  0  0  0  0  0  0  0
   -1.9550   -2.5950    0.3490 C   0  0  0  0  0  0  0  0  0  0  0  0
   -3.1100   -3.3460    0.3860 C   0  0  0  0  0  0  0  0  0  0  0  0
   -2.9710   -5.0680    0.7300 Cl  0  0  0  0  0  0  0  0  0  0  0  0
   -4.3240   -2.7360    0.1550 C   0  0  0  0  0  0  0  0  0  0  0  0
   -4.4130   -1.3850   -0.1130 C   0  0  0  0  0  0  0  0  0  0  0  0
   -3.2640   -0.6210   -0.1530 C   0  0  0  0  0  0  0  0  0  0  0  0
   -3.2850    0.7430   -0.4170 O   0  0  0  0  0  0  0  0  0  0  0  0
   -4.5470    1.3400   -0.6500 C   0  0  0  0  0  0  0  0  0  0  0  0
   -4.4290    2.8180   -0.9230 C   0  0  0  0  0  0  0  0  0  0  0  0
   -3.8390    3.4120    0.1990 O   0  0  0  0  0  0  0  0  0  0  0  0
    1.5900    0.9030   -0.6240 C   0  0  0  0  0  0  0  0  0  0  0  0
    2.8400    1.7440   -0.6640 C   0  0  0  0  0  0  0  0  0  0  0  0
  1  2  2  0
  2  3  1  0
  2  8  1  0
  3  4  1  0
  3  5  2  0
  5  6  1  0
  6  7  2  0
  7  8  1  0
  7 25  1  0
  8  9  1  0
  9 10  1  0
 10 11  1  0
 10 24  2  0
 11 12  2  3
 12 13  1  0
 13 14  2  0
 13 19  1  0
 14 15  1  0
 15 16  1  0
 15 17  2  0
 17 18  1  0
 18 19  2  0
 19 20  1  0
 20 21  1  0
 21 22  1  0
 22 23  1  0
 24 25  1  0
M  END
