
     RDKit          3D

 25 26  0  0  0  0  0  0  0  0999 V2000
   -6.4900    1.8930   -0.0760 C   0  0  0  0  0  0  0  0  0  0  0  0
   -5.2020    1.2680   -0.1010 N   0  0  0  0  0  0  0  0  0  0  0  0
   -5.0010    0.0010   -0.0640 C   0  0  0  0  0  0  0  0  0  0  0  0
   -3.6810   -0.5490   -0.0930 C   0  0  0  0  0  0  0  0  0  0  0  0
   -3.5590   -1.8720   -0.0390 C   0  0  0  0  0  0  0  0  0  0  0  0
   -4.6750   -2.8370    0.0500 C   0  0  2  0  0  0  0  0  0  0  0  0
   -5.7180   -2.6610   -1.3830 Cl  0  0  0  0  0  0  0  0  0  0  0  0
   -5.6360   -2.5400    1.5140 Cl  0  0  0  0  0  0  0  0  0  0  0  0
   -2.4730    0.2810   -0.1410 C   0  0  0  0  0  0  0  0  0  0  0  0
   -2.4830    1.6420   -0.3540 C   0  0  0  0  0  0  0  0  0  0  0  0
   -1.3210    2.4300   -0.3610 C   0  0  0  0  0  0  0  0  0  0  0  0
   -0.1810    1.8080   -0.1510 N   0  0  0  0  0  0  0  0  0  0  0  0
   -0.0430    0.4990    0.0650 C   0  0  0  0  0  0  0  0  0  0  0  0
    1.1360   -0.1440    0.2810 O   0  0  0  0  0  0  0  0  0  0  0  0
    2.4160    0.3250    0.3350 C   0  0  0  0  0  0  0  0  0  0  0  0
    2.7130    1.6540    0.1580 C   0  0  0  0  0  0  0  0  0  0  0  0
    4.0230    2.1370    0.2120 C   0  0  0  0  0  0  0  0  0  0  0  0
    5.0260    1.2280    0.4520 C   0  0  0  0  0  0  0  0  0  0  0  0
    6.3520    1.6240    0.5220 O   0  0  0  0  0  0  0  0  0  0  0  0
    4.7490   -0.1240    0.6350 C   0  0  0  0  0  0  0  0  0  0  0  0
    5.8210   -1.0050    0.8770 O   0  0  0  0  0  0  0  0  0  0  0  0
    6.4500   -1.6130   -0.2600 C   0  0  0  0  0  0  0  0  0  0  0  0
    3.4620   -0.5660    0.5760 C   0  0  0  0  0  0  0  0  0  0  0  0
    3.1240   -2.0000    0.7650 C   0  0  0  0  0  0  0  0  0  0  0  0
   -1.2250   -0.2770    0.0690 C   0  0  0  0  0  0  0  0  0  0  0  0
  1  2  1  0
  2  3  2  3
  3  4  1  0
  4  5  2  3
  4  9  1  0
  5  6  1  0
  6  7  1  6
  6  8  1  0
  9 10  2  0
  9 25  1  0
 10 11  1  0
 11 12  2  0
 12 13  1  0
 13 14  1  0
 13 25  2  0
 14 15  1  0
 15 16  2  0
 15 23  1  0
 16 17  1  0
 17 18  2  0
 18 19  1  0
 18 20  1  0
 20 21  1  0
 20 23  2  0
 21 22  1  0
 23 24  1  0
M  END
