
     RDKit          3D

 25 27  0  0  0  0  0  0  0  0999 V2000
   -1.9660    3.6630   -0.7360 C   0  0  0  0  0  0  0  0  0  0  0  0
   -1.3410    2.2910   -0.6390 C   0  0  0  0  0  0  0  0  0  0  0  0
    0.0270    1.9920   -1.6540 Cl  0  0  0  0  0  0  0  0  0  0  0  0
   -1.8880    1.4430    0.1620 C   0  0  0  0  0  0  0  0  0  0  0  0
   -1.5170    0.0740    0.4650 C   0  0  0  0  0  0  0  0  0  0  0  0
   -0.3410   -0.5020    0.8690 C   0  0  0  0  0  0  0  0  0  0  0  0
    0.8650    0.0970    1.1050 O   0  0  0  0  0  0  0  0  0  0  0  0
    1.9960    0.0990    0.3510 C   0  0  0  0  0  0  0  0  0  0  0  0
    2.1770   -0.5510   -0.8370 C   0  0  0  0  0  0  0  0  0  0  0  0
    3.3670   -0.4830   -1.5230 C   0  0  0  0  0  0  0  0  0  0  0  0
    4.4410    0.2520   -1.0380 C   0  0  0  0  0  0  0  0  0  0  0  0
    5.6890    0.3090   -1.7780 C   0  0  0  0  0  0  0  0  0  0  0  0
    5.9010   -0.2650   -2.8590 O   0  0  0  0  0  0  0  0  0  0  0  0
    4.2630    0.9080    0.1580 C   0  0  0  0  0  0  0  0  0  0  0  0
    3.0720    0.8430    0.8500 C   0  0  0  0  0  0  0  0  0  0  0  0
    2.9740    1.5840    2.1290 C   0  0  0  0  0  0  0  0  0  0  0  0
   -0.5530   -1.8860    1.0170 C   0  0  0  0  0  0  0  0  0  0  0  0
    0.6330   -3.0620    1.5130 Cl  0  0  0  0  0  0  0  0  0  0  0  0
   -1.8720   -2.0700    0.6870 C   0  0  0  0  0  0  0  0  0  0  0  0
   -2.4640   -0.9260    0.3570 N   0  0  0  0  0  0  0  0  0  0  0  0
   -3.8600   -0.8800   -0.0200 C   0  0  0  0  0  0  0  0  0  0  0  0
   -4.4070   -2.1580   -0.5560 C   0  0  0  0  0  0  0  0  0  0  0  0
   -3.9750   -3.2850    0.2650 N   0  0  0  0  0  0  0  0  0  0  0  0
   -2.6040   -3.3630    0.6640 C   0  0  0  0  0  0  0  0  0  0  0  0
   -2.0350   -4.4130    0.9760 O   0  0  0  0  0  0  0  0  0  0  0  0
  1  2  1  0
  2  3  1  0
  2  4  2  3
  4  5  1  0
  5  6  2  0
  5 20  1  0
  6  7  1  0
  6 17  1  0
  7  8  1  0
  8  9  2  0
  8 15  1  0
  9 10  1  0
 10 11  2  0
 11 12  1  0
 11 14  1  0
 12 13  2  0
 14 15  2  0
 15 16  1  0
 17 18  1  0
 17 19  2  0
 19 20  1  0
 19 24  1  0
 20 21  1  0
 21 22  1  0
 22 23  1  0
 23 24  1  0
 24 25  2  0
M  END
