
     RDKit          3D

 25 27  0  0  0  0  0  0  0  0999 V2000
    6.2570   -0.0940    0.7470 C   0  0  0  0  0  0  0  0  0  0  0  0
    5.4670   -0.1000   -0.5190 C   0  0  0  0  0  0  0  0  0  0  0  0
    4.1400    0.2930   -0.4390 C   0  0  0  0  0  0  0  0  0  0  0  0
    3.6480    0.6620    0.7940 O   0  0  0  0  0  0  0  0  0  0  0  0
    2.3050    1.0460    0.9160 C   0  0  0  0  0  0  0  0  0  0  0  0
    1.4410   -0.1090    0.5650 C   0  0  0  0  0  0  0  0  0  0  0  0
    1.9980   -1.2090    0.3160 O   0  0  0  0  0  0  0  0  0  0  0  0
   -0.0170    0.0170    0.5080 C   0  0  0  0  0  0  0  0  0  0  0  0
   -0.6740    1.1810    0.7670 C   0  0  0  0  0  0  0  0  0  0  0  0
   -2.0410    1.2760    0.7070 C   0  0  0  0  0  0  0  0  0  0  0  0
   -2.7830    0.1430    0.3700 C   0  0  0  0  0  0  0  0  0  0  0  0
   -4.2020    0.2080    0.2990 N   0  0  0  0  0  0  0  0  0  0  0  0
   -5.0820   -0.0510   -0.8270 C   0  0  0  0  0  0  0  0  0  0  0  0
   -6.1250   -0.9420   -0.2060 C   0  0  0  0  0  0  0  0  0  0  0  0
   -6.2450   -0.3920    1.1870 C   0  0  0  0  0  0  0  0  0  0  0  0
   -5.0930    0.5630    1.3920 C   0  0  0  0  0  0  0  0  0  0  0  0
   -2.0630   -1.0050    0.1190 C   0  0  0  0  0  0  0  0  0  0  0  0
   -2.6870   -2.0450   -0.1870 O   0  0  0  0  0  0  0  0  0  0  0  0
   -0.7270   -1.0740    0.1830 N   0  0  0  0  0  0  0  0  0  0  0  0
    3.4320    0.2800   -1.6190 C   0  0  0  0  0  0  0  0  0  0  0  0
    4.0040   -0.1010   -2.8080 C   0  0  0  0  0  0  0  0  0  0  0  0
    5.3130   -0.4870   -2.8680 C   0  0  0  0  0  0  0  0  0  0  0  0
    6.0730   -0.9820   -4.3810 Cl  0  0  0  0  0  0  0  0  0  0  0  0
    6.0540   -0.4850   -1.7050 C   0  0  0  0  0  0  0  0  0  0  0  0
    7.7540   -0.9750   -1.7240 Cl  0  0  0  0  0  0  0  0  0  0  0  0
  1  2  1  0
  2  3  2  0
  2 24  1  0
  3  4  1  0
  3 20  1  0
  4  5  1  0
  5  6  1  0
  6  7  2  0
  6  8  1  0
  8  9  2  0
  8 19  1  0
  9 10  1  0
 10 11  2  0
 11 12  1  0
 11 17  1  0
 12 13  1  0
 12 16  1  0
 13 14  1  0
 14 15  1  0
 15 16  1  0
 17 18  2  0
 17 19  1  0
 20 21  2  0
 21 22  1  0
 22 23  1  0
 22 24  2  0
 24 25  1  0
M  END
