
     RDKit          3D

 25 27  0  0  0  0  0  0  0  0999 V2000
   -6.5220   -0.5300    1.7400 C   0  0  0  0  0  0  0  0  0  0  0  0
   -6.4000    0.6400    0.9880 O   0  0  0  0  0  0  0  0  0  0  0  0
   -5.2010    0.9830    0.3550 C   0  0  0  0  0  0  0  0  0  0  0  0
   -4.1310    0.1420    0.4860 C   0  0  0  0  0  0  0  0  0  0  0  0
   -2.9470    0.4930   -0.1470 C   0  0  0  0  0  0  0  0  0  0  0  0
   -1.9050   -0.3350   -0.0150 N   0  0  0  0  0  0  0  0  0  0  0  0
   -0.7050   -0.1080   -0.5780 C   0  0  0  0  0  0  0  0  0  0  0  0
    0.3810   -1.0450   -0.3950 C   0  0  0  0  0  0  0  0  0  0  0  0
    0.1950   -2.0880    0.3030 O   0  0  0  0  0  0  0  0  0  0  0  0
    1.6690   -0.8860   -0.9490 N   0  0  0  0  0  0  0  0  0  0  0  0
    2.7440   -1.8340   -0.7560 C   0  0  1  0  0  0  0  0  0  0  0  0
    3.2460   -2.4330   -2.0330 C   0  0  0  0  0  0  0  0  0  0  0  0
    3.8240   -1.1250   -0.0110 C   0  0  0  0  0  0  0  0  0  0  0  0
    5.1650   -1.1100   -0.2210 C   0  0  0  0  0  0  0  0  0  0  0  0
    5.7090   -0.2980    0.7500 C   0  0  0  0  0  0  0  0  0  0  0  0
    4.6540    0.1490    1.5180 C   0  0  0  0  0  0  0  0  0  0  0  0
    4.7700    1.0700    2.7050 C   0  0  0  0  0  0  0  0  0  0  0  0
    3.5670   -0.3710    1.0210 O   0  0  0  0  0  0  0  0  0  0  0  0
   -0.5660    1.0370   -1.3210 C   0  0  0  0  0  0  0  0  0  0  0  0
   -1.6120    1.9390   -1.4960 C   0  0  0  0  0  0  0  0  0  0  0  0
   -1.4200    3.3890   -2.4430 Cl  0  0  0  0  0  0  0  0  0  0  0  0
   -2.8090    1.6420   -0.8920 C   0  0  0  0  0  0  0  0  0  0  0  0
   -3.8910    2.4900   -1.0220 C   0  0  0  0  0  0  0  0  0  0  0  0
   -5.0810    2.1330   -0.3840 C   0  0  0  0  0  0  0  0  0  0  0  0
   -6.4850    3.1780   -0.5190 Cl  0  0  0  0  0  0  0  0  0  0  0  0
  1  2  1  0
  2  3  1  0
  3  4  2  0
  3 24  1  0
  4  5  1  0
  5  6  2  0
  5 22  1  0
  6  7  1  0
  7  8  1  0
  7 19  2  0
  8  9  2  0
  8 10  1  0
 10 11  1  0
 11 12  1  6
 11 13  1  0
 13 14  2  0
 13 18  1  0
 14 15  1  0
 15 16  2  0
 16 17  1  0
 16 18  1  0
 19 20  1  0
 20 21  1  0
 20 22  2  0
 22 23  1  0
 23 24  2  0
 24 25  1  0
M  END
