
     RDKit          3D

 25 27  0  0  0  0  0  0  0  0999 V2000
    6.7370   -1.0590    1.5030 C   0  0  0  0  0  0  0  0  0  0  0  0
    6.4240   -0.8270    0.1440 O   0  0  0  0  0  0  0  0  0  0  0  0
    5.2290   -0.2410   -0.2490 C   0  0  0  0  0  0  0  0  0  0  0  0
    4.9790   -0.0400   -1.5900 C   0  0  0  0  0  0  0  0  0  0  0  0
    3.8360    0.5250   -2.0220 N   0  0  0  0  0  0  0  0  0  0  0  0
    2.8860    0.9170   -1.1380 C   0  0  0  0  0  0  0  0  0  0  0  0
    3.0570    0.7520    0.2190 C   0  0  0  0  0  0  0  0  0  0  0  0
    2.0210    1.1770    1.1730 C   0  0  0  0  0  0  0  0  0  0  0  0
    0.7760    1.1320    0.5960 O   0  0  0  0  0  0  0  0  0  0  0  0
    0.3890   -0.1350    0.1730 C   0  0  0  0  0  0  0  0  0  0  0  0
   -0.9710   -0.0200   -0.4300 C   0  0  0  0  0  0  0  0  0  0  0  0
   -1.1060    0.2340   -1.7930 C   0  0  0  0  0  0  0  0  0  0  0  0
   -2.3560    0.3420   -2.3660 C   0  0  0  0  0  0  0  0  0  0  0  0
   -2.4700    0.6620   -4.0800 Cl  0  0  0  0  0  0  0  0  0  0  0  0
   -3.4950    0.2010   -1.6020 C   0  0  0  0  0  0  0  0  0  0  0  0
   -4.7560    0.3030   -2.1360 C   0  0  0  0  0  0  0  0  0  0  0  0
   -5.8960    0.1610   -1.3700 C   0  0  0  0  0  0  0  0  0  0  0  0
   -5.8020   -0.0910   -0.0190 C   0  0  0  0  0  0  0  0  0  0  0  0
   -7.2740   -0.2620    0.9110 Cl  0  0  0  0  0  0  0  0  0  0  0  0
   -4.5460   -0.1960    0.5370 C   0  0  0  0  0  0  0  0  0  0  0  0
   -4.4110   -0.4460    1.8750 O   0  0  0  0  0  0  0  0  0  0  0  0
   -5.4190   -0.6100    2.7630 N   0  0  0  0  0  0  0  0  0  0  0  0
   -3.4020   -0.0550   -0.2290 C   0  0  0  0  0  0  0  0  0  0  0  0
   -2.1380   -0.1530    0.2890 C   0  0  0  0  0  0  0  0  0  0  0  0
    4.2550    0.1620    0.6390 C   0  0  0  0  0  0  0  0  0  0  0  0
  1  2  1  0
  2  3  1  0
  3  4  2  0
  3 25  1  0
  4  5  1  0
  5  6  2  0
  6  7  1  0
  7  8  1  0
  7 25  2  0
  8  9  1  0
  9 10  1  0
 10 11  1  0
 11 12  2  0
 11 24  1  0
 12 13  1  0
 13 14  1  0
 13 15  2  0
 15 16  1  0
 15 23  1  0
 16 17  2  0
 17 18  1  0
 18 19  1  0
 18 20  2  0
 20 21  1  0
 20 23  1  0
 21 22  1  0
 23 24  2  0
M  END
