
     RDKit          3D

 26 27  0  0  0  0  0  0  0  0999 V2000
   -4.8560   -0.1440   -2.2300 C   0  0  0  0  0  0  0  0  0  0  0  0
   -4.4870    0.4970   -0.9440 C   0  0  0  0  0  0  0  0  0  0  0  0
   -3.5480   -0.0800   -0.0960 C   0  0  0  0  0  0  0  0  0  0  0  0
   -3.1790    0.4860    1.1060 C   0  0  0  0  0  0  0  0  0  0  0  0
   -2.2440   -0.0730    2.0090 N   0  0  0  0  0  0  0  0  0  0  0  0
   -1.4420   -1.2350    1.7630 C   0  0  0  0  0  0  0  0  0  0  0  0
   -0.3460   -1.0480    0.7510 C   0  0  0  0  0  0  0  0  0  0  0  0
    0.6340    0.0250    1.1720 C   0  0  0  0  0  0  0  0  0  0  0  0
    1.6690    0.1960    0.2080 N   0  0  0  0  0  0  0  0  0  0  0  0
    1.6600    1.0880   -0.9110 C   0  0  0  0  0  0  0  0  0  0  0  0
    1.0690    2.1890   -1.0190 O   0  0  0  0  0  0  0  0  0  0  0  0
    2.5310    0.3870   -1.9270 C   0  0  0  0  0  0  0  0  0  0  0  0
    3.6680    0.0030   -0.9710 C   0  0  0  0  0  0  0  0  0  0  0  0
    4.9070    0.1670   -1.3190 C   0  0  0  0  0  0  0  0  0  0  0  0
    6.1380   -0.0860   -0.6640 C   0  0  0  0  0  0  0  0  0  0  0  0
    7.2390    0.1820   -1.2870 O   0  0  0  0  0  0  0  0  0  0  0  0
    6.2890   -0.6360    0.6870 C   0  0  1  0  0  0  0  0  0  0  0  0
    7.6600   -0.6860    1.0410 F   0  0  0  0  0  0  0  0  0  0  0  0
    5.7310    0.2370    1.6100 F   0  0  0  0  0  0  0  0  0  0  0  0
    2.9410   -0.4960    0.1710 C   0  0  0  0  0  0  0  0  0  0  0  0
    3.3450   -1.3640    0.9690 O   0  0  0  0  0  0  0  0  0  0  0  0
   -3.8250    1.6940    1.4150 C   0  0  0  0  0  0  0  0  0  0  0  0
   -3.3960    2.4650    2.9350 Cl  0  0  0  0  0  0  0  0  0  0  0  0
   -4.7490    2.2610    0.5800 C   0  0  0  0  0  0  0  0  0  0  0  0
   -5.1010    1.6820   -0.6120 C   0  0  0  0  0  0  0  0  0  0  0  0
   -6.2960    2.4250   -1.6800 Cl  0  0  0  0  0  0  0  0  0  0  0  0
  1  2  1  0
  2  3  2  0
  2 25  1  0
  3  4  1  0
  4  5  1  0
  4 22  2  0
  5  6  1  0
  6  7  1  0
  7  8  1  0
  8  9  1  0
  9 10  1  0
  9 20  1  0
 10 11  2  0
 10 12  1  0
 12 13  1  0
 13 14  2  3
 13 20  1  0
 14 15  1  0
 15 16  2  0
 15 17  1  0
 17 18  1  1
 17 19  1  0
 20 21  2  0
 22 23  1  0
 22 24  1  0
 24 25  2  0
 25 26  1  0
M  END
