
     RDKit          3D

 26 28  0  0  0  0  0  0  0  0999 V2000
   -1.5280   -1.4450    1.0810 O   0  0  0  0  0  0  0  0  0  0  0  0
   -1.7720   -0.2140    0.8730 C   0  0  0  0  0  0  0  0  0  0  0  0
   -3.0620    0.2330    1.2360 N   0  0  0  0  0  0  0  0  0  0  0  0
   -4.0360   -0.6310    1.8010 C   0  0  0  0  0  0  0  0  0  0  0  0
   -4.1310   -0.8040    3.1650 C   0  0  0  0  0  0  0  0  0  0  0  0
   -3.0060    0.0800    4.1820 Cl  0  0  0  0  0  0  0  0  0  0  0  0
   -5.0870   -1.6540    3.7260 C   0  0  0  0  0  0  0  0  0  0  0  0
   -5.9440   -2.3280    2.9490 N   0  0  0  0  0  0  0  0  0  0  0  0
   -5.8760   -2.1790    1.6160 C   0  0  0  0  0  0  0  0  0  0  0  0
   -4.9320   -1.3380    1.0260 C   0  0  0  0  0  0  0  0  0  0  0  0
   -4.8490   -1.1500   -0.7070 Cl  0  0  0  0  0  0  0  0  0  0  0  0
   -0.7500    0.6190    0.2980 C   0  0  0  0  0  0  0  0  0  0  0  0
   -0.9600    1.9580    0.0510 C   0  0  0  0  0  0  0  0  0  0  0  0
    0.0500    2.7370   -0.5060 C   0  0  0  0  0  0  0  0  0  0  0  0
    1.2720    2.2170   -0.8260 C   0  0  0  0  0  0  0  0  0  0  0  0
    2.3180    2.9220   -1.3790 O   0  0  0  0  0  0  0  0  0  0  0  0
    2.3390    4.2660   -1.7110 C   0  0  2  0  0  0  0  0  0  0  0  0
    2.5960    4.4740   -3.0680 F   0  0  0  0  0  0  0  0  0  0  0  0
    3.3550    4.8990   -0.9860 F   0  0  0  0  0  0  0  0  0  0  0  0
    1.4990    0.8540   -0.5800 C   0  0  0  0  0  0  0  0  0  0  0  0
    2.7380    0.3000   -0.8980 O   0  0  0  0  0  0  0  0  0  0  0  0
    2.9140   -1.0760   -0.6290 C   0  0  0  0  0  0  0  0  0  0  0  0
    4.2610   -1.5850   -0.9980 C   0  0  2  0  0  0  0  0  0  0  0  0
    4.7460   -1.5100   -2.3900 C   0  0  0  0  0  0  0  0  0  0  0  0
    4.2670   -2.8240   -1.8940 C   0  0  0  0  0  0  0  0  0  0  0  0
    0.4790    0.1160   -0.0290 C   0  0  0  0  0  0  0  0  0  0  0  0
  1  2  2  0
  2  3  1  0
  2 12  1  0
  3  4  1  0
  4  5  2  0
  4 10  1  0
  5  6  1  0
  5  7  1  0
  7  8  2  0
  8  9  1  0
  9 10  2  0
 10 11  1  0
 12 13  2  0
 12 26  1  0
 13 14  1  0
 14 15  2  0
 15 16  1  0
 15 20  1  0
 16 17  1  0
 17 18  1  6
 17 19  1  0
 20 21  1  0
 20 26  2  0
 21 22  1  0
 23 22  1  6
 23 24  1  0
 23 25  1  0
 24 25  1  0
M  END
