
     RDKit          3D

 26 27  0  0  0  0  0  0  0  0999 V2000
    5.4900    0.6390    0.3970 C   0  0  0  0  0  0  0  0  0  0  0  0
    4.0420    0.4370    0.1630 C   0  0  0  0  0  0  0  0  0  0  0  0
    3.1940    1.4800    0.0270 N   0  0  0  0  0  0  0  0  0  0  0  0
    1.8980    1.3580   -0.1690 C   0  0  0  0  0  0  0  0  0  0  0  0
    1.1030    2.3460   -0.2730 O   0  0  0  0  0  0  0  0  0  0  0  0
    1.2810    0.0820   -0.2590 C   0  0  0  0  0  0  0  0  0  0  0  0
   -0.0380    0.0050   -0.8130 C   0  0  0  0  0  0  0  0  0  0  0  0
   -1.2450   -0.3640   -0.1050 N   0  0  0  0  0  0  0  0  0  0  0  0
   -1.7230   -1.6320    0.1420 C   0  0  0  0  0  0  0  0  0  0  0  0
   -0.8900   -2.6290    0.2850 O   0  0  0  0  0  0  0  0  0  0  0  0
   -3.1760   -2.0410    0.2630 C   0  0  0  0  0  0  0  0  0  0  0  0
   -3.1970   -3.5520    0.1910 C   0  0  0  0  0  0  0  0  0  0  0  0
   -2.5830   -3.9800   -1.0090 F   0  0  0  0  0  0  0  0  0  0  0  0
   -2.0950    0.8180    0.1450 C   0  0  0  0  0  0  0  0  0  0  0  0
   -2.3080    1.4060    1.3280 C   0  0  0  0  0  0  0  0  0  0  0  0
   -2.9730    2.6410    1.4240 C   0  0  0  0  0  0  0  0  0  0  0  0
   -3.1950    3.1890    2.6690 F   0  0  0  0  0  0  0  0  0  0  0  0
   -3.4070    3.2610    0.2940 C   0  0  0  0  0  0  0  0  0  0  0  0
   -4.2090    4.8510    0.3780 Cl  0  0  0  0  0  0  0  0  0  0  0  0
   -3.2090    2.6800   -0.9410 C   0  0  0  0  0  0  0  0  0  0  0  0
   -2.5560    1.4560   -1.0160 C   0  0  0  0  0  0  0  0  0  0  0  0
   -2.3250    0.6600   -2.5610 Cl  0  0  0  0  0  0  0  0  0  0  0  0
    2.1420   -1.0240   -0.1140 C   0  0  0  0  0  0  0  0  0  0  0  0
    3.5160   -0.8400    0.0870 C   0  0  0  0  0  0  0  0  0  0  0  0
    4.4270   -1.9470    0.0680 C   0  0  0  0  0  0  0  0  0  0  0  0
    3.8350   -3.1120    0.2930 O   0  0  0  0  0  0  0  0  0  0  0  0
  1  2  1  0
  2  3  1  0
  2 24  2  0
  3  4  1  0
  4  5  2  0
  4  6  1  0
  6  7  1  0
  6 23  2  0
  7  8  1  0
  8  9  1  0
  8 14  1  0
  9 10  2  0
  9 11  1  0
 11 12  1  0
 12 13  1  0
 14 15  2  0
 14 21  1  0
 15 16  1  0
 16 17  1  0
 16 18  2  0
 18 19  1  0
 18 20  1  0
 20 21  2  0
 21 22  1  0
 23 24  1  0
 24 25  1  0
 25 26  2  0
M  END
