
     RDKit          3D

 26 27  0  0  0  0  0  0  0  0999 V2000
   -1.1860    4.5220   -0.2120 C   0  0  0  0  0  0  0  0  0  0  0  0
   -2.1080    3.4610   -0.0560 O   0  0  0  0  0  0  0  0  0  0  0  0
   -1.6960    2.1480    0.0790 C   0  0  0  0  0  0  0  0  0  0  0  0
   -0.3320    1.8260    0.0650 C   0  0  0  0  0  0  0  0  0  0  0  0
    0.1120    0.5480    0.1950 C   0  0  0  0  0  0  0  0  0  0  0  0
    1.4890    0.1360    0.1910 N   0  0  0  0  0  0  0  0  0  0  0  0
    2.6140    0.9270    0.0580 C   0  0  0  0  0  0  0  0  0  0  0  0
    2.3960    2.1900   -0.0780 O   0  0  0  0  0  0  0  0  0  0  0  0
    3.9720    0.4490    0.0610 C   0  0  0  0  0  0  0  0  0  0  0  0
    4.5370   -0.6950    0.1670 C   0  0  0  0  0  0  0  0  0  0  0  0
    3.9240   -1.9950    0.3350 C   0  0  2  0  0  0  0  0  0  0  0  0
    3.4230   -2.1790    1.6320 F   0  0  0  0  0  0  0  0  0  0  0  0
    4.9330   -3.0040    0.1720 F   0  0  0  0  0  0  0  0  0  0  0  0
    4.9440    1.5690   -0.1000 N   0  0  0  0  0  0  0  0  0  0  0  0
    5.6440    1.5180   -1.1650 C   0  0  0  0  0  0  0  0  0  0  0  0
    5.4540    0.2360   -2.3130 Cl  0  0  0  0  0  0  0  0  0  0  0  0
    6.8500    2.7650   -1.5230 Cl  0  0  0  0  0  0  0  0  0  0  0  0
   -0.8890   -0.4240    0.3440 C   0  0  0  0  0  0  0  0  0  0  0  0
   -2.2300   -0.1310    0.3610 C   0  0  0  0  0  0  0  0  0  0  0  0
   -2.6450    1.1760    0.2260 C   0  0  0  0  0  0  0  0  0  0  0  0
   -4.1030    1.4540    0.2490 C   0  0  0  0  0  0  0  0  0  0  0  0
   -2.9790   -1.4050    0.5380 C   0  0  0  0  0  0  0  0  0  0  0  0
   -1.9800   -2.4160    0.0200 C   0  0  1  0  0  0  0  0  0  0  0  0
   -2.1820   -3.7800    0.6040 C   0  0  0  0  0  0  0  0  0  0  0  0
   -2.0360   -2.3940   -1.4850 C   0  0  0  0  0  0  0  0  0  0  0  0
   -0.7640   -1.8180    0.4990 O   0  0  0  0  0  0  0  0  0  0  0  0
  1  2  1  0
  2  3  1  0
  3  4  2  0
  3 20  1  0
  4  5  1  0
  5  6  1  0
  5 18  2  0
  6  7  1  0
  7  8  2  0
  7  9  1  0
  9 10  2  3
  9 14  1  0
 10 11  1  0
 11 12  1  1
 11 13  1  0
 14 15  2  3
 15 16  1  0
 15 17  1  0
 18 19  1  0
 18 26  1  0
 19 20  2  0
 19 22  1  0
 20 21  1  0
 22 23  1  0
 23 24  1  1
 23 25  1  0
 23 26  1  0
M  END
