
     RDKit          3D

 26 27  0  0  0  0  0  0  0  0999 V2000
   -4.6260   -2.4800    1.0090 C   0  0  0  0  0  0  0  0  0  0  0  0
   -4.8040   -1.0860    1.4300 C   0  0  0  0  0  0  0  0  0  0  0  0
   -3.8130   -0.1820    1.3620 C   0  0  0  0  0  0  0  0  0  0  0  0
   -2.5300   -0.6560    0.8430 C   0  0  0  0  0  0  0  0  0  0  0  0
   -1.6010    0.0070    0.1720 C   0  0  0  0  0  0  0  0  0  0  0  0
   -0.4160   -0.7480   -0.2150 C   0  0  0  0  0  0  0  0  0  0  0  0
    0.6660   -0.3210   -0.8950 N   0  0  0  0  0  0  0  0  0  0  0  0
    1.5440   -1.3210   -1.0510 C   0  0  0  0  0  0  0  0  0  0  0  0
    2.8580   -1.2860   -1.7360 C   0  0  0  0  0  0  0  0  0  0  0  0
    3.9550   -0.9230   -0.8020 C   0  0  0  0  0  0  0  0  0  0  0  0
    3.6980   -0.6920    0.4090 O   0  0  0  0  0  0  0  0  0  0  0  0
    5.3080   -0.8210   -1.2110 N   0  0  0  0  0  0  0  0  0  0  0  0
    6.3940   -0.4760   -0.3510 C   0  0  0  0  0  0  0  0  0  0  0  0
    6.2270    0.8940    0.2810 C   0  0  0  0  0  0  0  0  0  0  0  0
    6.1260    2.1630   -0.9610 Cl  0  0  0  0  0  0  0  0  0  0  0  0
    0.9620   -2.4080   -0.4330 C   0  0  0  0  0  0  0  0  0  0  0  0
   -0.1960   -2.0040    0.0420 O   0  0  0  0  0  0  0  0  0  0  0  0
   -1.6570    1.4110   -0.2140 C   0  0  0  0  0  0  0  0  0  0  0  0
   -0.6310    1.9090   -0.7350 O   0  0  0  0  0  0  0  0  0  0  0  0
   -2.7770    2.3310   -0.0680 C   0  0  0  0  0  0  0  0  0  0  0  0
   -2.8180    3.5210   -0.9500 C   0  0  2  0  0  0  0  0  0  0  0  0
   -3.9370    4.2470   -0.6570 F   0  0  0  0  0  0  0  0  0  0  0  0
   -2.8320    3.2140   -2.2800 F   0  0  0  0  0  0  0  0  0  0  0  0
   -1.4070    4.5560   -0.5460 Cl  0  0  0  0  0  0  0  0  0  0  0  0
   -3.7710    2.1890    0.7960 C   0  0  0  0  0  0  0  0  0  0  0  0
   -4.1130    1.1960    1.8190 C   0  0  0  0  0  0  0  0  0  0  0  0
  1  2  1  0
  2  3  2  3
  3  4  1  0
  3 26  1  0
  4  5  2  0
  5  6  1  0
  5 18  1  0
  6  7  2  0
  6 17  1  0
  7  8  1  0
  8  9  1  0
  8 16  2  0
  9 10  1  0
 10 11  2  0
 10 12  1  0
 12 13  1  0
 13 14  1  0
 14 15  1  0
 16 17  1  0
 18 19  2  0
 18 20  1  0
 20 21  1  0
 20 25  2  0
 21 22  1  1
 21 23  1  0
 21 24  1  0
 25 26  1  0
M  END
