
     RDKit          3D

 26 27  0  0  0  0  0  0  0  0999 V2000
   -5.5340    1.6350    0.0240 C   0  0  0  0  0  0  0  0  0  0  0  0
   -4.3820    0.7370   -0.1460 C   0  0  0  0  0  0  0  0  0  0  0  0
   -4.1210   -0.2300    0.6920 C   0  0  0  0  0  0  0  0  0  0  0  0
   -4.8720   -0.5840    1.8830 C   0  0  0  0  0  0  0  0  0  0  0  0
   -5.4350   -2.2810    1.6520 Cl  0  0  0  0  0  0  0  0  0  0  0  0
   -3.5270    0.9790   -1.3160 C   0  0  0  0  0  0  0  0  0  0  0  0
   -3.7060    1.9050   -2.1920 C   0  0  0  0  0  0  0  0  0  0  0  0
   -4.7560    2.7820   -2.1040 F   0  0  0  0  0  0  0  0  0  0  0  0
   -2.8270    2.0100   -3.2300 F   0  0  0  0  0  0  0  0  0  0  0  0
   -2.3980    0.0830   -1.4650 N   0  0  0  0  0  0  0  0  0  0  0  0
   -2.6460   -1.1180   -2.1890 C   0  0  0  0  0  0  0  0  0  0  0  0
   -1.1620    0.5030   -0.8690 C   0  0  0  0  0  0  0  0  0  0  0  0
   -0.0630   -0.4540   -1.0550 C   0  0  0  0  0  0  0  0  0  0  0  0
   -0.2750   -1.5130   -1.6860 O   0  0  0  0  0  0  0  0  0  0  0  0
    1.2370   -0.1620   -0.5100 N   0  0  0  0  0  0  0  0  0  0  0  0
    2.2560   -1.1400   -0.7300 C   0  0  0  0  0  0  0  0  0  0  0  0
    3.5770   -0.8200   -0.1650 C   0  0  0  0  0  0  0  0  0  0  0  0
    3.9030    0.3090    0.5380 C   0  0  0  0  0  0  0  0  0  0  0  0
    5.1700    0.5500    1.0450 C   0  0  0  0  0  0  0  0  0  0  0  0
    6.1650   -0.3820    0.8420 C   0  0  0  0  0  0  0  0  0  0  0  0
    5.8550   -1.5370    0.1300 C   0  0  0  0  0  0  0  0  0  0  0  0
    4.5880   -1.7610   -0.3680 C   0  0  0  0  0  0  0  0  0  0  0  0
    4.2680   -3.2400   -1.2560 Cl  0  0  0  0  0  0  0  0  0  0  0  0
    7.3020    0.1150    1.4470 O   0  0  0  0  0  0  0  0  0  0  0  0
    6.9310    1.1500    2.3420 C   0  0  0  0  0  0  0  0  0  0  0  0
    5.7170    1.6030    1.7730 O   0  0  0  0  0  0  0  0  0  0  0  0
  1  2  1  0
  2  3  2  3
  2  6  1  0
  3  4  1  0
  4  5  1  0
  6  7  2  3
  6 10  1  0
  7  8  1  0
  7  9  1  0
 10 11  1  0
 10 12  1  0
 12 13  1  0
 13 14  2  0
 13 15  1  0
 15 16  1  0
 16 17  1  0
 17 18  2  0
 17 22  1  0
 18 19  1  0
 19 20  2  0
 19 26  1  0
 20 21  1  0
 20 24  1  0
 21 22  2  0
 22 23  1  0
 24 25  1  0
 25 26  1  0
M  END
