
     RDKit          3D

 26 27  0  0  0  0  0  0  0  0999 V2000
   -5.6970    0.1030   -1.4390 C   0  0  0  0  0  0  0  0  0  0  0  0
   -5.3670   -0.4670   -0.0920 C   0  0  0  0  0  0  0  0  0  0  0  0
   -3.9710   -0.5610    0.1040 O   0  0  0  0  0  0  0  0  0  0  0  0
   -3.4610    0.6700    0.0090 C   0  0  0  0  0  0  0  0  0  0  0  0
   -2.0950    1.0340    0.1400 C   0  0  0  0  0  0  0  0  0  0  0  0
   -1.9460    2.3240   -0.2160 O   0  0  0  0  0  0  0  0  0  0  0  0
   -0.8820    0.4310    0.5270 N   0  0  0  0  0  0  0  0  0  0  0  0
    0.3390    1.0370    0.3970 C   0  0  0  0  0  0  0  0  0  0  0  0
    0.4980    2.1730   -0.1050 O   0  0  0  0  0  0  0  0  0  0  0  0
    1.3370    0.2530    0.8780 N   0  0  0  0  0  0  0  0  0  0  0  0
    2.6970    0.6660    0.9820 C   0  0  0  0  0  0  0  0  0  0  0  0
    3.5120    0.8420   -0.2060 C   0  0  0  0  0  0  0  0  0  0  0  0
    3.9430   -0.0320   -1.2510 C   0  0  0  0  0  0  0  0  0  0  0  0
    3.7880   -1.2810   -1.5470 C   0  0  0  0  0  0  0  0  0  0  0  0
    4.6070   -1.8370   -3.0600 Cl  0  0  0  0  0  0  0  0  0  0  0  0
    2.9280   -2.5290   -0.7350 Cl  0  0  0  0  0  0  0  0  0  0  0  0
    3.9710    2.1440   -0.3500 C   0  0  0  0  0  0  0  0  0  0  0  0
    4.8050    2.5700   -1.4590 C   0  0  2  0  0  0  0  0  0  0  0  0
    6.0910    2.0500   -1.4500 F   0  0  0  0  0  0  0  0  0  0  0  0
    4.9780    3.9560   -1.3820 F   0  0  0  0  0  0  0  0  0  0  0  0
    0.7250   -0.8560    1.3160 C   0  0  0  0  0  0  0  0  0  0  0  0
    1.2230   -1.9830    1.9530 C   0  0  0  0  0  0  0  0  0  0  0  0
    0.3910   -2.9870    2.3670 C   0  0  0  0  0  0  0  0  0  0  0  0
   -0.9620   -2.9060    2.1650 C   0  0  0  0  0  0  0  0  0  0  0  0
   -1.4670   -1.7870    1.5340 C   0  0  0  0  0  0  0  0  0  0  0  0
   -0.6630   -0.7610    1.1040 C   0  0  0  0  0  0  0  0  0  0  0  0
  1  2  1  0
  2  3  1  0
  3  4  1  0
  4  5  1  0
  5  6  2  0
  5  7  1  0
  7  8  1  0
  7 26  1  0
  8  9  2  0
  8 10  1  0
 10 11  1  0
 10 21  1  0
 11 12  1  0
 12 13  1  0
 12 17  2  3
 13 14  2  3
 14 15  1  0
 14 16  1  0
 17 18  1  0
 18 19  1  1
 18 20  1  0
 21 22  2  0
 21 26  1  0
 22 23  1  0
 23 24  2  0
 24 25  1  0
 25 26  2  0
M  END
