
     RDKit          3D

 26 27  0  0  0  0  0  0  0  0999 V2000
   -4.0030   -0.9580    0.4030 C   0  0  0  0  0  0  0  0  0  0  0  0
   -3.0460   -0.0210    1.1080 C   0  0  1  0  0  0  0  0  0  0  0  0
   -1.7230   -0.7260    1.3930 C   0  0  0  0  0  0  0  0  0  0  0  0
   -1.0810   -0.7070    0.0630 C   0  0  0  0  0  0  0  0  0  0  0  0
   -0.1700   -1.5190   -0.4330 C   0  0  0  0  0  0  0  0  0  0  0  0
    0.3620   -2.6270    0.3270 C   0  0  0  0  0  0  0  0  0  0  0  0
    0.0130   -2.9020    1.4960 O   0  0  0  0  0  0  0  0  0  0  0  0
    0.3400   -1.3380   -1.7680 N   0  0  0  0  0  0  0  0  0  0  0  0
    1.6570   -0.8900   -1.9380 C   0  0  0  0  0  0  0  0  0  0  0  0
    2.4350   -0.6330   -0.8170 C   0  0  0  0  0  0  0  0  0  0  0  0
    3.7310   -0.1920   -0.9240 C   0  0  0  0  0  0  0  0  0  0  0  0
    4.5830    0.0880    0.1070 O   0  0  0  0  0  0  0  0  0  0  0  0
    4.3370    0.0200    1.4580 C   0  0  0  0  0  0  0  0  0  0  0  0
    3.3100    0.9430    2.0190 C   0  0  0  0  0  0  0  0  0  0  0  0
    3.1790    0.6400    3.7890 Cl  0  0  0  0  0  0  0  0  0  0  0  0
    4.1940   -0.0280   -2.2470 C   0  0  0  0  0  0  0  0  0  0  0  0
    5.4650    0.4040   -2.4090 F   0  0  0  0  0  0  0  0  0  0  0  0
    3.4300   -0.2810   -3.3410 C   0  0  0  0  0  0  0  0  0  0  0  0
    2.1430   -0.7180   -3.2060 C   0  0  0  0  0  0  0  0  0  0  0  0
    1.3350   -0.9860   -4.2520 F   0  0  0  0  0  0  0  0  0  0  0  0
   -1.6730    0.4530   -0.6340 C   0  0  0  0  0  0  0  0  0  0  0  0
   -1.3540    0.8330   -1.7840 O   0  0  0  0  0  0  0  0  0  0  0  0
   -2.6490    1.0450    0.2210 N   0  0  0  0  0  0  0  0  0  0  0  0
   -3.1540    2.3830    0.2540 C   0  0  0  0  0  0  0  0  0  0  0  0
   -4.3420    2.6640   -0.5900 C   0  0  0  0  0  0  0  0  0  0  0  0
   -5.7810    1.7380   -0.2200 Cl  0  0  0  0  0  0  0  0  0  0  0  0
  2  1  1  6
  2  3  1  0
  2 23  1  0
  3  4  1  0
  4  5  2  3
  4 21  1  0
  5  6  1  0
  5  8  1  0
  6  7  2  0
  8  9  1  0
  9 10  2  0
  9 19  1  0
 10 11  1  0
 11 12  1  0
 11 16  2  0
 12 13  1  0
 13 14  1  0
 14 15  1  0
 16 17  1  0
 16 18  1  0
 18 19  2  0
 19 20  1  0
 21 22  2  0
 21 23  1  0
 23 24  1  0
 24 25  1  0
 25 26  1  0
M  END
