
     RDKit          3D

 26 28  0  0  0  0  0  0  0  0999 V2000
   -6.0770   -1.0580   -1.6470 C   0  0  0  0  0  0  0  0  0  0  0  0
   -5.3220   -1.1450   -0.4790 O   0  0  0  0  0  0  0  0  0  0  0  0
   -4.0930   -0.5310   -0.2930 C   0  0  0  0  0  0  0  0  0  0  0  0
   -3.4760    0.2420   -1.2520 C   0  0  0  0  0  0  0  0  0  0  0  0
   -2.2640    0.8450   -1.0600 C   0  0  0  0  0  0  0  0  0  0  0  0
   -1.6590    1.6300   -2.0600 O   0  0  0  0  0  0  0  0  0  0  0  0
   -2.3540    1.7760   -3.2840 C   0  0  0  0  0  0  0  0  0  0  0  0
   -1.6050    0.6760    0.1670 C   0  0  0  0  0  0  0  0  0  0  0  0
   -0.1200    1.4840    0.4110 S   0  0  0  0  0  0  0  0  0  0  0  0
    1.4420    0.8300    0.0840 C   0  0  0  0  0  0  0  0  0  0  0  0
    1.6610   -0.3030   -0.5410 C   0  0  0  0  0  0  0  0  0  0  0  0
    0.4660   -1.0490   -0.9870 C   0  0  0  0  0  0  0  0  0  0  0  0
    2.9090   -0.9780   -0.8720 N   0  0  0  0  0  0  0  0  0  0  0  0
    4.1780   -0.7890   -0.2700 C   0  0  0  0  0  0  0  0  0  0  0  0
    5.0150   -1.7950   -0.4340 C   0  0  0  0  0  0  0  0  0  0  0  0
    6.2900   -1.7860    0.0810 O   0  0  0  0  0  0  0  0  0  0  0  0
    6.7510   -0.6970    0.8230 C   0  0  0  0  0  0  0  0  0  0  0  0
    5.7770    0.4110    0.9820 C   0  0  0  0  0  0  0  0  0  0  0  0
    4.5590    0.4000    0.4800 C   0  0  0  0  0  0  0  0  0  0  0  0
    3.7810    1.5800    0.7430 N   0  0  0  0  0  0  0  0  0  0  0  0
    2.5240    1.7500    0.5820 C   0  0  0  0  0  0  0  0  0  0  0  0
    2.0770    3.1170    0.9620 C   0  0  0  0  0  0  0  0  0  0  0  0
   -2.2500   -0.1190    1.1400 C   0  0  0  0  0  0  0  0  0  0  0  0
   -3.4600   -0.7120    0.9310 C   0  0  0  0  0  0  0  0  0  0  0  0
   -4.0740   -1.4920    1.9070 O   0  0  0  0  0  0  0  0  0  0  0  0
   -3.4510   -1.6900    3.1570 C   0  0  0  0  0  0  0  0  0  0  0  0
  1  2  1  0
  2  3  1  0
  3  4  2  0
  3 24  1  0
  4  5  1  0
  5  6  1  0
  5  8  2  0
  6  7  1  0
  8  9  1  0
  8 23  1  0
  9 10  1  0
 10 11  2  0
 10 21  1  0
 11 12  1  0
 11 13  1  0
 13 14  1  0
 14 15  2  0
 14 19  1  0
 15 16  1  0
 16 17  1  0
 17 18  1  0
 18 19  2  0
 19 20  1  0
 20 21  2  0
 21 22  1  0
 23 24  2  0
 24 25  1  0
 25 26  1  0
M  END
