
     RDKit          3D

 20 22  0  0  0  0  0  0  0  0999 V2000
    5.5810   -0.2640   -1.4620 O   0  0  0  0  0  0  0  0  0  0  0  0
    4.8480   -0.0810   -0.4680 C   0  0  0  0  0  0  0  0  0  0  0  0
    4.3930   -1.2170    0.4110 C   0  0  0  0  0  0  0  0  0  0  0  0
    2.8880   -1.2120    0.4170 C   0  0  0  0  0  0  0  0  0  0  0  0
    2.2890    0.1600    0.3420 C   0  0  1  0  0  0  0  0  0  0  0  0
    1.9320    0.5260   -1.0890 C   0  0  0  0  0  0  0  0  0  0  0  0
    0.5400    1.1310   -1.1090 C   0  0  0  0  0  0  0  0  0  0  0  0
   -0.4210    0.0190   -0.8260 C   0  0  2  0  0  0  0  0  0  0  0  0
   -1.8230    0.4720   -0.6990 C   0  0  0  0  0  0  0  0  0  0  0  0
   -2.2300    1.6470   -0.8040 O   0  0  0  0  0  0  0  0  0  0  0  0
   -2.7470   -0.5160   -0.4380 O   0  0  0  0  0  0  0  0  0  0  0  0
   -4.0870   -0.3680   -0.2770 C   0  0  0  0  0  0  0  0  0  0  0  0
   -4.9130   -1.3710   -0.0280 C   0  0  0  0  0  0  0  0  0  0  0  0
   -6.2880   -0.8750    0.0900 C   0  0  0  0  0  0  0  0  0  0  0  0
   -6.1760    0.5680   -0.1230 C   0  0  0  0  0  0  0  0  0  0  0  0
   -4.8900    0.8320   -0.3330 C   0  0  0  0  0  0  0  0  0  0  0  0
   -0.0150   -0.6420    0.4610 C   0  0  0  0  0  0  0  0  0  0  0  0
    1.0330    0.1480    1.2110 C   0  0  0  0  0  0  0  0  0  0  0  0
    3.2510    1.2410    0.8260 C   0  0  0  0  0  0  0  0  0  0  0  0
    4.3820    1.2110   -0.0810 N   0  0  0  0  0  0  0  0  0  0  0  0
  1  2  2  0
  2  3  1  0
  2 20  1  0
  3  4  1  0
  5  4  1  6
  5  6  1  0
  5 18  1  0
  5 19  1  0
  6  7  1  0
  7  8  1  0
  8  9  1  1
  8 17  1  0
  9 10  2  0
  9 11  1  0
 11 12  1  0
 12 13  2  0
 12 16  1  0
 13 14  1  0
 14 15  1  0
 15 16  2  0
 17 18  1  0
 19 20  1  0
M  END
