
     RDKit          3D

 20 21  0  0  0  0  0  0  0  0999 V2000
    6.2350    0.9140    2.2130 C   0  0  0  0  0  0  0  0  0  0  0  0
    4.9850    1.1630    1.5620 N   0  0  0  0  0  0  0  0  0  0  0  0
    4.2730    0.0900    0.8840 C   0  0  0  0  0  0  0  0  0  0  0  0
    4.8660   -1.0100    0.9440 O   0  0  0  0  0  0  0  0  0  0  0  0
    3.0190    0.3360    0.2300 C   0  0  0  0  0  0  0  0  0  0  0  0
    2.2570   -0.4890   -0.4150 C   0  0  0  0  0  0  0  0  0  0  0  0
    2.5620   -1.9190   -0.6050 C   0  0  0  0  0  0  0  0  0  0  0  0
    1.4060   -2.6760    0.0200 C   0  0  0  0  0  0  0  0  0  0  0  0
    0.1730   -2.3250   -0.8300 C   0  0  0  0  0  0  0  0  0  0  0  0
   -0.1820   -0.9260   -0.5180 C   0  0  2  0  0  0  0  0  0  0  0  0
   -1.3550   -0.4270   -1.0290 O   0  0  0  0  0  0  0  0  0  0  0  0
   -2.3060    0.1370   -0.2060 C   0  0  0  0  0  0  0  0  0  0  0  0
   -2.0190    0.1550    1.0040 O   0  0  0  0  0  0  0  0  0  0  0  0
   -3.5690    0.6820   -0.6930 C   0  0  0  0  0  0  0  0  0  0  0  0
   -3.9660    0.7100   -1.9540 C   0  0  0  0  0  0  0  0  0  0  0  0
   -5.3080    1.3420   -2.0680 C   0  0  0  0  0  0  0  0  0  0  0  0
   -5.6210    1.6740   -0.6590 C   0  0  0  0  0  0  0  0  0  0  0  0
   -4.6230    1.2940    0.1140 C   0  0  0  0  0  0  0  0  0  0  0  0
   -4.5070    1.4300    1.6060 C   0  0  0  0  0  0  0  0  0  0  0  0
    0.9570   -0.0390   -1.0370 C   0  0  0  0  0  0  0  0  0  0  0  0
  1  2  1  0
  2  3  1  0
  3  4  2  0
  3  5  1  0
  5  6  2  3
  6  7  1  0
  6 20  1  0
  7  8  1  0
  8  9  1  0
  9 10  1  0
 10 11  1  6
 10 20  1  0
 11 12  1  0
 12 13  2  0
 12 14  1  0
 14 15  2  0
 14 18  1  0
 15 16  1  0
 16 17  1  0
 17 18  2  0
 18 19  1  0
M  END
