
     RDKit          3D

 20 21  0  0  0  0  0  0  0  0999 V2000
    4.5430   -1.4990    2.1620 C   0  0  0  0  0  0  0  0  0  0  0  0
    4.0760   -1.7640    0.9700 C   0  0  0  0  0  0  0  0  0  0  0  0
    2.9920   -0.9350    0.4280 C   0  0  0  0  0  0  0  0  0  0  0  0
    2.5380   -1.2230   -0.7720 C   0  0  0  0  0  0  0  0  0  0  0  0
    3.1160   -2.3500   -1.5280 C   0  0  0  0  0  0  0  0  0  0  0  0
    2.4780    0.1540    1.2930 C   0  0  0  0  0  0  0  0  0  0  0  0
    1.4300    0.8970    0.7620 O   0  0  0  0  0  0  0  0  0  0  0  0
    0.2090    0.3190    0.5170 C   0  0  0  0  0  0  0  0  0  0  0  0
    0.0160   -0.8830    0.7760 O   0  0  0  0  0  0  0  0  0  0  0  0
   -0.8900    1.1210   -0.0570 C   0  0  1  0  0  0  0  0  0  0  0  0
   -2.0420    0.3560   -0.2210 N   0  0  0  0  0  0  0  0  0  0  0  0
   -2.5670   -0.1340    0.9930 C   0  0  0  0  0  0  0  0  0  0  0  0
   -3.1390   -1.5210    0.9420 C   0  0  0  0  0  0  0  0  0  0  0  0
   -3.6760   -1.8450   -0.2950 O   0  0  0  0  0  0  0  0  0  0  0  0
   -2.6680   -1.7830   -1.2240 C   0  0  0  0  0  0  0  0  0  0  0  0
   -2.3290   -0.2960   -1.4040 C   0  0  0  0  0  0  0  0  0  0  0  0
   -1.2330    2.2970    0.8770 C   0  0  0  0  0  0  0  0  0  0  0  0
   -2.0040    3.1830   -0.0840 C   0  0  0  0  0  0  0  0  0  0  0  0
   -1.0840    3.1910   -1.2980 C   0  0  0  0  0  0  0  0  0  0  0  0
   -0.3660    1.8660   -1.2370 C   0  0  0  0  0  0  0  0  0  0  0  0
  1  2  2  0
  2  3  1  0
  3  4  2  3
  3  6  1  0
  4  5  1  0
  6  7  1  0
  7  8  1  0
  8  9  2  0
  8 10  1  0
 10 11  1  6
 10 17  1  0
 10 20  1  0
 11 12  1  0
 11 16  1  0
 12 13  1  0
 13 14  1  0
 14 15  1  0
 15 16  1  0
 17 18  1  0
 18 19  1  0
 19 20  1  0
M  END
