
     RDKit          3D

 20 22  0  0  0  0  0  0  0  0999 V2000
   -0.2430   -0.6920   -1.6880 C   0  0  0  0  0  0  0  0  0  0  0  0
   -0.6430    0.2080   -0.5700 C   0  0  2  0  0  0  0  0  0  0  0  0
   -0.2410    1.6530   -0.9030 C   0  0  0  0  0  0  0  0  0  0  0  0
    0.0940   -0.1360    0.7100 C   0  0  0  0  0  0  0  0  0  0  0  0
    1.5310   -0.0320    0.5970 N   0  0  0  0  0  0  0  0  0  0  0  0
    2.1840    1.1370    0.8280 C   0  0  0  0  0  0  0  0  0  0  0  0
    3.5470    1.2880    0.7300 C   0  0  0  0  0  0  0  0  0  0  0  0
    4.3060    0.1910    0.3750 C   0  0  0  0  0  0  0  0  0  0  0  0
    5.6430   -0.0330    0.1840 C   0  0  0  0  0  0  0  0  0  0  0  0
    5.8190   -1.2960   -0.1540 O   0  0  0  0  0  0  0  0  0  0  0  0
    4.6630   -1.9160   -0.1950 C   0  0  0  0  0  0  0  0  0  0  0  0
    3.6750   -1.0080    0.1350 C   0  0  0  0  0  0  0  0  0  0  0  0
    2.2930   -1.0920    0.2530 C   0  0  0  0  0  0  0  0  0  0  0  0
    1.7670   -2.2220    0.0220 O   0  0  0  0  0  0  0  0  0  0  0  0
   -2.1220    0.1950   -0.3730 C   0  0  1  0  0  0  0  0  0  0  0  0
   -2.8710    0.6570   -1.5900 C   0  0  0  0  0  0  0  0  0  0  0  0
   -2.6760   -1.1680   -0.0140 C   0  0  0  0  0  0  0  0  0  0  0  0
   -4.0160   -0.7660    0.6090 C   0  0  0  0  0  0  0  0  0  0  0  0
   -3.8210    0.6860    0.9490 C   0  0  0  0  0  0  0  0  0  0  0  0
   -2.4980    0.9730    0.7330 O   0  0  0  0  0  0  0  0  0  0  0  0
  2  1  1  6
  2  3  1  0
  2  4  1  0
  2 15  1  0
  4  5  1  0
  5  6  1  0
  5 13  1  0
  6  7  2  0
  7  8  1  0
  8  9  2  0
  8 12  1  0
  9 10  1  0
 10 11  1  0
 11 12  2  0
 12 13  1  0
 13 14  2  0
 15 16  1  6
 15 17  1  0
 15 20  1  0
 17 18  1  0
 18 19  1  0
 19 20  1  0
M  END
