
     RDKit          3D

 20 22  0  0  0  0  0  0  0  0999 V2000
   -1.4000    3.3330    0.3400 C   0  0  0  0  0  0  0  0  0  0  0  0
   -1.3290    1.9490    0.1850 O   0  0  0  0  0  0  0  0  0  0  0  0
   -0.1890    1.2030    0.1210 C   0  0  0  0  0  0  0  0  0  0  0  0
    1.0420    1.8510    0.2150 C   0  0  0  0  0  0  0  0  0  0  0  0
    2.2270    1.1360    0.1550 C   0  0  0  0  0  0  0  0  0  0  0  0
    2.1940   -0.2220    0.0010 C   0  0  0  0  0  0  0  0  0  0  0  0
    3.4280   -1.0600   -0.0710 C   0  0  2  0  0  0  0  0  0  0  0  0
    4.1490   -0.9130    1.2480 C   0  0  0  0  0  0  0  0  0  0  0  0
    4.9190    0.2960    1.0610 N   0  0  0  0  0  0  0  0  0  0  0  0
    5.2160    0.4140   -0.3240 C   0  0  0  0  0  0  0  0  0  0  0  0
    6.0470    1.2540   -0.7990 O   0  0  0  0  0  0  0  0  0  0  0  0
    4.4130   -0.5790   -1.0740 C   0  0  0  0  0  0  0  0  0  0  0  0
    0.9750   -0.8400   -0.0890 C   0  0  0  0  0  0  0  0  0  0  0  0
   -0.2530   -0.1560   -0.0340 C   0  0  0  0  0  0  0  0  0  0  0  0
   -1.4080   -0.8860   -0.1360 O   0  0  0  0  0  0  0  0  0  0  0  0
   -2.7290   -0.5520   -0.1210 C   0  0  2  0  0  0  0  0  0  0  0  0
   -3.5340   -1.3810    0.9060 C   0  0  0  0  0  0  0  0  0  0  0  0
   -4.9360   -1.2350    0.3670 C   0  0  0  0  0  0  0  0  0  0  0  0
   -4.8120   -1.0050   -1.1130 C   0  0  0  0  0  0  0  0  0  0  0  0
   -3.3480   -1.1530   -1.4040 C   0  0  0  0  0  0  0  0  0  0  0  0
  1  2  1  0
  2  3  1  0
  3  4  2  0
  3 14  1  0
  4  5  1  0
  5  6  2  0
  7  6  1  1
  6 13  1  0
  7  8  1  0
  7 12  1  0
  8  9  1  0
  9 10  1  0
 10 11  2  0
 10 12  1  0
 13 14  2  0
 14 15  1  0
 16 15  1  6
 16 17  1  0
 16 20  1  0
 17 18  1  0
 18 19  1  0
 19 20  1  0
M  END
