
     RDKit          3D

 20 21  0  0  0  0  0  0  0  0999 V2000
    7.1390    0.0140    0.7990 C   0  0  0  0  0  0  0  0  0  0  0  0
    5.8640    0.2570    0.5780 C   0  0  0  0  0  0  0  0  0  0  0  0
    5.1300   -0.3770   -0.4060 O   0  0  0  0  0  0  0  0  0  0  0  0
    3.7810   -0.6740   -0.1340 C   0  0  2  0  0  0  0  0  0  0  0  0
    3.1100   -1.3530   -1.2770 C   0  0  0  0  0  0  0  0  0  0  0  0
    1.8450   -0.9630   -1.3770 C   0  0  0  0  0  0  0  0  0  0  0  0
    1.5530    0.0110   -0.3150 C   0  0  2  0  0  0  0  0  0  0  0  0
    0.6220    1.1100   -0.7520 C   0  0  0  0  0  0  0  0  0  0  0  0
   -0.6870    0.6730   -1.2030 C   0  0  0  0  0  0  0  0  0  0  0  0
   -0.8660    0.3440   -2.4330 O   0  0  0  0  0  0  0  0  0  0  0  0
   -1.7940    0.5880   -0.3510 N   0  0  0  0  0  0  0  0  0  0  0  0
   -1.5150    0.9350    1.0530 C   0  0  0  0  0  0  0  0  0  0  0  0
   -2.0970   -0.1500    1.9590 C   0  0  0  0  0  0  0  0  0  0  0  0
   -2.0250   -1.3920    1.3140 O   0  0  0  0  0  0  0  0  0  0  0  0
   -3.2330   -1.7440    0.7020 C   0  0  0  0  0  0  0  0  0  0  0  0
   -3.1860   -1.3100   -0.7210 C   0  0  0  0  0  0  0  0  0  0  0  0
   -3.1010    0.1900   -0.8590 C   0  0  1  0  0  0  0  0  0  0  0  0
   -4.2100    0.9150   -0.1220 C   0  0  0  0  0  0  0  0  0  0  0  0
   -3.2540    0.5210   -2.3120 C   0  0  0  0  0  0  0  0  0  0  0  0
    2.9350    0.5730    0.0130 C   0  0  0  0  0  0  0  0  0  0  0  0
  1  2  2  0
  2  3  1  0
  4  3  1  6
  4  5  1  0
  4 20  1  0
  5  6  2  0
  6  7  1  0
  7  8  1  6
  7 20  1  0
  8  9  1  0
  9 10  2  0
  9 11  1  0
 11 12  1  0
 11 17  1  0
 12 13  1  0
 13 14  1  0
 14 15  1  0
 15 16  1  0
 16 17  1  0
 17 18  1  1
 17 19  1  0
M  END
