
     RDKit          3D

 21 23  0  0  0  0  0  0  0  0999 V2000
    5.3770   -0.3310   -0.1050 C   0  0  0  0  0  0  0  0  0  0  0  0
    4.3970    0.6330   -0.7630 C   0  0  0  0  0  0  0  0  0  0  0  0
    2.9870    0.1540   -0.5790 C   0  0  0  0  0  0  0  0  0  0  0  0
    2.1890   -0.1300   -1.5650 C   0  0  0  0  0  0  0  0  0  0  0  0
    0.7970   -0.6040   -1.4470 C   0  0  0  0  0  0  0  0  0  0  0  0
    0.2180   -0.3150   -0.0580 C   0  0  1  0  0  0  0  0  0  0  0  0
    1.2520   -0.8470    0.9220 C   0  0  0  0  0  0  0  0  0  0  0  0
    2.4800   -0.0010    0.7800 C   0  0  0  0  0  0  0  0  0  0  0  0
    3.0450    0.5430    1.7560 O   0  0  0  0  0  0  0  0  0  0  0  0
    0.1280    1.1560    0.0940 C   0  0  0  0  0  0  0  0  0  0  0  0
   -1.2380    1.7050    0.1830 C   0  0  0  0  0  0  0  0  0  0  0  0
   -1.6710    2.9080   -0.1120 C   0  0  0  0  0  0  0  0  0  0  0  0
   -3.1180    2.9900    0.1400 C   0  0  0  0  0  0  0  0  0  0  0  0
   -3.4430    1.6410    0.6270 C   0  0  0  0  0  0  0  0  0  0  0  0
   -2.3500    0.9040    0.6500 C   0  0  0  0  0  0  0  0  0  0  0  0
   -2.0410   -0.5030    1.0330 C   0  0  2  0  0  0  0  0  0  0  0  0
   -1.6170   -0.5580    2.4720 C   0  0  0  0  0  0  0  0  0  0  0  0
   -1.0660   -1.0770    0.0670 C   0  0  2  0  0  0  0  0  0  0  0  0
   -0.7450   -2.3770    0.4950 O   0  0  0  0  0  0  0  0  0  0  0  0
   -1.7920   -1.2150   -1.2530 C   0  0  0  0  0  0  0  0  0  0  0  0
   -3.0500   -1.9870   -1.0410 C   0  0  0  0  0  0  0  0  0  0  0  0
  1  2  1  0
  2  3  1  0
  3  4  2  0
  3  8  1  0
  4  5  1  0
  6  5  1  6
  6  7  1  0
  6 10  1  0
  6 18  1  0
  7  8  1  0
  8  9  2  0
 10 11  1  0
 11 12  2  0
 11 15  1  0
 12 13  1  0
 13 14  1  0
 14 15  2  0
 15 16  1  0
 16 17  1  1
 16 18  1  0
 18 19  1  1
 18 20  1  0
 20 21  1  0
M  END
