
     RDKit          3D

 21 23  0  0  0  0  0  0  0  0999 V2000
    4.1930    0.3000    0.3780 C   0  0  0  0  0  0  0  0  0  0  0  0
    2.6600    0.3760    0.1970 C   0  0  2  0  0  0  0  0  0  0  0  0
    2.2000    1.7820    0.2380 C   0  0  0  0  0  0  0  0  0  0  0  0
    1.7110    2.2900   -1.1080 C   0  0  0  0  0  0  0  0  0  0  0  0
    0.5030    3.1420   -1.0720 C   0  0  0  0  0  0  0  0  0  0  0  0
   -0.7780    2.5000   -0.6640 C   0  0  0  0  0  0  0  0  0  0  0  0
   -1.1830    1.3450   -1.5030 C   0  0  0  0  0  0  0  0  0  0  0  0
   -2.1110    0.3640   -0.8870 C   0  0  2  0  0  0  0  0  0  0  0  0
   -3.1910    1.2260   -0.5050 O   0  0  0  0  0  0  0  0  0  0  0  0
   -4.3220    0.6510   -0.1150 C   0  0  0  0  0  0  0  0  0  0  0  0
   -4.3130   -0.8040   -0.4060 C   0  0  0  0  0  0  0  0  0  0  0  0
   -3.1520   -1.3950    0.2990 C   0  0  0  0  0  0  0  0  0  0  0  0
   -1.8690   -0.5100    0.2010 C   0  0  1  0  0  0  0  0  0  0  0  0
   -0.7660   -1.4340    0.4630 C   0  0  2  0  0  0  0  0  0  0  0  0
   -1.2140   -2.8000    0.5060 O   0  0  0  0  0  0  0  0  0  0  0  0
   -0.2230   -1.2870    1.8980 C   0  0  0  0  0  0  0  0  0  0  0  0
    0.9110   -0.2500    1.9350 C   0  0  0  0  0  0  0  0  0  0  0  0
    2.0640   -0.6370    1.0770 C   0  0  1  0  0  0  0  0  0  0  0  0
    1.6200   -1.9200    0.3480 C   0  0  2  0  0  0  0  0  0  0  0  0
    2.7200   -2.4560   -0.5230 C   0  0  0  0  0  0  0  0  0  0  0  0
    0.3880   -1.5360   -0.4490 C   0  0  0  0  0  0  0  0  0  0  0  0
  2  1  1  1
  2  3  1  0
  2 18  1  0
  3  4  1  0
  4  5  1  0
  5  6  1  0
  6  7  1  0
  8  7  1  1
  8  9  1  0
  8 13  1  0
  9 10  1  0
 10 11  1  0
 11 12  1  0
 13 12  1  6
 13 14  1  0
 14 15  1  1
 14 16  1  0
 14 21  1  0
 16 17  1  0
 18 17  1  6
 18 19  1  0
 19 20  1  6
 19 21  1  0
M  END
