
     RDKit          3D

 21 23  0  0  0  0  0  0  0  0999 V2000
    5.0590    1.5460    1.3980 C   0  0  0  0  0  0  0  0  0  0  0  0
    3.7580    1.6100    1.0530 C   0  0  0  0  0  0  0  0  0  0  0  0
    3.1070    2.8060    1.2590 O   0  0  0  0  0  0  0  0  0  0  0  0
    3.0850    0.4550    0.4890 C   0  0  0  0  0  0  0  0  0  0  0  0
    1.8540    0.3680    0.1150 C   0  0  0  0  0  0  0  0  0  0  0  0
    0.8840    1.4460    0.1920 C   0  0  0  0  0  0  0  0  0  0  0  0
   -0.4050    1.2980   -0.1620 C   0  0  0  0  0  0  0  0  0  0  0  0
   -1.3380    2.4100   -0.0630 C   0  0  0  0  0  0  0  0  0  0  0  0
   -2.5900    2.2450   -0.3970 C   0  0  0  0  0  0  0  0  0  0  0  0
   -3.4950    3.4200   -0.2720 C   0  0  0  0  0  0  0  0  0  0  0  0
   -3.1150    0.9730   -0.8870 C   0  0  0  0  0  0  0  0  0  0  0  0
   -2.2920   -0.2460   -0.6080 C   0  0  2  0  0  0  0  0  0  0  0  0
   -2.7830   -0.9100    0.6440 C   0  0  0  0  0  0  0  0  0  0  0  0
   -1.9550   -2.0510    1.1020 C   0  0  0  0  0  0  0  0  0  0  0  0
   -0.7530   -2.3130    0.1570 C   0  0  0  0  0  0  0  0  0  0  0  0
   -0.0100   -1.0500    0.1200 C   0  0  1  0  0  0  0  0  0  0  0  0
    1.3550   -0.9690   -0.4440 C   0  0  2  0  0  0  0  0  0  0  0  0
    2.2840   -2.0830   -0.2250 C   0  0  0  0  0  0  0  0  0  0  0  0
    1.8770   -3.4230   -0.7620 C   0  0  0  0  0  0  0  0  0  0  0  0
   -0.8320   -0.0220   -0.6520 C   0  0  2  0  0  0  0  0  0  0  0  0
   -0.4160   -0.1050   -1.9940 O   0  0  0  0  0  0  0  0  0  0  0  0
  1  2  2  0
  2  3  1  0
  2  4  1  0
  4  5  2  3
  5  6  1  0
  5 17  1  0
  6  7  2  0
  7  8  1  0
  7 20  1  0
  8  9  2  0
  9 10  1  0
  9 11  1  0
 12 11  1  1
 12 13  1  0
 12 20  1  0
 13 14  1  0
 14 15  1  0
 16 15  1  6
 16 17  1  0
 16 20  1  0
 17 18  1  1
 18 19  1  0
 20 21  1  6
M  END
