
     RDKit          3D

 21 24  0  0  0  0  0  0  0  0999 V2000
   -3.4070    0.9560    1.3200 C   0  0  0  0  0  0  0  0  0  0  0  0
   -3.2790    0.4720   -0.0870 C   0  0  2  0  0  0  0  0  0  0  0  0
   -4.1540    1.1390   -0.9390 O   0  0  0  0  0  0  0  0  0  0  0  0
   -3.5560   -1.0330   -0.0780 C   0  0  0  0  0  0  0  0  0  0  0  0
   -2.2090   -1.6660    0.2690 C   0  0  0  0  0  0  0  0  0  0  0  0
   -1.2290   -0.5490    0.3620 C   0  0  1  0  0  0  0  0  0  0  0  0
    0.1210   -0.8150   -0.1960 C   0  0  2  0  0  0  0  0  0  0  0  0
    0.7990   -1.9180    0.5300 C   0  0  0  0  0  0  0  0  0  0  0  0
    2.2260   -2.1180    0.0400 C   0  0  0  0  0  0  0  0  0  0  0  0
    2.8950   -0.7980    0.1580 C   0  0  0  0  0  0  0  0  0  0  0  0
    4.1920   -0.8480    0.4890 C   0  0  0  0  0  0  0  0  0  0  0  0
    4.8590    0.4410    0.6070 C   0  0  0  0  0  0  0  0  0  0  0  0
    5.7960    0.6080    1.4630 O   0  0  0  0  0  0  0  0  0  0  0  0
    4.3990    1.5130   -0.3000 C   0  0  0  0  0  0  0  0  0  0  0  0
    2.9300    1.7550   -0.0590 C   0  0  0  0  0  0  0  0  0  0  0  0
    2.1860    0.4610   -0.0500 C   0  0  0  0  0  0  0  0  0  0  0  0
    0.8660    0.4730   -0.1990 C   0  0  0  0  0  0  0  0  0  0  0  0
    0.1420    1.7500   -0.3320 C   0  0  0  0  0  0  0  0  0  0  0  0
   -1.1670    1.7350   -0.5190 C   0  0  0  0  0  0  0  0  0  0  0  0
   -1.8650    0.4790   -0.5900 C   0  0  2  0  0  0  0  0  0  0  0  0
   -1.8280   -0.0830   -1.9900 C   0  0  0  0  0  0  0  0  0  0  0  0
  2  1  1  1
  2  3  1  0
  2  4  1  0
  2 20  1  0
  4  5  1  0
  6  5  1  6
  6  7  1  0
  6 20  1  0
  7  8  1  1
  7 17  1  0
  8  9  1  0
  9 10  1  0
 10 11  2  0
 10 16  1  0
 11 12  1  0
 12 13  2  0
 12 14  1  0
 14 15  1  0
 15 16  1  0
 16 17  2  0
 17 18  1  0
 18 19  2  0
 19 20  1  0
 20 21  1  6
M  END
