
     RDKit          3D

 20 22  0  0  0  0  0  0  0  0999 V2000
    4.2370    0.4270    0.5040 C   0  0  0  0  0  0  0  0  0  0  0  0
    3.5100    1.3510   -0.4090 C   0  0  0  0  0  0  0  0  0  0  0  0
    2.1730    1.2750   -0.5220 C   0  0  0  0  0  0  0  0  0  0  0  0
    1.3540    0.3170    0.2120 C   0  0  1  0  0  0  0  0  0  0  0  0
    0.4260    0.8550    1.2460 C   0  0  2  0  0  0  0  0  0  0  0  0
   -0.0490   -0.3940    2.0130 C   0  0  0  0  0  0  0  0  0  0  0  0
   -1.0180   -1.2400    1.1880 C   0  0  2  0  0  0  0  0  0  0  0  0
   -2.3560   -1.0220    1.8160 C   0  0  0  0  0  0  0  0  0  0  0  0
   -0.7340   -2.7140    1.3080 C   0  0  0  0  0  0  0  0  0  0  0  0
   -0.9040   -0.7000   -0.2460 C   0  0  1  0  0  0  0  0  0  0  0  0
   -1.6470   -1.5320   -1.2410 C   0  0  0  0  0  0  0  0  0  0  0  0
   -3.0180   -1.6400   -0.9980 O   0  0  0  0  0  0  0  0  0  0  0  0
   -1.5360    0.6640   -0.1180 C   0  0  2  0  0  0  0  0  0  0  0  0
   -1.9270    1.4250   -1.2920 C   0  0  0  0  0  0  0  0  0  0  0  0
   -1.2100    2.7760   -1.2470 C   0  0  0  0  0  0  0  0  0  0  0  0
   -0.6140    2.8960    0.1380 C   0  0  0  0  0  0  0  0  0  0  0  0
   -0.7690    1.5810    0.8010 C   0  0  2  0  0  0  0  0  0  0  0  0
    0.5460   -0.6220   -0.6590 C   0  0  1  0  0  0  0  0  0  0  0  0
    0.7310   -0.3410   -2.1300 C   0  0  0  0  0  0  0  0  0  0  0  0
    1.2960   -1.9570   -0.5570 C   0  0  0  0  0  0  0  0  0  0  0  0
  1  2  1  0
  2  3  2  3
  4  3  1  6
  4  5  1  0
  4 18  1  0
  5  6  1  6
  5 17  1  0
  6  7  1  0
  7  8  1  1
  7  9  1  0
  7 10  1  0
 10 11  1  6
 10 13  1  0
 10 18  1  0
 11 12  1  0
 13 14  1  6
 13 17  1  0
 14 15  1  0
 15 16  1  0
 17 16  1  6
 18 19  1  6
 18 20  1  0
M  END
