
     RDKit          3D

 21 24  0  0  0  0  0  0  0  0999 V2000
    2.5800    0.2680    2.8200 C   0  0  0  0  0  0  0  0  0  0  0  0
    2.6600   -0.8720    1.8600 C   0  0  0  0  0  0  0  0  0  0  0  0
    1.8950   -0.4850    0.5470 C   0  0  1  0  0  0  0  0  0  0  0  0
    0.4950   -0.2020    0.8570 C   0  0  0  0  0  0  0  0  0  0  0  0
   -0.5080    0.1710   -0.1470 C   0  0  2  0  0  0  0  0  0  0  0  0
   -0.3450    1.3960   -0.9490 C   0  0  0  0  0  0  0  0  0  0  0  0
   -0.4830    2.6500   -0.0980 C   0  0  0  0  0  0  0  0  0  0  0  0
   -1.9580    2.7930    0.2190 C   0  0  0  0  0  0  0  0  0  0  0  0
   -2.6690    1.4660    0.1520 C   0  0  0  0  0  0  0  0  0  0  0  0
   -1.8390    0.3150    0.6060 C   0  0  2  0  0  0  0  0  0  0  0  0
   -1.6060    0.3720    2.0040 O   0  0  0  0  0  0  0  0  0  0  0  0
   -2.6240   -0.9460    0.3820 C   0  0  0  0  0  0  0  0  0  0  0  0
   -1.6700   -1.9370   -0.1890 C   0  0  1  0  0  0  0  0  0  0  0  0
   -2.3490   -2.7490   -1.2820 C   0  0  0  0  0  0  0  0  0  0  0  0
   -2.4450   -1.7460   -2.3960 C   0  0  0  0  0  0  0  0  0  0  0  0
   -1.5440   -0.7910   -2.2310 C   0  0  0  0  0  0  0  0  0  0  0  0
   -0.7720   -1.0390   -1.0320 C   0  0  1  0  0  0  0  0  0  0  0  0
    2.6510    0.7010    0.0440 C   0  0  0  0  0  0  0  0  0  0  0  0
    3.2360    0.2640   -1.2860 C   0  0  0  0  0  0  0  0  0  0  0  0
    3.1520   -1.2350   -1.1690 C   0  0  0  0  0  0  0  0  0  0  0  0
    2.1500   -1.5470   -0.2960 O   0  0  0  0  0  0  0  0  0  0  0  0
  1  2  1  0
  3  2  1  1
  3  4  1  0
  3 18  1  0
  3 21  1  0
  5  4  1  1
  5  6  1  0
  5 10  1  0
  5 17  1  0
  6  7  1  0
  7  8  1  0
  8  9  1  0
  9 10  1  0
 10 11  1  1
 10 12  1  0
 13 12  1  6
 13 14  1  0
 13 17  1  0
 14 15  1  0
 15 16  2  0
 17 16  1  6
 18 19  1  0
 19 20  1  0
 20 21  1  0
M  END
