
     RDKit          3D

 26 28  0  0  0  0  0  0  0  0999 V2000
    6.5830    1.9590   -1.2350 C   0  0  0  0  0  0  0  0  0  0  0  0
    6.3980    1.5210    0.2330 C   0  0  0  0  0  0  0  0  0  0  0  0
    5.5740    0.1640    0.3300 S   0  0  0  0  0  0  0  0  0  0  0  0
    6.7030   -0.6130   -0.5040 O   0  0  0  0  0  0  0  0  0  0  0  0
    4.9280   -1.1640    0.5960 N   0  0  0  0  0  0  0  0  0  0  0  0
    3.7230   -1.3980    0.2730 C   0  0  0  0  0  0  0  0  0  0  0  0
    2.8600   -2.5930    0.4180 C   0  0  0  0  0  0  0  0  0  0  0  0
    1.6140   -2.5940   -0.0080 C   0  0  0  0  0  0  0  0  0  0  0  0
    1.0440   -1.4280   -0.6330 C   0  0  0  0  0  0  0  0  0  0  0  0
   -0.3090   -1.4100   -1.1020 N   0  0  0  0  0  0  0  0  0  0  0  0
   -1.3740   -1.6310   -0.2030 C   0  0  0  0  0  0  0  0  0  0  0  0
   -1.1200   -1.8420    1.0080 O   0  0  0  0  0  0  0  0  0  0  0  0
   -2.7120   -1.6000   -0.7350 N   0  0  0  0  0  0  0  0  0  0  0  0
   -3.8280   -1.8180    0.1370 C   0  0  0  0  0  0  0  0  0  0  0  0
   -3.9690   -0.7980    1.2030 C   0  0  0  0  0  0  0  0  0  0  0  0
   -4.2350    0.5800    0.7650 C   0  0  0  0  0  0  0  0  0  0  0  0
   -3.4320    1.5790    0.2870 C   0  0  0  0  0  0  0  0  0  0  0  0
   -1.9620    1.5660    0.0940 C   0  0  0  0  0  0  0  0  0  0  0  0
   -4.2640    2.6340    0.0270 N   0  0  0  0  0  0  0  0  0  0  0  0
   -5.4960    2.3390    0.3140 N   0  0  0  0  0  0  0  0  0  0  0  0
   -5.5430    1.0930    0.7710 C   0  0  0  0  0  0  0  0  0  0  0  0
   -6.7850    0.3920    1.2070 C   0  0  0  0  0  0  0  0  0  0  0  0
    1.8020   -0.3560   -0.7690 C   0  0  0  0  0  0  0  0  0  0  0  0
    3.1690   -0.2630   -0.3360 N   0  0  0  0  0  0  0  0  0  0  0  0
    4.1710    0.7680   -0.3770 C   0  0  0  0  0  0  0  0  0  0  0  0
    3.8160    1.8810   -0.9140 O   0  0  0  0  0  0  0  0  0  0  0  0
  1  2  1  0
  2  3  1  0
  3  4  2  0
  3  5  1  0
  3 25  1  0
  5  6  2  0
  6  7  1  0
  6 24  1  0
  7  8  2  0
  8  9  1  0
  9 10  1  0
  9 23  2  0
 10 11  1  0
 11 12  2  0
 11 13  1  0
 13 14  1  0
 14 15  1  0
 15 16  1  0
 16 17  1  0
 16 21  2  0
 17 18  1  0
 17 19  2  0
 19 20  1  0
 20 21  1  0
 21 22  1  0
 23 24  1  0
 24 25  1  0
 25 26  2  0
M  END
