
     RDKit          3D

 28 30  0  0  0  0  0  0  0  0999 V2000
    0.6160    1.5810   -4.0710 C   0  0  0  0  0  0  0  0  0  0  0  0
   -0.1660    1.3470   -2.9160 O   0  0  0  0  0  0  0  0  0  0  0  0
    0.1390    1.9060   -1.6700 C   0  0  0  0  0  0  0  0  0  0  0  0
    1.1440    2.6390   -1.5810 O   0  0  0  0  0  0  0  0  0  0  0  0
   -0.7210    1.6080   -0.5510 C   0  0  0  0  0  0  0  0  0  0  0  0
   -1.7690    0.8190   -0.7630 C   0  0  0  0  0  0  0  0  0  0  0  0
   -2.6110    0.5300    0.3450 N   0  0  0  0  0  0  0  0  0  0  0  0
   -2.1470    0.1330   -2.3390 S   0  0  0  0  0  0  0  0  0  0  0  0
   -3.5910   -0.8850   -2.3860 C   0  0  2  0  0  0  0  0  0  0  0  0
   -4.8980   -0.1780   -2.1250 C   0  0  0  0  0  0  0  0  0  0  0  0
   -5.9700   -1.1780   -2.5600 C   0  0  0  0  0  0  0  0  0  0  0  0
   -5.2800   -2.7020   -1.7940 S   0  0  0  0  0  0  0  0  0  0  0  0
   -3.6130   -2.0250   -1.3870 C   0  0  0  0  0  0  0  0  0  0  0  0
   -0.4160    2.1680    0.7630 C   0  0  1  0  0  0  0  0  0  0  0  0
   -1.4800    1.9780    1.7220 N   0  0  0  0  0  0  0  0  0  0  0  0
    0.8730    1.7300    1.3590 C   0  0  0  0  0  0  0  0  0  0  0  0
    1.9470    1.8220    0.7300 O   0  0  0  0  0  0  0  0  0  0  0  0
    0.9320    1.2050    2.6240 O   0  0  0  0  0  0  0  0  0  0  0  0
    2.0080    0.7430    3.3490 C   0  0  0  0  0  0  0  0  0  0  0  0
    2.7640   -0.4170    2.8110 C   0  0  1  0  0  0  0  0  0  0  0  0
    3.3150   -0.1710    1.5850 O   0  0  0  0  0  0  0  0  0  0  0  0
    4.5060   -0.8670    1.4720 C   0  0  2  0  0  0  0  0  0  0  0  0
    4.3250   -2.2290    0.8940 C   0  0  0  0  0  0  0  0  0  0  0  0
    4.6930   -3.1810    1.8470 O   0  0  0  0  0  0  0  0  0  0  0  0
    5.1140   -2.5520    2.9950 C   0  0  0  0  0  0  0  0  0  0  0  0
    5.6110   -3.1320    3.9940 O   0  0  0  0  0  0  0  0  0  0  0  0
    4.9010   -1.0850    2.8980 C   0  0  2  0  0  0  0  0  0  0  0  0
    3.8140   -0.7260    3.6820 O   0  0  0  0  0  0  0  0  0  0  0  0
  1  2  1  0
  2  3  1  0
  3  4  2  0
  3  5  1  0
  5  6  2  3
  5 14  1  0
  6  7  1  0
  6  8  1  0
  9  8  1  1
  9 10  1  0
  9 13  1  0
 10 11  1  0
 11 12  1  0
 12 13  1  0
 14 15  1  1
 14 16  1  0
 16 17  2  0
 16 18  1  0
 18 19  1  0
 20 19  1  1
 20 21  1  0
 20 28  1  0
 21 22  1  0
 22 23  1  1
 22 27  1  0
 23 24  1  0
 24 25  1  0
 25 26  2  0
 25 27  1  0
 27 28  1  1
M  END
