
     RDKit          3D

 26 28  0  0  0  0  0  0  0  0999 V2000
   -5.9760    1.9320   -2.2570 C   0  0  0  0  0  0  0  0  0  0  0  0
   -5.8010    0.8080   -1.2720 C   0  0  0  0  0  0  0  0  0  0  0  0
   -4.6120    0.5560   -0.7540 C   0  0  0  0  0  0  0  0  0  0  0  0
   -4.3960   -0.5150    0.1980 C   0  0  0  0  0  0  0  0  0  0  0  0
   -3.0770   -0.7120    0.7200 N   0  0  0  0  0  0  0  0  0  0  0  0
   -1.9320    0.0320    0.3910 C   0  0  0  0  0  0  0  0  0  0  0  0
   -1.9380    0.9640   -0.4160 O   0  0  0  0  0  0  0  0  0  0  0  0
   -0.5950   -0.2740    1.0220 C   0  0  0  0  0  0  0  0  0  0  0  0
    0.4400    0.5880    0.5640 N   0  0  0  0  0  0  0  0  0  0  0  0
    0.8130    0.6340   -0.7920 C   0  0  0  0  0  0  0  0  0  0  0  0
    0.2720   -0.0720   -1.6800 O   0  0  0  0  0  0  0  0  0  0  0  0
    1.9010    1.5500   -1.2270 C   0  0  0  0  0  0  0  0  0  0  0  0
    3.2180    1.0270   -0.9690 N   0  0  0  0  0  0  0  0  0  0  0  0
    3.9260    0.2540   -1.7570 N   0  0  0  0  0  0  0  0  0  0  0  0
    5.1010   -0.0330   -1.1540 C   0  0  0  0  0  0  0  0  0  0  0  0
    5.1130    0.5850    0.0420 N   0  0  0  0  0  0  0  0  0  0  0  0
    3.9570    1.2250    0.1340 C   0  0  0  0  0  0  0  0  0  0  0  0
    3.5900    1.9220    1.1080 O   0  0  0  0  0  0  0  0  0  0  0  0
    6.2260    0.5020    0.9660 C   0  0  0  0  0  0  0  0  0  0  0  0
    7.3970   -0.1970    0.3050 C   0  0  0  0  0  0  0  0  0  0  0  0
    6.9870   -1.3120   -0.4900 N   0  0  0  0  0  0  0  0  0  0  0  0
    6.2200   -0.8530   -1.6200 C   0  0  0  0  0  0  0  0  0  0  0  0
   -5.3550   -1.3230    0.6290 C   0  0  0  0  0  0  0  0  0  0  0  0
   -4.9380   -2.3780    1.6180 C   0  0  0  0  0  0  0  0  0  0  0  0
   -6.7640   -1.3410    0.2930 C   0  0  0  0  0  0  0  0  0  0  0  0
   -7.2730   -0.1080   -0.8910 S   0  0  0  0  0  0  0  0  0  0  0  0
  1  2  1  0
  2  3  2  0
  2 26  1  0
  3  4  1  0
  4  5  1  0
  4 23  2  0
  5  6  1  0
  6  7  2  0
  6  8  1  0
  8  9  1  0
  9 10  1  0
 10 11  2  0
 10 12  1  0
 12 13  1  0
 13 14  1  0
 13 17  1  0
 14 15  2  0
 15 16  1  0
 15 22  1  0
 16 17  1  0
 16 19  1  0
 17 18  2  0
 19 20  1  0
 20 21  1  0
 21 22  1  0
 23 24  1  0
 23 25  1  0
 25 26  1  0
M  END
