
     RDKit          3D

 26 28  0  0  0  0  0  0  0  0999 V2000
    8.2700   -0.3790   -2.3270 C   0  0  0  0  0  0  0  0  0  0  0  0
    7.0180   -0.4520   -1.5330 C   0  0  0  0  0  0  0  0  0  0  0  0
    5.9940   -0.9780   -1.4870 N   0  0  0  0  0  0  0  0  0  0  0  0
    5.0600   -0.7940   -0.5870 N   0  0  0  0  0  0  0  0  0  0  0  0
    5.1320   -0.0630    0.3060 C   0  0  0  0  0  0  0  0  0  0  0  0
    4.3600    0.4060    1.4590 C   0  0  0  0  0  0  0  0  0  0  0  0
    4.8050    1.2730    2.2630 O   0  0  0  0  0  0  0  0  0  0  0  0
    3.0840   -0.1660    1.6250 N   0  0  0  0  0  0  0  0  0  0  0  0
    2.2160    0.2230    2.7420 C   0  0  0  0  0  0  0  0  0  0  0  0
    1.9180    1.7000    2.6720 C   0  0  0  0  0  0  0  0  0  0  0  0
    1.2720    2.0720    1.4950 O   0  0  0  0  0  0  0  0  0  0  0  0
    0.0470    1.5870    1.0830 C   0  0  0  0  0  0  0  0  0  0  0  0
   -0.5290    2.0020   -0.0950 C   0  0  0  0  0  0  0  0  0  0  0  0
   -1.7730    1.5300   -0.5440 C   0  0  0  0  0  0  0  0  0  0  0  0
   -2.4460    0.6260    0.2050 C   0  0  0  0  0  0  0  0  0  0  0  0
   -3.6880    0.0770   -0.1250 N   0  0  0  0  0  0  0  0  0  0  0  0
   -4.4520    0.3540   -1.2680 C   0  0  0  0  0  0  0  0  0  0  0  0
   -4.0710    1.1590   -2.1390 O   0  0  0  0  0  0  0  0  0  0  0  0
   -5.7570   -0.3160   -1.4710 C   0  0  0  0  0  0  0  0  0  0  0  0
   -6.5580   -0.1610   -2.4620 N   0  0  0  0  0  0  0  0  0  0  0  0
   -7.7360   -0.9650   -2.3430 C   0  0  0  0  0  0  0  0  0  0  0  0
   -7.5380   -1.6890   -1.0480 C   0  0  0  0  0  0  0  0  0  0  0  0
   -6.3760   -1.2740   -0.5880 C   0  0  0  0  0  0  0  0  0  0  0  0
   -1.8400    0.2150    1.4060 C   0  0  0  0  0  0  0  0  0  0  0  0
   -0.6530    0.6890    1.7980 N   0  0  0  0  0  0  0  0  0  0  0  0
    6.8510    0.6610    0.0220 S   0  0  0  0  0  0  0  0  0  0  0  0
  1  2  1  0
  2  3  2  0
  2 26  1  0
  3  4  1  0
  4  5  2  0
  5  6  1  0
  5 26  1  0
  6  7  2  0
  6  8  1  0
  8  9  1  0
  9 10  1  0
 10 11  1  0
 11 12  1  0
 12 13  2  0
 12 25  1  0
 13 14  1  0
 14 15  2  0
 15 16  1  0
 15 24  1  0
 16 17  1  0
 17 18  2  0
 17 19  1  0
 19 20  2  0
 19 23  1  0
 20 21  1  0
 21 22  1  0
 22 23  2  0
 24 25  2  0
M  END
