
     RDKit          3D

 26 28  0  0  0  0  0  0  0  0999 V2000
    7.9990   -1.4430   -1.3380 N   0  0  0  0  0  0  0  0  0  0  0  0
    6.8810   -1.2410   -1.1020 C   0  0  0  0  0  0  0  0  0  0  0  0
    5.4960   -0.9670   -0.8000 C   0  0  0  0  0  0  0  0  0  0  0  0
    5.0850    0.2460   -0.2960 C   0  0  0  0  0  0  0  0  0  0  0  0
    3.7280    0.4810   -0.0130 C   0  0  0  0  0  0  0  0  0  0  0  0
    2.7930   -0.4920   -0.2330 C   0  0  0  0  0  0  0  0  0  0  0  0
    1.3710   -0.2930    0.0470 N   0  0  0  0  0  0  0  0  0  0  0  0
    0.6590    0.2230   -1.0650 C   0  0  0  0  0  0  0  0  0  0  0  0
   -0.7540    0.4890   -0.9760 C   0  0  0  0  0  0  0  0  0  0  0  0
   -1.7100   -0.4610   -1.3230 C   0  0  0  0  0  0  0  0  0  0  0  0
   -3.0340   -0.1010   -1.2300 C   0  0  0  0  0  0  0  0  0  0  0  0
   -3.4620    1.1450   -0.8150 C   0  0  0  0  0  0  0  0  0  0  0  0
   -4.8050    1.4490   -0.7420 O   0  0  0  0  0  0  0  0  0  0  0  0
   -5.7610    1.2040    0.6370 S   0  0  1  0  0  0  0  0  0  0  0  0
   -7.3460    0.6810    0.1300 N   0  0  0  0  0  0  0  0  0  0  0  0
   -5.1640    0.0750    1.4340 O   0  0  0  0  0  0  0  0  0  0  0  0
   -5.8340    2.4110    1.4990 O   0  0  0  0  0  0  0  0  0  0  0  0
   -2.5210    2.0930   -0.4690 C   0  0  0  0  0  0  0  0  0  0  0  0
   -1.1960    1.7420   -0.5590 C   0  0  0  0  0  0  0  0  0  0  0  0
    0.9390   -0.6240    1.3130 N   0  0  0  0  0  0  0  0  0  0  0  0
   -0.2810   -0.5500    1.8220 C   0  0  0  0  0  0  0  0  0  0  0  0
   -0.2180   -0.9900    3.1240 N   0  0  0  0  0  0  0  0  0  0  0  0
    1.0180   -1.3290    3.4160 N   0  0  0  0  0  0  0  0  0  0  0  0
    1.7190   -1.1000    2.2980 C   0  0  0  0  0  0  0  0  0  0  0  0
    3.1920   -1.7010   -0.7340 C   0  0  0  0  0  0  0  0  0  0  0  0
    4.5480   -1.9410   -1.0190 C   0  0  0  0  0  0  0  0  0  0  0  0
  1  2  3  0
  2  3  1  0
  3  4  2  0
  3 26  1  0
  4  5  1  0
  5  6  2  0
  6  7  1  0
  6 25  1  0
  7  8  1  0
  7 20  1  0
  8  9  1  0
  9 10  2  0
  9 19  1  0
 10 11  1  0
 11 12  2  0
 12 13  1  0
 12 18  1  0
 13 14  1  0
 14 15  1  6
 14 16  2  0
 14 17  2  0
 18 19  2  0
 20 21  1  0
 20 24  1  0
 21 22  2  0
 22 23  1  0
 23 24  2  0
 25 26  2  0
M  END
