
     RDKit          3D

 26 27  0  0  0  0  0  0  0  0999 V2000
    6.3100   -1.4110   -0.3940 C   0  0  0  0  0  0  0  0  0  0  0  0
    6.2040   -1.8490    1.0350 C   0  0  0  0  0  0  0  0  0  0  0  0
    4.7660   -2.0810    1.4650 C   0  0  0  0  0  0  0  0  0  0  0  0
    3.9550   -0.8530    1.3330 C   0  0  0  0  0  0  0  0  0  0  0  0
    2.8700   -0.7680    0.5480 C   0  0  0  0  0  0  0  0  0  0  0  0
    2.1440    0.4760    0.4870 C   0  0  0  0  0  0  0  0  0  0  0  0
    1.0770    0.7270   -0.2260 C   0  0  0  0  0  0  0  0  0  0  0  0
    0.5110    2.0580   -0.1260 N   0  0  0  0  0  0  0  0  0  0  0  0
   -0.6930    2.4790   -0.3800 C   0  0  0  0  0  0  0  0  0  0  0  0
   -0.9060    3.9540   -0.1530 C   0  0  0  0  0  0  0  0  0  0  0  0
   -1.9330    4.2390    0.8890 C   0  0  0  0  0  0  0  0  0  0  0  0
   -1.7980    1.7360   -0.8300 N   0  0  0  0  0  0  0  0  0  0  0  0
   -3.0370    2.4900   -1.0850 C   0  0  0  0  0  0  0  0  0  0  0  0
   -1.9350    0.3230   -1.0980 C   0  0  0  0  0  0  0  0  0  0  0  0
   -3.1290   -0.1530   -1.1870 N   0  0  0  0  0  0  0  0  0  0  0  0
   -3.2800   -1.5080   -1.4440 N   0  0  0  0  0  0  0  0  0  0  0  0
   -4.2390   -2.1960   -0.9350 C   0  0  0  0  0  0  0  0  0  0  0  0
   -4.5720   -3.9440   -1.1650 S   0  0  0  0  0  0  0  0  0  0  0  0
   -5.6970   -4.0960    0.2200 C   0  0  0  0  0  0  0  0  0  0  0  0
   -6.1050   -5.1150    0.8000 O   0  0  0  0  0  0  0  0  0  0  0  0
   -6.0530   -2.7640    0.5490 N   0  0  0  0  0  0  0  0  0  0  0  0
   -5.3010   -1.7590   -0.0460 C   0  0  0  0  0  0  0  0  0  0  0  0
   -5.5030   -0.5020    0.1540 O   0  0  0  0  0  0  0  0  0  0  0  0
   -0.8440   -0.6060   -1.2760 N   0  0  0  0  0  0  0  0  0  0  0  0
    0.5500   -0.3330   -1.0750 C   0  0  0  0  0  0  0  0  0  0  0  0
    1.3840   -1.0510   -1.6710 O   0  0  0  0  0  0  0  0  0  0  0  0
  1  2  1  0
  2  3  1  0
  3  4  1  0
  4  5  2  3
  5  6  1  0
  6  7  2  3
  7  8  1  0
  7 25  1  0
  8  9  2  0
  9 10  1  0
  9 12  1  0
 10 11  1  0
 12 13  1  0
 12 14  1  0
 14 15  2  3
 14 24  1  0
 15 16  1  0
 16 17  2  3
 17 18  1  0
 17 22  1  0
 18 19  1  0
 19 20  2  0
 19 21  1  0
 21 22  1  0
 22 23  2  0
 24 25  1  0
 25 26  2  0
M  END
