
     RDKit          3D

 26 27  0  0  0  0  0  0  0  0999 V2000
   -7.7950   -0.4170    2.5900 C   0  0  0  0  0  0  0  0  0  0  0  0
   -6.4220   -0.9730    2.6020 C   0  0  0  0  0  0  0  0  0  0  0  0
   -5.6710   -0.8480    1.5120 C   0  0  0  0  0  0  0  0  0  0  0  0
   -6.1900   -0.1740    0.3210 C   0  0  0  0  0  0  0  0  0  0  0  0
   -5.4240    0.9320   -0.0190 O   0  0  0  0  0  0  0  0  0  0  0  0
   -4.0420    0.8010   -0.3550 C   0  0  0  0  0  0  0  0  0  0  0  0
   -3.6590   -0.3780   -0.2920 O   0  0  0  0  0  0  0  0  0  0  0  0
   -3.3070    1.9800   -0.7030 C   0  0  0  0  0  0  0  0  0  0  0  0
   -2.1050    2.2150   -1.0290 C   0  0  0  0  0  0  0  0  0  0  0  0
   -0.8960    1.4280   -1.2060 C   0  0  0  0  0  0  0  0  0  0  0  0
    0.3240    1.9560   -1.6770 C   0  0  0  0  0  0  0  0  0  0  0  0
    1.2240    0.9610   -1.6830 N   0  0  0  0  0  0  0  0  0  0  0  0
    2.6240    1.1210   -2.1150 C   0  0  0  0  0  0  0  0  0  0  0  0
    0.6870   -0.1690   -1.2550 C   0  0  0  0  0  0  0  0  0  0  0  0
    1.1400   -1.3540   -1.0770 N   0  0  0  0  0  0  0  0  0  0  0  0
    2.3570   -1.9310   -1.2550 C   0  0  0  0  0  0  0  0  0  0  0  0
    3.0240   -1.8300   -2.3100 O   0  0  0  0  0  0  0  0  0  0  0  0
    2.9680   -2.7450   -0.1480 C   0  0  0  0  0  0  0  0  0  0  0  0
    3.4040   -1.8540    1.3150 S   0  0  0  0  0  0  0  0  0  0  0  0
    4.7460   -0.7130    1.1610 C   0  0  0  0  0  0  0  0  0  0  0  0
    4.6660    0.5920    0.9090 N   0  0  0  0  0  0  0  0  0  0  0  0
    5.8640    1.1390    0.8880 N   0  0  0  0  0  0  0  0  0  0  0  0
    6.7840    0.1740    1.1340 C   0  0  0  0  0  0  0  0  0  0  0  0
    8.2690    0.3680    1.2020 C   0  0  0  0  0  0  0  0  0  0  0  0
    6.0800   -0.9490    1.2980 N   0  0  0  0  0  0  0  0  0  0  0  0
   -0.6340    0.1510   -0.9650 N   0  0  0  0  0  0  0  0  0  0  0  0
  1  2  1  0
  2  3  2  3
  3  4  1  0
  4  5  1  0
  5  6  1  0
  6  7  2  0
  6  8  1  0
  8  9  2  3
  9 10  1  0
 10 11  2  0
 10 26  1  0
 11 12  1  0
 12 13  1  0
 12 14  1  0
 14 15  2  3
 14 26  1  0
 15 16  1  0
 16 17  2  0
 16 18  1  0
 18 19  1  0
 19 20  1  0
 20 21  2  0
 20 25  1  0
 21 22  1  0
 22 23  2  0
 23 24  1  0
 23 25  1  0
M  END
