
     RDKit          3D

 26 28  0  0  0  0  0  0  0  0999 V2000
   -5.8940   -1.7470    1.6870 C   0  0  0  0  0  0  0  0  0  0  0  0
   -4.8660   -1.0940    0.8540 C   0  0  0  0  0  0  0  0  0  0  0  0
   -3.5800   -1.3580    0.9750 O   0  0  0  0  0  0  0  0  0  0  0  0
   -2.8480   -0.6820    0.1540 C   0  0  0  0  0  0  0  0  0  0  0  0
   -1.4260   -0.7500    0.0470 N   0  0  0  0  0  0  0  0  0  0  0  0
   -0.6630    0.0040   -0.8610 C   0  0  0  0  0  0  0  0  0  0  0  0
   -1.2160    0.8040   -1.6550 O   0  0  0  0  0  0  0  0  0  0  0  0
    0.8280   -0.1470   -0.8830 C   0  0  0  0  0  0  0  0  0  0  0  0
    1.3660   -1.3640    0.3490 S   0  0  0  0  0  0  0  0  0  0  0  0
    3.1520   -1.5340    0.3530 C   0  0  0  0  0  0  0  0  0  0  0  0
    3.7370   -0.2290    0.8380 C   0  0  0  0  0  0  0  0  0  0  0  0
    5.1840   -0.2320    0.8910 N   0  0  0  0  0  0  0  0  0  0  0  0
    5.5800    1.0760    1.3770 C   0  0  0  0  0  0  0  0  0  0  0  0
    6.4460    1.8040    0.3710 C   0  0  0  0  0  0  0  0  0  0  0  0
    7.6100    0.9680    0.1420 N   0  0  0  0  0  0  0  0  0  0  0  0
    7.1830   -0.2170   -0.5370 C   0  0  0  0  0  0  0  0  0  0  0  0
    5.7260   -0.5360   -0.3970 C   0  0  0  0  0  0  0  0  0  0  0  0
   -3.7220    0.0940   -0.5710 C   0  0  0  0  0  0  0  0  0  0  0  0
   -5.0310   -0.1640   -0.1260 C   0  0  0  0  0  0  0  0  0  0  0  0
   -6.2270    0.4680   -0.6430 C   0  0  0  0  0  0  0  0  0  0  0  0
   -6.1090    1.3590   -1.6760 N   0  0  0  0  0  0  0  0  0  0  0  0
   -7.1360    1.9870   -2.2250 C   0  0  0  0  0  0  0  0  0  0  0  0
   -8.3890    1.7610   -1.7670 N   0  0  0  0  0  0  0  0  0  0  0  0
   -8.5430    0.9060   -0.7690 C   0  0  0  0  0  0  0  0  0  0  0  0
   -9.7040    0.6890   -0.3350 O   0  0  0  0  0  0  0  0  0  0  0  0
   -7.4700    0.2690   -0.2160 N   0  0  0  0  0  0  0  0  0  0  0  0
  1  2  1  0
  2  3  1  0
  2 19  2  0
  3  4  1  0
  4  5  1  0
  4 18  2  0
  5  6  1  0
  6  7  2  0
  6  8  1  0
  8  9  1  0
  9 10  1  0
 10 11  1  0
 11 12  1  0
 12 13  1  0
 12 17  1  0
 13 14  1  0
 14 15  1  0
 15 16  1  0
 16 17  1  0
 18 19  1  0
 19 20  1  0
 20 21  2  0
 20 26  1  0
 21 22  1  0
 22 23  2  0
 23 24  1  0
 24 25  2  0
 24 26  1  0
M  END
