
     RDKit          3D

 27 29  0  0  0  0  0  0  0  0999 V2000
   -2.0270    4.7360    3.7180 N   0  0  0  0  0  0  0  0  0  0  0  0
   -1.8040    3.6820    3.3200 C   0  0  0  0  0  0  0  0  0  0  0  0
   -1.5290    2.3620    2.8400 C   0  0  0  0  0  0  0  0  0  0  0  0
   -0.4350    1.6390    3.3730 C   0  0  0  0  0  0  0  0  0  0  0  0
   -0.1350    0.3800    2.8820 C   0  0  0  0  0  0  0  0  0  0  0  0
   -0.8520   -0.2220    1.8860 C   0  0  0  0  0  0  0  0  0  0  0  0
   -0.5410   -1.5190    1.4180 N   0  0  0  0  0  0  0  0  0  0  0  0
    0.3820   -1.7900    0.4070 C   0  0  0  0  0  0  0  0  0  0  0  0
    0.4190   -0.9840   -0.8130 C   0  0  0  0  0  0  0  0  0  0  0  0
    0.3110   -1.5530   -2.0850 C   0  0  0  0  0  0  0  0  0  0  0  0
    0.4480   -0.7760   -3.2060 C   0  0  0  0  0  0  0  0  0  0  0  0
    0.6950    0.5960   -3.0770 C   0  0  0  0  0  0  0  0  0  0  0  0
    0.8390    1.3510   -4.2790 O   0  0  0  0  0  0  0  0  0  0  0  0
    2.4460    1.4580   -4.9140 S   0  0  2  0  0  0  0  0  0  0  0  0
    3.4440    2.3670   -3.8360 N   0  0  0  0  0  0  0  0  0  0  0  0
    2.3610    2.2030   -6.2180 O   0  0  0  0  0  0  0  0  0  0  0  0
    2.9340    0.0760   -5.1240 O   0  0  0  0  0  0  0  0  0  0  0  0
    0.8030    1.1890   -1.8710 C   0  0  0  0  0  0  0  0  0  0  0  0
    1.1400    3.0660   -1.6420 Br  0  0  0  0  0  0  0  0  0  0  0  0
    0.6580    0.3580   -0.7640 C   0  0  0  0  0  0  0  0  0  0  0  0
   -1.1840   -2.5780    2.1060 N   0  0  0  0  0  0  0  0  0  0  0  0
   -1.1200   -3.8770    1.8600 C   0  0  0  0  0  0  0  0  0  0  0  0
   -1.8580   -4.5570    2.7720 N   0  0  0  0  0  0  0  0  0  0  0  0
   -2.4060   -3.6830    3.6120 N   0  0  0  0  0  0  0  0  0  0  0  0
   -1.9900   -2.4910    3.2010 C   0  0  0  0  0  0  0  0  0  0  0  0
   -1.9340    0.4760    1.3470 C   0  0  0  0  0  0  0  0  0  0  0  0
   -2.2300    1.7590    1.8570 C   0  0  0  0  0  0  0  0  0  0  0  0
  1  2  3  0
  2  3  1  0
  3  4  2  0
  3 27  1  0
  4  5  1  0
  5  6  2  0
  6  7  1  0
  6 26  1  0
  7  8  1  0
  7 21  1  0
  8  9  1  0
  9 10  2  0
  9 20  1  0
 10 11  1  0
 11 12  2  0
 12 13  1  0
 12 18  1  0
 13 14  1  0
 14 15  1  1
 14 16  2  0
 14 17  2  0
 18 19  1  0
 18 20  2  0
 21 22  1  0
 21 25  1  0
 22 23  2  0
 23 24  1  0
 24 25  2  0
 26 27  2  0
M  END
