
     RDKit          3D

 12 12  0  0  0  0  0  0  0  0999 V2000
   -1.0470    0.1230    1.7530 O   0  0  0  0  0  0  0  0  0  0  0  0
   -0.8550    0.0350    0.3460 C   0  0  1  0  0  0  0  0  0  0  0  0
    0.2410    0.8550   -0.2320 C   0  0  0  0  0  0  0  0  0  0  0  0
    1.6070    0.6390    0.2840 C   0  0  0  0  0  0  0  0  0  0  0  0
    2.2270   -0.6870    0.1020 C   0  0  0  0  0  0  0  0  0  0  0  0
    2.4870   -1.1250   -1.7590 Br  0  0  0  0  0  0  0  0  0  0  0  0
   -1.6360   -0.9940   -0.3910 C   0  0  2  0  0  0  0  0  0  0  0  0
   -2.6510   -2.2860    0.6850 Br  0  0  0  0  0  0  0  0  0  0  0  0
   -1.1230   -1.6510   -2.1150 Br  0  0  0  0  0  0  0  0  0  0  0  0
   -2.2050    0.3760   -0.3420 C   0  0  1  0  0  0  0  0  0  0  0  0
   -3.7380    0.7400    0.7540 Br  0  0  0  0  0  0  0  0  0  0  0  0
   -2.1550    1.3850   -1.9840 Br  0  0  0  0  0  0  0  0  0  0  0  0
  2  1  1  1
  2  3  1  0
  2  7  1  0
  2 10  1  0
  3  4  1  0
  4  5  1  0
  5  6  1  0
  7  8  1  1
  7  9  1  0
  7 10  1  0
 10 11  1  1
 10 12  1  0
M  END
