
     RDKit          3D

 11 10  0  0  0  0  0  0  0  0999 V2000
    0.0360    0.9110   -1.7980 C   0  0  0  0  0  0  0  0  0  0  0  0
    0.2740   -0.2820   -1.0590 O   0  0  0  0  0  0  0  0  0  0  0  0
   -0.0560   -0.3740    0.2860 C   0  0  0  0  0  0  0  0  0  0  0  0
    0.8370   -0.0470    1.1920 C   0  0  0  0  0  0  0  0  0  0  0  0
    2.2020    0.4130    1.0930 C   0  0  0  0  0  0  0  0  0  0  0  0
    2.9220    0.4340   -0.6710 Br  0  0  0  0  0  0  0  0  0  0  0  0
   -1.3620   -0.8230    0.7290 C   0  0  0  0  0  0  0  0  0  0  0  0
   -1.6170   -0.7840    2.6590 Br  0  0  0  0  0  0  0  0  0  0  0  0
   -2.3620   -1.2370    0.0370 C   0  0  0  0  0  0  0  0  0  0  0  0
   -2.3120   -1.3580   -1.8490 Br  0  0  0  0  0  0  0  0  0  0  0  0
   -3.9670   -1.7510    0.9330 Br  0  0  0  0  0  0  0  0  0  0  0  0
  1  2  1  0
  2  3  1  0
  3  4  2  3
  3  7  1  0
  4  5  1  0
  5  6  1  0
  7  8  1  0
  7  9  2  3
  9 10  1  0
  9 11  1  0
M  END
