
     RDKit          3D

 11 11  0  0  0  0  0  0  0  0999 V2000
   -0.1880   -2.3390   -0.2720 O   0  0  0  0  0  0  0  0  0  0  0  0
    0.2530   -1.1630   -0.1670 C   0  0  0  0  0  0  0  0  0  0  0  0
    1.6610   -0.8030   -0.1520 C   0  0  0  0  0  0  0  0  0  0  0  0
    3.1620   -1.9950   -0.2840 Br  0  0  0  0  0  0  0  0  0  0  0  0
    1.7040    0.5140   -0.0290 C   0  0  0  0  0  0  0  0  0  0  0  0
    3.2750    1.6030    0.0530 Br  0  0  0  0  0  0  0  0  0  0  0  0
    0.3470    1.0450    0.0390 C   0  0  0  0  0  0  0  0  0  0  0  0
   -0.1490    2.8850    0.2190 Br  0  0  0  0  0  0  0  0  0  0  0  0
   -0.5300    0.0590   -0.0420 C   0  0  0  0  0  0  0  0  0  0  0  0
   -2.0200    0.1420   -0.0150 C   0  0  0  0  0  0  0  0  0  0  0  0
   -2.7620   -0.8570    1.4640 Br  0  0  0  0  0  0  0  0  0  0  0  0
  1  2  2  0
  2  3  1  0
  2  9  1  0
  3  4  1  0
  3  5  2  0
  5  6  1  0
  5  7  1  0
  7  8  1  0
  7  9  2  0
  9 10  1  0
 10 11  1  0
M  END
