
     RDKit          3D

 11 11  0  0  0  0  0  0  0  0999 V2000
   -0.9770   -1.7850   -0.9890 O   0  0  0  0  0  0  0  0  0  0  0  0
   -0.9340   -0.6450   -0.3360 C   0  0  0  0  0  0  0  0  0  0  0  0
   -2.2470   -0.1560    0.0070 C   0  0  0  0  0  0  0  0  0  0  0  0
   -2.2840    1.4780    0.9470 Br  0  0  0  0  0  0  0  0  0  0  0  0
    0.3590   -0.0930   -0.0800 C   0  0  0  0  0  0  0  0  0  0  0  0
    0.9140    0.9470    0.4910 C   0  0  0  0  0  0  0  0  0  0  0  0
    0.4150    2.5500    1.4360 Br  0  0  0  0  0  0  0  0  0  0  0  0
    2.2500    0.4280    0.1300 C   0  0  0  0  0  0  0  0  0  0  0  0
    4.0350    1.0730    0.4160 Br  0  0  0  0  0  0  0  0  0  0  0  0
    1.7100   -0.6120   -0.4420 C   0  0  0  0  0  0  0  0  0  0  0  0
    2.4610   -2.1130   -1.3390 Br  0  0  0  0  0  0  0  0  0  0  0  0
  1  2  2  0
  2  3  1  0
  2  5  1  0
  3  4  1  0
  5  6  2  0
  5 10  1  0
  6  7  1  0
  6  8  1  0
  8  9  1  0
  8 10  2  0
 10 11  1  0
M  END
