
     RDKit          3D

 12 13  0  0  0  0  0  0  0  0999 V2000
    1.8420   -1.6290   -1.1320 C   0  0  0  0  0  0  0  0  0  0  0  0
    0.5540   -1.1280   -0.8910 O   0  0  0  0  0  0  0  0  0  0  0  0
    0.3370   -0.0930    0.0490 C   0  0  0  0  0  0  0  0  0  0  0  0
    1.5140    0.4190    0.7970 C   0  0  0  0  0  0  0  0  0  0  0  0
   -0.8690    0.3540    0.2060 C   0  0  0  0  0  0  0  0  0  0  0  0
   -2.0170   -0.2330   -0.6150 C   0  0  2  0  0  0  0  0  0  0  0  0
   -1.5060   -1.6240   -1.7810 Br  0  0  0  0  0  0  0  0  0  0  0  0
   -2.8460    1.2650   -1.5120 Br  0  0  0  0  0  0  0  0  0  0  0  0
   -1.3490    1.4310    1.1070 C   0  0  1  0  0  0  0  0  0  0  0  0
   -1.7310    3.0500    0.1120 Br  0  0  0  0  0  0  0  0  0  0  0  0
   -3.1090    0.8790    1.8180 Br  0  0  0  0  0  0  0  0  0  0  0  0
   -0.1640    1.7180    2.5580 Br  0  0  0  0  0  0  0  0  0  0  0  0
  1  2  1  0
  2  3  1  0
  3  4  1  0
  3  5  2  0
  5  6  1  0
  5  9  1  0
  6  7  1  6
  6  8  1  0
  9 10  1  0
  9 11  1  1
  9 12  1  0
  7  2  1  0
 10  8  1  0
M  END
