
     RDKit          3D

 44 48  0  0  0  0  0  0  0  0999 V2000
    8.9510    2.8000   -2.2710 N   0  0  0  0  0  0  0  0  0  0  0  0
    8.6590    1.6340   -1.5160 C   0  0  0  0  0  0  0  0  0  0  0  0
    9.5850    0.6620   -1.4710 N   0  0  0  0  0  0  0  0  0  0  0  0
    9.3700   -0.4820   -0.7660 C   0  0  0  0  0  0  0  0  0  0  0  0
    8.2210   -0.6690   -0.0930 N   0  0  0  0  0  0  0  0  0  0  0  0
    7.2590    0.2660   -0.1010 C   0  0  0  0  0  0  0  0  0  0  0  0
    7.4850    1.4310   -0.8230 C   0  0  0  0  0  0  0  0  0  0  0  0
    6.4030    2.1840   -0.6760 N   0  0  0  0  0  0  0  0  0  0  0  0
    5.5350    1.5170    0.1070 C   0  0  0  0  0  0  0  0  0  0  0  0
    6.0380    0.3300    0.4760 N   0  0  0  0  0  0  0  0  0  0  0  0
    5.4320   -0.6710    1.3010 C   0  0  2  0  0  0  0  0  0  0  0  0
    4.1440   -0.9920    0.9810 O   0  0  0  0  0  0  0  0  0  0  0  0
    3.4300   -1.2680    2.1110 C   0  0  2  0  0  0  0  0  0  0  0  0
    2.4670   -0.1040    2.3600 C   0  0  0  0  0  0  0  0  0  0  0  0
    1.5990    0.0420    1.2710 O   0  0  0  0  0  0  0  0  0  0  0  0
    0.5240    1.3060    1.4990 P   0  0  2  0  0  0  0  0  0  0  0  0
    1.1440    2.6580    1.2450 O   0  0  0  0  0  0  0  0  0  0  0  0
    0.0010    1.2610    3.1110 O   0  0  0  0  0  0  0  0  0  0  0  0
   -0.8220    1.0350    0.5060 O   0  0  0  0  0  0  0  0  0  0  0  0
   -0.3340    0.0700   -0.7900 P   0  0  1  0  0  0  0  0  0  0  0  0
    0.6690    0.8240   -1.6670 O   0  0  0  0  0  0  0  0  0  0  0  0
    0.5120   -1.2500   -0.1440 O   0  0  0  0  0  0  0  0  0  0  0  0
   -1.6010   -0.3920   -1.7690 O   0  0  0  0  0  0  0  0  0  0  0  0
   -2.7200   -0.8060   -1.0540 C   0  0  0  0  0  0  0  0  0  0  0  0
   -3.8520   -1.2190   -1.9490 C   0  0  1  0  0  0  0  0  0  0  0  0
   -4.9110   -1.6110   -1.1440 O   0  0  0  0  0  0  0  0  0  0  0  0
   -6.0830   -1.3100   -1.7700 C   0  0  1  0  0  0  0  0  0  0  0  0
   -7.0580   -0.6600   -0.8810 N   0  0  0  0  0  0  0  0  0  0  0  0
   -8.0720   -1.3590   -0.3370 C   0  0  0  0  0  0  0  0  0  0  0  0
   -9.0020   -0.7800    0.5000 C   0  0  0  0  0  0  0  0  0  0  0  0
   -8.8780    0.5680    0.7820 C   0  0  0  0  0  0  0  0  0  0  0  0
   -7.8510    1.3140    0.2420 C   0  0  0  0  0  0  0  0  0  0  0  0
   -7.7030    2.7380    0.5280 C   0  0  0  0  0  0  0  0  0  0  0  0
   -8.5210    3.3130    1.2820 O   0  0  0  0  0  0  0  0  0  0  0  0
   -6.6710    3.4800   -0.0180 O   0  0  0  0  0  0  0  0  0  0  0  0
   -6.9700    0.6440   -0.5840 C   0  0  0  0  0  0  0  0  0  0  0  0
   -5.8180   -0.4770   -2.9740 C   0  0  2  0  0  0  0  0  0  0  0  0
   -5.9310   -1.2560   -4.1260 O   0  0  0  0  0  0  0  0  0  0  0  0
   -4.3440   -0.1170   -2.8280 C   0  0  2  0  0  0  0  0  0  0  0  0
   -3.7840   -0.0930   -4.0840 O   0  0  0  0  0  0  0  0  0  0  0  0
    4.3870   -1.2670    3.2940 C   0  0  1  0  0  0  0  0  0  0  0  0
    4.9300   -2.5560    3.4790 O   0  0  0  0  0  0  0  0  0  0  0  0
    5.4470   -0.3060    2.7800 C   0  0  1  0  0  0  0  0  0  0  0  0
    6.6730   -0.4920    3.3660 O   0  0  0  0  0  0  0  0  0  0  0  0
  1  2  1  0
  2  3  2  0
  2  7  1  0
  3  4  1  0
  4  5  2  0
  5  6  1  0
  6  7  2  0
  6 10  1  0
  7  8  1  0
  8  9  2  0
  9 10  1  0
 11 10  1  6
 11 12  1  0
 11 43  1  0
 12 13  1  0
 13 14  1  1
 13 41  1  0
 14 15  1  0
 15 16  1  0
 16 17  2  0
 16 18  1  1
 16 19  1  0
 19 20  1  0
 20 21  2  0
 20 22  1  1
 20 23  1  0
 23 24  1  0
 25 24  1  1
 25 26  1  0
 25 39  1  0
 26 27  1  0
 27 28  1  1
 27 37  1  0
 28 29  2  0
 28 36  1  0
 29 30  1  0
 30 31  2  0
 31 32  1  0
 32 33  1  0
 32 36  2  0
 33 34  2  0
 33 35  1  0
 37 38  1  6
 37 39  1  0
 39 40  1  6
 41 42  1  6
 41 43  1  0
 43 44  1  1
M  CHG  1  28   1
M  END
