
     RDKit          3D

 32 34  0  0  0  0  0  0  0  0999 V2000
   -0.2480   -4.3290   -0.7140 C   0  0  0  0  0  0  0  0  0  0  0  0
   -0.9360   -2.8090   -1.5490 P   0  0  0  0  0  0  0  0  0  0  0  0
    0.2230   -1.4560   -1.3500 N   0  0  0  0  0  0  0  0  0  0  0  0
   -0.4400   -0.2390   -1.2300 N   0  0  0  0  0  0  0  0  0  0  0  0
    0.1540    1.0480   -1.4950 C   0  0  0  0  0  0  0  0  0  0  0  0
    1.4050    1.3530   -1.5530 N   0  0  0  0  0  0  0  0  0  0  0  0
    2.3390    0.3430   -1.3400 N   0  0  0  0  0  0  0  0  0  0  0  0
    2.6870   -0.1330   -0.0520 C   0  0  0  0  0  0  0  0  0  0  0  0
    3.9560   -0.2450    0.2670 C   0  0  0  0  0  0  0  0  0  0  0  0
    4.9290    0.0980   -0.6500 O   0  0  0  0  0  0  0  0  0  0  0  0
    4.3480   -0.7060    1.5160 O   0  0  0  0  0  0  0  0  0  0  0  0
    5.9370   -0.2970    2.1660 P   0  0  0  0  0  0  0  0  0  0  0  0
    6.6400   -1.6820    2.9610 O   0  0  0  0  0  0  0  0  0  0  0  0
    6.9200    0.2610    0.8620 O   0  0  0  0  0  0  0  0  0  0  0  0
    8.1910    0.2610    1.1280 O   0  0  0  0  0  0  0  0  0  0  0  0
    8.9090   -0.3790    0.2190 O   0  0  0  0  0  0  0  0  0  0  0  0
   -0.9010    2.0700   -1.7110 C   0  0  0  0  0  0  0  0  0  0  0  0
   -2.1360    1.2090   -1.7140 C   0  0  2  0  0  0  0  0  0  0  0  0
   -3.2500    1.8610   -1.2570 O   0  0  0  0  0  0  0  0  0  0  0  0
   -3.0760    2.2570    0.0660 C   0  0  1  0  0  0  0  0  0  0  0  0
   -4.4000    2.0270    0.7720 C   0  0  0  0  0  0  0  0  0  0  0  0
   -5.6730    3.0710   -0.1060 P   0  0  0  0  0  0  0  0  0  0  0  0
   -5.8770    4.5190    0.8440 O   0  0  0  0  0  0  0  0  0  0  0  0
   -5.0920    3.5250   -1.6740 O   0  0  0  0  0  0  0  0  0  0  0  0
   -2.0160    1.6440    0.6830 O   0  0  0  0  0  0  0  0  0  0  0  0
   -1.9180    0.3710    0.4960 O   0  0  0  0  0  0  0  0  0  0  0  0
   -1.7780   -0.0050   -0.8380 C   0  0  2  0  0  0  0  0  0  0  0  0
   -2.7130   -0.9480   -1.1170 O   0  0  0  0  0  0  0  0  0  0  0  0
   -2.4640   -2.2180   -0.6610 C   0  0  2  0  0  0  0  0  0  0  0  0
   -2.1920   -2.3920    1.1180 P   0  0  0  0  0  0  0  0  0  0  0  0
   -0.6460   -1.9880    1.6830 O   0  0  0  0  0  0  0  0  0  0  0  0
   -3.4860   -1.9350    2.1220 O   0  0  0  0  0  0  0  0  0  0  0  0
  1  2  1  0
  2  3  1  0
  2 29  1  0
  3  4  1  0
  4  5  1  0
  4 27  1  0
  5  6  2  3
  5 17  1  0
  6  7  1  0
  7  8  1  0
  8  9  2  3
  9 10  1  0
  9 11  1  0
 11 12  1  0
 12 13  1  0
 12 14  1  0
 14 15  1  0
 15 16  1  0
 18 17  1  1
 18 19  1  0
 18 27  1  0
 19 20  1  0
 20 21  1  1
 20 25  1  0
 21 22  1  0
 22 23  1  0
 22 24  1  0
 25 26  1  0
 27 26  1  1
 27 28  1  0
 28 29  1  0
 29 30  1  1
 30 31  1  0
 30 32  1  0
M  END
