
     RDKit          3D

 32 34  0  0  0  0  0  0  0  0999 V2000
   -3.5040   -2.4070   -2.0480 C   0  0  0  0  0  0  0  0  0  0  0  0
   -3.3560   -1.2320   -1.2230 N   0  0  0  0  0  0  0  0  0  0  0  0
   -2.1970   -1.3600   -0.4090 N   0  0  0  0  0  0  0  0  0  0  0  0
   -2.6080   -2.2470    1.0890 P   0  0  0  0  0  0  0  0  0  0  0  0
   -1.6220   -0.0830   -0.1660 C   0  0  1  0  0  0  0  0  0  0  0  0
   -0.3960   -0.0380    0.6370 C   0  0  2  0  0  0  0  0  0  0  0  0
   -0.0160    1.3190    0.7490 O   0  0  0  0  0  0  0  0  0  0  0  0
    1.2950    1.3280    0.9880 N   0  0  0  0  0  0  0  0  0  0  0  0
    1.8500    2.5110    0.7170 O   0  0  0  0  0  0  0  0  0  0  0  0
    1.8720    0.2360    0.1990 C   0  0  2  0  0  0  0  0  0  0  0  0
    3.1020   -0.0500    0.6500 O   0  0  0  0  0  0  0  0  0  0  0  0
    3.3350   -0.3770    1.9450 C   0  0  1  0  0  0  0  0  0  0  0  0
    4.1920   -1.4660    2.0240 O   0  0  0  0  0  0  0  0  0  0  0  0
    3.9750   -2.2840    2.9970 O   0  0  0  0  0  0  0  0  0  0  0  0
    4.1440    0.6760    2.5480 O   0  0  0  0  0  0  0  0  0  0  0  0
    3.5030    1.1380    3.5930 O   0  0  0  0  0  0  0  0  0  0  0  0
    2.0420    0.7270   -1.2550 C   0  0  2  0  0  0  0  0  0  0  0  0
    3.4880    0.6210   -1.6900 C   0  0  0  0  0  0  0  0  0  0  0  0
    1.6530    2.0480   -1.3900 O   0  0  0  0  0  0  0  0  0  0  0  0
    1.2660   -0.1340   -2.0700 N   0  0  0  0  0  0  0  0  0  0  0  0
    0.7560   -1.2020   -1.2810 C   0  0  0  0  0  0  0  0  0  0  0  0
    0.8000   -0.7780    0.1580 C   0  0  2  0  0  0  0  0  0  0  0  0
    1.1150   -2.2720    1.1910 P   0  0  0  0  0  0  0  0  0  0  0  0
    0.5260   -2.3980    2.6210 O   0  0  0  0  0  0  0  0  0  0  0  0
   -1.6390    0.7560   -1.2830 O   0  0  0  0  0  0  0  0  0  0  0  0
   -1.4080    1.9640   -0.9180 O   0  0  0  0  0  0  0  0  0  0  0  0
   -2.5290    2.4670   -0.2260 C   0  0  2  0  0  0  0  0  0  0  0  0
   -3.5590    2.8000   -1.0560 O   0  0  0  0  0  0  0  0  0  0  0  0
   -2.1550    3.4480    0.6680 O   0  0  0  0  0  0  0  0  0  0  0  0
   -2.9140    0.9250    0.7980 P   0  0  0  0  0  0  0  0  0  0  0  0
   -4.8780    0.1950    0.1190 P   0  0  0  0  0  0  0  0  0  0  0  0
   -5.6180    0.7870   -1.1010 O   0  0  0  0  0  0  0  0  0  0  0  0
  1  2  1  0
  2  3  1  0
  3  4  1  0
  5  3  1  6
  5  6  1  0
  5 25  1  0
  5 30  1  0
  6  7  1  6
  6 22  1  0
  7  8  1  0
  8  9  1  0
  8 10  1  0
 10 11  1  1
 10 17  1  0
 10 22  1  0
 12 11  1  6
 12 13  1  0
 12 15  1  0
 13 14  1  0
 15 16  1  0
 17 18  1  6
 17 19  1  0
 17 20  1  0
 20 21  1  0
 21 22  1  0
 22 23  1  1
 23 24  2  0
 25 26  1  0
 26 27  1  0
 27 28  1  6
 27 29  1  0
 27 30  1  0
 30 31  1  0
 31 32  2  0
M  END
