
     RDKit          3D

 32 35  0  0  0  0  0  0  0  0999 V2000
   -5.0140    3.4920   -0.0880 O   0  0  0  0  0  0  0  0  0  0  0  0
   -3.9430    2.9850    0.2550 C   0  0  0  0  0  0  0  0  0  0  0  0
   -3.3470    2.9980    1.4880 O   0  0  0  0  0  0  0  0  0  0  0  0
   -2.0280    2.6910    1.5230 C   0  0  0  0  0  0  0  0  0  0  0  0
   -1.1730    3.2720    2.2730 O   0  0  0  0  0  0  0  0  0  0  0  0
   -1.6240    1.5950    0.6000 C   0  0  1  0  0  0  0  0  0  0  0  0
   -0.2540    1.7250    0.1870 N   0  0  0  0  0  0  0  0  0  0  0  0
    0.3720    0.2370   -0.5350 P   0  0  0  0  0  0  0  0  0  0  0  0
    2.1540    0.0500   -0.0620 C   0  0  1  0  0  0  0  0  0  0  0  0
    2.5300   -1.2780   -0.2440 O   0  0  0  0  0  0  0  0  0  0  0  0
    3.7240   -1.5090    0.2810 O   0  0  0  0  0  0  0  0  0  0  0  0
    4.7170   -0.7420   -0.3070 C   0  0  0  0  0  0  0  0  0  0  0  0
    4.0660    0.0910   -1.3960 C   0  0  0  0  0  0  0  0  0  0  0  0
    2.9790    0.8960   -0.8810 N   0  0  0  0  0  0  0  0  0  0  0  0
    3.4550    1.9930   -0.0650 C   0  0  0  0  0  0  0  0  0  0  0  0
    4.2730    2.8140   -0.8090 O   0  0  0  0  0  0  0  0  0  0  0  0
   -0.6100   -1.2660    0.0370 C   0  0  1  0  0  0  0  0  0  0  0  0
   -0.6440   -2.1570   -1.0260 O   0  0  0  0  0  0  0  0  0  0  0  0
   -1.4900   -3.6090   -0.7250 P   0  0  0  0  0  0  0  0  0  0  0  0
   -0.8610   -4.9320   -1.6650 O   0  0  0  0  0  0  0  0  0  0  0  0
   -3.1840   -3.4950   -1.0750 O   0  0  0  0  0  0  0  0  0  0  0  0
    0.1230   -1.8190    1.0570 O   0  0  0  0  0  0  0  0  0  0  0  0
   -0.7900   -2.0830    2.4990 P   0  0  0  0  0  0  0  0  0  0  0  0
   -0.1810   -3.5490    3.2350 O   0  0  0  0  0  0  0  0  0  0  0  0
   -2.5220   -2.4230    1.9210 C   0  0  0  0  0  0  0  0  0  0  0  0
   -2.8770   -1.7250    0.9170 N   0  0  0  0  0  0  0  0  0  0  0  0
   -1.9620   -0.7970    0.3610 C   0  0  2  0  0  0  0  0  0  0  0  0
   -2.5560   -0.3880   -0.8600 O   0  0  0  0  0  0  0  0  0  0  0  0
   -1.9650    0.3670    1.2250 N   0  0  0  0  0  0  0  0  0  0  0  0
   -2.8000    2.0390   -0.8130 P   0  0  0  0  0  0  0  0  0  0  0  0
   -1.9660    3.1710   -1.8340 O   0  0  0  0  0  0  0  0  0  0  0  0
   -2.5710    4.3290   -1.8780 O   0  0  0  0  0  0  0  0  0  0  0  0
  1  2  2  0
  2  3  1  0
  2 30  1  0
  3  4  1  0
  4  5  2  0
  4  6  1  0
  6  7  1  6
  6 29  1  0
  6 30  1  0
  7  8  1  0
  9  8  1  6
  8 17  1  0
  9 10  1  0
  9 14  1  0
 10 11  1  0
 11 12  1  0
 12 13  1  0
 13 14  1  0
 14 15  1  0
 15 16  1  0
 17 18  1  6
 17 22  1  0
 17 27  1  0
 18 19  1  0
 19 20  1  0
 19 21  1  0
 22 23  1  0
 23 24  1  0
 23 25  1  0
 25 26  2  0
 26 27  1  0
 27 28  1  6
 27 29  1  0
 30 31  1  0
 31 32  1  0
M  END
