
     RDKit          3D

 32 33  0  0  0  0  0  0  0  0999 V2000
   -5.7720   -3.9430    0.4210 O   0  0  0  0  0  0  0  0  0  0  0  0
   -5.2290   -2.5470    0.0680 P   0  0  0  0  0  0  0  0  0  0  0  0
   -4.7590   -1.2810    1.3370 C   0  0  1  0  0  0  0  0  0  0  0  0
   -3.2610   -1.1630    1.3390 C   0  0  0  0  0  0  0  0  0  0  0  0
   -2.7770   -0.4170    0.2200 N   0  0  0  0  0  0  0  0  0  0  0  0
   -1.5600   -0.7630   -0.3880 C   0  0  0  0  0  0  0  0  0  0  0  0
   -1.1350   -1.9700   -0.3910 O   0  0  0  0  0  0  0  0  0  0  0  0
   -0.6850    0.2400   -1.0650 C   0  0  2  0  0  0  0  0  0  0  0  0
    0.6580   -0.2360   -1.1470 N   0  0  0  0  0  0  0  0  0  0  0  0
    1.2200   -0.4890    0.0470 O   0  0  0  0  0  0  0  0  0  0  0  0
    2.1200    0.4350    0.3980 O   0  0  0  0  0  0  0  0  0  0  0  0
    3.4650    0.0350    0.5640 C   0  0  0  0  0  0  0  0  0  0  0  0
    3.6690   -1.1960    0.7790 N   0  0  0  0  0  0  0  0  0  0  0  0
    4.9010   -1.8820    0.9830 C   0  0  0  0  0  0  0  0  0  0  0  0
    5.4270   -2.5280   -0.2820 C   0  0  0  0  0  0  0  0  0  0  0  0
    5.6620   -1.6090   -1.2920 O   0  0  0  0  0  0  0  0  0  0  0  0
    4.5050    1.0510    0.4770 C   0  0  0  0  0  0  0  0  0  0  0  0
    4.1730    2.2610    0.2560 O   0  0  0  0  0  0  0  0  0  0  0  0
    5.8460    0.8200    0.6160 O   0  0  0  0  0  0  0  0  0  0  0  0
    7.0360    2.1310    0.4930 P   0  0  0  0  0  0  0  0  0  0  0  0
    7.2970    2.8990    2.0070 O   0  0  0  0  0  0  0  0  0  0  0  0
    8.4920    1.4420   -0.1420 O   0  0  0  0  0  0  0  0  0  0  0  0
   -0.7680    1.4830   -0.4030 O   0  0  0  0  0  0  0  0  0  0  0  0
   -2.3700    2.1070   -0.4410 P   0  0  0  0  0  0  0  0  0  0  0  0
   -2.6930    3.0720   -1.8140 O   0  0  0  0  0  0  0  0  0  0  0  0
   -3.5530    0.6830   -0.2660 C   0  0  1  0  0  0  0  0  0  0  0  0
   -4.3500    0.3230   -1.9020 P   0  0  0  0  0  0  0  0  0  0  0  0
   -6.0650    0.3420   -1.8240 O   0  0  0  0  0  0  0  0  0  0  0  0
   -3.7770    1.4440   -3.0950 O   0  0  0  0  0  0  0  0  0  0  0  0
   -4.6610    1.0560    0.6960 C   0  0  0  0  0  0  0  0  0  0  0  0
   -5.4170   -0.0410    1.1780 N   0  0  0  0  0  0  0  0  0  0  0  0
   -6.6690   -0.1140    0.7000 O   0  0  0  0  0  0  0  0  0  0  0  0
  1  2  2  0
  3  2  1  6
  3  4  1  0
  3 31  1  0
  4  5  1  0
  5  6  1  0
  5 26  1  0
  6  7  2  0
  6  8  1  0
  8  9  1  1
  8 23  1  0
  9 10  1  0
 10 11  1  0
 11 12  1  0
 12 13  2  3
 12 17  1  0
 13 14  1  0
 14 15  1  0
 15 16  1  0
 17 18  2  0
 17 19  1  0
 19 20  1  0
 20 21  1  0
 20 22  1  0
 23 24  1  0
 24 25  1  0
 24 26  1  0
 26 27  1  6
 26 30  1  0
 27 28  1  0
 27 29  1  0
 30 31  1  0
 31 32  1  0
M  END
