
     RDKit          3D

 32 34  0  0  0  0  0  0  0  0999 V2000
    0.7690    0.6910    1.3080 N   0  0  0  0  0  0  0  0  0  0  0  0
    0.9840   -0.6270    0.7280 C   0  0  2  0  0  0  0  0  0  0  0  0
    1.5590   -1.4640    1.7010 O   0  0  0  0  0  0  0  0  0  0  0  0
    0.7000   -1.8920    2.6690 C   0  0  0  0  0  0  0  0  0  0  0  0
    0.1760   -3.1810    2.3600 O   0  0  0  0  0  0  0  0  0  0  0  0
    0.0530   -3.0810    0.6450 P   0  0  0  0  0  0  0  0  0  0  0  0
   -1.3150   -3.9460   -0.0720 N   0  0  0  0  0  0  0  0  0  0  0  0
   -1.7040   -3.4020   -1.3330 C   0  0  0  0  0  0  0  0  0  0  0  0
   -2.6340   -3.9510   -2.0220 O   0  0  0  0  0  0  0  0  0  0  0  0
   -1.0180   -2.2750   -1.7310 O   0  0  0  0  0  0  0  0  0  0  0  0
   -0.8600   -1.0800   -0.9890 C   0  0  2  0  0  0  0  0  0  0  0  0
   -2.0530   -0.3520   -1.1560 N   0  0  0  0  0  0  0  0  0  0  0  0
   -2.1530    0.9870   -0.7920 C   0  0  0  0  0  0  0  0  0  0  0  0
   -3.5780    1.4500   -1.1080 C   0  0  1  0  0  0  0  0  0  0  0  0
   -3.8650    1.3180   -2.4570 O   0  0  0  0  0  0  0  0  0  0  0  0
   -4.4350    0.6310   -0.3360 O   0  0  0  0  0  0  0  0  0  0  0  0
   -5.4130    1.5350    0.7420 P   0  0  0  0  0  0  0  0  0  0  0  0
   -4.6930    3.0720    1.0420 O   0  0  0  0  0  0  0  0  0  0  0  0
   -7.0590    1.6490    0.2450 O   0  0  0  0  0  0  0  0  0  0  0  0
    0.1330   -0.3490   -1.7140 O   0  0  0  0  0  0  0  0  0  0  0  0
    1.2890   -0.9680   -1.5560 O   0  0  0  0  0  0  0  0  0  0  0  0
    1.8510   -0.6400   -0.3700 N   0  0  0  0  0  0  0  0  0  0  0  0
    2.9200    0.2630   -0.4920 C   0  0  1  0  0  0  0  0  0  0  0  0
    4.0040    0.1840    0.5270 C   0  0  0  0  0  0  0  0  0  0  0  0
    3.5530    0.4920    2.2630 P   0  0  0  0  0  0  0  0  0  0  0  0
    4.4200   -0.5280    3.3330 O   0  0  0  0  0  0  0  0  0  0  0  0
    3.5900    2.1520    2.7140 O   0  0  0  0  0  0  0  0  0  0  0  0
    3.5480   -0.0490   -1.7330 O   0  0  0  0  0  0  0  0  0  0  0  0
    3.5240    0.9910   -2.6240 C   0  0  0  0  0  0  0  0  0  0  0  0
    4.4210    2.4360   -1.8670 P   0  0  0  0  0  0  0  0  0  0  0  0
    4.2620    3.8550   -2.4510 O   0  0  0  0  0  0  0  0  0  0  0  0
   -0.3380   -1.2710    0.3650 C   0  0  2  0  0  0  0  0  0  0  0  0
  2  1  1  1
  2  3  1  0
  2 22  1  0
  2 32  1  0
  3  4  1  0
  4  5  1  0
  5  6  1  0
  6  7  1  0
 32  6  1  6
  7  8  1  0
  8  9  2  0
  8 10  1  0
 10 11  1  0
 11 12  1  1
 11 20  1  0
 11 32  1  0
 12 13  1  0
 13 14  1  0
 14 15  1  6
 14 16  1  0
 16 17  1  0
 17 18  1  0
 17 19  1  0
 20 21  1  0
 21 22  1  0
 22 23  1  0
 23 24  1  1
 23 28  1  0
 24 25  1  0
 25 26  1  0
 25 27  1  0
 28 29  1  0
 29 30  1  0
 30 31  2  0
M  END
