
     RDKit          3D

 32 34  0  0  0  0  0  0  0  0999 V2000
   -3.4870    3.8520    1.2370 C   0  0  0  0  0  0  0  0  0  0  0  0
   -3.3900    2.7090    0.3520 N   0  0  0  0  0  0  0  0  0  0  0  0
   -2.1200    2.0750    0.1180 C   0  0  0  0  0  0  0  0  0  0  0  0
   -1.0720    2.4930    0.6710 O   0  0  0  0  0  0  0  0  0  0  0  0
   -2.0090    0.9950   -0.7120 O   0  0  0  0  0  0  0  0  0  0  0  0
   -0.8740    0.2730   -1.0420 C   0  0  2  0  0  0  0  0  0  0  0  0
   -1.2950   -0.7510   -1.9600 O   0  0  0  0  0  0  0  0  0  0  0  0
   -2.1190   -1.5550   -1.1530 C   0  0  0  0  0  0  0  0  0  0  0  0
   -3.1100   -2.2660   -1.5370 O   0  0  0  0  0  0  0  0  0  0  0  0
   -1.6710   -1.4670    0.2630 C   0  0  2  0  0  0  0  0  0  0  0  0
   -1.2960   -2.7830    0.7590 N   0  0  0  0  0  0  0  0  0  0  0  0
   -2.4410   -3.5160    1.2080 C   0  0  0  0  0  0  0  0  0  0  0  0
   -2.9580   -2.9830    2.4370 N   0  0  0  0  0  0  0  0  0  0  0  0
   -3.7280   -1.9010    2.2710 O   0  0  0  0  0  0  0  0  0  0  0  0
   -2.8840   -0.6570    1.3680 P   0  0  0  0  0  0  0  0  0  0  0  0
   -0.4060   -0.6020    0.0910 C   0  0  2  0  0  0  0  0  0  0  0  0
   -0.1820    0.1100    1.2720 O   0  0  0  0  0  0  0  0  0  0  0  0
    0.6060   -1.4350   -0.1420 O   0  0  0  0  0  0  0  0  0  0  0  0
    1.6290   -1.1850   -0.9590 C   0  0  2  0  0  0  0  0  0  0  0  0
    1.4210   -1.7880   -2.2260 O   0  0  0  0  0  0  0  0  0  0  0  0
    3.1570   -2.0570   -0.2880 P   0  0  0  0  0  0  0  0  0  0  0  0
    3.3240   -3.6850   -0.5290 C   0  0  0  0  0  0  0  0  0  0  0  0
    3.7160   -4.7550   -1.0460 O   0  0  0  0  0  0  0  0  0  0  0  0
    1.9790    0.2160   -1.2300 C   0  0  0  0  0  0  0  0  0  0  0  0
    3.1790    0.6190   -1.1610 N   0  0  0  0  0  0  0  0  0  0  0  0
    3.5880    1.9040   -1.3970 O   0  0  0  0  0  0  0  0  0  0  0  0
    4.9040    2.1530   -1.2120 O   0  0  0  0  0  0  0  0  0  0  0  0
    5.3170    2.0930    0.4780 P   0  0  0  0  0  0  0  0  0  0  0  0
    5.1430    3.6940    1.1440 O   0  0  0  0  0  0  0  0  0  0  0  0
    6.9560    1.5400    0.7020 O   0  0  0  0  0  0  0  0  0  0  0  0
    0.5470    1.2610   -1.6610 P   0  0  0  0  0  0  0  0  0  0  0  0
    0.4190    1.5230   -3.3690 O   0  0  0  0  0  0  0  0  0  0  0  0
  1  2  1  0
  2  3  1  0
  3  4  2  0
  3  5  1  0
  6  5  1  1
  6  7  1  0
  6 16  1  0
  6 31  1  0
  7  8  1  0
  8  9  2  0
  8 10  1  0
 10 11  1  1
 10 15  1  0
 10 16  1  0
 11 12  1  0
 12 13  1  0
 13 14  1  0
 14 15  1  0
 16 17  1  1
 16 18  1  0
 18 19  1  0
 19 20  1  6
 19 21  1  0
 19 24  1  0
 21 22  2  0
 22 23  2  0
 24 25  2  3
 24 31  1  0
 25 26  1  0
 26 27  1  0
 27 28  1  0
 28 29  1  0
 28 30  1  0
 31 32  1  0
M  END
