
     RDKit          3D

 32 33  0  0  0  0  0  0  0  0999 V2000
   -5.3100   -2.8380    0.6980 C   0  0  0  0  0  0  0  0  0  0  0  0
   -4.0350   -2.5390    0.0740 N   0  0  0  0  0  0  0  0  0  0  0  0
   -3.0060   -2.8130    0.8790 O   0  0  0  0  0  0  0  0  0  0  0  0
   -3.9930   -1.1590   -0.3910 C   0  0  1  0  0  0  0  0  0  0  0  0
   -5.0610   -0.9680   -1.4540 C   0  0  0  0  0  0  0  0  0  0  0  0
   -4.1790   -0.3180    0.6830 O   0  0  0  0  0  0  0  0  0  0  0  0
   -2.8940   -0.0000    1.1190 C   0  0  0  0  0  0  0  0  0  0  0  0
   -2.1220    0.0380   -0.1570 C   0  0  2  0  0  0  0  0  0  0  0  0
   -0.6890   -0.4220    0.0060 C   0  0  0  0  0  0  0  0  0  0  0  0
    0.1380    0.5700    0.4730 O   0  0  0  0  0  0  0  0  0  0  0  0
    1.1810    0.0060    1.1140 N   0  0  0  0  0  0  0  0  0  0  0  0
    2.4550    0.4530    0.5430 C   0  0  1  0  0  0  0  0  0  0  0  0
    3.4430    0.4080    1.5940 N   0  0  0  0  0  0  0  0  0  0  0  0
    2.8530   -0.4180   -0.5250 N   0  0  0  0  0  0  0  0  0  0  0  0
    4.3780   -0.0210   -1.2940 P   0  0  0  0  0  0  0  0  0  0  0  0
    4.4040    1.4310   -2.1890 O   0  0  0  0  0  0  0  0  0  0  0  0
    5.8490   -0.3570   -0.3210 C   0  0  0  0  0  0  0  0  0  0  0  0
    6.7300    0.4620   -0.2270 O   0  0  0  0  0  0  0  0  0  0  0  0
    6.0330   -1.9510    0.5420 P   0  0  0  0  0  0  0  0  0  0  0  0
    6.7410   -3.1700   -0.4940 O   0  0  0  0  0  0  0  0  0  0  0  0
    4.4840   -2.5290    1.0320 O   0  0  0  0  0  0  0  0  0  0  0  0
    2.2670    1.8570   -0.0100 C   0  0  0  0  0  0  0  0  0  0  0  0
    1.5170    2.7180    0.9320 C   0  0  0  0  0  0  0  0  0  0  0  0
    1.7770    2.5780    2.1710 O   0  0  0  0  0  0  0  0  0  0  0  0
    0.5910    3.6180    0.4690 O   0  0  0  0  0  0  0  0  0  0  0  0
   -0.6060    3.1740   -0.7170 P   0  0  0  0  0  0  0  0  0  0  0  0
   -1.2460    4.5640   -1.5310 O   0  0  0  0  0  0  0  0  0  0  0  0
   -2.2460    5.5190   -0.4770 P   0  0  0  0  0  0  0  0  0  0  0  0
   -1.7360    6.8820    0.0530 O   0  0  0  0  0  0  0  0  0  0  0  0
   -1.8740    2.2580    0.0510 O   0  0  0  0  0  0  0  0  0  0  0  0
   -2.1950    1.2840   -0.7720 O   0  0  0  0  0  0  0  0  0  0  0  0
   -2.7770   -0.8780   -0.9590 O   0  0  0  0  0  0  0  0  0  0  0  0
  1  2  1  0
  2  3  1  0
  2  4  1  0
  4  5  1  6
  4  6  1  0
  4 32  1  0
  6  7  1  0
  8  7  1  1
  8  9  1  0
  8 31  1  0
  8 32  1  0
  9 10  1  0
 10 11  1  0
 11 12  1  0
 12 13  1  1
 12 14  1  0
 12 22  1  0
 14 15  1  0
 15 16  1  0
 15 17  1  0
 17 18  2  0
 17 19  1  0
 19 20  1  0
 19 21  1  0
 22 23  1  0
 23 24  2  0
 23 25  1  0
 25 26  1  0
 26 27  1  0
 26 30  1  0
 27 28  1  0
 28 29  2  0
 30 31  1  0
M  END
