
     RDKit          3D

 31 32  0  0  0  0  0  0  0  0999 V2000
   -2.4260   -2.3540   -1.0150 N   0  0  0  0  0  0  0  0  0  0  0  0
   -2.7000   -1.6270    0.2140 C   0  0  1  0  0  0  0  0  0  0  0  0
   -2.3110   -2.8220    1.6190 P   0  0  0  0  0  0  0  0  0  0  0  0
   -3.1860   -4.2990    1.4250 O   0  0  0  0  0  0  0  0  0  0  0  0
   -0.5860   -3.1920    1.3170 O   0  0  0  0  0  0  0  0  0  0  0  0
    0.0700   -2.1910    0.5990 C   0  0  0  0  0  0  0  0  0  0  0  0
   -0.4090   -1.0070    0.7800 N   0  0  0  0  0  0  0  0  0  0  0  0
   -1.6560   -0.5030    0.3050 C   0  0  2  0  0  0  0  0  0  0  0  0
   -2.3200    0.6890    1.5670 P   0  0  0  0  0  0  0  0  0  0  0  0
   -3.2570   -0.0970    2.7770 O   0  0  0  0  0  0  0  0  0  0  0  0
   -3.1420    2.0080    0.8280 O   0  0  0  0  0  0  0  0  0  0  0  0
   -4.8400    1.9610    1.0280 P   0  0  0  0  0  0  0  0  0  0  0  0
   -5.5540    0.8750   -0.1010 O   0  0  0  0  0  0  0  0  0  0  0  0
   -5.4650    3.5600    0.6910 O   0  0  0  0  0  0  0  0  0  0  0  0
   -1.4710    0.0950   -0.9860 N   0  0  0  0  0  0  0  0  0  0  0  0
   -1.2830    1.4500   -1.2880 C   0  0  0  0  0  0  0  0  0  0  0  0
   -1.9390    1.9000   -2.3020 O   0  0  0  0  0  0  0  0  0  0  0  0
   -0.4700    2.3740   -0.6240 N   0  0  0  0  0  0  0  0  0  0  0  0
    0.8720    2.1670   -0.1340 C   0  0  2  0  0  0  0  0  0  0  0  0
    0.9290    1.9340    1.2190 O   0  0  0  0  0  0  0  0  0  0  0  0
    1.7250    3.3380   -0.4370 C   0  0  0  0  0  0  0  0  0  0  0  0
    1.8170    3.7170   -1.5810 O   0  0  0  0  0  0  0  0  0  0  0  0
    1.4920    1.0650   -0.7570 O   0  0  0  0  0  0  0  0  0  0  0  0
    2.4270    0.5650   -0.0100 O   0  0  0  0  0  0  0  0  0  0  0  0
    3.7000    0.9940   -0.2960 C   0  0  0  0  0  0  0  0  0  0  0  0
    4.6910    0.0170    0.2980 C   0  0  2  0  0  0  0  0  0  0  0  0
    5.8120    0.6870    0.7820 O   0  0  0  0  0  0  0  0  0  0  0  0
    5.0390   -0.9940   -0.7570 C   0  0  0  0  0  0  0  0  0  0  0  0
    3.5720   -2.0440   -1.0900 P   0  0  0  0  0  0  0  0  0  0  0  0
    2.4320   -2.0590    0.2200 O   0  0  0  0  0  0  0  0  0  0  0  0
    1.2190   -2.4350   -0.3010 C   0  0  0  0  0  0  0  0  0  0  0  0
  2  1  1  6
  2  3  1  0
  2  8  1  0
  3  4  1  0
  3  5  1  0
  5  6  1  0
  6  7  2  0
  6 31  1  0
  7  8  1  0
  8  9  1  1
  8 15  1  0
  9 10  1  0
  9 11  1  0
 11 12  1  0
 12 13  1  0
 12 14  1  0
 15 16  1  0
 16 17  2  0
 16 18  1  0
 18 19  1  0
 19 20  1  1
 19 21  1  0
 19 23  1  0
 21 22  2  0
 23 24  1  0
 24 25  1  0
 25 26  1  0
 26 27  1  6
 26 28  1  0
 28 29  1  0
 29 30  1  0
 30 31  1  0
M  END
