
     RDKit          3D

 12 11  0  0  0  0  0  0  0  0999 V2000
    5.2190    0.3740   -0.2930 O   0  0  0  0  0  0  0  0  0  0  0  0
    3.9190    0.3860   -0.7970 C   0  0  0  0  0  0  0  0  0  0  0  0
    3.1190   -0.5910    0.0690 C   0  0  0  0  0  0  0  0  0  0  0  0
    1.8140   -0.6440   -0.3580 O   0  0  0  0  0  0  0  0  0  0  0  0
    1.1200   -1.5410    0.4510 C   0  0  0  0  0  0  0  0  0  0  0  0
   -0.2160   -1.6440    0.0710 O   0  0  0  0  0  0  0  0  0  0  0  0
   -0.7950   -0.3600    0.1890 C   0  0  0  0  0  0  0  0  0  0  0  0
   -2.2490   -0.4210   -0.2140 C   0  0  0  0  0  0  0  0  0  0  0  0
   -2.7660    0.8720   -0.0780 O   0  0  0  0  0  0  0  0  0  0  0  0
   -4.1100    0.9120   -0.4300 C   0  0  2  0  0  0  0  0  0  0  0  0
   -4.3300    1.8270   -1.4610 O   0  0  0  0  0  0  0  0  0  0  0  0
   -4.8130    1.3270    0.7160 O   0  0  0  0  0  0  0  0  0  0  0  0
  1  2  1  0
  2  3  1  0
  3  4  1  0
  4  5  1  0
  5  6  1  0
  6  7  1  0
  7  8  1  0
  8  9  1  0
  9 10  1  0
 10 11  1  6
 10 12  1  0
M  END
