
     RDKit          3D

 12 11  0  0  0  0  0  0  0  0999 V2000
   -4.3330    1.7970   -0.5960 O   0  0  0  0  0  0  0  0  0  0  0  0
   -4.2810    0.4010   -0.5410 C   0  0  0  0  0  0  0  0  0  0  0  0
   -3.1190   -0.1020   -1.0960 O   0  0  0  0  0  0  0  0  0  0  0  0
   -1.9780    0.3750   -0.4310 C   0  0  0  0  0  0  0  0  0  0  0  0
   -0.7950   -0.2420   -1.1270 C   0  0  0  0  0  0  0  0  0  0  0  0
    0.4200    0.1340   -0.5920 O   0  0  0  0  0  0  0  0  0  0  0  0
    0.5470   -0.2190    0.7230 C   0  0  0  0  0  0  0  0  0  0  0  0
    1.8000    0.1800    1.2100 O   0  0  0  0  0  0  0  0  0  0  0  0
    2.8050   -0.4290    0.4830 C   0  0  2  0  0  0  0  0  0  0  0  0
    3.5380   -1.2810    1.3210 O   0  0  0  0  0  0  0  0  0  0  0  0
    3.7020    0.6200   -0.1480 C   0  0  0  0  0  0  0  0  0  0  0  0
    4.2530    1.3830    0.8820 O   0  0  0  0  0  0  0  0  0  0  0  0
  1  2  1  0
  2  3  1  0
  3  4  1  0
  4  5  1  0
  5  6  1  0
  6  7  1  0
  7  8  1  0
  8  9  1  0
  9 10  1  1
  9 11  1  0
 11 12  1  0
M  END
