
     RDKit          3D

 12 11  0  0  0  0  0  0  0  0999 V2000
    4.6330    0.2530   -0.9910 O   0  0  0  0  0  0  0  0  0  0  0  0
    3.9860    0.6410    0.0170 C   0  0  0  0  0  0  0  0  0  0  0  0
    4.5460    1.6040    0.8200 O   0  0  0  0  0  0  0  0  0  0  0  0
    2.7350    0.0860    0.2830 O   0  0  0  0  0  0  0  0  0  0  0  0
    2.1980   -0.9100   -0.5790 C   0  0  0  0  0  0  0  0  0  0  0  0
    0.8580   -1.3300   -0.0690 C   0  0  0  0  0  0  0  0  0  0  0  0
   -0.0520   -0.2740   -0.0100 O   0  0  0  0  0  0  0  0  0  0  0  0
   -1.2370   -0.7920    0.4730 C   0  0  0  0  0  0  0  0  0  0  0  0
   -2.3310    0.2390    0.5940 C   0  0  1  0  0  0  0  0  0  0  0  0
   -2.0140    1.2740    1.4400 O   0  0  0  0  0  0  0  0  0  0  0  0
   -2.7830    0.7660   -0.7350 C   0  0  0  0  0  0  0  0  0  0  0  0
   -3.9200    1.5650   -0.4880 O   0  0  0  0  0  0  0  0  0  0  0  0
  1  2  2  0
  2  3  1  0
  2  4  1  0
  4  5  1  0
  5  6  1  0
  6  7  1  0
  7  8  1  0
  8  9  1  0
  9 10  1  1
  9 11  1  0
 11 12  1  0
M  END
