
     RDKit          3D

 12 11  0  0  0  0  0  0  0  0999 V2000
    4.7090    0.0710   -1.0560 O   0  0  0  0  0  0  0  0  0  0  0  0
    3.5180   -0.2390   -0.3550 C   0  0  0  0  0  0  0  0  0  0  0  0
    2.5090    0.8620   -0.5170 C   0  0  0  0  0  0  0  0  0  0  0  0
    1.3100    0.6620    0.1350 O   0  0  0  0  0  0  0  0  0  0  0  0
    0.7050   -0.4710   -0.3270 C   0  0  0  0  0  0  0  0  0  0  0  0
   -0.5180   -0.7420    0.2770 O   0  0  0  0  0  0  0  0  0  0  0  0
   -1.4550    0.2430    0.1090 C   0  0  2  0  0  0  0  0  0  0  0  0
   -1.9450    0.7100    1.4830 C   0  0  0  0  0  0  0  0  0  0  0  0
   -2.5060   -0.3930    2.1310 O   0  0  0  0  0  0  0  0  0  0  0  0
   -2.6610   -0.3810   -0.5710 C   0  0  2  0  0  0  0  0  0  0  0  0
   -3.6780    0.5150   -0.7960 O   0  0  0  0  0  0  0  0  0  0  0  0
   -3.0950   -1.4320    0.2570 O   0  0  0  0  0  0  0  0  0  0  0  0
  1  2  1  0
  2  3  1  0
  3  4  1  0
  4  5  1  0
  5  6  1  0
  6  7  1  0
  7  8  1  1
  7 10  1  0
  8  9  1  0
 10 11  1  1
 10 12  1  0
M  END
