
     RDKit          3D

 12 11  0  0  0  0  0  0  0  0999 V2000
    1.8420    2.0220   -1.4410 O   0  0  0  0  0  0  0  0  0  0  0  0
    2.6350    1.3710   -0.5160 C   0  0  0  0  0  0  0  0  0  0  0  0
    1.8550    0.2010    0.0580 C   0  0  2  0  0  0  0  0  0  0  0  0
    2.6710   -0.4410    0.9870 O   0  0  0  0  0  0  0  0  0  0  0  0
    1.4800   -0.7290   -1.0720 C   0  0  0  0  0  0  0  0  0  0  0  0
    0.8000   -1.8410   -0.6610 O   0  0  0  0  0  0  0  0  0  0  0  0
   -0.3840   -1.6050   -0.0230 C   0  0  0  0  0  0  0  0  0  0  0  0
   -1.3140   -0.9180   -0.7890 O   0  0  0  0  0  0  0  0  0  0  0  0
   -2.4580   -0.7490   -0.0240 C   0  0  2  0  0  0  0  0  0  0  0  0
   -3.5430   -1.4450   -0.5990 O   0  0  0  0  0  0  0  0  0  0  0  0
   -2.8220    0.7070    0.1550 C   0  0  0  0  0  0  0  0  0  0  0  0
   -1.7630    1.3300    0.7890 O   0  0  0  0  0  0  0  0  0  0  0  0
  1  2  1  0
  2  3  1  0
  3  4  1  1
  3  5  1  0
  5  6  1  0
  6  7  1  0
  7  8  1  0
  8  9  1  0
  9 10  1  6
  9 11  1  0
 11 12  1  0
M  END
