
     RDKit          3D

 12 11  0  0  0  0  0  0  0  0999 V2000
    3.8860    0.0530    0.9320 O   0  0  0  0  0  0  0  0  0  0  0  0
    3.9020   -0.8840   -0.0620 C   0  0  0  0  0  0  0  0  0  0  0  0
    2.7670   -1.4830   -0.4350 O   0  0  0  0  0  0  0  0  0  0  0  0
    1.7040   -0.8460   -0.9330 C   0  0  0  0  0  0  0  0  0  0  0  0
    1.0350    0.1870   -0.0710 C   0  0  1  0  0  0  0  0  0  0  0  0
    1.8000    1.2680    0.2740 O   0  0  0  0  0  0  0  0  0  0  0  0
   -0.1460    0.5850   -0.7060 O   0  0  0  0  0  0  0  0  0  0  0  0
   -1.2370    0.2210    0.0720 C   0  0  0  0  0  0  0  0  0  0  0  0
   -2.5370    0.6180   -0.5500 C   0  0  2  0  0  0  0  0  0  0  0  0
   -2.6390    1.9870   -0.7460 O   0  0  0  0  0  0  0  0  0  0  0  0
   -3.6550    0.1150    0.3390 C   0  0  0  0  0  0  0  0  0  0  0  0
   -3.4670   -1.2730    0.4780 O   0  0  0  0  0  0  0  0  0  0  0  0
  1  2  1  0
  2  3  1  0
  3  4  1  0
  4  5  1  0
  5  6  1  6
  5  7  1  0
  7  8  1  0
  8  9  1  0
  9 10  1  1
  9 11  1  0
 11 12  1  0
M  END
