
     RDKit          3D

 12 11  0  0  0  0  0  0  0  0999 V2000
    4.0490    0.7120    0.7300 O   0  0  0  0  0  0  0  0  0  0  0  0
    3.2790   -0.4320    0.8380 C   0  0  0  0  0  0  0  0  0  0  0  0
    2.1190   -0.4400   -0.1370 C   0  0  0  0  0  0  0  0  0  0  0  0
    1.3340    0.6550    0.1370 O   0  0  0  0  0  0  0  0  0  0  0  0
    0.2290    0.7980   -0.6630 C   0  0  2  0  0  0  0  0  0  0  0  0
    0.2620    2.0300   -1.5350 C   0  0  0  0  0  0  0  0  0  0  0  0
    1.3710    1.9960   -2.3830 O   0  0  0  0  0  0  0  0  0  0  0  0
   -0.9260    0.6630    0.0540 O   0  0  0  0  0  0  0  0  0  0  0  0
   -1.7110   -0.4100   -0.2560 C   0  0  0  0  0  0  0  0  0  0  0  0
   -2.8310   -0.3690    0.5800 O   0  0  0  0  0  0  0  0  0  0  0  0
   -3.6980   -1.4280    0.3400 C   0  0  0  0  0  0  0  0  0  0  0  0
   -4.1340   -1.3750   -0.9710 O   0  0  0  0  0  0  0  0  0  0  0  0
  1  2  1  0
  2  3  1  0
  3  4  1  0
  4  5  1  0
  5  6  1  1
  5  8  1  0
  6  7  1  0
  8  9  1  0
  9 10  1  0
 10 11  1  0
 11 12  1  0
M  END
