
     RDKit          3D

 25 28  0  0  0  0  0  0  0  0999 V2000
   -4.6980    0.6930    2.3480 C   0  0  0  0  0  0  0  0  0  0  0  0
   -3.5340    0.3230    1.4900 C   0  0  0  0  0  0  0  0  0  0  0  0
   -2.2650    0.7960    1.6930 N   0  0  0  0  0  0  0  0  0  0  0  0
   -1.3960    0.1590    0.8430 C   0  0  0  0  0  0  0  0  0  0  0  0
   -0.0650    0.2070    0.6410 N   0  0  0  0  0  0  0  0  0  0  0  0
    0.5550   -0.5860   -0.2580 C   0  0  0  0  0  0  0  0  0  0  0  0
    1.9420   -0.5420   -0.6620 C   0  0  0  0  0  0  0  0  0  0  0  0
    2.3580   -1.1910   -1.8200 C   0  0  0  0  0  0  0  0  0  0  0  0
    3.6450   -1.2210   -2.2790 C   0  0  0  0  0  0  0  0  0  0  0  0
    4.6350   -0.5720   -1.5680 C   0  0  0  0  0  0  0  0  0  0  0  0
    4.2500    0.0920   -0.3970 C   0  0  0  0  0  0  0  0  0  0  0  0
    5.0130    0.9010    0.4730 C   0  0  0  0  0  0  0  0  0  0  0  0
    6.4750    0.8810    0.3610 C   0  0  0  0  0  0  0  0  0  0  0  0
    7.0380    2.1730    0.0990 N   0  0  0  0  0  0  0  0  0  0  0  0
    4.1100    1.3350    1.3500 N   0  0  0  0  0  0  0  0  0  0  0  0
    2.9390    0.9020    1.1080 N   0  0  0  0  0  0  0  0  0  0  0  0
    2.9580    0.0930    0.0150 C   0  0  0  0  0  0  0  0  0  0  0  0
   -0.2310   -1.4720   -0.9710 N   0  0  0  0  0  0  0  0  0  0  0  0
   -1.5550   -1.5650   -0.8140 C   0  0  0  0  0  0  0  0  0  0  0  0
   -2.2770   -2.4010   -1.4140 N   0  0  0  0  0  0  0  0  0  0  0  0
   -2.1840   -0.7340    0.0970 C   0  0  0  0  0  0  0  0  0  0  0  0
   -3.4930   -0.6160    0.4960 C   0  0  0  0  0  0  0  0  0  0  0  0
   -4.6970   -1.2430   -0.1040 C   0  0  0  0  0  0  0  0  0  0  0  0
   -5.3410   -0.3470   -1.1380 C   0  0  0  0  0  0  0  0  0  0  0  0
   -5.7090    0.9560   -0.7060 N   0  0  0  0  0  0  0  0  0  0  0  0
  1  2  1  0
  2  3  1  0
  2 22  2  0
  3  4  1  0
  4  5  1  0
  4 21  2  0
  5  6  2  0
  6  7  1  0
  6 18  1  0
  7  8  2  0
  7 17  1  0
  8  9  1  0
  9 10  2  0
 10 11  1  0
 11 12  1  0
 11 17  2  0
 12 13  1  0
 12 15  2  0
 13 14  1  0
 15 16  1  0
 16 17  1  0
 18 19  1  0
 19 20  2  0
 19 21  1  0
 21 22  1  0
 22 23  1  0
 23 24  1  0
 24 25  1  0
M  CHG  2  14   1  25   1
M  END
