
     RDKit          3D

 25 28  0  0  0  0  0  0  0  0999 V2000
   -4.9450    1.9290   -1.9500 C   0  0  0  0  0  0  0  0  0  0  0  0
   -3.7250    1.2190   -2.5120 C   0  0  0  0  0  0  0  0  0  0  0  0
   -2.9040    0.6490   -1.3950 C   0  0  0  0  0  0  0  0  0  0  0  0
   -1.7340    1.2540   -0.9870 C   0  0  0  0  0  0  0  0  0  0  0  0
   -0.9550    0.7610    0.0380 C   0  0  0  0  0  0  0  0  0  0  0  0
   -1.3400   -0.3880    0.7030 C   0  0  0  0  0  0  0  0  0  0  0  0
   -0.5590   -0.9540    1.7940 C   0  0  0  0  0  0  0  0  0  0  0  0
   -1.0360   -1.4030    3.0290 C   0  0  0  0  0  0  0  0  0  0  0  0
   -0.0020   -1.8470    3.7570 N   0  0  0  0  0  0  0  0  0  0  0  0
    1.0820   -1.6950    3.0410 N   0  0  0  0  0  0  0  0  0  0  0  0
    0.8040   -1.1540    1.8320 C   0  0  0  0  0  0  0  0  0  0  0  0
    1.6990   -0.8450    0.7530 N   0  0  0  0  0  0  0  0  0  0  0  0
    1.7820   -1.5550   -0.3810 N   0  0  0  0  0  0  0  0  0  0  0  0
    2.6880   -1.0510   -1.2040 C   0  0  0  0  0  0  0  0  0  0  0  0
    3.2440    0.0460   -0.6040 C   0  0  0  0  0  0  0  0  0  0  0  0
    2.5850    0.1450    0.6450 C   0  0  0  0  0  0  0  0  0  0  0  0
    2.9150    1.2190    1.5890 C   0  0  0  0  0  0  0  0  0  0  0  0
    2.1860    1.2140    2.8240 N   0  0  0  0  0  0  0  0  0  0  0  0
    4.2760    0.6570   -1.4870 C   0  0  0  0  0  0  0  0  0  0  0  0
    4.2350   -0.2150   -2.6390 N   0  0  0  0  0  0  0  0  0  0  0  0
    3.3760   -1.1530   -2.5060 C   0  0  0  0  0  0  0  0  0  0  0  0
    3.0840   -2.1900   -3.4640 N   0  0  0  0  0  0  0  0  0  0  0  0
   -2.5160   -0.9910    0.2890 C   0  0  0  0  0  0  0  0  0  0  0  0
   -3.2960   -0.4990   -0.7350 C   0  0  0  0  0  0  0  0  0  0  0  0
   -4.4990   -1.1450   -1.1360 N   0  0  0  0  0  0  0  0  0  0  0  0
  1  2  1  0
  2  3  1  0
  3  4  2  0
  3 24  1  0
  4  5  1  0
  5  6  2  0
  6  7  1  0
  6 23  1  0
  7  8  2  0
  7 11  1  0
  8  9  1  0
  9 10  1  0
 10 11  2  0
 11 12  1  0
 12 13  1  0
 12 16  1  0
 13 14  2  0
 14 15  1  0
 14 21  1  0
 15 16  2  0
 15 19  1  0
 16 17  1  0
 17 18  1  0
 19 20  1  0
 20 21  2  0
 21 22  1  0
 23 24  2  0
 24 25  1  0
M  CHG  2  18   1  20   1
M  END
