
     RDKit          3D

 25 28  0  0  0  0  0  0  0  0999 V2000
    7.0360    1.6810    0.9720 N   0  0  0  0  0  0  0  0  0  0  0  0
    5.8390    0.9960    0.6900 C   0  0  0  0  0  0  0  0  0  0  0  0
    4.7440    1.0130    1.5620 C   0  0  0  0  0  0  0  0  0  0  0  0
    3.5750    0.3370    1.2740 C   0  0  0  0  0  0  0  0  0  0  0  0
    3.4470   -0.3740    0.1250 C   0  0  0  0  0  0  0  0  0  0  0  0
    2.2550   -1.1120   -0.2570 C   0  0  0  0  0  0  0  0  0  0  0  0
    2.3790   -2.3660   -0.7510 N   0  0  0  0  0  0  0  0  0  0  0  0
    1.3450   -3.1180   -1.1270 C   0  0  0  0  0  0  0  0  0  0  0  0
    1.5680   -4.4440   -1.6430 N   0  0  0  0  0  0  0  0  0  0  0  0
    0.1010   -2.6180   -1.0140 N   0  0  0  0  0  0  0  0  0  0  0  0
   -0.0860   -1.3770   -0.5290 C   0  0  0  0  0  0  0  0  0  0  0  0
    1.0010   -0.6080   -0.1430 C   0  0  0  0  0  0  0  0  0  0  0  0
    0.5100    0.5390    0.2830 N   0  0  0  0  0  0  0  0  0  0  0  0
   -0.8340    0.5280    0.1840 C   0  0  0  0  0  0  0  0  0  0  0  0
   -1.7740    1.4980    0.5070 C   0  0  0  0  0  0  0  0  0  0  0  0
   -3.1250    1.2520    0.3120 C   0  0  0  0  0  0  0  0  0  0  0  0
   -4.1400    2.2750    0.6510 C   0  0  0  0  0  0  0  0  0  0  0  0
   -3.4590    3.4400    1.1670 N   0  0  0  0  0  0  0  0  0  0  0  0
   -3.5010    0.0140   -0.2120 C   0  0  0  0  0  0  0  0  0  0  0  0
   -4.9460   -0.2490   -0.4200 C   0  0  0  0  0  0  0  0  0  0  0  0
   -5.1720   -1.5740   -0.9680 N   0  0  0  0  0  0  0  0  0  0  0  0
   -2.5220   -0.9050   -0.5120 C   0  0  0  0  0  0  0  0  0  0  0  0
   -1.2090   -0.6600   -0.3200 N   0  0  0  0  0  0  0  0  0  0  0  0
    4.5290   -0.3950   -0.7450 C   0  0  0  0  0  0  0  0  0  0  0  0
    5.7050    0.2670   -0.4870 C   0  0  0  0  0  0  0  0  0  0  0  0
  1  2  1  0
  2  3  2  0
  2 25  1  0
  3  4  1  0
  4  5  2  0
  5  6  1  0
  5 24  1  0
  6  7  2  0
  6 12  1  0
  7  8  1  0
  8  9  1  0
  8 10  2  0
 10 11  1  0
 11 12  2  0
 11 23  1  0
 12 13  1  0
 13 14  2  0
 14 15  1  0
 14 23  1  0
 15 16  2  0
 16 17  1  0
 16 19  1  0
 17 18  1  0
 19 20  1  0
 19 22  2  0
 20 21  1  0
 22 23  1  0
 24 25  2  0
M  CHG  2  18   1  21   1
M  END
