
     RDKit          3D

 25 27  0  0  0  0  0  0  0  0999 V2000
    0.0730    1.3550   -0.9750 C   0  0  0  0  0  0  0  0  0  0  0  0
   -0.8870    0.2530   -0.7980 N   0  0  0  0  0  0  0  0  0  0  0  0
   -0.7420   -1.0380   -1.0390 C   0  0  0  0  0  0  0  0  0  0  0  0
    0.4190   -1.8350   -1.3480 C   0  0  0  0  0  0  0  0  0  0  0  0
    1.6290   -1.8190   -1.0210 C   0  0  0  0  0  0  0  0  0  0  0  0
    2.4390   -1.0140   -0.1680 C   0  0  0  0  0  0  0  0  0  0  0  0
    1.9960   -0.2440    0.8610 C   0  0  0  0  0  0  0  0  0  0  0  0
    2.7760    0.5820    1.6570 C   0  0  0  0  0  0  0  0  0  0  0  0
    4.0980    0.6000    1.3570 N   0  0  0  0  0  0  0  0  0  0  0  0
    4.5860   -0.1450    0.3500 C   0  0  0  0  0  0  0  0  0  0  0  0
    5.9900   -0.0600    0.1110 N   0  0  0  0  0  0  0  0  0  0  0  0
    6.8110    0.1490    1.0740 C   0  0  0  0  0  0  0  0  0  0  0  0
    8.2010    0.2280    0.8060 N   0  0  0  0  0  0  0  0  0  0  0  0
    3.8130   -0.9640   -0.4400 C   0  0  0  0  0  0  0  0  0  0  0  0
    4.3620   -1.7240   -1.4850 N   0  0  0  0  0  0  0  0  0  0  0  0
   -1.9940   -1.6290   -0.8190 N   0  0  0  0  0  0  0  0  0  0  0  0
   -2.8670   -0.7020   -0.4480 C   0  0  0  0  0  0  0  0  0  0  0  0
   -4.2320   -0.7430   -0.1080 C   0  0  0  0  0  0  0  0  0  0  0  0
   -4.9200    0.3910    0.2500 C   0  0  0  0  0  0  0  0  0  0  0  0
   -6.3690    0.3640    0.6140 C   0  0  0  0  0  0  0  0  0  0  0  0
   -6.9020   -0.9810    0.5330 N   0  0  0  0  0  0  0  0  0  0  0  0
   -4.2230    1.5780    0.2650 C   0  0  0  0  0  0  0  0  0  0  0  0
   -4.9020    2.7660    0.6300 N   0  0  0  0  0  0  0  0  0  0  0  0
   -2.8700    1.6250   -0.0710 C   0  0  0  0  0  0  0  0  0  0  0  0
   -2.1860    0.4840   -0.4300 C   0  0  0  0  0  0  0  0  0  0  0  0
  1  2  1  0
  2  3  1  0
  2 25  1  0
  3  4  1  0
  3 16  2  0
  4  5  2  3
  5  6  1  0
  6  7  2  0
  6 14  1  0
  7  8  1  0
  8  9  2  0
  9 10  1  0
 10 11  1  0
 10 14  2  0
 11 12  2  3
 12 13  1  0
 14 15  1  0
 16 17  1  0
 17 18  2  0
 17 25  1  0
 18 19  1  0
 19 20  1  0
 19 22  2  0
 20 21  1  0
 22 23  1  0
 22 24  1  0
 24 25  2  0
M  CHG  2  13   1  21   1
M  END
