
     RDKit          3D

 25 28  0  0  0  0  0  0  0  0999 V2000
    6.2590   -1.8000    0.5130 N   0  0  0  0  0  0  0  0  0  0  0  0
    5.9270   -1.7260   -0.8640 C   0  0  0  0  0  0  0  0  0  0  0  0
    6.6090   -2.3620   -1.7290 N   0  0  0  0  0  0  0  0  0  0  0  0
    4.8000   -0.9140   -1.2640 C   0  0  0  0  0  0  0  0  0  0  0  0
    4.4510   -0.8180   -2.5780 C   0  0  0  0  0  0  0  0  0  0  0  0
    3.3580   -0.0300   -2.9620 C   0  0  0  0  0  0  0  0  0  0  0  0
    2.6070    0.6660   -2.0440 C   0  0  0  0  0  0  0  0  0  0  0  0
    1.5290    1.4850   -2.0950 N   0  0  0  0  0  0  0  0  0  0  0  0
    1.2080    1.8930   -0.8590 C   0  0  0  0  0  0  0  0  0  0  0  0
    0.1190    2.7770   -0.4800 C   0  0  0  0  0  0  0  0  0  0  0  0
   -1.1410    2.0470   -0.1890 C   0  0  0  0  0  0  0  0  0  0  0  0
   -2.0590    1.7790   -1.1320 N   0  0  0  0  0  0  0  0  0  0  0  0
   -3.0970    1.1080   -0.5880 C   0  0  0  0  0  0  0  0  0  0  0  0
   -4.2800    0.5940   -1.0650 C   0  0  0  0  0  0  0  0  0  0  0  0
   -5.1530   -0.0630   -0.2060 C   0  0  0  0  0  0  0  0  0  0  0  0
   -4.8800   -0.2250    1.1260 C   0  0  0  0  0  0  0  0  0  0  0  0
   -5.7870   -0.9090    2.0280 C   0  0  0  0  0  0  0  0  0  0  0  0
   -5.4240   -1.0290    3.3860 N   0  0  0  0  0  0  0  0  0  0  0  0
   -6.8940   -1.3990    1.6210 N   0  0  0  0  0  0  0  0  0  0  0  0
   -3.6740    0.3080    1.5750 C   0  0  0  0  0  0  0  0  0  0  0  0
   -2.7940    0.9610    0.7460 C   0  0  0  0  0  0  0  0  0  0  0  0
   -1.5990    1.5430    0.9530 N   0  0  0  0  0  0  0  0  0  0  0  0
    2.0990    1.3180   -0.0350 N   0  0  0  0  0  0  0  0  0  0  0  0
    2.9590    0.5680   -0.7260 C   0  0  0  0  0  0  0  0  0  0  0  0
    4.0310   -0.2050   -0.3500 C   0  0  0  0  0  0  0  0  0  0  0  0
  1  2  1  0
  2  3  2  0
  2  4  1  0
  4  5  2  0
  4 25  1  0
  5  6  1  0
  6  7  2  0
  7  8  1  0
  7 24  1  0
  8  9  2  0
  9 10  1  0
  9 23  1  0
 10 11  1  0
 11 12  2  0
 11 22  1  0
 12 13  1  0
 13 14  2  0
 13 21  1  0
 14 15  1  0
 15 16  2  0
 16 17  1  0
 16 20  1  0
 17 18  1  0
 17 19  2  0
 20 21  2  0
 21 22  1  0
 23 24  1  0
 24 25  2  0
M  CHG  2   3   1  19   1
M  END
