
     RDKit          3D

 25 27  0  0  0  0  0  0  0  0999 V2000
    4.1070    1.3700   -1.1410 C   0  0  0  0  0  0  0  0  0  0  0  0
    2.9350    1.2920   -0.1960 C   0  0  0  0  0  0  0  0  0  0  0  0
    2.4020    2.4020    0.3740 C   0  0  0  0  0  0  0  0  0  0  0  0
    1.3310    2.2830    1.2320 C   0  0  0  0  0  0  0  0  0  0  0  0
    0.8220    3.4680    1.7920 N   0  0  0  0  0  0  0  0  0  0  0  0
    0.8470    1.0730    1.4810 N   0  0  0  0  0  0  0  0  0  0  0  0
    1.3570   -0.0570    0.9280 C   0  0  0  0  0  0  0  0  0  0  0  0
    0.7270   -1.3010    1.2920 N   0  0  0  0  0  0  0  0  0  0  0  0
    1.1960   -2.2270    2.1040 C   0  0  0  0  0  0  0  0  0  0  0  0
    0.2720   -3.1950    2.1900 N   0  0  0  0  0  0  0  0  0  0  0  0
   -0.7820   -2.8680    1.4270 C   0  0  0  0  0  0  0  0  0  0  0  0
   -0.4940   -1.6270    0.8340 C   0  0  0  0  0  0  0  0  0  0  0  0
   -1.3930   -0.9280   -0.0300 N   0  0  0  0  0  0  0  0  0  0  0  0
   -1.4060   -1.1260   -1.3440 C   0  0  0  0  0  0  0  0  0  0  0  0
   -0.5200   -2.0640   -1.9510 N   0  0  0  0  0  0  0  0  0  0  0  0
   -2.3010   -0.4220   -2.1670 C   0  0  0  0  0  0  0  0  0  0  0  0
   -3.1910    0.4910   -1.6570 C   0  0  0  0  0  0  0  0  0  0  0  0
   -4.0190    1.1460   -2.4000 N   0  0  0  0  0  0  0  0  0  0  0  0
   -3.1670    0.6870   -0.2920 C   0  0  0  0  0  0  0  0  0  0  0  0
   -4.1180    1.6700    0.3030 C   0  0  0  0  0  0  0  0  0  0  0  0
   -2.2760   -0.0210    0.4870 C   0  0  0  0  0  0  0  0  0  0  0  0
   -2.2640    0.1850    1.9420 C   0  0  0  0  0  0  0  0  0  0  0  0
    2.4030   -0.0050    0.0810 C   0  0  0  0  0  0  0  0  0  0  0  0
    3.1000   -1.0820   -0.6150 C   0  0  0  0  0  0  0  0  0  0  0  0
    2.7320   -2.4280   -0.4740 N   0  0  0  0  0  0  0  0  0  0  0  0
  1  2  1  0
  2  3  2  0
  2 23  1  0
  3  4  1  0
  4  5  1  0
  4  6  2  0
  6  7  1  0
  7  8  1  0
  7 23  2  0
  8  9  1  0
  8 12  1  0
  9 10  2  0
 10 11  1  0
 11 12  2  0
 12 13  1  0
 13 14  1  0
 13 21  1  0
 14 15  1  0
 14 16  2  0
 16 17  1  0
 17 18  2  0
 17 19  1  0
 19 20  1  0
 19 21  2  0
 21 22  1  0
 23 24  1  0
 24 25  1  0
M  CHG  2  18   1  25   1
M  END
