
     RDKit          3D

 18 17  0  0  0  0  0  0  0  0999 V2000
   -4.9990    1.8890    0.9850 C   0  0  0  0  0  0  0  0  0  0  0  0
   -5.2770    0.6210    0.7460 C   0  0  0  0  0  0  0  0  0  0  0  0
   -4.1940   -0.2510    0.2950 C   0  0  0  0  0  0  0  0  0  0  0  0
   -4.4870   -1.5080    0.0620 C   0  0  0  0  0  0  0  0  0  0  0  0
   -2.8600    0.3380    0.1380 C   0  0  0  0  0  0  0  0  0  0  0  0
   -1.7730   -0.5930   -0.2870 C   0  0  1  0  0  0  0  0  0  0  0  0
   -1.6190   -1.6870    0.7380 C   0  0  0  0  0  0  0  0  0  0  0  0
   -2.1020   -1.0990   -1.6730 C   0  0  0  0  0  0  0  0  0  0  0  0
   -0.4320    0.1420   -0.3900 C   0  0  0  0  0  0  0  0  0  0  0  0
    0.6250   -0.8380   -0.8140 C   0  0  0  0  0  0  0  0  0  0  0  0
    1.9890   -0.3020   -0.9960 C   0  0  0  0  0  0  0  0  0  0  0  0
    2.6700    0.3270    0.1590 C   0  0  2  0  0  0  0  0  0  0  0  0
    2.7880   -0.6670    1.3220 C   0  0  0  0  0  0  0  0  0  0  0  0
    2.1080    1.6270    0.6260 C   0  0  0  0  0  0  0  0  0  0  0  0
    4.1170    0.5520   -0.2810 C   0  0  0  0  0  0  0  0  0  0  0  0
    4.5100    0.2180   -1.4240 O   0  0  0  0  0  0  0  0  0  0  0  0
    5.0390    1.1330    0.5770 O   0  0  0  0  0  0  0  0  0  0  0  0
    6.3850    1.3410    0.1660 C   0  0  0  0  0  0  0  0  0  0  0  0
  1  2  2  0
  2  3  1  0
  3  4  2  0
  3  5  1  0
  5  6  1  0
  6  7  1  1
  6  8  1  0
  6  9  1  0
  9 10  1  0
 10 11  1  0
 11 12  1  0
 12 13  1  1
 12 14  1  0
 12 15  1  0
 15 16  2  0
 15 17  1  0
 17 18  1  0
M  END
