
     RDKit          3D

 25 27  0  0  0  0  0  0  0  0999 V2000
   -5.7710   -1.5150    0.0960 C   0  0  0  0  0  0  0  0  0  0  0  0
   -4.8990   -2.4950   -0.0850 C   0  0  0  0  0  0  0  0  0  0  0  0
   -5.2570   -3.9100   -0.2640 C   0  0  0  0  0  0  0  0  0  0  0  0
   -4.0990   -4.5450   -0.4120 C   0  0  0  0  0  0  0  0  0  0  0  0
   -2.9940   -3.5920   -0.3360 C   0  0  0  0  0  0  0  0  0  0  0  0
   -3.4500   -2.3740   -0.1430 C   0  0  0  0  0  0  0  0  0  0  0  0
   -2.6840   -1.1710   -0.0170 N   0  0  0  0  0  0  0  0  0  0  0  0
   -3.1530    0.0320    0.1810 N   0  0  0  0  0  0  0  0  0  0  0  0
   -2.1340    0.9370    0.2460 C   0  0  0  0  0  0  0  0  0  0  0  0
   -2.2650    2.4000    0.4360 C   0  0  0  0  0  0  0  0  0  0  0  0
   -2.1700    3.1800   -0.8320 C   0  0  0  0  0  0  0  0  0  0  0  0
   -2.2990    4.6180   -0.5970 N   0  0  0  0  0  0  0  0  0  0  0  0
   -0.9850    0.1940    0.0730 C   0  0  0  0  0  0  0  0  0  0  0  0
    0.3660    0.5010    0.0410 C   0  0  0  0  0  0  0  0  0  0  0  0
    0.7680    1.8670    0.2260 N   0  0  0  0  0  0  0  0  0  0  0  0
    1.2940   -0.4970   -0.1520 C   0  0  0  0  0  0  0  0  0  0  0  0
    2.7270   -0.1540   -0.1870 C   0  0  0  0  0  0  0  0  0  0  0  0
    3.0770    1.2120   -0.0180 N   0  0  0  0  0  0  0  0  0  0  0  0
    3.5770   -1.0870   -0.3660 N   0  0  0  0  0  0  0  0  0  0  0  0
    4.9800   -1.0340   -0.4390 C   0  0  0  0  0  0  0  0  0  0  0  0
    5.6840   -0.0440    0.4290 C   0  0  0  0  0  0  0  0  0  0  0  0
    7.1360   -0.1960    0.1860 N   0  0  0  0  0  0  0  0  0  0  0  0
    0.9080   -1.8200   -0.3160 C   0  0  0  0  0  0  0  0  0  0  0  0
   -0.4020   -2.0870   -0.2790 N   0  0  0  0  0  0  0  0  0  0  0  0
   -1.3280   -1.1250   -0.0920 C   0  0  0  0  0  0  0  0  0  0  0  0
  1  2  2  0
  2  3  1  0
  2  6  1  0
  3  4  2  0
  4  5  1  0
  5  6  2  0
  6  7  1  0
  7  8  1  0
  7 25  1  0
  8  9  2  0
  9 10  1  0
  9 13  1  0
 10 11  1  0
 11 12  1  0
 13 14  2  0
 13 25  1  0
 14 15  1  0
 14 16  1  0
 16 17  1  0
 16 23  2  0
 17 18  1  0
 17 19  2  3
 19 20  1  0
 20 21  1  0
 21 22  1  0
 23 24  1  0
 24 25  2  0
M  CHG  2  12   1  22   1
M  END
