
     RDKit          3D

 20 19  0  0  0  0  0  0  0  0999 V2000
   -3.2030    1.4320    0.6340 C   0  0  0  0  0  0  0  0  0  0  0  0
   -3.2730   -0.0620    0.4100 C   0  0  2  0  0  0  0  0  0  0  0  0
   -2.9410   -0.8050    1.6830 C   0  0  0  0  0  0  0  0  0  0  0  0
   -3.0970   -2.1810    1.5280 O   0  0  0  0  0  0  0  0  0  0  0  0
   -2.4540   -0.4340   -0.6960 N   0  0  0  0  0  0  0  0  0  0  0  0
   -1.0390   -0.1570   -0.6540 C   0  0  0  0  0  0  0  0  0  0  0  0
   -0.6110    0.4050    0.3760 O   0  0  0  0  0  0  0  0  0  0  0  0
   -0.2390   -0.5640   -1.8270 C   0  0  0  0  0  0  0  0  0  0  0  0
    1.0970   -0.3200   -1.7360 O   0  0  0  0  0  0  0  0  0  0  0  0
    1.7920   -0.9500   -0.7430 C   0  0  0  0  0  0  0  0  0  0  0  0
    3.2190   -0.5550   -0.8260 C   0  0  0  0  0  0  0  0  0  0  0  0
    3.5830    0.2380   -1.7150 O   0  0  0  0  0  0  0  0  0  0  0  0
    4.1360   -1.0570    0.0700 O   0  0  0  0  0  0  0  0  0  0  0  0
    5.5020   -0.7100    0.0310 C   0  0  0  0  0  0  0  0  0  0  0  0
    5.7140    0.7440    0.2020 C   0  0  0  0  0  0  0  0  0  0  0  0
    7.0260    1.2690    0.1880 N   0  0  0  0  0  0  0  0  0  0  0  0
    4.7400    1.5150    0.3590 O   0  0  0  0  0  0  0  0  0  0  0  0
   -4.6890   -0.3790    0.0850 C   0  0  0  0  0  0  0  0  0  0  0  0
   -5.7650   -0.1050    0.9790 N   0  0  0  0  0  0  0  0  0  0  0  0
   -5.1000   -1.0750   -1.3510 S   0  0  0  0  0  0  0  0  0  0  0  0
  2  1  1  1
  2  3  1  0
  2  5  1  0
  2 18  1  0
  3  4  1  0
  5  6  1  0
  6  7  2  0
  6  8  1  0
  8  9  1  0
  9 10  1  0
 10 11  1  0
 11 12  2  0
 11 13  1  0
 13 14  1  0
 14 15  1  0
 15 16  1  0
 15 17  2  0
 18 19  1  0
 18 20  2  0
M  END
