
     RDKit          3D

 27 30  0  0  0  0  0  0  0  0999 V2000
   -3.3980   -2.3590    1.3120 C   0  0  0  0  0  0  0  0  0  0  0  0
   -2.6720   -1.7400    0.1360 C   0  0  2  0  0  0  0  0  0  0  0  0
   -2.8280   -2.5490   -1.1290 C   0  0  0  0  0  0  0  0  0  0  0  0
   -1.6500   -3.5170   -1.0620 C   0  0  0  0  0  0  0  0  0  0  0  0
   -0.7440   -2.8660   -0.0800 C   0  0  2  0  0  0  0  0  0  0  0  0
   -1.3260   -1.7530    0.4370 O   0  0  0  0  0  0  0  0  0  0  0  0
    0.5910   -2.5170   -0.7180 C   0  0  1  0  0  0  0  0  0  0  0  0
    0.3670   -1.6310   -1.7380 O   0  0  0  0  0  0  0  0  0  0  0  0
    1.6140   -2.0750    0.2990 C   0  0  0  0  0  0  0  0  0  0  0  0
    2.4750   -0.9290   -0.1830 C   0  0  2  0  0  0  0  0  0  0  0  0
    3.4720   -0.5590    0.8570 C   0  0  0  0  0  0  0  0  0  0  0  0
    4.3810   -1.7090    1.1840 C   0  0  0  0  0  0  0  0  0  0  0  0
    5.0910   -2.1480    0.0600 O   0  0  0  0  0  0  0  0  0  0  0  0
    1.6200    0.2310   -0.6260 C   0  0  0  0  0  0  0  0  0  0  0  0
    2.0980    1.5610   -0.0870 C   0  0  1  0  0  0  0  0  0  0  0  0
    3.0830    2.2260   -1.0150 C   0  0  0  0  0  0  0  0  0  0  0  0
    2.2720    2.9760   -2.0520 C   0  0  0  0  0  0  0  0  0  0  0  0
    0.8030    2.7840   -1.6480 C   0  0  0  0  0  0  0  0  0  0  0  0
    0.9130    2.5340   -0.1940 C   0  0  1  0  0  0  0  0  0  0  0  0
   -0.2850    2.1020    0.5230 C   0  0  1  0  0  0  0  0  0  0  0  0
   -0.9270    3.1950    1.3970 C   0  0  0  0  0  0  0  0  0  0  0  0
   -2.3750    2.9420    1.6440 C   0  0  0  0  0  0  0  0  0  0  0  0
   -2.7960    1.5160    1.6780 C   0  0  0  0  0  0  0  0  0  0  0  0
   -2.1820    0.6550    0.6180 C   0  0  2  0  0  0  0  0  0  0  0  0
   -1.4280    1.5980   -0.3170 C   0  0  0  0  0  0  0  0  0  0  0  0
   -3.0890   -0.2820   -0.0700 C   0  0  2  0  0  0  0  0  0  0  0  0
   -4.4290   -0.0900    0.2450 O   0  0  0  0  0  0  0  0  0  0  0  0
  2  1  1  1
  2  3  1  0
  2  6  1  0
  2 26  1  0
  3  4  1  0
  5  4  1  6
  5  6  1  0
  5  7  1  0
  7  8  1  6
  7  9  1  0
  9 10  1  0
 10 11  1  1
 10 14  1  0
 11 12  1  0
 12 13  1  0
 15 14  1  6
 15 16  1  0
 15 19  1  0
 16 17  1  0
 17 18  1  0
 19 18  1  6
 19 20  1  0
 20 21  1  6
 20 25  1  0
 21 22  1  0
 22 23  1  0
 24 23  1  1
 24 25  1  0
 24 26  1  0
 26 27  1  1
M  END
