
     RDKit          3D

 20 19  0  0  0  0  0  0  0  0999 V2000
    4.9970    0.3760   -1.5850 N   0  0  0  0  0  0  0  0  0  0  0  0
    4.4590    1.6010   -1.0380 C   0  0  1  0  0  0  0  0  0  0  0  0
    2.9620    1.6570   -1.3060 C   0  0  0  0  0  0  0  0  0  0  0  0
    2.3540    0.4560   -0.6310 C   0  0  0  0  0  0  0  0  0  0  0  0
    0.8810    0.4300   -0.8420 C   0  0  0  0  0  0  0  0  0  0  0  0
    0.3340    1.3610   -1.5240 O   0  0  0  0  0  0  0  0  0  0  0  0
    0.0350   -0.5700   -0.3330 N   0  0  0  0  0  0  0  0  0  0  0  0
   -1.4260   -0.5510   -0.5720 C   0  0  1  0  0  0  0  0  0  0  0  0
   -1.7730   -1.7690   -1.4370 C   0  0  0  0  0  0  0  0  0  0  0  0
   -3.5220   -1.8140   -1.7860 S   0  0  0  0  0  0  0  0  0  0  0  0
   -2.1390   -0.6050    0.7200 C   0  0  0  0  0  0  0  0  0  0  0  0
   -1.4340   -0.7560    1.7800 O   0  0  0  0  0  0  0  0  0  0  0  0
   -3.5390   -0.5010    0.8880 N   0  0  0  0  0  0  0  0  0  0  0  0
   -4.0710   -0.5800    2.2490 C   0  0  0  0  0  0  0  0  0  0  0  0
   -5.5480   -0.4550    2.2520 C   0  0  0  0  0  0  0  0  0  0  0  0
   -6.2400   -0.3030    1.2110 O   0  0  0  0  0  0  0  0  0  0  0  0
   -6.1950   -0.5090    3.4760 O   0  0  0  0  0  0  0  0  0  0  0  0
    4.6960    1.6370    0.4240 C   0  0  0  0  0  0  0  0  0  0  0  0
    4.3100    2.6120    1.1000 O   0  0  0  0  0  0  0  0  0  0  0  0
    5.3560    0.5770    1.0720 O   0  0  0  0  0  0  0  0  0  0  0  0
  2  1  1  1
  2  3  1  0
  2 18  1  0
  3  4  1  0
  4  5  1  0
  5  6  2  0
  5  7  1  0
  7  8  1  0
  8  9  1  6
  8 11  1  0
  9 10  1  0
 11 12  2  0
 11 13  1  0
 13 14  1  0
 14 15  1  0
 15 16  2  0
 15 17  1  0
 18 19  2  0
 18 20  1  0
M  END
