
     RDKit          3D

 20 19  0  0  0  0  0  0  0  0999 V2000
    5.2250    1.7550   -0.4830 N   0  0  0  0  0  0  0  0  0  0  0  0
    4.1120    1.2940    0.2690 C   0  0  0  0  0  0  0  0  0  0  0  0
    3.2820    2.1550    0.6460 O   0  0  0  0  0  0  0  0  0  0  0  0
    3.9030   -0.1380    0.6140 C   0  0  1  0  0  0  0  0  0  0  0  0
    2.6540   -0.6300   -0.0340 C   0  0  0  0  0  0  0  0  0  0  0  0
    1.4640    0.0340    0.4640 N   0  0  0  0  0  0  0  0  0  0  0  0
    0.1890   -0.3350   -0.0670 C   0  0  0  0  0  0  0  0  0  0  0  0
    0.1700   -1.2140   -0.9340 O   0  0  0  0  0  0  0  0  0  0  0  0
   -1.0150    0.2470    0.3470 N   0  0  0  0  0  0  0  0  0  0  0  0
   -2.3210   -0.0810   -0.1150 C   0  0  2  0  0  0  0  0  0  0  0  0
   -2.6800   -1.4860    0.2880 C   0  0  0  0  0  0  0  0  0  0  0  0
   -1.8500   -2.4620   -0.2110 O   0  0  0  0  0  0  0  0  0  0  0  0
   -2.4270   -0.0370   -1.6280 C   0  0  0  0  0  0  0  0  0  0  0  0
   -2.0630    1.5660   -2.3330 S   0  0  0  0  0  0  0  0  0  0  0  0
   -3.3520    0.8700    0.4210 C   0  0  0  0  0  0  0  0  0  0  0  0
   -4.7530    0.6260    0.0030 C   0  0  0  0  0  0  0  0  0  0  0  0
   -5.6260    1.5920    0.5770 O   0  0  0  0  0  0  0  0  0  0  0  0
    4.9940   -0.8520    0.0550 O   0  0  0  0  0  0  0  0  0  0  0  0
    5.8360   -1.6490    0.8000 C   0  0  0  0  0  0  0  0  0  0  0  0
    5.6130   -1.7380    2.0360 O   0  0  0  0  0  0  0  0  0  0  0  0
  1  2  1  0
  2  3  2  0
  2  4  1  0
  4  5  1  6
  4 18  1  0
  5  6  1  0
  6  7  1  0
  7  8  2  0
  7  9  1  0
  9 10  1  0
 10 11  1  1
 10 13  1  0
 10 15  1  0
 11 12  1  0
 13 14  1  0
 15 16  1  0
 16 17  1  0
 18 19  1  0
 19 20  2  0
M  END
