
     RDKit          3D

 20 19  0  0  0  0  0  0  0  0999 V2000
   -2.7980    1.9560    1.1340 N   0  0  0  0  0  0  0  0  0  0  0  0
   -3.4220    0.8700    0.5090 C   0  0  0  0  0  0  0  0  0  0  0  0
   -4.6820    1.0270    0.3180 O   0  0  0  0  0  0  0  0  0  0  0  0
   -2.8290   -0.3720    0.0670 C   0  0  0  0  0  0  0  0  0  0  0  0
   -3.6000   -1.2680   -0.4940 C   0  0  0  0  0  0  0  0  0  0  0  0
   -5.3380   -0.9360   -0.6960 S   0  0  0  0  0  0  0  0  0  0  0  0
   -1.3780   -0.6080    0.2520 C   0  0  2  0  0  0  0  0  0  0  0  0
   -0.9680   -1.9970   -0.3120 C   0  0  0  0  0  0  0  0  0  0  0  0
   -1.1210   -2.0840   -1.6690 O   0  0  0  0  0  0  0  0  0  0  0  0
   -1.0760   -0.7440    1.7200 C   0  0  0  0  0  0  0  0  0  0  0  0
   -1.2300    0.3400    2.5020 O   0  0  0  0  0  0  0  0  0  0  0  0
   -0.5540    0.4000   -0.3990 N   0  0  0  0  0  0  0  0  0  0  0  0
    0.8500    0.4410   -0.3450 C   0  0  0  0  0  0  0  0  0  0  0  0
    1.4840   -0.4160    0.2900 O   0  0  0  0  0  0  0  0  0  0  0  0
    1.6250    1.4530   -1.0040 N   0  0  0  0  0  0  0  0  0  0  0  0
    3.0600    1.4870   -0.9500 C   0  0  0  0  0  0  0  0  0  0  0  0
    3.7530    0.2990   -1.5090 C   0  0  0  0  0  0  0  0  0  0  0  0
    5.1430    0.4640   -1.3930 O   0  0  0  0  0  0  0  0  0  0  0  0
    5.8270    0.5870   -0.2050 C   0  0  0  0  0  0  0  0  0  0  0  0
    5.1960    0.5480    0.8780 O   0  0  0  0  0  0  0  0  0  0  0  0
  1  2  1  0
  2  3  2  0
  2  4  1  0
  4  5  2  3
  4  7  1  0
  5  6  1  0
  7  8  1  6
  7 10  1  0
  7 12  1  0
  8  9  1  0
 10 11  1  0
 12 13  1  0
 13 14  2  0
 13 15  1  0
 15 16  1  0
 16 17  1  0
 17 18  1  0
 18 19  1  0
 19 20  2  0
M  END
