
     RDKit          3D

 20 19  0  0  0  0  0  0  0  0999 V2000
   -4.7790    0.5480   -1.6530 C   0  0  0  0  0  0  0  0  0  0  0  0
   -4.7750   -0.0130   -0.2460 C   0  0  2  0  0  0  0  0  0  0  0  0
   -5.0860    0.9380    0.7010 O   0  0  0  0  0  0  0  0  0  0  0  0
   -3.3930   -0.5960    0.0660 C   0  0  0  0  0  0  0  0  0  0  0  0
   -2.4820    0.4290    0.0320 O   0  0  0  0  0  0  0  0  0  0  0  0
   -1.1860    0.0150    0.3140 C   0  0  0  0  0  0  0  0  0  0  0  0
   -0.6420   -1.0040   -0.6250 C   0  0  0  0  0  0  0  0  0  0  0  0
    0.6450   -1.3630   -0.2790 O   0  0  0  0  0  0  0  0  0  0  0  0
    1.6670   -0.4450   -0.2730 C   0  0  0  0  0  0  0  0  0  0  0  0
    1.5620    0.7400   -0.5630 O   0  0  0  0  0  0  0  0  0  0  0  0
    2.9200   -0.8970    0.0900 N   0  0  0  0  0  0  0  0  0  0  0  0
    4.1690   -0.3970    0.2370 C   0  0  0  0  0  0  0  0  0  0  0  0
    4.9160   -1.3970    0.6170 O   0  0  0  0  0  0  0  0  0  0  0  0
    4.8940    0.7600    0.1260 N   0  0  0  0  0  0  0  0  0  0  0  0
    6.3290    0.6950    0.4380 C   0  0  0  0  0  0  0  0  0  0  0  0
    6.9550    2.0210    0.2670 C   0  0  0  0  0  0  0  0  0  0  0  0
    6.3640    2.9470    1.1100 O   0  0  0  0  0  0  0  0  0  0  0  0
   -5.7360   -1.1240   -0.1400 C   0  0  0  0  0  0  0  0  0  0  0  0
   -5.9060   -1.8030    1.0850 N   0  0  0  0  0  0  0  0  0  0  0  0
   -6.6060   -1.5720   -1.4280 S   0  0  0  0  0  0  0  0  0  0  0  0
  2  1  1  6
  2  3  1  0
  2  4  1  0
  2 18  1  0
  4  5  1  0
  5  6  1  0
  6  7  1  0
  7  8  1  0
  8  9  1  0
  9 10  2  0
  9 11  1  0
 11 12  1  0
 12 13  2  0
 12 14  1  0
 14 15  1  0
 15 16  1  0
 16 17  1  0
 18 19  1  0
 18 20  2  0
M  END
