
     RDKit          3D

 20 19  0  0  0  0  0  0  0  0999 V2000
   -4.0130    0.3350   -1.6870 C   0  0  0  0  0  0  0  0  0  0  0  0
   -2.9910    0.2340   -0.5720 C   0  0  1  0  0  0  0  0  0  0  0  0
   -2.6930   -1.2460   -0.3990 C   0  0  0  0  0  0  0  0  0  0  0  0
   -2.2690   -1.7410   -1.6200 O   0  0  0  0  0  0  0  0  0  0  0  0
   -1.7630    0.8730   -1.0000 N   0  0  0  0  0  0  0  0  0  0  0  0
   -0.5960    0.9600   -0.2020 C   0  0  0  0  0  0  0  0  0  0  0  0
   -0.6170    0.4570    0.9450 O   0  0  0  0  0  0  0  0  0  0  0  0
    0.6480    1.6250   -0.6740 C   0  0  0  0  0  0  0  0  0  0  0  0
    1.6910    1.5840    0.3130 N   0  0  0  0  0  0  0  0  0  0  0  0
    2.1840    0.3420    0.7890 C   0  0  0  0  0  0  0  0  0  0  0  0
    1.6630   -0.6920    0.3030 O   0  0  0  0  0  0  0  0  0  0  0  0
    3.2480    0.2520    1.7960 C   0  0  0  0  0  0  0  0  0  0  0  0
    3.6460   -0.9990    2.1530 O   0  0  0  0  0  0  0  0  0  0  0  0
    4.1710   -1.8010    1.1780 C   0  0  0  0  0  0  0  0  0  0  0  0
    5.3860   -1.2420    0.5330 C   0  0  0  0  0  0  0  0  0  0  0  0
    5.3940   -0.0400   -0.1500 O   0  0  0  0  0  0  0  0  0  0  0  0
    6.7860   -2.0710    0.6240 S   0  0  0  0  0  0  0  0  0  0  0  0
   -3.5030    0.8520    0.6710 C   0  0  0  0  0  0  0  0  0  0  0  0
   -4.6950    0.3800    1.2710 N   0  0  0  0  0  0  0  0  0  0  0  0
   -2.8660    1.8000    1.1850 O   0  0  0  0  0  0  0  0  0  0  0  0
  2  1  1  6
  2  3  1  0
  2  5  1  0
  2 18  1  0
  3  4  1  0
  5  6  1  0
  6  7  2  0
  6  8  1  0
  8  9  1  0
  9 10  1  0
 10 11  2  0
 10 12  1  0
 12 13  1  0
 13 14  1  0
 14 15  1  0
 15 16  1  0
 15 17  2  0
 18 19  1  0
 18 20  2  0
M  END
