
     RDKit          3D

 20 19  0  0  0  0  0  0  0  0999 V2000
   -2.4150   -2.2240   -1.9330 C   0  0  0  0  0  0  0  0  0  0  0  0
   -1.7520   -1.7740   -0.8010 O   0  0  0  0  0  0  0  0  0  0  0  0
   -1.5220   -0.4100   -0.8200 C   0  0  0  0  0  0  0  0  0  0  0  0
   -0.8120    0.0390    0.4030 C   0  0  1  0  0  0  0  0  0  0  0  0
   -1.6020   -0.2020    1.7060 C   0  0  0  0  0  0  0  0  0  0  0  0
   -2.8110    0.3780    1.8510 O   0  0  0  0  0  0  0  0  0  0  0  0
   -4.0450    0.2520    1.3210 C   0  0  0  0  0  0  0  0  0  0  0  0
   -5.1710    1.0440    1.6540 N   0  0  0  0  0  0  0  0  0  0  0  0
   -4.2290   -0.6360    0.4620 O   0  0  0  0  0  0  0  0  0  0  0  0
    0.3940   -0.6240    0.5180 O   0  0  0  0  0  0  0  0  0  0  0  0
    1.2550   -0.4670   -0.4980 C   0  0  0  0  0  0  0  0  0  0  0  0
    2.5740   -1.2220   -0.2120 C   0  0  0  0  0  0  0  0  0  0  0  0
    3.1440   -0.7500    0.9250 O   0  0  0  0  0  0  0  0  0  0  0  0
    3.4570    0.5700    0.9040 C   0  0  0  0  0  0  0  0  0  0  0  0
    4.4500    0.9320   -0.0950 C   0  0  0  0  0  0  0  0  0  0  0  0
    5.1060   -0.0130   -0.9050 N   0  0  0  0  0  0  0  0  0  0  0  0
    4.7420    2.1510   -0.2430 O   0  0  0  0  0  0  0  0  0  0  0  0
   -0.5360    1.5010    0.3970 C   0  0  0  0  0  0  0  0  0  0  0  0
    0.0340    2.2100   -0.6930 N   0  0  0  0  0  0  0  0  0  0  0  0
   -0.9050    2.3600    1.7310 S   0  0  0  0  0  0  0  0  0  0  0  0
  1  2  1  0
  2  3  1  0
  4  3  1  6
  4  5  1  0
  4 10  1  0
  4 18  1  0
  5  6  1  0
  6  7  1  0
  7  8  1  0
  7  9  2  0
 10 11  1  0
 11 12  1  0
 12 13  1  0
 13 14  1  0
 14 15  1  0
 15 16  1  0
 15 17  2  0
 18 19  1  0
 18 20  2  0
M  END
