
     RDKit          3D

 31 35  0  0  0  0  0  0  0  0999 V2000
    5.7630   -0.9100    1.8690 C   0  0  0  0  0  0  0  0  0  0  0  0
    4.4350   -0.5220    2.2410 N   0  0  2  0  0  0  0  0  0  0  0  0
    3.6610   -1.6830    2.5880 C   0  0  0  0  0  0  0  0  0  0  0  0
    3.7480    0.2870    1.2430 C   0  0  0  0  0  0  0  0  0  0  0  0
    3.8590   -0.3090   -0.1080 C   0  0  0  0  0  0  0  0  0  0  0  0
    3.2590    0.4180   -1.2240 C   0  0  0  0  0  0  0  0  0  0  0  0
    1.8800    0.8190   -1.1980 N   0  0  0  0  0  0  0  0  0  0  0  0
    0.7330    0.1300   -1.4930 C   0  0  0  0  0  0  0  0  0  0  0  0
   -0.3520    0.9690   -1.4280 C   0  0  0  0  0  0  0  0  0  0  0  0
   -1.6900    0.7240   -1.9200 C   0  0  1  0  0  0  0  0  0  0  0  0
   -1.3700   -0.1160   -3.2100 C   0  0  0  0  0  0  0  0  0  0  0  0
   -0.3010   -0.0720   -3.8660 O   0  0  0  0  0  0  0  0  0  0  0  0
   -2.4800   -0.9200   -3.4990 N   0  0  0  0  0  0  0  0  0  0  0  0
   -3.3920   -0.7900   -2.5070 C   0  0  0  0  0  0  0  0  0  0  0  0
   -4.5870   -1.2770   -2.4840 O   0  0  0  0  0  0  0  0  0  0  0  0
   -2.7660    0.0380   -1.3830 C   0  0  1  0  0  0  0  0  0  0  0  0
   -2.8870   -0.8470   -0.2320 C   0  0  0  0  0  0  0  0  0  0  0  0
   -2.0620   -1.6890    0.4300 C   0  0  0  0  0  0  0  0  0  0  0  0
   -2.7300   -2.2920    1.4120 N   0  0  0  0  0  0  0  0  0  0  0  0
   -4.0090   -1.8710    1.4280 C   0  0  0  0  0  0  0  0  0  0  0  0
   -5.1110   -2.1410    2.2340 C   0  0  0  0  0  0  0  0  0  0  0  0
   -6.3350   -1.5190    2.0340 C   0  0  0  0  0  0  0  0  0  0  0  0
   -6.4790   -0.5890    0.9950 C   0  0  0  0  0  0  0  0  0  0  0  0
   -5.3750   -0.3460    0.2230 C   0  0  0  0  0  0  0  0  0  0  0  0
   -4.1480   -0.9690    0.4150 C   0  0  0  0  0  0  0  0  0  0  0  0
    0.1570    2.2400   -1.0680 C   0  0  0  0  0  0  0  0  0  0  0  0
   -0.5410    3.4210   -0.8720 C   0  0  0  0  0  0  0  0  0  0  0  0
    0.2040    4.5130   -0.5230 C   0  0  0  0  0  0  0  0  0  0  0  0
    1.5930    4.4510   -0.3670 C   0  0  0  0  0  0  0  0  0  0  0  0
    2.2500    3.2310   -0.5760 C   0  0  0  0  0  0  0  0  0  0  0  0
    1.5110    2.0940   -0.9360 C   0  0  0  0  0  0  0  0  0  0  0  0
  2  1  1  6
  2  3  1  0
  2  4  1  0
  4  5  1  0
  5  6  1  0
  6  7  1  0
  7  8  1  0
  7 31  1  0
  8  9  2  0
 10  9  1  1
  9 26  1  0
 10 11  1  0
 10 16  1  0
 11 12  2  0
 11 13  1  0
 13 14  1  0
 14 15  2  0
 14 16  1  0
 16 17  1  1
 17 18  2  0
 17 25  1  0
 18 19  1  0
 19 20  1  0
 20 21  2  0
 20 25  1  0
 21 22  1  0
 22 23  2  0
 23 24  1  0
 24 25  2  0
 26 27  2  0
 26 31  1  0
 27 28  1  0
 28 29  2  0
 29 30  1  0
 30 31  2  0
M  CHG  1   2   1
M  END
