
     RDKit          3D

 28 31  0  0  0  0  0  0  0  0999 V2000
    1.8790    0.6130    1.7100 C   0  0  0  0  0  0  0  0  0  0  0  0
    1.0440   -0.5880    1.4770 C   0  0  0  0  0  0  0  0  0  0  0  0
    1.1260   -1.2420    0.1480 C   0  0  2  0  0  0  0  0  0  0  0  0
    2.4640   -1.7620   -0.2460 C   0  0  0  0  0  0  0  0  0  0  0  0
    3.5250   -0.8570   -0.3640 N   0  0  0  0  0  0  0  0  0  0  0  0
    3.5780    0.0270   -1.4720 C   0  0  0  0  0  0  0  0  0  0  0  0
    3.8740    1.4620   -1.1550 C   0  0  0  0  0  0  0  0  0  0  0  0
    5.0300    1.6110   -0.1940 C   0  0  0  0  0  0  0  0  0  0  0  0
    5.9440    0.5900   -0.3030 O   0  0  0  0  0  0  0  0  0  0  0  0
    5.7190   -0.4900    0.5310 C   0  0  0  0  0  0  0  0  0  0  0  0
    4.8270   -1.4700   -0.1960 C   0  0  0  0  0  0  0  0  0  0  0  0
    0.4890   -0.4670   -0.9580 C   0  0  0  0  0  0  0  0  0  0  0  0
   -0.9530   -0.2930   -0.6640 N   0  0  0  0  0  0  0  0  0  0  0  0
   -1.8910   -1.1700   -0.9930 N   0  0  0  0  0  0  0  0  0  0  0  0
   -3.0970   -0.7640   -0.5950 C   0  0  0  0  0  0  0  0  0  0  0  0
   -4.3630   -1.5000   -0.7920 C   0  0  0  0  0  0  0  0  0  0  0  0
   -5.4510   -0.8200   -1.2480 C   0  0  0  0  0  0  0  0  0  0  0  0
   -6.6350   -1.5090   -1.4270 C   0  0  0  0  0  0  0  0  0  0  0  0
   -6.7210   -2.8660   -1.1490 C   0  0  0  0  0  0  0  0  0  0  0  0
   -5.6110   -3.4830   -0.7010 N   0  0  0  0  0  0  0  0  0  0  0  0
   -4.4420   -2.8530   -0.5140 C   0  0  0  0  0  0  0  0  0  0  0  0
   -2.9180    0.4450    0.0250 C   0  0  0  0  0  0  0  0  0  0  0  0
   -3.7710    1.3450    0.6300 C   0  0  0  0  0  0  0  0  0  0  0  0
   -3.2360    2.4980    1.1630 C   0  0  0  0  0  0  0  0  0  0  0  0
   -4.0560    3.4680    1.8020 N   0  0  0  0  0  0  0  0  0  0  0  0
   -1.8830    2.7710    1.1040 C   0  0  0  0  0  0  0  0  0  0  0  0
   -1.0950    1.8650    0.5060 N   0  0  0  0  0  0  0  0  0  0  0  0
   -1.5660    0.7130   -0.0350 C   0  0  0  0  0  0  0  0  0  0  0  0
  1  2  1  0
  3  2  1  1
  3  4  1  0
  3 12  1  0
  4  5  1  0
  5  6  1  0
  5 11  1  0
  6  7  1  0
  7  8  1  0
  8  9  1  0
  9 10  1  0
 10 11  1  0
 12 13  1  0
 13 14  1  0
 13 28  1  0
 14 15  2  0
 15 16  1  0
 15 22  1  0
 16 17  2  0
 16 21  1  0
 17 18  1  0
 18 19  2  0
 19 20  1  0
 20 21  2  0
 22 23  2  0
 22 28  1  0
 23 24  1  0
 24 25  1  0
 24 26  2  0
 26 27  1  0
 27 28  2  0
M  CHG  1  25   1
M  END
