
     RDKit          3D

 29 32  0  0  0  0  0  0  0  0999 V2000
    8.7950    1.0440    1.3460 C   0  0  0  0  0  0  0  0  0  0  0  0
    8.3410   -0.3700    1.0570 C   0  0  0  0  0  0  0  0  0  0  0  0
    7.0900   -0.3100    0.2450 C   0  0  0  0  0  0  0  0  0  0  0  0
    5.8570   -0.2770    0.8520 C   0  0  0  0  0  0  0  0  0  0  0  0
    4.6640   -0.2210    0.1370 C   0  0  0  0  0  0  0  0  0  0  0  0
    3.4440   -0.1890    0.7580 C   0  0  0  0  0  0  0  0  0  0  0  0
    2.2400   -0.1320    0.0370 C   0  0  0  0  0  0  0  0  0  0  0  0
    1.0130   -0.1080    0.7580 N   0  0  0  0  0  0  0  0  0  0  0  0
   -0.2690    0.0650    0.2360 C   0  0  0  0  0  0  0  0  0  0  0  0
   -0.4370    0.2250   -0.9740 O   0  0  0  0  0  0  0  0  0  0  0  0
   -1.4520    0.0690    1.0480 N   0  0  0  0  0  0  0  0  0  0  0  0
   -2.7540    0.2440    0.5280 C   0  0  0  0  0  0  0  0  0  0  0  0
   -3.5400    1.2590    0.9030 C   0  0  0  0  0  0  0  0  0  0  0  0
   -4.8860    1.2740    0.2400 C   0  0  0  0  0  0  0  0  0  0  0  0
   -5.4970   -0.0770    0.5510 C   0  0  1  0  0  0  0  0  0  0  0  0
   -6.9440   -0.1090    0.2540 C   0  0  0  0  0  0  0  0  0  0  0  0
   -7.3590    0.0790   -1.0650 C   0  0  0  0  0  0  0  0  0  0  0  0
   -8.7140    0.0430   -1.3070 C   0  0  0  0  0  0  0  0  0  0  0  0
   -9.0940    0.2140   -2.5050 O   0  0  0  0  0  0  0  0  0  0  0  0
   -9.5840   -0.1660   -0.2950 N   0  0  0  0  0  0  0  0  0  0  0  0
   -9.1270   -0.3350    0.9250 N   0  0  0  0  0  0  0  0  0  0  0  0
   -7.8410   -0.3110    1.2130 N   0  0  0  0  0  0  0  0  0  0  0  0
   -4.7240   -1.1270   -0.1820 C   0  0  0  0  0  0  0  0  0  0  0  0
   -3.3310   -0.6920   -0.4710 C   0  0  0  0  0  0  0  0  0  0  0  0
    2.3570   -0.1100   -1.3290 C   0  0  0  0  0  0  0  0  0  0  0  0
    3.6150   -0.1430   -1.9470 C   0  0  0  0  0  0  0  0  0  0  0  0
    4.7830   -0.1980   -1.2350 C   0  0  0  0  0  0  0  0  0  0  0  0
    6.0290   -0.2320   -1.8200 C   0  0  0  0  0  0  0  0  0  0  0  0
    7.1680   -0.2860   -1.0970 N   0  0  0  0  0  0  0  0  0  0  0  0
  1  2  1  0
  2  3  1  0
  3  4  2  0
  3 29  1  0
  4  5  1  0
  5  6  2  0
  5 27  1  0
  6  7  1  0
  7  8  1  0
  7 25  2  0
  8  9  1  0
  9 10  2  0
  9 11  1  0
 11 12  1  0
 12 13  2  0
 12 24  1  0
 13 14  1  0
 14 15  1  0
 15 16  1  6
 15 23  1  0
 16 17  2  0
 16 22  1  0
 17 18  1  0
 18 19  2  0
 18 20  1  0
 20 21  1  0
 21 22  2  0
 23 24  1  0
 25 26  1  0
 26 27  2  0
 27 28  1  0
 28 29  2  0
M  CHG  1  29   1
M  END
