
     RDKit          3D

 29 31  0  0  0  0  0  0  0  0999 V2000
    6.6740    2.5660    0.7590 C   0  0  0  0  0  0  0  0  0  0  0  0
    6.3160    1.6160   -0.3740 C   0  0  0  0  0  0  0  0  0  0  0  0
    5.8540    0.3480    0.2010 C   0  0  0  0  0  0  0  0  0  0  0  0
    4.6490   -0.1230    0.0140 C   0  0  0  0  0  0  0  0  0  0  0  0
    3.5840    0.4530   -0.7390 C   0  0  0  0  0  0  0  0  0  0  0  0
    2.4090    0.0040   -0.9450 C   0  0  0  0  0  0  0  0  0  0  0  0
    1.7270   -1.2000   -0.5290 C   0  0  0  0  0  0  0  0  0  0  0  0
    2.1820   -2.3130    0.0660 N   0  0  0  0  0  0  0  0  0  0  0  0
    1.1520   -3.1540    0.2540 N   0  0  0  0  0  0  0  0  0  0  0  0
    0.0390   -2.6060   -0.2070 C   0  0  0  0  0  0  0  0  0  0  0  0
    0.3240   -1.3800   -0.7130 C   0  0  0  0  0  0  0  0  0  0  0  0
   -0.7050   -0.4780   -1.3100 C   0  0  0  0  0  0  0  0  0  0  0  0
   -1.4740    0.1700   -0.1530 C   0  0  0  0  0  0  0  0  0  0  0  0
   -2.7280    0.8140   -0.5840 C   0  0  0  0  0  0  0  0  0  0  0  0
   -2.8390    2.1620   -0.9850 C   0  0  0  0  0  0  0  0  0  0  0  0
   -1.8590    3.2370   -0.8610 C   0  0  0  0  0  0  0  0  0  0  0  0
   -1.5210    3.8750   -1.8850 O   0  0  0  0  0  0  0  0  0  0  0  0
   -1.3010    3.5790    0.3960 N   0  0  0  0  0  0  0  0  0  0  0  0
   -0.3500    4.6400    0.6190 C   0  0  0  0  0  0  0  0  0  0  0  0
   -4.1340    2.4140   -1.4080 C   0  0  0  0  0  0  0  0  0  0  0  0
   -4.7650    1.2550   -1.2560 N   0  0  0  0  0  0  0  0  0  0  0  0
   -3.9310    0.2990   -0.7630 N   0  0  0  0  0  0  0  0  0  0  0  0
   -4.3920   -1.0440   -0.4640 C   0  0  0  0  0  0  0  0  0  0  0  0
   -4.2870   -1.4450    0.9600 C   0  0  0  0  0  0  0  0  0  0  0  0
   -4.3840   -2.8880    1.0590 N   0  0  0  0  0  0  0  0  0  0  0  0
   -3.3360   -3.8090    0.9750 C   0  0  0  0  0  0  0  0  0  0  0  0
   -3.5620   -5.0240    0.7310 O   0  0  0  0  0  0  0  0  0  0  0  0
   -1.8780   -3.4810    1.1540 C   0  0  0  0  0  0  0  0  0  0  0  0
   -1.3270   -3.2090   -0.2230 C   0  0  0  0  0  0  0  0  0  0  0  0
  1  2  1  0
  2  3  1  0
  3  4  2  3
  4  5  1  0
  5  6  2  3
  6  7  1  0
  7  8  2  0
  7 11  1  0
  8  9  1  0
  9 10  1  0
 10 11  2  0
 10 29  1  0
 11 12  1  0
 12 13  1  0
 13 14  1  0
 14 15  2  0
 14 22  1  0
 15 16  1  0
 15 20  1  0
 16 17  2  0
 16 18  1  0
 18 19  1  0
 20 21  2  0
 21 22  1  0
 22 23  1  0
 23 24  1  0
 24 25  1  0
 25 26  1  0
 26 27  2  0
 26 28  1  0
 28 29  1  0
M  CHG  1   8   1
M  END
