
     RDKit          3D

 29 32  0  0  0  0  0  0  0  0999 V2000
   -4.7530   -2.8780   -0.2300 C   0  0  0  0  0  0  0  0  0  0  0  0
   -3.4500   -3.0430   -0.9290 C   0  0  0  0  0  0  0  0  0  0  0  0
   -3.2570   -4.1110   -1.7450 C   0  0  0  0  0  0  0  0  0  0  0  0
   -2.0750   -4.2310   -2.3570 N   0  0  0  0  0  0  0  0  0  0  0  0
   -1.0980   -3.3360   -2.1840 C   0  0  0  0  0  0  0  0  0  0  0  0
   -1.2970   -2.2250   -1.3350 C   0  0  0  0  0  0  0  0  0  0  0  0
   -2.4700   -2.0520   -0.6910 C   0  0  0  0  0  0  0  0  0  0  0  0
   -2.8530   -0.9850    0.1960 C   0  0  0  0  0  0  0  0  0  0  0  0
   -2.0380    0.0760    0.5800 N   0  0  0  0  0  0  0  0  0  0  0  0
   -2.6090    1.0790    1.5120 C   0  0  0  0  0  0  0  0  0  0  0  0
   -3.6720    1.8650    0.7990 C   0  0  1  0  0  0  0  0  0  0  0  0
   -4.2100    2.9090    1.7560 C   0  0  0  0  0  0  0  0  0  0  0  0
   -3.7120    4.2040    1.1890 C   0  0  0  0  0  0  0  0  0  0  0  0
   -2.6730    3.7360    0.1900 C   0  0  0  0  0  0  0  0  0  0  0  0
   -3.1780    2.5310   -0.3070 O   0  0  0  0  0  0  0  0  0  0  0  0
   -0.7190    0.3470    0.2140 C   0  0  0  0  0  0  0  0  0  0  0  0
   -0.3260    1.0910   -0.7230 N   0  0  0  0  0  0  0  0  0  0  0  0
    1.1440    1.0420   -0.6980 C   0  0  0  0  0  0  0  0  0  0  0  0
    1.4680    0.1650    0.3860 C   0  0  0  0  0  0  0  0  0  0  0  0
    2.5090   -0.4610    1.1930 N   0  0  0  0  0  0  0  0  0  0  0  0
    3.8030   -0.3870    0.7690 C   0  0  0  0  0  0  0  0  0  0  0  0
    3.8240    0.1960   -0.3620 O   0  0  0  0  0  0  0  0  0  0  0  0
    4.9390   -0.8510    1.4200 N   0  0  0  0  0  0  0  0  0  0  0  0
    6.1620   -0.6080    0.7120 C   0  0  0  0  0  0  0  0  0  0  0  0
    7.1300    0.1480    1.1790 C   0  0  0  0  0  0  0  0  0  0  0  0
    8.2320    0.1800    0.1980 C   0  0  0  0  0  0  0  0  0  0  0  0
    7.7620   -0.6680   -0.9070 C   0  0  0  0  0  0  0  0  0  0  0  0
    6.5640   -1.1140   -0.5900 C   0  0  0  0  0  0  0  0  0  0  0  0
    0.3710   -0.2070    0.8840 N   0  0  0  0  0  0  0  0  0  0  0  0
  1  2  1  0
  2  3  2  0
  2  7  1  0
  3  4  1  0
  4  5  2  0
  5  6  1  0
  6  7  2  0
  7  8  1  0
  8  9  1  0
  9 10  1  0
  9 16  1  0
 11 10  1  1
 11 12  1  0
 11 15  1  0
 12 13  1  0
 13 14  1  0
 14 15  1  0
 16 17  2  0
 16 29  1  0
 17 18  1  0
 18 19  1  0
 19 20  1  0
 19 29  2  0
 20 21  1  0
 21 22  2  0
 21 23  1  0
 23 24  1  0
 24 25  2  0
 24 28  1  0
 25 26  1  0
 26 27  1  0
 27 28  2  0
M  CHG  1  17   1
M  END
