
     RDKit          3D

 31 33  0  0  0  0  0  0  0  0999 V2000
    3.5050    2.4390    0.2930 O   0  0  0  0  0  0  0  0  0  0  0  0
    3.5290    1.4690   -0.4680 C   0  0  0  0  0  0  0  0  0  0  0  0
    2.4070    1.3010   -1.4480 C   0  0  0  0  0  0  0  0  0  0  0  0
    1.3890    2.3750   -1.3820 C   0  0  0  0  0  0  0  0  0  0  0  0
    0.7500    2.4450   -0.0550 C   0  0  0  0  0  0  0  0  0  0  0  0
    1.1500    3.3150    0.7820 O   0  0  0  0  0  0  0  0  0  0  0  0
   -0.3030    1.5650    0.3130 N   0  0  0  0  0  0  0  0  0  0  0  0
   -0.8550    0.5890   -0.3850 N   0  0  0  0  0  0  0  0  0  0  0  0
   -1.8200    0.0020    0.3020 C   0  0  0  0  0  0  0  0  0  0  0  0
   -2.6600   -1.1260   -0.1470 C   0  0  0  0  0  0  0  0  0  0  0  0
   -2.4750   -1.6770   -1.3200 C   0  0  0  0  0  0  0  0  0  0  0  0
   -3.2980   -2.7940   -1.7860 C   0  0  0  0  0  0  0  0  0  0  0  0
   -4.3200   -3.1350   -0.8360 N   0  0  0  0  0  0  0  0  0  0  0  0
   -5.4100   -2.2630   -0.6250 C   0  0  0  0  0  0  0  0  0  0  0  0
   -6.3730   -2.5740    0.3330 C   0  0  0  0  0  0  0  0  0  0  0  0
   -7.4260   -1.7020    0.4950 C   0  0  0  0  0  0  0  0  0  0  0  0
   -7.5490   -0.5460   -0.2550 C   0  0  0  0  0  0  0  0  0  0  0  0
   -8.6250    0.3120   -0.0650 O   0  0  0  0  0  0  0  0  0  0  0  0
   -6.5810   -0.2690   -1.1900 C   0  0  0  0  0  0  0  0  0  0  0  0
   -5.5120   -1.1200   -1.3810 C   0  0  0  0  0  0  0  0  0  0  0  0
   -1.8870    0.6120    1.4570 O   0  0  0  0  0  0  0  0  0  0  0  0
   -0.9710    1.5750    1.4960 C   0  0  0  0  0  0  0  0  0  0  0  0
   -0.7170    2.3760    2.4160 O   0  0  0  0  0  0  0  0  0  0  0  0
    4.5600    0.5920   -0.3950 O   0  0  0  0  0  0  0  0  0  0  0  0
    5.6380    0.5930    0.4290 C   0  0  0  0  0  0  0  0  0  0  0  0
    5.8930    1.4620    1.3730 C   0  0  0  0  0  0  0  0  0  0  0  0
    7.0740    1.4620    2.2750 C   0  0  0  0  0  0  0  0  0  0  0  0
    8.0500    0.3690    2.0750 C   0  0  0  0  0  0  0  0  0  0  0  0
    7.7230   -0.5850    1.0030 C   0  0  0  0  0  0  0  0  0  0  0  0
    6.6520   -0.4840    0.2750 C   0  0  0  0  0  0  0  0  0  0  0  0
    6.4150   -1.3940   -0.6910 F   0  0  0  0  0  0  0  0  0  0  0  0
  1  2  2  0
  2  3  1  0
  2 24  1  0
  3  4  1  0
  4  5  1  0
  5  6  2  0
  5  7  1  0
  7  8  1  0
  7 22  1  0
  8  9  2  0
  9 10  1  0
  9 21  1  0
 10 11  2  3
 11 12  1  0
 12 13  1  0
 13 14  1  0
 14 15  2  0
 14 20  1  0
 15 16  1  0
 16 17  2  0
 17 18  1  0
 17 19  1  0
 19 20  2  0
 21 22  1  0
 22 23  2  0
 24 25  1  0
 25 26  2  0
 25 30  1  0
 26 27  1  0
 27 28  1  0
 28 29  1  0
 29 30  2  0
 30 31  1  0
M  END
