
     RDKit          3D

 29 32  0  0  0  0  0  0  0  0999 V2000
    3.6530    3.8500   -0.6110 C   0  0  0  0  0  0  0  0  0  0  0  0
    3.3510    3.3540    0.7800 C   0  0  0  0  0  0  0  0  0  0  0  0
    3.7190    1.9170    0.8620 C   0  0  0  0  0  0  0  0  0  0  0  0
    4.7520    1.2980    1.4180 N   0  0  0  0  0  0  0  0  0  0  0  0
    4.6710   -0.0070    1.2450 N   0  0  0  0  0  0  0  0  0  0  0  0
    3.5490   -0.2980    0.5490 C   0  0  0  0  0  0  0  0  0  0  0  0
    2.9300    0.8990    0.2960 C   0  0  0  0  0  0  0  0  0  0  0  0
    1.6880    1.1020   -0.4870 C   0  0  0  0  0  0  0  0  0  0  0  0
    1.1170   -0.1840   -0.8280 N   0  0  0  0  0  0  0  0  0  0  0  0
    0.1290   -0.1110   -1.8530 C   0  0  0  0  0  0  0  0  0  0  0  0
   -1.0780    0.6340   -1.3960 C   0  0  0  0  0  0  0  0  0  0  0  0
   -1.6790   -0.1240   -0.3500 N   0  0  0  0  0  0  0  0  0  0  0  0
   -2.9890   -0.6590   -0.2960 C   0  0  0  0  0  0  0  0  0  0  0  0
   -3.1730   -2.0380   -0.2560 C   0  0  0  0  0  0  0  0  0  0  0  0
   -4.3830   -2.6650   -0.2140 C   0  0  0  0  0  0  0  0  0  0  0  0
   -5.4950   -1.8520   -0.2110 C   0  0  0  0  0  0  0  0  0  0  0  0
   -6.8640   -2.4290   -0.1680 C   0  0  0  0  0  0  0  0  0  0  0  0
   -5.3490   -0.4860   -0.2500 C   0  0  0  0  0  0  0  0  0  0  0  0
   -4.1240    0.1280   -0.2910 C   0  0  0  0  0  0  0  0  0  0  0  0
   -3.9720    1.5440   -0.3380 N   0  0  0  0  0  0  0  0  0  0  0  0
   -5.0540    2.4310   -0.2360 C   0  0  0  0  0  0  0  0  0  0  0  0
   -5.8770    2.2850    0.7520 N   0  0  0  0  0  0  0  0  0  0  0  0
   -0.7970   -0.3540    0.7700 C   0  0  0  0  0  0  0  0  0  0  0  0
    0.5940   -0.7530    0.4080 C   0  0  0  0  0  0  0  0  0  0  0  0
    3.3380   -1.6520    0.2900 O   0  0  0  0  0  0  0  0  0  0  0  0
    4.4050   -2.4600   -0.1690 C   0  0  0  0  0  0  0  0  0  0  0  0
    5.6980   -2.1320    0.5370 C   0  0  2  0  0  0  0  0  0  0  0  0
    6.1690   -3.3170    1.1020 O   0  0  0  0  0  0  0  0  0  0  0  0
    5.5120   -1.1220    1.6410 C   0  0  0  0  0  0  0  0  0  0  0  0
  1  2  1  0
  2  3  1  0
  3  4  2  0
  3  7  1  0
  4  5  1  0
  5  6  1  0
  5 29  1  0
  6  7  2  0
  6 25  1  0
  7  8  1  0
  8  9  1  0
  9 10  1  0
  9 24  1  0
 10 11  1  0
 11 12  1  0
 12 13  1  0
 12 23  1  0
 13 14  2  0
 13 19  1  0
 14 15  1  0
 15 16  2  0
 16 17  1  0
 16 18  1  0
 18 19  2  0
 19 20  1  0
 20 21  1  0
 21 22  2  0
 23 24  1  0
 25 26  1  0
 26 27  1  0
 27 28  1  1
 27 29  1  0
M  CHG  1  22   1
M  END
