
     RDKit          3D

 29 32  0  0  0  0  0  0  0  0999 V2000
    7.7960    0.4160   -0.0830 C   0  0  0  0  0  0  0  0  0  0  0  0
    6.3780    0.0150    0.1980 C   0  0  0  0  0  0  0  0  0  0  0  0
    5.3090    0.8660    0.3590 C   0  0  0  0  0  0  0  0  0  0  0  0
    4.1820    0.1070    0.6150 C   0  0  0  0  0  0  0  0  0  0  0  0
    2.9330    0.3220    0.8460 N   0  0  0  0  0  0  0  0  0  0  0  0
    1.9450   -0.5190    1.0670 C   0  0  0  0  0  0  0  0  0  0  0  0
    0.6070   -0.1960    1.3050 N   0  0  0  0  0  0  0  0  0  0  0  0
    0.1160    1.1660    1.2650 C   0  0  0  0  0  0  0  0  0  0  0  0
   -0.4680    1.4850   -0.0880 C   0  0  1  0  0  0  0  0  0  0  0  0
    0.4170    1.3730   -1.2600 C   0  0  0  0  0  0  0  0  0  0  0  0
    0.1610   -0.0190   -1.7850 C   0  0  0  0  0  0  0  0  0  0  0  0
   -1.3080   -0.2100   -1.4930 C   0  0  0  0  0  0  0  0  0  0  0  0
   -1.6070    0.6360   -0.3920 N   0  0  0  0  0  0  0  0  0  0  0  0
   -2.9150    0.6360    0.2880 C   0  0  0  0  0  0  0  0  0  0  0  0
   -3.2750    1.2510    1.1470 O   0  0  0  0  0  0  0  0  0  0  0  0
   -3.8060   -0.4460   -0.4240 C   0  0  0  0  0  0  0  0  0  0  0  0
   -5.1620   -0.1220   -0.0800 N   0  0  0  0  0  0  0  0  0  0  0  0
   -5.7020   -0.6600    1.0400 C   0  0  0  0  0  0  0  0  0  0  0  0
   -7.0110   -0.3140    1.3930 C   0  0  0  0  0  0  0  0  0  0  0  0
   -7.7110    0.5450    0.6280 C   0  0  0  0  0  0  0  0  0  0  0  0
   -7.1700    1.0970   -0.5060 C   0  0  0  0  0  0  0  0  0  0  0  0
   -5.8670    0.7490   -0.8680 C   0  0  0  0  0  0  0  0  0  0  0  0
   -5.3650    1.2200   -1.9120 O   0  0  0  0  0  0  0  0  0  0  0  0
    2.3400   -1.8640    1.0760 C   0  0  0  0  0  0  0  0  0  0  0  0
    3.6620   -2.1700    0.8460 C   0  0  0  0  0  0  0  0  0  0  0  0
    4.0370   -3.6750    0.8400 C   0  0  0  0  0  0  0  0  0  0  0  0
    4.2670   -4.6720    0.8330 N   0  0  0  0  0  0  0  0  0  0  0  0
    4.6030   -1.2540    0.6030 C   0  0  0  0  0  0  0  0  0  0  0  0
    5.9310   -1.2410    0.3490 N   0  0  0  0  0  0  0  0  0  0  0  0
  1  2  1  0
  2  3  2  0
  2 29  1  0
  3  4  1  0
  4  5  2  0
  4 28  1  0
  5  6  1  0
  6  7  1  0
  6 24  2  0
  7  8  1  0
  9  8  1  1
  9 10  1  0
  9 13  1  0
 10 11  1  0
 11 12  1  0
 12 13  1  0
 13 14  1  0
 14 15  2  0
 14 16  1  0
 16 17  1  0
 17 18  1  0
 17 22  1  0
 18 19  2  0
 19 20  1  0
 20 21  2  0
 21 22  1  0
 22 23  2  0
 24 25  1  0
 25 26  1  0
 25 28  2  0
 26 27  3  0
 28 29  1  0
M  CHG  1   5   1
M  END
