
     RDKit          3D

 26 28  0  0  0  0  0  0  0  0999 V2000
    6.6200   -0.3020   -0.8270 C   0  0  0  0  0  0  0  0  0  0  0  0
    5.4660    0.6240   -0.6340 C   0  0  0  0  0  0  0  0  0  0  0  0
    4.6240    0.3140    0.5780 C   0  0  0  0  0  0  0  0  0  0  0  0
    4.0480   -1.0060    0.5550 N   0  0  0  0  0  0  0  0  0  0  0  0
    4.8120   -2.0750    1.1730 C   0  0  0  0  0  0  0  0  0  0  0  0
    2.7930   -1.2980   -0.0310 C   0  0  0  0  0  0  0  0  0  0  0  0
    2.3580   -2.4730    0.0170 O   0  0  0  0  0  0  0  0  0  0  0  0
    1.9560   -0.2840   -0.7030 C   0  0  0  0  0  0  0  0  0  0  0  0
    0.7040   -0.0330    0.0500 C   0  0  0  0  0  0  0  0  0  0  0  0
    0.2480   -0.5670    1.2130 C   0  0  0  0  0  0  0  0  0  0  0  0
   -0.9270   -0.0140    1.5310 N   0  0  0  0  0  0  0  0  0  0  0  0
   -1.2830    0.9190    0.5640 C   0  0  0  0  0  0  0  0  0  0  0  0
   -2.5160    1.6770    0.6140 C   0  0  0  0  0  0  0  0  0  0  0  0
   -3.7270    1.1660   -0.0830 C   0  0  1  0  0  0  0  0  0  0  0  0
   -3.6910    0.9690   -1.5370 C   0  0  0  0  0  0  0  0  0  0  0  0
   -3.4900   -0.4050   -2.0670 C   0  0  0  0  0  0  0  0  0  0  0  0
   -3.4470   -1.5300   -1.1150 C   0  0  0  0  0  0  0  0  0  0  0  0
   -4.1910   -1.3490    0.1480 C   0  0  0  0  0  0  0  0  0  0  0  0
   -4.7950   -2.2040    0.9710 C   0  0  0  0  0  0  0  0  0  0  0  0
   -5.3870   -1.4630    2.0970 C   0  0  0  0  0  0  0  0  0  0  0  0
   -5.0160   -0.0600    1.7900 C   0  0  0  0  0  0  0  0  0  0  0  0
   -4.3290    0.0060    0.6620 C   0  0  0  0  0  0  0  0  0  0  0  0
   -0.2700    0.9010   -0.3480 C   0  0  0  0  0  0  0  0  0  0  0  0
   -0.1110    1.7190   -1.5410 C   0  0  0  0  0  0  0  0  0  0  0  0
    0.5490    3.0700   -1.4580 C   0  0  0  0  0  0  0  0  0  0  0  0
   -0.4860    1.3930   -2.6890 O   0  0  0  0  0  0  0  0  0  0  0  0
  1  2  1  0
  2  3  1  0
  3  4  1  0
  4  5  1  0
  4  6  1  0
  6  7  2  0
  6  8  1  0
  8  9  1  0
  9 10  2  0
  9 23  1  0
 10 11  1  0
 11 12  1  0
 12 13  1  0
 12 23  2  0
 14 13  1  1
 14 15  1  0
 14 22  1  0
 15 16  1  0
 16 17  1  0
 17 18  1  0
 18 19  2  0
 18 22  1  0
 19 20  1  0
 20 21  1  0
 21 22  2  0
 23 24  1  0
 24 25  1  0
 24 26  2  0
M  END
