
     RDKit          3D

 26 29  0  0  0  0  0  0  0  0999 V2000
   -0.8490    0.3460   -2.0080 C   0  0  0  0  0  0  0  0  0  0  0  0
   -1.0020    0.5210   -0.5160 C   0  0  2  0  0  0  0  0  0  0  0  0
    0.2420    0.6010    0.1920 N   0  0  0  0  0  0  0  0  0  0  0  0
    1.5450    0.2570   -0.2330 C   0  0  0  0  0  0  0  0  0  0  0  0
    2.0430    0.5380   -1.4830 C   0  0  0  0  0  0  0  0  0  0  0  0
    3.3310    0.1100   -1.8170 C   0  0  0  0  0  0  0  0  0  0  0  0
    4.1410   -0.5880   -0.9550 C   0  0  0  0  0  0  0  0  0  0  0  0
    3.6200   -0.8560    0.2910 C   0  0  0  0  0  0  0  0  0  0  0  0
    2.3640   -0.4420    0.6310 C   0  0  0  0  0  0  0  0  0  0  0  0
    4.6240   -1.6260    1.1000 C   0  0  0  0  0  0  0  0  0  0  0  0
    5.8910   -1.5430    0.3110 C   0  0  0  0  0  0  0  0  0  0  0  0
    5.5150   -1.1480   -1.0850 C   0  0  0  0  0  0  0  0  0  0  0  0
   -1.7580   -0.6730   -0.0440 C   0  0  0  0  0  0  0  0  0  0  0  0
   -1.0230   -1.8190    0.1340 C   0  0  0  0  0  0  0  0  0  0  0  0
   -1.6290   -3.0010    0.5560 C   0  0  0  0  0  0  0  0  0  0  0  0
   -2.9890   -2.9980    0.7920 C   0  0  0  0  0  0  0  0  0  0  0  0
   -3.7060   -1.8520    0.6100 C   0  0  0  0  0  0  0  0  0  0  0  0
   -5.1700   -1.9040    0.8700 C   0  0  0  0  0  0  0  0  0  0  0  0
   -5.6070   -3.1580    0.3850 O   0  0  0  0  0  0  0  0  0  0  0  0
   -3.1040   -0.6980    0.1970 C   0  0  0  0  0  0  0  0  0  0  0  0
   -1.7090    1.7760   -0.3300 N   0  0  0  0  0  0  0  0  0  0  0  0
   -2.2370    2.0080    0.9740 C   0  0  0  0  0  0  0  0  0  0  0  0
   -1.6100    3.2200    1.6800 C   0  0  0  0  0  0  0  0  0  0  0  0
   -1.6730    4.3690    0.9130 O   0  0  0  0  0  0  0  0  0  0  0  0
   -1.3580    4.1800   -0.4160 C   0  0  0  0  0  0  0  0  0  0  0  0
   -0.6920    2.8250   -0.5390 C   0  0  0  0  0  0  0  0  0  0  0  0
  2  1  1  6
  2  3  1  0
  2 13  1  0
  2 21  1  0
  3  4  1  0
  4  5  2  0
  4  9  1  0
  5  6  1  0
  6  7  2  0
  7  8  1  0
  7 12  1  0
  8  9  2  0
  8 10  1  0
 10 11  1  0
 11 12  1  0
 13 14  2  0
 13 20  1  0
 14 15  1  0
 15 16  2  0
 16 17  1  0
 17 18  1  0
 17 20  2  0
 18 19  1  0
 21 22  1  0
 21 26  1  0
 22 23  1  0
 23 24  1  0
 24 25  1  0
 25 26  1  0
M  END
