
     RDKit          3D

 26 29  0  0  0  0  0  0  0  0999 V2000
   -3.5930    2.4880   -0.1820 O   0  0  0  0  0  0  0  0  0  0  0  0
   -4.2960    1.8530   -1.1880 C   0  0  0  0  0  0  0  0  0  0  0  0
   -3.5590    0.6090   -1.6350 C   0  0  0  0  0  0  0  0  0  0  0  0
   -3.3650   -0.3220   -0.5410 N   0  0  0  0  0  0  0  0  0  0  0  0
   -2.3680   -0.5090    0.3110 C   0  0  0  0  0  0  0  0  0  0  0  0
   -1.0390    0.1040    0.3930 C   0  0  0  0  0  0  0  0  0  0  0  0
   -0.5720    1.0050   -0.6470 C   0  0  0  0  0  0  0  0  0  0  0  0
    0.8570    1.4760   -0.2380 C   0  0  0  0  0  0  0  0  0  0  0  0
    1.8150    0.3450   -0.1130 C   0  0  1  0  0  0  0  0  0  0  0  0
    1.9010   -0.3210   -1.3520 O   0  0  0  0  0  0  0  0  0  0  0  0
    3.1620    0.9600    0.1720 C   0  0  0  0  0  0  0  0  0  0  0  0
    3.3490    2.3190    0.3060 C   0  0  0  0  0  0  0  0  0  0  0  0
    4.6260    2.8110    0.5710 C   0  0  0  0  0  0  0  0  0  0  0  0
    5.6590    1.9220    0.6890 C   0  0  0  0  0  0  0  0  0  0  0  0
    5.4800    0.5610    0.5560 C   0  0  0  0  0  0  0  0  0  0  0  0
    4.2160    0.0660    0.2940 C   0  0  0  0  0  0  0  0  0  0  0  0
    4.2890   -1.4320    0.1960 C   0  0  0  0  0  0  0  0  0  0  0  0
    5.7310   -1.6150   -0.2350 C   0  0  0  0  0  0  0  0  0  0  0  0
    6.4280   -0.5790    0.6410 C   0  0  0  0  0  0  0  0  0  0  0  0
   -2.7600   -1.5090    1.1890 N   0  0  0  0  0  0  0  0  0  0  0  0
   -3.9790   -1.9390    0.8890 C   0  0  0  0  0  0  0  0  0  0  0  0
   -4.8060   -2.9140    1.4570 C   0  0  0  0  0  0  0  0  0  0  0  0
   -6.0390   -3.1100    0.8830 C   0  0  0  0  0  0  0  0  0  0  0  0
   -6.4350   -2.3700   -0.2070 C   0  0  0  0  0  0  0  0  0  0  0  0
   -5.6260   -1.4200   -0.7590 C   0  0  0  0  0  0  0  0  0  0  0  0
   -4.3740   -1.2020   -0.1970 C   0  0  0  0  0  0  0  0  0  0  0  0
  1  2  1  0
  2  3  1  0
  3  4  1  0
  4  5  1  0
  4 26  1  0
  5  6  1  0
  5 20  2  0
  6  7  1  0
  7  8  1  0
  8  9  1  0
  9 10  1  6
  9 11  1  0
 11 12  2  0
 11 16  1  0
 12 13  1  0
 13 14  2  0
 14 15  1  0
 15 16  2  0
 15 19  1  0
 16 17  1  0
 17 18  1  0
 18 19  1  0
 20 21  1  0
 21 22  2  0
 21 26  1  0
 22 23  1  0
 23 24  2  0
 24 25  1  0
 25 26  2  0
M  END
