
     RDKit          3D

 26 29  0  0  0  0  0  0  0  0999 V2000
   -5.7480    3.1800    0.6500 C   0  0  0  0  0  0  0  0  0  0  0  0
   -5.4770    1.7860    0.1440 C   0  0  0  0  0  0  0  0  0  0  0  0
   -4.2820    1.2450    0.2790 C   0  0  0  0  0  0  0  0  0  0  0  0
   -3.2780    2.0150    0.9100 N   0  0  0  0  0  0  0  0  0  0  0  0
   -1.9940    1.4650    1.0710 C   0  0  0  0  0  0  0  0  0  0  0  0
   -1.6040    0.2290    0.6700 C   0  0  0  0  0  0  0  0  0  0  0  0
   -0.2690   -0.1170    0.9340 C   0  0  0  0  0  0  0  0  0  0  0  0
    0.4380   -1.0650    0.7890 O   0  0  0  0  0  0  0  0  0  0  0  0
    0.5950    0.9910    1.5960 C   0  0  0  0  0  0  0  0  0  0  0  0
    1.9150    0.6250    1.7480 O   0  0  0  0  0  0  0  0  0  0  0  0
    2.8520    0.3260    0.7880 C   0  0  0  0  0  0  0  0  0  0  0  0
    2.5410    0.3920   -0.5440 C   0  0  0  0  0  0  0  0  0  0  0  0
    3.4780    0.0890   -1.5350 C   0  0  0  0  0  0  0  0  0  0  0  0
    4.7710   -0.2910   -1.1540 C   0  0  0  0  0  0  0  0  0  0  0  0
    5.0880   -0.3580    0.1750 C   0  0  0  0  0  0  0  0  0  0  0  0
    4.1280   -0.0490    1.1530 C   0  0  0  0  0  0  0  0  0  0  0  0
    6.5030   -0.7860    0.2950 C   0  0  0  0  0  0  0  0  0  0  0  0
    7.0640   -0.4820   -1.0730 C   0  0  0  0  0  0  0  0  0  0  0  0
    5.9000   -0.6430   -1.9590 N   0  0  0  0  0  0  0  0  0  0  0  0
   -2.5930   -0.5940    0.0180 C   0  0  0  0  0  0  0  0  0  0  0  0
   -2.2800   -1.8580   -0.4340 C   0  0  0  0  0  0  0  0  0  0  0  0
   -0.9440   -2.4670   -0.3320 C   0  0  0  0  0  0  0  0  0  0  0  0
   -3.3210   -2.5610   -1.0570 C   0  0  0  0  0  0  0  0  0  0  0  0
   -4.5790   -2.0800   -1.2360 C   0  0  0  0  0  0  0  0  0  0  0  0
   -4.8700   -0.8320   -0.7860 C   0  0  0  0  0  0  0  0  0  0  0  0
   -3.8940   -0.0880   -0.1650 C   0  0  0  0  0  0  0  0  0  0  0  0
  1  2  1  0
  2  3  2  3
  3  4  1  0
  3 26  1  0
  4  5  1  0
  5  6  2  0
  6  7  1  0
  6 20  1  0
  7  8  2  0
  7  9  1  0
  9 10  1  0
 10 11  1  0
 11 12  2  0
 11 16  1  0
 12 13  1  0
 13 14  2  0
 14 15  1  0
 14 19  1  0
 15 16  2  0
 15 17  1  0
 17 18  1  0
 18 19  1  0
 20 21  2  0
 20 26  1  0
 21 22  1  0
 21 23  1  0
 23 24  2  0
 24 25  1  0
 25 26  2  0
M  END
