
     RDKit          3D

 25 28  0  0  0  0  0  0  0  0999 V2000
   -1.7130   -1.4950    0.1800 O   0  0  0  0  0  0  0  0  0  0  0  0
   -1.0020   -0.5990   -0.3740 C   0  0  0  0  0  0  0  0  0  0  0  0
   -1.5590    0.7470   -0.3940 C   0  0  0  0  0  0  0  0  0  0  0  0
   -2.7440    1.0120    0.1380 C   0  0  0  0  0  0  0  0  0  0  0  0
   -3.6240    0.0440    0.7920 C   0  0  0  0  0  0  0  0  0  0  0  0
   -4.7890    0.8680    1.2840 C   0  0  0  0  0  0  0  0  0  0  0  0
   -4.8870    1.9560    0.2450 C   0  0  0  0  0  0  0  0  0  0  0  0
   -3.4080    2.3680    0.1610 C   0  0  0  0  0  0  0  0  0  0  0  0
    0.2640   -0.8970   -0.9390 N   0  0  0  0  0  0  0  0  0  0  0  0
    1.0080    0.1480   -1.5740 C   0  0  0  0  0  0  0  0  0  0  0  0
    1.8540    0.9460   -0.6360 C   0  0  0  0  0  0  0  0  0  0  0  0
    1.6700    0.9220    0.7300 C   0  0  0  0  0  0  0  0  0  0  0  0
    2.4540    1.6590    1.5950 C   0  0  0  0  0  0  0  0  0  0  0  0
    3.4700    2.4610    1.1170 C   0  0  0  0  0  0  0  0  0  0  0  0
    4.3690    3.2700    1.7380 N   0  0  0  0  0  0  0  0  0  0  0  0
    5.1460    3.8290    0.7980 C   0  0  0  0  0  0  0  0  0  0  0  0
    4.7350    3.3700   -0.4360 C   0  0  0  0  0  0  0  0  0  0  0  0
    3.6730    2.5010   -0.2470 C   0  0  0  0  0  0  0  0  0  0  0  0
    2.8760    1.7550   -1.1010 C   0  0  0  0  0  0  0  0  0  0  0  0
    0.7460   -2.2690   -0.8480 C   0  0  1  0  0  0  0  0  0  0  0  0
    0.9380   -2.6000    0.6070 C   0  0  0  0  0  0  0  0  0  0  0  0
    1.4060   -3.9160    0.7710 O   0  0  0  0  0  0  0  0  0  0  0  0
   -0.2770   -3.1630   -1.5020 C   0  0  1  0  0  0  0  0  0  0  0  0
   -0.0430   -4.6490   -1.5550 C   0  0  0  0  0  0  0  0  0  0  0  0
   -1.0610   -4.0630   -0.6240 C   0  0  0  0  0  0  0  0  0  0  0  0
  1  2  2  0
  2  3  1  0
  2  9  1  0
  3  4  2  3
  4  5  1  0
  4  8  1  0
  5  6  1  0
  6  7  1  0
  7  8  1  0
  9 10  1  0
  9 20  1  0
 10 11  1  0
 11 12  2  0
 11 19  1  0
 12 13  1  0
 13 14  2  0
 14 15  1  0
 14 18  1  0
 15 16  1  0
 16 17  2  0
 17 18  1  0
 18 19  2  0
 20 21  1  1
 20 23  1  0
 21 22  1  0
 23 24  1  6
 23 25  1  0
 24 25  1  0
M  END
