
     RDKit          3D

  8  7  0  0  0  0  0  0  0  0999 V2000
    3.3220    0.5510    0.6070 N   0  0  0  0  0  0  0  0  0  0  0  0
    2.0910    0.8180    0.7870 C   0  0  0  0  0  0  0  0  0  0  0  0
    1.0590   -0.0190    0.2090 C   0  0  0  0  0  0  0  0  0  0  0  0
    1.3770   -1.1450   -0.5650 O   0  0  0  0  0  0  0  0  0  0  0  0
   -0.2280    0.2300    0.3760 C   0  0  0  0  0  0  0  0  0  0  0  0
   -1.2740   -0.6050   -0.2010 C   0  0  0  0  0  0  0  0  0  0  0  0
   -2.5370   -0.3300   -0.0150 C   0  0  0  0  0  0  0  0  0  0  0  0
   -2.8940    0.7650    0.7370 O   0  0  0  0  0  0  0  0  0  0  0  0
  1  2  2  0
  2  3  1  0
  3  4  1  0
  3  5  2  3
  5  6  1  0
  6  7  2  3
  7  8  1  0
M  END
