
     RDKit          3D

  8  8  0  0  0  0  0  0  0  0999 V2000
    2.3140   -0.4160   -0.4540 N   0  0  0  0  0  0  0  0  0  0  0  0
    1.1290   -0.4240    0.4210 C   0  0  1  0  0  0  0  0  0  0  0  0
    0.6610    0.9790    0.5290 C   0  0  0  0  0  0  0  0  0  0  0  0
   -0.6260    1.1480    0.9570 O   0  0  0  0  0  0  0  0  0  0  0  0
   -1.5770    1.1280   -0.0490 C   0  0  0  0  0  0  0  0  0  0  0  0
   -1.7280   -0.2510   -0.6610 C   0  0  0  0  0  0  0  0  0  0  0  0
   -1.0450   -1.2190    0.3180 C   0  0  0  0  0  0  0  0  0  0  0  0
    0.2540   -1.3260   -0.0860 O   0  0  0  0  0  0  0  0  0  0  0  0
  2  1  1  6
  2  3  1  0
  2  8  1  0
  3  4  1  0
  4  5  1  0
  5  6  1  0
  6  7  1  0
  7  8  1  0
M  CHG  1   1   1
M  END
