
     RDKit          3D

  8  8  0  0  0  0  0  0  0  0999 V2000
    1.6310   -0.4610    1.2240 O   0  0  0  0  0  0  0  0  0  0  0  0
    1.4530   -0.0310   -0.0770 C   0  0  1  0  0  0  0  0  0  0  0  0
    0.5080   -0.9820   -0.8150 C   0  0  0  0  0  0  0  0  0  0  0  0
   -0.5650   -1.3470    0.0660 N   0  0  0  0  0  0  0  0  0  0  0  0
   -1.6350   -0.3900   -0.0800 C   0  0  0  0  0  0  0  0  0  0  0  0
   -1.2110    1.0090    0.3140 C   0  0  0  0  0  0  0  0  0  0  0  0
   -0.3060    1.5580   -0.5470 O   0  0  0  0  0  0  0  0  0  0  0  0
    1.0150    1.3860   -0.2060 C   0  0  0  0  0  0  0  0  0  0  0  0
  2  1  1  1
  2  3  1  0
  2  8  1  0
  3  4  1  0
  4  5  1  0
  5  6  1  0
  6  7  1  0
  7  8  1  0
M  CHG  1   4   1
M  END
