
     RDKit          3D

  8  7  0  0  0  0  0  0  0  0999 V2000
    3.4220    0.4590    0.0980 N   0  0  0  0  0  0  0  0  0  0  0  0
    2.3440   -0.1650   -0.1830 C   0  0  0  0  0  0  0  0  0  0  0  0
    1.0300    0.4270   -0.0350 C   0  0  0  0  0  0  0  0  0  0  0  0
   -0.0720   -0.2390   -0.3330 C   0  0  0  0  0  0  0  0  0  0  0  0
   -0.0020   -1.5410   -0.8020 O   0  0  0  0  0  0  0  0  0  0  0  0
   -1.4260    0.3470   -0.1890 C   0  0  0  0  0  0  0  0  0  0  0  0
   -2.2820   -0.4460    0.7780 C   0  0  0  0  0  0  0  0  0  0  0  0
   -3.5390    0.1460    0.8750 O   0  0  0  0  0  0  0  0  0  0  0  0
  1  2  2  0
  2  3  1  0
  3  4  2  3
  4  5  1  0
  4  6  1  0
  6  7  1  0
  7  8  1  0
M  CHG  1   1   1
M  END
