
     RDKit          3D

  8  7  0  0  0  0  0  0  0  0999 V2000
    0.3160   -0.5760   -1.2100 N   0  0  0  0  0  0  0  0  0  0  0  0
    0.0920   -0.0330    0.0670 C   0  0  0  0  0  0  0  0  0  0  0  0
    1.2200    0.2350    0.9440 C   0  0  0  0  0  0  0  0  0  0  0  0
    2.4730   -0.0100    0.5980 C   0  0  0  0  0  0  0  0  0  0  0  0
    3.5380    0.2420    1.4240 O   0  0  0  0  0  0  0  0  0  0  0  0
   -1.1260    0.2290    0.4620 C   0  0  0  0  0  0  0  0  0  0  0  0
   -2.2640   -0.0460   -0.4360 C   0  0  0  0  0  0  0  0  0  0  0  0
   -2.9960    1.1030   -0.7310 O   0  0  0  0  0  0  0  0  0  0  0  0
  1  2  1  0
  2  3  1  0
  2  6  2  3
  3  4  2  3
  4  5  1  0
  6  7  1  0
  7  8  1  0
M  END
