
     RDKit          3D

  8  8  0  0  0  0  0  0  0  0999 V2000
    0.4240   -1.4180   -0.8510 N   0  0  0  0  0  0  0  0  0  0  0  0
    0.1290   -0.2060   -0.1300 C   0  0  2  0  0  0  0  0  0  0  0  0
    1.3250    0.6520   -0.0300 C   0  0  0  0  0  0  0  0  0  0  0  0
    1.1860    1.7440    0.5820 O   0  0  0  0  0  0  0  0  0  0  0  0
    2.5600    0.3530   -0.5480 O   0  0  0  0  0  0  0  0  0  0  0  0
   -0.5080   -0.3790    1.2200 C   0  0  0  0  0  0  0  0  0  0  0  0
   -1.4520    0.7740    0.8700 C   0  0  0  0  0  0  0  0  0  0  0  0
   -1.1260    0.4890   -0.5900 C   0  0  0  0  0  0  0  0  0  0  0  0
  2  1  1  6
  2  3  1  0
  2  6  1  0
  2  8  1  0
  3  4  2  0
  3  5  1  0
  6  7  1  0
  7  8  1  0
M  CHG  1   1   1
M  END
