
     RDKit          3D

 25 26  0  0  0  0  0  0  0  0999 V2000
    1.1850   -2.6880    0.1360 C   0  0  0  0  0  0  0  0  0  0  0  0
    1.7320   -1.8400   -0.7420 O   0  0  0  0  0  0  0  0  0  0  0  0
    1.6460   -0.5050   -0.5580 C   0  0  2  0  0  0  0  0  0  0  0  0
    0.8700    0.0950   -1.7040 C   0  0  0  0  0  0  0  0  0  0  0  0
   -0.5220   -0.4380   -1.8290 C   0  0  0  0  0  0  0  0  0  0  0  0
   -1.4010   -0.1900   -0.6790 C   0  0  0  0  0  0  0  0  0  0  0  0
   -1.0550    0.4610    0.3280 O   0  0  0  0  0  0  0  0  0  0  0  0
   -2.6770   -0.7090   -0.7220 O   0  0  0  0  0  0  0  0  0  0  0  0
   -3.6290   -0.5570    0.2930 C   0  0  2  0  0  0  0  0  0  0  0  0
   -3.1920   -1.1240    1.6090 C   0  0  0  0  0  0  0  0  0  0  0  0
   -4.8430   -1.3900   -0.1470 C   0  0  0  0  0  0  0  0  0  0  0  0
   -6.0060   -1.2380    0.7810 C   0  0  0  0  0  0  0  0  0  0  0  0
   -6.0950    0.0200    1.3650 O   0  0  0  0  0  0  0  0  0  0  0  0
   -5.6160    0.9510    0.4600 C   0  0  0  0  0  0  0  0  0  0  0  0
   -4.0960    0.8600    0.3380 C   0  0  2  0  0  0  0  0  0  0  0  0
   -3.7600    1.5040   -1.0070 C   0  0  0  0  0  0  0  0  0  0  0  0
   -3.4830    1.6850    1.4090 C   0  0  0  0  0  0  0  0  0  0  0  0
    2.9180    0.2590   -0.4470 C   0  0  2  0  0  0  0  0  0  0  0  0
    3.7610    0.2890   -1.6670 C   0  0  0  0  0  0  0  0  0  0  0  0
    5.1760    0.2600   -1.0740 C   0  0  0  0  0  0  0  0  0  0  0  0
    4.8780    0.6000    0.3720 C   0  0  2  0  0  0  0  0  0  0  0  0
    5.9910    0.1850    1.2960 C   0  0  0  0  0  0  0  0  0  0  0  0
    7.2620    0.9070    0.8860 C   0  0  0  0  0  0  0  0  0  0  0  0
    7.0800    2.2860    0.9680 O   0  0  0  0  0  0  0  0  0  0  0  0
    3.7240   -0.1450    0.6160 O   0  0  0  0  0  0  0  0  0  0  0  0
  1  2  1  0
  2  3  1  0
  3  4  1  6
  3 18  1  0
  4  5  1  0
  5  6  1  0
  6  7  2  0
  6  8  1  0
  8  9  1  0
  9 10  1  1
  9 11  1  0
  9 15  1  0
 11 12  1  0
 12 13  1  0
 13 14  1  0
 14 15  1  0
 15 16  1  6
 15 17  1  0
 18 19  1  6
 18 25  1  0
 19 20  1  0
 20 21  1  0
 21 22  1  1
 21 25  1  0
 22 23  1  0
 23 24  1  0
M  END
