
     RDKit          3D

 25 26  0  0  0  0  0  0  0  0999 V2000
   -2.9100   -3.9420   -1.5150 C   0  0  0  0  0  0  0  0  0  0  0  0
   -1.9950   -3.1180   -0.5950 C   0  0  2  0  0  0  0  0  0  0  0  0
   -2.3260   -3.5020    0.8000 C   0  0  0  0  0  0  0  0  0  0  0  0
   -1.7410   -2.5760    1.8320 C   0  0  0  0  0  0  0  0  0  0  0  0
   -1.9810   -1.1380    1.5550 C   0  0  0  0  0  0  0  0  0  0  0  0
   -2.0560   -0.6880    0.1600 C   0  0  1  0  0  0  0  0  0  0  0  0
   -3.1840    0.1660    0.0060 O   0  0  0  0  0  0  0  0  0  0  0  0
   -0.8560    0.2500   -0.0770 C   0  0  2  0  0  0  0  0  0  0  0  0
    0.4090   -0.4870    0.1410 C   0  0  0  0  0  0  0  0  0  0  0  0
    1.6550    0.3350   -0.0680 C   0  0  0  0  0  0  0  0  0  0  0  0
    2.7370   -0.5230    0.1770 O   0  0  0  0  0  0  0  0  0  0  0  0
    3.9560    0.1110    0.0180 C   0  0  1  0  0  0  0  0  0  0  0  0
    4.0750    1.2800    0.9780 C   0  0  0  0  0  0  0  0  0  0  0  0
    5.0330   -0.8850    0.3980 C   0  0  0  0  0  0  0  0  0  0  0  0
    4.2220    0.5580   -1.3940 C   0  0  0  0  0  0  0  0  0  0  0  0
   -0.9980    1.5310    0.6960 C   0  0  0  0  0  0  0  0  0  0  0  0
   -1.9800    2.3270   -0.1370 C   0  0  1  0  0  0  0  0  0  0  0  0
   -1.4120    3.6940   -0.4850 C   0  0  0  0  0  0  0  0  0  0  0  0
   -1.2690    4.4740    0.7060 O   0  0  0  0  0  0  0  0  0  0  0  0
   -0.7680    5.7660    0.6590 C   0  0  0  0  0  0  0  0  0  0  0  0
   -0.4390    6.2410   -0.4690 O   0  0  0  0  0  0  0  0  0  0  0  0
   -2.0820    1.6340   -1.3900 O   0  0  0  0  0  0  0  0  0  0  0  0
   -1.0110    0.7550   -1.4700 C   0  0  0  0  0  0  0  0  0  0  0  0
   -0.3820    0.5090   -2.5180 O   0  0  0  0  0  0  0  0  0  0  0  0
   -2.0410   -1.6810   -0.9280 C   0  0  0  0  0  0  0  0  0  0  0  0
  2  1  1  6
  2  3  1  0
  2 25  1  0
  3  4  1  0
  4  5  1  0
  5  6  1  0
  6  7  1  1
  6  8  1  0
  6 25  1  0
  8  9  1  6
  8 16  1  0
  8 23  1  0
  9 10  1  0
 10 11  1  0
 11 12  1  0
 12 13  1  1
 12 14  1  0
 12 15  1  0
 16 17  1  0
 17 18  1  6
 17 22  1  0
 18 19  1  0
 19 20  1  0
 20 21  2  0
 22 23  1  0
 23 24  2  0
M  END
