
     RDKit          3D

 25 26  0  0  0  0  0  0  0  0999 V2000
    6.7180    0.5700    1.9440 C   0  0  0  0  0  0  0  0  0  0  0  0
    5.4050    0.1700    1.6040 O   0  0  0  0  0  0  0  0  0  0  0  0
    4.9510    0.2540    0.2760 C   0  0  0  0  0  0  0  0  0  0  0  0
    5.8140    0.7060   -0.5080 O   0  0  0  0  0  0  0  0  0  0  0  0
    3.6030   -0.1650   -0.0450 C   0  0  0  0  0  0  0  0  0  0  0  0
    3.1130   -0.1150   -1.2490 C   0  0  0  0  0  0  0  0  0  0  0  0
    3.7800    0.3540   -2.4720 C   0  0  0  0  0  0  0  0  0  0  0  0
    5.0230    0.8050   -2.4910 O   0  0  0  0  0  0  0  0  0  0  0  0
    1.7150   -0.6140   -1.4880 C   0  0  0  0  0  0  0  0  0  0  0  0
    1.3320   -0.7220   -2.6690 O   0  0  0  0  0  0  0  0  0  0  0  0
    0.8130   -0.9670   -0.3950 C   0  0  2  0  0  0  0  0  0  0  0  0
   -0.3200    0.0520   -0.3130 C   0  0  0  0  0  0  0  0  0  0  0  0
   -1.2640   -0.3120    0.8050 C   0  0  0  0  0  0  0  0  0  0  0  0
   -2.3740    0.6970    0.8480 C   0  0  0  0  0  0  0  0  0  0  0  0
   -2.1250    1.8780    0.9730 O   0  0  0  0  0  0  0  0  0  0  0  0
   -3.7620    0.2120    0.7320 C   0  0  1  0  0  0  0  0  0  0  0  0
   -4.7680    1.3430    0.8130 C   0  0  0  0  0  0  0  0  0  0  0  0
   -6.0970    0.7850    0.3130 C   0  0  0  0  0  0  0  0  0  0  0  0
   -6.1640   -0.5850    0.4210 O   0  0  0  0  0  0  0  0  0  0  0  0
   -5.3180   -1.2470   -0.4590 C   0  0  0  0  0  0  0  0  0  0  0  0
   -3.9660   -0.5870   -0.5540 C   0  0  1  0  0  0  0  0  0  0  0  0
   -3.7790    0.2590   -1.7760 C   0  0  0  0  0  0  0  0  0  0  0  0
    1.5170   -0.9730    0.8900 C   0  0  0  0  0  0  0  0  0  0  0  0
    2.7660   -0.6200    1.0940 C   0  0  0  0  0  0  0  0  0  0  0  0
    3.3120   -0.6840    2.4920 C   0  0  0  0  0  0  0  0  0  0  0  0
  1  2  1  0
  2  3  1  0
  3  4  2  0
  3  5  1  0
  5  6  2  0
  5 24  1  0
  6  7  1  0
  6  9  1  0
  7  8  1  0
  9 10  2  0
  9 11  1  0
 11 12  1  1
 11 23  1  0
 12 13  1  0
 13 14  1  0
 14 15  2  0
 16 14  1  6
 16 17  1  0
 16 21  1  0
 17 18  1  0
 18 19  1  0
 19 20  1  0
 20 21  1  0
 21 22  1  6
 23 24  2  0
 24 25  1  0
M  END
