
     RDKit          3D

 25 26  0  0  0  0  0  0  0  0999 V2000
   -5.8060    2.1310   -2.9070 C   0  0  0  0  0  0  0  0  0  0  0  0
   -5.7970    0.9840   -2.0880 O   0  0  0  0  0  0  0  0  0  0  0  0
   -4.7140    0.7050   -1.2670 C   0  0  0  0  0  0  0  0  0  0  0  0
   -3.7520    1.5480   -1.3120 O   0  0  0  0  0  0  0  0  0  0  0  0
   -4.6770   -0.4820   -0.4040 C   0  0  0  0  0  0  0  0  0  0  0  0
   -3.3660   -0.5570    0.3930 C   0  0  2  0  0  0  0  0  0  0  0  0
   -3.3100    0.6980    1.2390 C   0  0  0  0  0  0  0  0  0  0  0  0
   -2.3760   -0.6120   -0.5530 O   0  0  0  0  0  0  0  0  0  0  0  0
   -1.5910   -1.7180   -0.6150 C   0  0  1  0  0  0  0  0  0  0  0  0
   -1.5630   -2.4460   -1.9120 C   0  0  0  0  0  0  0  0  0  0  0  0
   -0.2970   -1.9000   -2.6000 C   0  0  0  0  0  0  0  0  0  0  0  0
    0.6390   -1.8770   -1.4140 C   0  0  1  0  0  0  0  0  0  0  0  0
    1.8140   -1.0120   -1.8080 C   0  0  1  0  0  0  0  0  0  0  0  0
    1.3660    0.2540   -2.1020 O   0  0  0  0  0  0  0  0  0  0  0  0
    2.9170   -1.0230   -0.7820 C   0  0  0  0  0  0  0  0  0  0  0  0
    4.0380   -0.1310   -1.2750 C   0  0  0  0  0  0  0  0  0  0  0  0
    5.1970   -0.0830   -0.3090 C   0  0  0  0  0  0  0  0  0  0  0  0
    4.7750    0.4220    0.9590 C   0  0  0  0  0  0  0  0  0  0  0  0
    4.4180    0.8760    2.1030 C   0  0  0  0  0  0  0  0  0  0  0  0
    4.0480    1.3840    3.3610 C   0  0  0  0  0  0  0  0  0  0  0  0
    3.8950    2.6640    3.7240 C   0  0  0  0  0  0  0  0  0  0  0  0
    3.4970    2.7310    5.1440 C   0  0  0  0  0  0  0  0  0  0  0  0
    3.5320    1.4240    5.5540 O   0  0  0  0  0  0  0  0  0  0  0  0
    3.7550    0.6510    4.5200 O   0  0  0  0  0  0  0  0  0  0  0  0
   -0.1750   -1.3010   -0.3160 C   0  0  0  0  0  0  0  0  0  0  0  0
  1  2  1  0
  2  3  1  0
  3  4  2  0
  3  5  1  0
  5  6  1  0
  6  7  1  1
  6  8  1  0
  9  8  1  6
  9 10  1  0
  9 25  1  0
 10 11  1  0
 12 11  1  6
 12 13  1  0
 12 25  1  0
 13 14  1  1
 13 15  1  0
 15 16  1  0
 16 17  1  0
 17 18  1  0
 18 19  3  0
 19 20  1  0
 20 21  2  0
 20 24  1  0
 21 22  1  0
 22 23  1  0
 23 24  1  0
M  END
