
     RDKit          3D

 25 26  0  0  0  0  0  0  0  0999 V2000
   -6.3390   -0.8500   -0.6780 C   0  0  0  0  0  0  0  0  0  0  0  0
   -5.3500   -0.7500    0.4320 C   0  0  2  0  0  0  0  0  0  0  0  0
   -5.7200    0.3400    1.4280 C   0  0  0  0  0  0  0  0  0  0  0  0
   -3.9340   -0.4790   -0.0060 C   0  0  1  0  0  0  0  0  0  0  0  0
   -3.3850   -1.5530   -0.9150 C   0  0  0  0  0  0  0  0  0  0  0  0
   -2.4110   -0.7580   -1.7560 C   0  0  1  0  0  0  0  0  0  0  0  0
   -3.2820    0.4120   -2.1540 C   0  0  0  0  0  0  0  0  0  0  0  0
   -3.7800    0.8020   -0.7530 C   0  0  2  0  0  0  0  0  0  0  0  0
   -2.6280    1.5730   -0.1540 C   0  0  0  0  0  0  0  0  0  0  0  0
   -1.3710    0.7920   -0.0350 C   0  0  2  0  0  0  0  0  0  0  0  0
   -1.2300    0.3940    1.2960 O   0  0  0  0  0  0  0  0  0  0  0  0
   -0.2250    1.7840   -0.2570 C   0  0  0  0  0  0  0  0  0  0  0  0
    1.0940    1.0720   -0.1420 C   0  0  0  0  0  0  0  0  0  0  0  0
    1.0730   -0.1370    0.1290 O   0  0  0  0  0  0  0  0  0  0  0  0
    2.2920    1.6790   -0.3160 O   0  0  0  0  0  0  0  0  0  0  0  0
    3.5840    1.2530   -0.2540 C   0  0  0  0  0  0  0  0  0  0  0  0
    4.1770    0.7840    1.0170 C   0  0  1  0  0  0  0  0  0  0  0  0
    3.5450   -0.4050    1.6700 C   0  0  0  0  0  0  0  0  0  0  0  0
    5.5890    0.4010    0.7230 C   0  0  0  0  0  0  0  0  0  0  0  0
    6.5190    0.9700    1.3050 O   0  0  0  0  0  0  0  0  0  0  0  0
    5.8190   -0.5900   -0.2040 O   0  0  0  0  0  0  0  0  0  0  0  0
    7.0860   -1.0530   -0.5780 C   0  0  0  0  0  0  0  0  0  0  0  0
    7.8230   -1.6200    0.5890 C   0  0  0  0  0  0  0  0  0  0  0  0
    7.0740   -2.6810    1.0940 O   0  0  0  0  0  0  0  0  0  0  0  0
   -1.2390   -0.3890   -0.9160 C   0  0  0  0  0  0  0  0  0  0  0  0
  2  1  1  6
  2  3  1  0
  2  4  1  0
  4  5  1  6
  4  8  1  0
  6  5  1  1
  6  7  1  0
  6 25  1  0
  7  8  1  0
  8  9  1  1
  9 10  1  0
 10 11  1  1
 10 12  1  0
 10 25  1  0
 12 13  1  0
 13 14  2  0
 13 15  1  0
 15 16  1  0
 16 17  1  0
 17 18  1  6
 17 19  1  0
 19 20  2  0
 19 21  1  0
 21 22  1  0
 22 23  1  0
 23 24  1  0
M  END
