
     RDKit          3D

 25 26  0  0  0  0  0  0  0  0999 V2000
   -1.0380    1.8440    2.1120 C   0  0  0  0  0  0  0  0  0  0  0  0
   -0.2930    0.9370    1.1340 C   0  0  1  0  0  0  0  0  0  0  0  0
    0.9800    0.4230    1.7370 C   0  0  0  0  0  0  0  0  0  0  0  0
    1.8390    1.6180    2.0750 C   0  0  0  0  0  0  0  0  0  0  0  0
    3.1540    1.2540    2.6890 C   0  0  0  0  0  0  0  0  0  0  0  0
    3.9760    0.4720    1.9210 O   0  0  0  0  0  0  0  0  0  0  0  0
    4.3600    1.0430    0.7230 C   0  0  1  0  0  0  0  0  0  0  0  0
    5.8690    1.1640    0.6130 C   0  0  0  0  0  0  0  0  0  0  0  0
    6.2810    0.1830   -0.4610 C   0  0  0  0  0  0  0  0  0  0  0  0
    5.0700    0.1560   -1.3680 C   0  0  0  0  0  0  0  0  0  0  0  0
    3.8820    0.2760   -0.4700 C   0  0  0  0  0  0  0  0  0  0  0  0
   -1.1500   -0.1650    0.8940 O   0  0  0  0  0  0  0  0  0  0  0  0
   -1.6370   -0.3920   -0.3860 C   0  0  0  0  0  0  0  0  0  0  0  0
   -1.2850    0.4100   -1.2810 O   0  0  0  0  0  0  0  0  0  0  0  0
   -2.5450   -1.5510   -0.6670 C   0  0  1  0  0  0  0  0  0  0  0  0
   -1.8020   -2.8010   -0.3170 C   0  0  0  0  0  0  0  0  0  0  0  0
   -3.7840   -1.3670    0.1600 C   0  0  0  0  0  0  0  0  0  0  0  0
   -4.5980   -0.2040   -0.3160 C   0  0  1  0  0  0  0  0  0  0  0  0
   -4.9180    0.7520    0.8140 C   0  0  0  0  0  0  0  0  0  0  0  0
   -4.0160    0.5230   -1.3510 O   0  0  0  0  0  0  0  0  0  0  0  0
   -3.2910   -0.0680   -2.3980 C   0  0  0  0  0  0  0  0  0  0  0  0
   -2.9830    0.5280   -3.4430 O   0  0  0  0  0  0  0  0  0  0  0  0
   -2.9150   -1.5020   -2.1430 C   0  0  2  0  0  0  0  0  0  0  0  0
   -4.1230   -2.3380   -2.4570 C   0  0  0  0  0  0  0  0  0  0  0  0
   -1.8650   -1.8960   -2.9510 O   0  0  0  0  0  0  0  0  0  0  0  0
  2  1  1  1
  2  3  1  0
  2 12  1  0
  3  4  1  0
  4  5  1  0
  5  6  1  0
  7  6  1  1
  7  8  1  0
  7 11  1  0
  8  9  1  0
  9 10  1  0
 10 11  1  0
 12 13  1  0
 13 14  2  0
 13 15  1  0
 15 16  1  1
 15 17  1  0
 15 23  1  0
 17 18  1  0
 18 19  1  1
 18 20  1  0
 20 21  1  0
 21 22  2  0
 21 23  1  0
 23 24  1  1
 23 25  1  0
M  END
