
     RDKit          3D

 11 11  0  0  0  0  0  0  0  0999 V2000
   -1.2160    1.1720    1.9920 O   0  0  0  0  0  0  0  0  0  0  0  0
   -1.7430    0.5800    0.8420 C   0  0  0  0  0  0  0  0  0  0  0  0
   -0.6060    0.1570   -0.0970 C   0  0  1  0  0  0  0  0  0  0  0  0
   -1.3030   -0.4730   -1.3110 C   0  0  0  0  0  0  0  0  0  0  0  0
   -2.0400   -1.5580   -0.8210 O   0  0  0  0  0  0  0  0  0  0  0  0
    0.1980    1.3200   -0.5220 C   0  0  0  0  0  0  0  0  0  0  0  0
    1.6450    1.1770   -0.6510 C   0  0  0  0  0  0  0  0  0  0  0  0
    2.2800   -0.0450   -0.0780 C   0  0  0  0  0  0  0  0  0  0  0  0
    1.4300   -1.2690   -0.1120 C   0  0  0  0  0  0  0  0  0  0  0  0
    0.1340   -0.9400    0.5820 C   0  0  1  0  0  0  0  0  0  0  0  0
    0.3850   -0.6870    1.9260 O   0  0  0  0  0  0  0  0  0  0  0  0
  1  2  1  0
  3  2  1  1
  3  4  1  0
  3  6  1  0
  3 10  1  0
  4  5  1  0
  6  7  1  0
  7  8  1  0
  8  9  1  0
  9 10  1  0
 10 11  1  1
M  END
