
     RDKit          3D

 12 12  0  0  0  0  0  0  0  0999 V2000
   -1.0640   -1.9180    0.5430 C   0  0  0  0  0  0  0  0  0  0  0  0
   -1.3270   -0.4720    0.3570 C   0  0  1  0  0  0  0  0  0  0  0  0
   -2.4610   -0.3490   -0.4640 O   0  0  0  0  0  0  0  0  0  0  0  0
   -1.7360    0.0170    1.6100 O   0  0  0  0  0  0  0  0  0  0  0  0
   -0.1830    0.3610   -0.1040 C   0  0  2  0  0  0  0  0  0  0  0  0
   -0.6780    1.8170   -0.2280 C   0  0  0  0  0  0  0  0  0  0  0  0
    0.4430    2.5400   -0.6630 O   0  0  0  0  0  0  0  0  0  0  0  0
    0.4460   -0.0070   -1.3830 C   0  0  0  0  0  0  0  0  0  0  0  0
    1.7430   -0.7460   -1.3230 C   0  0  0  0  0  0  0  0  0  0  0  0
    2.5750   -0.3910   -0.2910 O   0  0  0  0  0  0  0  0  0  0  0  0
    1.9090   -0.5890    0.9390 C   0  0  0  0  0  0  0  0  0  0  0  0
    0.8420    0.4470    1.0080 C   0  0  0  0  0  0  0  0  0  0  0  0
  2  1  1  1
  2  3  1  0
  2  4  1  0
  2  5  1  0
  5  6  1  6
  5  8  1  0
  5 12  1  0
  6  7  1  0
  8  9  1  0
  9 10  1  0
 10 11  1  0
 11 12  1  0
M  END
