
     RDKit          3D

 12 12  0  0  0  0  0  0  0  0999 V2000
    4.2310   -0.8730   -0.6260 O   0  0  0  0  0  0  0  0  0  0  0  0
    3.3510    0.2000   -0.5060 C   0  0  0  0  0  0  0  0  0  0  0  0
    1.9270   -0.2830   -0.3540 C   0  0  0  0  0  0  0  0  0  0  0  0
    1.0100    0.7600   -0.2300 O   0  0  0  0  0  0  0  0  0  0  0  0
   -0.3310    0.4350   -0.0840 C   0  0  0  0  0  0  0  0  0  0  0  0
   -0.7820   -0.8720   -0.0580 C   0  0  0  0  0  0  0  0  0  0  0  0
   -2.1240   -1.1590    0.0880 C   0  0  0  0  0  0  0  0  0  0  0  0
   -2.5830   -2.4710    0.1140 O   0  0  0  0  0  0  0  0  0  0  0  0
   -3.0200   -0.1060    0.2100 C   0  0  0  0  0  0  0  0  0  0  0  0
   -2.5760    1.1990    0.1850 C   0  0  0  0  0  0  0  0  0  0  0  0
   -1.2360    1.4950    0.0390 C   0  0  0  0  0  0  0  0  0  0  0  0
   -0.7630    2.8010    0.0110 O   0  0  0  0  0  0  0  0  0  0  0  0
  1  2  1  0
  2  3  1  0
  3  4  1  0
  4  5  1  0
  5  6  2  0
  5 11  1  0
  6  7  1  0
  7  8  1  0
  7  9  2  0
  9 10  1  0
 10 11  2  0
 11 12  1  0
M  END
