
     RDKit          3D

 12 12  0  0  0  0  0  0  0  0999 V2000
    3.0520    0.6170    1.8070 O   0  0  0  0  0  0  0  0  0  0  0  0
    3.3270   -0.3880    0.8510 C   0  0  0  0  0  0  0  0  0  0  0  0
    2.4690   -0.0970   -0.3590 C   0  0  0  0  0  0  0  0  0  0  0  0
    1.1120   -0.1100   -0.0480 O   0  0  0  0  0  0  0  0  0  0  0  0
    0.4250    0.1670   -1.2250 C   0  0  0  0  0  0  0  0  0  0  0  0
   -1.0850    0.1790   -0.9980 C   0  0  1  0  0  0  0  0  0  0  0  0
   -1.6280    0.4710   -2.2750 O   0  0  0  0  0  0  0  0  0  0  0  0
   -1.6060   -1.1650   -0.6040 C   0  0  0  0  0  0  0  0  0  0  0  0
   -1.8780   -1.3040    0.8690 C   0  0  0  0  0  0  0  0  0  0  0  0
   -2.7450   -0.2760    1.2310 O   0  0  0  0  0  0  0  0  0  0  0  0
   -2.0450    0.8990    1.2130 C   0  0  0  0  0  0  0  0  0  0  0  0
   -1.4700    1.2910   -0.0920 C   0  0  0  0  0  0  0  0  0  0  0  0
  1  2  1  0
  2  3  1  0
  3  4  1  0
  4  5  1  0
  5  6  1  0
  6  7  1  6
  6  8  1  0
  6 12  1  0
  8  9  1  0
  9 10  1  0
 10 11  1  0
 11 12  1  0
M  END
