
     RDKit          3D

 12 12  0  0  0  0  0  0  0  0999 V2000
    0.3860    1.7460   -0.9430 O   0  0  0  0  0  0  0  0  0  0  0  0
    0.2150    0.7270   -0.2410 C   0  0  0  0  0  0  0  0  0  0  0  0
    1.3350    0.0130    0.1660 O   0  0  0  0  0  0  0  0  0  0  0  0
    2.6000    0.4790   -0.2360 C   0  0  0  0  0  0  0  0  0  0  0  0
    3.6460   -0.4690    0.3340 C   0  0  0  0  0  0  0  0  0  0  0  0
    3.3470   -1.7380   -0.2110 O   0  0  0  0  0  0  0  0  0  0  0  0
   -1.1390    0.3290    0.1220 C   0  0  0  0  0  0  0  0  0  0  0  0
   -2.1490    1.0510   -0.2980 C   0  0  0  0  0  0  0  0  0  0  0  0
   -3.5290    0.6930    0.0410 C   0  0  0  0  0  0  0  0  0  0  0  0
   -3.5980   -0.4510    0.8220 O   0  0  0  0  0  0  0  0  0  0  0  0
   -2.5640   -1.2110    1.2650 C   0  0  0  0  0  0  0  0  0  0  0  0
   -1.3160   -0.8620    0.9430 C   0  0  0  0  0  0  0  0  0  0  0  0
  1  2  2  0
  2  3  1  0
  2  7  1  0
  3  4  1  0
  4  5  1  0
  5  6  1  0
  7  8  2  0
  7 12  1  0
  8  9  1  0
  9 10  1  0
 10 11  1  0
 11 12  2  0
M  END
