
     RDKit          3D

 24 25  0  0  0  0  0  0  0  0999 V2000
    5.0620    2.3210    0.2920 O   0  0  0  0  0  0  0  0  0  0  0  0
    3.8580    2.1460    0.6100 C   0  0  0  0  0  0  0  0  0  0  0  0
    3.0950    3.1380    1.1600 O   0  0  0  0  0  0  0  0  0  0  0  0
    3.2690    0.8280    0.3780 C   0  0  0  0  0  0  0  0  0  0  0  0
    3.9840   -0.1670   -0.1570 C   0  0  0  0  0  0  0  0  0  0  0  0
    3.3170   -1.4870   -0.3660 C   0  0  2  0  0  0  0  0  0  0  0  0
    4.0550   -2.2230   -1.2630 O   0  0  0  0  0  0  0  0  0  0  0  0
    1.9300   -1.2340   -0.9510 C   0  0  2  0  0  0  0  0  0  0  0  0
    2.0780   -0.6460   -2.1950 O   0  0  0  0  0  0  0  0  0  0  0  0
    1.1590   -0.3860    0.0180 C   0  0  2  0  0  0  0  0  0  0  0  0
    0.1000    0.2780   -0.5490 O   0  0  0  0  0  0  0  0  0  0  0  0
   -1.1430   -0.0830   -0.0060 C   0  0  2  0  0  0  0  0  0  0  0  0
   -2.0670   -0.6080   -1.0150 C   0  0  1  0  0  0  0  0  0  0  0  0
   -2.2260   -2.0940   -0.7910 C   0  0  0  0  0  0  0  0  0  0  0  0
   -1.2040   -2.8070   -0.6290 O   0  0  0  0  0  0  0  0  0  0  0  0
   -3.4520   -2.7070   -0.7570 O   0  0  0  0  0  0  0  0  0  0  0  0
   -3.2890   -0.0840   -1.1580 O   0  0  0  0  0  0  0  0  0  0  0  0
   -3.7230    0.9050   -0.3650 C   0  0  2  0  0  0  0  0  0  0  0  0
   -3.4220    2.1970   -0.8540 O   0  0  0  0  0  0  0  0  0  0  0  0
   -3.1220    0.8400    1.0230 C   0  0  1  0  0  0  0  0  0  0  0  0
   -3.2790   -0.4790    1.4630 O   0  0  0  0  0  0  0  0  0  0  0  0
   -1.6320    1.1170    0.7710 C   0  0  1  0  0  0  0  0  0  0  0  0
   -1.0340    1.2230    2.0140 O   0  0  0  0  0  0  0  0  0  0  0  0
    1.9550    0.5540    0.7000 O   0  0  0  0  0  0  0  0  0  0  0  0
  1  2  2  0
  2  3  1  0
  2  4  1  0
  4  5  2  0
  4 24  1  0
  5  6  1  0
  6  7  1  6
  6  8  1  0
  8  9  1  6
  8 10  1  0
 10 11  1  6
 10 24  1  0
 12 11  1  6
 12 13  1  0
 12 22  1  0
 13 14  1  1
 13 17  1  0
 14 15  2  0
 14 16  1  0
 17 18  1  0
 18 19  1  6
 18 20  1  0
 20 21  1  6
 20 22  1  0
 22 23  1  1
M  END
