
     RDKit          3D

 11 11  0  0  0  0  0  0  0  0999 V2000
    2.1370   -0.1280    2.1130 O   0  0  0  0  0  0  0  0  0  0  0  0
    2.4730   -0.1150    0.7910 C   0  0  0  0  0  0  0  0  0  0  0  0
    1.3900   -0.3920   -0.1930 C   0  0  2  0  0  0  0  0  0  0  0  0
    2.0570   -0.3260   -1.4560 O   0  0  0  0  0  0  0  0  0  0  0  0
    0.2100    0.5320   -0.1880 C   0  0  2  0  0  0  0  0  0  0  0  0
    0.7190    1.8230   -0.3950 O   0  0  0  0  0  0  0  0  0  0  0  0
   -0.5950    0.5750    1.0460 C   0  0  0  0  0  0  0  0  0  0  0  0
   -1.6450   -0.5110    1.1530 C   0  0  0  0  0  0  0  0  0  0  0  0
   -2.5990   -0.2310   -0.0190 C   0  0  0  0  0  0  0  0  0  0  0  0
   -1.7850   -0.6240   -1.2220 C   0  0  0  0  0  0  0  0  0  0  0  0
   -0.5750    0.2310   -1.4450 C   0  0  0  0  0  0  0  0  0  0  0  0
  1  2  1  0
  2  3  1  0
  3  4  1  6
  3  5  1  0
  5  6  1  6
  5  7  1  0
  5 11  1  0
  7  8  1  0
  8  9  1  0
  9 10  1  0
 10 11  1  0
M  END
