
     RDKit          3D

 34 40  0  0  0  0  0  0  0  0999 V2000
   -5.8570   -2.1020   -2.6930 N   0  0  0  0  0  0  0  0  0  0  0  0
   -5.6360   -2.3920   -1.3210 C   0  0  0  0  0  0  0  0  0  0  0  0
   -6.3790   -3.2920   -0.7870 N   0  0  0  0  0  0  0  0  0  0  0  0
   -4.6030   -1.6900   -0.5490 C   0  0  0  0  0  0  0  0  0  0  0  0
   -4.3410   -1.9240    0.7760 C   0  0  0  0  0  0  0  0  0  0  0  0
   -3.3560   -1.2340    1.4560 C   0  0  0  0  0  0  0  0  0  0  0  0
   -2.5720   -0.2680    0.8540 C   0  0  0  0  0  0  0  0  0  0  0  0
   -1.5150    0.4620    1.6040 C   0  0  1  0  0  0  0  0  0  0  0  0
   -0.1260   -0.0300    1.3150 C   0  0  1  0  0  0  0  0  0  0  0  0
    0.0490   -0.5440   -0.0410 C   0  0  0  0  0  0  0  0  0  0  0  0
   -0.5300   -1.5370   -0.5340 O   0  0  0  0  0  0  0  0  0  0  0  0
    0.9920    0.2790   -0.7040 N   0  0  0  0  0  0  0  0  0  0  0  0
    1.3390    0.1700   -2.0960 C   0  0  0  0  0  0  0  0  0  0  0  0
    2.4590   -0.7980   -2.3340 C   0  0  0  0  0  0  0  0  0  0  0  0
    3.0650   -0.8680   -3.5650 C   0  0  0  0  0  0  0  0  0  0  0  0
    4.0950   -1.7400   -3.8440 C   0  0  0  0  0  0  0  0  0  0  0  0
    4.5600   -2.5940   -2.8600 C   0  0  0  0  0  0  0  0  0  0  0  0
    3.9580   -2.5300   -1.6230 C   0  0  0  0  0  0  0  0  0  0  0  0
    2.9120   -1.6400   -1.3510 C   0  0  0  0  0  0  0  0  0  0  0  0
    4.6080   -3.4790   -0.8360 O   0  0  0  0  0  0  0  0  0  0  0  0
    5.8030   -3.8980   -1.4590 C   0  0  0  0  0  0  0  0  0  0  0  0
    5.5530   -3.5600   -2.8260 O   0  0  0  0  0  0  0  0  0  0  0  0
    1.5480    1.2480    0.2130 C   0  0  2  0  0  0  0  0  0  0  0  0
    3.0230    1.1250    0.3770 C   0  0  1  0  0  0  0  0  0  0  0  0
    3.7210    2.0610    1.3250 C   0  0  0  0  0  0  0  0  0  0  0  0
    3.6950    0.5700    1.5600 C   0  0  0  0  0  0  0  0  0  0  0  0
    0.7530    1.1640    1.4750 C   0  0  1  0  0  0  0  0  0  0  0  0
   -0.1790    2.3530    1.5250 C   0  0  2  0  0  0  0  0  0  0  0  0
   -0.0640    3.1300    2.7920 C   0  0  0  0  0  0  0  0  0  0  0  0
   -1.4570    3.3800    3.2620 C   0  0  0  0  0  0  0  0  0  0  0  0
   -2.3370    2.5550    2.3890 C   0  0  0  0  0  0  0  0  0  0  0  0
   -1.5200    1.8810    1.4030 N   0  0  2  0  0  0  0  0  0  0  0  0
   -2.8340   -0.0310   -0.4790 C   0  0  0  0  0  0  0  0  0  0  0  0
   -3.8170   -0.7170   -1.1650 C   0  0  0  0  0  0  0  0  0  0  0  0
  1  2  1  0
  2  3  2  0
  2  4  1  0
  4  5  2  0
  4 34  1  0
  5  6  1  0
  6  7  2  0
  8  7  1  6
  7 33  1  0
  8  9  1  0
  8 32  1  0
  9 10  1  6
  9 27  1  0
 10 11  2  0
 10 12  1  0
 12 13  1  0
 23 12  1  6
 13 14  1  0
 14 15  2  0
 14 19  1  0
 15 16  1  0
 16 17  2  0
 17 18  1  0
 17 22  1  0
 18 19  2  0
 18 20  1  0
 20 21  1  0
 21 22  1  0
 23 24  1  0
 27 23  1  6
 24 25  1  1
 24 26  1  0
 25 26  1  0
 27 28  1  0
 28 29  1  1
 28 32  1  0
 29 30  1  0
 30 31  1  0
 32 31  1  1
 33 34  2  0
M  CHG  2   3   1  32   1
M  END
