
     RDKit          3D

 38 41  0  0  0  0  0  0  0  0999 V2000
    0.1160    5.3160    4.3270 C   0  0  0  0  0  0  0  0  0  0  0  0
   -0.7170    4.2480    3.9430 O   0  0  0  0  0  0  0  0  0  0  0  0
   -0.5050    3.6280    2.7310 C   0  0  0  0  0  0  0  0  0  0  0  0
    0.4180    4.0210    1.9940 O   0  0  0  0  0  0  0  0  0  0  0  0
   -1.3680    2.5130    2.3210 C   0  0  0  0  0  0  0  0  0  0  0  0
   -0.9400    2.0410    1.0200 N   0  0  0  0  0  0  0  0  0  0  0  0
   -1.6570    0.9490    0.4370 C   0  0  0  0  0  0  0  0  0  0  0  0
   -2.6350    0.4670    1.0970 O   0  0  0  0  0  0  0  0  0  0  0  0
   -1.2680    0.4170   -0.8560 C   0  0  0  0  0  0  0  0  0  0  0  0
   -1.8820   -0.5610   -1.4890 C   0  0  0  0  0  0  0  0  0  0  0  0
   -3.0390   -1.2440   -0.9930 C   0  0  0  0  0  0  0  0  0  0  0  0
   -4.2050   -0.5570   -0.7500 C   0  0  0  0  0  0  0  0  0  0  0  0
   -5.3450   -1.1600   -0.2540 C   0  0  0  0  0  0  0  0  0  0  0  0
   -5.3340   -2.5080    0.0150 C   0  0  0  0  0  0  0  0  0  0  0  0
   -4.1870   -3.2300   -0.2160 C   0  0  0  0  0  0  0  0  0  0  0  0
   -3.0560   -2.6010   -0.7140 C   0  0  0  0  0  0  0  0  0  0  0  0
   -4.4900   -4.6400    0.1620 C   0  0  0  0  0  0  0  0  0  0  0  0
   -5.6590   -4.5060    1.1040 C   0  0  0  0  0  0  0  0  0  0  0  0
   -6.3570   -3.3560    0.5270 N   0  0  0  0  0  0  0  0  0  0  0  0
   -0.0240    1.0110   -1.4850 C   0  0  1  0  0  0  0  0  0  0  0  0
    1.0950    0.5900   -0.6630 N   0  0  0  0  0  0  0  0  0  0  0  0
    2.2040    1.3670   -0.2950 C   0  0  0  0  0  0  0  0  0  0  0  0
    2.2710    2.5360   -0.6940 O   0  0  0  0  0  0  0  0  0  0  0  0
    3.3040    0.7880    0.5770 C   0  0  1  0  0  0  0  0  0  0  0  0
    4.3580    1.8570    0.8010 C   0  0  0  0  0  0  0  0  0  0  0  0
    3.6700    2.9180    1.4410 O   0  0  0  0  0  0  0  0  0  0  0  0
    2.7070    0.3360    1.8770 C   0  0  0  0  0  0  0  0  0  0  0  0
    2.4870   -1.0060    1.8040 O   0  0  0  0  0  0  0  0  0  0  0  0
    3.2860   -1.5470    0.8440 C   0  0  0  0  0  0  0  0  0  0  0  0
    3.8420   -0.4640   -0.0330 C   0  0  2  0  0  0  0  0  0  0  0  0
    5.6470   -0.5280    0.0900 S   0  0  0  0  0  0  0  0  0  0  0  0
    6.2060   -0.7190    1.7960 C   0  0  0  0  0  0  0  0  0  0  0  0
    0.1660    0.4630   -2.8670 C   0  0  0  0  0  0  0  0  0  0  0  0
   -0.1250    1.1400   -4.0170 C   0  0  0  0  0  0  0  0  0  0  0  0
    0.1950    0.2880   -5.0790 C   0  0  0  0  0  0  0  0  0  0  0  0
    0.6650   -0.8610   -4.4870 C   0  0  0  0  0  0  0  0  0  0  0  0
    1.1220   -2.0420   -5.2740 C   0  0  0  0  0  0  0  0  0  0  0  0
    0.6240   -0.6990   -3.1820 O   0  0  0  0  0  0  0  0  0  0  0  0
  1  2  1  0
  2  3  1  0
  3  4  2  0
  3  5  1  0
  5  6  1  0
  6  7  1  0
  7  8  2  0
  7  9  1  0
  9 10  2  3
  9 20  1  0
 10 11  1  0
 11 12  2  0
 11 16  1  0
 12 13  1  0
 13 14  2  0
 14 15  1  0
 14 19  1  0
 15 16  2  0
 15 17  1  0
 17 18  1  0
 18 19  1  0
 20 21  1  1
 20 33  1  0
 21 22  1  0
 22 23  2  0
 22 24  1  0
 24 25  1  1
 24 27  1  0
 24 30  1  0
 25 26  1  0
 27 28  1  0
 28 29  1  0
 29 30  1  0
 30 31  1  1
 31 32  1  0
 33 34  2  0
 33 38  1  0
 34 35  1  0
 35 36  2  0
 36 37  1  0
 36 38  1  0
M  END
