
     RDKit          3D

 38 41  0  0  0  0  0  0  0  0999 V2000
   -4.5440   -2.5420    2.2200 C   0  0  0  0  0  0  0  0  0  0  0  0
   -5.9510   -2.5760    1.7410 C   0  0  0  0  0  0  0  0  0  0  0  0
   -6.2300   -3.2980    0.4870 C   0  0  0  0  0  0  0  0  0  0  0  0
   -5.6010   -2.8520   -0.7660 C   0  0  2  0  0  0  0  0  0  0  0  0
   -4.1260   -2.8720   -0.8050 C   0  0  0  0  0  0  0  0  0  0  0  0
   -3.3810   -3.8510   -0.9370 O   0  0  0  0  0  0  0  0  0  0  0  0
   -3.7040   -1.4970   -0.6550 C   0  0  0  0  0  0  0  0  0  0  0  0
   -2.3440   -1.0360   -0.2990 C   0  0  0  0  0  0  0  0  0  0  0  0
   -2.0830    0.1880   -0.1930 O   0  0  0  0  0  0  0  0  0  0  0  0
   -1.3390   -1.9670   -0.0770 O   0  0  0  0  0  0  0  0  0  0  0  0
   -0.0140   -1.6290    0.2660 C   0  0  0  0  0  0  0  0  0  0  0  0
    0.5600   -0.8030   -0.8140 C   0  0  0  0  0  0  0  0  0  0  0  0
   -0.1420   -0.5330   -1.8150 O   0  0  0  0  0  0  0  0  0  0  0  0
    1.8920   -0.3160   -0.7290 C   0  0  0  0  0  0  0  0  0  0  0  0
    2.7140    0.4240   -1.4730 C   0  0  0  0  0  0  0  0  0  0  0  0
    3.9670    0.7070   -1.0770 C   0  0  0  0  0  0  0  0  0  0  0  0
    4.4090    0.2330    0.1000 C   0  0  0  0  0  0  0  0  0  0  0  0
    5.6220    0.3170    0.8250 N   0  0  0  0  0  0  0  0  0  0  0  0
    6.7790    1.0190    0.3950 C   0  0  0  0  0  0  0  0  0  0  0  0
    6.7060    1.5990   -0.7070 O   0  0  0  0  0  0  0  0  0  0  0  0
    7.9670    1.0720    1.1590 N   0  0  0  0  0  0  0  0  0  0  0  0
    9.1190    1.7900    0.6810 C   0  0  0  0  0  0  0  0  0  0  0  0
    9.5960    1.1810   -0.6050 C   0  0  2  0  0  0  0  0  0  0  0  0
   10.0950   -0.2130   -0.2870 C   0  0  0  0  0  0  0  0  0  0  0  0
   11.5310   -0.1650   -0.7540 C   0  0  0  0  0  0  0  0  0  0  0  0
   11.5110    0.9960   -1.7250 C   0  0  0  0  0  0  0  0  0  0  0  0
   10.7160    1.9100   -1.0210 O   0  0  0  0  0  0  0  0  0  0  0  0
    2.9950   -0.6820    0.7310 S   0  0  0  0  0  0  0  0  0  0  0  0
   -4.7080   -0.6850   -0.8850 C   0  0  0  0  0  0  0  0  0  0  0  0
   -4.8390    0.7470   -0.8710 N   0  0  0  0  0  0  0  0  0  0  0  0
   -6.0880    1.3090   -0.4230 C   0  0  1  0  0  0  0  0  0  0  0  0
   -6.1780    2.7860   -0.7180 C   0  0  2  0  0  0  0  0  0  0  0  0
   -5.0340    3.4640    0.0070 C   0  0  0  0  0  0  0  0  0  0  0  0
   -7.4680    3.3040   -0.0930 C   0  0  0  0  0  0  0  0  0  0  0  0
   -7.3070    0.5980   -0.9340 C   0  0  0  0  0  0  0  0  0  0  0  0
   -7.1640   -0.8790   -0.8900 C   0  0  0  0  0  0  0  0  0  0  0  0
   -8.1050   -1.5600   -0.5560 O   0  0  0  0  0  0  0  0  0  0  0  0
   -5.8900   -1.4820   -1.2540 C   0  0  2  0  0  0  0  0  0  0  0  0
  1  2  1  0
  2  3  1  0
  4  3  1  1
  4  5  1  0
  4 38  1  0
  5  6  2  0
  5  7  1  0
  7  8  1  0
  7 29  2  0
  8  9  2  0
  8 10  1  0
 10 11  1  0
 11 12  1  0
 12 13  2  0
 12 14  1  0
 14 15  2  0
 14 28  1  0
 15 16  1  0
 16 17  2  0
 17 18  1  0
 17 28  1  0
 18 19  1  0
 19 20  2  0
 19 21  1  0
 21 22  1  0
 23 22  1  1
 23 24  1  0
 23 27  1  0
 24 25  1  0
 25 26  1  0
 26 27  1  0
 29 30  1  0
 29 38  1  0
 30 31  1  0
 31 32  1  0
 31 35  1  6
 32 33  1  1
 32 34  1  0
 35 36  1  0
 36 37  2  0
 38 36  1  1
M  END
