
     RDKit          3D

 38 41  0  0  0  0  0  0  0  0999 V2000
    3.5390    3.1410   -1.0810 C   0  0  0  0  0  0  0  0  0  0  0  0
    3.7540    1.7180   -1.3220 C   0  0  0  0  0  0  0  0  0  0  0  0
    4.7670    1.2890   -2.1050 O   0  0  0  0  0  0  0  0  0  0  0  0
    2.9100    0.7980   -0.7420 C   0  0  0  0  0  0  0  0  0  0  0  0
    1.8960    1.3490    0.0470 C   0  0  0  0  0  0  0  0  0  0  0  0
    0.8300    0.9460    0.7130 C   0  0  0  0  0  0  0  0  0  0  0  0
    0.0750    1.9730    1.4530 C   0  0  0  0  0  0  0  0  0  0  0  0
    0.4590    3.1940    1.3860 O   0  0  0  0  0  0  0  0  0  0  0  0
   -1.0330    1.6990    2.2340 N   0  0  0  0  0  0  0  0  0  0  0  0
   -1.7760    2.7400    2.9520 C   0  0  0  0  0  0  0  0  0  0  0  0
   -2.3530    3.7570    2.0730 C   0  0  0  0  0  0  0  0  0  0  0  0
   -2.8850    4.8470    2.6540 N   0  0  0  0  0  0  0  0  0  0  0  0
   -3.4480    5.8550    1.9900 C   0  0  0  0  0  0  0  0  0  0  0  0
   -3.9450    6.8740    2.5330 O   0  0  0  0  0  0  0  0  0  0  0  0
   -3.5000    5.7970    0.6140 C   0  0  0  0  0  0  0  0  0  0  0  0
   -2.9600    4.6870    0.0010 C   0  0  0  0  0  0  0  0  0  0  0  0
   -2.3980    3.6920    0.7410 N   0  0  0  0  0  0  0  0  0  0  0  0
    0.3560   -0.4200    0.5940 C   0  0  2  0  0  0  0  0  0  0  0  0
    0.6660   -0.6700   -0.8540 O   0  0  0  0  0  0  0  0  0  0  0  0
   -1.1470   -0.5930    0.5230 C   0  0  0  0  0  0  0  0  0  0  0  0
   -2.0960    0.0140   -0.2540 C   0  0  0  0  0  0  0  0  0  0  0  0
   -3.3550   -0.3860   -0.1470 C   0  0  0  0  0  0  0  0  0  0  0  0
   -3.6350   -1.4120    0.7620 C   0  0  0  0  0  0  0  0  0  0  0  0
   -2.1270   -1.7870    1.4400 S   0  0  0  0  0  0  0  0  0  0  0  0
   -5.0640   -1.8930    0.9090 C   0  0  0  0  0  0  0  0  0  0  0  0
   -5.5160   -2.2210   -0.4990 C   0  0  0  0  0  0  0  0  0  0  0  0
   -5.3430   -1.0870   -1.4510 C   0  0  2  0  0  0  0  0  0  0  0  0
   -4.6720   -1.5660   -2.7280 C   0  0  0  0  0  0  0  0  0  0  0  0
   -4.6060    0.0870   -0.8630 C   0  0  0  0  0  0  0  0  0  0  0  0
    3.3730   -0.5570   -0.9710 C   0  0  0  0  0  0  0  0  0  0  0  0
    4.4350   -0.7340   -1.7250 O   0  0  0  0  0  0  0  0  0  0  0  0
    2.9040   -1.7620   -0.5230 O   0  0  0  0  0  0  0  0  0  0  0  0
    3.4250   -3.0180   -0.7880 C   0  0  0  0  0  0  0  0  0  0  0  0
    4.8420   -3.2060   -0.3230 C   0  0  2  0  0  0  0  0  0  0  0  0
    5.3080   -4.6390   -0.4830 C   0  0  0  0  0  0  0  0  0  0  0  0
    6.5410   -4.6370    0.3990 C   0  0  0  0  0  0  0  0  0  0  0  0
    6.2710   -3.4610    1.3010 C   0  0  0  0  0  0  0  0  0  0  0  0
    4.9810   -3.0300    1.0510 O   0  0  0  0  0  0  0  0  0  0  0  0
  1  2  1  0
  2  3  1  0
  2  4  2  3
  4  5  1  0
  4 30  1  0
  5  6  2  3
  6  7  1  0
  6 18  1  0
  7  8  2  0
  7  9  1  0
  9 10  1  0
 10 11  1  0
 11 12  2  0
 11 17  1  0
 12 13  1  0
 13 14  2  0
 13 15  1  0
 15 16  2  0
 16 17  1  0
 18 19  1  6
 18 20  1  0
 20 21  2  0
 20 24  1  0
 21 22  1  0
 22 23  2  0
 22 29  1  0
 23 24  1  0
 23 25  1  0
 25 26  1  0
 26 27  1  0
 27 28  1  6
 27 29  1  0
 30 31  2  0
 30 32  1  0
 32 33  1  0
 34 33  1  1
 34 35  1  0
 34 38  1  0
 35 36  1  0
 36 37  1  0
 37 38  1  0
M  END
