
     RDKit          3D

 38 41  0  0  0  0  0  0  0  0999 V2000
   -7.8080    2.5180   -2.1750 C   0  0  0  0  0  0  0  0  0  0  0  0
   -8.5760    1.9360   -1.1260 O   0  0  0  0  0  0  0  0  0  0  0  0
   -7.9950    1.3180   -0.0480 C   0  0  0  0  0  0  0  0  0  0  0  0
   -6.6030    1.2170    0.0960 C   0  0  0  0  0  0  0  0  0  0  0  0
   -6.0380    0.6000    1.1740 C   0  0  0  0  0  0  0  0  0  0  0  0
   -4.6080    0.4900    1.3380 C   0  0  0  0  0  0  0  0  0  0  0  0
   -4.0960   -0.1680    2.2990 O   0  0  0  0  0  0  0  0  0  0  0  0
   -3.7100    1.1180    0.4250 N   0  0  0  0  0  0  0  0  0  0  0  0
   -2.2760    1.0080    0.5820 C   0  0  0  0  0  0  0  0  0  0  0  0
   -1.7790   -0.4230    0.5190 C   0  0  2  0  0  0  0  0  0  0  0  0
   -0.2570   -0.3340    0.6740 C   0  0  0  0  0  0  0  0  0  0  0  0
    0.3810   -1.5910    0.2480 N   0  0  0  0  0  0  0  0  0  0  0  0
    1.4290   -2.1670    1.0280 C   0  0  0  0  0  0  0  0  0  0  0  0
    1.9870   -3.2370    0.6820 O   0  0  0  0  0  0  0  0  0  0  0  0
    1.8450   -1.4650    2.2700 C   0  0  2  0  0  0  0  0  0  0  0  0
    2.4880   -0.1280    2.0190 C   0  0  0  0  0  0  0  0  0  0  0  0
    3.9370   -0.4090    2.3100 C   0  0  2  0  0  0  0  0  0  0  0  0
    4.8730    0.3540    1.4980 C   0  0  0  0  0  0  0  0  0  0  0  0
    4.5370    1.5190    0.8640 C   0  0  0  0  0  0  0  0  0  0  0  0
    5.4520    2.2060    0.1010 C   0  0  0  0  0  0  0  0  0  0  0  0
    6.7540    1.7670   -0.0680 C   0  0  0  0  0  0  0  0  0  0  0  0
    7.7000    2.5390   -0.8930 C   0  0  0  0  0  0  0  0  0  0  0  0
    7.6890    2.0560   -2.6350 S   0  0  0  0  0  0  0  0  0  0  0  0
    8.9110    3.1300   -3.4810 C   0  0  0  0  0  0  0  0  0  0  0  0
    7.0890    0.5920    0.5730 C   0  0  0  0  0  0  0  0  0  0  0  0
    6.1670   -0.1130    1.3490 C   0  0  0  0  0  0  0  0  0  0  0  0
    3.9870   -1.8460    2.1160 N   0  0  0  0  0  0  0  0  0  0  0  0
    2.8850   -2.2100    2.8540 O   0  0  0  0  0  0  0  0  0  0  0  0
   -0.1350   -2.1500   -0.9770 C   0  0  1  0  0  0  0  0  0  0  0  0
    0.4640   -3.4620   -1.3660 C   0  0  0  0  0  0  0  0  0  0  0  0
   -0.1220   -3.9930   -2.6630 C   0  0  0  0  0  0  0  0  0  0  0  0
    0.0880   -3.1290   -3.7100 O   0  0  0  0  0  0  0  0  0  0  0  0
   -1.6500   -2.2700   -0.7640 C   0  0  0  0  0  0  0  0  0  0  0  0
   -2.1200   -0.9550   -0.7200 O   0  0  0  0  0  0  0  0  0  0  0  0
   -6.8710    0.0690    2.1350 C   0  0  0  0  0  0  0  0  0  0  0  0
   -8.2600    0.1580    2.0120 C   0  0  0  0  0  0  0  0  0  0  0  0
   -8.8030    0.7820    0.9210 C   0  0  0  0  0  0  0  0  0  0  0  0
  -10.2050    0.8730    0.7960 O   0  0  0  0  0  0  0  0  0  0  0  0
  1  2  1  0
  2  3  1  0
  3  4  2  0
  3 37  1  0
  4  5  1  0
  5  6  1  0
  5 35  2  0
  6  7  2  0
  6  8  1  0
  8  9  1  0
 10  9  1  6
 10 11  1  0
 10 34  1  0
 11 12  1  0
 12 13  1  0
 12 29  1  0
 13 14  2  0
 15 13  1  6
 15 16  1  0
 15 28  1  0
 16 17  1  0
 17 18  1  6
 17 27  1  0
 18 19  2  0
 18 26  1  0
 19 20  1  0
 20 21  2  0
 21 22  1  0
 21 25  1  0
 22 23  1  0
 23 24  1  0
 25 26  2  0
 27 28  1  0
 29 30  1  1
 29 33  1  0
 30 31  1  0
 31 32  1  0
 33 34  1  0
 35 36  1  0
 36 37  2  0
 37 38  1  0
M  END
