
     RDKit          3D

 38 41  0  0  0  0  0  0  0  0999 V2000
   -2.9750   -6.6070    0.5740 C   0  0  0  0  0  0  0  0  0  0  0  0
   -2.9970   -5.2490    0.2280 O   0  0  0  0  0  0  0  0  0  0  0  0
   -1.8680   -4.4670    0.0330 C   0  0  0  0  0  0  0  0  0  0  0  0
   -0.5820   -4.9220    0.1540 C   0  0  0  0  0  0  0  0  0  0  0  0
    0.5330   -4.1230   -0.0460 C   0  0  0  0  0  0  0  0  0  0  0  0
    0.3210   -2.8070   -0.3830 C   0  0  0  0  0  0  0  0  0  0  0  0
   -0.9720   -2.3070   -0.5140 C   0  0  0  0  0  0  0  0  0  0  0  0
   -2.0660   -3.1410   -0.3060 C   0  0  0  0  0  0  0  0  0  0  0  0
   -1.2930   -0.9140   -0.8350 C   0  0  1  0  0  0  0  0  0  0  0  0
   -2.0580   -0.3230    0.3370 C   0  0  1  0  0  0  0  0  0  0  0  0
   -1.2910   -0.3670    1.5070 O   0  0  0  0  0  0  0  0  0  0  0  0
   -2.5190    1.0110    0.0640 N   0  0  0  0  0  0  0  0  0  0  0  0
   -3.9110    1.2710    0.0480 C   0  0  0  0  0  0  0  0  0  0  0  0
   -4.7340    0.3480    0.2670 O   0  0  0  0  0  0  0  0  0  0  0  0
   -4.4650    2.5540   -0.2110 N   0  0  0  0  0  0  0  0  0  0  0  0
   -5.8640    2.8230   -0.2300 C   0  0  2  0  0  0  0  0  0  0  0  0
   -6.3410    3.2850   -1.5940 C   0  0  0  0  0  0  0  0  0  0  0  0
   -6.3290    3.8270    0.7790 C   0  0  0  0  0  0  0  0  0  0  0  0
   -6.0470    3.4130    2.0950 O   0  0  0  0  0  0  0  0  0  0  0  0
   -0.1540   -0.0990   -1.2660 C   0  0  0  0  0  0  0  0  0  0  0  0
    1.2010   -0.6440   -1.0310 C   0  0  0  0  0  0  0  0  0  0  0  0
    2.2580    0.2500   -1.2620 C   0  0  0  0  0  0  0  0  0  0  0  0
    1.9360    1.6100   -1.6630 C   0  0  0  0  0  0  0  0  0  0  0  0
    1.7250    2.7140   -0.7030 C   0  0  0  0  0  0  0  0  0  0  0  0
    1.8340    1.8520   -2.8920 O   0  0  0  0  0  0  0  0  0  0  0  0
    3.5370   -0.2080   -1.0950 C   0  0  0  0  0  0  0  0  0  0  0  0
    4.6810    0.7300   -1.3640 C   0  0  0  0  0  0  0  0  0  0  0  0
    6.2870    0.0190   -1.0520 S   0  0  0  0  0  0  0  0  0  0  0  0
    6.5300   -0.1910    0.7270 C   0  0  0  0  0  0  0  0  0  0  0  0
    6.6070    1.1750    1.3300 C   0  0  0  0  0  0  0  0  0  0  0  0
    5.5740    1.9430    1.8190 C   0  0  0  0  0  0  0  0  0  0  0  0
    6.1330    3.1160    2.2680 C   0  0  0  0  0  0  0  0  0  0  0  0
    7.4120    3.0710    2.0700 O   0  0  0  0  0  0  0  0  0  0  0  0
    7.7520    1.9190    1.5050 C   0  0  0  0  0  0  0  0  0  0  0  0
    3.7470   -1.5010   -0.7150 C   0  0  0  0  0  0  0  0  0  0  0  0
    2.6790   -2.3790   -0.4880 C   0  0  0  0  0  0  0  0  0  0  0  0
    2.9320   -3.5440   -0.1430 O   0  0  0  0  0  0  0  0  0  0  0  0
    1.4220   -1.9380   -0.6490 N   0  0  0  0  0  0  0  0  0  0  0  0
  1  2  1  0
  2  3  1  0
  3  4  2  0
  3  8  1  0
  4  5  1  0
  5  6  2  0
  6  7  1  0
  6 38  1  0
  7  8  2  0
  7  9  1  0
  9 10  1  0
  9 20  1  1
 10 11  1  1
 10 12  1  0
 12 13  1  0
 13 14  2  0
 13 15  1  0
 15 16  1  0
 16 17  1  6
 16 18  1  0
 18 19  1  0
 20 21  1  0
 21 22  2  0
 21 38  1  0
 22 23  1  0
 22 26  1  0
 23 24  1  0
 23 25  2  0
 26 27  1  0
 26 35  2  0
 27 28  1  0
 28 29  1  0
 29 30  1  0
 30 31  1  0
 30 34  2  0
 31 32  2  0
 32 33  1  0
 33 34  1  0
 35 36  1  0
 36 37  2  0
 36 38  1  0
M  END
