
     RDKit          3D

 38 41  0  0  0  0  0  0  0  0999 V2000
   11.0930   -1.5720   -2.0890 C   0  0  0  0  0  0  0  0  0  0  0  0
    9.7760   -1.1170   -1.9530 O   0  0  0  0  0  0  0  0  0  0  0  0
    9.4180   -0.3210   -0.8950 C   0  0  0  0  0  0  0  0  0  0  0  0
   10.2860   -0.0030   -0.0440 O   0  0  0  0  0  0  0  0  0  0  0  0
    8.0390    0.1720   -0.7270 C   0  0  0  0  0  0  0  0  0  0  0  0
    7.8850    0.9890    0.4510 N   0  0  0  0  0  0  0  0  0  0  0  0
    6.6280    1.5480    0.7720 C   0  0  0  0  0  0  0  0  0  0  0  0
    6.4860    2.3270    1.8950 C   0  0  0  0  0  0  0  0  0  0  0  0
    5.2780    2.8930    2.2480 C   0  0  0  0  0  0  0  0  0  0  0  0
    4.1560    2.6850    1.4630 C   0  0  0  0  0  0  0  0  0  0  0  0
    4.2590    1.9080    0.3290 C   0  0  0  0  0  0  0  0  0  0  0  0
    3.1430    1.6520   -0.5260 N   0  0  0  0  0  0  0  0  0  0  0  0
    1.5810    1.2150    0.0770 S   0  0  1  0  0  0  0  0  0  0  0  0
    1.1000    2.3170    1.0170 O   0  0  0  0  0  0  0  0  0  0  0  0
    0.6200    1.2000   -1.0520 O   0  0  0  0  0  0  0  0  0  0  0  0
    1.7520   -0.3010    0.9470 C   0  0  0  0  0  0  0  0  0  0  0  0
    0.4470   -0.7690    1.5150 C   0  0  0  0  0  0  0  0  0  0  0  0
   -0.5190   -1.0830    0.4690 C   0  0  0  0  0  0  0  0  0  0  0  0
   -0.1830   -1.1310   -0.7290 O   0  0  0  0  0  0  0  0  0  0  0  0
   -1.9100   -1.3560    0.7480 N   0  0  0  0  0  0  0  0  0  0  0  0
   -2.8180   -1.6590   -0.3110 C   0  0  1  0  0  0  0  0  0  0  0  0
   -3.6240   -2.8990   -0.0520 C   0  0  0  0  0  0  0  0  0  0  0  0
   -3.3820   -4.0710    0.6320 C   0  0  0  0  0  0  0  0  0  0  0  0
   -4.3290   -5.0830    0.7190 C   0  0  0  0  0  0  0  0  0  0  0  0
   -5.5600   -4.9420    0.1120 C   0  0  0  0  0  0  0  0  0  0  0  0
   -5.7940   -3.7630   -0.5720 C   0  0  0  0  0  0  0  0  0  0  0  0
   -4.8560   -2.7600   -0.6580 C   0  0  0  0  0  0  0  0  0  0  0  0
   -4.8890   -1.4360   -1.3270 C   0  0  2  0  0  0  0  0  0  0  0  0
   -4.2000   -1.5430   -2.5470 O   0  0  0  0  0  0  0  0  0  0  0  0
   -3.9780   -0.6350   -0.3890 C   0  0  2  0  0  0  0  0  0  0  0  0
   -3.5250    0.6360   -0.9850 C   0  0  0  0  0  0  0  0  0  0  0  0
   -4.5580    1.6760   -1.1090 C   0  0  0  0  0  0  0  0  0  0  0  0
   -5.2170    2.2030    0.1120 C   0  0  1  0  0  0  0  0  0  0  0  0
   -6.2000    3.2900   -0.3830 C   0  0  0  0  0  0  0  0  0  0  0  0
   -7.5310    2.6380   -0.1340 C   0  0  0  0  0  0  0  0  0  0  0  0
   -7.2950    2.0770    1.1440 O   0  0  0  0  0  0  0  0  0  0  0  0
   -6.1320    1.2960    0.8510 C   0  0  0  0  0  0  0  0  0  0  0  0
    5.4990    1.3490   -0.0020 C   0  0  0  0  0  0  0  0  0  0  0  0
  1  2  1  0
  2  3  1  0
  3  4  2  0
  3  5  1  0
  5  6  1  0
  6  7  1  0
  7  8  2  0
  7 38  1  0
  8  9  1  0
  9 10  2  0
 10 11  1  0
 11 12  1  0
 11 38  2  0
 12 13  1  0
 13 14  2  0
 13 15  2  0
 13 16  1  1
 16 17  1  0
 17 18  1  0
 18 19  2  0
 18 20  1  0
 21 20  1  1
 21 22  1  0
 21 30  1  0
 22 23  2  0
 22 27  1  0
 23 24  1  0
 24 25  2  0
 25 26  1  0
 26 27  2  0
 27 28  1  0
 28 29  1  6
 28 30  1  0
 30 31  1  6
 31 32  1  0
 33 32  1  6
 33 34  1  0
 33 37  1  0
 34 35  1  0
 35 36  1  0
 36 37  1  0
M  END
