
     RDKit          3D

 38 41  0  0  0  0  0  0  0  0999 V2000
   -4.2740    2.5860    1.1680 C   0  0  0  0  0  0  0  0  0  0  0  0
   -4.7180    1.5500    2.1240 C   0  0  0  0  0  0  0  0  0  0  0  0
   -4.5650    0.1080    1.7820 C   0  0  0  0  0  0  0  0  0  0  0  0
   -5.1890   -0.2610    0.4690 C   0  0  2  0  0  0  0  0  0  0  0  0
   -4.2370    0.5240   -0.8700 S   0  0  0  0  0  0  0  0  0  0  0  0
   -2.8980   -0.5510   -1.3860 C   0  0  0  0  0  0  0  0  0  0  0  0
   -1.6420   -0.6630   -0.9270 C   0  0  0  0  0  0  0  0  0  0  0  0
   -0.8990    0.0470    0.1220 C   0  0  0  0  0  0  0  0  0  0  0  0
   -1.3320    1.0510    0.6790 O   0  0  0  0  0  0  0  0  0  0  0  0
    0.3710   -0.4020    0.5470 N   0  0  0  0  0  0  0  0  0  0  0  0
    1.1740    0.2660    1.5940 C   0  0  2  0  0  0  0  0  0  0  0  0
    2.5560    0.4470    1.0940 C   0  0  0  0  0  0  0  0  0  0  0  0
    3.6070   -0.2140    1.5360 C   0  0  0  0  0  0  0  0  0  0  0  0
    4.9110    0.0450    0.9630 C   0  0  1  0  0  0  0  0  0  0  0  0
    5.6710   -1.1180    0.4390 C   0  0  0  0  0  0  0  0  0  0  0  0
    6.2360   -0.9870   -0.9260 C   0  0  0  0  0  0  0  0  0  0  0  0
    6.6850    0.2190   -1.3360 O   0  0  0  0  0  0  0  0  0  0  0  0
    6.1630    1.3390   -0.7710 C   0  0  2  0  0  0  0  0  0  0  0  0
    5.8930    2.3310   -1.8870 C   0  0  0  0  0  0  0  0  0  0  0  0
    7.1300    2.0320    0.1850 C   0  0  0  0  0  0  0  0  0  0  0  0
    6.5010    3.1500    0.7060 O   0  0  0  0  0  0  0  0  0  0  0  0
    4.8210    1.0980   -0.0960 C   0  0  0  0  0  0  0  0  0  0  0  0
    3.4860   -1.1690    2.6420 C   0  0  0  0  0  0  0  0  0  0  0  0
    4.5080   -1.7480    2.9920 O   0  0  0  0  0  0  0  0  0  0  0  0
    2.2140   -1.3550    3.2230 N   0  0  0  0  0  0  0  0  0  0  0  0
    1.1280   -0.6350    2.7390 C   0  0  0  0  0  0  0  0  0  0  0  0
    0.0000   -0.7680    3.3390 O   0  0  0  0  0  0  0  0  0  0  0  0
   -1.0590   -1.6600   -1.6920 N   0  0  0  0  0  0  0  0  0  0  0  0
   -1.9310   -2.1340   -2.5840 C   0  0  0  0  0  0  0  0  0  0  0  0
   -1.8770   -3.1140   -3.5770 C   0  0  0  0  0  0  0  0  0  0  0  0
   -2.9480   -3.4090   -4.3750 C   0  0  0  0  0  0  0  0  0  0  0  0
   -4.1430   -2.7370   -4.2270 C   0  0  0  0  0  0  0  0  0  0  0  0
   -4.2070   -1.7620   -3.2450 C   0  0  0  0  0  0  0  0  0  0  0  0
   -3.1210   -1.4750   -2.4470 C   0  0  0  0  0  0  0  0  0  0  0  0
   -6.6040    0.2050    0.3820 C   0  0  0  0  0  0  0  0  0  0  0  0
   -6.9340    1.0280   -0.5360 O   0  0  0  0  0  0  0  0  0  0  0  0
   -7.6110   -0.1940    1.2340 O   0  0  0  0  0  0  0  0  0  0  0  0
   -8.9500    0.2860    1.1000 C   0  0  0  0  0  0  0  0  0  0  0  0
  1  2  1  0
  2  3  1  0
  4  3  1  1
  4  5  1  0
  4 35  1  0
  5  6  1  0
  6  7  2  0
  6 34  1  0
  7  8  1  0
  7 28  1  0
  8  9  2  0
  8 10  1  0
 11 10  1  6
 11 12  1  0
 11 26  1  0
 12 13  2  0
 14 13  1  6
 13 23  1  0
 14 15  1  0
 14 22  1  0
 15 16  1  0
 16 17  1  0
 17 18  1  0
 18 19  1  6
 18 20  1  0
 18 22  1  0
 20 21  1  0
 23 24  2  0
 23 25  1  0
 25 26  1  0
 26 27  2  0
 28 29  1  0
 29 30  2  0
 29 34  1  0
 30 31  1  0
 31 32  2  0
 32 33  1  0
 33 34  2  0
 35 36  2  0
 35 37  1  0
 37 38  1  0
M  END
