
     RDKit          3D

 38 41  0  0  0  0  0  0  0  0999 V2000
   -6.5240   -0.9100   -3.3660 C   0  0  0  0  0  0  0  0  0  0  0  0
   -5.4530   -1.2570   -2.3320 C   0  0  0  0  0  0  0  0  0  0  0  0
   -6.0330   -0.9200   -0.9960 C   0  0  0  0  0  0  0  0  0  0  0  0
   -6.5490   -1.9430   -0.1980 C   0  0  0  0  0  0  0  0  0  0  0  0
   -7.1320   -1.7030    1.0070 C   0  0  0  0  0  0  0  0  0  0  0  0
   -7.6550   -2.7860    1.8060 C   0  0  0  0  0  0  0  0  0  0  0  0
   -7.5490   -4.1160    1.3120 N   0  0  0  0  0  0  0  0  0  0  0  0
   -8.1900   -2.5250    2.9150 O   0  0  0  0  0  0  0  0  0  0  0  0
   -7.2190   -0.3940    1.4630 C   0  0  0  0  0  0  0  0  0  0  0  0
   -7.8060   -0.1310    2.6520 N   0  0  0  0  0  0  0  0  0  0  0  0
   -7.9460    1.0960    3.1640 C   0  0  0  0  0  0  0  0  0  0  0  0
   -7.4590    2.1470    2.4280 C   0  0  0  0  0  0  0  0  0  0  0  0
   -6.8550    1.9220    1.2130 C   0  0  0  0  0  0  0  0  0  0  0  0
   -6.7220    0.6310    0.7040 C   0  0  0  0  0  0  0  0  0  0  0  0
   -6.1360    0.3620   -0.5100 C   0  0  0  0  0  0  0  0  0  0  0  0
   -5.4630    1.7000   -1.4390 S   0  0  0  0  0  0  0  0  0  0  0  0
   -3.7870    2.1140   -1.0740 C   0  0  1  0  0  0  0  0  0  0  0  0
   -3.6470    2.7020    0.3450 C   0  0  0  0  0  0  0  0  0  0  0  0
   -2.1070    2.7320    0.3950 C   0  0  0  0  0  0  0  0  0  0  0  0
   -1.7390    1.3550   -0.0150 C   0  0  2  0  0  0  0  0  0  0  0  0
   -0.4160    1.2520   -0.5750 N   0  0  0  0  0  0  0  0  0  0  0  0
    0.5720    0.3850   -0.0690 C   0  0  0  0  0  0  0  0  0  0  0  0
    0.2640   -0.3290    0.9210 O   0  0  0  0  0  0  0  0  0  0  0  0
    1.8480    0.2760   -0.5940 O   0  0  0  0  0  0  0  0  0  0  0  0
    2.8070   -0.6020   -0.0640 C   0  0  0  0  0  0  0  0  0  0  0  0
    4.1210   -0.5200   -0.8150 C   0  0  1  0  0  0  0  0  0  0  0  0
    4.6720    0.7450   -0.7620 O   0  0  0  0  0  0  0  0  0  0  0  0
    5.0560   -1.6250   -0.4520 C   0  0  0  0  0  0  0  0  0  0  0  0
    5.5850   -1.5860    0.8020 O   0  0  0  0  0  0  0  0  0  0  0  0
    6.3380   -0.4980    1.1370 C   0  0  0  0  0  0  0  0  0  0  0  0
    7.5540   -0.3080    0.2550 C   0  0  1  0  0  0  0  0  0  0  0  0
    8.2080    0.8520    0.7410 O   0  0  0  0  0  0  0  0  0  0  0  0
    9.5430    0.6610    0.3880 C   0  0  2  0  0  0  0  0  0  0  0  0
    9.8920    1.4050   -0.8840 C   0  0  0  0  0  0  0  0  0  0  0  0
    9.7170   -0.8250    0.2210 C   0  0  1  0  0  0  0  0  0  0  0  0
   10.6780   -1.3030    1.2970 C   0  0  0  0  0  0  0  0  0  0  0  0
    8.4540   -1.3280    0.3900 O   0  0  0  0  0  0  0  0  0  0  0  0
   -2.8040    0.9580   -1.0300 C   0  0  0  0  0  0  0  0  0  0  0  0
  1  2  1  0
  2  3  1  0
  3  4  2  0
  3 15  1  0
  4  5  1  0
  5  6  1  0
  5  9  2  0
  6  7  1  0
  6  8  2  0
  9 10  1  0
  9 14  1  0
 10 11  2  0
 11 12  1  0
 12 13  2  0
 13 14  1  0
 14 15  2  0
 15 16  1  0
 17 16  1  1
 17 18  1  0
 17 38  1  0
 18 19  1  0
 19 20  1  0
 20 21  1  6
 20 38  1  0
 21 22  1  0
 22 23  2  0
 22 24  1  0
 24 25  1  0
 25 26  1  0
 26 27  1  1
 26 28  1  0
 28 29  1  0
 29 30  1  0
 31 30  1  1
 31 32  1  0
 31 37  1  0
 32 33  1  0
 33 34  1  6
 33 35  1  0
 35 36  1  1
 35 37  1  0
M  END
