
     RDKit          3D

 38 41  0  0  0  0  0  0  0  0999 V2000
    3.5990    2.7790   -0.8430 C   0  0  0  0  0  0  0  0  0  0  0  0
    4.2930    1.6950   -0.0300 C   0  0  1  0  0  0  0  0  0  0  0  0
    3.7220    0.4110   -0.3380 O   0  0  0  0  0  0  0  0  0  0  0  0
    3.0550   -0.3290    0.6270 C   0  0  0  0  0  0  0  0  0  0  0  0
    2.9850    0.1880    1.7670 O   0  0  0  0  0  0  0  0  0  0  0  0
    2.4570   -1.6270    0.3830 C   0  0  0  0  0  0  0  0  0  0  0  0
    1.0720   -1.6770   -0.1610 C   0  0  1  0  0  0  0  0  0  0  0  0
    0.8180   -3.1190   -0.2700 N   0  0  0  0  0  0  0  0  0  0  0  0
    0.4760   -3.5160    1.0520 C   0  0  0  0  0  0  0  0  0  0  0  0
    0.4920   -4.7060    1.5220 O   0  0  0  0  0  0  0  0  0  0  0  0
    0.0850   -2.3130    1.8370 C   0  0  0  0  0  0  0  0  0  0  0  0
   -0.0320   -1.2820    0.7550 C   0  0  1  0  0  0  0  0  0  0  0  0
    0.0520    0.1300    1.2690 C   0  0  0  0  0  0  0  0  0  0  0  0
   -1.3590   -1.5050    0.0560 C   0  0  2  0  0  0  0  0  0  0  0  0
   -2.4320   -1.0920    0.9850 N   0  0  0  0  0  0  0  0  0  0  0  0
   -3.3340   -0.0490    0.7110 C   0  0  0  0  0  0  0  0  0  0  0  0
   -3.2440    0.5840   -0.3740 O   0  0  0  0  0  0  0  0  0  0  0  0
   -4.3670    0.3580    1.5880 N   0  0  0  0  0  0  0  0  0  0  0  0
   -5.2650    1.4200    1.2700 C   0  0  0  0  0  0  0  0  0  0  0  0
   -6.5550    1.2750    1.1900 C   0  0  0  0  0  0  0  0  0  0  0  0
   -7.4520    2.3810    0.8630 C   0  0  0  0  0  0  0  0  0  0  0  0
   -6.8120    3.6040    0.6210 O   0  0  0  0  0  0  0  0  0  0  0  0
   -5.4430    3.7200    0.7160 C   0  0  0  0  0  0  0  0  0  0  0  0
   -4.6540    2.7210    1.0190 C   0  0  0  0  0  0  0  0  0  0  0  0
   -1.5790   -2.8520   -0.1550 O   0  0  0  0  0  0  0  0  0  0  0  0
   -1.9440   -3.2100   -1.4240 C   0  0  0  0  0  0  0  0  0  0  0  0
   -3.1850   -2.5500   -1.8210 C   0  0  0  0  0  0  0  0  0  0  0  0
   -4.4770   -2.6450   -1.4310 C   0  0  0  0  0  0  0  0  0  0  0  0
   -5.4180   -1.8890   -2.0070 C   0  0  0  0  0  0  0  0  0  0  0  0
   -5.0810   -1.0260   -2.9850 C   0  0  0  0  0  0  0  0  0  0  0  0
   -3.2850   -1.2630   -3.1420 S   0  0  0  0  0  0  0  0  0  0  0  0
    5.7370    1.6350   -0.2670 C   0  0  0  0  0  0  0  0  0  0  0  0
    6.6420    2.1630    0.6550 C   0  0  0  0  0  0  0  0  0  0  0  0
    7.9870    2.1310    0.4770 C   0  0  0  0  0  0  0  0  0  0  0  0
    8.5250    1.5570   -0.6580 C   0  0  0  0  0  0  0  0  0  0  0  0
    9.9170    1.5300   -0.8300 O   0  0  0  0  0  0  0  0  0  0  0  0
    7.6610    1.0270   -1.5880 C   0  0  0  0  0  0  0  0  0  0  0  0
    6.2800    1.0640   -1.3980 C   0  0  0  0  0  0  0  0  0  0  0  0
  2  1  1  6
  2  3  1  0
  2 32  1  0
  3  4  1  0
  4  5  2  0
  4  6  1  0
  7  6  1  1
  7  8  1  0
  7 12  1  0
  8  9  1  0
  9 10  2  0
  9 11  1  0
 11 12  1  0
 12 13  1  1
 12 14  1  0
 14 15  1  1
 14 25  1  0
 15 16  1  0
 16 17  2  0
 16 18  1  0
 18 19  1  0
 19 20  2  0
 19 24  1  0
 20 21  1  0
 21 22  1  0
 22 23  1  0
 23 24  2  0
 25 26  1  0
 26 27  1  0
 27 28  2  0
 27 31  1  0
 28 29  1  0
 29 30  2  0
 30 31  1  0
 32 33  2  0
 32 38  1  0
 33 34  1  0
 34 35  2  0
 35 36  1  0
 35 37  1  0
 37 38  2  0
M  END
