
     RDKit          3D

 33 37  0  0  0  0  0  0  0  0999 V2000
    8.2020   -0.8140   -2.0080 C   0  0  0  0  0  0  0  0  0  0  0  0
    7.1280    0.2950   -1.9270 C   0  0  0  0  0  0  0  0  0  0  0  0
    7.1350    1.2590   -2.9630 N   0  0  0  0  0  0  0  0  0  0  0  0
    5.7240    2.3110   -2.4210 S   0  0  0  0  0  0  0  0  0  0  0  0
    5.3420    1.4810   -1.0850 C   0  0  0  0  0  0  0  0  0  0  0  0
    6.2360    0.3930   -0.9790 C   0  0  0  0  0  0  0  0  0  0  0  0
    6.1800   -0.5950    0.1780 C   0  0  0  0  0  0  0  0  0  0  0  0
    5.1350   -0.3200    1.0690 N   0  0  0  0  0  0  0  0  0  0  0  0
    3.7960   -0.4490    0.6700 C   0  0  0  0  0  0  0  0  0  0  0  0
    2.8410    0.1140    1.5130 C   0  0  0  0  0  0  0  0  0  0  0  0
    1.5110    0.0650    1.2480 C   0  0  0  0  0  0  0  0  0  0  0  0
    1.0680   -0.5570    0.1140 C   0  0  0  0  0  0  0  0  0  0  0  0
    1.9620   -1.1240   -0.7440 C   0  0  0  0  0  0  0  0  0  0  0  0
    3.3350   -1.0610   -0.4480 C   0  0  0  0  0  0  0  0  0  0  0  0
    4.3870   -1.8210   -1.6120 Cl  0  0  0  0  0  0  0  0  0  0  0  0
   -0.4140   -0.4570    0.0920 C   0  0  0  0  0  0  0  0  0  0  0  0
   -0.7530    0.2820    1.3100 C   0  0  0  0  0  0  0  0  0  0  0  0
   -2.0020    0.5990    1.6740 C   0  0  0  0  0  0  0  0  0  0  0  0
   -3.1390    0.2160    0.8570 C   0  0  0  0  0  0  0  0  0  0  0  0
   -2.9370   -0.4250   -0.2130 O   0  0  0  0  0  0  0  0  0  0  0  0
   -4.5050    0.5400    1.2180 C   0  0  0  0  0  0  0  0  0  0  0  0
   -4.8220    1.2360    2.3650 C   0  0  0  0  0  0  0  0  0  0  0  0
   -6.1250    1.5430    2.7060 C   0  0  0  0  0  0  0  0  0  0  0  0
   -7.1350    1.1340    1.8600 C   0  0  0  0  0  0  0  0  0  0  0  0
   -6.8350    0.4410    0.7160 C   0  0  0  0  0  0  0  0  0  0  0  0
   -5.5420    0.1420    0.3880 C   0  0  0  0  0  0  0  0  0  0  0  0
   -5.2300   -0.5860   -0.8160 N   0  0  0  0  0  0  0  0  0  0  0  0
   -5.1480   -1.9180   -0.9120 C   0  0  0  0  0  0  0  0  0  0  0  0
   -4.8360   -2.2320   -2.1980 C   0  0  0  0  0  0  0  0  0  0  0  0
   -4.7260   -1.0860   -2.8960 N   0  0  0  0  0  0  0  0  0  0  0  0
   -4.9680   -0.0780   -2.0450 C   0  0  0  0  0  0  0  0  0  0  0  0
   -4.9610    1.3840   -2.3600 C   0  0  0  0  0  0  0  0  0  0  0  0
    0.4150    0.5770    1.9800 O   0  0  0  0  0  0  0  0  0  0  0  0
  1  2  1  0
  2  3  2  0
  2  6  1  0
  3  4  1  0
  4  5  1  0
  5  6  2  0
  6  7  1  0
  7  8  1  0
  8  9  1  0
  9 10  2  0
  9 14  1  0
 10 11  1  0
 11 12  2  0
 11 33  1  0
 12 13  1  0
 12 16  1  0
 13 14  2  0
 14 15  1  0
 16 17  1  0
 17 18  2  3
 17 33  1  0
 18 19  1  0
 19 20  2  0
 19 21  1  0
 21 22  2  0
 21 26  1  0
 22 23  1  0
 23 24  2  0
 24 25  1  0
 25 26  2  0
 26 27  1  0
 27 28  1  0
 27 31  1  0
 28 29  2  0
 29 30  1  0
 30 31  2  0
 31 32  1  0
M  CHG  1   8   1
M  END
