
     RDKit          3D

 33 35  0  0  0  0  0  0  0  0999 V2000
    6.0870    3.0560   -1.5610 C   0  0  0  0  0  0  0  0  0  0  0  0
    4.7300    2.7440   -1.3410 O   0  0  0  0  0  0  0  0  0  0  0  0
    4.4150    1.5850   -0.6520 C   0  0  0  0  0  0  0  0  0  0  0  0
    3.0730    1.2540   -0.4210 C   0  0  0  0  0  0  0  0  0  0  0  0
    2.6890    0.1290    0.2500 C   0  0  0  0  0  0  0  0  0  0  0  0
    1.3480   -0.2390    0.5080 N   0  0  0  0  0  0  0  0  0  0  0  0
    0.2180    0.4800    0.0930 C   0  0  0  0  0  0  0  0  0  0  0  0
    0.3310    1.5330   -0.5580 O   0  0  0  0  0  0  0  0  0  0  0  0
   -1.1440   -0.0200    0.4340 C   0  0  0  0  0  0  0  0  0  0  0  0
   -1.2380   -1.0680    1.0910 O   0  0  0  0  0  0  0  0  0  0  0  0
   -2.3030    0.7680   -0.0340 C   0  0  0  0  0  0  0  0  0  0  0  0
   -3.6180    0.1590    0.3600 C   0  0  1  0  0  0  0  0  0  0  0  0
   -4.7020    1.0250   -0.1640 C   0  0  0  0  0  0  0  0  0  0  0  0
   -4.7050    1.3320   -1.5040 C   0  0  0  0  0  0  0  0  0  0  0  0
   -5.6720    2.1410   -2.0800 C   0  0  0  0  0  0  0  0  0  0  0  0
   -6.6350    2.6380   -1.2900 N   0  0  0  0  0  0  0  0  0  0  0  0
   -6.6630    2.3550    0.0430 C   0  0  0  0  0  0  0  0  0  0  0  0
   -5.7040    1.5520    0.6170 C   0  0  0  0  0  0  0  0  0  0  0  0
   -3.8490   -1.2190   -0.1440 C   0  0  0  0  0  0  0  0  0  0  0  0
   -4.8570   -1.9570    0.5120 C   0  0  0  0  0  0  0  0  0  0  0  0
   -5.5860   -1.3900    1.6010 N   0  0  0  0  0  0  0  0  0  0  0  0
   -5.0880   -3.2000    0.0700 N   0  0  0  0  0  0  0  0  0  0  0  0
   -4.4000   -3.7190   -0.9410 C   0  0  0  0  0  0  0  0  0  0  0  0
   -3.4330   -3.0500   -1.5910 N   0  0  0  0  0  0  0  0  0  0  0  0
   -3.1620   -1.7930   -1.1840 C   0  0  0  0  0  0  0  0  0  0  0  0
   -2.1600   -1.0870   -1.8520 O   0  0  0  0  0  0  0  0  0  0  0  0
    3.7260   -0.6870    0.7010 C   0  0  0  0  0  0  0  0  0  0  0  0
    3.4070   -1.8620    1.3980 N   0  0  0  0  0  0  0  0  0  0  0  0
    5.0340   -0.3670    0.4760 C   0  0  0  0  0  0  0  0  0  0  0  0
    6.0840   -1.1890    0.9290 O   0  0  0  0  0  0  0  0  0  0  0  0
    7.4070   -0.8200    0.6750 C   0  0  0  0  0  0  0  0  0  0  0  0
    8.3530   -1.7720    1.2060 N   0  0  0  0  0  0  0  0  0  0  0  0
    5.3470    0.7570   -0.1920 N   0  0  0  0  0  0  0  0  0  0  0  0
  1  2  1  0
  2  3  1  0
  3  4  2  0
  3 33  1  0
  4  5  1  0
  5  6  1  0
  5 27  2  0
  6  7  1  0
  7  8  2  0
  7  9  1  0
  9 10  2  0
  9 11  1  0
 12 11  1  6
 12 13  1  0
 12 19  1  0
 13 14  2  0
 13 18  1  0
 14 15  1  0
 15 16  2  0
 16 17  1  0
 17 18  2  0
 19 20  2  0
 19 25  1  0
 20 21  1  0
 20 22  1  0
 22 23  2  0
 23 24  1  0
 24 25  2  0
 25 26  1  0
 27 28  1  0
 27 29  1  0
 29 30  1  0
 29 33  2  0
 30 31  1  0
 31 32  1  0
M  END
