
     RDKit          3D

 33 37  0  0  0  0  0  0  0  0999 V2000
    3.8790   -1.7810   -2.5960 C   0  0  0  0  0  0  0  0  0  0  0  0
    3.1410   -0.9600   -1.6010 C   0  0  0  0  0  0  0  0  0  0  0  0
    1.7890   -0.7450   -1.6580 C   0  0  0  0  0  0  0  0  0  0  0  0
    0.8670   -1.4720   -2.9590 Cl  0  0  0  0  0  0  0  0  0  0  0  0
    1.1610    0.0110   -0.7310 N   0  0  0  0  0  0  0  0  0  0  0  0
    1.7980    0.5980    0.2960 C   0  0  0  0  0  0  0  0  0  0  0  0
    1.0690    1.4380    1.2810 C   0  0  0  0  0  0  0  0  0  0  0  0
   -0.2800    1.4930    1.0010 O   0  0  0  0  0  0  0  0  0  0  0  0
   -1.1960    0.4670    0.9810 C   0  0  0  0  0  0  0  0  0  0  0  0
   -0.8940   -0.8450    1.2660 C   0  0  0  0  0  0  0  0  0  0  0  0
   -1.8700   -1.7860    1.2120 C   0  0  0  0  0  0  0  0  0  0  0  0
   -1.4180   -3.1790    1.5680 C   0  0  0  0  0  0  0  0  0  0  0  0
   -0.5080   -3.7830    1.9000 N   0  0  0  0  0  0  0  0  0  0  0  0
   -0.4310   -5.0780    2.1580 C   0  0  0  0  0  0  0  0  0  0  0  0
   -1.5540   -5.7800    2.0120 C   0  0  0  0  0  0  0  0  0  0  0  0
   -2.7440   -4.5070    1.4890 S   0  0  0  0  0  0  0  0  0  0  0  0
   -3.1270   -1.4500    0.8830 C   0  0  0  0  0  0  0  0  0  0  0  0
   -3.4840   -0.1200    0.5840 C   0  0  0  0  0  0  0  0  0  0  0  0
   -2.5270    0.8570    0.6290 C   0  0  0  0  0  0  0  0  0  0  0  0
   -2.7800    2.1440    0.3680 O   0  0  0  0  0  0  0  0  0  0  0  0
   -3.8190    2.9280   -0.0020 C   0  0  0  0  0  0  0  0  0  0  0  0
   -4.5150    2.6690   -1.2780 C   0  0  0  0  0  0  0  0  0  0  0  0
   -5.6180    3.4900   -1.5900 C   0  0  0  0  0  0  0  0  0  0  0  0
   -6.3320    3.3410   -2.7540 C   0  0  0  0  0  0  0  0  0  0  0  0
   -5.9760    2.3570   -3.6620 C   0  0  0  0  0  0  0  0  0  0  0  0
   -4.9310    1.5920   -3.3550 N   0  0  0  0  0  0  0  0  0  0  0  0
   -4.2020    1.7190   -2.2060 C   0  0  0  0  0  0  0  0  0  0  0  0
    3.1660    0.4010    0.3820 C   0  0  0  0  0  0  0  0  0  0  0  0
    3.8340   -0.3610   -0.5420 C   0  0  0  0  0  0  0  0  0  0  0  0
    5.2820   -0.5770   -0.4650 C   0  0  0  0  0  0  0  0  0  0  0  0
    5.9340    0.1380    0.6600 C   0  0  0  0  0  0  0  0  0  0  0  0
    5.2690    1.3240    1.1130 N   0  0  0  0  0  0  0  0  0  0  0  0
    3.9010    1.0490    1.5260 C   0  0  0  0  0  0  0  0  0  0  0  0
  1  2  1  0
  2  3  2  0
  2 29  1  0
  3  4  1  0
  3  5  1  0
  5  6  2  0
  6  7  1  0
  6 28  1  0
  7  8  1  0
  8  9  1  0
  9 10  2  0
  9 19  1  0
 10 11  1  0
 11 12  1  0
 11 17  2  0
 12 13  2  0
 12 16  1  0
 13 14  1  0
 14 15  2  0
 15 16  1  0
 17 18  1  0
 18 19  2  0
 19 20  1  0
 20 21  1  0
 21 22  1  0
 22 23  2  0
 22 27  1  0
 23 24  1  0
 24 25  2  0
 25 26  1  0
 26 27  2  0
 28 29  2  0
 28 33  1  0
 29 30  1  0
 30 31  1  0
 31 32  1  0
 32 33  1  0
M  CHG  1  32   1
M  END
