
     RDKit          3D

 33 37  0  0  0  0  0  0  0  0999 V2000
    3.0520   -3.6350   -0.4070 C   0  0  0  0  0  0  0  0  0  0  0  0
    2.9290   -2.2330   -0.9350 C   0  0  0  0  0  0  0  0  0  0  0  0
    1.6110   -1.5820   -0.5770 C   0  0  2  0  0  0  0  0  0  0  0  0
    0.4310   -2.2980   -1.0960 C   0  0  2  0  0  0  0  0  0  0  0  0
   -0.4850   -1.2890   -1.7710 C   0  0  2  0  0  0  0  0  0  0  0  0
    0.2910   -0.0320   -1.6450 C   0  0  0  0  0  0  0  0  0  0  0  0
   -0.1470    1.1450   -1.8860 O   0  0  0  0  0  0  0  0  0  0  0  0
    1.6220   -0.2770   -1.2140 N   0  0  0  0  0  0  0  0  0  0  0  0
    2.7760    0.6190   -1.3840 C   0  0  0  0  0  0  0  0  0  0  0  0
    2.9200    1.5490   -0.2410 C   0  0  0  0  0  0  0  0  0  0  0  0
    2.3000    2.7790   -0.1990 C   0  0  0  0  0  0  0  0  0  0  0  0
    2.4320    3.6470    0.8610 C   0  0  0  0  0  0  0  0  0  0  0  0
    3.2050    3.3070    1.9370 C   0  0  0  0  0  0  0  0  0  0  0  0
    3.8410    2.0840    1.9300 C   0  0  0  0  0  0  0  0  0  0  0  0
    3.6940    1.2240    0.8510 C   0  0  0  0  0  0  0  0  0  0  0  0
    4.5410    2.0090    3.1260 O   0  0  0  0  0  0  0  0  0  0  0  0
    4.7010    3.3070    3.6690 C   0  0  0  0  0  0  0  0  0  0  0  0
    3.5340    3.9570    3.1460 O   0  0  0  0  0  0  0  0  0  0  0  0
   -1.7680   -1.2860   -1.0210 C   0  0  2  0  0  0  0  0  0  0  0  0
   -2.4090    0.0050   -0.8270 C   0  0  0  0  0  0  0  0  0  0  0  0
   -2.0050    0.9030    0.1370 C   0  0  0  0  0  0  0  0  0  0  0  0
   -2.6270    2.1220    0.3050 C   0  0  0  0  0  0  0  0  0  0  0  0
   -3.6980    2.4940   -0.5020 C   0  0  0  0  0  0  0  0  0  0  0  0
   -4.3070    3.8040   -0.2630 C   0  0  0  0  0  0  0  0  0  0  0  0
   -3.7850    4.6480    0.7820 N   0  0  0  0  0  0  0  0  0  0  0  0
   -5.2880    4.1920   -0.9710 N   0  0  0  0  0  0  0  0  0  0  0  0
   -4.1090    1.6110   -1.4630 C   0  0  0  0  0  0  0  0  0  0  0  0
   -3.4680    0.4000   -1.6080 C   0  0  0  0  0  0  0  0  0  0  0  0
   -1.5110   -1.9940    0.2140 N   0  0  1  0  0  0  0  0  0  0  0  0
   -2.7180   -2.6300    0.6380 C   0  0  0  0  0  0  0  0  0  0  0  0
   -0.4600   -2.9620   -0.1370 C   0  0  1  0  0  0  0  0  0  0  0  0
   -1.0940   -4.1740   -0.8350 C   0  0  0  0  0  0  0  0  0  0  0  0
    0.1200   -3.4540    1.1340 C   0  0  0  0  0  0  0  0  0  0  0  0
  1  2  1  0
  3  2  1  6
  4  3  1  1
  3  8  1  0
  4  5  1  0
  4 31  1  0
  5  6  1  1
  5 19  1  0
  6  7  2  0
  6  8  1  0
  8  9  1  0
  9 10  1  0
 10 11  2  0
 10 15  1  0
 11 12  1  0
 12 13  2  0
 13 14  1  0
 13 18  1  0
 14 15  2  0
 14 16  1  0
 16 17  1  0
 17 18  1  0
 19 20  1  1
 19 29  1  0
 20 21  2  0
 20 28  1  0
 21 22  1  0
 22 23  2  0
 23 24  1  0
 23 27  1  0
 24 25  1  0
 24 26  2  0
 27 28  2  0
 29 30  1  6
 29 31  1  0
 31 32  1  6
 31 33  1  0
M  CHG  2  26   1  29   1
M  END
