
     RDKit          3D

 33 37  0  0  0  0  0  0  0  0999 V2000
   -6.7700   -3.8450   -0.6720 C   0  0  0  0  0  0  0  0  0  0  0  0
   -5.7150   -2.8120   -0.7430 C   0  0  0  0  0  0  0  0  0  0  0  0
   -5.7830   -1.6620   -0.1040 C   0  0  0  0  0  0  0  0  0  0  0  0
   -6.9080   -1.2740    0.7480 C   0  0  0  0  0  0  0  0  0  0  0  0
   -4.6560   -0.7100   -0.2570 C   0  0  0  0  0  0  0  0  0  0  0  0
   -3.5650   -0.9110   -1.0030 N   0  0  0  0  0  0  0  0  0  0  0  0
   -2.7100    0.1590   -0.9310 C   0  0  0  0  0  0  0  0  0  0  0  0
   -1.4350    0.2930   -1.6250 C   0  0  0  0  0  0  0  0  0  0  0  0
   -0.2080    0.0950   -0.8440 C   0  0  0  0  0  0  0  0  0  0  0  0
    0.3770   -1.1820   -0.7960 C   0  0  0  0  0  0  0  0  0  0  0  0
    1.4970   -1.4380   -0.0520 C   0  0  0  0  0  0  0  0  0  0  0  0
    2.1350   -0.4470    0.7100 C   0  0  0  0  0  0  0  0  0  0  0  0
    3.2290   -0.7500    1.4220 O   0  0  0  0  0  0  0  0  0  0  0  0
    4.5400   -0.7580    1.3390 C   0  0  0  0  0  0  0  0  0  0  0  0
    5.2630   -1.2010    2.4270 N   0  0  0  0  0  0  0  0  0  0  0  0
    6.5750   -1.2580    2.4730 C   0  0  0  0  0  0  0  0  0  0  0  0
    7.4570   -1.8370    3.8950 Cl  0  0  0  0  0  0  0  0  0  0  0  0
    7.3480   -0.8690    1.4070 C   0  0  0  0  0  0  0  0  0  0  0  0
    6.6840   -0.4160    0.2900 C   0  0  0  0  0  0  0  0  0  0  0  0
    5.2750   -0.3630    0.2600 C   0  0  0  0  0  0  0  0  0  0  0  0
    4.7170    0.1410   -1.0110 C   0  0  0  0  0  0  0  0  0  0  0  0
    5.0780    1.6010   -1.2530 C   0  0  0  0  0  0  0  0  0  0  0  0
    6.9010    1.6700   -1.4410 S   0  0  0  0  0  0  0  0  0  0  0  0
    7.4990    0.0190   -0.8720 C   0  0  0  0  0  0  0  0  0  0  0  0
    1.5500    0.8040    0.6530 C   0  0  0  0  0  0  0  0  0  0  0  0
    0.4200    1.0620   -0.0980 C   0  0  0  0  0  0  0  0  0  0  0  0
   -0.1430    2.3390   -0.1400 O   0  0  0  0  0  0  0  0  0  0  0  0
    0.4870    3.3510    0.6210 C   0  0  0  0  0  0  0  0  0  0  0  0
   -3.3330    1.0400   -0.0940 C   0  0  0  0  0  0  0  0  0  0  0  0
   -4.5040    0.4950    0.2980 N   0  0  0  0  0  0  0  0  0  0  0  0
   -5.1620    1.4040    1.1590 C   0  0  0  0  0  0  0  0  0  0  0  0
   -4.4840    2.4680    1.3290 N   0  0  0  0  0  0  0  0  0  0  0  0
   -3.2630    2.3840    0.5830 C   0  0  0  0  0  0  0  0  0  0  0  0
  1  2  1  0
  2  3  2  3
  3  4  1  0
  3  5  1  0
  5  6  2  0
  5 30  1  0
  6  7  1  0
  7  8  1  0
  7 29  2  0
  8  9  1  0
  9 10  2  0
  9 26  1  0
 10 11  1  0
 11 12  2  0
 12 13  1  0
 12 25  1  0
 13 14  1  0
 14 15  2  0
 14 20  1  0
 15 16  1  0
 16 17  1  0
 16 18  2  0
 18 19  1  0
 19 20  2  0
 19 24  1  0
 20 21  1  0
 21 22  1  0
 22 23  1  0
 23 24  1  0
 25 26  2  0
 26 27  1  0
 27 28  1  0
 29 30  1  0
 29 33  1  0
 30 31  1  0
 31 32  2  0
 32 33  1  0
M  CHG  1  32   1
M  END
