
     RDKit          3D

 25 26  0  0  0  0  0  0  0  0999 V2000
   -0.1360   -3.1570    2.2090 C   0  0  0  0  0  0  0  0  0  0  0  0
   -0.4050   -3.0190    0.8300 O   0  0  0  0  0  0  0  0  0  0  0  0
   -0.9900   -1.8590    0.2870 C   0  0  0  0  0  0  0  0  0  0  0  0
   -0.1270   -0.7400   -0.1000 C   0  0  0  0  0  0  0  0  0  0  0  0
   -0.5630    0.3080   -0.6090 O   0  0  0  0  0  0  0  0  0  0  0  0
    1.2690   -0.8750    0.1250 N   0  0  0  0  0  0  0  0  0  0  0  0
    2.2440    0.0920   -0.1780 C   0  0  0  0  0  0  0  0  0  0  0  0
    1.9810    1.3710   -0.5760 C   0  0  0  0  0  0  0  0  0  0  0  0
    3.0280    2.2610   -0.8680 C   0  0  0  0  0  0  0  0  0  0  0  0
    4.3490    1.8800   -0.7670 C   0  0  0  0  0  0  0  0  0  0  0  0
    5.4520    2.7810   -1.0640 C   0  0  0  0  0  0  0  0  0  0  0  0
    5.1910    3.9470   -1.4280 O   0  0  0  0  0  0  0  0  0  0  0  0
    4.6100    0.5860   -0.3640 C   0  0  0  0  0  0  0  0  0  0  0  0
    6.0380    0.1730   -0.2540 C   0  0  0  0  0  0  0  0  0  0  0  0
    3.5890   -0.2640   -0.0840 C   0  0  0  0  0  0  0  0  0  0  0  0
   -2.2890   -1.8270    0.1390 C   0  0  0  0  0  0  0  0  0  0  0  0
   -3.0740   -3.0620    0.5600 C   0  0  0  0  0  0  0  0  0  0  0  0
   -3.0600   -0.6890   -0.3180 C   0  0  0  0  0  0  0  0  0  0  0  0
   -3.0600    0.5580    0.2710 C   0  0  0  0  0  0  0  0  0  0  0  0
   -3.8150    1.5830   -0.2640 C   0  0  0  0  0  0  0  0  0  0  0  0
   -3.7810    2.9210    0.4130 C   0  0  0  0  0  0  0  0  0  0  0  0
   -4.5740    1.4270   -1.3610 N   0  0  0  0  0  0  0  0  0  0  0  0
   -4.6060    0.2320   -1.9670 C   0  0  0  0  0  0  0  0  0  0  0  0
   -5.3210    0.1000   -2.9920 O   0  0  0  0  0  0  0  0  0  0  0  0
   -3.8610   -0.8060   -1.4520 C   0  0  0  0  0  0  0  0  0  0  0  0
  1  2  1  0
  2  3  1  0
  3  4  1  0
  3 16  2  3
  4  5  2  0
  4  6  1  0
  6  7  1  0
  7  8  2  0
  7 15  1  0
  8  9  1  0
  9 10  2  0
 10 11  1  0
 10 13  1  0
 11 12  2  0
 13 14  1  0
 13 15  2  0
 16 17  1  0
 16 18  1  0
 18 19  1  0
 18 25  2  0
 19 20  2  0
 20 21  1  0
 20 22  1  0
 22 23  1  0
 23 24  2  0
 23 25  1  0
M  END
