
     RDKit          3D

 22 23  0  0  0  0  0  0  0  0999 V2000
    3.9190   -1.5950    1.8930 N   0  0  0  0  0  0  0  0  0  0  0  0
    4.1080   -1.4710    0.4720 C   0  0  0  0  0  0  0  0  0  0  0  0
    3.1740   -1.0560   -0.3140 C   0  0  0  0  0  0  0  0  0  0  0  0
    1.8460   -0.6500   -0.0360 N   0  0  0  0  0  0  0  0  0  0  0  0
    1.1640   -0.5780    1.1520 C   0  0  0  0  0  0  0  0  0  0  0  0
    1.6490   -0.8830    2.2450 O   0  0  0  0  0  0  0  0  0  0  0  0
   -0.2810   -0.1100    1.2570 C   0  0  1  0  0  0  0  0  0  0  0  0
   -0.3790    1.0380    2.2300 C   0  0  0  0  0  0  0  0  0  0  0  0
    0.4530    2.2200    1.8160 C   0  0  0  0  0  0  0  0  0  0  0  0
    0.2830    3.2090    2.7830 O   0  0  0  0  0  0  0  0  0  0  0  0
   -0.7650    0.1880   -0.0360 N   0  0  0  0  0  0  0  0  0  0  0  0
   -2.1550    0.6230   -0.0620 C   0  0  2  0  0  0  0  0  0  0  0  0
   -3.0810   -0.3870    0.5280 C   0  0  0  0  0  0  0  0  0  0  0  0
   -4.5060   -0.1530    0.1280 C   0  0  0  0  0  0  0  0  0  0  0  0
   -4.7080    0.0130   -1.3420 C   0  0  0  0  0  0  0  0  0  0  0  0
   -3.8890    1.2380   -1.7670 C   0  0  0  0  0  0  0  0  0  0  0  0
   -2.4560    0.9120   -1.5310 C   0  0  2  0  0  0  0  0  0  0  0  0
   -2.1120   -0.2320   -2.2370 O   0  0  0  0  0  0  0  0  0  0  0  0
    3.5560   -0.9930   -1.7630 C   0  0  0  0  0  0  0  0  0  0  0  0
    4.7300   -1.3290   -2.1870 C   0  0  0  0  0  0  0  0  0  0  0  0
    5.7980   -1.8040   -1.2890 C   0  0  0  0  0  0  0  0  0  0  0  0
    5.4010   -1.8440    0.0250 O   0  0  0  0  0  0  0  0  0  0  0  0
  1  2  1  0
  2  3  2  0
  2 22  1  0
  3  4  1  0
  3 19  1  0
  4  5  1  0
  5  6  2  0
  5  7  1  0
  7  8  1  1
  7 11  1  0
  8  9  1  0
  9 10  1  0
 12 11  1  6
 12 13  1  0
 12 17  1  0
 13 14  1  0
 14 15  1  0
 15 16  1  0
 16 17  1  0
 17 18  1  6
 19 20  2  0
 20 21  1  0
 21 22  1  0
M  CHG  1  11   1
M  END
