
     RDKit          3D

 22 23  0  0  0  0  0  0  0  0999 V2000
   -1.4770   -2.3970    1.9890 C   0  0  0  0  0  0  0  0  0  0  0  0
   -0.5570   -2.3520    0.7910 C   0  0  0  0  0  0  0  0  0  0  0  0
   -0.7490   -1.2220   -0.0680 N   0  0  0  0  0  0  0  0  0  0  0  0
   -2.0390   -1.4280   -0.6920 C   0  0  0  0  0  0  0  0  0  0  0  0
   -3.1710   -0.7150   -0.0730 C   0  0  0  0  0  0  0  0  0  0  0  0
   -2.8140    0.0710    1.0220 O   0  0  0  0  0  0  0  0  0  0  0  0
   -1.7780    0.8960    0.5200 C   0  0  1  0  0  0  0  0  0  0  0  0
   -1.7050    2.0690    1.4580 C   0  0  0  0  0  0  0  0  0  0  0  0
   -3.0880    2.7340    1.3950 C   0  0  0  0  0  0  0  0  0  0  0  0
   -4.0500    1.8110    1.7990 O   0  0  0  0  0  0  0  0  0  0  0  0
   -0.5450    0.0630    0.4700 C   0  0  2  0  0  0  0  0  0  0  0  0
    0.6210    0.8330   -0.1770 C   0  0  1  0  0  0  0  0  0  0  0  0
    1.8890    0.1270    0.1320 C   0  0  0  0  0  0  0  0  0  0  0  0
    2.6750   -0.3950   -0.9180 N   0  0  0  0  0  0  0  0  0  0  0  0
    3.8180   -1.1670   -0.6750 C   0  0  0  0  0  0  0  0  0  0  0  0
    4.4500   -1.6390   -1.6860 O   0  0  0  0  0  0  0  0  0  0  0  0
    4.3690   -1.4890    0.6270 C   0  0  0  0  0  0  0  0  0  0  0  0
    3.7330   -0.8450    1.6580 O   0  0  0  0  0  0  0  0  0  0  0  0
    2.3440   -0.1300   -2.3020 C   0  0  0  0  0  0  0  0  0  0  0  0
    0.8490   -0.0720   -2.4350 C   0  0  0  0  0  0  0  0  0  0  0  0
    0.3550    1.1230   -1.6170 C   0  0  2  0  0  0  0  0  0  0  0  0
    1.1680    2.2610   -2.0850 N   0  0  0  0  0  0  0  0  0  0  0  0
  1  2  1  0
  2  3  1  0
  3  4  1  0
 11  3  1  6
  4  5  1  0
  5  6  1  0
  6  7  1  0
  7  8  1  1
  7 11  1  0
  8  9  1  0
  9 10  1  0
 11 12  1  0
 12 13  1  6
 12 21  1  0
 13 14  1  0
 14 15  1  0
 14 19  1  0
 15 16  2  0
 15 17  1  0
 17 18  1  0
 19 20  1  0
 20 21  1  0
 21 22  1  6
M  CHG  1  22   1
M  END
