
     RDKit          3D

 25 26  0  0  0  0  0  0  0  0999 V2000
    5.5300   -0.3220   -0.9850 C   0  0  0  0  0  0  0  0  0  0  0  0
    5.3490    0.1090    0.2470 C   0  0  0  0  0  0  0  0  0  0  0  0
    6.5060    0.5860    0.9060 O   0  0  0  0  0  0  0  0  0  0  0  0
    4.0490    0.1110    0.9240 C   0  0  0  0  0  0  0  0  0  0  0  0
    3.9910    0.5630    2.1500 C   0  0  0  0  0  0  0  0  0  0  0  0
    5.1800    1.0780    2.8980 C   0  0  0  0  0  0  0  0  0  0  0  0
    2.9450   -0.3710    0.2040 N   0  0  0  0  0  0  0  0  0  0  0  0
    1.6110   -0.4240    0.6820 C   0  0  0  0  0  0  0  0  0  0  0  0
    1.2670   -0.0460    1.8050 O   0  0  0  0  0  0  0  0  0  0  0  0
    0.5450   -0.9370   -0.1370 N   0  0  0  0  0  0  0  0  0  0  0  0
   -0.8180   -1.0170    0.2840 C   0  0  1  0  0  0  0  0  0  0  0  0
   -1.7470   -0.2000   -0.5200 C   0  0  0  0  0  0  0  0  0  0  0  0
   -1.6780   -0.1460   -1.8960 C   0  0  0  0  0  0  0  0  0  0  0  0
   -2.5680    0.6310   -2.6180 C   0  0  0  0  0  0  0  0  0  0  0  0
   -3.5400    1.3640   -1.9720 C   0  0  0  0  0  0  0  0  0  0  0  0
   -3.6310    1.3280   -0.6040 C   0  0  0  0  0  0  0  0  0  0  0  0
   -2.7340    0.5470    0.0970 C   0  0  0  0  0  0  0  0  0  0  0  0
   -4.6700    2.1120    0.0430 C   0  0  0  0  0  0  0  0  0  0  0  0
   -4.8990    1.8270    1.2530 O   0  0  0  0  0  0  0  0  0  0  0  0
   -5.4200    3.1810   -0.6650 C   0  0  0  0  0  0  0  0  0  0  0  0
   -5.0050    3.3350   -2.0860 C   0  0  0  0  0  0  0  0  0  0  0  0
   -4.4570    2.1600   -2.6440 O   0  0  0  0  0  0  0  0  0  0  0  0
   -1.2220   -2.4420    0.4620 C   0  0  2  0  0  0  0  0  0  0  0  0
   -0.3390   -3.1070    1.5120 C   0  0  0  0  0  0  0  0  0  0  0  0
   -1.1190   -3.1920   -0.8190 C   0  0  0  0  0  0  0  0  0  0  0  0
  1  2  2  0
  2  3  1  0
  2  4  1  0
  4  5  2  3
  4  7  1  0
  5  6  1  0
  7  8  1  0
  8  9  2  0
  8 10  1  0
 11 10  1  6
 11 12  1  0
 11 23  1  0
 12 13  2  0
 12 17  1  0
 13 14  1  0
 14 15  2  0
 15 16  1  0
 15 22  1  0
 16 17  2  0
 16 18  1  0
 18 19  2  0
 18 20  1  0
 20 21  1  0
 21 22  1  0
 23 24  1  1
 23 25  1  0
M  END
