
     RDKit          3D

 22 23  0  0  0  0  0  0  0  0999 V2000
    5.2230   -2.6050    0.4700 N   0  0  0  0  0  0  0  0  0  0  0  0
    4.8810   -1.3630    0.2950 C   0  0  0  0  0  0  0  0  0  0  0  0
    3.4760   -1.0990   -0.0100 C   0  0  0  0  0  0  0  0  0  0  0  0
    2.9910    0.1000   -0.1880 C   0  0  0  0  0  0  0  0  0  0  0  0
    1.6450    0.4060   -0.4830 N   0  0  0  0  0  0  0  0  0  0  0  0
    0.6000   -0.5230   -0.6540 C   0  0  0  0  0  0  0  0  0  0  0  0
    0.7750   -1.7400   -0.5630 O   0  0  0  0  0  0  0  0  0  0  0  0
   -0.7980   -0.0330   -0.9630 C   0  0  2  0  0  0  0  0  0  0  0  0
   -1.1570    0.8700    0.1890 C   0  0  0  0  0  0  0  0  0  0  0  0
   -2.5030    1.2410    0.1450 N   0  0  0  0  0  0  0  0  0  0  0  0
   -2.8820    2.4800    0.6740 C   0  0  0  0  0  0  0  0  0  0  0  0
   -2.3970    3.6900   -0.0770 C   0  0  0  0  0  0  0  0  0  0  0  0
   -2.8330    4.8600    0.5400 O   0  0  0  0  0  0  0  0  0  0  0  0
   -3.4190    0.4970   -0.6160 C   0  0  0  0  0  0  0  0  0  0  0  0
   -2.9690   -0.8930   -0.8840 C   0  0  2  0  0  0  0  0  0  0  0  0
   -3.3970   -1.8790    0.1880 C   0  0  0  0  0  0  0  0  0  0  0  0
   -2.8980   -3.2800   -0.1550 C   0  0  0  0  0  0  0  0  0  0  0  0
   -3.2890   -4.1700    0.8220 O   0  0  0  0  0  0  0  0  0  0  0  0
   -1.6460   -1.0870   -1.1280 O   0  0  0  0  0  0  0  0  0  0  0  0
    3.9480    1.2160   -0.0760 C   0  0  0  0  0  0  0  0  0  0  0  0
    5.2070    1.0270    0.1840 C   0  0  0  0  0  0  0  0  0  0  0  0
    5.8480   -0.2790    0.3980 C   0  0  0  0  0  0  0  0  0  0  0  0
  1  2  2  0
  2  3  1  0
  2 22  1  0
  3  4  2  0
  4  5  1  0
  4 20  1  0
  5  6  1  0
  6  7  2  0
  8  6  1  1
  8  9  1  0
  8 19  1  0
  9 10  1  0
 10 11  1  0
 10 14  1  0
 11 12  1  0
 12 13  1  0
 14 15  1  0
 15 16  1  1
 15 19  1  0
 16 17  1  0
 17 18  1  0
 20 21  2  0
 21 22  1  0
M  CHG  1   1   1
M  END
