
     RDKit          3D

 25 26  0  0  0  0  0  0  0  0999 V2000
    4.8020    0.6350   -2.2960 C   0  0  0  0  0  0  0  0  0  0  0  0
    5.7690    0.3900   -1.3780 C   0  0  0  0  0  0  0  0  0  0  0  0
    6.9960   -0.1580   -1.8770 C   0  0  0  0  0  0  0  0  0  0  0  0
    7.0980   -0.3750   -3.1390 O   0  0  0  0  0  0  0  0  0  0  0  0
    5.4930    0.6540   -0.0010 C   0  0  0  0  0  0  0  0  0  0  0  0
    6.2730    0.5200    1.0080 C   0  0  0  0  0  0  0  0  0  0  0  0
    7.6450    0.0730    1.0830 C   0  0  0  0  0  0  0  0  0  0  0  0
    4.1160    1.1390    0.2710 N   0  0  0  0  0  0  0  0  0  0  0  0
    3.0400    0.2620    0.0930 C   0  0  0  0  0  0  0  0  0  0  0  0
    3.2710   -0.9300   -0.2890 O   0  0  0  0  0  0  0  0  0  0  0  0
    1.6400    0.6840    0.3380 C   0  0  0  0  0  0  0  0  0  0  0  0
    1.4230    1.8460    0.7100 O   0  0  0  0  0  0  0  0  0  0  0  0
    0.6000   -0.2270    0.1470 N   0  0  0  0  0  0  0  0  0  0  0  0
   -0.7710    0.0500    0.3490 C   0  0  0  0  0  0  0  0  0  0  0  0
   -1.2790    1.1850    0.9330 C   0  0  0  0  0  0  0  0  0  0  0  0
   -2.6340    1.3730    1.0770 C   0  0  0  0  0  0  0  0  0  0  0  0
   -3.5100    0.4170    0.6330 C   0  0  0  0  0  0  0  0  0  0  0  0
   -3.0670   -0.7440    0.0390 C   0  0  0  0  0  0  0  0  0  0  0  0
   -1.7050   -0.9080   -0.0930 C   0  0  0  0  0  0  0  0  0  0  0  0
   -3.7510   -1.9240   -0.5230 C   0  0  0  0  0  0  0  0  0  0  0  0
   -5.2020   -1.7020   -0.8230 C   0  0  0  0  0  0  0  0  0  0  0  0
   -5.9780   -1.1910    0.3650 C   0  0  0  0  0  0  0  0  0  0  0  0
   -6.0140    0.3200    0.2810 C   0  0  1  0  0  0  0  0  0  0  0  0
   -7.1540    0.8740    1.0760 C   0  0  0  0  0  0  0  0  0  0  0  0
   -4.8100    0.7870    0.8650 O   0  0  0  0  0  0  0  0  0  0  0  0
  1  2  2  0
  2  3  1  0
  2  5  1  0
  3  4  2  0
  5  6  2  3
  5  8  1  0
  6  7  1  0
  8  9  1  0
  9 10  2  0
  9 11  1  0
 11 12  2  0
 11 13  1  0
 13 14  1  0
 14 15  2  0
 14 19  1  0
 15 16  1  0
 16 17  2  0
 17 18  1  0
 17 25  1  0
 18 19  2  0
 18 20  1  0
 20 21  1  0
 21 22  1  0
 22 23  1  0
 23 24  1  1
 23 25  1  0
M  END
