
     RDKit          3D

 25 26  0  0  0  0  0  0  0  0999 V2000
   -6.3800    2.3090   -0.0970 C   0  0  0  0  0  0  0  0  0  0  0  0
   -5.0100    2.1380    0.2020 O   0  0  0  0  0  0  0  0  0  0  0  0
   -4.1490    1.3460   -0.5150 C   0  0  0  0  0  0  0  0  0  0  0  0
   -4.5760    0.7220   -1.5020 O   0  0  0  0  0  0  0  0  0  0  0  0
   -2.7350    1.2550   -0.0970 C   0  0  0  0  0  0  0  0  0  0  0  0
   -2.1920    1.9480    0.9660 C   0  0  0  0  0  0  0  0  0  0  0  0
   -2.9530    2.8470    1.8930 C   0  0  0  0  0  0  0  0  0  0  0  0
   -0.8860    1.6590    0.9970 N   0  0  0  0  0  0  0  0  0  0  0  0
   -0.5340    0.8180    0.0230 C   0  0  0  0  0  0  0  0  0  0  0  0
    0.7350    0.2680   -0.2990 N   0  0  0  0  0  0  0  0  0  0  0  0
    1.8770    0.5820    0.4560 C   0  0  0  0  0  0  0  0  0  0  0  0
    1.8380    1.3550    1.4430 O   0  0  0  0  0  0  0  0  0  0  0  0
    3.1990    0.0260    0.1390 C   0  0  0  0  0  0  0  0  0  0  0  0
    4.2690    0.3130    0.8380 C   0  0  0  0  0  0  0  0  0  0  0  0
    5.5980   -0.2500    0.5170 C   0  0  0  0  0  0  0  0  0  0  0  0
    6.7280   -0.0210    1.1580 C   0  0  0  0  0  0  0  0  0  0  0  0
    7.8010   -0.7720    0.5160 C   0  0  0  0  0  0  0  0  0  0  0  0
    7.1500   -1.4800   -0.6020 C   0  0  0  0  0  0  0  0  0  0  0  0
    5.8790   -1.1630   -0.5790 C   0  0  0  0  0  0  0  0  0  0  0  0
   -1.7270    0.5500   -0.6880 C   0  0  0  0  0  0  0  0  0  0  0  0
   -1.7850   -0.4200   -1.7840 C   0  0  0  0  0  0  0  0  0  0  0  0
   -1.9050   -1.8480   -1.4520 C   0  0  0  0  0  0  0  0  0  0  0  0
   -2.9870   -2.3800   -0.6690 C   0  0  0  0  0  0  0  0  0  0  0  0
   -3.0330   -3.8840   -0.5010 C   0  0  0  0  0  0  0  0  0  0  0  0
   -3.8560   -1.7780   -0.1330 O   0  0  0  0  0  0  0  0  0  0  0  0
  1  2  1  0
  2  3  1  0
  3  4  2  0
  3  5  1  0
  5  6  2  0
  5 20  1  0
  6  7  1  0
  6  8  1  0
  8  9  1  0
  9 10  1  0
  9 20  2  0
 10 11  1  0
 11 12  2  0
 11 13  1  0
 13 14  2  3
 14 15  1  0
 15 16  2  0
 15 19  1  0
 16 17  1  0
 17 18  1  0
 18 19  2  0
 20 21  1  0
 21 22  1  0
 22 23  1  0
 23 24  1  0
 23 25  2  0
M  END
