
     RDKit          3D

 22 23  0  0  0  0  0  0  0  0999 V2000
   -1.6960    2.6330    2.0260 C   0  0  0  0  0  0  0  0  0  0  0  0
   -1.2870    2.0330    0.8160 O   0  0  0  0  0  0  0  0  0  0  0  0
   -1.9790    0.8980    0.3180 C   0  0  0  0  0  0  0  0  0  0  0  0
   -3.2880    0.9260    0.2580 C   0  0  0  0  0  0  0  0  0  0  0  0
   -4.1070   -0.1710   -0.2310 C   0  0  2  0  0  0  0  0  0  0  0  0
   -4.9270   -0.5520    0.8810 O   0  0  0  0  0  0  0  0  0  0  0  0
   -3.3810   -1.3670   -0.6790 C   0  0  2  0  0  0  0  0  0  0  0  0
   -3.8260   -2.5500    0.0710 N   0  0  0  0  0  0  0  0  0  0  0  0
   -1.9250   -1.2900   -0.5690 C   0  0  0  0  0  0  0  0  0  0  0  0
   -1.2470   -0.2660   -0.1150 C   0  0  0  0  0  0  0  0  0  0  0  0
    0.1410   -0.3210   -0.0630 O   0  0  0  0  0  0  0  0  0  0  0  0
    0.8620    0.6420   -0.8040 C   0  0  0  0  0  0  0  0  0  0  0  0
    2.3200    0.4720   -0.6610 C   0  0  0  0  0  0  0  0  0  0  0  0
    2.7580   -0.5200    0.1120 C   0  0  0  0  0  0  0  0  0  0  0  0
    4.2040   -0.7060    0.2670 C   0  0  0  0  0  0  0  0  0  0  0  0
    4.7120   -1.6630    1.0120 C   0  0  0  0  0  0  0  0  0  0  0  0
    3.8900   -2.5740    1.7130 N   0  0  0  0  0  0  0  0  0  0  0  0
    5.0570    0.2310   -0.4540 C   0  0  0  0  0  0  0  0  0  0  0  0
    6.3090    0.0930   -0.3380 O   0  0  0  0  0  0  0  0  0  0  0  0
    4.4890    1.2670   -1.2620 N   0  0  0  0  0  0  0  0  0  0  0  0
    3.2060    1.3800   -1.3600 C   0  0  0  0  0  0  0  0  0  0  0  0
    2.6050    2.4630   -2.2040 C   0  0  0  0  0  0  0  0  0  0  0  0
  1  2  1  0
  2  3  1  0
  3  4  2  0
  3 10  1  0
  4  5  1  0
  5  6  1  1
  5  7  1  0
  7  8  1  1
  7  9  1  0
  9 10  2  0
 10 11  1  0
 11 12  1  0
 12 13  1  0
 13 14  2  0
 13 21  1  0
 14 15  1  0
 15 16  2  3
 15 18  1  0
 16 17  1  0
 18 19  2  0
 18 20  1  0
 20 21  2  0
 21 22  1  0
M  CHG  1   8   1
M  END
