
     RDKit          3D

 25 26  0  0  0  0  0  0  0  0999 V2000
   -4.3730   -2.3670    0.4890 C   0  0  0  0  0  0  0  0  0  0  0  0
   -4.4280   -0.9370   -0.0210 C   0  0  1  0  0  0  0  0  0  0  0  0
   -5.7580   -0.7760   -0.7130 C   0  0  0  0  0  0  0  0  0  0  0  0
   -4.3370    0.0310    1.1060 C   0  0  0  0  0  0  0  0  0  0  0  0
   -3.3530   -0.7480   -1.0380 C   0  0  0  0  0  0  0  0  0  0  0  0
   -3.6870   -0.4150   -2.1870 O   0  0  0  0  0  0  0  0  0  0  0  0
   -1.9870   -0.9350   -0.7350 N   0  0  0  0  0  0  0  0  0  0  0  0
   -0.8800   -0.7930   -1.6010 C   0  0  0  0  0  0  0  0  0  0  0  0
   -1.0130   -0.5930   -2.9570 C   0  0  0  0  0  0  0  0  0  0  0  0
    0.1280   -0.5080   -3.7610 C   0  0  0  0  0  0  0  0  0  0  0  0
    1.3670   -0.6240   -3.2060 C   0  0  0  0  0  0  0  0  0  0  0  0
    1.5010   -0.8280   -1.8210 C   0  0  0  0  0  0  0  0  0  0  0  0
    2.7700   -0.9430   -1.3280 O   0  0  0  0  0  0  0  0  0  0  0  0
    0.4070   -0.9130   -1.0090 C   0  0  0  0  0  0  0  0  0  0  0  0
    0.3930   -1.1070    0.3500 O   0  0  0  0  0  0  0  0  0  0  0  0
    0.3260   -0.0840    1.2820 C   0  0  0  0  0  0  0  0  0  0  0  0
    1.4280    0.8490    1.4840 C   0  0  0  0  0  0  0  0  0  0  0  0
    1.1210    2.0380    1.8560 O   0  0  0  0  0  0  0  0  0  0  0  0
    2.8000    0.6030    1.3280 N   0  0  0  0  0  0  0  0  0  0  0  0
    3.8880    1.4790    1.4920 C   0  0  0  0  0  0  0  0  0  0  0  0
    3.7960    2.8060    1.7330 C   0  0  0  0  0  0  0  0  0  0  0  0
    4.9060    3.6310    1.8960 C   0  0  0  0  0  0  0  0  0  0  0  0
    6.1710    3.1070    1.8150 C   0  0  0  0  0  0  0  0  0  0  0  0
    6.3060    1.7570    1.5710 C   0  0  0  0  0  0  0  0  0  0  0  0
    5.1950    0.9670    1.4140 C   0  0  0  0  0  0  0  0  0  0  0  0
  2  1  1  1
  2  3  1  0
  2  4  1  0
  2  5  1  0
  5  6  2  0
  5  7  1  0
  7  8  1  0
  8  9  2  0
  8 14  1  0
  9 10  1  0
 10 11  2  0
 11 12  1  0
 12 13  1  0
 12 14  2  0
 14 15  1  0
 15 16  1  0
 16 17  1  0
 17 18  2  0
 17 19  1  0
 19 20  1  0
 20 21  2  0
 20 25  1  0
 21 22  1  0
 22 23  2  0
 23 24  1  0
 24 25  2  0
M  END
