
     RDKit          3D

 27 29  0  0  0  0  0  0  0  0999 V2000
    5.2940   -2.3530   -1.0110 C   0  0  0  0  0  0  0  0  0  0  0  0
    4.3360   -2.0140    0.0210 N   0  0  0  0  0  0  0  0  0  0  0  0
    4.0830   -0.6920    0.4470 C   0  0  0  0  0  0  0  0  0  0  0  0
    4.7090    0.2250   -0.0850 O   0  0  0  0  0  0  0  0  0  0  0  0
    3.0760   -0.3790    1.5270 C   0  0  2  0  0  0  0  0  0  0  0  0
    2.6980   -1.6200    2.0150 O   0  0  0  0  0  0  0  0  0  0  0  0
    1.3600   -1.8300    1.7880 C   0  0  0  0  0  0  0  0  0  0  0  0
    0.7570   -2.9170    2.1220 O   0  0  0  0  0  0  0  0  0  0  0  0
    0.8340   -0.6520    1.1420 C   0  0  0  0  0  0  0  0  0  0  0  0
   -0.4860   -0.3190    0.6850 C   0  0  0  0  0  0  0  0  0  0  0  0
   -1.6320   -0.9260    0.6880 C   0  0  0  0  0  0  0  0  0  0  0  0
   -1.9970   -2.1960    1.1700 N   0  0  0  0  0  0  0  0  0  0  0  0
   -3.4110   -2.3520    0.9080 C   0  0  0  0  0  0  0  0  0  0  0  0
   -4.0990   -3.3750    1.2040 O   0  0  0  0  0  0  0  0  0  0  0  0
   -3.9300   -1.1720    0.2600 C   0  0  0  0  0  0  0  0  0  0  0  0
   -5.0830   -0.5810   -0.2740 C   0  0  0  0  0  0  0  0  0  0  0  0
   -6.3930   -1.2520   -0.2810 C   0  0  0  0  0  0  0  0  0  0  0  0
   -4.7100    0.6230   -0.7240 N   0  0  0  0  0  0  0  0  0  0  0  0
   -3.3930    0.8070   -0.4980 C   0  0  0  0  0  0  0  0  0  0  0  0
   -2.6070    2.0120   -0.8520 C   0  0  0  0  0  0  0  0  0  0  0  0
   -2.8830   -0.3140    0.1220 C   0  0  0  0  0  0  0  0  0  0  0  0
    1.8840    0.2470    0.9880 C   0  0  0  0  0  0  0  0  0  0  0  0
    1.7150    1.4830    0.4200 O   0  0  0  0  0  0  0  0  0  0  0  0
    2.5740    2.2370   -0.2940 C   0  0  0  0  0  0  0  0  0  0  0  0
    1.9720    3.5510   -0.7360 C   0  0  0  0  0  0  0  0  0  0  0  0
    2.7720    4.4220   -1.4880 N   0  0  0  0  0  0  0  0  0  0  0  0
    0.8050    3.7980   -0.4150 O   0  0  0  0  0  0  0  0  0  0  0  0
  1  2  1  0
  2  3  1  0
  3  4  2  0
  5  3  1  6
  5  6  1  0
  5 22  1  0
  6  7  1  0
  7  8  2  0
  7  9  1  0
  9 10  1  0
  9 22  2  0
 10 11  2  3
 11 12  1  0
 11 21  1  0
 12 13  1  0
 13 14  2  0
 13 15  1  0
 15 16  2  0
 15 21  1  0
 16 17  1  0
 16 18  1  0
 18 19  1  0
 19 20  1  0
 19 21  2  0
 22 23  1  0
 23 24  1  0
 24 25  1  0
 25 26  1  0
 25 27  2  0
M  END
