
     RDKit          3D

 27 29  0  0  0  0  0  0  0  0999 V2000
   -6.3950    1.1490   -1.7940 C   0  0  0  0  0  0  0  0  0  0  0  0
   -6.0740    1.4480   -0.4160 O   0  0  0  0  0  0  0  0  0  0  0  0
   -4.8180    1.0300   -0.0150 C   0  0  0  0  0  0  0  0  0  0  0  0
   -3.7760    1.6250   -0.6400 C   0  0  0  0  0  0  0  0  0  0  0  0
   -2.4060    1.2770   -0.3180 C   0  0  0  0  0  0  0  0  0  0  0  0
   -2.0690    0.3830    0.5800 C   0  0  0  0  0  0  0  0  0  0  0  0
   -0.7690   -0.0350    0.9720 C   0  0  0  0  0  0  0  0  0  0  0  0
   -0.3900   -0.8370    1.7530 O   0  0  0  0  0  0  0  0  0  0  0  0
    0.4600    0.8050    0.1200 N   0  0  0  0  0  0  0  0  0  0  0  0
    1.5430    0.0750    0.6190 C   0  0  0  0  0  0  0  0  0  0  0  0
    1.6740   -0.8300    1.3670 O   0  0  0  0  0  0  0  0  0  0  0  0
    2.8050    0.6460   -0.0010 N   0  0  0  0  0  0  0  0  0  0  0  0
    4.0120    0.0420    0.3770 C   0  0  2  0  0  0  0  0  0  0  0  0
    5.2250    0.8710    0.6150 C   0  0  0  0  0  0  0  0  0  0  0  0
    5.1210    0.1510   -0.6490 C   0  0  1  0  0  0  0  0  0  0  0  0
    5.8430   -1.1530   -0.8970 C   0  0  1  0  0  0  0  0  0  0  0  0
    6.9510   -0.8250   -1.9060 C   0  0  0  0  0  0  0  0  0  0  0  0
    7.9520   -0.1940   -0.9640 C   0  0  0  0  0  0  0  0  0  0  0  0
    7.8200   -0.7960    0.2710 O   0  0  0  0  0  0  0  0  0  0  0  0
    6.6890   -1.5840    0.2720 C   0  0  0  0  0  0  0  0  0  0  0  0
   -3.1350   -0.2370    1.2350 O   0  0  0  0  0  0  0  0  0  0  0  0
   -4.5050    0.0460    0.9780 C   0  0  0  0  0  0  0  0  0  0  0  0
   -5.3690   -0.6260    1.6820 C   0  0  0  0  0  0  0  0  0  0  0  0
   -6.6540   -0.8910    1.9840 N   0  0  0  0  0  0  0  0  0  0  0  0
   -7.9130   -0.4770    1.5970 C   0  0  0  0  0  0  0  0  0  0  0  0
   -9.1260   -1.0260    2.1740 N   0  0  0  0  0  0  0  0  0  0  0  0
   -8.0980    0.3800    0.7440 O   0  0  0  0  0  0  0  0  0  0  0  0
  1  2  1  0
  2  3  1  0
  3  4  2  0
  3 22  1  0
  4  5  1  0
  5  6  2  0
  6  7  1  0
  6 21  1  0
  7  8  2  0
  7  9  1  0
  9 10  1  0
 10 11  2  0
 10 12  1  0
 13 12  1  6
 13 14  1  0
 13 15  1  0
 15 14  1  1
 15 16  1  0
 16 17  1  6
 16 20  1  0
 17 18  1  0
 18 19  1  0
 19 20  1  0
 21 22  1  0
 22 23  2  3
 23 24  1  0
 24 25  1  0
 25 26  1  0
 25 27  2  0
M  END
