
     RDKit          3D

 27 28  0  0  0  0  0  0  0  0999 V2000
    4.5160    1.3720   -1.4930 C   0  0  0  0  0  0  0  0  0  0  0  0
    4.1370   -0.0370   -1.8000 C   0  0  0  0  0  0  0  0  0  0  0  0
    2.8940   -0.4760   -1.1040 C   0  0  0  0  0  0  0  0  0  0  0  0
    1.8300   -0.8800   -1.7560 C   0  0  0  0  0  0  0  0  0  0  0  0
    0.6260   -1.3060   -1.0670 C   0  0  0  0  0  0  0  0  0  0  0  0
   -0.4500   -1.7140   -1.7580 C   0  0  0  0  0  0  0  0  0  0  0  0
   -0.2810   -1.6770   -3.2000 N   0  0  0  0  0  0  0  0  0  0  0  0
   -1.6650   -2.1980   -1.2930 N   0  0  0  0  0  0  0  0  0  0  0  0
   -2.6200   -1.7130   -0.3530 C   0  0  0  0  0  0  0  0  0  0  0  0
   -3.1810   -2.4330    0.6160 C   0  0  0  0  0  0  0  0  0  0  0  0
   -4.1050   -1.5680    1.3590 C   0  0  0  0  0  0  0  0  0  0  0  0
   -3.9920   -0.2800    0.6730 C   0  0  0  0  0  0  0  0  0  0  0  0
   -3.1260   -0.3360   -0.3340 C   0  0  0  0  0  0  0  0  0  0  0  0
   -2.7300    0.7260   -1.2460 C   0  0  0  0  0  0  0  0  0  0  0  0
   -3.7190    1.4040   -1.7310 O   0  0  0  0  0  0  0  0  0  0  0  0
   -1.4420    1.1060   -1.6630 N   0  0  0  0  0  0  0  0  0  0  0  0
   -0.3300    1.4750   -0.9300 N   0  0  0  0  0  0  0  0  0  0  0  0
   -0.1920    1.6450    0.4690 C   0  0  0  0  0  0  0  0  0  0  0  0
    0.2650    2.7670    0.9350 O   0  0  0  0  0  0  0  0  0  0  0  0
   -0.5110    0.6740    1.5330 C   0  0  2  0  0  0  0  0  0  0  0  0
    0.2360    1.0070    2.8040 C   0  0  0  0  0  0  0  0  0  0  0  0
    0.9070    0.0900    3.3260 O   0  0  0  0  0  0  0  0  0  0  0  0
    0.1910    2.2530    3.3760 O   0  0  0  0  0  0  0  0  0  0  0  0
    0.9200    2.4880    4.5710 C   0  0  0  0  0  0  0  0  0  0  0  0
   -0.2660   -0.6400    1.2220 O   0  0  0  0  0  0  0  0  0  0  0  0
    0.6110   -1.2730    0.3990 C   0  0  0  0  0  0  0  0  0  0  0  0
    1.5550   -1.9360    0.9830 O   0  0  0  0  0  0  0  0  0  0  0  0
  1  2  1  0
  2  3  1  0
  3  4  2  3
  4  5  1  0
  5  6  2  0
  5 26  1  0
  6  7  1  0
  6  8  1  0
  8  9  1  0
  9 10  2  0
  9 13  1  0
 10 11  1  0
 11 12  1  0
 12 13  2  0
 13 14  1  0
 14 15  2  0
 14 16  1  0
 16 17  1  0
 17 18  1  0
 18 19  2  0
 18 20  1  0
 20 21  1  1
 20 25  1  0
 21 22  2  0
 21 23  1  0
 23 24  1  0
 25 26  1  0
 26 27  2  0
M  END
