
     RDKit          3D

 27 29  0  0  0  0  0  0  0  0999 V2000
    7.9940   -0.9980    1.0010 C   0  0  0  0  0  0  0  0  0  0  0  0
    6.7810   -0.8870    0.3570 O   0  0  0  0  0  0  0  0  0  0  0  0
    6.5400   -0.4370   -0.8960 C   0  0  0  0  0  0  0  0  0  0  0  0
    7.4860   -0.0760   -1.6120 O   0  0  0  0  0  0  0  0  0  0  0  0
    5.1580   -0.3600   -1.4000 C   0  0  0  0  0  0  0  0  0  0  0  0
    4.1580   -0.7960   -0.6260 C   0  0  0  0  0  0  0  0  0  0  0  0
    4.2730   -1.4000    0.7150 C   0  0  0  0  0  0  0  0  0  0  0  0
    3.9810   -0.2880    1.6150 O   0  0  0  0  0  0  0  0  0  0  0  0
    2.6710    0.2130    1.4150 C   0  0  0  0  0  0  0  0  0  0  0  0
    2.0680    0.6840    2.4140 O   0  0  0  0  0  0  0  0  0  0  0  0
    2.0670    0.1710    0.0940 C   0  0  0  0  0  0  0  0  0  0  0  0
    2.7780   -0.3440   -0.9660 C   0  0  0  0  0  0  0  0  0  0  0  0
    2.0710   -0.3040   -2.0650 N   0  0  0  0  0  0  0  0  0  0  0  0
    0.8520    0.2550   -1.7440 C   0  0  0  0  0  0  0  0  0  0  0  0
   -0.1800    0.5370   -2.7490 C   0  0  0  0  0  0  0  0  0  0  0  0
    0.7990    0.5740   -0.4040 C   0  0  0  0  0  0  0  0  0  0  0  0
   -0.0800    1.3840    0.4170 C   0  0  0  0  0  0  0  0  0  0  0  0
   -1.2910    0.9430    0.9220 N   0  0  0  0  0  0  0  0  0  0  0  0
   -2.4280    0.2990    0.4610 C   0  0  0  0  0  0  0  0  0  0  0  0
   -2.4570   -0.0690   -0.7280 O   0  0  0  0  0  0  0  0  0  0  0  0
   -3.5540    0.0670    1.3570 N   0  0  0  0  0  0  0  0  0  0  0  0
   -4.7250   -0.6470    0.9040 C   0  0  1  0  0  0  0  0  0  0  0  0
   -5.8710   -0.4110    1.8160 C   0  0  0  0  0  0  0  0  0  0  0  0
   -6.9980   -0.4540    0.9910 O   0  0  0  0  0  0  0  0  0  0  0  0
   -6.6820    0.1350   -0.2060 C   0  0  1  0  0  0  0  0  0  0  0  0
   -7.1250    1.5360   -0.2710 N   0  0  0  0  0  0  0  0  0  0  0  0
   -5.2120    0.0300   -0.4090 C   0  0  0  0  0  0  0  0  0  0  0  0
  1  2  1  0
  2  3  1  0
  3  4  2  0
  3  5  1  0
  5  6  2  3
  6  7  1  0
  6 12  1  0
  7  8  1  0
  8  9  1  0
  9 10  2  0
  9 11  1  0
 11 12  2  0
 11 16  1  0
 12 13  1  0
 13 14  1  0
 14 15  1  0
 14 16  2  0
 16 17  1  0
 17 18  1  0
 18 19  1  0
 19 20  2  0
 19 21  1  0
 22 21  1  1
 22 23  1  0
 22 27  1  0
 23 24  1  0
 24 25  1  0
 25 26  1  1
 25 27  1  0
M  END
