
     RDKit          3D

 27 29  0  0  0  0  0  0  0  0999 V2000
   -5.6400    1.6190    1.5730 C   0  0  0  0  0  0  0  0  0  0  0  0
   -5.5130    0.6580    0.4500 C   0  0  0  0  0  0  0  0  0  0  0  0
   -4.3420    0.1800    0.1060 C   0  0  0  0  0  0  0  0  0  0  0  0
   -3.1790    0.5470    0.7710 O   0  0  0  0  0  0  0  0  0  0  0  0
   -1.9890    0.5020   -0.0120 C   0  0  1  0  0  0  0  0  0  0  0  0
   -0.8120    0.8160    0.8880 C   0  0  0  0  0  0  0  0  0  0  0  0
    0.3940    0.7900    0.0980 N   0  0  0  0  0  0  0  0  0  0  0  0
    1.6200    1.0600    0.7820 C   0  0  0  0  0  0  0  0  0  0  0  0
    1.6080    1.3040    2.0140 O   0  0  0  0  0  0  0  0  0  0  0  0
    2.9250    1.0610    0.0760 C   0  0  1  0  0  0  0  0  0  0  0  0
    2.8170    2.1410   -0.9900 C   0  0  0  0  0  0  0  0  0  0  0  0
    3.9650    1.3660    1.0310 N   0  0  0  0  0  0  0  0  0  0  0  0
    4.5870    0.2850    1.7440 C   0  0  0  0  0  0  0  0  0  0  0  0
    5.0600    0.4890    2.9020 O   0  0  0  0  0  0  0  0  0  0  0  0
    4.7060   -1.0660    1.1920 C   0  0  2  0  0  0  0  0  0  0  0  0
    6.1240   -1.2970    0.6990 C   0  0  0  0  0  0  0  0  0  0  0  0
    6.4150   -0.4650   -0.3710 O   0  0  0  0  0  0  0  0  0  0  0  0
    3.7430   -1.3350    0.1320 N   0  0  0  0  0  0  0  0  0  0  0  0
    3.1390   -0.2680   -0.5610 C   0  0  0  0  0  0  0  0  0  0  0  0
    2.7640   -0.4210   -1.7460 O   0  0  0  0  0  0  0  0  0  0  0  0
   -1.7680   -0.8690   -0.5910 C   0  0  0  0  0  0  0  0  0  0  0  0
   -2.9410   -1.2630   -1.3400 N   0  0  0  0  0  0  0  0  0  0  0  0
   -3.0890   -2.1570   -2.4640 C   0  0  0  0  0  0  0  0  0  0  0  0
   -2.1100   -2.7380   -2.9990 O   0  0  0  0  0  0  0  0  0  0  0  0
   -4.5220   -2.2140   -2.7970 C   0  0  0  0  0  0  0  0  0  0  0  0
   -5.1380   -1.2870   -1.8240 C   0  0  0  0  0  0  0  0  0  0  0  0
   -4.2280   -0.7750   -1.0100 C   0  0  0  0  0  0  0  0  0  0  0  0
  1  2  1  0
  2  3  2  3
  3  4  1  0
  3 27  1  0
  4  5  1  0
  5  6  1  1
  5 21  1  0
  6  7  1  0
  7  8  1  0
  8  9  2  0
  8 10  1  0
 10 11  1  6
 10 12  1  0
 10 19  1  0
 12 13  1  0
 13 14  2  0
 13 15  1  0
 15 16  1  6
 15 18  1  0
 16 17  1  0
 18 19  1  0
 19 20  2  0
 21 22  1  0
 22 23  1  0
 22 27  1  0
 23 24  2  0
 23 25  1  0
 25 26  1  0
 26 27  2  0
M  END
