
     RDKit          3D

 24 25  0  0  0  0  0  0  0  0999 V2000
   -4.0450   -2.3380    0.4950 C   0  0  0  0  0  0  0  0  0  0  0  0
   -3.1540   -1.6410   -0.4820 C   0  0  0  0  0  0  0  0  0  0  0  0
   -2.4360   -0.5210    0.0840 N   0  0  1  0  0  0  0  0  0  0  0  0
   -1.1390   -0.4600   -0.5300 C   0  0  0  0  0  0  0  0  0  0  0  0
   -0.0560   -0.9740    0.3050 C   0  0  0  0  0  0  0  0  0  0  0  0
   -0.2770   -1.4230    1.4550 O   0  0  0  0  0  0  0  0  0  0  0  0
    1.2660   -0.9660   -0.1890 N   0  0  0  0  0  0  0  0  0  0  0  0
    1.4770   -0.4370   -1.5240 C   0  0  0  0  0  0  0  0  0  0  0  0
    2.9370   -0.6410   -1.8680 C   0  0  0  0  0  0  0  0  0  0  0  0
    3.7290    0.0750   -0.7940 C   0  0  1  0  0  0  0  0  0  0  0  0
    3.6090   -0.6750    0.5050 C   0  0  1  0  0  0  0  0  0  0  0  0
    3.7520    0.2590    1.7020 C   0  0  0  0  0  0  0  0  0  0  0  0
    5.1010    0.7770    1.8030 N   0  0  0  0  0  0  0  0  0  0  0  0
    6.1370    0.9310    0.8570 C   0  0  0  0  0  0  0  0  0  0  0  0
    7.2130    1.4520    1.2470 O   0  0  0  0  0  0  0  0  0  0  0  0
    6.1030    0.5430   -0.5590 C   0  0  0  0  0  0  0  0  0  0  0  0
    5.0890    0.1830   -1.2530 N   0  0  0  0  0  0  0  0  0  0  0  0
    5.3750   -0.1220   -2.5660 O   0  0  0  0  0  0  0  0  0  0  0  0
    2.3510   -1.4720    0.6260 C   0  0  0  0  0  0  0  0  0  0  0  0
   -3.0930    0.7370   -0.1550 C   0  0  2  0  0  0  0  0  0  0  0  0
   -2.9210    1.1740   -1.5760 C   0  0  0  0  0  0  0  0  0  0  0  0
   -2.4460    1.7590    0.7650 C   0  0  0  0  0  0  0  0  0  0  0  0
   -4.5660    0.6960    0.1650 C   0  0  0  0  0  0  0  0  0  0  0  0
   -5.1320    2.0690   -0.1260 C   0  0  0  0  0  0  0  0  0  0  0  0
  1  2  1  0
  3  2  1  6
  3  4  1  0
  3 20  1  0
  4  5  1  0
  5  6  2  0
  5  7  1  0
  7  8  1  0
  7 19  1  0
  8  9  1  0
 10  9  1  6
 10 11  1  0
 10 17  1  0
 11 12  1  1
 11 19  1  0
 12 13  1  0
 13 14  1  0
 14 15  2  0
 14 16  1  0
 16 17  2  0
 17 18  1  0
 20 21  1  6
 20 22  1  0
 20 23  1  0
 23 24  1  0
M  CHG  3   3   1  17   1  18  -1
M  END
