
     RDKit          3D

 25 26  0  0  0  0  0  0  0  0999 V2000
   -2.9070    1.6920    3.8860 C   0  0  0  0  0  0  0  0  0  0  0  0
   -3.1620    2.0420    2.4570 C   0  0  0  0  0  0  0  0  0  0  0  0
   -2.1330    1.3530    1.5480 C   0  0  0  0  0  0  0  0  0  0  0  0
   -2.6310    0.5330    0.6500 C   0  0  0  0  0  0  0  0  0  0  0  0
   -4.0320    0.3210    0.5530 O   0  0  0  0  0  0  0  0  0  0  0  0
   -4.2850   -0.5740   -0.4360 C   0  0  0  0  0  0  0  0  0  0  0  0
   -2.9610   -0.9330   -1.0130 C   0  0  0  0  0  0  0  0  0  0  0  0
   -2.8860   -1.7900   -2.1830 C   0  0  0  0  0  0  0  0  0  0  0  0
   -3.9310   -2.4150   -2.7200 C   0  0  0  0  0  0  0  0  0  0  0  0
   -5.2400   -2.3370   -2.2380 N   0  0  0  0  0  0  0  0  0  0  0  0
   -1.6940   -2.0360   -2.9630 N   0  0  0  0  0  0  0  0  0  0  0  0
   -1.3380   -1.1170   -3.7260 O   0  0  0  0  0  0  0  0  0  0  0  0
   -1.0490   -3.2430   -2.8750 O   0  0  0  0  0  0  0  0  0  0  0  0
   -1.9760   -0.2770   -0.3590 C   0  0  0  0  0  0  0  0  0  0  0  0
   -0.6210   -0.5080   -0.6440 N   0  0  0  0  0  0  0  0  0  0  0  0
    0.5580    0.0370   -0.1410 C   0  0  0  0  0  0  0  0  0  0  0  0
    0.5430    0.8990    0.7180 O   0  0  0  0  0  0  0  0  0  0  0  0
    1.9160   -0.3960   -0.6190 C   0  0  1  0  0  0  0  0  0  0  0  0
    2.0920    0.0340   -2.0610 C   0  0  0  0  0  0  0  0  0  0  0  0
    3.5970   -0.0080   -2.2140 C   0  0  0  0  0  0  0  0  0  0  0  0
    4.1240   -0.0410   -0.7930 C   0  0  0  0  0  0  0  0  0  0  0  0
    2.9630    0.3000    0.0460 N   0  0  2  0  0  0  0  0  0  0  0  0
    3.1930   -0.1410    1.4080 C   0  0  0  0  0  0  0  0  0  0  0  0
    4.5110    0.3960    1.9140 C   0  0  0  0  0  0  0  0  0  0  0  0
    4.5900    1.8850    1.9220 C   0  0  0  0  0  0  0  0  0  0  0  0
  1  2  1  0
  2  3  1  0
  3  4  2  3
  4  5  1  0
  4 14  1  0
  5  6  1  0
  6  7  1  0
  7  8  1  0
  7 14  2  0
  8  9  2  3
  8 11  1  0
  9 10  1  0
 11 12  2  0
 11 13  1  0
 14 15  1  0
 15 16  1  0
 16 17  2  0
 18 16  1  1
 18 19  1  0
 18 22  1  0
 19 20  1  0
 20 21  1  0
 21 22  1  0
 22 23  1  1
 23 24  1  0
 24 25  1  0
M  CHG  3  11   1  13  -1  22   1
M  END
