
     RDKit          3D

 25 25  0  0  0  0  0  0  0  0999 V2000
   -5.0410   -2.4510   -0.3030 C   0  0  0  0  0  0  0  0  0  0  0  0
   -4.5630   -1.1380    0.2840 C   0  0  0  0  0  0  0  0  0  0  0  0
   -3.8280   -1.4720    1.5600 C   0  0  0  0  0  0  0  0  0  0  0  0
   -3.3040   -0.1900    2.2330 C   0  0  0  0  0  0  0  0  0  0  0  0
   -2.3610    0.5010    1.2630 C   0  0  0  0  0  0  0  0  0  0  0  0
   -1.2920   -0.3280    0.8400 N   0  0  0  0  0  0  0  0  0  0  0  0
   -0.2510    0.0370   -0.0140 C   0  0  0  0  0  0  0  0  0  0  0  0
   -0.1940    1.1770   -0.4810 O   0  0  0  0  0  0  0  0  0  0  0  0
    0.8200   -0.9400   -0.3850 C   0  0  0  0  0  0  0  0  0  0  0  0
    1.8410   -0.3010   -1.3040 C   0  0  1  0  0  0  0  0  0  0  0  0
    2.4320    0.8500   -0.5490 C   0  0  0  0  0  0  0  0  0  0  0  0
    2.2320    1.9730   -1.0170 O   0  0  0  0  0  0  0  0  0  0  0  0
    3.1870    0.7760    0.6320 N   0  0  0  0  0  0  0  0  0  0  0  0
    3.4000    2.0160    1.3250 C   0  0  0  0  0  0  0  0  0  0  0  0
    2.3250    2.3270    2.3450 C   0  0  0  0  0  0  0  0  0  0  0  0
    3.7390   -0.3050    1.2000 O   0  0  0  0  0  0  0  0  0  0  0  0
    4.5480   -0.9280    0.2880 C   0  0  0  0  0  0  0  0  0  0  0  0
    4.1870   -0.7710   -1.1460 C   0  0  0  0  0  0  0  0  0  0  0  0
    2.8910   -1.2960   -1.5190 N   0  0  2  0  0  0  0  0  0  0  0  0
    2.8970   -1.6060   -2.9240 C   0  0  0  0  0  0  0  0  0  0  0  0
    3.8390   -0.7650   -3.7310 C   0  0  0  0  0  0  0  0  0  0  0  0
   -2.4820    1.6960    0.8900 N   0  0  0  0  0  0  0  0  0  0  0  0
   -1.6790    2.3710    0.0230 O   0  0  0  0  0  0  0  0  0  0  0  0
   -3.5660    2.5620    1.3960 C   0  0  0  0  0  0  0  0  0  0  0  0
   -4.4620    2.8770    0.2270 C   0  0  0  0  0  0  0  0  0  0  0  0
  1  2  1  0
  2  3  1  0
  3  4  1  0
  4  5  1  0
  5  6  1  0
  5 22  2  3
  6  7  1  0
  7  8  2  0
  7  9  1  0
 10  9  1  1
 10 11  1  0
 10 19  1  0
 11 12  2  0
 11 13  1  0
 13 14  1  0
 13 16  1  0
 14 15  1  0
 16 17  1  0
 17 18  1  0
 18 19  1  0
 19 20  1  6
 20 21  1  0
 22 23  1  0
 22 24  1  0
 24 25  1  0
M  CHG  3  19   1  22   1  23  -1
M  END
