
     RDKit          3D

 25 26  0  0  0  0  0  0  0  0999 V2000
   -8.0740    0.2500    2.1410 C   0  0  0  0  0  0  0  0  0  0  0  0
   -6.5880    0.1770    1.8030 C   0  0  0  0  0  0  0  0  0  0  0  0
   -6.4490    0.4890    0.3480 C   0  0  1  0  0  0  0  0  0  0  0  0
   -6.9670    1.7900    0.1580 O   0  0  0  0  0  0  0  0  0  0  0  0
   -5.0210    0.5270   -0.1230 C   0  0  0  0  0  0  0  0  0  0  0  0
   -4.2990   -0.7650    0.0720 C   0  0  0  0  0  0  0  0  0  0  0  0
   -2.9210   -0.5490   -0.4410 N   0  0  0  0  0  0  0  0  0  0  0  0
   -2.7470   -0.8460   -1.8340 C   0  0  0  0  0  0  0  0  0  0  0  0
   -1.9120   -0.0900    0.4050 C   0  0  0  0  0  0  0  0  0  0  0  0
   -2.2950    0.1230    1.6450 O   0  0  0  0  0  0  0  0  0  0  0  0
   -0.5350    0.1950    0.1760 C   0  0  0  0  0  0  0  0  0  0  0  0
    0.1830    0.1030   -0.9070 C   0  0  0  0  0  0  0  0  0  0  0  0
    1.6200    0.4520   -0.9380 C   0  0  0  0  0  0  0  0  0  0  0  0
    2.3670    0.8920    0.0910 N   0  0  0  0  0  0  0  0  0  0  0  0
    3.6260    1.0990   -0.3290 C   0  0  0  0  0  0  0  0  0  0  0  0
    4.7490    1.5850    0.5080 C   0  0  0  0  0  0  0  0  0  0  0  0
    5.5050    0.5470    1.1270 N   0  0  1  0  0  0  0  0  0  0  0  0
    4.7430   -0.5160    1.6990 C   0  0  0  0  0  0  0  0  0  0  0  0
    5.4850   -1.8470    1.5200 C   0  0  0  0  0  0  0  0  0  0  0  0
    6.8220   -1.6680    1.8580 O   0  0  0  0  0  0  0  0  0  0  0  0
    7.4550   -0.8620    0.9090 C   0  0  0  0  0  0  0  0  0  0  0  0
    6.4880    0.0090    0.1730 C   0  0  0  0  0  0  0  0  0  0  0  0
    3.6250    0.7760   -1.6330 N   0  0  0  0  0  0  0  0  0  0  0  0
    2.4160    0.3870   -1.9940 N   0  0  0  0  0  0  0  0  0  0  0  0
    2.0710   -0.0320   -3.3380 C   0  0  0  0  0  0  0  0  0  0  0  0
  1  2  1  0
  2  3  1  0
  3  4  1  1
  3  5  1  0
  5  6  1  0
  6  7  1  0
  7  8  1  0
  7  9  1  0
  9 10  2  0
  9 11  1  0
 11 12  2  3
 12 13  1  0
 13 14  2  0
 13 24  1  0
 14 15  1  0
 15 16  1  0
 15 23  2  0
 17 16  1  6
 17 18  1  0
 17 22  1  0
 18 19  1  0
 19 20  1  0
 20 21  1  0
 21 22  1  0
 23 24  1  0
 24 25  1  0
M  CHG  1  17   1
M  END
