
     RDKit          3D

 25 26  0  0  0  0  0  0  0  0999 V2000
   -0.9100   -3.8690    0.9120 C   0  0  0  0  0  0  0  0  0  0  0  0
   -1.1510   -2.4290    1.1440 C   0  0  0  0  0  0  0  0  0  0  0  0
   -1.3040   -1.5580   -0.0600 C   0  0  1  0  0  0  0  0  0  0  0  0
   -0.1980   -1.4940   -0.9460 N   0  0  0  0  0  0  0  0  0  0  0  0
    1.0710   -1.9250   -0.5070 C   0  0  0  0  0  0  0  0  0  0  0  0
    1.8900   -0.7630   -0.0400 C   0  0  0  0  0  0  0  0  0  0  0  0
    2.2560   -0.4230    1.2300 C   0  0  0  0  0  0  0  0  0  0  0  0
    2.9660    0.6640    1.1560 O   0  0  0  0  0  0  0  0  0  0  0  0
    3.0710    1.0350   -0.0980 C   0  0  0  0  0  0  0  0  0  0  0  0
    3.8090    2.2410   -0.6190 C   0  0  0  0  0  0  0  0  0  0  0  0
    5.2260    1.7800   -0.9070 C   0  0  1  0  0  0  0  0  0  0  0  0
    6.0460    2.9230   -1.4330 C   0  0  0  0  0  0  0  0  0  0  0  0
    5.8440    1.2280    0.3410 C   0  0  0  0  0  0  0  0  0  0  0  0
    2.4050    0.1560   -0.8610 N   0  0  0  0  0  0  0  0  0  0  0  0
   -2.6160   -1.8140   -0.7920 C   0  0  0  0  0  0  0  0  0  0  0  0
   -3.6070   -1.2330    0.1540 C   0  0  2  0  0  0  0  0  0  0  0  0
   -4.9610   -0.9990   -0.4850 C   0  0  0  0  0  0  0  0  0  0  0  0
   -2.9830    0.0070    0.5550 N   0  0  0  0  0  0  0  0  0  0  0  0
   -3.6630    1.1940    1.0020 C   0  0  0  0  0  0  0  0  0  0  0  0
   -3.9990    2.1270   -0.1400 C   0  0  0  0  0  0  0  0  0  0  0  0
   -4.6800    3.2970    0.3720 N   0  0  0  0  0  0  0  0  0  0  0  0
   -4.8950    3.4030    1.5950 O   0  0  0  0  0  0  0  0  0  0  0  0
   -5.1090    4.3180   -0.4390 O   0  0  0  0  0  0  0  0  0  0  0  0
   -1.5780   -0.1730    0.4230 C   0  0  0  0  0  0  0  0  0  0  0  0
   -0.7030    0.7200    0.6800 O   0  0  0  0  0  0  0  0  0  0  0  0
  1  2  1  0
  3  2  1  1
  3  4  1  0
  3 15  1  0
  3 24  1  0
  4  5  1  0
  5  6  1  0
  6  7  2  0
  6 14  1  0
  7  8  1  0
  8  9  1  0
  9 10  1  0
  9 14  2  0
 10 11  1  0
 11 12  1  1
 11 13  1  0
 15 16  1  0
 16 17  1  6
 16 18  1  0
 18 19  1  0
 18 24  1  0
 19 20  1  0
 20 21  1  0
 21 22  2  0
 21 23  1  0
 24 25  2  0
M  CHG  3   4   1  21   1  23  -1
M  END
