
     RDKit          3D

 25 27  0  0  0  0  0  0  0  0999 V2000
   -5.7630   -2.3710    0.4350 C   0  0  0  0  0  0  0  0  0  0  0  0
   -4.3890   -2.1650    0.9740 C   0  0  0  0  0  0  0  0  0  0  0  0
   -3.8170   -0.8860    0.5160 N   0  0  2  0  0  0  0  0  0  0  0  0
   -4.3750   -0.7380   -0.8420 C   0  0  0  0  0  0  0  0  0  0  0  0
   -2.4200   -0.9520    0.3870 C   0  0  0  0  0  0  0  0  0  0  0  0
   -1.6040    0.2400    0.4380 C   0  0  0  0  0  0  0  0  0  0  0  0
   -0.1990    0.2590    0.3200 C   0  0  0  0  0  0  0  0  0  0  0  0
    0.5900   -0.9760    0.1240 C   0  0  0  0  0  0  0  0  0  0  0  0
    1.9960   -0.7500    0.0280 N   0  0  1  0  0  0  0  0  0  0  0  0
    2.6700   -1.9360    0.2000 O   0  0  0  0  0  0  0  0  0  0  0  0
    2.3230   -0.3200   -1.3230 C   0  0  0  0  0  0  0  0  0  0  0  0
    3.6270    0.4070   -1.3100 C   0  0  0  0  0  0  0  0  0  0  0  0
    4.6020   -0.0560   -0.2780 C   0  0  2  0  0  0  0  0  0  0  0  0
    4.0280   -0.1690    1.1090 C   0  0  0  0  0  0  0  0  0  0  0  0
    2.5350    0.1690    0.9770 C   0  0  0  0  0  0  0  0  0  0  0  0
    5.6910    0.8130   -0.2950 O   0  0  0  0  0  0  0  0  0  0  0  0
    6.8100    0.0580   -0.0130 C   0  0  0  0  0  0  0  0  0  0  0  0
    6.4530   -1.3100   -0.4870 C   0  0  0  0  0  0  0  0  0  0  0  0
    5.0900   -1.3060   -0.6290 O   0  0  0  0  0  0  0  0  0  0  0  0
    0.2060    1.5220    0.4150 N   0  0  0  0  0  0  0  0  0  0  0  0
   -0.8120    2.3140    0.5850 N   0  0  0  0  0  0  0  0  0  0  0  0
   -1.9520    1.5530    0.6030 C   0  0  0  0  0  0  0  0  0  0  0  0
   -3.2530    2.1640    0.8420 C   0  0  0  0  0  0  0  0  0  0  0  0
   -3.1510    3.5570    0.8550 O   0  0  0  0  0  0  0  0  0  0  0  0
   -2.9020    3.9990   -0.4370 C   0  0  0  0  0  0  0  0  0  0  0  0
  1  2  1  0
  2  3  1  0
  3  4  1  6
  3  5  1  0
  5  6  1  0
  6  7  1  0
  6 22  2  0
  7  8  1  0
  7 20  2  0
  8  9  1  0
  9 10  1  1
  9 11  1  0
  9 15  1  0
 11 12  1  0
 13 12  1  6
 13 14  1  0
 13 16  1  0
 13 19  1  0
 14 15  1  0
 16 17  1  0
 17 18  1  0
 18 19  1  0
 20 21  1  0
 21 22  1  0
 22 23  1  0
 23 24  1  0
 24 25  1  0
M  CHG  3   3   1   9   1  10  -1
M  END
