
     RDKit          3D

 25 26  0  0  0  0  0  0  0  0999 V2000
    8.7040   -1.2850   -1.4540 C   0  0  0  0  0  0  0  0  0  0  0  0
    7.8370   -0.2460   -0.7380 C   0  0  0  0  0  0  0  0  0  0  0  0
    6.5110   -0.7640   -0.7880 O   0  0  0  0  0  0  0  0  0  0  0  0
    5.4630   -0.0770   -0.2300 C   0  0  0  0  0  0  0  0  0  0  0  0
    5.7250    1.0260    0.3260 O   0  0  0  0  0  0  0  0  0  0  0  0
    4.0850   -0.5440   -0.2440 C   0  0  0  0  0  0  0  0  0  0  0  0
    3.7900   -1.6440   -0.7990 O   0  0  0  0  0  0  0  0  0  0  0  0
    3.0590    0.2280    0.3650 N   0  0  0  0  0  0  0  0  0  0  0  0
    1.6930   -0.2440    0.3470 C   0  0  0  0  0  0  0  0  0  0  0  0
    0.7520    0.7240    1.0490 C   0  0  2  0  0  0  0  0  0  0  0  0
   -0.6510    0.1940    1.0120 C   0  0  0  0  0  0  0  0  0  0  0  0
   -1.4590    0.6070   -0.0630 N   0  0  0  0  0  0  0  0  0  0  0  0
   -1.8800   -0.3620   -1.0050 C   0  0  0  0  0  0  0  0  0  0  0  0
   -2.6810   -1.4360   -0.4810 N   0  0  2  0  0  0  0  0  0  0  0  0
   -3.5820   -1.9680   -1.5000 C   0  0  0  0  0  0  0  0  0  0  0  0
   -4.7950   -1.0680   -1.6120 C   0  0  0  0  0  0  0  0  0  0  0  0
   -5.6380   -1.3090   -0.3780 C   0  0  2  0  0  0  0  0  0  0  0  0
   -6.4250   -0.0790    0.0120 C   0  0  0  0  0  0  0  0  0  0  0  0
   -4.7360   -1.7680    0.7300 C   0  0  0  0  0  0  0  0  0  0  0  0
   -3.3880   -1.0760    0.7150 C   0  0  0  0  0  0  0  0  0  0  0  0
   -1.3020    1.9390   -0.4930 C   0  0  0  0  0  0  0  0  0  0  0  0
   -0.3070    2.7520    0.2680 C   0  0  0  0  0  0  0  0  0  0  0  0
    0.9230    2.0470    0.5460 N   0  0  1  0  0  0  0  0  0  0  0  0
    1.6500    2.8190    1.5390 C   0  0  0  0  0  0  0  0  0  0  0  0
    1.7250    2.0290   -0.5720 O   0  0  0  0  0  0  0  0  0  0  0  0
  1  2  1  0
  2  3  1  0
  3  4  1  0
  4  5  2  0
  4  6  1  0
  6  7  2  0
  6  8  1  0
  8  9  1  0
 10  9  1  6
 10 11  1  0
 10 23  1  0
 11 12  1  0
 12 13  1  0
 12 21  1  0
 14 13  1  6
 14 15  1  0
 14 20  1  0
 15 16  1  0
 16 17  1  0
 17 18  1  1
 17 19  1  0
 19 20  1  0
 21 22  1  0
 22 23  1  0
 23 24  1  1
 23 25  1  0
M  CHG  3  14   1  23   1  25  -1
M  END
