
     RDKit          3D

 25 26  0  0  0  0  0  0  0  0999 V2000
   -6.0760   -2.0840   -0.4540 C   0  0  0  0  0  0  0  0  0  0  0  0
   -5.9180   -1.2370    0.8120 C   0  0  0  0  0  0  0  0  0  0  0  0
   -5.7120    0.1940    0.4450 C   0  0  0  0  0  0  0  0  0  0  0  0
   -6.6030    1.1720    0.5170 O   0  0  0  0  0  0  0  0  0  0  0  0
   -6.0920    2.2930    0.1200 N   0  0  0  0  0  0  0  0  0  0  0  0
   -6.7510    3.4900    0.0730 O   0  0  0  0  0  0  0  0  0  0  0  0
   -4.8070    2.0840   -0.2390 C   0  0  0  0  0  0  0  0  0  0  0  0
   -3.8180    3.0670   -0.7560 C   0  0  0  0  0  0  0  0  0  0  0  0
   -4.5700    0.7620   -0.0330 C   0  0  0  0  0  0  0  0  0  0  0  0
   -3.3540    0.0710   -0.2670 N   0  0  0  0  0  0  0  0  0  0  0  0
   -2.4020   -0.0250    0.7750 C   0  0  0  0  0  0  0  0  0  0  0  0
   -2.6730    0.5070    1.8780 O   0  0  0  0  0  0  0  0  0  0  0  0
   -1.1890   -0.7070    0.5490 N   0  0  0  0  0  0  0  0  0  0  0  0
   -0.9280   -1.2930   -0.7460 C   0  0  0  0  0  0  0  0  0  0  0  0
    0.5290   -1.6210   -0.9360 C   0  0  0  0  0  0  0  0  0  0  0  0
    1.4490   -0.6650   -0.2450 C   0  0  2  0  0  0  0  0  0  0  0  0
    2.8710   -1.2270   -0.2460 C   0  0  0  0  0  0  0  0  0  0  0  0
    3.8050   -0.3650    0.3940 N   0  0  1  0  0  0  0  0  0  0  0  0
    4.5590   -1.1250    1.3700 C   0  0  0  0  0  0  0  0  0  0  0  0
    4.7540    0.2380   -0.5220 C   0  0  0  0  0  0  0  0  0  0  0  0
    5.0340    1.6400   -0.0440 C   0  0  0  0  0  0  0  0  0  0  0  0
    5.9210    2.2480   -0.8840 O   0  0  0  0  0  0  0  0  0  0  0  0
    7.1520    1.6780   -1.0220 C   0  0  0  0  0  0  0  0  0  0  0  0
    1.0840   -0.3200    1.1420 C   0  0  0  0  0  0  0  0  0  0  0  0
   -0.2360   -0.8050    1.6350 C   0  0  0  0  0  0  0  0  0  0  0  0
  1  2  1  0
  2  3  1  0
  3  4  1  0
  3  9  2  0
  4  5  1  0
  5  6  1  0
  5  7  2  0
  7  8  1  0
  7  9  1  0
  9 10  1  0
 10 11  1  0
 11 12  2  0
 11 13  1  0
 13 14  1  0
 13 25  1  0
 14 15  1  0
 15 16  1  0
 16 17  1  1
 16 24  1  0
 17 18  1  0
 18 19  1  1
 18 20  1  0
 20 21  1  0
 21 22  1  0
 22 23  1  0
 24 25  1  0
M  CHG  3   5   1   6  -1  18   1
M  END
