
     RDKit          3D

 20 21  0  0  0  0  0  0  0  0999 V2000
   -3.4980    1.0460   -1.4830 C   0  0  0  0  0  0  0  0  0  0  0  0
   -2.8360   -0.3020   -1.2730 C   0  0  0  0  0  0  0  0  0  0  0  0
   -2.8690   -0.5990    0.1200 N   0  0  1  0  0  0  0  0  0  0  0  0
   -3.8100   -1.6800    0.3820 C   0  0  0  0  0  0  0  0  0  0  0  0
   -1.5750   -1.0170    0.6520 C   0  0  1  0  0  0  0  0  0  0  0  0
   -0.6350    0.0700    0.5070 C   0  0  0  0  0  0  0  0  0  0  0  0
    0.2120    0.2610    1.4810 C   0  0  0  0  0  0  0  0  0  0  0  0
    1.1990    1.2260    1.5750 N   0  0  0  0  0  0  0  0  0  0  0  0
    2.3130    1.2950    1.0010 C   0  0  0  0  0  0  0  0  0  0  0  0
    3.1880    2.4290    1.2710 C   0  0  0  0  0  0  0  0  0  0  0  0
    2.7830    3.3010    2.0780 O   0  0  0  0  0  0  0  0  0  0  0  0
    4.4680    2.5450    0.6360 N   0  0  0  0  0  0  0  0  0  0  0  0
    4.8230    1.4970   -0.2600 C   0  0  0  0  0  0  0  0  0  0  0  0
    5.9360    1.5730   -0.8280 O   0  0  0  0  0  0  0  0  0  0  0  0
    3.9370    0.3590   -0.5260 C   0  0  0  0  0  0  0  0  0  0  0  0
    4.3520   -0.6460   -1.4260 N   0  0  0  0  0  0  0  0  0  0  0  0
    2.7490    0.2730    0.0770 C   0  0  0  0  0  0  0  0  0  0  0  0
    1.9320   -0.8440   -0.2120 N   0  0  0  0  0  0  0  0  0  0  0  0
   -0.1280   -0.9550    2.7430 S   0  0  0  0  0  0  0  0  0  0  0  0
   -1.8160   -1.3500    2.1040 C   0  0  0  0  0  0  0  0  0  0  0  0
  1  2  1  0
  2  3  1  0
  3  4  1  6
  3  5  1  0
  5  6  1  0
  5 20  1  1
  6  7  2  0
  7  8  1  0
  7 19  1  0
  8  9  2  3
  9 10  1  0
  9 17  1  0
 10 11  2  0
 10 12  1  0
 12 13  1  0
 13 14  2  0
 13 15  1  0
 15 16  1  0
 15 17  2  0
 17 18  1  0
 19 20  1  0
M  CHG  1   3   1
M  END
