
     RDKit          3D

 20 21  0  0  0  0  0  0  0  0999 V2000
    4.2620   -1.4840   -0.3110 C   0  0  0  0  0  0  0  0  0  0  0  0
    2.7990   -0.9690   -0.5740 C   0  0  0  0  0  0  0  0  0  0  0  0
    2.3680   -0.0640    0.4930 C   0  0  1  0  0  0  0  0  0  0  0  0
    3.1660    1.1290    0.6890 N   0  0  0  0  0  0  0  0  0  0  0  0
    3.8460    1.6500   -0.4350 C   0  0  0  0  0  0  0  0  0  0  0  0
    0.9430    0.1490    0.7840 C   0  0  0  0  0  0  0  0  0  0  0  0
   -0.0760    0.1070   -0.0480 C   0  0  0  0  0  0  0  0  0  0  0  0
   -1.4380    0.3220    0.5090 C   0  0  1  0  0  0  0  0  0  0  0  0
   -1.4150    1.3450    1.5060 N   0  0  0  0  0  0  0  0  0  0  0  0
   -0.3820    1.3680    2.4380 N   0  0  0  0  0  0  0  0  0  0  0  0
    0.7160    0.8280    2.1150 C   0  0  0  0  0  0  0  0  0  0  0  0
   -2.5350    0.5600   -0.4410 C   0  0  2  0  0  0  0  0  0  0  0  0
   -3.9000    0.2550    0.1070 C   0  0  2  0  0  0  0  0  0  0  0  0
   -4.3560    1.0030    1.2930 C   0  0  0  0  0  0  0  0  0  0  0  0
   -4.0580   -1.1780    0.3750 N   0  0  0  0  0  0  0  0  0  0  0  0
   -2.3420   -0.3970   -1.6360 C   0  0  0  0  0  0  0  0  0  0  0  0
   -1.3850    0.2850   -2.4740 N   0  0  0  0  0  0  0  0  0  0  0  0
    0.1900   -0.0780   -1.7190 S   0  0  1  0  0  0  0  0  0  0  0  0
    1.0250    1.0310   -2.3500 O   0  0  0  0  0  0  0  0  0  0  0  0
    0.4230   -1.4030   -2.2890 O   0  0  0  0  0  0  0  0  0  0  0  0
  1  2  1  0
  3  2  1  6
  3  4  1  0
  3  6  1  0
  4  5  1  0
  6  7  2  0
  6 11  1  0
  7  8  1  0
  7 18  1  0
  8  9  1  1
  8 12  1  0
  9 10  1  0
 10 11  2  0
 12 13  1  0
 12 16  1  6
 13 14  1  1
 13 15  1  0
 16 17  1  0
 18 17  1  6
 18 19  2  0
 18 20  2  0
M  CHG  1   4   1
M  END
