
     RDKit          3D

 20 21  0  0  0  0  0  0  0  0999 V2000
   -2.7020   -1.6340    0.9510 C   0  0  0  0  0  0  0  0  0  0  0  0
   -2.7130   -1.4460   -0.5310 C   0  0  1  0  0  0  0  0  0  0  0  0
   -4.0490   -1.6930   -1.0280 N   0  0  0  0  0  0  0  0  0  0  0  0
   -2.2850   -0.0860   -0.9690 C   0  0  1  0  0  0  0  0  0  0  0  0
   -3.1570    1.0200   -0.4280 C   0  0  0  0  0  0  0  0  0  0  0  0
   -2.2580    2.2240   -0.7510 C   0  0  1  0  0  0  0  0  0  0  0  0
   -2.5700    3.3130    0.0180 O   0  0  0  0  0  0  0  0  0  0  0  0
   -0.9210    1.6360   -0.3810 C   0  0  0  0  0  0  0  0  0  0  0  0
    0.3220    1.9390    0.0400 N   0  0  0  0  0  0  0  0  0  0  0  0
    0.9950    0.7880    0.1480 C   0  0  0  0  0  0  0  0  0  0  0  0
    2.4000    0.6630    0.5810 C   0  0  0  0  0  0  0  0  0  0  0  0
    2.9200   -0.5170    0.6380 C   0  0  0  0  0  0  0  0  0  0  0  0
    4.2450   -0.8870    1.0240 C   0  0  0  0  0  0  0  0  0  0  0  0
    4.6090   -2.1810    1.0220 C   0  0  0  0  0  0  0  0  0  0  0  0
    5.8660   -2.6170    1.3790 O   0  0  0  0  0  0  0  0  0  0  0  0
    3.0880    1.8760    0.9090 C   0  0  0  0  0  0  0  0  0  0  0  0
    4.4260    1.9510    1.3390 N   0  0  0  0  0  0  0  0  0  0  0  0
    2.2870    3.3320    0.7880 S   0  0  0  0  0  0  0  0  0  0  0  0
    0.1880   -0.2430   -0.2010 N   0  0  0  0  0  0  0  0  0  0  0  0
   -0.9820    0.2990   -0.5220 N   0  0  0  0  0  0  0  0  0  0  0  0
  2  1  1  1
  2  3  1  0
  2  4  1  0
  4  5  1  1
  4 20  1  0
  5  6  1  0
  6  7  1  1
  6  8  1  0
  8  9  2  0
  8 20  1  0
  9 10  1  0
 10 11  1  0
 10 19  2  0
 11 12  2  3
 11 16  1  0
 12 13  1  0
 13 14  2  3
 14 15  1  0
 16 17  1  0
 16 18  2  0
 19 20  1  0
M  CHG  1   3   1
M  END
