
     RDKit          3D

 20 22  0  0  0  0  0  0  0  0999 V2000
   -4.2280    1.4370    0.5070 C   0  0  0  0  0  0  0  0  0  0  0  0
   -3.9530    0.6410   -1.0670 S   0  0  0  0  0  0  0  0  0  0  0  0
   -3.4650   -1.0380   -1.0630 C   0  0  0  0  0  0  0  0  0  0  0  0
   -2.1040   -1.3970   -0.5310 C   0  0  1  0  0  0  0  0  0  0  0  0
   -0.9770   -0.8440   -1.1960 N   0  0  0  0  0  0  0  0  0  0  0  0
    0.1470   -1.0590   -0.2680 C   0  0  1  0  0  0  0  0  0  0  0  0
    1.0850    0.0930   -0.3580 C   0  0  0  0  0  0  0  0  0  0  0  0
    0.8510    1.4100   -0.6240 C   0  0  0  0  0  0  0  0  0  0  0  0
    2.0410    2.0830   -0.6950 N   0  0  0  0  0  0  0  0  0  0  0  0
    3.0360    1.1740   -0.4790 C   0  0  0  0  0  0  0  0  0  0  0  0
    4.3990    1.3390   -0.4070 C   0  0  0  0  0  0  0  0  0  0  0  0
    5.0140    2.5990   -0.5810 N   0  0  0  0  0  0  0  0  0  0  0  0
    5.1350    0.2250   -0.1240 N   0  0  0  0  0  0  0  0  0  0  0  0
    4.5950   -0.9730    0.0780 C   0  0  0  0  0  0  0  0  0  0  0  0
    3.2660   -1.1370    0.0080 N   0  0  0  0  0  0  0  0  0  0  0  0
    2.4660   -0.0670   -0.2720 C   0  0  0  0  0  0  0  0  0  0  0  0
   -0.5130   -0.9820    1.1210 C   0  0  2  0  0  0  0  0  0  0  0  0
   -0.2240   -2.2110    1.7800 O   0  0  0  0  0  0  0  0  0  0  0  0
   -1.9800   -0.9280    0.9010 C   0  0  2  0  0  0  0  0  0  0  0  0
   -2.7000   -1.7460    1.7700 O   0  0  0  0  0  0  0  0  0  0  0  0
  1  2  1  0
  2  3  1  0
  4  3  1  6
  4  5  1  0
  4 19  1  0
  5  6  1  0
  6  7  1  1
  6 17  1  0
  7  8  2  0
  7 16  1  0
  8  9  1  0
  9 10  1  0
 10 11  2  0
 10 16  1  0
 11 12  1  0
 11 13  1  0
 13 14  2  0
 14 15  1  0
 15 16  2  0
 17 18  1  1
 17 19  1  0
 19 20  1  1
M  CHG  1   5   1
M  END
