
     RDKit          3D

 20 22  0  0  0  0  0  0  0  0999 V2000
    3.2980    2.4520   -0.2660 O   0  0  0  0  0  0  0  0  0  0  0  0
    3.2370    1.2150   -0.0480 C   0  0  0  0  0  0  0  0  0  0  0  0
    2.0300    0.5470   -0.3200 N   0  0  0  0  0  0  0  0  0  0  0  0
    0.8980    1.2380   -0.8220 N   0  0  0  0  0  0  0  0  0  0  0  0
   -0.3770    0.7980   -0.3880 C   0  0  0  0  0  0  0  0  0  0  0  0
   -0.4610   -0.4570    0.6460 S   0  0  0  0  0  0  0  0  0  0  0  0
   -1.5880    1.4040   -0.8170 N   0  0  0  0  0  0  0  0  0  0  0  0
   -2.7860    0.8690   -0.3120 N   0  0  0  0  0  0  0  0  0  0  0  0
   -3.3010   -0.3770   -0.7710 C   0  0  0  0  0  0  0  0  0  0  0  0
   -2.6160   -0.9500   -1.6550 O   0  0  0  0  0  0  0  0  0  0  0  0
   -4.5340   -1.0130   -0.2940 C   0  0  1  0  0  0  0  0  0  0  0  0
   -4.6760   -1.2040    1.2400 C   0  0  0  0  0  0  0  0  0  0  0  0
   -5.5850   -0.4330    0.4590 C   0  0  1  0  0  0  0  0  0  0  0  0
   -6.1830    0.8320    0.5880 C   0  0  0  0  0  0  0  0  0  0  0  0
   -7.0190   -0.4610    0.3400 C   0  0  0  0  0  0  0  0  0  0  0  0
    4.4190    0.5490    0.4730 C   0  0  2  0  0  0  0  0  0  0  0  0
    5.5350    0.6990   -0.5450 C   0  0  0  0  0  0  0  0  0  0  0  0
    6.1870   -0.6620   -0.5090 C   0  0  0  0  0  0  0  0  0  0  0  0
    4.9450   -1.5490   -0.3500 C   0  0  0  0  0  0  0  0  0  0  0  0
    4.3000   -0.8400    0.7640 N   0  0  0  0  0  0  0  0  0  0  0  0
  1  2  2  0
  2  3  1  0
 16  2  1  6
  3  4  1  0
  4  5  1  0
  5  6  2  0
  5  7  1  0
  7  8  1  0
  8  9  1  0
  9 10  2  0
 11  9  1  1
 11 12  1  0
 11 13  1  0
 13 12  1  1
 13 14  1  0
 13 15  1  0
 14 15  1  0
 16 17  1  0
 16 20  1  0
 17 18  1  0
 18 19  1  0
 19 20  1  0
M  CHG  1  20   1
M  END
