
     RDKit          3D

 20 21  0  0  0  0  0  0  0  0999 V2000
   -2.0050   -1.5490    2.0330 C   0  0  0  0  0  0  0  0  0  0  0  0
   -1.4330   -1.4450    0.6200 C   0  0  2  0  0  0  0  0  0  0  0  0
   -1.7840   -2.7600   -0.0660 C   0  0  0  0  0  0  0  0  0  0  0  0
    0.0610   -1.2710    0.6610 C   0  0  0  0  0  0  0  0  0  0  0  0
    0.3500    0.0680    1.3040 C   0  0  1  0  0  0  0  0  0  0  0  0
    1.7470    0.3300    1.4950 N   0  0  0  0  0  0  0  0  0  0  0  0
    2.7150    0.3400    0.4820 C   0  0  0  0  0  0  0  0  0  0  0  0
    2.3900    0.0920   -0.7930 N   0  0  0  0  0  0  0  0  0  0  0  0
    3.3240    0.0990   -1.7860 C   0  0  0  0  0  0  0  0  0  0  0  0
    2.9440   -0.1990   -3.3270 S   0  0  0  0  0  0  0  0  0  0  0  0
    4.6140    0.3650   -1.4650 N   0  0  0  0  0  0  0  0  0  0  0  0
    4.9590    0.6170   -0.1910 C   0  0  0  0  0  0  0  0  0  0  0  0
    6.1580    0.8610    0.0890 O   0  0  0  0  0  0  0  0  0  0  0  0
    3.9960    0.6010    0.7770 N   0  0  0  0  0  0  0  0  0  0  0  0
   -0.2230    1.1410    0.4110 C   0  0  0  0  0  0  0  0  0  0  0  0
   -1.7240    1.0300    0.2900 C   0  0  1  0  0  0  0  0  0  0  0  0
   -2.2170    2.0660   -0.6580 C   0  0  0  0  0  0  0  0  0  0  0  0
   -1.6940    1.9820   -1.9850 N   0  0  0  0  0  0  0  0  0  0  0  0
   -2.1670   -0.3580   -0.0850 C   0  0  1  0  0  0  0  0  0  0  0  0
   -2.1500   -0.6070   -1.4380 O   0  0  0  0  0  0  0  0  0  0  0  0
  2  1  1  1
  2  3  1  0
  2  4  1  0
  2 19  1  0
  4  5  1  0
  5  6  1  6
  5 15  1  0
  6  7  1  0
  7  8  2  0
  7 14  1  0
  8  9  1  0
  9 10  2  0
  9 11  1  0
 11 12  1  0
 12 13  2  0
 12 14  1  0
 15 16  1  0
 16 17  1  6
 16 19  1  0
 17 18  1  0
 19 20  1  6
M  CHG  1  18   1
M  END
