
     RDKit          3D

 20 21  0  0  0  0  0  0  0  0999 V2000
   -5.5940   -1.8380   -1.0230 N   0  0  0  0  0  0  0  0  0  0  0  0
   -5.2380   -0.5430   -0.4580 C   0  0  1  0  0  0  0  0  0  0  0  0
   -4.1330   -0.7400    0.5310 C   0  0  0  0  0  0  0  0  0  0  0  0
   -2.9770    0.1900    0.2010 C   0  0  2  0  0  0  0  0  0  0  0  0
   -1.9970    0.1350    1.2730 N   0  0  0  0  0  0  0  0  0  0  0  0
   -0.6810   -0.3250    0.9970 C   0  0  0  0  0  0  0  0  0  0  0  0
   -0.3790   -0.6780   -0.1650 O   0  0  0  0  0  0  0  0  0  0  0  0
    0.2830   -0.3810    2.0450 N   0  0  0  0  0  0  0  0  0  0  0  0
    1.5520   -0.8440    1.7070 N   0  0  0  0  0  0  0  0  0  0  0  0
    2.5870    0.0540    1.3810 C   0  0  0  0  0  0  0  0  0  0  0  0
    2.3650    1.2870    1.3960 O   0  0  0  0  0  0  0  0  0  0  0  0
    3.9320   -0.4460    1.0230 C   0  0  0  0  0  0  0  0  0  0  0  0
    4.8720    0.6810    0.7110 C   0  0  1  0  0  0  0  0  0  0  0  0
    6.2400    0.1460    0.3480 C   0  0  0  0  0  0  0  0  0  0  0  0
    6.0990   -0.5550   -0.9750 C   0  0  0  0  0  0  0  0  0  0  0  0
    5.5220    0.4010   -1.9700 C   0  0  0  0  0  0  0  0  0  0  0  0
    4.3660    1.3660   -0.9180 S   0  0  0  0  0  0  0  0  0  0  0  0
   -3.5430    1.5810    0.0770 C   0  0  0  0  0  0  0  0  0  0  0  0
   -4.4260    1.6190   -1.1520 C   0  0  0  0  0  0  0  0  0  0  0  0
   -4.9120    0.3320   -1.5460 N   0  0  0  0  0  0  0  0  0  0  0  0
  2  1  1  6
  2  3  1  0
  2 20  1  0
  3  4  1  0
  4  5  1  1
  4 18  1  0
  5  6  1  0
  6  7  2  0
  6  8  1  0
  8  9  1  0
  9 10  1  0
 10 11  2  0
 10 12  1  0
 13 12  1  6
 13 14  1  0
 13 17  1  0
 14 15  1  0
 15 16  1  0
 16 17  1  0
 18 19  1  0
 19 20  1  0
M  CHG  1  20   1
M  END
