
     RDKit          3D

 19 21  0  0  0  0  0  0  0  0999 V2000
    2.8030   -2.5730   -1.1330 C   0  0  0  0  0  0  0  0  0  0  0  0
    3.3110   -1.3080   -0.4610 C   0  0  0  0  0  0  0  0  0  0  0  0
    4.5270   -0.8420   -0.2670 N   0  0  0  0  0  0  0  0  0  0  0  0
    4.4840    0.4480    0.1770 N   0  0  0  0  0  0  0  0  0  0  0  0
    3.1420    0.7640    0.2520 C   0  0  0  0  0  0  0  0  0  0  0  0
    2.7540    2.1900    0.5350 C   0  0  0  0  0  0  0  0  0  0  0  0
    3.7510    2.9390    1.1310 O   0  0  0  0  0  0  0  0  0  0  0  0
    2.3820   -0.2720   -0.1220 C   0  0  0  0  0  0  0  0  0  0  0  0
    0.9900   -0.5740    0.0800 C   0  0  0  0  0  0  0  0  0  0  0  0
   -0.0930    0.1000   -0.4370 N   0  0  0  0  0  0  0  0  0  0  0  0
   -1.3050   -0.5320   -0.0180 C   0  0  1  0  0  0  0  0  0  0  0  0
   -2.0490    0.0720    1.1030 C   0  0  0  0  0  0  0  0  0  0  0  0
   -3.3090    0.6540    0.4180 C   0  0  0  0  0  0  0  0  0  0  0  0
   -4.2420    1.5510    0.8770 C   0  0  0  0  0  0  0  0  0  0  0  0
   -5.1720    1.9370   -0.6090 S   0  0  0  0  0  0  0  0  0  0  0  0
   -4.2660    0.9030   -1.6710 N   0  0  0  0  0  0  0  0  0  0  0  0
   -3.3210    0.3160   -0.8530 C   0  0  0  0  0  0  0  0  0  0  0  0
   -2.3060   -0.8320   -1.0540 C   0  0  2  0  0  0  0  0  0  0  0  0
   -3.0870   -2.0430   -0.6600 N   0  0  0  0  0  0  0  0  0  0  0  0
  1  2  1  0
  2  3  2  0
  2  8  1  0
  3  4  1  0
  4  5  1  0
  5  6  1  0
  5  8  2  0
  6  7  1  0
  8  9  1  0
  9 10  1  0
 11 10  1  6
 11 12  1  0
 11 18  1  0
 12 13  1  0
 13 14  2  0
 13 17  1  0
 14 15  1  0
 15 16  1  0
 16 17  2  0
 17 18  1  0
 18 19  1  1
M  CHG  1  16   1
M  END
