
     RDKit          3D

 20 20  0  0  0  0  0  0  0  0999 V2000
   -4.0770    2.7210    0.6640 C   0  0  0  0  0  0  0  0  0  0  0  0
   -3.1720    1.8860   -0.0010 O   0  0  0  0  0  0  0  0  0  0  0  0
   -2.4390    0.8810    0.6420 C   0  0  0  0  0  0  0  0  0  0  0  0
   -2.6420    0.7650    1.8790 O   0  0  0  0  0  0  0  0  0  0  0  0
   -1.4830    0.0010   -0.0740 C   0  0  1  0  0  0  0  0  0  0  0  0
   -1.5050    0.4080   -1.4290 O   0  0  0  0  0  0  0  0  0  0  0  0
   -0.1880    0.2160    0.3730 O   0  0  0  0  0  0  0  0  0  0  0  0
    0.7220   -0.4310   -0.4270 C   0  0  1  0  0  0  0  0  0  0  0  0
    0.5490   -0.1940   -1.7850 O   0  0  0  0  0  0  0  0  0  0  0  0
    2.1410   -0.0380   -0.0840 C   0  0  1  0  0  0  0  0  0  0  0  0
    2.9740   -0.7610   -0.9640 O   0  0  0  0  0  0  0  0  0  0  0  0
    2.3580    1.4360   -0.4440 C   0  0  0  0  0  0  0  0  0  0  0  0
    3.7720    1.8560   -0.1100 C   0  0  2  0  0  0  0  0  0  0  0  0
    4.6360    1.0610   -0.8440 O   0  0  0  0  0  0  0  0  0  0  0  0
    3.9730    1.6970    1.2720 O   0  0  0  0  0  0  0  0  0  0  0  0
    0.5690   -1.9210   -0.1870 C   0  0  0  0  0  0  0  0  0  0  0  0
   -0.8180   -2.3040   -0.6110 C   0  0  0  0  0  0  0  0  0  0  0  0
   -1.8930   -1.4350   -0.0530 C   0  0  1  0  0  0  0  0  0  0  0  0
   -2.3610   -1.9160    1.2990 C   0  0  0  0  0  0  0  0  0  0  0  0
   -1.3750   -1.7920    2.2700 O   0  0  0  0  0  0  0  0  0  0  0  0
  1  2  1  0
  2  3  1  0
  3  4  2  0
  3  5  1  0
  5  6  1  6
  5  7  1  0
  5 18  1  0
  7  8  1  0
  8  9  1  6
  8 10  1  0
  8 16  1  0
 10 11  1  6
 10 12  1  0
 12 13  1  0
 13 14  1  6
 13 15  1  0
 16 17  1  0
 17 18  1  0
 18 19  1  1
 19 20  1  0
M  END
