
     RDKit          3D

 14 14  0  0  0  0  0  0  0  0999 V2000
   -0.5940    4.3800   -0.1550 C   0  0  0  0  0  0  0  0  0  0  0  0
   -0.8400    3.2050    0.4310 C   0  0  0  0  0  0  0  0  0  0  0  0
   -0.5310    1.8920    0.0710 C   0  0  0  0  0  0  0  0  0  0  0  0
   -0.9470    0.9220    1.0550 C   0  0  0  0  0  0  0  0  0  0  0  0
   -1.5880    1.5260    2.1860 C   0  0  0  0  0  0  0  0  0  0  0  0
   -2.0930    1.9860    3.0680 N   0  0  0  0  0  0  0  0  0  0  0  0
   -0.5710   -0.4220    0.8330 C   0  0  0  0  0  0  0  0  0  0  0  0
   -0.8430   -1.2420    1.7070 O   0  0  0  0  0  0  0  0  0  0  0  0
    0.1390   -0.8680   -0.3440 N   0  0  0  0  0  0  0  0  0  0  0  0
    0.6860   -2.1570   -0.5240 C   0  0  0  0  0  0  0  0  0  0  0  0
    0.6340   -3.2720    0.2200 C   0  0  0  0  0  0  0  0  0  0  0  0
    1.6010   -4.1820   -0.4090 C   0  0  0  0  0  0  0  0  0  0  0  0
    2.0570   -3.5420   -1.3720 O   0  0  0  0  0  0  0  0  0  0  0  0
    1.6440   -2.3540   -1.6010 C   0  0  0  0  0  0  0  0  0  0  0  0
  1  2  2  0
  2  3  1  0
  3  4  2  3
  4  5  1  0
  4  7  1  0
  5  6  3  0
  7  8  2  0
  7  9  1  0
  9 10  1  0
 10 11  1  0
 10 14  2  0
 11 12  2  0
 12 13  1  0
 13 14  1  0
M  END
