
     RDKit          3D

 14 15  0  0  0  0  0  0  0  0999 V2000
    1.0380   -0.4190   -3.7930 N   0  0  0  0  0  0  0  0  0  0  0  0
   -0.0100   -0.2630   -3.2810 C   0  0  0  0  0  0  0  0  0  0  0  0
   -1.2830   -0.0940   -2.6420 C   0  0  0  0  0  0  0  0  0  0  0  0
   -2.4110    0.3430   -3.1720 C   0  0  0  0  0  0  0  0  0  0  0  0
   -3.4800    0.3590   -2.1520 C   0  0  0  0  0  0  0  0  0  0  0  0
   -2.8090   -0.1390   -0.9310 C   0  0  0  0  0  0  0  0  0  0  0  0
   -1.5520   -0.3920   -1.2350 C   0  0  0  0  0  0  0  0  0  0  0  0
   -0.6110   -0.8790   -0.3260 O   0  0  0  0  0  0  0  0  0  0  0  0
    0.1350    0.0120    0.4000 C   0  0  0  0  0  0  0  0  0  0  0  0
    0.0290    1.2590    0.3020 O   0  0  0  0  0  0  0  0  0  0  0  0
    1.0880   -0.4960    1.3220 N   0  0  0  0  0  0  0  0  0  0  0  0
    1.9290    0.3310    2.1390 C   0  0  2  0  0  0  0  0  0  0  0  0
    3.3950   -0.1150    2.1530 C   0  0  0  0  0  0  0  0  0  0  0  0
    2.5050   -0.0740    3.4140 C   0  0  0  0  0  0  0  0  0  0  0  0
  1  2  3  0
  2  3  1  0
  3  4  2  0
  3  7  1  0
  4  5  1  0
  5  6  1  0
  6  7  2  0
  7  8  1  0
  8  9  1  0
  9 10  2  0
  9 11  1  0
 12 11  1  6
 12 13  1  0
 12 14  1  0
 13 14  1  0
M  END
