
     RDKit          3D

 20 20  0  0  0  0  0  0  0  0999 V2000
    0.3690   -3.5750    0.2620 C   0  0  0  0  0  0  0  0  0  0  0  0
    0.3600   -2.3070    0.8680 O   0  0  0  0  0  0  0  0  0  0  0  0
    0.0550   -1.3150   -0.1220 C   0  0  1  0  0  0  0  0  0  0  0  0
   -1.2400   -0.6570    0.2560 C   0  0  2  0  0  0  0  0  0  0  0  0
   -2.1450   -1.7990    0.3330 O   0  0  0  0  0  0  0  0  0  0  0  0
   -1.8450    0.2390   -0.7970 C   0  0  1  0  0  0  0  0  0  0  0  0
   -1.1390    1.5240   -0.9120 C   0  0  0  0  0  0  0  0  0  0  0  0
   -1.8010   -0.4510   -2.0070 O   0  0  0  0  0  0  0  0  0  0  0  0
   -3.3400    0.4030   -0.5180 C   0  0  0  0  0  0  0  0  0  0  0  0
   -3.6350    1.0030    0.8010 C   0  0  0  0  0  0  0  0  0  0  0  0
   -3.1070    2.2710    0.9890 O   0  0  0  0  0  0  0  0  0  0  0  0
    1.2630   -0.4440   -0.1850 C   0  0  2  0  0  0  0  0  0  0  0  0
    2.3860   -1.2660   -0.5450 O   0  0  0  0  0  0  0  0  0  0  0  0
    1.6580    0.1110    1.1690 C   0  0  0  0  0  0  0  0  0  0  0  0
    2.9020    0.9760    0.9180 C   0  0  1  0  0  0  0  0  0  0  0  0
    3.3770    1.5500    2.0700 O   0  0  0  0  0  0  0  0  0  0  0  0
    3.8450    0.2930    0.1810 O   0  0  0  0  0  0  0  0  0  0  0  0
    4.3360    1.1970   -0.7660 C   0  0  0  0  0  0  0  0  0  0  0  0
    3.7460    2.4180   -0.4200 O   0  0  0  0  0  0  0  0  0  0  0  0
    2.5570    2.0180    0.0340 O   0  0  0  0  0  0  0  0  0  0  0  0
  1  2  1  0
  3  2  1  1
  3  4  1  0
  3 12  1  0
  4  5  1  6
  4  6  1  0
  6  7  1  6
  6  8  1  0
  6  9  1  0
  9 10  1  0
 10 11  1  0
 12 13  1  1
 12 14  1  0
 14 15  1  0
 15 16  1  1
 15 17  1  0
 15 20  1  0
 17 18  1  0
 18 19  1  0
 19 20  1  0
M  END
