
     RDKit          3D

 21 23  0  0  0  0  0  0  0  0999 V2000
   -3.5340   -2.5500    0.1060 C   0  0  0  0  0  0  0  0  0  0  0  0
   -2.7560   -1.5050    0.1760 C   0  0  0  0  0  0  0  0  0  0  0  0
   -2.8920   -0.4500   -0.8790 C   0  0  0  0  0  0  0  0  0  0  0  0
   -1.6100    0.2060   -1.0410 N   0  0  0  0  0  0  0  0  0  0  0  0
   -0.6680    0.3330    0.0080 C   0  0  0  0  0  0  0  0  0  0  0  0
    0.4520    1.3370   -0.1140 C   0  0  1  0  0  0  0  0  0  0  0  0
    1.2100    0.9740   -1.2830 N   0  0  0  0  0  0  0  0  0  0  0  0
    1.8290   -0.3110   -1.3520 C   0  0  0  0  0  0  0  0  0  0  0  0
    2.5670   -0.6860   -2.4700 C   0  0  0  0  0  0  0  0  0  0  0  0
    3.1450   -1.9230   -2.5020 N   0  0  0  0  0  0  0  0  0  0  0  0
    3.0140   -2.7790   -1.4800 C   0  0  0  0  0  0  0  0  0  0  0  0
    2.2890   -2.4270   -0.3650 C   0  0  0  0  0  0  0  0  0  0  0  0
    2.0990   -3.5340    0.9980 Cl  0  0  0  0  0  0  0  0  0  0  0  0
    1.7270   -1.2040   -0.3520 N   0  0  0  0  0  0  0  0  0  0  0  0
   -0.1140    2.7120   -0.1730 C   0  0  0  0  0  0  0  0  0  0  0  0
    0.5910    3.5470    0.8540 C   0  0  0  0  0  0  0  0  0  0  0  0
    1.3220    2.5950    1.7690 C   0  0  0  0  0  0  0  0  0  0  0  0
    1.3430    1.2540    1.0880 C   0  0  0  0  0  0  0  0  0  0  0  0
   -0.7590   -0.3920    1.0490 N   0  0  0  0  0  0  0  0  0  0  0  0
   -1.7860   -1.3610    1.2380 C   0  0  0  0  0  0  0  0  0  0  0  0
   -1.8320   -2.0840    2.3440 C   0  0  0  0  0  0  0  0  0  0  0  0
  1  2  2  0
  2  3  1  0
  2 20  1  0
  3  4  1  0
  4  5  1  0
  5  6  1  0
  5 19  2  0
  6  7  1  6
  6 15  1  0
  6 18  1  0
  7  8  1  0
  8  9  2  0
  8 14  1  0
  9 10  1  0
 10 11  2  0
 11 12  1  0
 12 13  1  0
 12 14  2  0
 15 16  1  0
 16 17  1  0
 17 18  1  0
 19 20  1  0
 20 21  2  0
M  END
