
     RDKit          3D

 21 23  0  0  0  0  0  0  0  0999 V2000
    5.6830    0.6660    1.2340 C   0  0  0  0  0  0  0  0  0  0  0  0
    4.4420    0.1490    0.5550 C   0  0  0  0  0  0  0  0  0  0  0  0
    4.4540   -0.9840   -0.2220 C   0  0  0  0  0  0  0  0  0  0  0  0
    3.3420   -1.4860   -0.8570 C   0  0  0  0  0  0  0  0  0  0  0  0
    2.1330   -0.8110   -0.7090 C   0  0  0  0  0  0  0  0  0  0  0  0
    2.1540    0.3140    0.0700 C   0  0  0  0  0  0  0  0  0  0  0  0
    3.2650    0.7810    0.6810 N   0  0  0  0  0  0  0  0  0  0  0  0
    0.9520    1.0590    0.2690 N   0  0  0  0  0  0  0  0  0  0  0  0
   -0.2230    0.5750   -0.3710 C   0  0  0  0  0  0  0  0  0  0  0  0
   -1.4430    1.2990   -0.2060 N   0  0  0  0  0  0  0  0  0  0  0  0
   -2.6690    0.6120   -0.1000 C   0  0  0  0  0  0  0  0  0  0  0  0
   -2.8230   -0.7400    0.0350 C   0  0  0  0  0  0  0  0  0  0  0  0
   -4.0860   -1.3420    0.1230 C   0  0  0  0  0  0  0  0  0  0  0  0
   -4.2110   -3.0690    0.2930 Cl  0  0  0  0  0  0  0  0  0  0  0  0
   -5.2100   -0.5410    0.0710 C   0  0  0  0  0  0  0  0  0  0  0  0
   -5.1030    0.8340   -0.0650 C   0  0  0  0  0  0  0  0  0  0  0  0
   -6.2520    1.6920   -0.1210 C   0  0  0  0  0  0  0  0  0  0  0  0
   -7.2050    2.3810   -0.1770 N   0  0  0  0  0  0  0  0  0  0  0  0
   -3.8440    1.3670   -0.1460 C   0  0  0  0  0  0  0  0  0  0  0  0
   -0.2000   -0.4670   -1.0810 N   0  0  0  0  0  0  0  0  0  0  0  0
    0.9170   -1.3160   -1.3740 C   0  0  0  0  0  0  0  0  0  0  0  0
  1  2  1  0
  2  3  2  0
  2  7  1  0
  3  4  1  0
  4  5  2  0
  5  6  1  0
  5 21  1  0
  6  7  2  0
  6  8  1  0
  8  9  1  0
  9 10  1  0
  9 20  2  0
 10 11  1  0
 11 12  2  0
 11 19  1  0
 12 13  1  0
 13 14  1  0
 13 15  2  0
 15 16  1  0
 16 17  1  0
 16 19  2  0
 17 18  3  0
 20 21  1  0
M  END
