
     RDKit          3D

 21 23  0  0  0  0  0  0  0  0999 V2000
    5.2040    0.4440   -0.8300 C   0  0  0  0  0  0  0  0  0  0  0  0
    4.0670    0.3570   -0.1690 C   0  0  0  0  0  0  0  0  0  0  0  0
    3.3470    1.6060    0.2580 C   0  0  0  0  0  0  0  0  0  0  0  0
    2.0270    1.4870   -0.4030 N   0  0  0  0  0  0  0  0  0  0  0  0
    1.3040    0.2940   -0.1170 C   0  0  0  0  0  0  0  0  0  0  0  0
   -0.1040    0.3710   -0.1330 C   0  0  0  0  0  0  0  0  0  0  0  0
   -0.7860   -0.7800    0.1440 C   0  0  0  0  0  0  0  0  0  0  0  0
   -2.1810   -0.8050    0.2240 N   0  0  0  0  0  0  0  0  0  0  0  0
   -3.1080    0.2390    0.3070 C   0  0  0  0  0  0  0  0  0  0  0  0
   -2.8520    1.4880    0.8090 C   0  0  0  0  0  0  0  0  0  0  0  0
   -3.8480    2.4210    0.9200 N   0  0  0  0  0  0  0  0  0  0  0  0
   -5.1100    2.1810    0.5560 C   0  0  0  0  0  0  0  0  0  0  0  0
   -5.3880    0.9660    0.0630 N   0  0  0  0  0  0  0  0  0  0  0  0
   -4.4510    0.0270   -0.0640 C   0  0  0  0  0  0  0  0  0  0  0  0
   -4.7570   -1.3340   -0.6180 C   0  0  0  0  0  0  0  0  0  0  0  0
   -0.0920   -1.9390    0.4160 N   0  0  0  0  0  0  0  0  0  0  0  0
    1.2420   -2.0130    0.4300 C   0  0  0  0  0  0  0  0  0  0  0  0
    1.9660   -0.8940    0.1630 C   0  0  0  0  0  0  0  0  0  0  0  0
    3.4430   -0.9160    0.1550 C   0  0  0  0  0  0  0  0  0  0  0  0
    4.1420   -1.9740    0.4700 C   0  0  0  0  0  0  0  0  0  0  0  0
    5.8780   -1.9740    0.5440 Cl  0  0  0  0  0  0  0  0  0  0  0  0
  1  2  2  0
  2  3  1  0
  2 19  1  0
  3  4  1  0
  4  5  1  0
  5  6  2  0
  5 18  1  0
  6  7  1  0
  7  8  1  0
  7 16  2  0
  8  9  1  0
  9 10  2  0
  9 14  1  0
 10 11  1  0
 11 12  2  0
 12 13  1  0
 13 14  2  0
 14 15  1  0
 16 17  1  0
 17 18  2  0
 18 19  1  0
 19 20  2  3
 20 21  1  0
M  END
