
     RDKit          3D

 21 23  0  0  0  0  0  0  0  0999 V2000
    3.2860   -0.5830    1.9590 C   0  0  0  0  0  0  0  0  0  0  0  0
    3.4390   -0.0100    0.8030 C   0  0  0  0  0  0  0  0  0  0  0  0
    4.7760    0.3540    0.2580 C   0  0  0  0  0  0  0  0  0  0  0  0
    4.5730    0.8800   -0.9070 C   0  0  0  0  0  0  0  0  0  0  0  0
    3.1690    0.9040   -1.2030 C   0  0  0  0  0  0  0  0  0  0  0  0
    2.4270    0.3650   -0.1750 C   0  0  0  0  0  0  0  0  0  0  0  0
    1.0160    0.2660   -0.2620 C   0  0  0  0  0  0  0  0  0  0  0  0
   -0.0230   -0.1160    0.3990 C   0  0  0  0  0  0  0  0  0  0  0  0
   -0.0390   -0.6890    1.7500 C   0  0  0  0  0  0  0  0  0  0  0  0
   -1.3580    0.2090   -0.1790 C   0  0  0  0  0  0  0  0  0  0  0  0
   -1.4660    1.3870   -0.8610 N   0  0  0  0  0  0  0  0  0  0  0  0
   -2.6250    1.7480   -1.4340 C   0  0  0  0  0  0  0  0  0  0  0  0
   -2.7030    2.9770   -2.1350 N   0  0  0  0  0  0  0  0  0  0  0  0
   -3.6890    0.9340   -1.3320 N   0  0  0  0  0  0  0  0  0  0  0  0
   -3.6570   -0.2420   -0.6800 C   0  0  0  0  0  0  0  0  0  0  0  0
   -4.7210   -1.0370   -0.6510 N   0  0  0  0  0  0  0  0  0  0  0  0
   -4.6580   -2.2140   -0.0610 N   0  0  0  0  0  0  0  0  0  0  0  0
   -3.5240   -2.6340    0.5200 C   0  0  0  0  0  0  0  0  0  0  0  0
   -3.4070   -4.1960    1.3110 Cl  0  0  0  0  0  0  0  0  0  0  0  0
   -2.3910   -1.8350    0.5140 C   0  0  0  0  0  0  0  0  0  0  0  0
   -2.4310   -0.6050   -0.0870 C   0  0  0  0  0  0  0  0  0  0  0  0
  1  2  2  0
  2  3  1  0
  2  6  1  0
  3  4  2  0
  4  5  1  0
  5  6  2  0
  6  7  1  0
  7  8  2  3
  8  9  1  0
  8 10  1  0
 10 11  2  0
 10 21  1  0
 11 12  1  0
 12 13  1  0
 12 14  2  0
 14 15  1  0
 15 16  2  0
 15 21  1  0
 16 17  1  0
 17 18  2  0
 18 19  1  0
 18 20  1  0
 20 21  2  0
M  END
