
     RDKit          3D

 12 13  0  0  0  0  0  0  0  0999 V2000
   -1.6300    1.5860    0.3690 C   0  0  0  0  0  0  0  0  0  0  0  0
   -0.6890    0.4850    0.1380 C   0  0  0  0  0  0  0  0  0  0  0  0
   -1.1660   -0.8240    0.0870 C   0  0  0  0  0  0  0  0  0  0  0  0
   -2.5430   -1.1150    0.2550 N   0  0  0  0  0  0  0  0  0  0  0  0
   -0.1920   -1.7720   -0.1350 C   0  0  0  0  0  0  0  0  0  0  0  0
    1.1430   -1.4980   -0.2980 C   0  0  0  0  0  0  0  0  0  0  0  0
    1.6310   -0.1790   -0.2480 C   0  0  0  0  0  0  0  0  0  0  0  0
    2.8530    0.2140   -0.3850 N   0  0  0  0  0  0  0  0  0  0  0  0
    3.2230    1.4970   -0.3220 C   0  0  0  0  0  0  0  0  0  0  0  0
    4.5900    2.2660   -0.4450 S   0  0  0  0  0  0  0  0  0  0  0  0
    1.5680    2.2940   -0.0170 S   0  0  0  0  0  0  0  0  0  0  0  0
    0.6380    0.7590   -0.0240 C   0  0  0  0  0  0  0  0  0  0  0  0
  1  2  1  0
  2  3  2  0
  2 12  1  0
  3  4  1  0
  3  5  1  0
  5  6  2  0
  6  7  1  0
  7  8  1  0
  7 12  2  0
  8  9  1  0
  9 10  2  0
  9 11  1  0
 11 12  1  0
M  CHG  1   4   1
M  END
