
     RDKit          3D

 27 30  0  0  0  0  0  0  0  0999 V2000
    4.7630    1.6870    1.3200 C   0  0  0  0  0  0  0  0  0  0  0  0
    3.3390    1.4820    1.7670 C   0  0  0  0  0  0  0  0  0  0  0  0
    2.8220    0.2320    1.1170 C   0  0  0  0  0  0  0  0  0  0  0  0
    1.9590    0.3420    0.0480 C   0  0  0  0  0  0  0  0  0  0  0  0
    1.4310   -0.7410   -0.6160 C   0  0  0  0  0  0  0  0  0  0  0  0
    0.5120   -0.6590   -1.7430 C   0  0  0  0  0  0  0  0  0  0  0  0
    0.7820   -0.9870   -3.0440 N   0  0  0  0  0  0  0  0  0  0  0  0
   -0.2800   -0.7890   -3.7930 N   0  0  0  0  0  0  0  0  0  0  0  0
   -1.3090   -0.3260   -3.0670 C   0  0  0  0  0  0  0  0  0  0  0  0
   -2.6550    0.0180   -3.5120 C   0  0  0  0  0  0  0  0  0  0  0  0
   -3.5240    0.4440   -2.7130 O   0  0  0  0  0  0  0  0  0  0  0  0
   -3.0410   -0.1080   -4.8370 O   0  0  0  0  0  0  0  0  0  0  0  0
   -0.8050   -0.2440   -1.7690 C   0  0  0  0  0  0  0  0  0  0  0  0
   -1.6010    0.2160   -0.6560 C   0  0  0  0  0  0  0  0  0  0  0  0
   -1.3500    1.4150   -0.0280 C   0  0  0  0  0  0  0  0  0  0  0  0
   -2.1240    1.8340    1.0400 C   0  0  0  0  0  0  0  0  0  0  0  0
   -3.1710    1.0710    1.5140 C   0  0  0  0  0  0  0  0  0  0  0  0
   -3.4240   -0.1370    0.8810 C   0  0  0  0  0  0  0  0  0  0  0  0
   -2.6520   -0.5580   -0.1860 C   0  0  0  0  0  0  0  0  0  0  0  0
   -4.5200   -0.6710    1.5700 O   0  0  0  0  0  0  0  0  0  0  0  0
   -5.1190    0.2870    2.3990 C   0  0  0  0  0  0  0  0  0  0  0  0
   -4.0890    1.2580    2.5550 O   0  0  0  0  0  0  0  0  0  0  0  0
    1.8160   -1.9930   -0.1490 C   0  0  0  0  0  0  0  0  0  0  0  0
    1.3260   -3.1240   -0.7660 O   0  0  0  0  0  0  0  0  0  0  0  0
    2.6820   -2.1420    0.9230 C   0  0  0  0  0  0  0  0  0  0  0  0
    3.1770   -1.0070    1.5470 C   0  0  0  0  0  0  0  0  0  0  0  0
    4.0500   -1.0940    2.6300 O   0  0  0  0  0  0  0  0  0  0  0  0
  1  2  1  0
  2  3  1  0
  3  4  2  0
  3 26  1  0
  4  5  1  0
  5  6  1  0
  5 23  2  0
  6  7  2  0
  6 13  1  0
  7  8  1  0
  8  9  1  0
  9 10  1  0
  9 13  2  0
 10 11  2  0
 10 12  1  0
 13 14  1  0
 14 15  2  0
 14 19  1  0
 15 16  1  0
 16 17  2  0
 17 18  1  0
 17 22  1  0
 18 19  2  0
 18 20  1  0
 20 21  1  0
 21 22  1  0
 23 24  1  0
 23 25  1  0
 25 26  2  0
 26 27  1  0
M  END
