
     RDKit          3D

 11 11  0  0  0  0  0  0  0  0999 V2000
    3.8620    0.0390   -0.0070 C   0  0  0  0  0  0  0  0  0  0  0  0
    2.8610   -1.2640   -0.7100 S   0  0  0  0  0  0  0  0  0  0  0  0
    1.2660   -1.4990    0.0580 C   0  0  0  0  0  0  0  0  0  0  0  0
    0.3140   -0.4020   -0.1790 C   0  0  0  0  0  0  0  0  0  0  0  0
    0.6240    0.6660   -0.9570 C   0  0  0  0  0  0  0  0  0  0  0  0
   -0.3020    1.6690   -1.1700 C   0  0  0  0  0  0  0  0  0  0  0  0
   -1.5120    1.5900   -0.6080 N   0  0  0  0  0  0  0  0  0  0  0  0
   -1.8870    0.5590    0.1740 C   0  0  0  0  0  0  0  0  0  0  0  0
   -3.2420    0.5360    0.7650 C   0  0  0  0  0  0  0  0  0  0  0  0
   -0.9570   -0.4330    0.3790 C   0  0  0  0  0  0  0  0  0  0  0  0
   -1.3080   -1.5330    1.1930 N   0  0  0  0  0  0  0  0  0  0  0  0
  1  2  1  0
  2  3  1  0
  3  4  1  0
  4  5  2  0
  4 10  1  0
  5  6  1  0
  6  7  2  0
  7  8  1  0
  8  9  1  0
  8 10  2  0
 10 11  1  0
M  CHG  1   7   1
M  END
