
     RDKit          3D

 12 13  0  0  0  0  0  0  0  0999 V2000
   -0.6140   -2.4350    0.5770 C   0  0  0  0  0  0  0  0  0  0  0  0
   -0.0400   -1.1240    0.1050 C   0  0  0  0  0  0  0  0  0  0  0  0
    1.2340   -0.9770   -0.2370 N   0  0  0  0  0  0  0  0  0  0  0  0
    1.7860   -0.0460   -0.6070 C   0  0  0  0  0  0  0  0  0  0  0  0
    3.1060    0.4990   -1.0610 C   0  0  0  0  0  0  0  0  0  0  0  0
    3.8540    0.9960    0.0580 N   0  0  0  0  0  0  0  0  0  0  0  0
    0.3540    1.2060   -0.5850 S   0  0  0  0  0  0  0  0  0  0  0  0
   -0.8010   -0.0140    0.0020 C   0  0  0  0  0  0  0  0  0  0  0  0
   -2.2110    0.2130    0.2810 C   0  0  0  0  0  0  0  0  0  0  0  0
   -2.9770    1.2810    0.1900 C   0  0  0  0  0  0  0  0  0  0  0  0
   -4.2680    0.7230    0.6420 C   0  0  0  0  0  0  0  0  0  0  0  0
   -3.4870   -0.8560    0.8610 S   0  0  0  0  0  0  0  0  0  0  0  0
  1  2  1  0
  2  3  1  0
  2  8  2  0
  3  4  2  0
  4  5  1  0
  4  7  1  0
  5  6  1  0
  7  8  1  0
  8  9  1  0
  9 10  2  0
  9 12  1  0
 10 11  1  0
 11 12  1  0
M  CHG  1   6   1
M  END
