
     RDKit          3D

 12 13  0  0  0  0  0  0  0  0999 V2000
   -2.1820    1.0110    0.6360 C   0  0  0  0  0  0  0  0  0  0  0  0
   -1.3570    0.2930   -0.0920 C   0  0  0  0  0  0  0  0  0  0  0  0
    0.1110    0.5380   -0.1740 C   0  0  0  0  0  0  0  0  0  0  0  0
    1.0560   -0.9000    0.3850 S   0  0  0  0  0  0  0  0  0  0  0  0
    2.8120   -0.4610    0.2310 C   0  0  0  0  0  0  0  0  0  0  0  0
    3.7030    0.0060    0.7740 N   0  0  0  0  0  0  0  0  0  0  0  0
    4.9500    0.2250    0.4280 C   0  0  0  0  0  0  0  0  0  0  0  0
    5.2390   -0.2050   -0.8730 C   0  0  0  0  0  0  0  0  0  0  0  0
    3.6640   -0.8770   -1.4410 S   0  0  0  0  0  0  0  0  0  0  0  0
   -2.1480   -0.7590   -0.7760 C   0  0  0  0  0  0  0  0  0  0  0  0
   -3.3800   -0.8240   -0.0100 N   0  0  0  0  0  0  0  0  0  0  0  0
   -3.5570    0.5030    0.4900 C   0  0  0  0  0  0  0  0  0  0  0  0
  1  2  2  0
  1 12  1  0
  2  3  1  0
  2 10  1  0
  3  4  1  0
  4  5  1  0
  5  6  2  0
  5  9  1  0
  6  7  1  0
  7  8  2  0
  8  9  1  0
 10 11  1  0
 11 12  1  0
M  CHG  1  11   1
M  END
