
     RDKit          3D

 20 22  0  0  0  0  0  0  0  0999 V2000
    5.2660   -0.1640    1.2480 C   0  0  0  0  0  0  0  0  0  0  0  0
    3.7800   -0.2690    0.9160 C   0  0  0  0  0  0  0  0  0  0  0  0
    3.2870    0.3000   -0.1310 C   0  0  0  0  0  0  0  0  0  0  0  0
    2.0010    0.3990   -0.7170 C   0  0  0  0  0  0  0  0  0  0  0  0
    1.7800    1.2830   -1.7730 C   0  0  0  0  0  0  0  0  0  0  0  0
    2.7820    2.0900   -2.2310 O   0  0  0  0  0  0  0  0  0  0  0  0
    0.5150    1.3440   -2.3690 C   0  0  0  0  0  0  0  0  0  0  0  0
   -0.5040    0.5940   -1.9770 N   0  0  0  0  0  0  0  0  0  0  0  0
   -0.3330   -0.2740   -0.9610 C   0  0  0  0  0  0  0  0  0  0  0  0
    0.9110   -0.3840   -0.3210 C   0  0  0  0  0  0  0  0  0  0  0  0
    0.7560   -1.3240    0.6140 N   0  0  0  0  0  0  0  0  0  0  0  0
   -0.5390   -1.7640    0.5420 C   0  0  0  0  0  0  0  0  0  0  0  0
   -0.9930   -2.6610    1.3090 O   0  0  0  0  0  0  0  0  0  0  0  0
   -1.2000   -1.1330   -0.4060 N   0  0  0  0  0  0  0  0  0  0  0  0
   -2.6050   -1.3130   -0.8020 C   0  0  0  0  0  0  0  0  0  0  0  0
   -3.4870   -0.4020   -0.0290 C   0  0  0  0  0  0  0  0  0  0  0  0
   -4.1140   -0.6300    1.1770 C   0  0  0  0  0  0  0  0  0  0  0  0
   -4.8310    0.4970    1.5140 C   0  0  0  0  0  0  0  0  0  0  0  0
   -4.6530    1.4180    0.5300 N   0  0  0  0  0  0  0  0  0  0  0  0
   -3.8380    0.8770   -0.4090 C   0  0  0  0  0  0  0  0  0  0  0  0
  1  2  1  0
  2  3  2  3
  3  4  1  0
  4  5  2  0
  4 10  1  0
  5  6  1  0
  5  7  1  0
  7  8  2  0
  8  9  1  0
  9 10  2  0
  9 14  1  0
 10 11  1  0
 11 12  1  0
 12 13  2  0
 12 14  1  0
 14 15  1  0
 15 16  1  0
 16 17  1  0
 16 20  2  0
 17 18  2  0
 18 19  1  0
 19 20  1  0
M  END
