
     RDKit          3D

 19 21  0  0  0  0  0  0  0  0999 V2000
    6.4250    0.8760    0.2700 C   0  0  0  0  0  0  0  0  0  0  0  0
    5.1020    0.2590    0.6030 C   0  0  0  0  0  0  0  0  0  0  0  0
    3.9950    0.8240   -0.2490 C   0  0  0  0  0  0  0  0  0  0  0  0
    2.7110    0.1430    0.1610 C   0  0  0  0  0  0  0  0  0  0  0  0
    2.6890   -0.7140    1.0510 O   0  0  0  0  0  0  0  0  0  0  0  0
    1.5490    0.5330   -0.5220 N   0  0  0  0  0  0  0  0  0  0  0  0
    0.2730    0.0050   -0.2780 C   0  0  0  0  0  0  0  0  0  0  0  0
    0.0160   -1.1150    0.4660 C   0  0  0  0  0  0  0  0  0  0  0  0
   -1.2900   -1.5500    0.6640 C   0  0  0  0  0  0  0  0  0  0  0  0
   -2.3420   -0.8550    0.1100 C   0  0  0  0  0  0  0  0  0  0  0  0
   -2.1270    0.2780   -0.6460 C   0  0  0  0  0  0  0  0  0  0  0  0
   -0.8310    0.6810   -0.8220 C   0  0  0  0  0  0  0  0  0  0  0  0
   -3.2950    0.7270   -1.0410 O   0  0  0  0  0  0  0  0  0  0  0  0
   -4.2710   -0.0440   -0.5890 C   0  0  0  0  0  0  0  0  0  0  0  0
   -5.6300   -0.2500   -0.5510 C   0  0  0  0  0  0  0  0  0  0  0  0
   -6.5910    0.5890   -1.1960 N   0  0  0  0  0  0  0  0  0  0  0  0
   -5.8660   -1.3410    0.1750 N   0  0  0  0  0  0  0  0  0  0  0  0
   -4.7130   -1.8170    0.5870 N   0  0  0  0  0  0  0  0  0  0  0  0
   -3.7020   -1.0560    0.1450 C   0  0  0  0  0  0  0  0  0  0  0  0
  1  2  1  0
  2  3  1  0
  3  4  1  0
  4  5  2  0
  4  6  1  0
  6  7  1  0
  7  8  2  0
  7 12  1  0
  8  9  1  0
  9 10  2  0
 10 11  1  0
 10 19  1  0
 11 12  2  0
 11 13  1  0
 13 14  1  0
 14 15  2  0
 14 19  1  0
 15 16  1  0
 15 17  1  0
 17 18  1  0
 18 19  2  0
M  END
