
     RDKit          3D

 20 21  0  0  0  0  0  0  0  0999 V2000
    3.4800   -2.7640    0.3360 C   0  0  0  0  0  0  0  0  0  0  0  0
    3.2420   -1.5450    1.2480 C   0  0  0  0  0  0  0  0  0  0  0  0
    1.9220   -0.9840    0.8810 C   0  0  0  0  0  0  0  0  0  0  0  0
    1.6860    0.2210    0.4470 C   0  0  0  0  0  0  0  0  0  0  0  0
    2.8000    1.2210    0.2760 C   0  0  0  0  0  0  0  0  0  0  0  0
    0.3500    0.6940   -0.0010 C   0  0  0  0  0  0  0  0  0  0  0  0
    0.2450    1.9710   -0.3510 C   0  0  0  0  0  0  0  0  0  0  0  0
   -0.9570    2.5990   -0.8120 C   0  0  0  0  0  0  0  0  0  0  0  0
   -0.9340    3.9110   -1.1280 C   0  0  0  0  0  0  0  0  0  0  0  0
    0.2670    4.6360   -1.0000 O   0  0  0  0  0  0  0  0  0  0  0  0
   -0.8360   -0.1500    0.0010 C   0  0  0  0  0  0  0  0  0  0  0  0
   -2.0520    0.3710    0.2490 N   0  0  0  0  0  0  0  0  0  0  0  0
   -3.2180   -0.2370    0.2020 C   0  0  0  0  0  0  0  0  0  0  0  0
   -4.4970    0.1450    0.4200 N   0  0  0  0  0  0  0  0  0  0  0  0
   -5.2620   -0.9070    0.2220 N   0  0  0  0  0  0  0  0  0  0  0  0
   -4.5450   -1.9890   -0.1230 C   0  0  0  0  0  0  0  0  0  0  0  0
   -3.2330   -1.5740   -0.1400 C   0  0  0  0  0  0  0  0  0  0  0  0
   -2.0180   -2.1410   -0.4010 C   0  0  0  0  0  0  0  0  0  0  0  0
   -2.0170   -3.3710   -0.7170 O   0  0  0  0  0  0  0  0  0  0  0  0
   -0.8430   -1.4540   -0.3360 N   0  0  0  0  0  0  0  0  0  0  0  0
  1  2  1  0
  2  3  1  0
  3  4  2  3
  4  5  1  0
  4  6  1  0
  6  7  2  3
  6 11  1  0
  7  8  1  0
  8  9  2  3
  9 10  1  0
 11 12  2  0
 11 20  1  0
 12 13  1  0
 13 14  1  0
 13 17  2  0
 14 15  1  0
 15 16  2  0
 16 17  1  0
 17 18  1  0
 18 19  2  0
 18 20  1  0
M  END
