
     RDKit          3D

 20 22  0  0  0  0  0  0  0  0999 V2000
   -2.3630   -2.0620    0.6880 O   0  0  0  0  0  0  0  0  0  0  0  0
   -2.7610   -0.8750    0.5810 C   0  0  0  0  0  0  0  0  0  0  0  0
   -1.8260    0.2050    0.7890 N   0  0  0  0  0  0  0  0  0  0  0  0
   -0.5070   -0.1010    1.1010 N   0  0  0  0  0  0  0  0  0  0  0  0
    0.5650    0.4000    0.3240 C   0  0  0  0  0  0  0  0  0  0  0  0
    1.8880    0.0850    0.5870 C   0  0  0  0  0  0  0  0  0  0  0  0
    2.9250    0.5770   -0.1750 C   0  0  0  0  0  0  0  0  0  0  0  0
    4.3050    0.2270    0.1080 C   0  0  0  0  0  0  0  0  0  0  0  0
    4.7430   -0.9950    0.6440 C   0  0  0  0  0  0  0  0  0  0  0  0
    6.1160   -0.9540    0.7670 C   0  0  0  0  0  0  0  0  0  0  0  0
    6.4990    0.2200    0.3330 O   0  0  0  0  0  0  0  0  0  0  0  0
    5.4720    0.9480   -0.0640 C   0  0  0  0  0  0  0  0  0  0  0  0
    2.6460    1.4060   -1.2280 C   0  0  0  0  0  0  0  0  0  0  0  0
    1.3290    1.7190   -1.4880 C   0  0  0  0  0  0  0  0  0  0  0  0
    0.3480    1.2120   -0.7140 N   0  0  0  0  0  0  0  0  0  0  0  0
   -4.1550   -0.6320    0.2500 C   0  0  0  0  0  0  0  0  0  0  0  0
   -5.0850   -1.6430    0.0640 C   0  0  0  0  0  0  0  0  0  0  0  0
   -6.2900   -1.0820   -0.2360 C   0  0  0  0  0  0  0  0  0  0  0  0
   -6.0770    0.2830   -0.2300 C   0  0  0  0  0  0  0  0  0  0  0  0
   -4.7960    0.5350    0.0620 N   0  0  0  0  0  0  0  0  0  0  0  0
  1  2  2  0
  2  3  1  0
  2 16  1  0
  3  4  1  0
  4  5  1  0
  5  6  2  0
  5 15  1  0
  6  7  1  0
  7  8  1  0
  7 13  2  0
  8  9  1  0
  8 12  2  0
  9 10  2  0
 10 11  1  0
 11 12  1  0
 13 14  1  0
 14 15  2  0
 16 17  2  0
 16 20  1  0
 17 18  1  0
 18 19  2  0
 19 20  1  0
M  END
