
     RDKit          3D

 20 21  0  0  0  0  0  0  0  0999 V2000
   -5.7280    0.1210   -0.3520 C   0  0  0  0  0  0  0  0  0  0  0  0
   -4.3080   -0.1810    0.0930 C   0  0  1  0  0  0  0  0  0  0  0  0
   -4.1750    0.3460    1.4960 C   0  0  0  0  0  0  0  0  0  0  0  0
   -4.0300   -1.6710    0.0420 C   0  0  0  0  0  0  0  0  0  0  0  0
   -2.7120   -1.8070   -0.6390 C   0  0  0  0  0  0  0  0  0  0  0  0
   -2.3440   -0.6500   -1.1290 C   0  0  0  0  0  0  0  0  0  0  0  0
   -1.1140   -0.4580   -1.8410 N   0  0  0  0  0  0  0  0  0  0  0  0
   -0.1360   -0.3490   -0.9750 C   0  0  0  0  0  0  0  0  0  0  0  0
   -0.6040   -0.4650    0.2890 O   0  0  0  0  0  0  0  0  0  0  0  0
    1.0260   -0.1530   -1.7270 N   0  0  0  0  0  0  0  0  0  0  0  0
    2.2020    0.1320   -1.0630 C   0  0  0  0  0  0  0  0  0  0  0  0
    2.0100    0.2020    0.1900 O   0  0  0  0  0  0  0  0  0  0  0  0
    3.4330    0.3270   -1.6860 N   0  0  0  0  0  0  0  0  0  0  0  0
    4.4780    0.6660   -0.7550 C   0  0  0  0  0  0  0  0  0  0  0  0
    5.0720    1.8360   -0.7930 C   0  0  0  0  0  0  0  0  0  0  0  0
    6.0960    1.9110    0.2770 C   0  0  0  0  0  0  0  0  0  0  0  0
    5.9870    0.5920    0.9400 C   0  0  0  0  0  0  0  0  0  0  0  0
    5.0480   -0.0970    0.3200 C   0  0  0  0  0  0  0  0  0  0  0  0
    4.6520   -1.4100    0.6620 N   0  0  0  0  0  0  0  0  0  0  0  0
   -3.2950    0.4420   -0.8230 C   0  0  0  0  0  0  0  0  0  0  0  0
  2  1  1  6
  2  3  1  0
  2  4  1  0
  2 20  1  0
  4  5  1  0
  5  6  2  0
  6  7  1  0
  6 20  1  0
  7  8  2  3
  8  9  1  0
  8 10  1  0
 10 11  1  0
 11 12  2  0
 11 13  1  0
 13 14  1  0
 14 15  2  0
 14 18  1  0
 15 16  1  0
 16 17  1  0
 17 18  2  0
 18 19  1  0
M  END
