
     RDKit          3D

 20 22  0  0  0  0  0  0  0  0999 V2000
    5.1730   -0.3030   -0.8760 C   0  0  0  0  0  0  0  0  0  0  0  0
    4.5700   -0.9570    0.3270 C   0  0  0  0  0  0  0  0  0  0  0  0
    3.1850   -1.1630    0.2470 O   0  0  0  0  0  0  0  0  0  0  0  0
    2.2250   -0.1920    0.0920 C   0  0  0  0  0  0  0  0  0  0  0  0
    2.5900    1.1270    0.0030 C   0  0  0  0  0  0  0  0  0  0  0  0
    1.6290    2.1330   -0.1550 C   0  0  0  0  0  0  0  0  0  0  0  0
    0.2950    1.7500   -0.2180 C   0  0  0  0  0  0  0  0  0  0  0  0
   -0.8320    2.5030   -0.3660 N   0  0  0  0  0  0  0  0  0  0  0  0
   -1.8830    1.6790   -0.3700 C   0  0  0  0  0  0  0  0  0  0  0  0
   -3.2980    2.1530   -0.5140 C   0  0  0  0  0  0  0  0  0  0  0  0
   -1.4740    0.3660   -0.2250 C   0  0  0  0  0  0  0  0  0  0  0  0
   -2.3020   -0.8340   -0.1800 C   0  0  0  0  0  0  0  0  0  0  0  0
   -2.8810   -1.4680    0.9030 C   0  0  0  0  0  0  0  0  0  0  0  0
   -2.7440   -1.0100    2.2320 N   0  0  0  0  0  0  0  0  0  0  0  0
   -3.5750   -2.5590    0.5010 N   0  0  0  0  0  0  0  0  0  0  0  0
   -3.4400   -2.6170   -0.8120 N   0  0  0  0  0  0  0  0  0  0  0  0
   -2.6850   -1.6040   -1.2730 C   0  0  0  0  0  0  0  0  0  0  0  0
   -2.3580   -1.3600   -2.4770 O   0  0  0  0  0  0  0  0  0  0  0  0
   -0.0990    0.4320   -0.1310 C   0  0  0  0  0  0  0  0  0  0  0  0
    0.8940   -0.5430    0.0260 C   0  0  0  0  0  0  0  0  0  0  0  0
  1  2  1  0
  2  3  1  0
  3  4  1  0
  4  5  2  0
  4 20  1  0
  5  6  1  0
  6  7  2  0
  7  8  1  0
  7 19  1  0
  8  9  1  0
  9 10  1  0
  9 11  2  0
 11 12  1  0
 11 19  1  0
 12 13  2  0
 12 17  1  0
 13 14  1  0
 13 15  1  0
 15 16  1  0
 16 17  1  0
 17 18  2  0
 19 20  2  0
M  END
