
     RDKit          3D

 20 21  0  0  0  0  0  0  0  0999 V2000
    4.8450   -0.5940   -2.2440 C   0  0  0  0  0  0  0  0  0  0  0  0
    4.8670    0.4770   -1.2150 C   0  0  0  0  0  0  0  0  0  0  0  0
    4.2050    0.4040   -0.0830 C   0  0  0  0  0  0  0  0  0  0  0  0
    4.2780    1.5060    0.8850 C   0  0  0  0  0  0  0  0  0  0  0  0
    3.4200   -0.7490    0.1910 N   0  0  0  0  0  0  0  0  0  0  0  0
    2.0710   -0.5470    0.6270 C   0  0  0  0  0  0  0  0  0  0  0  0
    1.2500   -1.6290    0.9120 C   0  0  0  0  0  0  0  0  0  0  0  0
   -0.0480   -1.4350    1.3320 C   0  0  0  0  0  0  0  0  0  0  0  0
   -0.5120   -0.1430    1.4630 C   0  0  0  0  0  0  0  0  0  0  0  0
   -1.7960    0.0710    1.8790 O   0  0  0  0  0  0  0  0  0  0  0  0
   -2.9130    0.0750    1.0550 C   0  0  0  0  0  0  0  0  0  0  0  0
   -3.3870    1.2120    0.4330 C   0  0  0  0  0  0  0  0  0  0  0  0
   -4.4930    1.2360   -0.3870 C   0  0  0  0  0  0  0  0  0  0  0  0
   -4.9520    2.4330   -1.0130 N   0  0  0  0  0  0  0  0  0  0  0  0
   -5.1720    0.0570   -0.6040 C   0  0  0  0  0  0  0  0  0  0  0  0
   -4.7360   -1.1040   -0.0040 C   0  0  0  0  0  0  0  0  0  0  0  0
   -5.3870   -2.3340   -0.1880 O   0  0  0  0  0  0  0  0  0  0  0  0
   -3.6130   -1.1060    0.8240 C   0  0  0  0  0  0  0  0  0  0  0  0
    0.3080    0.8930    1.1810 N   0  0  0  0  0  0  0  0  0  0  0  0
    1.5530    0.6860    0.7780 N   0  0  0  0  0  0  0  0  0  0  0  0
  1  2  1  0
  2  3  2  3
  3  4  1  0
  3  5  1  0
  5  6  1  0
  6  7  2  0
  6 20  1  0
  7  8  1  0
  8  9  2  0
  9 10  1  0
  9 19  1  0
 10 11  1  0
 11 12  2  0
 11 18  1  0
 12 13  1  0
 13 14  1  0
 13 15  2  0
 15 16  1  0
 16 17  1  0
 16 18  2  0
 19 20  2  0
M  END
