
     RDKit          3D

 20 21  0  0  0  0  0  0  0  0999 V2000
   -3.6700   -1.6100   -0.9180 C   0  0  0  0  0  0  0  0  0  0  0  0
   -2.3720   -1.6080   -1.1190 C   0  0  0  0  0  0  0  0  0  0  0  0
   -1.7260   -2.8650   -1.5390 C   0  0  0  0  0  0  0  0  0  0  0  0
   -0.4730   -3.2510   -1.3480 C   0  0  0  0  0  0  0  0  0  0  0  0
    0.5810   -2.5200   -0.6690 C   0  0  0  0  0  0  0  0  0  0  0  0
    0.6580   -1.2610   -0.1760 C   0  0  0  0  0  0  0  0  0  0  0  0
    1.9280   -0.9430    0.4340 C   0  0  0  0  0  0  0  0  0  0  0  0
    2.3180    0.1650    0.9880 C   0  0  0  0  0  0  0  0  0  0  0  0
    1.5500    1.3310    1.1110 N   0  0  0  0  0  0  0  0  0  0  0  0
    1.9040    2.4410    1.6520 C   0  0  0  0  0  0  0  0  0  0  0  0
    1.0190    3.5400    1.7050 N   0  0  0  0  0  0  0  0  0  0  0  0
    3.2610    2.5420    2.2190 C   0  0  0  0  0  0  0  0  0  0  0  0
    3.5800    3.6360    2.7410 O   0  0  0  0  0  0  0  0  0  0  0  0
    4.1400    1.4420    2.1630 N   0  0  0  0  0  0  0  0  0  0  0  0
    3.6990    0.2440    1.5560 C   0  0  0  0  0  0  0  0  0  0  0  0
    4.4650   -0.7440    1.4970 O   0  0  0  0  0  0  0  0  0  0  0  0
   -0.3760   -0.2850   -0.2120 N   0  0  0  0  0  0  0  0  0  0  0  0
   -1.6460   -0.3680   -0.9090 C   0  0  0  0  0  0  0  0  0  0  0  0
   -2.1370    0.7150   -1.3940 C   0  0  0  0  0  0  0  0  0  0  0  0
   -3.3720    0.8640   -2.1640 C   0  0  0  0  0  0  0  0  0  0  0  0
  1  2  2  0
  2  3  1  0
  2 18  1  0
  3  4  2  0
  4  5  1  0
  5  6  2  0
  6  7  1  0
  6 17  1  0
  7  8  2  3
  8  9  1  0
  8 15  1  0
  9 10  2  0
 10 11  1  0
 10 12  1  0
 12 13  2  0
 12 14  1  0
 14 15  1  0
 15 16  2  0
 17 18  1  0
 18 19  2  3
 19 20  1  0
M  END
