
     RDKit          3D

 20 22  0  0  0  0  0  0  0  0999 V2000
   -5.1410    1.4190    0.4320 N   0  0  0  0  0  0  0  0  0  0  0  0
   -3.7730    1.0250    0.3470 C   0  0  0  0  0  0  0  0  0  0  0  0
   -2.7640    1.8430    0.8360 C   0  0  0  0  0  0  0  0  0  0  0  0
   -1.5110    1.3880    0.7110 N   0  0  0  0  0  0  0  0  0  0  0  0
   -1.2030    0.2070    0.1480 C   0  0  0  0  0  0  0  0  0  0  0  0
    0.1920   -0.2100    0.0530 C   0  0  0  0  0  0  0  0  0  0  0  0
    0.5440   -1.4050   -0.5120 C   0  0  0  0  0  0  0  0  0  0  0  0
    1.8750   -1.7760   -0.5890 C   0  0  0  0  0  0  0  0  0  0  0  0
    2.8430   -0.9220   -0.0860 C   0  0  0  0  0  0  0  0  0  0  0  0
    4.1900   -1.2320   -0.1320 C   0  0  0  0  0  0  0  0  0  0  0  0
    4.6990   -2.8830   -0.9120 Br  0  0  0  0  0  0  0  0  0  0  0  0
    5.1630   -0.3880    0.3670 C   0  0  0  0  0  0  0  0  0  0  0  0
    4.7540    0.7970    0.9230 C   0  0  0  0  0  0  0  0  0  0  0  0
    6.0870    1.9720    1.6160 Br  0  0  0  0  0  0  0  0  0  0  0  0
    3.4330    1.1490    0.9920 C   0  0  0  0  0  0  0  0  0  0  0  0
    2.4720    0.2750    0.4790 C   0  0  0  0  0  0  0  0  0  0  0  0
    1.1660    0.5780    0.5240 N   0  0  0  0  0  0  0  0  0  0  0  0
   -2.1940   -0.5600   -0.3130 N   0  0  0  0  0  0  0  0  0  0  0  0
   -3.4930   -0.1980   -0.2390 C   0  0  0  0  0  0  0  0  0  0  0  0
   -4.5550   -0.9980   -0.7230 N   0  0  0  0  0  0  0  0  0  0  0  0
  1  2  1  0
  2  3  2  0
  2 19  1  0
  3  4  1  0
  4  5  2  0
  5  6  1  0
  5 18  1  0
  6  7  2  0
  6 17  1  0
  7  8  1  0
  8  9  2  0
  9 10  1  0
  9 16  1  0
 10 11  1  0
 10 12  2  0
 12 13  1  0
 13 14  1  0
 13 15  2  0
 15 16  1  0
 16 17  2  0
 18 19  2  0
 19 20  1  0
M  END
