
     RDKit          3D

 12 12  0  0  0  0  0  0  0  0999 V2000
    4.4570   -0.1620    0.2610 C   0  0  0  0  0  0  0  0  0  0  0  0
    3.0780   -0.3710    0.3270 O   0  0  0  0  0  0  0  0  0  0  0  0
    2.2840   -0.0480   -0.7550 C   0  0  0  0  0  0  0  0  0  0  0  0
    2.8250    0.4200   -1.7770 O   0  0  0  0  0  0  0  0  0  0  0  0
    0.8110   -0.2460   -0.7290 C   0  0  0  0  0  0  0  0  0  0  0  0
    0.0280    1.1360    0.1860 S   0  0  0  0  0  0  0  0  0  0  0  0
   -1.7380    0.9060    0.2280 C   0  0  0  0  0  0  0  0  0  0  0  0
   -2.5590    1.6800    0.8650 N   0  0  0  0  0  0  0  0  0  0  0  0
   -3.8690    1.2240    0.6970 N   0  0  0  0  0  0  0  0  0  0  0  0
   -3.8370   -0.0660    0.1430 N   0  0  0  0  0  0  0  0  0  0  0  0
   -3.8310   -0.9450    1.1720 O   0  0  0  0  0  0  0  0  0  0  0  0
   -2.5150   -0.0930   -0.3730 N   0  0  0  0  0  0  0  0  0  0  0  0
  1  2  1  0
  2  3  1  0
  3  4  2  0
  3  5  1  0
  5  6  1  0
  6  7  1  0
  7  8  2  0
  7 12  1  0
  8  9  1  0
  9 10  1  0
 10 11  1  0
 10 12  1  0
M  END
