
     RDKit          3D

 13 13  0  0  0  0  0  0  0  0999 V2000
   -3.2300    0.9000   -1.7310 N   0  0  0  0  0  0  0  0  0  0  0  0
   -3.2100   -0.3620   -1.0750 C   0  0  0  0  0  0  0  0  0  0  0  0
   -4.2230   -1.1120   -1.0960 O   0  0  0  0  0  0  0  0  0  0  0  0
   -1.9970   -0.8460   -0.3420 C   0  0  0  0  0  0  0  0  0  0  0  0
   -0.9750    0.1850   -0.4630 N   0  0  0  0  0  0  0  0  0  0  0  0
    0.2900   -0.0720    0.1740 C   0  0  0  0  0  0  0  0  0  0  0  0
    0.4630   -1.1460    0.7940 O   0  0  0  0  0  0  0  0  0  0  0  0
    1.3050    0.8720    0.0960 O   0  0  0  0  0  0  0  0  0  0  0  0
    2.5510    0.5930    0.7360 C   0  0  0  0  0  0  0  0  0  0  0  0
    2.8660   -0.4120    1.3780 N   0  0  0  0  0  0  0  0  0  0  0  0
    4.0590   -0.6220    1.9630 N   0  0  0  0  0  0  0  0  0  0  0  0
    5.3420    0.4610    1.3220 S   0  0  0  0  0  0  0  0  0  0  0  0
    3.8340    1.8500    0.6030 S   0  0  0  0  0  0  0  0  0  0  0  0
  1  2  1  0
  2  3  2  0
  2  4  1  0
  4  5  1  0
  5  6  1  0
  6  7  2  0
  6  8  1  0
  8  9  1  0
  9 10  2  0
  9 13  1  0
 10 11  1  0
 11 12  1  0
 12 13  1  0
M  END
