
     RDKit          3D

 13 13  0  0  0  0  0  0  0  0999 V2000
   -4.3780    0.0070    0.5030 C   0  0  0  0  0  0  0  0  0  0  0  0
   -2.9940   -0.4670    0.2050 C   0  0  0  0  0  0  0  0  0  0  0  0
   -2.7210   -1.6840   -0.0010 O   0  0  0  0  0  0  0  0  0  0  0  0
   -1.9010    0.4370    0.1360 N   0  0  0  0  0  0  0  0  0  0  0  0
   -0.5630   -0.0980   -0.1630 C   0  0  0  0  0  0  0  0  0  0  0  0
    0.0360   -1.0540   -0.3900 N   0  0  0  0  0  0  0  0  0  0  0  0
    1.3220   -1.1170   -0.6180 N   0  0  0  0  0  0  0  0  0  0  0  0
    2.0530   -0.2250   -0.6270 C   0  0  0  0  0  0  0  0  0  0  0  0
    3.7100    0.3070   -0.8410 S   0  0  2  0  0  0  0  0  0  0  0  0
    4.4190    0.2320    0.7480 N   0  0  0  0  0  0  0  0  0  0  0  0
    3.8170    1.6580   -1.4340 O   0  0  0  0  0  0  0  0  0  0  0  0
    4.3720   -0.7250   -1.7310 O   0  0  0  0  0  0  0  0  0  0  0  0
    0.8370    1.1810   -0.2350 S   0  0  0  0  0  0  0  0  0  0  0  0
  1  2  1  0
  2  3  2  0
  2  4  1  0
  4  5  1  0
  5  6  2  0
  5 13  1  0
  6  7  1  0
  7  8  2  0
  8  9  1  0
  8 13  1  0
  9 10  1  1
  9 11  2  0
  9 12  2  0
M  END
