
     RDKit          3D

 12 12  0  0  0  0  0  0  0  0999 V2000
   -3.4660   -1.9050    0.1810 O   0  0  0  0  0  0  0  0  0  0  0  0
   -2.5950   -0.9820    0.1100 C   0  0  0  0  0  0  0  0  0  0  0  0
   -1.3650   -1.1180    0.6330 N   0  0  0  0  0  0  0  0  0  0  0  0
   -0.4220   -0.1440    0.5670 C   0  0  0  0  0  0  0  0  0  0  0  0
    1.1640   -0.4240    1.2920 S   0  0  0  0  0  0  0  0  0  0  0  0
    2.3640   -1.1440    0.1500 C   0  0  0  0  0  0  0  0  0  0  0  0
    2.7790    0.0530   -1.1750 S   0  0  0  0  0  0  0  0  0  0  0  0
    3.6160    1.3930   -0.4980 O   0  0  0  0  0  0  0  0  0  0  0  0
   -0.7350    1.0060   -0.0500 N   0  0  0  0  0  0  0  0  0  0  0  0
   -1.9650    1.1710   -0.5850 C   0  0  0  0  0  0  0  0  0  0  0  0
   -2.2420    2.2380   -1.1520 O   0  0  0  0  0  0  0  0  0  0  0  0
   -2.8930    0.1780   -0.5050 N   0  0  0  0  0  0  0  0  0  0  0  0
  1  2  2  0
  2  3  1  0
  2 12  1  0
  3  4  2  0
  4  5  1  0
  4  9  1  0
  5  6  1  0
  6  7  1  0
  7  8  1  0
  9 10  1  0
 10 11  2  0
 10 12  1  0
M  END
