
     RDKit          3D

 12 12  0  0  0  0  0  0  0  0999 V2000
   -3.5290    0.7710    0.2360 O   0  0  0  0  0  0  0  0  0  0  0  0
   -2.3210    0.3710    0.1620 C   0  0  0  0  0  0  0  0  0  0  0  0
   -1.3890    1.2060   -0.3470 N   0  0  0  0  0  0  0  0  0  0  0  0
   -0.1040    0.8220   -0.4410 C   0  0  0  0  0  0  0  0  0  0  0  0
    0.7490    1.6280   -0.9240 O   0  0  0  0  0  0  0  0  0  0  0  0
    0.2380   -0.4030   -0.0230 N   0  0  0  0  0  0  0  0  0  0  0  0
    1.6300   -0.8020   -0.1320 C   0  0  0  0  0  0  0  0  0  0  0  0
    2.4770   -0.3370    1.3980 S   0  0  0  0  0  0  0  0  0  0  0  0
    2.5530    1.3590    1.5910 O   0  0  0  0  0  0  0  0  0  0  0  0
   -0.6710   -1.2540    0.4880 C   0  0  0  0  0  0  0  0  0  0  0  0
   -0.2540   -2.7550    1.0020 S   0  0  0  0  0  0  0  0  0  0  0  0
   -1.9510   -0.8540    0.5750 N   0  0  0  0  0  0  0  0  0  0  0  0
  1  2  2  0
  2  3  1  0
  2 12  1  0
  3  4  1  0
  4  5  2  0
  4  6  1  0
  6  7  1  0
  6 10  1  0
  7  8  1  0
  8  9  1  0
 10 11  2  0
 10 12  1  0
M  END
