
     RDKit          3D

 13 13  0  0  0  0  0  0  0  0999 V2000
   -2.2970   -1.6340   -0.6430 O   0  0  0  0  0  0  0  0  0  0  0  0
   -2.4500   -0.4390   -0.4040 C   0  0  0  0  0  0  0  0  0  0  0  0
   -4.1730    0.1410   -0.4430 S   0  0  0  0  0  0  0  0  0  0  0  0
   -1.3980    0.4320   -0.1220 N   0  0  0  0  0  0  0  0  0  0  0  0
   -0.0450    0.1600   -0.0530 N   0  0  0  0  0  0  0  0  0  0  0  0
    0.5340   -1.0220   -0.2490 C   0  0  0  0  0  0  0  0  0  0  0  0
   -0.0990   -2.0680   -0.5300 O   0  0  0  0  0  0  0  0  0  0  0  0
    1.8900   -1.2270   -0.1660 N   0  0  0  0  0  0  0  0  0  0  0  0
    2.6400   -0.1600    0.1310 C   0  0  0  0  0  0  0  0  0  0  0  0
    3.9070   -0.3060    0.2180 O   0  0  0  0  0  0  0  0  0  0  0  0
    2.0680    1.0380    0.3310 N   0  0  0  0  0  0  0  0  0  0  0  0
    0.7550    1.2390    0.2510 C   0  0  0  0  0  0  0  0  0  0  0  0
    0.1060    2.7340    0.5070 S   0  0  0  0  0  0  0  0  0  0  0  0
  1  2  2  0
  2  3  1  0
  2  4  1  0
  4  5  1  0
  5  6  1  0
  5 12  1  0
  6  7  2  0
  6  8  1  0
  8  9  1  0
  9 10  2  0
  9 11  1  0
 11 12  1  0
 12 13  2  0
M  END
