
     RDKit          3D

 13 13  0  0  0  0  0  0  0  0999 V2000
   -3.0940   -1.3320   -0.0370 C   0  0  0  0  0  0  0  0  0  0  0  0
   -3.3580    0.3780   -0.3660 S   0  0  2  0  0  0  0  0  0  0  0  0
   -4.2660    0.9340    0.6970 O   0  0  0  0  0  0  0  0  0  0  0  0
   -4.0070    0.5990   -1.7010 O   0  0  0  0  0  0  0  0  0  0  0  0
   -1.8970    1.2770   -0.2920 N   0  0  0  0  0  0  0  0  0  0  0  0
   -0.7140    0.5300   -0.0330 C   0  0  0  0  0  0  0  0  0  0  0  0
   -0.6590   -0.7080    0.1380 O   0  0  0  0  0  0  0  0  0  0  0  0
    0.5250    1.1410    0.0600 N   0  0  0  0  0  0  0  0  0  0  0  0
    1.6770    0.3540    0.2600 C   0  0  0  0  0  0  0  0  0  0  0  0
    2.6840    0.8880    0.6960 N   0  0  0  0  0  0  0  0  0  0  0  0
    3.7840    0.1610    0.9150 N   0  0  0  0  0  0  0  0  0  0  0  0
    4.1040   -0.7050   -0.2350 C   0  0  0  0  0  0  0  0  0  0  0  0
    2.3300   -1.2580   -0.3220 S   0  0  0  0  0  0  0  0  0  0  0  0
  2  1  1  1
  2  3  2  0
  2  4  2  0
  2  5  1  0
  5  6  1  0
  6  7  2  0
  6  8  1  0
  8  9  1  0
  9 10  2  0
  9 13  1  0
 10 11  1  0
 11 12  1  0
 12 13  1  0
M  END
