
     RDKit          3D

 12 12  0  0  0  0  0  0  0  0999 V2000
   -3.3360    0.8480    0.9340 C   0  0  0  0  0  0  0  0  0  0  0  0
   -2.7050   -0.3680    0.6710 O   0  0  0  0  0  0  0  0  0  0  0  0
   -1.8390   -0.5510   -0.3790 C   0  0  0  0  0  0  0  0  0  0  0  0
   -1.5850    0.3890   -1.1490 O   0  0  0  0  0  0  0  0  0  0  0  0
   -1.2200   -1.8690   -0.5810 C   0  0  0  0  0  0  0  0  0  0  0  0
    0.3460   -1.8660    0.3720 S   0  0  0  0  0  0  0  0  0  0  0  0
    1.4870   -0.6920   -0.3450 C   0  0  0  0  0  0  0  0  0  0  0  0
    1.2880    0.0690   -1.3850 N   0  0  0  0  0  0  0  0  0  0  0  0
    2.4240    0.8460   -1.6250 N   0  0  0  0  0  0  0  0  0  0  0  0
    3.2750    0.7490   -0.5150 N   0  0  0  0  0  0  0  0  0  0  0  0
    2.9140    1.7940    0.3020 O   0  0  0  0  0  0  0  0  0  0  0  0
    2.7980   -0.4080    0.1170 N   0  0  0  0  0  0  0  0  0  0  0  0
  1  2  1  0
  2  3  1  0
  3  4  2  0
  3  5  1  0
  5  6  1  0
  6  7  1  0
  7  8  2  0
  7 12  1  0
  8  9  1  0
  9 10  1  0
 10 11  1  0
 10 12  1  0
M  END
