
     RDKit          3D

 13 13  0  0  0  0  0  0  0  0999 V2000
    4.3390   -0.2050    0.3650 C   0  0  0  0  0  0  0  0  0  0  0  0
    2.8900    0.5290    1.0830 S   0  0  1  0  0  0  0  0  0  0  0  0
    2.3530   -0.3190    2.1940 O   0  0  0  0  0  0  0  0  0  0  0  0
    3.1340    1.9350    1.5480 O   0  0  0  0  0  0  0  0  0  0  0  0
    1.7350    0.6660   -0.2050 N   0  0  0  0  0  0  0  0  0  0  0  0
    0.4300    0.1880    0.0400 C   0  0  0  0  0  0  0  0  0  0  0  0
    0.1380   -0.2960    1.1470 O   0  0  0  0  0  0  0  0  0  0  0  0
   -0.5850    0.2180   -0.9200 N   0  0  0  0  0  0  0  0  0  0  0  0
   -1.8510   -0.2210   -0.5670 C   0  0  0  0  0  0  0  0  0  0  0  0
   -2.6360   -0.5960   -1.4090 N   0  0  0  0  0  0  0  0  0  0  0  0
   -3.8510   -1.0330   -1.0100 N   0  0  0  0  0  0  0  0  0  0  0  0
   -4.5030   -0.0320   -0.1400 C   0  0  0  0  0  0  0  0  0  0  0  0
   -2.9460    0.0830    0.8760 S   0  0  0  0  0  0  0  0  0  0  0  0
  2  1  1  6
  2  3  2  0
  2  4  2  0
  2  5  1  0
  5  6  1  0
  6  7  2  0
  6  8  1  0
  8  9  1  0
  9 10  2  0
  9 13  1  0
 10 11  1  0
 11 12  1  0
 12 13  1  0
M  END
