
     RDKit          3D

 13 13  0  0  0  0  0  0  0  0999 V2000
   -2.0540    1.0800    0.8300 O   0  0  0  0  0  0  0  0  0  0  0  0
   -2.6880    0.5580   -0.1180 C   0  0  0  0  0  0  0  0  0  0  0  0
   -3.7920    1.1930   -0.6850 O   0  0  0  0  0  0  0  0  0  0  0  0
   -2.2350   -0.7090   -0.5890 N   0  0  0  0  0  0  0  0  0  0  0  0
   -1.1390   -1.3100   -0.0050 N   0  0  0  0  0  0  0  0  0  0  0  0
    0.0170   -0.7510    0.0170 C   0  0  0  0  0  0  0  0  0  0  0  0
    0.3870    0.7940   -0.6550 S   0  0  0  0  0  0  0  0  0  0  0  0
    2.0300    1.2130   -0.4360 C   0  0  0  0  0  0  0  0  0  0  0  0
    2.6550    2.6160   -0.9710 S   0  0  0  0  0  0  0  0  0  0  0  0
    2.7640    0.2920    0.2130 N   0  0  0  0  0  0  0  0  0  0  0  0
    2.3300   -0.8530    0.6690 N   0  0  0  0  0  0  0  0  0  0  0  0
    1.1080   -1.3530    0.6000 C   0  0  0  0  0  0  0  0  0  0  0  0
    0.8720   -2.5040    1.1110 O   0  0  0  0  0  0  0  0  0  0  0  0
  1  2  2  0
  2  3  1  0
  2  4  1  0
  4  5  1  0
  5  6  2  3
  6  7  1  0
  6 12  1  0
  7  8  1  0
  8  9  2  0
  8 10  1  0
 10 11  1  0
 11 12  1  0
 12 13  2  0
M  END
