
     RDKit          3D

 12 12  0  0  0  0  0  0  0  0999 V2000
   -3.4010   -1.3060   -0.0090 O   0  0  0  0  0  0  0  0  0  0  0  0
   -2.2630   -0.7650   -0.0650 C   0  0  0  0  0  0  0  0  0  0  0  0
   -1.6290   -0.2770    1.0230 N   0  0  0  0  0  0  0  0  0  0  0  0
   -0.4110    0.2960    0.9200 C   0  0  0  0  0  0  0  0  0  0  0  0
    0.1880    0.7540    1.9360 O   0  0  0  0  0  0  0  0  0  0  0  0
    0.2230    0.4080   -0.2590 N   0  0  0  0  0  0  0  0  0  0  0  0
    1.5380    1.0250   -0.3840 C   0  0  0  0  0  0  0  0  0  0  0  0
    2.7910   -0.2760   -0.1750 S   0  0  0  0  0  0  0  0  0  0  0  0
    2.7730   -0.9090    1.4160 O   0  0  0  0  0  0  0  0  0  0  0  0
   -0.4100   -0.0780   -1.3380 C   0  0  0  0  0  0  0  0  0  0  0  0
    0.3600    0.0550   -2.7850 S   0  0  0  0  0  0  0  0  0  0  0  0
   -1.6260   -0.6500   -1.2370 N   0  0  0  0  0  0  0  0  0  0  0  0
  1  2  2  0
  2  3  1  0
  2 12  1  0
  3  4  1  0
  4  5  2  0
  4  6  1  0
  6  7  1  0
  6 10  1  0
  7  8  1  0
  8  9  1  0
 10 11  2  0
 10 12  1  0
M  END
