
     RDKit          3D

 13 13  0  0  0  0  0  0  0  0999 V2000
    2.1380   -1.9720   -0.1190 O   0  0  0  0  0  0  0  0  0  0  0  0
    2.3480   -0.8060   -0.4720 C   0  0  0  0  0  0  0  0  0  0  0  0
    4.0470   -0.4560   -0.9930 S   0  0  0  0  0  0  0  0  0  0  0  0
    1.3840    0.2200   -0.4910 N   0  0  0  0  0  0  0  0  0  0  0  0
    0.0610    0.0980   -0.1240 N   0  0  0  0  0  0  0  0  0  0  0  0
   -0.5980   -0.9670    0.3170 C   0  0  0  0  0  0  0  0  0  0  0  0
   -0.0100   -2.0480    0.4450 O   0  0  0  0  0  0  0  0  0  0  0  0
   -1.9070   -0.9760    0.6510 N   0  0  0  0  0  0  0  0  0  0  0  0
   -2.5960    0.1520    0.5360 C   0  0  0  0  0  0  0  0  0  0  0  0
   -3.8120    0.1880    0.8350 O   0  0  0  0  0  0  0  0  0  0  0  0
   -1.9810    1.2700    0.0930 N   0  0  0  0  0  0  0  0  0  0  0  0
   -0.6910    1.2450   -0.2280 C   0  0  0  0  0  0  0  0  0  0  0  0
    0.0060    2.6270   -0.7600 S   0  0  0  0  0  0  0  0  0  0  0  0
  1  2  2  0
  2  3  1  0
  2  4  1  0
  4  5  1  0
  5  6  1  0
  5 12  1  0
  6  7  2  0
  6  8  1  0
  8  9  1  0
  9 10  2  0
  9 11  1  0
 11 12  1  0
 12 13  2  0
M  END
