
     RDKit          3D

 12 12  0  0  0  0  0  0  0  0999 V2000
    3.0260    0.9550   -0.4880 N   0  0  0  0  0  0  0  0  0  0  0  0
    2.5340    0.5580    0.6850 O   0  0  0  0  0  0  0  0  0  0  0  0
    2.2740   -0.8100    0.7300 C   0  0  0  0  0  0  0  0  0  0  0  0
    1.0780   -1.3400   -0.5050 S   0  0  0  0  0  0  0  0  0  0  0  0
   -0.5360   -0.6720   -0.2090 C   0  0  0  0  0  0  0  0  0  0  0  0
   -1.3950   -1.3540    0.5620 N   0  0  0  0  0  0  0  0  0  0  0  0
   -2.6170   -0.8870    0.8090 N   0  0  0  0  0  0  0  0  0  0  0  0
   -2.9650    0.2850    0.2640 C   0  0  0  0  0  0  0  0  0  0  0  0
   -4.4480    0.9330    0.5150 S   0  0  0  0  0  0  0  0  0  0  0  0
   -2.1180    1.0000   -0.5220 N   0  0  0  0  0  0  0  0  0  0  0  0
   -0.8840    0.5300   -0.7720 C   0  0  0  0  0  0  0  0  0  0  0  0
   -0.1370    1.2230   -1.5020 O   0  0  0  0  0  0  0  0  0  0  0  0
  1  2  1  0
  2  3  1  0
  3  4  1  0
  4  5  1  0
  5  6  2  0
  5 11  1  0
  6  7  1  0
  7  8  1  0
  8  9  2  0
  8 10  1  0
 10 11  1  0
 11 12  2  0
M  END
