
     RDKit          3D

 13 13  0  0  0  0  0  0  0  0999 V2000
   -4.2490    0.0350   -0.6290 C   0  0  0  0  0  0  0  0  0  0  0  0
   -3.0970   -0.0650    0.7450 S   0  0  2  0  0  0  0  0  0  0  0  0
   -3.6450   -0.8640    1.8850 O   0  0  0  0  0  0  0  0  0  0  0  0
   -2.7340    1.3020    1.2290 O   0  0  0  0  0  0  0  0  0  0  0  0
   -1.7030   -0.8680    0.1250 N   0  0  0  0  0  0  0  0  0  0  0  0
   -0.4650   -0.1430    0.2260 C   0  0  0  0  0  0  0  0  0  0  0  0
   -0.3550    0.9900    0.7320 O   0  0  0  0  0  0  0  0  0  0  0  0
    0.7230   -0.6700   -0.2580 N   0  0  0  0  0  0  0  0  0  0  0  0
    1.9020    0.0390   -0.0940 C   0  0  0  0  0  0  0  0  0  0  0  0
    2.8410   -0.2410   -0.8240 N   0  0  0  0  0  0  0  0  0  0  0  0
    3.9840    0.4700   -0.6750 N   0  0  0  0  0  0  0  0  0  0  0  0
    4.3980    0.5000    0.7420 C   0  0  0  0  0  0  0  0  0  0  0  0
    2.6790    1.0440    1.2100 S   0  0  0  0  0  0  0  0  0  0  0  0
  2  1  1  6
  2  3  2  0
  2  4  2  0
  2  5  1  0
  5  6  1  0
  6  7  2  0
  6  8  1  0
  8  9  1  0
  9 10  2  0
  9 13  1  0
 10 11  1  0
 11 12  1  0
 12 13  1  0
M  END
