
     RDKit          3D

 12 12  0  0  0  0  0  0  0  0999 V2000
   -1.9390    2.7020   -0.2400 O   0  0  0  0  0  0  0  0  0  0  0  0
   -1.7300    1.4520   -0.2280 C   0  0  0  0  0  0  0  0  0  0  0  0
   -0.6110    0.9620    0.3480 N   0  0  0  0  0  0  0  0  0  0  0  0
   -0.4140   -0.3770    0.3480 C   0  0  0  0  0  0  0  0  0  0  0  0
    1.0730   -0.9880    1.1200 S   0  0  0  0  0  0  0  0  0  0  0  0
    2.3570   -1.0640   -0.1560 C   0  0  0  0  0  0  0  0  0  0  0  0
    2.7840    0.5860   -0.7250 S   0  0  0  0  0  0  0  0  0  0  0  0
    3.5520    1.5160    0.4810 O   0  0  0  0  0  0  0  0  0  0  0  0
   -1.3150   -1.2020   -0.2120 N   0  0  0  0  0  0  0  0  0  0  0  0
   -2.4130   -0.6720   -0.7730 C   0  0  0  0  0  0  0  0  0  0  0  0
   -3.2930   -1.4230   -1.3160 O   0  0  0  0  0  0  0  0  0  0  0  0
   -2.6330    0.6610   -0.7880 N   0  0  0  0  0  0  0  0  0  0  0  0
  1  2  2  0
  2  3  1  0
  2 12  1  0
  3  4  2  0
  4  5  1  0
  4  9  1  0
  5  6  1  0
  6  7  1  0
  7  8  1  0
  9 10  1  0
 10 11  2  0
 10 12  1  0
M  END
