
     RDKit          3D

 13 13  0  0  0  0  0  0  0  0999 V2000
    3.7830   -0.2370    0.7240 N   0  0  0  0  0  0  0  0  0  0  0  0
    3.3260   -0.2730   -0.6190 C   0  0  0  0  0  0  0  0  0  0  0  0
    4.1720   -0.3890   -1.5320 O   0  0  0  0  0  0  0  0  0  0  0  0
    1.9100   -0.1810   -0.9800 C   0  0  0  0  0  0  0  0  0  0  0  0
    1.0550   -0.0510    0.1900 N   0  0  0  0  0  0  0  0  0  0  0  0
   -0.3500    0.0500    0.0030 C   0  0  0  0  0  0  0  0  0  0  0  0
   -0.8010    0.0220   -1.1710 O   0  0  0  0  0  0  0  0  0  0  0  0
   -1.2480    0.1770    1.0520 O   0  0  0  0  0  0  0  0  0  0  0  0
   -2.6400    0.2750    0.8270 C   0  0  0  0  0  0  0  0  0  0  0  0
   -3.1470    0.2540   -0.3080 N   0  0  0  0  0  0  0  0  0  0  0  0
   -4.4510    0.3420   -0.5920 N   0  0  0  0  0  0  0  0  0  0  0  0
   -5.4430   -0.1230    0.8060 S   0  0  0  0  0  0  0  0  0  0  0  0
   -3.8320    0.4380    2.1600 S   0  0  0  0  0  0  0  0  0  0  0  0
  1  2  1  0
  2  3  2  0
  2  4  1  0
  4  5  1  0
  5  6  1  0
  6  7  2  0
  6  8  1  0
  8  9  1  0
  9 10  2  0
  9 13  1  0
 10 11  1  0
 11 12  1  0
 12 13  1  0
M  END
