
     RDKit          3D

 13 13  0  0  0  0  0  0  0  0999 V2000
   -2.8780    0.0150   -1.7460 O   0  0  0  0  0  0  0  0  0  0  0  0
   -2.9350    0.0530   -0.4920 C   0  0  0  0  0  0  0  0  0  0  0  0
   -3.9540   -0.5900    0.2290 O   0  0  0  0  0  0  0  0  0  0  0  0
   -1.9330    0.7740    0.2490 N   0  0  0  0  0  0  0  0  0  0  0  0
   -0.9150    1.4210   -0.4180 N   0  0  0  0  0  0  0  0  0  0  0  0
    0.2760    0.8750   -0.4460 C   0  0  0  0  0  0  0  0  0  0  0  0
    1.6240    1.5480   -1.2230 S   0  0  0  0  0  0  0  0  0  0  0  0
    3.0260    0.5870   -1.0710 C   0  0  0  0  0  0  0  0  0  0  0  0
    4.4840    0.9600   -1.7060 S   0  0  0  0  0  0  0  0  0  0  0  0
    2.8140   -0.5410   -0.3590 N   0  0  0  0  0  0  0  0  0  0  0  0
    1.7020   -0.9220    0.1810 N   0  0  0  0  0  0  0  0  0  0  0  0
    0.5050   -0.3220    0.1790 C   0  0  0  0  0  0  0  0  0  0  0  0
   -0.4740   -0.9040    0.7980 O   0  0  0  0  0  0  0  0  0  0  0  0
  1  2  2  0
  2  3  1  0
  2  4  1  0
  4  5  1  0
  5  6  2  3
  6  7  1  0
  6 12  1  0
  7  8  1  0
  8  9  2  0
  8 10  1  0
 10 11  1  0
 11 12  1  0
 12 13  2  0
M  END
