
     RDKit          3D

 12 12  0  0  0  0  0  0  0  0999 V2000
   -4.5220   -0.1290    0.2140 C   0  0  0  0  0  0  0  0  0  0  0  0
   -3.1550   -0.1740   -0.1230 O   0  0  0  0  0  0  0  0  0  0  0  0
   -2.2940   -1.0680    0.4980 C   0  0  0  0  0  0  0  0  0  0  0  0
   -2.7540   -1.8360    1.3670 O   0  0  0  0  0  0  0  0  0  0  0  0
   -0.8460   -1.0510    0.0840 C   0  0  0  0  0  0  0  0  0  0  0  0
   -0.2090    0.5420    0.6030 S   0  0  0  0  0  0  0  0  0  0  0  0
    1.5050    0.7810    0.1250 C   0  0  0  0  0  0  0  0  0  0  0  0
    2.1950    1.8650    0.3990 N   0  0  0  0  0  0  0  0  0  0  0  0
    3.4700    1.7210   -0.1140 N   0  0  0  0  0  0  0  0  0  0  0  0
    3.4590    0.6990   -1.0880 N   0  0  0  0  0  0  0  0  0  0  0  0
    4.6340    0.0590   -1.0050 O   0  0  0  0  0  0  0  0  0  0  0  0
    2.3790   -0.0810   -0.5830 N   0  0  0  0  0  0  0  0  0  0  0  0
  1  2  1  0
  2  3  1  0
  3  4  2  0
  3  5  1  0
  5  6  1  0
  6  7  1  0
  7  8  2  0
  7 12  1  0
  8  9  1  0
  9 10  1  0
 10 11  1  0
 10 12  1  0
M  END
