
     RDKit          3D

 26 26  0  0  0  0  0  0  0  0999 V2000
   -7.3710    3.0240   -1.4300 C   0  0  0  0  0  0  0  0  0  0  0  0
   -6.2190    2.8540   -0.4890 C   0  0  0  0  0  0  0  0  0  0  0  0
   -5.0090    1.6310   -1.1100 S   0  0  0  0  0  0  0  0  0  0  0  0
   -3.6890    1.5470    0.1240 C   0  0  0  0  0  0  0  0  0  0  0  0
   -2.5860    0.6220   -0.1870 C   0  0  1  0  0  0  0  0  0  0  0  0
   -2.0160    1.0590   -1.4080 O   0  0  0  0  0  0  0  0  0  0  0  0
   -1.4780    0.9070    0.8430 C   0  0  0  0  0  0  0  0  0  0  0  0
   -0.6350   -0.3840    0.8370 C   0  0  2  0  0  0  0  0  0  0  0  0
    0.1450   -0.4910    2.1220 C   0  0  0  0  0  0  0  0  0  0  0  0
    0.1180   -0.4650   -0.2860 O   0  0  0  0  0  0  0  0  0  0  0  0
    1.0200   -1.4650   -0.4310 C   0  0  0  0  0  0  0  0  0  0  0  0
    1.6980   -1.2360   -1.7960 C   0  0  0  0  0  0  0  0  0  0  0  0
    2.6390   -2.1840   -2.0630 O   0  0  0  0  0  0  0  0  0  0  0  0
    3.6340   -2.2420   -1.1280 C   0  0  0  0  0  0  0  0  0  0  0  0
    4.3400   -0.9250   -1.0260 C   0  0  0  0  0  0  0  0  0  0  0  0
    5.3890   -1.0060   -0.0370 O   0  0  0  0  0  0  0  0  0  0  0  0
    6.1720    0.1230    0.2240 C   0  0  0  0  0  0  0  0  0  0  0  0
    5.9190    1.1670   -0.4350 O   0  0  0  0  0  0  0  0  0  0  0  0
    7.2170    0.1500    1.1750 N   0  0  0  0  0  0  0  0  0  0  0  0
    7.9900    1.2880    1.4220 N   0  0  0  0  0  0  0  0  0  0  0  0
    9.0330    1.3280    0.3930 C   0  0  0  0  0  0  0  0  0  0  0  0
   -1.7480   -1.4090    0.8060 C   0  0  2  0  0  0  0  0  0  0  0  0
   -1.3510   -2.6620    0.4990 O   0  0  0  0  0  0  0  0  0  0  0  0
   -2.7760   -0.8130   -0.1730 C   0  0  1  0  0  0  0  0  0  0  0  0
   -4.0830   -1.4230    0.1150 C   0  0  0  0  0  0  0  0  0  0  0  0
   -4.6740   -1.1340    1.3850 N   0  0  0  0  0  0  0  0  0  0  0  0
  1  2  1  0
  2  3  1  0
  3  4  1  0
  4  5  1  0
  5  6  1  6
  5  7  1  0
  5 24  1  0
  7  8  1  0
  8  9  1  1
  8 10  1  0
  8 22  1  0
 10 11  1  0
 11 12  1  0
 12 13  1  0
 13 14  1  0
 14 15  1  0
 15 16  1  0
 16 17  1  0
 17 18  2  0
 17 19  1  0
 19 20  1  0
 20 21  1  0
 22 23  1  6
 22 24  1  0
 24 25  1  1
 25 26  1  0
M  CHG  1  26   1
M  END
