
     RDKit          3D

 26 26  0  0  0  0  0  0  0  0999 V2000
    6.2610   -1.2160   -2.7590 C   0  0  0  0  0  0  0  0  0  0  0  0
    6.3970   -1.4050   -1.2740 C   0  0  0  0  0  0  0  0  0  0  0  0
    6.7120   -2.5180   -0.6740 C   0  0  0  0  0  0  0  0  0  0  0  0
    6.7350   -2.2740    0.7580 C   0  0  0  0  0  0  0  0  0  0  0  0
    7.0030   -3.1280    1.6600 O   0  0  0  0  0  0  0  0  0  0  0  0
    6.3930   -0.8740    0.9250 C   0  0  0  0  0  0  0  0  0  0  0  0
    6.1960   -0.3710   -0.2770 C   0  0  0  0  0  0  0  0  0  0  0  0
    5.8520    0.9330   -0.5520 O   0  0  0  0  0  0  0  0  0  0  0  0
    4.8080    1.6180    0.1140 C   0  0  0  0  0  0  0  0  0  0  0  0
    3.4630    0.9100   -0.0920 C   0  0  0  0  0  0  0  0  0  0  0  0
    2.5090    1.6820    0.6140 O   0  0  0  0  0  0  0  0  0  0  0  0
    1.1750    1.3130    0.6340 C   0  0  0  0  0  0  0  0  0  0  0  0
    0.8290    0.2870    0.0180 O   0  0  0  0  0  0  0  0  0  0  0  0
    0.1740    2.0420    1.3200 N   0  0  0  0  0  0  0  0  0  0  0  0
   -1.1990    1.6630    1.3410 C   0  0  0  0  0  0  0  0  0  0  0  0
   -1.8350    1.6080   -0.0230 C   0  0  0  0  0  0  0  0  0  0  0  0
   -3.2970    1.1870    0.1840 C   0  0  2  0  0  0  0  0  0  0  0  0
   -3.9580    2.2280    1.0610 C   0  0  0  0  0  0  0  0  0  0  0  0
   -3.3140   -0.1210    0.7490 N   0  0  0  0  0  0  0  0  0  0  0  0
   -4.3490   -0.9940    0.2980 C   0  0  1  0  0  0  0  0  0  0  0  0
   -5.7410   -0.5390    0.6620 C   0  0  0  0  0  0  0  0  0  0  0  0
   -6.9420   -1.7390    0.0290 S   0  0  0  0  0  0  0  0  0  0  0  0
   -6.9540   -2.9840    0.9310 O   0  0  0  0  0  0  0  0  0  0  0  0
   -4.2090   -1.3290   -1.1210 C   0  0  0  0  0  0  0  0  0  0  0  0
   -5.1040   -2.1770   -1.8290 N   0  0  0  0  0  0  0  0  0  0  0  0
   -3.2470   -0.8490   -1.7720 O   0  0  0  0  0  0  0  0  0  0  0  0
  1  2  1  0
  2  3  2  0
  2  7  1  0
  3  4  1  0
  4  5  2  0
  4  6  1  0
  6  7  2  0
  7  8  1  0
  8  9  1  0
  9 10  1  0
 10 11  1  0
 11 12  1  0
 12 13  2  0
 12 14  1  0
 14 15  1  0
 15 16  1  0
 16 17  1  0
 17 18  1  1
 17 19  1  0
 19 20  1  0
 20 21  1  6
 20 24  1  0
 21 22  1  0
 22 23  2  0
 24 25  1  0
 24 26  2  0
M  CHG  1  19   1
M  END
