
     RDKit          3D

 26 26  0  0  0  0  0  0  0  0999 V2000
    8.3870    1.3390    0.7680 C   0  0  0  0  0  0  0  0  0  0  0  0
    8.4060   -0.0240    0.9440 O   0  0  0  0  0  0  0  0  0  0  0  0
    7.1500   -0.6220    0.8530 C   0  0  0  0  0  0  0  0  0  0  0  0
    6.4960   -0.4270   -0.4720 C   0  0  0  0  0  0  0  0  0  0  0  0
    5.2710   -1.0340   -0.5180 O   0  0  0  0  0  0  0  0  0  0  0  0
    4.3530   -0.5930    0.4070 C   0  0  0  0  0  0  0  0  0  0  0  0
    3.0760   -1.4120    0.1410 C   0  0  0  0  0  0  0  0  0  0  0  0
    2.5910   -1.0220   -1.5530 S   0  0  0  0  0  0  0  0  0  0  0  0
    2.0790    0.6990   -1.6520 C   0  0  0  0  0  0  0  0  0  0  0  0
    0.7910    0.9250   -0.9520 C   0  0  0  0  0  0  0  0  0  0  0  0
    0.3280    2.1160   -0.8870 O   0  0  0  0  0  0  0  0  0  0  0  0
    0.0300   -0.0730   -0.3550 N   0  0  0  0  0  0  0  0  0  0  0  0
   -1.2810    0.1970    0.3440 C   0  0  1  0  0  0  0  0  0  0  0  0
   -2.2730   -0.5180   -0.4630 C   0  0  0  0  0  0  0  0  0  0  0  0
   -3.7100   -0.5050   -0.1790 C   0  0  1  0  0  0  0  0  0  0  0  0
   -4.2210   -1.0230    1.0330 N   0  0  0  0  0  0  0  0  0  0  0  0
   -4.2550    0.9060   -0.4570 C   0  0  0  0  0  0  0  0  0  0  0  0
   -5.7290    1.0010   -0.4650 C   0  0  2  0  0  0  0  0  0  0  0  0
   -6.1900    1.4460    0.9330 C   0  0  0  0  0  0  0  0  0  0  0  0
   -6.5030   -0.1590   -0.9550 C   0  0  0  0  0  0  0  0  0  0  0  0
   -5.7290   -1.2800   -1.3060 O   0  0  0  0  0  0  0  0  0  0  0  0
   -4.3620   -1.3170   -1.2910 C   0  0  0  0  0  0  0  0  0  0  0  0
   -3.6690   -1.9480   -2.0970 O   0  0  0  0  0  0  0  0  0  0  0  0
   -1.0340   -0.1360    1.7220 C   0  0  0  0  0  0  0  0  0  0  0  0
   -1.9230   -0.5520    2.7030 N   0  0  0  0  0  0  0  0  0  0  0  0
    0.2020   -0.0410    2.1310 O   0  0  0  0  0  0  0  0  0  0  0  0
  1  2  1  0
  2  3  1  0
  3  4  1  0
  4  5  1  0
  5  6  1  0
  6  7  1  0
  7  8  1  0
  8  9  1  0
  9 10  1  0
 10 11  2  0
 10 12  1  0
 12 13  1  0
 13 14  1  6
 13 24  1  0
 14 15  1  0
 15 16  1  1
 15 17  1  0
 15 22  1  0
 17 18  1  0
 18 19  1  1
 18 20  1  0
 20 21  1  0
 21 22  1  0
 22 23  2  0
 24 25  1  0
 24 26  2  0
M  CHG  1  16   1
M  END
