
     RDKit          3D

 25 24  0  0  0  0  0  0  0  0999 V2000
   -1.1100    0.7910    1.6180 C   0  0  0  0  0  0  0  0  0  0  0  0
   -1.0410    0.1150    0.3690 N   0  0  2  0  0  0  0  0  0  0  0  0
   -0.4070    0.7410   -0.6990 C   0  0  0  0  0  0  0  0  0  0  0  0
    0.7010    1.7130   -0.3280 C   0  0  0  0  0  0  0  0  0  0  0  0
    1.8370    1.0530    0.4280 C   0  0  0  0  0  0  0  0  0  0  0  0
    2.5990   -0.2530   -0.5380 S   0  0  0  0  0  0  0  0  0  0  0  0
    3.8990   -1.1520    0.2290 C   0  0  0  0  0  0  0  0  0  0  0  0
    5.2110   -0.4530    0.3760 C   0  0  2  0  0  0  0  0  0  0  0  0
    6.1180   -1.3440    1.0180 O   0  0  0  0  0  0  0  0  0  0  0  0
    5.2240    0.7830    1.2120 C   0  0  0  0  0  0  0  0  0  0  0  0
    4.7560    0.5920    2.5090 O   0  0  0  0  0  0  0  0  0  0  0  0
    5.7260   -0.1270   -0.9830 C   0  0  0  0  0  0  0  0  0  0  0  0
    5.0620    0.6360   -1.7000 O   0  0  0  0  0  0  0  0  0  0  0  0
    6.9700   -0.7080   -1.4130 N   0  0  0  0  0  0  0  0  0  0  0  0
    7.4050   -0.3640   -2.7040 N   0  0  0  0  0  0  0  0  0  0  0  0
   -2.3330   -0.5680    0.0750 C   0  0  1  0  0  0  0  0  0  0  0  0
   -1.8930   -1.4730   -1.0780 C   0  0  0  0  0  0  0  0  0  0  0  0
   -2.7670   -2.3160   -1.6070 O   0  0  0  0  0  0  0  0  0  0  0  0
   -2.5340   -1.4170    1.2950 C   0  0  0  0  0  0  0  0  0  0  0  0
   -3.7150   -2.1900    1.2520 O   0  0  0  0  0  0  0  0  0  0  0  0
   -3.2940    0.4590   -0.2330 C   0  0  0  0  0  0  0  0  0  0  0  0
   -4.6930    0.3800   -0.5700 C   0  0  2  0  0  0  0  0  0  0  0  0
   -5.0770   -0.3830   -1.8180 C   0  0  0  0  0  0  0  0  0  0  0  0
   -5.0890    1.8410   -0.9510 C   0  0  0  0  0  0  0  0  0  0  0  0
   -5.6950    0.0230    0.4800 C   0  0  0  0  0  0  0  0  0  0  0  0
  2  1  1  1
  2  3  1  0
  2 16  1  0
  3  4  1  0
  4  5  1  0
  5  6  1  0
  6  7  1  0
  7  8  1  0
  8  9  1  1
  8 10  1  0
  8 12  1  0
 10 11  1  0
 12 13  2  0
 12 14  1  0
 14 15  1  0
 16 17  1  6
 16 19  1  0
 16 21  1  0
 17 18  1  0
 19 20  1  0
 21 22  1  0
 22 23  1  6
 22 24  1  0
 22 25  1  0
M  CHG  1   2   1
M  END
