
     RDKit          3D

 25 24  0  0  0  0  0  0  0  0999 V2000
    5.5060   -2.0910    2.6880 C   0  0  0  0  0  0  0  0  0  0  0  0
    4.9180   -2.9410    1.7770 O   0  0  0  0  0  0  0  0  0  0  0  0
    4.5150   -2.2620    0.6520 C   0  0  0  0  0  0  0  0  0  0  0  0
    3.4990   -1.1890    0.9420 C   0  0  0  0  0  0  0  0  0  0  0  0
    3.1380   -0.5540   -0.2410 O   0  0  0  0  0  0  0  0  0  0  0  0
    2.1770    0.4650    0.0010 C   0  0  1  0  0  0  0  0  0  0  0  0
    2.7760    1.7780   -0.4650 C   0  0  0  0  0  0  0  0  0  0  0  0
    1.0340    0.1470   -0.8650 C   0  0  0  0  0  0  0  0  0  0  0  0
    1.3040   -0.7040   -1.8310 O   0  0  0  0  0  0  0  0  0  0  0  0
   -0.2960    0.5700   -0.8560 N   0  0  0  0  0  0  0  0  0  0  0  0
   -1.1650   -0.0060   -1.8750 C   0  0  0  0  0  0  0  0  0  0  0  0
   -1.8730   -1.2480   -1.6490 C   0  0  1  0  0  0  0  0  0  0  0  0
   -2.7000   -1.5910   -2.9200 C   0  0  0  0  0  0  0  0  0  0  0  0
   -1.8480   -1.7240   -3.9940 O   0  0  0  0  0  0  0  0  0  0  0  0
   -0.9770   -2.4910   -1.4870 C   0  0  0  0  0  0  0  0  0  0  0  0
   -1.9190   -3.5410   -1.2960 O   0  0  0  0  0  0  0  0  0  0  0  0
   -2.8660   -1.3340   -0.5300 C   0  0  0  0  0  0  0  0  0  0  0  0
   -3.8720   -0.3920   -0.6910 O   0  0  0  0  0  0  0  0  0  0  0  0
   -0.8440    1.5890   -0.0360 C   0  0  1  0  0  0  0  0  0  0  0  0
   -0.4310    1.7720    1.3530 C   0  0  0  0  0  0  0  0  0  0  0  0
   -0.6900    0.5990    2.2450 C   0  0  0  0  0  0  0  0  0  0  0  0
   -2.1190    0.3950    2.3460 N   0  0  0  0  0  0  0  0  0  0  0  0
   -0.6100    2.9940   -0.7060 C   0  0  0  0  0  0  0  0  0  0  0  0
   -1.3360    4.2540    0.3910 S   0  0  0  0  0  0  0  0  0  0  0  0
   -3.1260    4.0850    0.4740 C   0  0  0  0  0  0  0  0  0  0  0  0
  1  2  1  0
  2  3  1  0
  3  4  1  0
  4  5  1  0
  5  6  1  0
  6  7  1  6
  6  8  1  0
  8  9  2  0
  8 10  1  0
 10 11  1  0
 10 19  1  0
 12 11  1  6
 12 13  1  0
 12 15  1  0
 12 17  1  0
 13 14  1  0
 15 16  1  0
 17 18  1  0
 19 20  1  1
 19 23  1  0
 20 21  1  0
 21 22  1  0
 23 24  1  0
 24 25  1  0
M  CHG  1  22   1
M  END
