
     RDKit          3D

 26 26  0  0  0  0  0  0  0  0999 V2000
   -7.1200   -0.6550    0.0160 C   0  0  0  0  0  0  0  0  0  0  0  0
   -6.3400   -1.7300   -0.6900 C   0  0  0  0  0  0  0  0  0  0  0  0
   -5.0800   -1.1490   -1.3050 C   0  0  0  0  0  0  0  0  0  0  0  0
   -4.3330   -0.6170   -0.2910 O   0  0  0  0  0  0  0  0  0  0  0  0
   -3.1340   -0.0380   -0.6650 C   0  0  1  0  0  0  0  0  0  0  0  0
   -3.0520    1.4280   -0.3270 C   0  0  0  0  0  0  0  0  0  0  0  0
   -4.0800    2.1820   -0.9750 N   0  0  0  0  0  0  0  0  0  0  0  0
   -4.2010    2.2520   -2.3720 C   0  0  0  0  0  0  0  0  0  0  0  0
   -3.4310    1.6710   -3.1520 O   0  0  0  0  0  0  0  0  0  0  0  0
   -1.9760   -0.6860    0.0250 C   0  0  0  0  0  0  0  0  0  0  0  0
   -2.2050   -1.6250    0.8270 O   0  0  0  0  0  0  0  0  0  0  0  0
   -0.6380   -0.2940   -0.1800 N   0  0  0  0  0  0  0  0  0  0  0  0
    0.5230   -0.8540    0.4370 C   0  0  1  0  0  0  0  0  0  0  0  0
    0.4450   -0.6760    1.9190 C   0  0  0  0  0  0  0  0  0  0  0  0
    0.3700    0.7360    2.2330 N   0  0  0  0  0  0  0  0  0  0  0  0
    0.6170   -2.3680    0.1850 C   0  0  0  0  0  0  0  0  0  0  0  0
    2.3730   -2.6290    0.6660 S   0  0  0  0  0  0  0  0  0  0  0  0
    2.9240   -0.8780    0.6130 C   0  0  1  0  0  0  0  0  0  0  0  0
    4.2050   -0.7620   -0.1270 C   0  0  0  0  0  0  0  0  0  0  0  0
    4.8080   -1.7180   -0.6310 O   0  0  0  0  0  0  0  0  0  0  0  0
    4.7460    0.5000   -0.2500 O   0  0  0  0  0  0  0  0  0  0  0  0
    5.9320    0.8410   -0.8960 C   0  0  0  0  0  0  0  0  0  0  0  0
    7.1190    0.1570   -0.2660 C   0  0  0  0  0  0  0  0  0  0  0  0
    7.2810    0.4800    1.0600 O   0  0  0  0  0  0  0  0  0  0  0  0
    7.4820    1.8080    1.3350 C   0  0  0  0  0  0  0  0  0  0  0  0
    1.7730   -0.2760   -0.1640 C   0  0  0  0  0  0  0  0  0  0  0  0
  1  2  1  0
  2  3  1  0
  3  4  1  0
  4  5  1  0
  5  6  1  1
  5 10  1  0
  6  7  1  0
  7  8  1  0
  8  9  2  0
 10 11  2  0
 10 12  1  0
 12 13  1  0
 13 14  1  1
 13 16  1  0
 13 26  1  0
 14 15  1  0
 16 17  1  0
 17 18  1  0
 18 19  1  6
 18 26  1  0
 19 20  2  0
 19 21  1  0
 21 22  1  0
 22 23  1  0
 23 24  1  0
 24 25  1  0
M  CHG  1  15   1
M  END
