
     RDKit          3D

 26 25  0  0  0  0  0  0  0  0999 V2000
    7.3680    1.3840    1.1990 C   0  0  0  0  0  0  0  0  0  0  0  0
    6.7980   -0.1190    2.0300 S   0  0  0  0  0  0  0  0  0  0  0  0
    6.4630   -1.4650    0.9040 C   0  0  0  0  0  0  0  0  0  0  0  0
    5.2310   -1.1270    0.0450 C   0  0  2  0  0  0  0  0  0  0  0  0
    5.0240   -2.3300   -0.8970 C   0  0  0  0  0  0  0  0  0  0  0  0
    5.4900   -0.0400   -0.6870 O   0  0  0  0  0  0  0  0  0  0  0  0
    4.7340    1.0390   -0.6630 C   0  0  0  0  0  0  0  0  0  0  0  0
    3.3750    0.9740   -1.2350 C   0  0  0  0  0  0  0  0  0  0  0  0
    2.3650    0.0420   -0.6660 C   0  0  0  0  0  0  0  0  0  0  0  0
    1.1560    0.2530   -1.3680 O   0  0  0  0  0  0  0  0  0  0  0  0
    0.1380   -0.5370   -0.9520 C   0  0  2  0  0  0  0  0  0  0  0  0
   -0.4570   -1.4410   -1.9750 C   0  0  0  0  0  0  0  0  0  0  0  0
   -0.9620    0.3380   -0.4270 C   0  0  0  0  0  0  0  0  0  0  0  0
   -0.8430    1.5960   -0.4240 O   0  0  0  0  0  0  0  0  0  0  0  0
   -2.1680   -0.1950    0.0820 N   0  0  0  0  0  0  0  0  0  0  0  0
   -3.2650    0.6460    0.6030 C   0  0  2  0  0  0  0  0  0  0  0  0
   -3.4440    0.4490    2.0350 C   0  0  0  0  0  0  0  0  0  0  0  0
   -4.3720    1.1100    2.8540 N   0  0  0  0  0  0  0  0  0  0  0  0
   -2.6930   -0.4040    2.6220 O   0  0  0  0  0  0  0  0  0  0  0  0
   -4.4560    0.4700   -0.2650 C   0  0  1  0  0  0  0  0  0  0  0  0
   -4.9810   -0.9320   -0.3520 C   0  0  0  0  0  0  0  0  0  0  0  0
   -5.3990   -1.5030    0.8870 N   0  0  0  0  0  0  0  0  0  0  0  0
   -5.5670    1.4020    0.1100 C   0  0  0  0  0  0  0  0  0  0  0  0
   -6.6290    1.1370   -0.7930 O   0  0  0  0  0  0  0  0  0  0  0  0
   -4.0280    0.8920   -1.6850 C   0  0  0  0  0  0  0  0  0  0  0  0
   -3.6330    2.2250   -1.5980 O   0  0  0  0  0  0  0  0  0  0  0  0
  1  2  1  0
  2  3  1  0
  3  4  1  0
  4  5  1  6
  4  6  1  0
  6  7  1  0
  7  8  1  0
  8  9  1  0
  9 10  1  0
 10 11  1  0
 11 12  1  6
 11 13  1  0
 13 14  2  0
 13 15  1  0
 16 15  1  6
 16 17  1  0
 16 20  1  0
 17 18  1  0
 17 19  2  0
 20 21  1  6
 20 23  1  0
 20 25  1  0
 21 22  1  0
 23 24  1  0
 25 26  1  0
M  CHG  1  22   1
M  END
