
     RDKit          3D

 18 18  0  0  0  0  0  0  0  0999 V2000
    3.7400    0.5660   -0.3330 O   0  0  0  0  0  0  0  0  0  0  0  0
    3.0610    0.0210    0.5650 C   0  0  0  0  0  0  0  0  0  0  0  0
    1.6570   -0.4620    0.3030 C   0  0  0  0  0  0  0  0  0  0  0  0
    1.3360   -0.1500   -1.1290 C   0  0  0  0  0  0  0  0  0  0  0  0
   -0.0390   -0.5800   -1.5340 C   0  0  0  0  0  0  0  0  0  0  0  0
   -1.1180    0.0690   -0.7630 C   0  0  0  0  0  0  0  0  0  0  0  0
   -0.8950    0.9120    0.1320 O   0  0  0  0  0  0  0  0  0  0  0  0
   -2.4560   -0.2300   -0.9970 O   0  0  0  0  0  0  0  0  0  0  0  0
   -3.4780    0.3970   -0.2520 C   0  0  2  0  0  0  0  0  0  0  0  0
   -4.3530   -0.6240    0.4330 C   0  0  0  0  0  0  0  0  0  0  0  0
   -5.4940   -0.7640   -0.5520 C   0  0  0  0  0  0  0  0  0  0  0  0
   -5.5100    0.5290   -1.2940 C   0  0  0  0  0  0  0  0  0  0  0  0
   -4.3900    1.1810   -1.1310 C   0  0  0  0  0  0  0  0  0  0  0  0
   -4.0650    2.4130   -1.6760 O   0  0  0  0  0  0  0  0  0  0  0  0
    3.5330   -0.1790    1.8500 O   0  0  0  0  0  0  0  0  0  0  0  0
    4.8050    0.2050    2.2520 C   0  0  0  0  0  0  0  0  0  0  0  0
    5.8440   -0.5120    1.4500 C   0  0  0  0  0  0  0  0  0  0  0  0
    7.1180   -0.0980    1.8850 O   0  0  0  0  0  0  0  0  0  0  0  0
  1  2  2  0
  2  3  1  0
  2 15  1  0
  3  4  1  0
  4  5  1  0
  5  6  1  0
  6  7  2  0
  6  8  1  0
  9  8  1  6
  9 10  1  0
  9 13  1  0
 10 11  1  0
 11 12  1  0
 12 13  2  0
 13 14  1  0
 15 16  1  0
 16 17  1  0
 17 18  1  0
M  END
