
     RDKit          3D

 18 18  0  0  0  0  0  0  0  0999 V2000
    6.7600    1.8880   -0.7370 C   0  0  0  0  0  0  0  0  0  0  0  0
    5.4260    1.8060   -0.2830 O   0  0  0  0  0  0  0  0  0  0  0  0
    4.7760    0.5500   -0.0980 C   0  0  0  0  0  0  0  0  0  0  0  0
    5.5120   -0.4140   -0.3780 O   0  0  0  0  0  0  0  0  0  0  0  0
    3.4160    0.5240    0.3670 C   0  0  0  0  0  0  0  0  0  0  0  0
    2.6810   -0.5310    0.5900 C   0  0  0  0  0  0  0  0  0  0  0  0
    3.1740   -1.9010    0.3860 C   0  0  0  0  0  0  0  0  0  0  0  0
    2.3790   -2.5680   -0.5800 O   0  0  0  0  0  0  0  0  0  0  0  0
    1.3380   -0.3600    1.0530 O   0  0  0  0  0  0  0  0  0  0  0  0
    0.3750   -0.3290    0.0430 C   0  0  0  0  0  0  0  0  0  0  0  0
   -0.9980   -0.1510    0.5520 C   0  0  0  0  0  0  0  0  0  0  0  0
   -1.1490   -0.0500    1.7960 O   0  0  0  0  0  0  0  0  0  0  0  0
   -2.1130   -0.0920   -0.2670 O   0  0  0  0  0  0  0  0  0  0  0  0
   -3.3630    0.0790    0.3260 C   0  0  2  0  0  0  0  0  0  0  0  0
   -4.2710   -1.0670   -0.0670 C   0  0  0  0  0  0  0  0  0  0  0  0
   -5.6560   -0.4990   -0.2140 C   0  0  0  0  0  0  0  0  0  0  0  0
   -5.5360    0.9260    0.2860 C   0  0  0  0  0  0  0  0  0  0  0  0
   -4.1200    1.2730   -0.1840 C   0  0  0  0  0  0  0  0  0  0  0  0
  1  2  1  0
  2  3  1  0
  3  4  2  0
  3  5  1  0
  5  6  2  3
  6  7  1  0
  6  9  1  0
  7  8  1  0
  9 10  1  0
 10 11  1  0
 11 12  2  0
 11 13  1  0
 14 13  1  6
 14 15  1  0
 14 18  1  0
 15 16  1  0
 16 17  1  0
 17 18  1  0
M  END
