
     RDKit          3D

 18 17  0  0  0  0  0  0  0  0999 V2000
    1.0070    3.5040   -2.8330 C   0  0  0  0  0  0  0  0  0  0  0  0
    2.1780    2.8900   -2.7970 C   0  0  0  0  0  0  0  0  0  0  0  0
    3.3070    3.7260   -2.9210 O   0  0  0  0  0  0  0  0  0  0  0  0
    2.3160    1.4560   -2.6430 C   0  0  0  0  0  0  0  0  0  0  0  0
    3.5080    0.9160   -2.6150 C   0  0  0  0  0  0  0  0  0  0  0  0
    3.7160   -0.5380   -2.4600 C   0  0  0  0  0  0  0  0  0  0  0  0
    1.2060    0.6580   -2.5250 O   0  0  0  0  0  0  0  0  0  0  0  0
    0.6850    0.3950   -1.2700 C   0  0  0  0  0  0  0  0  0  0  0  0
    1.2630    0.9060   -0.2790 O   0  0  0  0  0  0  0  0  0  0  0  0
   -0.5160   -0.4660   -1.1310 C   0  0  0  0  0  0  0  0  0  0  0  0
   -0.8180   -0.5660    0.2590 O   0  0  0  0  0  0  0  0  0  0  0  0
   -1.9100   -1.3210    0.6580 C   0  0  0  0  0  0  0  0  0  0  0  0
   -2.5920   -1.8890   -0.2350 O   0  0  0  0  0  0  0  0  0  0  0  0
   -2.2000   -1.4090    2.1030 C   0  0  2  0  0  0  0  0  0  0  0  0
   -1.0350   -2.0360    2.8110 C   0  0  0  0  0  0  0  0  0  0  0  0
   -3.4400   -2.2190    2.3920 C   0  0  0  0  0  0  0  0  0  0  0  0
   -2.4550   -0.0010    2.6500 C   0  0  0  0  0  0  0  0  0  0  0  0
   -2.7280   -0.0820    4.0160 O   0  0  0  0  0  0  0  0  0  0  0  0
  1  2  2  0
  2  3  1  0
  2  4  1  0
  4  5  2  3
  4  7  1  0
  5  6  1  0
  7  8  1  0
  8  9  2  0
  8 10  1  0
 10 11  1  0
 11 12  1  0
 12 13  2  0
 12 14  1  0
 14 15  1  1
 14 16  1  0
 14 17  1  0
 17 18  1  0
M  END
