
     RDKit          3D

 20 22  0  0  0  0  0  0  0  0999 V2000
   -3.1830    0.7470   -2.0150 C   0  0  0  0  0  0  0  0  0  0  0  0
   -2.0160    0.9500   -1.0380 C   0  0  1  0  0  0  0  0  0  0  0  0
   -2.6400    1.3370    0.2820 C   0  0  0  0  0  0  0  0  0  0  0  0
   -3.4390    0.2990    0.8530 N   0  0  0  0  0  0  0  0  0  0  0  0
   -2.8280   -0.9810    0.9050 C   0  0  0  0  0  0  0  0  0  0  0  0
   -1.7920   -1.2770   -0.1110 C   0  0  0  0  0  0  0  0  0  0  0  0
   -1.3150   -0.2360   -0.9150 N   0  0  0  0  0  0  0  0  0  0  0  0
    0.3400   -0.2740   -1.2180 S   0  0  1  0  0  0  0  0  0  0  0  0
    0.6400   -1.5820   -1.9390 O   0  0  0  0  0  0  0  0  0  0  0  0
    0.6170    0.8460   -2.1850 O   0  0  0  0  0  0  0  0  0  0  0  0
    1.3700   -0.1460    0.1540 C   0  0  0  0  0  0  0  0  0  0  0  0
    0.8680   -0.0170    1.4320 C   0  0  0  0  0  0  0  0  0  0  0  0
    1.7400    0.0810    2.5070 C   0  0  0  0  0  0  0  0  0  0  0  0
    3.1050    0.0520    2.3240 C   0  0  0  0  0  0  0  0  0  0  0  0
    3.5910   -0.0770    1.0400 C   0  0  0  0  0  0  0  0  0  0  0  0
    4.9580   -0.1110    0.7820 C   0  0  0  0  0  0  0  0  0  0  0  0
    5.4310   -0.2350   -0.4690 N   0  0  0  0  0  0  0  0  0  0  0  0
    4.6370   -0.3330   -1.5400 C   0  0  0  0  0  0  0  0  0  0  0  0
    3.2720   -0.3040   -1.3400 C   0  0  0  0  0  0  0  0  0  0  0  0
    2.7340   -0.1760   -0.0520 C   0  0  0  0  0  0  0  0  0  0  0  0
  2  1  1  6
  2  3  1  0
  2  7  1  0
  3  4  1  0
  4  5  1  0
  5  6  1  0
  6  7  1  0
  8  7  1  1
  8  9  2  0
  8 10  2  0
  8 11  1  0
 11 12  2  0
 11 20  1  0
 12 13  1  0
 13 14  2  0
 14 15  1  0
 15 16  2  0
 15 20  1  0
 16 17  1  0
 17 18  2  0
 18 19  1  0
 19 20  2  0
M  CHG  1   4   1
M  END
