
     RDKit          3D

 18 18  0  0  0  0  0  0  0  0999 V2000
    6.8510   -0.0030   -0.8260 C   0  0  0  0  0  0  0  0  0  0  0  0
    5.8820   -0.8160   -0.1900 O   0  0  0  0  0  0  0  0  0  0  0  0
    4.6000   -0.3030    0.0860 C   0  0  0  0  0  0  0  0  0  0  0  0
    4.3990    0.8890   -0.2690 O   0  0  0  0  0  0  0  0  0  0  0  0
    3.5550   -1.1430    0.7610 C   0  0  0  0  0  0  0  0  0  0  0  0
    2.4000   -0.2980    0.8760 O   0  0  0  0  0  0  0  0  0  0  0  0
    1.7320    0.2200   -0.2070 C   0  0  0  0  0  0  0  0  0  0  0  0
    2.2240   -0.1190   -1.3450 O   0  0  0  0  0  0  0  0  0  0  0  0
    0.5610    1.0910   -0.1560 C   0  0  0  0  0  0  0  0  0  0  0  0
   -0.7030    0.4170    0.3310 C   0  0  1  0  0  0  0  0  0  0  0  0
   -1.7870    1.4910    0.2850 C   0  0  0  0  0  0  0  0  0  0  0  0
   -3.0690    1.0040    0.8830 C   0  0  0  0  0  0  0  0  0  0  0  0
   -3.3150   -0.4090    0.4350 C   0  0  1  0  0  0  0  0  0  0  0  0
   -3.1050   -1.2700    1.4870 O   0  0  0  0  0  0  0  0  0  0  0  0
   -4.7800   -0.4770   -0.0020 C   0  0  0  0  0  0  0  0  0  0  0  0
   -5.0490    0.3620   -1.0580 O   0  0  0  0  0  0  0  0  0  0  0  0
   -2.5040   -0.7670   -0.7830 C   0  0  0  0  0  0  0  0  0  0  0  0
   -1.0390   -0.7620   -0.5260 C   0  0  0  0  0  0  0  0  0  0  0  0
  1  2  1  0
  2  3  1  0
  3  4  2  0
  3  5  1  0
  5  6  1  0
  6  7  1  0
  7  8  2  0
  7  9  1  0
 10  9  1  6
 10 11  1  0
 10 18  1  0
 11 12  1  0
 12 13  1  0
 13 14  1  1
 13 15  1  0
 13 17  1  0
 15 16  1  0
 17 18  1  0
M  END
