
     RDKit          3D

 18 18  0  0  0  0  0  0  0  0999 V2000
   -5.6930    0.1770    0.7730 C   0  0  0  0  0  0  0  0  0  0  0  0
   -5.0710    1.0080   -0.3510 C   0  0  0  0  0  0  0  0  0  0  0  0
   -3.6600    1.0040   -0.2510 O   0  0  0  0  0  0  0  0  0  0  0  0
   -2.9550   -0.1860   -0.2950 C   0  0  0  0  0  0  0  0  0  0  0  0
   -3.5940   -1.2500   -0.4220 O   0  0  0  0  0  0  0  0  0  0  0  0
   -1.4790   -0.2400   -0.1970 C   0  0  2  0  0  0  0  0  0  0  0  0
   -1.1080   -1.5960   -0.1810 O   0  0  0  0  0  0  0  0  0  0  0  0
   -0.9790    0.3820    1.0790 C   0  0  0  0  0  0  0  0  0  0  0  0
    0.5170    0.2160    1.1460 C   0  0  0  0  0  0  0  0  0  0  0  0
    1.1510    0.1410   -0.2410 C   0  0  2  0  0  0  0  0  0  0  0  0
    2.4960    0.5750   -0.2170 O   0  0  0  0  0  0  0  0  0  0  0  0
    3.5780   -0.2010   -0.5430 C   0  0  0  0  0  0  0  0  0  0  0  0
    3.3170   -1.3990   -0.8850 O   0  0  0  0  0  0  0  0  0  0  0  0
    4.9880    0.2390   -0.5270 C   0  0  0  0  0  0  0  0  0  0  0  0
    5.8660   -0.7270    0.2350 C   0  0  0  0  0  0  0  0  0  0  0  0
    5.4660   -0.8590    1.5640 O   0  0  0  0  0  0  0  0  0  0  0  0
    0.3650    1.0870   -1.1180 C   0  0  0  0  0  0  0  0  0  0  0  0
   -0.9540    0.4430   -1.4400 C   0  0  0  0  0  0  0  0  0  0  0  0
  1  2  1  0
  2  3  1  0
  3  4  1  0
  4  5  2  0
  4  6  1  0
  6  7  1  6
  6  8  1  0
  6 18  1  0
  8  9  1  0
  9 10  1  0
 10 11  1  1
 10 17  1  0
 11 12  1  0
 12 13  2  0
 12 14  1  0
 14 15  1  0
 15 16  1  0
 17 18  1  0
M  END
