
     RDKit          3D

 18 17  0  0  0  0  0  0  0  0999 V2000
   -4.6090    0.0530   -1.6950 C   0  0  0  0  0  0  0  0  0  0  0  0
   -3.1470   -0.2370   -1.6220 C   0  0  0  0  0  0  0  0  0  0  0  0
   -2.4340   -0.0580   -0.4870 C   0  0  0  0  0  0  0  0  0  0  0  0
   -3.2860    0.4470    0.6310 C   0  0  0  0  0  0  0  0  0  0  0  0
   -1.0410   -0.3740   -0.4500 C   0  0  0  0  0  0  0  0  0  0  0  0
   -0.4000   -0.8950   -1.7210 C   0  0  0  0  0  0  0  0  0  0  0  0
   -0.2230   -0.2480    0.5420 C   0  0  0  0  0  0  0  0  0  0  0  0
    1.2140   -0.6260    0.4640 C   0  0  0  0  0  0  0  0  0  0  0  0
    1.9630   -0.4590    1.4970 O   0  0  0  0  0  0  0  0  0  0  0  0
    1.8630   -1.1520   -0.6110 O   0  0  0  0  0  0  0  0  0  0  0  0
    3.2070   -1.5050   -0.6770 C   0  0  0  0  0  0  0  0  0  0  0  0
    4.1110   -0.3600   -0.4280 C   0  0  0  0  0  0  0  0  0  0  0  0
    5.3550   -0.4770   -0.4440 O   0  0  0  0  0  0  0  0  0  0  0  0
    3.5620    0.8800   -0.1690 O   0  0  0  0  0  0  0  0  0  0  0  0
    4.3690    2.0360    0.0820 C   0  0  0  0  0  0  0  0  0  0  0  0
   -0.5950    0.3110    1.8660 C   0  0  2  0  0  0  0  0  0  0  0  0
    0.5830    1.0380    2.3090 O   0  0  0  0  0  0  0  0  0  0  0  0
   -0.8550   -0.6780    2.8030 O   0  0  0  0  0  0  0  0  0  0  0  0
  1  2  1  0
  2  3  2  3
  3  4  1  0
  3  5  1  0
  5  6  1  0
  5  7  2  3
  7  8  1  0
  7 16  1  0
  8  9  2  0
  8 10  1  0
 10 11  1  0
 11 12  1  0
 12 13  2  0
 12 14  1  0
 14 15  1  0
 16 17  1  1
 16 18  1  0
M  END
