
     RDKit          3D

 21 23  0  0  0  0  0  0  0  0999 V2000
   -5.6920    0.8240   -0.2790 C   0  0  0  0  0  0  0  0  0  0  0  0
   -4.3380    0.2430   -0.0670 C   0  0  0  0  0  0  0  0  0  0  0  0
   -3.9570   -0.0290    1.2280 C   0  0  0  0  0  0  0  0  0  0  0  0
   -2.6930   -0.5670    1.3980 C   0  0  0  0  0  0  0  0  0  0  0  0
   -1.8600   -0.8180    0.3330 C   0  0  0  0  0  0  0  0  0  0  0  0
   -0.5280   -1.3900    0.5700 N   0  0  0  0  0  0  0  0  0  0  0  0
    0.5820   -0.6980    0.4040 C   0  0  0  0  0  0  0  0  0  0  0  0
    1.7810   -1.3120    0.6470 C   0  0  0  0  0  0  0  0  0  0  0  0
    1.2850   -2.9930    1.1460 S   0  0  0  0  0  0  0  0  0  0  0  0
   -0.4630   -2.6590    0.9670 C   0  0  0  0  0  0  0  0  0  0  0  0
   -1.3770   -3.4850    1.1840 O   0  0  0  0  0  0  0  0  0  0  0  0
    3.1390   -0.7640    0.5310 C   0  0  0  0  0  0  0  0  0  0  0  0
    3.1600    0.6140    0.1280 N   0  0  0  0  0  0  0  0  0  0  0  0
    4.4060    1.3420   -0.0160 C   0  0  0  0  0  0  0  0  0  0  0  0
    5.2560    0.8760   -1.1580 C   0  0  1  0  0  0  0  0  0  0  0  0
    4.6160    0.9980   -2.3720 F   0  0  0  0  0  0  0  0  0  0  0  0
    6.3540    1.7430   -1.2210 F   0  0  0  0  0  0  0  0  0  0  0  0
    1.9230    1.2560   -0.1270 C   0  0  0  0  0  0  0  0  0  0  0  0
    0.7340    0.7340   -0.0250 C   0  0  0  0  0  0  0  0  0  0  0  0
   -2.2820   -0.5310   -0.9460 C   0  0  0  0  0  0  0  0  0  0  0  0
   -3.5120   -0.0050   -1.1430 C   0  0  0  0  0  0  0  0  0  0  0  0
  1  2  1  0
  2  3  2  0
  2 21  1  0
  3  4  1  0
  4  5  2  0
  5  6  1  0
  5 20  1  0
  6  7  1  0
  6 10  1  0
  7  8  2  0
  7 19  1  0
  8  9  1  0
  8 12  1  0
  9 10  1  0
 10 11  2  0
 12 13  1  0
 13 14  1  0
 13 18  1  0
 14 15  1  0
 15 16  1  6
 15 17  1  0
 18 19  2  0
 20 21  2  0
M  END
