
     RDKit          3D

 18 19  0  0  0  0  0  0  0  0999 V2000
    4.6570    0.8450    0.6580 C   0  0  0  0  0  0  0  0  0  0  0  0
    3.6010    0.1190    1.3700 N   0  0  0  0  0  0  0  0  0  0  0  0
    3.3020   -1.0770    0.6500 C   0  0  0  0  0  0  0  0  0  0  0  0
    1.8820   -1.1290    0.1210 C   0  0  0  0  0  0  0  0  0  0  0  0
    1.6180   -0.0590   -0.7630 N   0  0  0  0  0  0  0  0  0  0  0  0
    0.0430    0.0180   -1.4370 S   0  0  2  0  0  0  0  0  0  0  0  0
   -0.2250   -1.2490   -2.2440 O   0  0  0  0  0  0  0  0  0  0  0  0
    0.0780    1.1620   -2.4220 O   0  0  0  0  0  0  0  0  0  0  0  0
   -1.2370    0.2620   -0.2870 C   0  0  0  0  0  0  0  0  0  0  0  0
   -0.9730    0.5040    1.0410 C   0  0  0  0  0  0  0  0  0  0  0  0
   -2.0400    0.6940    1.8920 C   0  0  0  0  0  0  0  0  0  0  0  0
   -3.3320    0.6520    1.4640 C   0  0  0  0  0  0  0  0  0  0  0  0
   -3.5800    0.4120    0.1360 C   0  0  0  0  0  0  0  0  0  0  0  0
   -4.8860    0.3730   -0.3360 C   0  0  0  0  0  0  0  0  0  0  0  0
   -5.1230    0.1510   -1.6250 N   0  0  0  0  0  0  0  0  0  0  0  0
   -4.1370   -0.0420   -2.5110 C   0  0  0  0  0  0  0  0  0  0  0  0
   -2.8310   -0.0170   -2.1130 C   0  0  0  0  0  0  0  0  0  0  0  0
   -2.5470    0.2090   -0.7860 C   0  0  0  0  0  0  0  0  0  0  0  0
  1  2  1  0
  2  3  1  0
  3  4  1  0
  4  5  1  0
  6  5  1  1
  6  7  2  0
  6  8  2  0
  6  9  1  0
  9 10  2  0
  9 18  1  0
 10 11  1  0
 11 12  2  0
 12 13  1  0
 13 14  2  0
 13 18  1  0
 14 15  1  0
 15 16  2  0
 16 17  1  0
 17 18  2  0
M  CHG  1   2   1
M  END
