
     RDKit          3D

 21 23  0  0  0  0  0  0  0  0999 V2000
   -5.6480   -1.4800   -0.1320 C   0  0  0  0  0  0  0  0  0  0  0  0
   -4.2260   -1.6760   -0.0700 C   0  0  0  0  0  0  0  0  0  0  0  0
   -3.1890   -0.9240   -0.2210 C   0  0  0  0  0  0  0  0  0  0  0  0
   -1.5140   -1.7250   -0.0230 S   0  0  0  0  0  0  0  0  0  0  0  0
   -0.5760   -0.2710   -0.3170 C   0  0  0  0  0  0  0  0  0  0  0  0
    0.9050   -0.2270   -0.2960 C   0  0  0  0  0  0  0  0  0  0  0  0
    1.6830    0.7310   -0.8540 C   0  0  0  0  0  0  0  0  0  0  0  0
    3.0680    0.7030   -0.7120 C   0  0  0  0  0  0  0  0  0  0  0  0
    3.6320   -0.3200    0.0060 C   0  0  0  0  0  0  0  0  0  0  0  0
    4.9430   -0.6120    0.3130 C   0  0  0  0  0  0  0  0  0  0  0  0
    6.1780    0.1280   -0.0600 C   0  0  0  0  0  0  0  0  0  0  0  0
    4.8810   -1.7370    1.0410 N   0  0  0  0  0  0  0  0  0  0  0  0
    3.6510   -2.1200    1.1810 O   0  0  0  0  0  0  0  0  0  0  0  0
    2.8380   -1.2930    0.5700 C   0  0  0  0  0  0  0  0  0  0  0  0
    1.5110   -1.2090    0.3980 N   0  0  0  0  0  0  0  0  0  0  0  0
   -1.5250    0.6960   -0.5330 C   0  0  0  0  0  0  0  0  0  0  0  0
   -1.0040    2.1300   -0.6680 C   0  0  0  0  0  0  0  0  0  0  0  0
   -2.8170    0.3430   -0.4850 C   0  0  0  0  0  0  0  0  0  0  0  0
   -3.7960    1.2450   -0.7750 C   0  0  0  0  0  0  0  0  0  0  0  0
   -3.4550    2.5250   -1.0480 F   0  0  0  0  0  0  0  0  0  0  0  0
   -5.0900    0.9760   -0.8280 F   0  0  0  0  0  0  0  0  0  0  0  0
  1  2  1  0
  2  3  2  3
  3  4  1  0
  3 18  1  0
  4  5  1  0
  5  6  1  0
  5 16  2  0
  6  7  2  0
  6 15  1  0
  7  8  1  0
  8  9  2  0
  9 10  1  0
  9 14  1  0
 10 11  1  0
 10 12  2  0
 12 13  1  0
 13 14  1  0
 14 15  2  0
 16 17  1  0
 16 18  1  0
 18 19  2  3
 19 20  1  0
 19 21  1  0
M  END
