
     RDKit          3D

 24 26  0  0  0  0  0  0  0  0999 V2000
    6.3990    0.1600    0.7090 C   0  0  0  0  0  0  0  0  0  0  0  0
    4.9780   -0.0130    0.2220 C   0  0  0  0  0  0  0  0  0  0  0  0
    4.1840    0.9040   -0.2200 O   0  0  0  0  0  0  0  0  0  0  0  0
    2.9930    0.4230   -0.5730 C   0  0  0  0  0  0  0  0  0  0  0  0
    1.8710    1.2210   -1.1160 C   0  0  2  0  0  0  0  0  0  0  0  0
    2.2610    2.7070   -1.0400 C   0  0  0  0  0  0  0  0  0  0  0  0
    0.6410    1.1080   -0.4300 N   0  0  1  0  0  0  0  0  0  0  0  0
   -0.3890    1.6870   -1.3150 C   0  0  0  0  0  0  0  0  0  0  0  0
    0.1750   -0.1780   -0.0560 C   0  0  0  0  0  0  0  0  0  0  0  0
   -1.2640   -0.0650    0.3470 C   0  0  0  0  0  0  0  0  0  0  0  0
   -1.8080    1.0270    0.9720 C   0  0  0  0  0  0  0  0  0  0  0  0
   -3.1430    1.0980    1.3280 C   0  0  0  0  0  0  0  0  0  0  0  0
   -3.6450    2.2230    1.9580 O   0  0  0  0  0  0  0  0  0  0  0  0
   -3.9530    0.0410    1.0490 C   0  0  0  0  0  0  0  0  0  0  0  0
   -3.4610   -1.0870    0.4200 C   0  0  0  0  0  0  0  0  0  0  0  0
   -2.1280   -1.1290    0.0770 C   0  0  0  0  0  0  0  0  0  0  0  0
   -4.3970   -2.2320    0.1330 C   0  0  0  0  0  0  0  0  0  0  0  0
   -5.7430   -1.7130   -0.3180 C   0  0  0  0  0  0  0  0  0  0  0  0
   -6.2620   -0.5730    0.4900 C   0  0  0  0  0  0  0  0  0  0  0  0
   -5.3140    0.0070    1.3640 O   0  0  0  0  0  0  0  0  0  0  0  0
    3.0500   -0.9300   -0.3260 C   0  0  0  0  0  0  0  0  0  0  0  0
    4.2990   -1.2080    0.1750 C   0  0  0  0  0  0  0  0  0  0  0  0
    4.8710   -2.5080    0.5990 C   0  0  0  0  0  0  0  0  0  0  0  0
    5.7370   -2.9280   -0.3950 F   0  0  0  0  0  0  0  0  0  0  0  0
  1  2  1  0
  2  3  1  0
  2 22  2  0
  3  4  1  0
  4  5  1  0
  4 21  2  0
  5  6  1  1
  5  7  1  0
  7  8  1  6
  7  9  1  0
  9 10  1  0
 10 11  2  0
 10 16  1  0
 11 12  1  0
 12 13  1  0
 12 14  2  0
 14 15  1  0
 14 20  1  0
 15 16  2  0
 15 17  1  0
 17 18  1  0
 18 19  1  0
 19 20  1  0
 21 22  1  0
 22 23  1  0
 23 24  1  0
M  CHG  1   7   1
M  END
