
     RDKit          3D

 24 26  0  0  0  0  0  0  0  0999 V2000
    3.8650    3.6970   -1.3290 C   0  0  0  0  0  0  0  0  0  0  0  0
    4.4300    2.8440   -0.3520 O   0  0  0  0  0  0  0  0  0  0  0  0
    3.8170    1.6320   -0.1110 C   0  0  0  0  0  0  0  0  0  0  0  0
    2.6850    1.1950   -0.7660 C   0  0  0  0  0  0  0  0  0  0  0  0
    2.1330   -0.0190   -0.4740 C   0  0  0  0  0  0  0  0  0  0  0  0
    2.6690   -0.8610    0.4740 C   0  0  0  0  0  0  0  0  0  0  0  0
    3.7960   -0.4510    1.1390 C   0  0  0  0  0  0  0  0  0  0  0  0
    4.3570    0.7830    0.8430 C   0  0  0  0  0  0  0  0  0  0  0  0
    5.5740    1.2100    1.5720 C   0  0  0  0  0  0  0  0  0  0  0  0
    5.9880    2.4420    1.1580 F   0  0  0  0  0  0  0  0  0  0  0  0
    2.0310   -2.0700    0.6910 O   0  0  0  0  0  0  0  0  0  0  0  0
    0.6390   -2.2590    0.5420 C   0  0  1  0  0  0  0  0  0  0  0  0
    0.4550   -3.4800   -0.3400 C   0  0  0  0  0  0  0  0  0  0  0  0
    0.0810   -2.5650    1.9280 C   0  0  0  0  0  0  0  0  0  0  0  0
    0.0010   -1.0390   -0.0540 C   0  0  2  0  0  0  0  0  0  0  0  0
   -1.3450   -1.2810   -0.4700 N   0  0  0  0  0  0  0  0  0  0  0  0
   -2.1620   -0.0910   -0.4040 C   0  0  1  0  0  0  0  0  0  0  0  0
   -2.8330    0.2180   -1.7250 C   0  0  0  0  0  0  0  0  0  0  0  0
   -4.0050    0.8720   -1.4610 O   0  0  0  0  0  0  0  0  0  0  0  0
   -4.3280    0.7300   -0.1410 C   0  0  2  0  0  0  0  0  0  0  0  0
   -5.7760    0.3400   -0.0130 C   0  0  0  0  0  0  0  0  0  0  0  0
   -4.0570    2.0760    0.5400 C   0  0  0  0  0  0  0  0  0  0  0  0
   -3.4020   -0.3120    0.4560 C   0  0  0  0  0  0  0  0  0  0  0  0
    0.8960   -0.5370   -1.1620 C   0  0  0  0  0  0  0  0  0  0  0  0
  1  2  1  0
  2  3  1  0
  3  4  2  0
  3  8  1  0
  4  5  1  0
  5  6  2  0
  5 24  1  0
  6  7  1  0
  6 11  1  0
  7  8  2  0
  8  9  1  0
  9 10  1  0
 11 12  1  0
 12 13  1  6
 12 14  1  0
 12 15  1  0
 15 16  1  6
 15 24  1  0
 17 16  1  6
 17 18  1  0
 17 23  1  0
 18 19  1  0
 19 20  1  0
 20 21  1  6
 20 22  1  0
 20 23  1  0
M  CHG  1  16   1
M  END
