
     RDKit          3D

 24 27  0  0  0  0  0  0  0  0999 V2000
   -7.7570    0.1230    0.5100 C   0  0  0  0  0  0  0  0  0  0  0  0
   -6.3580    0.2000    0.0080 C   0  0  0  0  0  0  0  0  0  0  0  0
   -6.0410    0.1630   -1.3210 C   0  0  0  0  0  0  0  0  0  0  0  0
   -4.7250    0.2380   -1.7230 C   0  0  0  0  0  0  0  0  0  0  0  0
   -3.6790    0.3510   -0.8300 C   0  0  0  0  0  0  0  0  0  0  0  0
   -4.0160    0.3860    0.5060 C   0  0  0  0  0  0  0  0  0  0  0  0
   -5.3450    0.3110    0.9260 C   0  0  0  0  0  0  0  0  0  0  0  0
   -5.6560    0.3480    2.2600 F   0  0  0  0  0  0  0  0  0  0  0  0
   -2.8930    0.4990    1.2800 O   0  0  0  0  0  0  0  0  0  0  0  0
   -1.7940    0.7950    0.4380 C   0  0  1  0  0  0  0  0  0  0  0  0
   -0.5980    0.1070    0.9670 C   0  0  1  0  0  0  0  0  0  0  0  0
   -0.6610   -1.3710    1.0610 C   0  0  0  0  0  0  0  0  0  0  0  0
    0.4900   -1.8850    0.4780 O   0  0  0  0  0  0  0  0  0  0  0  0
    1.4580   -0.8870    0.5360 C   0  0  1  0  0  0  0  0  0  0  0  0
    2.5510   -1.1690   -0.4670 C   0  0  0  0  0  0  0  0  0  0  0  0
    3.5410   -0.1120   -0.3800 N   0  0  0  0  0  0  0  0  0  0  0  0
    4.4910   -0.3300    0.6910 C   0  0  0  0  0  0  0  0  0  0  0  0
    5.8430    0.1600    0.2430 C   0  0  0  0  0  0  0  0  0  0  0  0
    6.8280   -0.5520   -0.4080 C   0  0  0  0  0  0  0  0  0  0  0  0
    7.8760    0.3210   -0.6050 C   0  0  0  0  0  0  0  0  0  0  0  0
    7.4640    1.5160   -0.0590 C   0  0  0  0  0  0  0  0  0  0  0  0
    6.2550    1.3780    0.4320 O   0  0  0  0  0  0  0  0  0  0  0  0
    0.6530    0.3360    0.1450 C   0  0  0  0  0  0  0  0  0  0  0  0
   -2.2020    0.4500   -0.9470 C   0  0  0  0  0  0  0  0  0  0  0  0
  1  2  1  0
  2  3  2  0
  2  7  1  0
  3  4  1  0
  4  5  2  0
  5  6  1  0
  5 24  1  0
  6  7  2  0
  6  9  1  0
  7  8  1  0
  9 10  1  0
 10 11  1  0
 10 24  1  6
 11 12  1  6
 11 23  1  0
 12 13  1  0
 13 14  1  0
 14 15  1  6
 14 23  1  0
 15 16  1  0
 16 17  1  0
 17 18  1  0
 18 19  2  0
 18 22  1  0
 19 20  1  0
 20 21  2  0
 21 22  1  0
M  CHG  1  16   1
M  END
