
     RDKit          3D

 23 26  0  0  0  0  0  0  0  0999 V2000
   -6.4690   -0.4460    0.1010 C   0  0  0  0  0  0  0  0  0  0  0  0
   -5.0720   -0.0240   -0.2490 C   0  0  0  0  0  0  0  0  0  0  0  0
   -4.7270    0.2020   -1.5600 C   0  0  0  0  0  0  0  0  0  0  0  0
   -3.4520    0.5900   -1.9030 C   0  0  0  0  0  0  0  0  0  0  0  0
   -2.8580    0.8690   -3.0520 O   0  0  0  0  0  0  0  0  0  0  0  0
   -1.6090    1.1920   -2.8190 C   0  0  0  0  0  0  0  0  0  0  0  0
   -1.3400    1.1330   -1.4700 C   0  0  0  0  0  0  0  0  0  0  0  0
   -0.0660    1.4190   -0.7640 C   0  0  0  0  0  0  0  0  0  0  0  0
    0.5930    0.1150   -0.3410 C   0  0  0  0  0  0  0  0  0  0  0  0
    1.8500    0.3730    0.3510 N   0  0  2  0  0  0  0  0  0  0  0  0
    2.8470    0.9020   -0.5390 C   0  0  0  0  0  0  0  0  0  0  0  0
    3.8670   -0.2270   -0.7260 C   0  0  0  0  0  0  0  0  0  0  0  0
    3.7760   -0.8900    0.6090 C   0  0  2  0  0  0  0  0  0  0  0  0
    4.6750   -0.1790    1.5870 C   0  0  0  0  0  0  0  0  0  0  0  0
    6.0330   -0.7890    1.2410 C   0  0  0  0  0  0  0  0  0  0  0  0
    5.7020   -2.1060    0.9060 O   0  0  0  0  0  0  0  0  0  0  0  0
    4.3480   -2.2560    0.6190 C   0  0  0  0  0  0  0  0  0  0  0  0
    3.7940   -3.3580    0.4200 O   0  0  0  0  0  0  0  0  0  0  0  0
    2.3290   -0.8500    0.9330 C   0  0  0  0  0  0  0  0  0  0  0  0
   -2.5250    0.7460   -0.8800 C   0  0  0  0  0  0  0  0  0  0  0  0
   -2.8800    0.5150    0.4500 C   0  0  0  0  0  0  0  0  0  0  0  0
   -4.1630    0.1270    0.7760 C   0  0  0  0  0  0  0  0  0  0  0  0
   -4.6040   -0.1360    2.1720 C   0  0  0  0  0  0  0  0  0  0  0  0
  1  2  1  0
  2  3  2  0
  2 22  1  0
  3  4  1  0
  4  5  1  0
  4 20  2  0
  5  6  1  0
  6  7  2  0
  7  8  1  0
  7 20  1  0
  8  9  1  0
 10  9  1  6
 10 11  1  0
 10 19  1  0
 11 12  1  0
 13 12  1  6
 13 14  1  0
 13 17  1  0
 13 19  1  0
 14 15  1  0
 15 16  1  0
 16 17  1  0
 17 18  2  0
 20 21  1  0
 21 22  2  0
 22 23  1  0
M  CHG  1  10   1
M  END
