
     RDKit          3D

 21 23  0  0  0  0  0  0  0  0999 V2000
    4.4370    0.4340    1.6720 C   0  0  0  0  0  0  0  0  0  0  0  0
    3.4440   -0.3600    0.8590 C   0  0  0  0  0  0  0  0  0  0  0  0
    3.6220   -1.5960    0.3110 C   0  0  0  0  0  0  0  0  0  0  0  0
    2.4320   -1.9330   -0.3550 C   0  0  0  0  0  0  0  0  0  0  0  0
    1.5430   -0.8890   -0.2000 C   0  0  0  0  0  0  0  0  0  0  0  0
    2.1990    0.0280    0.5360 N   0  0  0  0  0  0  0  0  0  0  0  0
    1.5220    1.2300    0.8920 C   0  0  0  0  0  0  0  0  0  0  0  0
    2.1790    2.2200    1.2450 O   0  0  0  0  0  0  0  0  0  0  0  0
    0.0380    1.3240    0.8500 C   0  0  0  0  0  0  0  0  0  0  0  0
   -0.4340    0.6030   -0.3400 N   0  0  0  0  0  0  0  0  0  0  0  0
   -1.4600    1.1710   -1.1260 C   0  0  0  0  0  0  0  0  0  0  0  0
   -2.7730    1.3020   -0.5250 C   0  0  0  0  0  0  0  0  0  0  0  0
   -3.3530    0.9670    0.6260 C   0  0  0  0  0  0  0  0  0  0  0  0
   -4.6410    1.2580    0.8460 C   0  0  0  0  0  0  0  0  0  0  0  0
   -5.3470    1.9110   -0.1430 C   0  0  0  0  0  0  0  0  0  0  0  0
   -4.0450    2.0780   -1.4060 S   0  0  0  0  0  0  0  0  0  0  0  0
    0.1670   -0.6690   -0.6940 C   0  0  0  0  0  0  0  0  0  0  0  0
   -0.4850   -1.5430   -1.3860 C   0  0  0  0  0  0  0  0  0  0  0  0
   -0.1360   -2.8830   -1.8650 C   0  0  2  0  0  0  0  0  0  0  0  0
   -1.1860   -3.3950   -2.6870 F   0  0  0  0  0  0  0  0  0  0  0  0
   -0.1480   -3.7790   -0.7930 F   0  0  0  0  0  0  0  0  0  0  0  0
  1  2  1  0
  2  3  2  0
  2  6  1  0
  3  4  1  0
  4  5  2  0
  5  6  1  0
  5 17  1  0
  6  7  1  0
  7  8  2  0
  7  9  1  0
  9 10  1  0
 10 11  1  0
 10 17  1  0
 11 12  1  0
 12 13  2  0
 12 16  1  0
 13 14  1  0
 14 15  2  0
 15 16  1  0
 17 18  2  3
 18 19  1  0
 19 20  1  6
 19 21  1  0
M  END
