
     RDKit          3D

 11 11  0  0  0  0  0  0  0  0999 V2000
    3.2600    1.3700   -0.0540 O   0  0  0  0  0  0  0  0  0  0  0  0
    3.4750    0.0120   -0.2000 C   0  0  0  0  0  0  0  0  0  0  0  0
    2.1800   -0.7070   -0.4520 C   0  0  0  0  0  0  0  0  0  0  0  0
    1.2030   -0.4030    0.5140 O   0  0  0  0  0  0  0  0  0  0  0  0
    0.0740   -0.4120   -0.1280 O   0  0  0  0  0  0  0  0  0  0  0  0
   -1.0480   -0.5680    0.6390 C   0  0  2  0  0  0  0  0  0  0  0  0
   -2.0780   -1.2390   -0.2660 C   0  0  0  0  0  0  0  0  0  0  0  0
   -2.5240   -0.2630   -1.1390 O   0  0  0  0  0  0  0  0  0  0  0  0
   -1.9250    0.9380   -0.8040 C   0  0  0  0  0  0  0  0  0  0  0  0
   -1.7360    0.7940    0.7030 C   0  0  1  0  0  0  0  0  0  0  0  0
   -2.9580    0.6180    1.3320 O   0  0  0  0  0  0  0  0  0  0  0  0
  1  2  1  0
  2  3  1  0
  3  4  1  0
  4  5  1  0
  6  5  1  6
  6  7  1  0
  6 10  1  0
  7  8  1  0
  8  9  1  0
  9 10  1  0
 10 11  1  1
M  END
