
     RDKit          3D

 10 10  0  0  0  0  0  0  0  0999 V2000
   -2.4800    0.4560   -1.0980 O   0  0  0  0  0  0  0  0  0  0  0  0
   -1.8950    0.6160    0.1720 C   0  0  0  0  0  0  0  0  0  0  0  0
   -0.5870   -0.1420    0.1740 C   0  0  2  0  0  0  0  0  0  0  0  0
   -0.7830   -1.4880   -0.0750 O   0  0  0  0  0  0  0  0  0  0  0  0
    0.0990    0.0770    1.5270 C   0  0  0  0  0  0  0  0  0  0  0  0
    1.0850   -0.8830    1.6280 O   0  0  0  0  0  0  0  0  0  0  0  0
    1.8250   -1.0100    0.4840 C   0  0  0  0  0  0  0  0  0  0  0  0
    1.7450    0.1840   -0.4370 C   0  0  0  0  0  0  0  0  0  0  0  0
    0.3350    0.5110   -0.8390 C   0  0  1  0  0  0  0  0  0  0  0  0
    0.0280    0.2000   -2.1350 O   0  0  0  0  0  0  0  0  0  0  0  0
  1  2  1  0
  2  3  1  0
  3  4  1  6
  3  5  1  0
  3  9  1  0
  5  6  1  0
  6  7  1  0
  7  8  1  0
  8  9  1  0
  9 10  1  6
M  END
