
     RDKit          3D

 10 10  0  0  0  0  0  0  0  0999 V2000
   -2.4920   -0.3440    1.1090 O   0  0  0  0  0  0  0  0  0  0  0  0
   -1.3170   -0.8430    0.6100 C   0  0  0  0  0  0  0  0  0  0  0  0
   -0.8140    0.0400   -0.5040 C   0  0  1  0  0  0  0  0  0  0  0  0
   -1.7070    0.1300   -1.5470 O   0  0  0  0  0  0  0  0  0  0  0  0
   -0.5190    1.4010    0.1140 C   0  0  0  0  0  0  0  0  0  0  0  0
    0.4410    1.2510    1.0960 O   0  0  0  0  0  0  0  0  0  0  0  0
    1.6580    0.8180    0.6300 C   0  0  0  0  0  0  0  0  0  0  0  0
    1.5970   -0.5160   -0.0650 C   0  0  1  0  0  0  0  0  0  0  0  0
    1.5450   -1.5880    0.7870 O   0  0  0  0  0  0  0  0  0  0  0  0
    0.4910   -0.4670   -1.0760 C   0  0  0  0  0  0  0  0  0  0  0  0
  1  2  1  0
  2  3  1  0
  3  4  1  6
  3  5  1  0
  3 10  1  0
  5  6  1  0
  6  7  1  0
  7  8  1  0
  8  9  1  1
  8 10  1  0
M  END
