
     RDKit          3D

 10 10  0  0  0  0  0  0  0  0999 V2000
   -1.1370    1.8010    1.4220 O   0  0  0  0  0  0  0  0  0  0  0  0
   -1.3610    1.4200    0.0880 C   0  0  0  0  0  0  0  0  0  0  0  0
   -0.9350    0.0010   -0.0490 C   0  0  1  0  0  0  0  0  0  0  0  0
   -1.0960   -0.5210   -1.3180 O   0  0  0  0  0  0  0  0  0  0  0  0
   -0.6500   -1.8400   -1.1130 C   0  0  0  0  0  0  0  0  0  0  0  0
    0.6510   -1.6770   -0.3510 C   0  0  0  0  0  0  0  0  0  0  0  0
    0.4860   -0.2800    0.2630 C   0  0  2  0  0  0  0  0  0  0  0  0
    0.8010   -0.3270    1.6000 O   0  0  0  0  0  0  0  0  0  0  0  0
    1.4600    0.6230   -0.4490 C   0  0  0  0  0  0  0  0  0  0  0  0
    1.4140    1.9170    0.0680 O   0  0  0  0  0  0  0  0  0  0  0  0
  1  2  1  0
  3  2  1  6
  3  4  1  0
  3  7  1  0
  4  5  1  0
  5  6  1  0
  6  7  1  0
  7  8  1  1
  7  9  1  0
  9 10  1  0
M  END
