
     RDKit          3D

 11 11  0  0  0  0  0  0  0  0999 V2000
   -3.4460    0.8200   -0.3640 O   0  0  0  0  0  0  0  0  0  0  0  0
   -2.1400    0.5900   -0.7910 C   0  0  0  0  0  0  0  0  0  0  0  0
   -1.3330   -0.0890    0.3250 C   0  0  1  0  0  0  0  0  0  0  0  0
   -1.3560    0.7910    1.4020 O   0  0  0  0  0  0  0  0  0  0  0  0
   -1.9420   -1.2930    0.6110 O   0  0  0  0  0  0  0  0  0  0  0  0
    0.0830   -0.3080   -0.1830 C   0  0  2  0  0  0  0  0  0  0  0  0
    0.9210   -1.0550    0.7780 C   0  0  0  0  0  0  0  0  0  0  0  0
    2.2510   -0.8260    0.7680 O   0  0  0  0  0  0  0  0  0  0  0  0
    2.7180    0.2740    0.1400 C   0  0  0  0  0  0  0  0  0  0  0  0
    1.8940    0.5650   -1.1210 C   0  0  0  0  0  0  0  0  0  0  0  0
    0.6260    0.9090   -0.5960 O   0  0  0  0  0  0  0  0  0  0  0  0
  1  2  1  0
  2  3  1  0
  3  4  1  1
  3  5  1  0
  3  6  1  0
  6  7  1  1
  6 11  1  0
  7  8  1  0
  8  9  1  0
  9 10  1  0
 10 11  1  0
M  END
