
     RDKit          3D

 11 11  0  0  0  0  0  0  0  0999 V2000
    3.0140    1.6470   -0.1650 O   0  0  0  0  0  0  0  0  0  0  0  0
    2.7630    0.5510   -0.7440 C   0  0  0  0  0  0  0  0  0  0  0  0
    3.6440    0.0580   -1.7180 O   0  0  0  0  0  0  0  0  0  0  0  0
    1.6130   -0.1410   -0.3970 O   0  0  0  0  0  0  0  0  0  0  0  0
    0.7140    0.3650    0.5980 C   0  0  0  0  0  0  0  0  0  0  0  0
   -0.4460   -0.6010    0.7620 C   0  0  1  0  0  0  0  0  0  0  0  0
   -0.0600   -1.8760    1.1570 O   0  0  0  0  0  0  0  0  0  0  0  0
   -1.5430    0.0130    1.6020 C   0  0  0  0  0  0  0  0  0  0  0  0
   -2.1070    0.5660    0.3130 C   0  0  0  0  0  0  0  0  0  0  0  0
   -1.4230   -0.5840   -0.3890 C   0  0  1  0  0  0  0  0  0  0  0  0
   -0.8690   -0.2740   -1.6220 O   0  0  0  0  0  0  0  0  0  0  0  0
  1  2  2  0
  2  3  1  0
  2  4  1  0
  4  5  1  0
  5  6  1  0
  6  7  1  1
  6  8  1  0
  6 10  1  0
  8  9  1  0
  9 10  1  0
 10 11  1  6
M  END
