
     RDKit          3D

 10 10  0  0  0  0  0  0  0  0999 V2000
   -1.9450   -1.2370    0.9080 O   0  0  0  0  0  0  0  0  0  0  0  0
   -1.6080   -1.1020   -0.4170 C   0  0  0  0  0  0  0  0  0  0  0  0
   -0.2900   -0.3580   -0.6160 C   0  0  2  0  0  0  0  0  0  0  0  0
   -0.0750   -0.2950   -1.9940 O   0  0  0  0  0  0  0  0  0  0  0  0
    0.7900   -1.2210   -0.0240 C   0  0  0  0  0  0  0  0  0  0  0  0
    1.9720   -0.4680    0.4720 C   0  0  0  0  0  0  0  0  0  0  0  0
    2.0520    0.7880   -0.0740 O   0  0  0  0  0  0  0  0  0  0  0  0
    0.9860    1.5960    0.3030 C   0  0  0  0  0  0  0  0  0  0  0  0
   -0.3430    1.0200   -0.0760 C   0  0  2  0  0  0  0  0  0  0  0  0
   -1.1710    1.1260    1.0640 O   0  0  0  0  0  0  0  0  0  0  0  0
  1  2  1  0
  2  3  1  0
  3  4  1  6
  3  5  1  0
  3  9  1  0
  5  6  1  0
  6  7  1  0
  7  8  1  0
  8  9  1  0
  9 10  1  1
M  END
