
     RDKit          3D

 20 20  0  0  0  0  0  0  0  0999 V2000
    6.5160   -1.2990    0.3970 C   0  0  0  0  0  0  0  0  0  0  0  0
    5.2500   -1.8190   -0.2610 C   0  0  0  0  0  0  0  0  0  0  0  0
    4.4050   -0.6610   -0.6910 C   0  0  0  0  0  0  0  0  0  0  0  0
    4.7690   -0.0220   -1.7140 O   0  0  0  0  0  0  0  0  0  0  0  0
    3.2670   -0.2900   -0.0080 O   0  0  0  0  0  0  0  0  0  0  0  0
    2.5280    0.8130   -0.4790 C   0  0  0  0  0  0  0  0  0  0  0  0
    1.3370    1.0800    0.3680 C   0  0  0  0  0  0  0  0  0  0  0  0
    1.1320    0.3310    1.3480 O   0  0  0  0  0  0  0  0  0  0  0  0
    0.4540    2.1060    0.1290 O   0  0  0  0  0  0  0  0  0  0  0  0
   -0.9430    2.4610    1.0850 P   0  0  0  0  0  0  0  0  0  0  0  0
   -2.2920    1.4550    0.8260 O   0  0  0  0  0  0  0  0  0  0  0  0
   -2.1730    0.5980   -0.2630 C   0  0  0  0  0  0  0  0  0  0  0  0
   -3.3980   -0.2670   -0.4360 C   0  0  2  0  0  0  0  0  0  0  0  0
   -3.2220   -1.0850   -1.5190 F   0  0  0  0  0  0  0  0  0  0  0  0
   -4.6650    0.5380   -0.5270 C   0  0  0  0  0  0  0  0  0  0  0  0
   -5.6730   -0.4270    0.0460 C   0  0  0  0  0  0  0  0  0  0  0  0
   -4.9790   -1.4680    0.6360 O   0  0  0  0  0  0  0  0  0  0  0  0
   -3.6840   -1.0700    0.8310 C   0  0  0  0  0  0  0  0  0  0  0  0
   -1.4110    4.5780    1.2440 P   0  0  0  0  0  0  0  0  0  0  0  0
   -1.2310    5.6100    0.1250 O   0  0  0  0  0  0  0  0  0  0  0  0
  1  2  1  0
  2  3  1  0
  3  4  2  0
  3  5  1  0
  5  6  1  0
  6  7  1  0
  7  8  2  0
  7  9  1  0
  9 10  1  0
 10 11  1  0
 10 19  1  0
 11 12  1  0
 12 13  1  0
 13 14  1  6
 13 15  1  0
 13 18  1  0
 15 16  1  0
 16 17  1  0
 17 18  1  0
 19 20  2  0
M  END
