
     RDKit          3D

 22 23  0  0  0  0  0  0  0  0999 V2000
    5.0810    0.0670   -0.5930 O   0  0  0  0  0  0  0  0  0  0  0  0
    5.2060   -0.5540   -1.7030 C   0  0  0  0  0  0  0  0  0  0  0  0
    6.4240   -0.4360   -2.3290 O   0  0  0  0  0  0  0  0  0  0  0  0
    4.1170   -1.3030   -2.2000 O   0  0  0  0  0  0  0  0  0  0  0  0
    2.9040   -1.3530   -1.4540 C   0  0  0  0  0  0  0  0  0  0  0  0
    2.2280   -0.0580   -1.2640 C   0  0  2  0  0  0  0  0  0  0  0  0
    2.0470    0.1810    0.2360 C   0  0  0  0  0  0  0  0  0  0  0  0
    0.7250   -0.3900    0.6490 C   0  0  0  0  0  0  0  0  0  0  0  0
   -0.4020    0.3340   -0.0720 N   0  0  0  0  0  0  0  0  0  0  0  0
   -1.5370    0.4080    0.7420 C   0  0  0  0  0  0  0  0  0  0  0  0
   -1.4270    0.9740    1.9830 C   0  0  0  0  0  0  0  0  0  0  0  0
   -2.6640    1.0560    2.8150 C   0  0  1  0  0  0  0  0  0  0  0  0
   -3.4610    2.1270    2.3180 O   0  0  0  0  0  0  0  0  0  0  0  0
   -3.4720   -0.0810    2.7050 O   0  0  0  0  0  0  0  0  0  0  0  0
   -3.6320   -0.5980    1.4640 N   0  0  0  0  0  0  0  0  0  0  0  0
   -2.7060   -0.3640    0.5510 C   0  0  0  0  0  0  0  0  0  0  0  0
   -3.1110   -0.7310   -0.8960 C   0  0  0  0  0  0  0  0  0  0  0  0
   -4.4320   -1.2260   -0.6400 O   0  0  0  0  0  0  0  0  0  0  0  0
   -5.2290   -0.3430   -1.3020 O   0  0  0  0  0  0  0  0  0  0  0  0
   -0.0890    0.7480   -1.3490 C   0  0  0  0  0  0  0  0  0  0  0  0
   -0.8250    1.6140   -1.9690 O   0  0  0  0  0  0  0  0  0  0  0  0
    1.0710    0.2290   -2.0040 O   0  0  0  0  0  0  0  0  0  0  0  0
  1  2  2  0
  2  3  1  0
  2  4  1  0
  4  5  1  0
  6  5  1  1
  6  7  1  0
  6 22  1  0
  7  8  1  0
  8  9  1  0
  9 10  1  0
  9 20  1  0
 10 11  2  0
 10 16  1  0
 11 12  1  0
 12 13  1  6
 12 14  1  0
 14 15  1  0
 15 16  2  0
 16 17  1  0
 17 18  1  0
 18 19  1  0
 20 21  2  0
 20 22  1  0
M  END
