
     RDKit          3D

 19 19  0  0  0  0  0  0  0  0999 V2000
    5.5820    0.0910    1.3970 C   0  0  0  0  0  0  0  0  0  0  0  0
    4.4460    0.5460    0.5290 C   0  0  0  0  0  0  0  0  0  0  0  0
    3.2310    0.6060    1.2060 O   0  0  0  0  0  0  0  0  0  0  0  0
    1.9980    1.1120    0.2200 P   0  0  0  0  0  0  0  0  0  0  0  0
    2.2600    2.2500   -0.9610 O   0  0  0  0  0  0  0  0  0  0  0  0
    0.3140    0.5780    0.5630 C   0  0  0  0  0  0  0  0  0  0  0  0
   -0.3410   -0.6810   -0.6000 P   0  0  0  0  0  0  0  0  0  0  0  0
    0.4830   -2.3000   -0.4910 C   0  0  0  0  0  0  0  0  0  0  0  0
   -0.4940   -3.3620   -0.1840 C   0  0  0  0  0  0  0  0  0  0  0  0
    0.0610   -4.6110   -0.0870 F   0  0  0  0  0  0  0  0  0  0  0  0
   -1.7720   -3.2670   -0.0000 C   0  0  0  0  0  0  0  0  0  0  0  0
   -2.6010   -2.1020   -0.0430 C   0  0  0  0  0  0  0  0  0  0  0  0
   -2.1180   -0.9110   -0.2910 C   0  0  0  0  0  0  0  0  0  0  0  0
   -3.0430    0.2750   -0.3210 C   0  0  0  0  0  0  0  0  0  0  0  0
   -2.6830    1.2070    0.6220 O   0  0  0  0  0  0  0  0  0  0  0  0
   -3.4010    2.2890    0.7070 O   0  0  0  0  0  0  0  0  0  0  0  0
   -4.4910    2.6770   -0.0140 C   0  0  0  0  0  0  0  0  0  0  0  0
   -4.9170    1.9330   -0.9020 O   0  0  0  0  0  0  0  0  0  0  0  0
   -5.1230    3.8930    0.2380 O   0  0  0  0  0  0  0  0  0  0  0  0
  1  2  1  0
  2  3  1  0
  3  4  1  0
  4  5  1  0
  4  6  1  0
  6  7  1  0
  7  8  1  0
  7 13  1  0
  8  9  1  0
  9 10  1  0
  9 11  2  0
 11 12  1  0
 12 13  2  0
 13 14  1  0
 14 15  1  0
 15 16  1  0
 16 17  1  0
 17 18  2  0
 17 19  1  0
M  END
