
     RDKit          3D

 20 20  0  0  0  0  0  0  0  0999 V2000
    6.0770    1.0350   -1.0700 C   0  0  0  0  0  0  0  0  0  0  0  0
    5.1240    0.0340   -0.4510 C   0  0  0  0  0  0  0  0  0  0  0  0
    4.5180   -0.7130   -1.4470 O   0  0  0  0  0  0  0  0  0  0  0  0
    3.4210   -1.8810   -0.9370 P   0  0  0  0  0  0  0  0  0  0  0  0
    3.3770   -2.3130    0.6630 O   0  0  0  0  0  0  0  0  0  0  0  0
    2.8250   -1.4690    1.5820 C   0  0  0  0  0  0  0  0  0  0  0  0
    1.5540   -0.8020    1.2130 C   0  0  0  0  0  0  0  0  0  0  0  0
    0.7960   -1.3110   -0.3540 P   0  0  0  0  0  0  0  0  0  0  0  0
   -0.6690   -0.5580   -0.7800 O   0  0  0  0  0  0  0  0  0  0  0  0
   -1.6670   -0.3440    0.1550 C   0  0  0  0  0  0  0  0  0  0  0  0
   -1.4420   -0.7280    1.3250 O   0  0  0  0  0  0  0  0  0  0  0  0
   -2.9700    0.3220   -0.2090 C   0  0  2  0  0  0  0  0  0  0  0  0
   -3.6050   -0.5450   -1.2600 C   0  0  0  0  0  0  0  0  0  0  0  0
   -2.7370    1.7020   -0.7220 C   0  0  0  0  0  0  0  0  0  0  0  0
   -3.9180    2.2870   -1.0610 F   0  0  0  0  0  0  0  0  0  0  0  0
   -3.7880    0.3680    1.0450 C   0  0  0  0  0  0  0  0  0  0  0  0
   -5.0870    0.9980    0.8200 C   0  0  0  0  0  0  0  0  0  0  0  0
   -5.2740    2.2350    1.0640 O   0  0  0  0  0  0  0  0  0  0  0  0
   -6.1860    0.2950    0.3320 O   0  0  0  0  0  0  0  0  0  0  0  0
    1.8390   -1.7490   -1.5980 O   0  0  0  0  0  0  0  0  0  0  0  0
  1  2  1  0
  2  3  1  0
  3  4  1  0
  4  5  1  0
  4 20  1  0
  5  6  1  0
  6  7  1  0
  7  8  1  0
  8  9  1  0
  8 20  1  0
  9 10  1  0
 10 11  2  0
 10 12  1  0
 12 13  1  6
 12 14  1  0
 12 16  1  0
 14 15  1  0
 16 17  1  0
 17 18  2  0
 17 19  1  0
M  END
