
     RDKit          3D

 23 23  0  0  0  0  0  0  0  0999 V2000
    5.4630    1.2630   -1.0680 O   0  0  0  0  0  0  0  0  0  0  0  0
    5.8110    1.5630    0.0900 C   0  0  0  0  0  0  0  0  0  0  0  0
    6.7560    2.5600    0.2620 O   0  0  0  0  0  0  0  0  0  0  0  0
    5.2310    0.8730    1.2560 C   0  0  0  0  0  0  0  0  0  0  0  0
    4.2700   -0.1300    0.8970 N   0  0  0  0  0  0  0  0  0  0  0  0
    3.1000    0.1650    0.1770 C   0  0  0  0  0  0  0  0  0  0  0  0
    2.8850    1.3410   -0.1620 O   0  0  0  0  0  0  0  0  0  0  0  0
    2.1170   -0.8980   -0.1830 C   0  0  0  0  0  0  0  0  0  0  0  0
    0.9940   -0.2490   -0.9420 C   0  0  0  0  0  0  0  0  0  0  0  0
   -0.0730   -1.2040   -1.4110 C   0  0  0  0  0  0  0  0  0  0  0  0
   -0.9090   -2.1050   -0.2100 P   0  0  0  0  0  0  0  0  0  0  0  0
   -1.1490   -1.5380    1.2930 O   0  0  0  0  0  0  0  0  0  0  0  0
    0.3100   -2.9690    0.2100 O   0  0  0  0  0  0  0  0  0  0  0  0
   -2.3730   -1.7630   -0.6430 O   0  0  0  0  0  0  0  0  0  0  0  0
   -3.1370   -0.7030   -0.3840 C   0  0  0  0  0  0  0  0  0  0  0  0
   -4.4490   -0.9620   -0.0030 C   0  0  0  0  0  0  0  0  0  0  0  0
   -5.3440    0.0480    0.2940 C   0  0  0  0  0  0  0  0  0  0  0  0
   -4.9690    1.3510    0.2220 C   0  0  0  0  0  0  0  0  0  0  0  0
   -5.8750    2.4170    0.5230 N   0  0  0  0  0  0  0  0  0  0  0  0
   -7.0420    2.1200    0.8600 O   0  0  0  0  0  0  0  0  0  0  0  0
   -5.4630    3.7120    0.4400 O   0  0  0  0  0  0  0  0  0  0  0  0
   -3.6690    1.6360   -0.1550 C   0  0  0  0  0  0  0  0  0  0  0  0
   -2.7790    0.6260   -0.4500 C   0  0  0  0  0  0  0  0  0  0  0  0
  1  2  2  0
  2  3  1  0
  2  4  1  0
  4  5  1  0
  5  6  1  0
  6  7  2  0
  6  8  1  0
  8  9  1  0
  9 10  1  0
 10 11  1  0
 11 12  1  0
 11 13  1  0
 11 14  1  0
 14 15  1  0
 15 16  2  0
 15 23  1  0
 16 17  1  0
 17 18  2  0
 18 19  1  0
 18 22  1  0
 19 20  2  0
 19 21  1  0
 22 23  2  0
M  CHG  2  19   1  21  -1
M  END
