
     RDKit          3D

 20 20  0  0  0  0  0  0  0  0999 V2000
   -3.9350    3.2290    1.0670 C   0  0  0  0  0  0  0  0  0  0  0  0
   -3.7390    2.3150   -0.1270 C   0  0  0  0  0  0  0  0  0  0  0  0
   -3.2570    1.1060    0.3690 O   0  0  0  0  0  0  0  0  0  0  0  0
   -2.9740   -0.0620   -0.8490 P   0  0  0  0  0  0  0  0  0  0  0  0
   -3.5100   -1.7190   -0.1930 C   0  0  0  0  0  0  0  0  0  0  0  0
   -2.3950   -2.3880    0.3610 O   0  0  0  0  0  0  0  0  0  0  0  0
   -2.7700   -3.6190    0.8530 C   0  0  0  0  0  0  0  0  0  0  0  0
   -1.3050   -0.1800   -1.2630 O   0  0  0  0  0  0  0  0  0  0  0  0
   -0.4970    0.6230   -0.4810 C   0  0  0  0  0  0  0  0  0  0  0  0
    0.9510    0.4710   -0.8970 C   0  0  0  0  0  0  0  0  0  0  0  0
    1.7880    1.2760   -0.1180 O   0  0  0  0  0  0  0  0  0  0  0  0
    3.4290    1.0910   -0.6040 P   0  0  0  0  0  0  0  0  0  0  0  0
    4.4490    1.7460    0.6670 O   0  0  0  0  0  0  0  0  0  0  0  0
    5.5900    0.9300    0.6900 C   0  0  0  0  0  0  0  0  0  0  0  0
    5.3230   -0.4130    1.2260 C   0  0  0  0  0  0  0  0  0  0  0  0
    5.9430   -0.7790    2.2100 O   0  0  0  0  0  0  0  0  0  0  0  0
    4.3360   -1.3160    0.6100 C   0  0  2  0  0  0  0  0  0  0  0  0
    4.8950   -2.5520    0.3200 F   0  0  0  0  0  0  0  0  0  0  0  0
    3.7930   -0.7260   -0.6460 C   0  0  0  0  0  0  0  0  0  0  0  0
    3.5890   -1.3580   -1.6490 O   0  0  0  0  0  0  0  0  0  0  0  0
  1  2  1  0
  2  3  1  0
  3  4  1  0
  4  5  1  0
  4  8  1  0
  5  6  1  0
  6  7  1  0
  8  9  1  0
  9 10  1  0
 10 11  1  0
 11 12  1  0
 12 13  1  0
 12 19  1  0
 13 14  1  0
 14 15  1  0
 15 16  2  0
 15 17  1  0
 17 18  1  6
 17 19  1  0
 19 20  2  0
M  END
