
     RDKit          3D

 20 19  0  0  0  0  0  0  0  0999 V2000
   -0.0240   -1.6640    1.0800 C   0  0  0  0  0  0  0  0  0  0  0  0
    0.9810   -0.9870    0.1130 C   0  0  2  0  0  0  0  0  0  0  0  0
    2.3180   -1.6140    0.2750 C   0  0  0  0  0  0  0  0  0  0  0  0
    2.1590   -3.0040   -0.0220 O   0  0  0  0  0  0  0  0  0  0  0  0
    3.2550   -3.8330    0.0510 C   0  0  0  0  0  0  0  0  0  0  0  0
    4.3610   -3.3280    0.3790 O   0  0  0  0  0  0  0  0  0  0  0  0
    0.8940    0.4760    0.4670 C   0  0  1  0  0  0  0  0  0  0  0  0
    1.2690    0.5490    1.8210 F   0  0  0  0  0  0  0  0  0  0  0  0
    1.7760    1.3750   -0.3450 C   0  0  0  0  0  0  0  0  0  0  0  0
    3.1010    1.0560   -0.1930 O   0  0  0  0  0  0  0  0  0  0  0  0
    4.1600    2.0490   -1.0970 P   0  0  0  0  0  0  0  0  0  0  0  0
    5.6350    2.2820   -0.1780 O   0  0  0  0  0  0  0  0  0  0  0  0
    3.4880    3.6450   -1.3370 O   0  0  0  0  0  0  0  0  0  0  0  0
   -0.8740    0.9340    0.3840 P   0  0  0  0  0  0  0  0  0  0  0  0
   -1.5740    1.5640    1.7540 O   0  0  0  0  0  0  0  0  0  0  0  0
   -1.8070    0.1190   -0.7380 O   0  0  0  0  0  0  0  0  0  0  0  0
   -3.1550    0.1710   -0.6040 C   0  0  2  0  0  0  0  0  0  0  0  0
   -3.5870    1.6280   -0.6890 C   0  0  0  0  0  0  0  0  0  0  0  0
   -3.7140   -0.3900    0.6610 C   0  0  0  0  0  0  0  0  0  0  0  0
   -3.7680   -0.6320   -1.7590 C   0  0  0  0  0  0  0  0  0  0  0  0
  2  1  1  1
  2  3  1  0
  2  7  1  0
  3  4  1  0
  4  5  1  0
  5  6  2  0
  7  8  1  1
  7  9  1  0
  7 14  1  0
  9 10  1  0
 10 11  1  0
 11 12  1  0
 11 13  1  0
 14 15  1  0
 14 16  1  0
 16 17  1  0
 17 18  1  6
 17 19  1  0
 17 20  1  0
M  END
