
     RDKit          3D

 27 27  0  0  0  0  0  0  0  0999 V2000
    6.8740    0.5830   -0.4040 C   0  0  0  0  0  0  0  0  0  0  0  0
    5.4280    0.4940    0.0520 C   0  0  0  0  0  0  0  0  0  0  0  0
    4.4920    0.2920   -0.8220 C   0  0  0  0  0  0  0  0  0  0  0  0
    3.0550    0.1580   -0.7150 C   0  0  0  0  0  0  0  0  0  0  0  0
    2.3900    0.1980    0.5970 C   0  0  1  0  0  0  0  0  0  0  0  0
    2.7890   -0.8820    1.5430 C   0  0  0  0  0  0  0  0  0  0  0  0
    2.5190   -2.2880    1.0920 C   0  0  0  0  0  0  0  0  0  0  0  0
    3.1920   -2.6240   -0.0730 O   0  0  0  0  0  0  0  0  0  0  0  0
    2.9480    1.7980    1.4330 P   0  0  0  0  0  0  0  0  0  0  0  0
    1.9390    2.8750    1.8570 O   0  0  0  0  0  0  0  0  0  0  0  0
    0.8920    0.2370    0.4570 C   0  0  0  0  0  0  0  0  0  0  0  0
    0.3270    0.1940   -0.7470 C   0  0  0  0  0  0  0  0  0  0  0  0
   -1.1360    0.2360   -0.8950 N   0  0  0  0  0  0  0  0  0  0  0  0
   -1.6480   -0.5290   -1.9700 C   0  0  0  0  0  0  0  0  0  0  0  0
   -2.2820   -1.8350   -1.7140 C   0  0  1  0  0  0  0  0  0  0  0  0
   -1.3830   -2.7880   -1.0570 N   0  0  0  0  0  0  0  0  0  0  0  0
   -3.6280   -1.8670   -1.0670 C   0  0  0  0  0  0  0  0  0  0  0  0
   -4.2200   -3.1350   -1.1650 O   0  0  0  0  0  0  0  0  0  0  0  0
   -1.7670    1.0130    0.1090 C   0  0  1  0  0  0  0  0  0  0  0  0
   -1.1280    2.4310    0.0890 C   0  0  0  0  0  0  0  0  0  0  0  0
   -3.2200    1.2620    0.0340 C   0  0  0  0  0  0  0  0  0  0  0  0
   -3.6160    1.8890   -1.1530 O   0  0  0  0  0  0  0  0  0  0  0  0
   -5.3230    2.1560   -1.1870 P   0  0  0  0  0  0  0  0  0  0  0  0
   -5.6010    3.8820   -1.1410 O   0  0  0  0  0  0  0  0  0  0  0  0
   -6.0290    1.4080    0.2320 O   0  0  0  0  0  0  0  0  0  0  0  0
   -1.3990    0.3590    1.4420 C   0  0  0  0  0  0  0  0  0  0  0  0
    0.0700    0.3060    1.6720 C   0  0  0  0  0  0  0  0  0  0  0  0
  1  2  1  0
  2  3  2  3
  3  4  1  0
  5  4  1  6
  5  6  1  0
  5  9  1  0
  5 11  1  0
  6  7  1  0
  7  8  1  0
  9 10  2  0
 11 12  2  0
 11 27  1  0
 12 13  1  0
 13 14  1  0
 13 19  1  0
 14 15  1  0
 15 16  1  1
 15 17  1  0
 17 18  1  0
 19 20  1  1
 19 21  1  0
 19 26  1  0
 21 22  1  0
 22 23  1  0
 23 24  1  0
 23 25  1  0
 26 27  1  0
M  END
