
     RDKit          3D

 27 27  0  0  0  0  0  0  0  0999 V2000
   -8.2290    1.0100    0.1900 O   0  0  0  0  0  0  0  0  0  0  0  0
   -7.7180    0.0720    0.8440 C   0  0  0  0  0  0  0  0  0  0  0  0
   -8.4940   -0.6740    1.6970 O   0  0  0  0  0  0  0  0  0  0  0  0
   -6.2350   -0.2280    0.6780 C   0  0  0  0  0  0  0  0  0  0  0  0
   -5.9160   -0.4270   -0.7470 C   0  0  0  0  0  0  0  0  0  0  0  0
   -4.5590   -0.6690   -1.2170 C   0  0  0  0  0  0  0  0  0  0  0  0
   -3.8540   -1.8760   -0.7370 C   0  0  0  0  0  0  0  0  0  0  0  0
   -3.5330   -1.9830    0.7110 C   0  0  0  0  0  0  0  0  0  0  0  0
   -2.7520   -0.8240    1.1110 N   0  0  0  0  0  0  0  0  0  0  0  0
   -1.5040   -0.5530    0.5370 C   0  0  0  0  0  0  0  0  0  0  0  0
   -1.0140   -1.3120   -0.3450 O   0  0  0  0  0  0  0  0  0  0  0  0
   -0.7120    0.6640    0.9650 C   0  0  0  0  0  0  0  0  0  0  0  0
    0.5150    0.7170    0.1060 C   0  0  0  0  0  0  0  0  0  0  0  0
    1.3930    1.8980    0.4470 C   0  0  0  0  0  0  0  0  0  0  0  0
    2.7700    1.9070   -0.5940 P   0  0  0  0  0  0  0  0  0  0  0  0
    3.7220    3.2430   -0.7440 O   0  0  0  0  0  0  0  0  0  0  0  0
    2.9990    0.6310   -1.6800 O   0  0  0  0  0  0  0  0  0  0  0  0
    3.8240    1.2450    0.3190 O   0  0  0  0  0  0  0  0  0  0  0  0
    5.0450    0.6520    0.1550 C   0  0  0  0  0  0  0  0  0  0  0  0
    5.2420   -0.5720    0.7390 C   0  0  0  0  0  0  0  0  0  0  0  0
    6.4650   -1.1970    0.5860 C   0  0  0  0  0  0  0  0  0  0  0  0
    7.4540   -0.5770   -0.1450 C   0  0  0  0  0  0  0  0  0  0  0  0
    8.7270   -1.1820   -0.3290 N   0  0  0  0  0  0  0  0  0  0  0  0
    9.6210   -0.6250   -0.9940 O   0  0  0  0  0  0  0  0  0  0  0  0
    8.9500   -2.4100    0.2440 O   0  0  0  0  0  0  0  0  0  0  0  0
    7.2260    0.6740   -0.7310 C   0  0  0  0  0  0  0  0  0  0  0  0
    6.0110    1.3030   -0.5860 C   0  0  0  0  0  0  0  0  0  0  0  0
  1  2  2  0
  2  3  1  0
  2  4  1  0
  4  5  1  0
  5  6  1  0
  6  7  1  0
  7  8  1  0
  8  9  1  0
  9 10  1  0
 10 11  2  0
 10 12  1  0
 12 13  1  0
 13 14  1  0
 14 15  1  0
 15 16  1  0
 15 17  1  0
 15 18  1  0
 18 19  1  0
 19 20  2  0
 19 27  1  0
 20 21  1  0
 21 22  2  0
 22 23  1  0
 22 26  1  0
 23 24  2  0
 23 25  1  0
 26 27  2  0
M  CHG  2  23   1  25  -1
M  END
