
     RDKit          3D

 27 28  0  0  0  0  0  0  0  0999 V2000
   -1.9000   -3.7380    2.4440 C   0  0  0  0  0  0  0  0  0  0  0  0
   -1.1030   -4.2940    1.2400 C   0  0  0  0  0  0  0  0  0  0  0  0
   -0.5490   -3.0020    0.6730 C   0  0  0  0  0  0  0  0  0  0  0  0
    1.0880   -2.6610    0.3830 P   0  0  0  0  0  0  0  0  0  0  0  0
    1.1320   -0.9550   -0.3510 C   0  0  1  0  0  0  0  0  0  0  0  0
    2.3350   -0.2800    0.1760 C   0  0  0  0  0  0  0  0  0  0  0  0
    3.6890   -0.7020   -0.3560 C   0  0  0  0  0  0  0  0  0  0  0  0
    4.2210    0.5720   -0.5530 O   0  0  0  0  0  0  0  0  0  0  0  0
    5.4060    0.8880   -0.8790 C   0  0  0  0  0  0  0  0  0  0  0  0
    6.3480    0.6410    0.3600 C   0  0  0  0  0  0  0  0  0  0  0  0
    7.5580    1.0740   -0.2760 O   0  0  0  0  0  0  0  0  0  0  0  0
    8.1180    2.0180    0.6060 O   0  0  0  0  0  0  0  0  0  0  0  0
    8.4100    3.0120   -0.4560 C   0  0  0  0  0  0  0  0  0  0  0  0
    1.3080   -0.9300   -2.2410 P   0  0  0  0  0  0  0  0  0  0  0  0
    2.1060    0.6310   -2.5440 O   0  0  0  0  0  0  0  0  0  0  0  0
   -0.1840   -0.8380   -3.0460 O   0  0  0  0  0  0  0  0  0  0  0  0
    0.0840   -0.0390   -0.0330 N   0  0  0  0  0  0  0  0  0  0  0  0
   -1.1260   -0.5560    0.3350 C   0  0  1  0  0  0  0  0  0  0  0  0
   -2.1370    0.2730   -0.3620 N   0  0  0  0  0  0  0  0  0  0  0  0
   -3.3730    0.2580    0.3560 C   0  0  0  0  0  0  0  0  0  0  0  0
   -4.4200    0.8140   -0.5830 C   0  0  1  0  0  0  0  0  0  0  0  0
   -4.4650    0.0130   -1.7460 O   0  0  0  0  0  0  0  0  0  0  0  0
   -5.7820    0.5970    0.0870 C   0  0  0  0  0  0  0  0  0  0  0  0
   -6.3230    1.9600    0.3780 C   0  0  0  0  0  0  0  0  0  0  0  0
   -5.6520    2.8960   -0.6050 C   0  0  0  0  0  0  0  0  0  0  0  0
   -4.3210    2.2410   -0.9280 C   0  0  0  0  0  0  0  0  0  0  0  0
   -1.4460   -1.9550    0.1420 C   0  0  0  0  0  0  0  0  0  0  0  0
  1  2  1  0
  2  3  1  0
  3  4  2  0
  3 27  1  0
  4  5  1  0
  5  6  1  1
  5 14  1  0
  5 17  1  0
  6  7  1  0
  7  8  1  0
  8  9  1  0
  9 10  1  0
 10 11  1  0
 11 12  1  0
 12 13  1  0
 14 15  1  0
 14 16  1  0
 17 18  1  0
 18 19  1  6
 18 27  1  0
 19 20  1  0
 20 21  1  0
 21 22  1  6
 21 23  1  0
 21 26  1  0
 23 24  1  0
 24 25  1  0
 25 26  1  0
M  END
