
     RDKit          3D

 27 27  0  0  0  0  0  0  0  0999 V2000
    4.5740    3.7380   -5.1100 C   0  0  0  0  0  0  0  0  0  0  0  0
    4.5990    2.2300   -5.2400 C   0  0  0  0  0  0  0  0  0  0  0  0
    3.7340    1.5400   -4.6700 C   0  0  0  0  0  0  0  0  0  0  0  0
    2.6200    1.5590   -3.8680 C   0  0  0  0  0  0  0  0  0  0  0  0
    2.1250    2.6600   -3.4460 O   0  0  0  0  0  0  0  0  0  0  0  0
    1.8900    0.3380   -3.4250 C   0  0  0  0  0  0  0  0  0  0  0  0
    1.7980    0.2210   -1.5800 P   0  0  0  0  0  0  0  0  0  0  0  0
    3.2330   -0.5710   -0.9660 O   0  0  0  0  0  0  0  0  0  0  0  0
    0.3180   -0.8630   -1.1290 C   0  0  2  0  0  0  0  0  0  0  0  0
   -0.4680   -1.0330   -2.2870 N   0  0  0  0  0  0  0  0  0  0  0  0
   -0.2990   -0.2890    0.0930 C   0  0  0  0  0  0  0  0  0  0  0  0
   -1.4960   -1.0690    0.6240 C   0  0  1  0  0  0  0  0  0  0  0  0
   -2.6360   -1.1630   -0.2440 C   0  0  0  0  0  0  0  0  0  0  0  0
   -0.9690   -2.3400    1.1140 O   0  0  0  0  0  0  0  0  0  0  0  0
    0.0220   -1.8980    1.9980 N   0  0  0  0  0  0  0  0  0  0  0  0
   -0.3990   -0.7740    2.5940 C   0  0  0  0  0  0  0  0  0  0  0  0
    0.4640   -0.1010    3.5760 C   0  0  0  0  0  0  0  0  0  0  0  0
    0.2850    0.9270    4.2890 C   0  0  0  0  0  0  0  0  0  0  0  0
   -0.7040    1.9170    4.5390 C   0  0  0  0  0  0  0  0  0  0  0  0
   -0.5050    2.8760    5.3700 O   0  0  0  0  0  0  0  0  0  0  0  0
   -1.7470   -0.5230    2.0540 C   0  0  1  0  0  0  0  0  0  0  0  0
   -2.1500    0.7740    1.9580 O   0  0  0  0  0  0  0  0  0  0  0  0
   -2.6550   -1.4340    2.8350 C   0  0  1  0  0  0  0  0  0  0  0  0
   -2.8580   -0.8130    4.2040 C   0  0  0  0  0  0  0  0  0  0  0  0
   -4.0110   -1.6680    2.2860 C   0  0  0  0  0  0  0  0  0  0  0  0
    0.9940   -2.5920   -0.7360 P   0  0  0  0  0  0  0  0  0  0  0  0
    0.0250   -3.8060   -0.8680 O   0  0  0  0  0  0  0  0  0  0  0  0
  1  2  1  0
  2  3  2  3
  3  4  1  0
  4  5  2  0
  4  6  1  0
  6  7  1  0
  7  8  1  0
  7  9  1  0
  9 10  1  6
  9 11  1  0
  9 26  1  0
 11 12  1  0
 12 13  1  6
 12 14  1  0
 12 21  1  0
 14 15  1  0
 15 16  2  0
 16 17  1  0
 16 21  1  0
 17 18  2  3
 18 19  1  0
 19 20  2  0
 21 22  1  6
 21 23  1  0
 23 24  1  1
 23 25  1  0
 26 27  2  0
M  END
