
     RDKit          3D

 27 27  0  0  0  0  0  0  0  0999 V2000
    5.1390   -2.2390   -0.5660 C   0  0  0  0  0  0  0  0  0  0  0  0
    4.8260   -1.4140   -1.8140 C   0  0  0  0  0  0  0  0  0  0  0  0
    4.0170   -0.1890   -1.3570 C   0  0  2  0  0  0  0  0  0  0  0  0
    4.8990    0.5520   -0.3920 C   0  0  0  0  0  0  0  0  0  0  0  0
    2.7940   -0.6440   -0.8530 N   0  0  0  0  0  0  0  0  0  0  0  0
    1.9440    0.2870   -0.2090 C   0  0  0  0  0  0  0  0  0  0  0  0
    0.6940   -0.4850    0.2480 C   0  0  0  0  0  0  0  0  0  0  0  0
   -0.2590    0.2930    0.9320 N   0  0  0  0  0  0  0  0  0  0  0  0
    0.1520    0.7520    2.2150 C   0  0  0  0  0  0  0  0  0  0  0  0
   -0.8380    1.4900    2.8820 O   0  0  0  0  0  0  0  0  0  0  0  0
   -0.5150    1.9770    4.1570 C   0  0  0  0  0  0  0  0  0  0  0  0
   -1.4720    2.7660    4.9560 C   0  0  0  0  0  0  0  0  0  0  0  0
    0.6210    1.7370    4.6400 O   0  0  0  0  0  0  0  0  0  0  0  0
   -1.1850    1.0790    0.2450 C   0  0  1  0  0  0  0  0  0  0  0  0
   -1.8470    1.9560    1.1270 O   0  0  0  0  0  0  0  0  0  0  0  0
   -0.4540    1.9600   -0.6120 O   0  0  0  0  0  0  0  0  0  0  0  0
   -2.1960    0.4260   -0.6300 C   0  0  1  0  0  0  0  0  0  0  0  0
   -1.6600   -0.3440   -1.7390 C   0  0  0  0  0  0  0  0  0  0  0  0
   -0.8920    0.0760   -2.6120 O   0  0  0  0  0  0  0  0  0  0  0  0
   -2.1660   -1.7270   -1.6880 C   0  0  0  0  0  0  0  0  0  0  0  0
   -2.8220   -1.8760   -0.3560 C   0  0  0  0  0  0  0  0  0  0  0  0
   -3.1310   -0.4910    0.1310 C   0  0  2  0  0  0  0  0  0  0  0  0
   -4.9130   -0.1260   -0.2360 P   0  0  0  0  0  0  0  0  0  0  0  0
   -5.2640   -0.0450   -2.0470 C   0  0  0  0  0  0  0  0  0  0  0  0
   -5.9660   -1.4450    0.5300 C   0  0  0  0  0  0  0  0  0  0  0  0
    3.8620    0.8830   -2.8820 P   0  0  0  0  0  0  0  0  0  0  0  0
    5.4340    1.2350   -3.4870 O   0  0  0  0  0  0  0  0  0  0  0  0
  1  2  1  0
  2  3  1  0
  3  4  1  1
  3  5  1  0
  3 26  1  0
  5  6  1  0
  6  7  1  0
  7  8  1  0
  8  9  1  0
  8 14  1  0
  9 10  1  0
 10 11  1  0
 11 12  1  0
 11 13  2  0
 14 15  1  1
 14 16  1  0
 14 17  1  0
 17 18  1  6
 17 22  1  0
 18 19  2  0
 18 20  1  0
 20 21  1  0
 21 22  1  0
 22 23  1  6
 23 24  1  0
 23 25  1  0
 26 27  1  0
M  END
