
     RDKit          3D

 21 22  0  0  0  0  0  0  0  0999 V2000
    1.0210   -2.5230    0.1590 O   0  0  0  0  0  0  0  0  0  0  0  0
    0.7330   -1.3330    0.0510 C   0  0  0  0  0  0  0  0  0  0  0  0
    1.7420   -0.4640   -0.4190 O   0  0  0  0  0  0  0  0  0  0  0  0
    2.9170   -1.0020   -0.8890 C   0  0  0  0  0  0  0  0  0  0  0  0
    3.8750   -1.7890   -0.1260 C   0  0  0  0  0  0  0  0  0  0  0  0
    4.4890   -1.0350    0.8960 O   0  0  0  0  0  0  0  0  0  0  0  0
    5.2990    0.0430    0.4100 C   0  0  0  0  0  0  0  0  0  0  0  0
    6.0720   -0.2190   -0.6130 N   0  0  0  0  0  0  0  0  0  0  0  0
    6.9040    1.3010   -1.0020 S   0  0  0  0  0  0  0  0  0  0  0  0
    5.8360    2.3050    0.0700 C   0  0  0  0  0  0  0  0  0  0  0  0
    5.3390    1.2930    0.9100 O   0  0  0  0  0  0  0  0  0  0  0  0
   -0.5820   -0.7720    0.3240 C   0  0  0  0  0  0  0  0  0  0  0  0
   -1.5870   -1.6780   -0.1020 C   0  0  0  0  0  0  0  0  0  0  0  0
   -2.8670   -1.1730   -0.2130 C   0  0  0  0  0  0  0  0  0  0  0  0
   -3.1380    0.1570    0.1040 C   0  0  0  0  0  0  0  0  0  0  0  0
   -4.3630    0.7750   -0.3820 C   0  0  0  0  0  0  0  0  0  0  0  0
   -5.6640    0.0590   -0.1680 C   0  0  0  0  0  0  0  0  0  0  0  0
   -6.5010    1.0570   -0.7610 O   0  0  0  0  0  0  0  0  0  0  0  0
   -7.4940    1.3410    0.1150 O   0  0  0  0  0  0  0  0  0  0  0  0
   -2.1450    0.9990    0.5450 C   0  0  0  0  0  0  0  0  0  0  0  0
   -0.8340    0.4850    0.6400 C   0  0  0  0  0  0  0  0  0  0  0  0
  1  2  2  0
  2  3  1  0
  2 12  1  0
  3  4  1  0
  4  5  1  0
  5  6  1  0
  6  7  1  0
  7  8  2  0
  7 11  1  0
  8  9  1  0
  9 10  1  0
 10 11  1  0
 12 13  2  0
 12 21  1  0
 13 14  1  0
 14 15  2  0
 15 16  1  0
 15 20  1  0
 16 17  1  0
 17 18  1  0
 18 19  1  0
 20 21  2  0
M  END
