
     RDKit          3D

 40 42  0  0  0  0  0  0  0  0999 V2000
    1.1350   -0.0700    1.8670 C   0  0  0  0  0  0  0  0  0  0  0  0
    1.5100    0.1670    0.4090 C   0  0  0  0  0  0  0  0  0  0  0  0
    2.8400    0.4760    0.1500 C   0  0  0  0  0  0  0  0  0  0  0  0
    3.9970    0.6210    1.0630 C   0  0  2  0  0  0  0  0  0  0  0  0
    5.2050    0.9170    0.2140 C   0  0  0  0  0  0  0  0  0  0  0  0
    6.4690    0.6000    0.8870 C   0  0  0  0  0  0  0  0  0  0  0  0
    7.6390    0.8160    0.2180 C   0  0  0  0  0  0  0  0  0  0  0  0
    8.8370    0.5380    0.8010 C   0  0  0  0  0  0  0  0  0  0  0  0
    8.8460    0.0270    2.0990 C   0  0  0  0  0  0  0  0  0  0  0  0
    7.6590   -0.1880    2.7680 C   0  0  0  0  0  0  0  0  0  0  0  0
    7.6450   -0.6890    4.0410 F   0  0  0  0  0  0  0  0  0  0  0  0
    6.4650    0.1000    2.1580 C   0  0  0  0  0  0  0  0  0  0  0  0
    5.1480   -0.1120    2.8330 C   0  0  0  0  0  0  0  0  0  0  0  0
    4.2420   -0.5100    1.8220 O   0  0  0  0  0  0  0  0  0  0  0  0
    2.8770    0.6770   -1.6100 S   0  0  0  0  0  0  0  0  0  0  0  0
    1.0900    0.3250   -1.8380 C   0  0  0  0  0  0  0  0  0  0  0  0
    0.5280    0.3290   -2.9630 O   0  0  0  0  0  0  0  0  0  0  0  0
    0.6800    0.1010   -0.5860 N   0  0  0  0  0  0  0  0  0  0  0  0
   -0.7320   -0.2220   -0.3870 C   0  0  0  0  0  0  0  0  0  0  0  0
   -1.1930   -0.4460    0.7480 O   0  0  0  0  0  0  0  0  0  0  0  0
   -1.6080   -0.2810   -1.5400 C   0  0  0  0  0  0  0  0  0  0  0  0
   -2.9880   -0.6200   -1.1680 N   0  0  0  0  0  0  0  0  0  0  0  0
   -3.8050    0.4820   -0.8760 C   0  0  0  0  0  0  0  0  0  0  0  0
   -5.0260    0.3480   -0.6670 O   0  0  0  0  0  0  0  0  0  0  0  0
   -3.2530    1.8470   -0.8030 C   0  0  0  0  0  0  0  0  0  0  0  0
   -4.2700    2.8910   -0.4480 C   0  0  0  0  0  0  0  0  0  0  0  0
   -5.3850    3.0310   -1.4250 C   0  0  0  0  0  0  0  0  0  0  0  0
   -4.8710    3.3880   -2.7520 N   0  0  0  0  0  0  0  0  0  0  0  0
   -3.4760   -1.9180   -1.3340 C   0  0  0  0  0  0  0  0  0  0  0  0
   -2.7510   -2.5780   -2.2330 O   0  0  0  0  0  0  0  0  0  0  0  0
   -4.5350   -2.6610   -0.7870 C   0  0  0  0  0  0  0  0  0  0  0  0
   -4.9510   -3.7850   -1.4350 C   0  0  0  0  0  0  0  0  0  0  0  0
   -4.4260   -4.3260   -2.6530 C   0  0  2  0  0  0  0  0  0  0  0  0
   -3.2090   -4.9320   -2.4820 F   0  0  0  0  0  0  0  0  0  0  0  0
   -4.3930   -3.4690   -3.7390 F   0  0  0  0  0  0  0  0  0  0  0  0
   -5.2220   -2.5390    0.5080 C   0  0  0  0  0  0  0  0  0  0  0  0
   -6.2410   -3.5360    0.7100 F   0  0  0  0  0  0  0  0  0  0  0  0
   -5.1420   -1.7610    1.5020 C   0  0  0  0  0  0  0  0  0  0  0  0
   -5.9990   -1.9370    2.6110 F   0  0  0  0  0  0  0  0  0  0  0  0
   -4.2480   -0.8010    1.7240 F   0  0  0  0  0  0  0  0  0  0  0  0
  1  2  1  0
  2  3  2  0
  2 18  1  0
  4  3  1  6
  3 15  1  0
  4  5  1  0
  4 14  1  0
  5  6  1  0
  6  7  2  0
  6 12  1  0
  7  8  1  0
  8  9  2  0
  9 10  1  0
 10 11  1  0
 10 12  2  0
 12 13  1  0
 13 14  1  0
 15 16  1  0
 16 17  2  0
 16 18  1  0
 18 19  1  0
 19 20  2  0
 19 21  1  0
 21 22  1  0
 22 23  1  0
 22 29  1  0
 23 24  2  0
 23 25  1  0
 25 26  1  0
 26 27  1  0
 27 28  1  0
 29 30  2  0
 29 31  1  0
 31 32  2  3
 31 36  1  0
 32 33  1  0
 33 34  1  1
 33 35  1  0
 36 37  1  0
 36 38  2  3
 38 39  1  0
 38 40  1  0
M  END
