
     RDKit          3D

 40 42  0  0  0  0  0  0  0  0999 V2000
    1.6080   -3.1370    1.7050 C   0  0  0  0  0  0  0  0  0  0  0  0
    2.2950   -2.5960    0.7020 C   0  0  0  0  0  0  0  0  0  0  0  0
    3.3990   -1.7080    0.9720 C   0  0  0  0  0  0  0  0  0  0  0  0
    3.6280   -0.4700    0.6080 C   0  0  0  0  0  0  0  0  0  0  0  0
    4.8830    0.1960    1.0490 C   0  0  0  0  0  0  0  0  0  0  0  0
    5.4210   -0.1070    2.2190 C   0  0  0  0  0  0  0  0  0  0  0  0
    6.6930    0.5760    2.6510 C   0  0  0  0  0  0  0  0  0  0  0  0
    5.5100    1.1520    0.2320 O   0  0  0  0  0  0  0  0  0  0  0  0
    4.9030    1.3660   -1.0210 C   0  0  2  0  0  0  0  0  0  0  0  0
    5.4400    2.6650   -1.5840 C   0  0  0  0  0  0  0  0  0  0  0  0
    3.4110    1.5320   -0.8760 C   0  0  0  0  0  0  0  0  0  0  0  0
    2.7350    0.3760   -0.2110 C   0  0  2  0  0  0  0  0  0  0  0  0
    1.5540    0.8750    0.6100 C   0  0  0  0  0  0  0  0  0  0  0  0
    0.4510    1.3390   -0.2650 C   0  0  0  0  0  0  0  0  0  0  0  0
    0.7820    1.9090   -1.3630 O   0  0  0  0  0  0  0  0  0  0  0  0
   -0.9210    1.2220   -0.0220 N   0  0  0  0  0  0  0  0  0  0  0  0
   -1.7890    2.3770   -0.3000 C   0  0  0  0  0  0  0  0  0  0  0  0
   -1.9200    3.2780    0.9110 C   0  0  0  0  0  0  0  0  0  0  0  0
   -2.8160    4.3920    0.4990 C   0  0  0  0  0  0  0  0  0  0  0  0
   -4.1860    4.3370    0.6560 C   0  0  0  0  0  0  0  0  0  0  0  0
   -4.9500    5.4110    0.2450 C   0  0  0  0  0  0  0  0  0  0  0  0
   -4.4300    6.5190   -0.3050 N   0  0  0  0  0  0  0  0  0  0  0  0
   -3.0790    6.6000   -0.4720 C   0  0  0  0  0  0  0  0  0  0  0  0
   -2.3040    5.5380   -0.0680 C   0  0  0  0  0  0  0  0  0  0  0  0
   -1.5930    0.0200    0.4920 C   0  0  0  0  0  0  0  0  0  0  0  0
   -1.8510   -0.9810   -0.5810 C   0  0  2  0  0  0  0  0  0  0  0  0
   -3.1670   -0.8270   -1.3040 C   0  0  0  0  0  0  0  0  0  0  0  0
   -3.2510   -1.9020   -2.3280 C   0  0  0  0  0  0  0  0  0  0  0  0
   -2.6820   -1.7390   -3.4370 O   0  0  0  0  0  0  0  0  0  0  0  0
   -3.9290   -3.0860   -2.1290 O   0  0  0  0  0  0  0  0  0  0  0  0
   -3.9650   -4.0660   -3.1580 C   0  0  0  0  0  0  0  0  0  0  0  0
   -1.6700   -2.3430   -0.1760 N   0  0  0  0  0  0  0  0  0  0  0  0
   -2.3320   -2.9140    0.9160 C   0  0  0  0  0  0  0  0  0  0  0  0
   -2.1120   -4.1520    1.1560 O   0  0  0  0  0  0  0  0  0  0  0  0
   -3.2640   -2.2480    1.8360 C   0  0  0  0  0  0  0  0  0  0  0  0
   -3.7460   -3.1930    2.8490 N   0  0  0  0  0  0  0  0  0  0  0  0
   -0.7120   -3.2100   -0.9080 C   0  0  0  0  0  0  0  0  0  0  0  0
    0.5250   -2.4020   -1.0580 C   0  0  2  0  0  0  0  0  0  0  0  0
    0.6150   -2.0150   -2.3950 O   0  0  0  0  0  0  0  0  0  0  0  0
    1.8170   -3.0230   -0.6580 C   0  0  0  0  0  0  0  0  0  0  0  0
  1  2  2  0
  2  3  1  0
  2 40  1  0
  3  4  2  0
  4  5  1  0
  4 12  1  0
  5  6  2  3
  5  8  1  0
  6  7  1  0
  8  9  1  0
  9 10  1  1
  9 11  1  0
 12 11  1  1
 12 13  1  0
 13 14  1  0
 14 15  2  0
 14 16  1  0
 16 17  1  0
 16 25  1  0
 17 18  1  0
 18 19  1  0
 19 20  2  0
 19 24  1  0
 20 21  1  0
 21 22  2  0
 22 23  1  0
 23 24  2  0
 25 26  1  0
 26 27  1  1
 26 32  1  0
 27 28  1  0
 28 29  2  0
 28 30  1  0
 30 31  1  0
 32 33  1  0
 32 37  1  0
 33 34  2  0
 33 35  1  0
 35 36  1  0
 37 38  1  0
 38 39  1  6
 38 40  1  0
M  CHG  1  36   1
M  END
