
     RDKit          3D

 40 42  0  0  0  0  0  0  0  0999 V2000
    1.5350    1.8070    1.7580 C   0  0  0  0  0  0  0  0  0  0  0  0
    0.9070    1.6650    0.4110 C   0  0  0  0  0  0  0  0  0  0  0  0
   -0.4140    2.0340    0.2100 C   0  0  0  0  0  0  0  0  0  0  0  0
   -1.0850    1.9490   -0.9810 C   0  0  0  0  0  0  0  0  0  0  0  0
   -2.4760    2.3430   -1.1730 C   0  0  0  0  0  0  0  0  0  0  0  0
   -2.9730    2.3830   -2.3210 O   0  0  0  0  0  0  0  0  0  0  0  0
   -3.3590    2.7060   -0.0420 C   0  0  0  0  0  0  0  0  0  0  0  0
   -4.0870    1.5210    0.4310 N   0  0  0  0  0  0  0  0  0  0  0  0
   -3.7570    0.6340    1.3480 C   0  0  0  0  0  0  0  0  0  0  0  0
   -2.7300    0.6180    2.0400 O   0  0  0  0  0  0  0  0  0  0  0  0
   -4.7670   -0.2820    1.4040 N   0  0  0  0  0  0  0  0  0  0  0  0
   -5.7120    0.0180    0.5470 N   0  0  0  0  0  0  0  0  0  0  0  0
   -6.9810   -0.5750    0.3060 C   0  0  0  0  0  0  0  0  0  0  0  0
   -7.7730   -1.2750    1.2800 C   0  0  0  0  0  0  0  0  0  0  0  0
   -7.6070   -1.5320    2.5290 C   0  0  0  0  0  0  0  0  0  0  0  0
   -8.5980   -2.2600    3.1830 F   0  0  0  0  0  0  0  0  0  0  0  0
   -6.6120   -1.1270    3.2890 F   0  0  0  0  0  0  0  0  0  0  0  0
   -7.5120   -0.4490   -0.9430 C   0  0  0  0  0  0  0  0  0  0  0  0
   -8.8040   -1.0100   -1.3190 C   0  0  1  0  0  0  0  0  0  0  0  0
   -8.8560   -2.3980   -1.1990 F   0  0  0  0  0  0  0  0  0  0  0  0
   -9.8000   -0.4270   -0.5760 F   0  0  0  0  0  0  0  0  0  0  0  0
   -9.0600   -0.6530   -2.6460 F   0  0  0  0  0  0  0  0  0  0  0  0
   -5.2810    1.1540   -0.0630 C   0  0  0  0  0  0  0  0  0  0  0  0
   -5.9110    1.7690   -0.9580 O   0  0  0  0  0  0  0  0  0  0  0  0
   -0.3440    1.4460   -2.0620 C   0  0  0  0  0  0  0  0  0  0  0  0
   -0.9560    1.3440   -3.2540 F   0  0  0  0  0  0  0  0  0  0  0  0
    0.9740    1.0710   -1.8900 C   0  0  0  0  0  0  0  0  0  0  0  0
    1.6810    0.5470   -3.0900 C   0  0  0  0  0  0  0  0  0  0  0  0
    1.6050    1.1750   -0.6690 C   0  0  0  0  0  0  0  0  0  0  0  0
    2.9170    0.7780   -0.5800 O   0  0  0  0  0  0  0  0  0  0  0  0
    3.3240   -0.5320   -0.2460 C   0  0  1  0  0  0  0  0  0  0  0  0
    4.0370   -1.2680   -1.3250 C   0  0  0  0  0  0  0  0  0  0  0  0
    4.6320   -2.5320   -0.6990 C   0  0  0  0  0  0  0  0  0  0  0  0
    5.8800   -2.1030    0.1010 C   0  0  0  0  0  0  0  0  0  0  0  0
    5.6010   -0.7190    0.6310 C   0  0  2  0  0  0  0  0  0  0  0  0
    6.6930   -0.3040    1.9850 S   0  0  0  0  0  0  0  0  0  0  0  0
    8.3820   -0.1630    1.4090 C   0  0  0  0  0  0  0  0  0  0  0  0
    8.9760   -1.4550    0.9940 C   0  0  0  0  0  0  0  0  0  0  0  0
   10.0940   -1.5420    0.5400 O   0  0  0  0  0  0  0  0  0  0  0  0
    4.1340   -0.5920    1.0240 C   0  0  0  0  0  0  0  0  0  0  0  0
  1  2  1  0
  2  3  2  0
  2 29  1  0
  3  4  1  0
  4  5  1  0
  4 25  2  0
  5  6  2  0
  5  7  1  0
  7  8  1  0
  8  9  1  0
  8 23  1  0
  9 10  2  0
  9 11  1  0
 11 12  1  0
 12 13  1  0
 12 23  1  0
 13 14  1  0
 13 18  2  3
 14 15  2  3
 15 16  1  0
 15 17  1  0
 18 19  1  0
 19 20  1  6
 19 21  1  0
 19 22  1  0
 23 24  2  0
 25 26  1  0
 25 27  1  0
 27 28  1  0
 27 29  2  0
 29 30  1  0
 31 30  1  6
 31 32  1  0
 31 40  1  0
 32 33  1  0
 33 34  1  0
 34 35  1  0
 35 36  1  1
 35 40  1  0
 36 37  1  0
 37 38  1  0
 38 39  2  0
M  END
