
     RDKit          3D

 40 42  0  0  0  0  0  0  0  0999 V2000
   -6.5400    2.9000    1.3240 C   0  0  0  0  0  0  0  0  0  0  0  0
   -7.4640    1.7860    0.9130 C   0  0  0  0  0  0  0  0  0  0  0  0
   -6.9590    0.6410    0.5770 C   0  0  0  0  0  0  0  0  0  0  0  0
   -5.5380    0.3790    0.5780 C   0  0  0  0  0  0  0  0  0  0  0  0
   -4.6940    1.2420    0.9020 O   0  0  0  0  0  0  0  0  0  0  0  0
   -5.0070   -0.8600    0.2160 O   0  0  0  0  0  0  0  0  0  0  0  0
   -3.6390   -1.1180    0.2120 C   0  0  0  0  0  0  0  0  0  0  0  0
   -2.8270   -0.2660   -0.7140 C   0  0  0  0  0  0  0  0  0  0  0  0
   -1.3960   -0.6940   -0.5690 C   0  0  0  0  0  0  0  0  0  0  0  0
   -0.8500   -1.6290    0.2100 N   0  0  0  0  0  0  0  0  0  0  0  0
    0.4810   -1.6920    0.0290 C   0  0  0  0  0  0  0  0  0  0  0  0
    1.4250   -2.6080    0.7180 C   0  0  0  0  0  0  0  0  0  0  0  0
    0.7990   -0.7430   -0.9190 C   0  0  0  0  0  0  0  0  0  0  0  0
    2.1440   -0.4180   -1.4650 C   0  0  0  0  0  0  0  0  0  0  0  0
    2.8850    0.3920   -0.4370 C   0  0  0  0  0  0  0  0  0  0  0  0
    4.5390    0.8550   -0.9830 S   0  0  0  0  0  0  0  0  0  0  0  0
    5.6290   -0.5790   -1.1570 C   0  0  2  0  0  0  0  0  0  0  0  0
    5.8910   -1.1850    0.1800 C   0  0  0  0  0  0  0  0  0  0  0  0
    6.8900   -0.1910   -1.8060 C   0  0  0  0  0  0  0  0  0  0  0  0
    7.2150   -0.8210   -2.8910 O   0  0  0  0  0  0  0  0  0  0  0  0
    7.8010    0.7960   -1.3930 N   0  0  0  0  0  0  0  0  0  0  0  0
    8.9860    1.0150   -2.2610 C   0  0  0  0  0  0  0  0  0  0  0  0
    7.7150    1.5970   -0.2060 C   0  0  0  0  0  0  0  0  0  0  0  0
    8.4320    1.0720    0.9870 C   0  0  0  0  0  0  0  0  0  0  0  0
    9.8030    0.9400    0.7340 O   0  0  0  0  0  0  0  0  0  0  0  0
   10.4920    0.4580    1.8260 C   0  0  1  0  0  0  0  0  0  0  0  0
   10.0770   -0.7740    2.2460 F   0  0  0  0  0  0  0  0  0  0  0  0
   11.8420    0.4510    1.5130 F   0  0  0  0  0  0  0  0  0  0  0  0
   10.3580    1.3180    2.9220 F   0  0  0  0  0  0  0  0  0  0  0  0
   -0.3750   -0.1540   -1.2600 N   0  0  0  0  0  0  0  0  0  0  0  0
   -7.9220   -0.4320    0.1720 C   0  0  0  0  0  0  0  0  0  0  0  0
   -9.1880   -0.2410    0.1530 C   0  0  0  0  0  0  0  0  0  0  0  0
   -9.4720   -1.5950   -0.2990 C   0  0  0  0  0  0  0  0  0  0  0  0
   -8.0270   -1.8030   -0.2750 C   0  0  0  0  0  0  0  0  0  0  0  0
   -9.7890    1.0840    0.5380 C   0  0  1  0  0  0  0  0  0  0  0  0
  -10.7370    0.8830    1.7280 C   0  0  1  0  0  0  0  0  0  0  0  0
  -11.7080   -0.0050    1.2830 F   0  0  0  0  0  0  0  0  0  0  0  0
  -10.0800    0.2570    2.7650 F   0  0  0  0  0  0  0  0  0  0  0  0
  -11.2900    2.0620    2.1250 F   0  0  0  0  0  0  0  0  0  0  0  0
   -8.8410    2.0240    0.9070 O   0  0  0  0  0  0  0  0  0  0  0  0
  1  2  1  0
  2  3  2  0
  2 40  1  0
  3  4  1  0
  3 31  1  0
  4  5  2  0
  4  6  1  0
  6  7  1  0
  7  8  1  0
  8  9  1  0
  9 10  2  0
  9 30  1  0
 10 11  1  0
 11 12  1  0
 11 13  2  0
 13 14  1  0
 13 30  1  0
 14 15  1  0
 15 16  1  0
 16 17  1  0
 17 18  1  1
 17 19  1  0
 19 20  2  0
 19 21  1  0
 21 22  1  0
 21 23  1  0
 23 24  1  0
 24 25  1  0
 25 26  1  0
 26 27  1  1
 26 28  1  0
 26 29  1  0
 31 32  2  0
 31 34  1  0
 32 33  1  0
 32 35  1  0
 33 34  1  0
 35 36  1  0
 35 40  1  1
 36 37  1  6
 36 38  1  0
 36 39  1  0
M  END
