
     RDKit          3D

 40 43  0  0  0  0  0  0  0  0999 V2000
    8.6490   -1.5370   -0.9890 C   0  0  0  0  0  0  0  0  0  0  0  0
    7.2280   -1.5510   -0.5560 C   0  0  0  0  0  0  0  0  0  0  0  0
    6.2110   -1.1610   -1.4030 C   0  0  0  0  0  0  0  0  0  0  0  0
    4.8820   -1.1810   -0.9890 C   0  0  0  0  0  0  0  0  0  0  0  0
    4.5440   -1.5900    0.2780 C   0  0  0  0  0  0  0  0  0  0  0  0
    3.1640   -1.6210    0.6950 N   0  0  0  0  0  0  0  0  0  0  0  0
    2.4800   -0.3790    0.9250 C   0  0  0  0  0  0  0  0  0  0  0  0
    3.2450    0.8440    0.6380 C   0  0  0  0  0  0  0  0  0  0  0  0
    4.4820    0.8550    0.7570 O   0  0  0  0  0  0  0  0  0  0  0  0
    2.5930    2.0460    0.2190 N   0  0  0  0  0  0  0  0  0  0  0  0
    3.1420    3.2950   -0.2340 C   0  0  0  0  0  0  0  0  0  0  0  0
    1.9620    4.0670   -0.7890 C   0  0  0  0  0  0  0  0  0  0  0  0
    0.7250    3.4440   -0.1590 C   0  0  1  0  0  0  0  0  0  0  0  0
    0.3370    4.2030    1.0810 C   0  0  0  0  0  0  0  0  0  0  0  0
   -0.7790    3.6920    1.7200 O   0  0  0  0  0  0  0  0  0  0  0  0
   -0.3820    3.2990   -1.1680 C   0  0  0  0  0  0  0  0  0  0  0  0
   -1.6520    3.8700   -0.6730 C   0  0  0  0  0  0  0  0  0  0  0  0
   -2.6670    3.2310   -0.1620 C   0  0  0  0  0  0  0  0  0  0  0  0
   -2.7750    1.7540    0.0440 C   0  0  1  0  0  0  0  0  0  0  0  0
   -3.4480    1.6150    1.4190 C   0  0  0  0  0  0  0  0  0  0  0  0
   -3.6200    1.1480   -0.9370 N   0  0  0  0  0  0  0  0  0  0  0  0
   -3.2800   -0.1550   -1.3750 C   0  0  0  0  0  0  0  0  0  0  0  0
   -3.2300   -1.2480   -0.3880 C   0  0  1  0  0  0  0  0  0  0  0  0
   -4.5470   -1.7920    0.0790 C   0  0  2  0  0  0  0  0  0  0  0  0
   -5.2750   -2.5290   -0.9990 C   0  0  0  0  0  0  0  0  0  0  0  0
   -6.7260   -2.3610   -0.6050 C   0  0  0  0  0  0  0  0  0  0  0  0
   -6.6860   -1.4010    0.5440 C   0  0  0  0  0  0  0  0  0  0  0  0
   -5.3960   -0.9140    0.6720 O   0  0  0  0  0  0  0  0  0  0  0  0
   -2.5390   -2.3890   -0.9750 N   0  0  0  0  0  0  0  0  0  0  0  0
   -1.9410   -3.4220   -0.2100 C   0  0  0  0  0  0  0  0  0  0  0  0
   -1.9140   -4.6200   -0.5880 O   0  0  0  0  0  0  0  0  0  0  0  0
   -1.3080   -3.1060    1.1070 C   0  0  0  0  0  0  0  0  0  0  0  0
   -0.0470   -2.2720    0.7980 C   0  0  0  0  0  0  0  0  0  0  0  0
    1.1190   -3.1710    0.5990 C   0  0  0  0  0  0  0  0  0  0  0  0
    0.7840   -4.3250    0.1280 O   0  0  0  0  0  0  0  0  0  0  0  0
    2.4990   -2.8400    0.8870 C   0  0  0  0  0  0  0  0  0  0  0  0
    3.1850   -3.8050    1.3820 O   0  0  0  0  0  0  0  0  0  0  0  0
    1.1510    2.0690    0.2330 C   0  0  0  0  0  0  0  0  0  0  0  0
    5.5490   -1.9820    1.1370 C   0  0  0  0  0  0  0  0  0  0  0  0
    6.8430   -1.9550    0.7100 C   0  0  0  0  0  0  0  0  0  0  0  0
  1  2  1  0
  2  3  2  0
  2 40  1  0
  3  4  1  0
  4  5  2  0
  5  6  1  0
  5 39  1  0
  6  7  1  0
  6 36  1  0
  7  8  1  0
  8  9  2  0
  8 10  1  0
 10 11  1  0
 10 38  1  0
 11 12  1  0
 12 13  1  0
 13 14  1  1
 13 16  1  0
 13 38  1  0
 14 15  1  0
 16 17  1  0
 17 18  2  0
 18 19  1  0
 19 20  1  1
 19 21  1  0
 21 22  1  0
 23 22  1  6
 23 24  1  0
 23 29  1  0
 24 25  1  6
 24 28  1  0
 25 26  1  0
 26 27  1  0
 27 28  1  0
 29 30  1  0
 30 31  2  0
 30 32  1  0
 32 33  1  0
 33 34  1  0
 34 35  2  0
 34 36  1  0
 36 37  2  0
 39 40  2  0
M  CHG  1  21   1
M  END
