
     RDKit          3D

 19 20  0  0  0  0  0  0  0  0999 V2000
   -4.5780    1.1680   -0.2290 N   0  0  0  0  0  0  0  0  0  0  0  0
   -4.4910    0.8220    1.1410 C   0  0  0  0  0  0  0  0  0  0  0  0
   -5.3320    1.3010    1.9650 O   0  0  0  0  0  0  0  0  0  0  0  0
   -3.4630   -0.0830    1.7100 C   0  0  0  0  0  0  0  0  0  0  0  0
   -2.5790   -0.5460    0.6270 N   0  0  0  0  0  0  0  0  0  0  0  0
   -3.1490   -1.4170   -0.3330 C   0  0  0  0  0  0  0  0  0  0  0  0
   -2.4100   -1.8390   -1.2950 N   0  0  0  0  0  0  0  0  0  0  0  0
   -1.0550   -1.4530   -1.4040 C   0  0  0  0  0  0  0  0  0  0  0  0
   -0.4690   -0.6430   -0.5370 C   0  0  0  0  0  0  0  0  0  0  0  0
    0.9550   -0.2950   -0.7350 C   0  0  0  0  0  0  0  0  0  0  0  0
    1.7930   -0.7170   -1.7410 C   0  0  0  0  0  0  0  0  0  0  0  0
    3.0170   -0.1900   -1.5890 N   0  0  0  0  0  0  0  0  0  0  0  0
    2.9620    0.5690   -0.4860 C   0  0  0  0  0  0  0  0  0  0  0  0
    4.0760    1.2980    0.0060 N   0  0  0  0  0  0  0  0  0  0  0  0
    5.2220    0.5810    1.1850 P   0  0  0  0  0  0  0  0  0  0  0  0
    5.5420   -1.0790    0.8690 O   0  0  0  0  0  0  0  0  0  0  0  0
    6.7330    1.4310    1.1760 O   0  0  0  0  0  0  0  0  0  0  0  0
    1.7080    0.5080    0.0380 N   0  0  0  0  0  0  0  0  0  0  0  0
   -1.2170   -0.1060    0.5940 C   0  0  0  0  0  0  0  0  0  0  0  0
  1  2  1  0
  2  3  2  0
  2  4  1  0
  4  5  1  0
  5  6  1  0
  5 19  1  0
  6  7  2  0
  7  8  1  0
  8  9  2  0
  9 10  1  0
  9 19  1  0
 10 11  2  0
 10 18  1  0
 11 12  1  0
 12 13  2  0
 13 14  1  0
 13 18  1  0
 14 15  1  0
 15 16  1  0
 15 17  1  0
M  END
