
     RDKit          3D

 20 21  0  0  0  0  0  0  0  0999 V2000
    5.9350    3.2600   -0.2730 N   0  0  0  0  0  0  0  0  0  0  0  0
    5.4070    1.9990    0.1090 C   0  0  0  0  0  0  0  0  0  0  0  0
    6.0130    1.0050    0.7900 N   0  0  0  0  0  0  0  0  0  0  0  0
    5.1490   -0.0060    0.9370 N   0  0  0  0  0  0  0  0  0  0  0  0
    3.9840    0.3070    0.3650 C   0  0  0  0  0  0  0  0  0  0  0  0
    2.7580   -0.5180    0.2950 C   0  0  0  0  0  0  0  0  0  0  0  0
    2.5720   -1.7930    0.7390 C   0  0  0  0  0  0  0  0  0  0  0  0
    1.2460   -2.1220    0.4520 C   0  0  0  0  0  0  0  0  0  0  0  0
    0.7080   -1.0270   -0.1490 C   0  0  0  0  0  0  0  0  0  0  0  0
   -0.6820   -0.8400   -0.6520 C   0  0  0  0  0  0  0  0  0  0  0  0
   -1.5980   -1.9720   -0.2980 C   0  0  0  0  0  0  0  0  0  0  0  0
   -2.9250   -1.6570   -0.8310 N   0  0  0  0  0  0  0  0  0  0  0  0
   -3.6510   -0.5320   -0.4170 C   0  0  0  0  0  0  0  0  0  0  0  0
   -3.1500    0.2260    0.4610 O   0  0  0  0  0  0  0  0  0  0  0  0
   -4.9500   -0.1710   -0.9380 N   0  0  0  0  0  0  0  0  0  0  0  0
   -5.7100    1.3110   -0.3210 P   0  0  0  0  0  0  0  0  0  0  0  0
   -7.3420    1.1750    0.1250 O   0  0  0  0  0  0  0  0  0  0  0  0
   -5.2870    2.7350   -1.1640 O   0  0  0  0  0  0  0  0  0  0  0  0
    1.6560   -0.0960   -0.2220 O   0  0  0  0  0  0  0  0  0  0  0  0
    4.1500    1.5350   -0.1400 N   0  0  0  0  0  0  0  0  0  0  0  0
  1  2  1  0
  2  3  2  0
  2 20  1  0
  3  4  1  0
  4  5  1  0
  5  6  1  0
  5 20  2  0
  6  7  2  0
  6 19  1  0
  7  8  1  0
  8  9  2  0
  9 10  1  0
  9 19  1  0
 10 11  1  0
 11 12  1  0
 12 13  1  0
 13 14  2  0
 13 15  1  0
 15 16  1  0
 16 17  1  0
 16 18  1  0
M  END
