
     RDKit          3D

 19 20  0  0  0  0  0  0  0  0999 V2000
   -1.8800    0.0740    1.3990 N   0  0  0  0  0  0  0  0  0  0  0  0
   -1.5090   -0.2940    0.2370 C   0  0  0  0  0  0  0  0  0  0  0  0
   -2.3320   -1.2400   -0.5530 C   0  0  0  0  0  0  0  0  0  0  0  0
   -3.5810   -1.6470    0.2130 C   0  0  0  0  0  0  0  0  0  0  0  0
   -4.6410   -0.1840    0.6140 P   0  0  0  0  0  0  0  0  0  0  0  0
   -4.5100    0.2850    2.2760 O   0  0  0  0  0  0  0  0  0  0  0  0
   -4.3700    1.1380   -0.4660 O   0  0  0  0  0  0  0  0  0  0  0  0
   -0.3050    0.1800   -0.3450 N   0  0  0  0  0  0  0  0  0  0  0  0
   -0.3670    0.8580   -1.6100 C   0  0  0  0  0  0  0  0  0  0  0  0
    0.9120    0.6970   -2.3440 C   0  0  0  0  0  0  0  0  0  0  0  0
    0.9880    0.7540   -3.5990 O   0  0  0  0  0  0  0  0  0  0  0  0
    2.1060    0.4700   -1.6080 N   0  0  0  0  0  0  0  0  0  0  0  0
    2.1020    0.0960   -0.2370 C   0  0  0  0  0  0  0  0  0  0  0  0
    0.9050   -0.0350    0.3420 C   0  0  0  0  0  0  0  0  0  0  0  0
    1.5870   -0.3770    1.5380 N   0  0  0  0  0  0  0  0  0  0  0  0
    2.7680   -0.2630    1.0260 C   0  0  0  0  0  0  0  0  0  0  0  0
    4.1380   -0.3910    1.3820 N   0  0  0  0  0  0  0  0  0  0  0  0
    5.0610    0.3650    0.9170 C   0  0  0  0  0  0  0  0  0  0  0  0
    6.4020    0.1950    1.3030 N   0  0  0  0  0  0  0  0  0  0  0  0
  1  2  2  0
  2  3  1  0
  2  8  1  0
  3  4  1  0
  4  5  1  0
  5  6  1  0
  5  7  1  0
  8  9  1  0
  8 14  1  0
  9 10  1  0
 10 11  2  0
 10 12  1  0
 12 13  1  0
 13 14  2  0
 13 16  1  0
 14 15  1  0
 15 16  2  0
 16 17  1  0
 17 18  2  3
 18 19  1  0
M  END
