
     RDKit          3D

 20 21  0  0  0  0  0  0  0  0999 V2000
   -4.3450   -0.0030   -0.1510 C   0  0  0  0  0  0  0  0  0  0  0  0
   -2.8420    0.2570    0.0270 C   0  0  1  0  0  0  0  0  0  0  0  0
   -2.5990    0.4460    1.5310 C   0  0  0  0  0  0  0  0  0  0  0  0
   -3.3220    1.5660    1.9700 O   0  0  0  0  0  0  0  0  0  0  0  0
   -2.1260   -0.8760   -0.4670 N   0  0  0  0  0  0  0  0  0  0  0  0
   -0.7110   -0.8850   -0.4610 C   0  0  0  0  0  0  0  0  0  0  0  0
   -0.0070    0.1460   -0.0110 N   0  0  0  0  0  0  0  0  0  0  0  0
    1.3290    0.1470   -0.0050 C   0  0  0  0  0  0  0  0  0  0  0  0
    2.0320    1.3380    0.5150 C   0  0  1  0  0  0  0  0  0  0  0  0
    2.9090    1.0040    1.7070 C   0  0  0  0  0  0  0  0  0  0  0  0
    2.2050    0.4810    2.7640 O   0  0  0  0  0  0  0  0  0  0  0  0
    3.0850    2.1080   -0.8020 P   0  0  0  0  0  0  0  0  0  0  0  0
    4.2190    0.9940   -1.4610 O   0  0  0  0  0  0  0  0  0  0  0  0
    2.0400    2.7800   -2.0140 O   0  0  0  0  0  0  0  0  0  0  0  0
    1.9970   -0.9360   -0.4730 N   0  0  0  0  0  0  0  0  0  0  0  0
    1.3340   -1.9720   -0.9250 N   0  0  0  0  0  0  0  0  0  0  0  0
    1.7580   -3.1560   -1.4380 C   0  0  0  0  0  0  0  0  0  0  0  0
    0.6500   -3.8340   -1.7360 N   0  0  0  0  0  0  0  0  0  0  0  0
   -0.4330   -3.1360   -1.4380 N   0  0  0  0  0  0  0  0  0  0  0  0
   -0.0020   -1.9750   -0.9320 C   0  0  0  0  0  0  0  0  0  0  0  0
  2  1  1  1
  2  3  1  0
  2  5  1  0
  3  4  1  0
  5  6  1  0
  6  7  2  0
  6 20  1  0
  7  8  1  0
  8  9  1  0
  8 15  2  0
  9 10  1  1
  9 12  1  0
 10 11  1  0
 12 13  1  0
 12 14  1  0
 15 16  1  0
 16 17  1  0
 16 20  1  0
 17 18  2  0
 18 19  1  0
 19 20  2  0
M  END
