
     RDKit          3D

 23 25  0  0  0  0  0  0  0  0999 V2000
    5.5080    2.2180   -1.6650 O   0  0  0  0  0  0  0  0  0  0  0  0
    4.9760    1.4210   -0.8540 C   0  0  0  0  0  0  0  0  0  0  0  0
    5.5490    1.0950    0.3250 N   0  0  0  0  0  0  0  0  0  0  0  0
    4.9690    0.2400    1.1860 C   0  0  0  0  0  0  0  0  0  0  0  0
    3.7860   -0.3300    0.9080 N   0  0  0  0  0  0  0  0  0  0  0  0
    3.1850   -0.0300   -0.2530 C   0  0  0  0  0  0  0  0  0  0  0  0
    3.7640    0.8370   -1.1370 C   0  0  0  0  0  0  0  0  0  0  0  0
    2.9160    0.9250   -2.1950 N   0  0  0  0  0  0  0  0  0  0  0  0
    1.8590    0.1300   -1.9470 C   0  0  0  0  0  0  0  0  0  0  0  0
    1.9940   -0.4730   -0.7580 N   0  0  0  0  0  0  0  0  0  0  0  0
    1.0900   -1.4090   -0.1040 C   0  0  2  0  0  0  0  0  0  0  0  0
   -0.0810   -1.4230   -0.8100 O   0  0  0  0  0  0  0  0  0  0  0  0
   -1.1290   -1.1450    0.0190 C   0  0  2  0  0  0  0  0  0  0  0  0
   -2.2980   -0.4850   -0.6680 C   0  0  0  0  0  0  0  0  0  0  0  0
   -3.2760   -0.2570    0.2510 O   0  0  0  0  0  0  0  0  0  0  0  0
   -4.6500    0.4300   -0.1450 P   0  0  0  0  0  0  0  0  0  0  0  0
   -4.8430    1.2120    1.1580 O   0  0  0  0  0  0  0  0  0  0  0  0
   -6.1160   -0.3210    0.0540 O   0  0  0  0  0  0  0  0  0  0  0  0
   -4.6510    1.9350   -0.9720 O   0  0  0  0  0  0  0  0  0  0  0  0
   -0.5440   -0.2610    1.1000 C   0  0  1  0  0  0  0  0  0  0  0  0
   -1.3180   -0.2150    2.2370 O   0  0  0  0  0  0  0  0  0  0  0  0
    0.7760   -0.9750    1.3130 C   0  0  1  0  0  0  0  0  0  0  0  0
    0.6180   -2.1300    2.0700 O   0  0  0  0  0  0  0  0  0  0  0  0
  1  2  2  0
  2  3  1  0
  2  7  1  0
  3  4  1  0
  4  5  2  0
  5  6  1  0
  6  7  2  0
  6 10  1  0
  7  8  1  0
  8  9  2  0
  9 10  1  0
 11 10  1  6
 11 12  1  0
 11 22  1  0
 12 13  1  0
 13 14  1  6
 13 20  1  0
 14 15  1  0
 15 16  1  0
 16 17  1  0
 16 18  1  0
 16 19  1  0
 20 21  1  1
 20 22  1  0
 22 23  1  1
M  END
