
     RDKit          3D

 20 20  0  0  0  0  0  0  0  0999 V2000
    5.2160   -0.2710   -1.5640 N   0  0  0  0  0  0  0  0  0  0  0  0
    4.4510   -0.0420   -0.5240 C   0  0  0  0  0  0  0  0  0  0  0  0
    4.9860    0.8180    0.4510 N   0  0  0  0  0  0  0  0  0  0  0  0
    6.2170    0.7170    0.9220 O   0  0  0  0  0  0  0  0  0  0  0  0
    7.1290    1.3100    0.1870 O   0  0  0  0  0  0  0  0  0  0  0  0
    3.2120   -0.5180   -0.8560 N   0  0  0  0  0  0  0  0  0  0  0  0
    2.2180   -1.0360   -0.0640 C   0  0  0  0  0  0  0  0  0  0  0  0
    2.6240   -1.1410    1.1120 O   0  0  0  0  0  0  0  0  0  0  0  0
    0.9830   -1.3820   -0.5410 N   0  0  0  0  0  0  0  0  0  0  0  0
    0.0380   -1.9590    0.3460 C   0  0  0  0  0  0  0  0  0  0  0  0
   -0.3120   -1.1010    1.4900 C   0  0  0  0  0  0  0  0  0  0  0  0
   -0.9200    0.2020    1.1870 C   0  0  0  0  0  0  0  0  0  0  0  0
   -2.1980    0.1640    0.5220 N   0  0  0  0  0  0  0  0  0  0  0  0
   -2.3580   -0.2040   -0.8570 C   0  0  0  0  0  0  0  0  0  0  0  0
   -3.0880    0.8540   -1.6830 C   0  0  0  0  0  0  0  0  0  0  0  0
   -4.6420    1.4060   -0.8560 P   0  0  0  0  0  0  0  0  0  0  0  0
   -6.0560    0.9580   -1.7330 O   0  0  0  0  0  0  0  0  0  0  0  0
   -4.5940    0.6860    0.7900 N   0  0  0  0  0  0  0  0  0  0  0  0
   -3.3250    0.4980    1.3770 C   0  0  0  0  0  0  0  0  0  0  0  0
   -3.1540    0.6100    2.6540 N   0  0  0  0  0  0  0  0  0  0  0  0
  1  2  2  0
  2  3  1  0
  2  6  1  0
  3  4  1  0
  4  5  1  0
  6  7  1  0
  7  8  2  0
  7  9  1  0
  9 10  1  0
 10 11  1  0
 11 12  1  0
 12 13  1  0
 13 14  1  0
 13 19  1  0
 14 15  1  0
 15 16  1  0
 16 17  1  0
 16 18  1  0
 18 19  1  0
 19 20  2  0
M  END
