
     RDKit          3D

 20 21  0  0  0  0  0  0  0  0999 V2000
    1.2770   -1.4830    1.9170 O   0  0  0  0  0  0  0  0  0  0  0  0
    2.2730   -1.0290    1.2990 C   0  0  0  0  0  0  0  0  0  0  0  0
    3.2170   -0.2910    2.0830 N   0  0  0  0  0  0  0  0  0  0  0  0
    4.4720    0.0880    1.4570 C   0  0  0  0  0  0  0  0  0  0  0  0
    4.1520    0.5180    0.0200 C   0  0  0  0  0  0  0  0  0  0  0  0
    3.6420   -0.6890   -0.7410 C   0  0  0  0  0  0  0  0  0  0  0  0
    2.4660   -1.2280   -0.0940 N   0  0  0  0  0  0  0  0  0  0  0  0
    1.4720   -1.9640   -0.8000 C   0  0  0  0  0  0  0  0  0  0  0  0
    0.2190   -1.5630   -0.8540 C   0  0  0  0  0  0  0  0  0  0  0  0
   -0.2340   -0.3840   -0.2220 N   0  0  0  0  0  0  0  0  0  0  0  0
   -1.3520   -0.3830    0.5750 N   0  0  0  0  0  0  0  0  0  0  0  0
   -2.4780    0.3210    0.0050 C   0  0  1  0  0  0  0  0  0  0  0  0
   -3.8800    0.2110    1.2220 P   0  0  0  0  0  0  0  0  0  0  0  0
   -3.9690    1.7490    2.0430 O   0  0  0  0  0  0  0  0  0  0  0  0
   -5.3770   -0.1530    0.4180 O   0  0  0  0  0  0  0  0  0  0  0  0
   -6.4110    0.2240    1.1380 O   0  0  0  0  0  0  0  0  0  0  0  0
   -2.1360    1.7650   -0.2800 C   0  0  0  0  0  0  0  0  0  0  0  0
   -1.8090    1.7200   -1.7260 C   0  0  0  0  0  0  0  0  0  0  0  0
   -2.2210    0.6350   -2.2380 N   0  0  0  0  0  0  0  0  0  0  0  0
   -2.8520   -0.1780   -1.2900 N   0  0  0  0  0  0  0  0  0  0  0  0
  1  2  2  0
  2  3  1  0
  2  7  1  0
  3  4  1  0
  4  5  1  0
  5  6  1  0
  6  7  1  0
  7  8  1  0
  8  9  2  3
  9 10  1  0
 10 11  1  0
 12 11  1  1
 12 13  1  0
 12 17  1  0
 12 20  1  0
 13 14  1  0
 13 15  1  0
 15 16  1  0
 17 18  1  0
 18 19  2  0
 19 20  1  0
M  END
