
     RDKit          3D

 20 21  0  0  0  0  0  0  0  0999 V2000
    1.1510   -1.5750    0.7660 C   0  0  0  0  0  0  0  0  0  0  0  0
    2.1310   -0.5920    0.3560 N   0  0  0  0  0  0  0  0  0  0  0  0
    3.5290   -0.8370    0.6000 C   0  0  0  0  0  0  0  0  0  0  0  0
    3.8810   -2.0160    0.8230 O   0  0  0  0  0  0  0  0  0  0  0  0
    4.5400    0.2540    0.5930 C   0  0  0  0  0  0  0  0  0  0  0  0
    4.1760    1.2340   -0.3920 N   0  0  0  0  0  0  0  0  0  0  0  0
    2.8320    1.5660   -0.6750 C   0  0  0  0  0  0  0  0  0  0  0  0
    2.5000    2.6730   -1.2640 N   0  0  0  0  0  0  0  0  0  0  0  0
    1.7590    0.6200   -0.2890 C   0  0  0  0  0  0  0  0  0  0  0  0
    0.5150    0.9450   -0.5610 C   0  0  0  0  0  0  0  0  0  0  0  0
   -0.6650    0.2240   -0.2980 N   0  0  0  0  0  0  0  0  0  0  0  0
   -1.6990    0.7050    0.5590 C   0  0  0  0  0  0  0  0  0  0  0  0
   -1.6570    1.9180    1.2190 C   0  0  0  0  0  0  0  0  0  0  0  0
   -2.7790    1.9910    1.8960 O   0  0  0  0  0  0  0  0  0  0  0  0
   -3.5110    0.9290    1.7140 N   0  0  0  0  0  0  0  0  0  0  0  0
   -2.8830    0.0820    0.8810 C   0  0  0  0  0  0  0  0  0  0  0  0
   -3.3280   -1.1860    0.4200 N   0  0  0  0  0  0  0  0  0  0  0  0
   -4.8880   -1.9030    0.9020 P   0  0  0  0  0  0  0  0  0  0  0  0
   -6.0360   -0.6490    1.3120 O   0  0  0  0  0  0  0  0  0  0  0  0
   -5.5140   -2.8030   -0.4640 O   0  0  0  0  0  0  0  0  0  0  0  0
  1  2  1  0
  2  3  1  0
  2  9  1  0
  3  4  2  0
  3  5  1  0
  5  6  1  0
  6  7  1  0
  7  8  2  0
  7  9  1  0
  9 10  2  3
 10 11  1  0
 11 12  1  0
 12 13  2  0
 12 16  1  0
 13 14  1  0
 14 15  1  0
 15 16  2  0
 16 17  1  0
 17 18  1  0
 18 19  1  0
 18 20  1  0
M  END
