
     RDKit          3D

 31 33  0  0  0  0  0  0  0  0999 V2000
    1.2810    3.3620   -1.6230 O   0  0  0  0  0  0  0  0  0  0  0  0
    1.7790    2.2630   -1.2660 C   0  0  0  0  0  0  0  0  0  0  0  0
    0.9870    1.1780   -0.8890 O   0  0  0  0  0  0  0  0  0  0  0  0
    1.5710    0.1580   -0.1480 C   0  0  1  0  0  0  0  0  0  0  0  0
    1.8390    0.5410    1.2630 C   0  0  0  0  0  0  0  0  0  0  0  0
    2.3530   -0.2560    2.0820 O   0  0  0  0  0  0  0  0  0  0  0  0
    1.5260    1.8030    1.7150 O   0  0  0  0  0  0  0  0  0  0  0  0
    0.8510   -1.1380   -0.1910 C   0  0  0  0  0  0  0  0  0  0  0  0
   -0.3950   -1.3590   -0.4140 N   0  0  0  0  0  0  0  0  0  0  0  0
   -1.2320   -0.3020   -0.6520 O   0  0  0  0  0  0  0  0  0  0  0  0
   -1.6350    0.8210    0.6060 P   0  0  0  0  0  0  0  0  0  0  0  0
   -2.0030    2.4000    0.0480 O   0  0  0  0  0  0  0  0  0  0  0  0
   -2.7220    0.2160    1.7840 O   0  0  0  0  0  0  0  0  0  0  0  0
   -3.7910   -0.9980    1.2070 P   0  0  0  0  0  0  0  0  0  0  0  0
   -3.0000   -2.0260    0.0760 O   0  0  0  0  0  0  0  0  0  0  0  0
   -5.2300   -0.2580    0.4360 N   0  0  0  0  0  0  0  0  0  0  0  0
   -5.4640    1.1660    0.2960 C   0  0  0  0  0  0  0  0  0  0  0  0
   -6.7610    1.2080   -0.4780 C   0  0  0  0  0  0  0  0  0  0  0  0
   -7.0660   -0.1020   -0.8560 O   0  0  0  0  0  0  0  0  0  0  0  0
   -6.3020   -0.9810   -0.1230 C   0  0  0  0  0  0  0  0  0  0  0  0
   -6.5350   -2.2220    0.0150 O   0  0  0  0  0  0  0  0  0  0  0  0
    1.8830   -2.1130    0.0710 N   0  0  0  0  0  0  0  0  0  0  0  0
    3.0370   -1.5790   -0.2490 C   0  0  0  0  0  0  0  0  0  0  0  0
    4.2910   -2.2530   -0.1240 N   0  0  0  0  0  0  0  0  0  0  0  0
    4.3700   -3.8830    0.6670 P   0  0  0  0  0  0  0  0  0  0  0  0
    3.4900   -3.8470    2.1640 O   0  0  0  0  0  0  0  0  0  0  0  0
    6.0480   -4.1490    1.0840 O   0  0  0  0  0  0  0  0  0  0  0  0
    2.8600   -0.2690   -0.7230 N   0  0  0  0  0  0  0  0  0  0  0  0
    3.5950    0.6320   -1.5550 C   0  0  0  0  0  0  0  0  0  0  0  0
    3.2630    2.0730   -1.2310 C   0  0  1  0  0  0  0  0  0  0  0  0
    3.7880    2.8650   -2.2500 O   0  0  0  0  0  0  0  0  0  0  0  0
  1  2  2  0
  2  3  1  0
  2 30  1  0
  3  4  1  0
  4  5  1  1
  4  8  1  0
  4 28  1  0
  5  6  2  0
  5  7  1  0
  8  9  2  3
  8 22  1  0
  9 10  1  0
 10 11  1  0
 11 12  1  0
 11 13  1  0
 13 14  1  0
 14 15  1  0
 14 16  1  0
 16 17  1  0
 16 20  1  0
 17 18  1  0
 18 19  1  0
 19 20  1  0
 20 21  2  0
 22 23  2  0
 23 24  1  0
 23 28  1  0
 24 25  1  0
 25 26  1  0
 25 27  1  0
 28 29  1  0
 29 30  1  0
 30 31  1  6
M  END
