
     RDKit          3D

 30 31  0  0  0  0  0  0  0  0999 V2000
    3.4230    2.2260   -4.0730 O   0  0  0  0  0  0  0  0  0  0  0  0
    3.3260    2.3340   -2.5130 P   0  0  0  0  0  0  0  0  0  0  0  0
    2.5630    1.0060   -1.5740 N   0  0  0  0  0  0  0  0  0  0  0  0
    2.0860    1.2050   -0.2560 C   0  0  0  0  0  0  0  0  0  0  0  0
    2.2140    2.3640    0.2520 O   0  0  0  0  0  0  0  0  0  0  0  0
    1.4720    0.0830    0.4630 C   0  0  1  0  0  0  0  0  0  0  0  0
    2.4630   -1.0610    0.7180 C   0  0  0  0  0  0  0  0  0  0  0  0
    3.0030   -1.5700   -0.4420 O   0  0  0  0  0  0  0  0  0  0  0  0
    4.0900   -2.8380   -0.0090 P   0  0  0  0  0  0  0  0  0  0  0  0
    4.9240   -3.4040   -1.3940 O   0  0  0  0  0  0  0  0  0  0  0  0
    5.1340   -2.3910    1.2880 O   0  0  0  0  0  0  0  0  0  0  0  0
    1.0190    0.4740    1.7960 N   0  0  0  0  0  0  0  0  0  0  0  0
   -0.3250    0.0230    1.8640 C   0  0  0  0  0  0  0  0  0  0  0  0
   -0.9480   -0.2080    2.9330 O   0  0  0  0  0  0  0  0  0  0  0  0
   -0.7590   -0.0900    0.4520 C   0  0  1  0  0  0  0  0  0  0  0  0
   -1.7230   -1.2380    0.2840 C   0  0  0  0  0  0  0  0  0  0  0  0
   -2.9590   -1.0000    0.9230 O   0  0  0  0  0  0  0  0  0  0  0  0
   -3.9270   -1.9760    0.8430 C   0  0  0  0  0  0  0  0  0  0  0  0
   -3.6870   -3.0440    0.2070 O   0  0  0  0  0  0  0  0  0  0  0  0
   -5.1900   -1.8420    1.4420 O   0  0  0  0  0  0  0  0  0  0  0  0
   -6.4120   -3.0950    1.3290 P   0  0  0  0  0  0  0  0  0  0  0  0
   -6.0900   -4.3470    0.4650 O   0  0  0  0  0  0  0  0  0  0  0  0
   -1.3000    1.1950    0.0110 C   0  0  0  0  0  0  0  0  0  0  0  0
   -1.3300    2.1860    0.8380 N   0  0  0  0  0  0  0  0  0  0  0  0
   -1.8330    3.4700    0.5120 C   0  0  0  0  0  0  0  0  0  0  0  0
   -1.8670    4.4400    1.3070 O   0  0  0  0  0  0  0  0  0  0  0  0
   -2.3290    3.6620   -0.8070 N   0  0  0  0  0  0  0  0  0  0  0  0
   -1.8290    2.7590   -1.8380 C   0  0  0  0  0  0  0  0  0  0  0  0
   -1.8070    1.4160   -1.3130 N   0  0  0  0  0  0  0  0  0  0  0  0
    0.4070   -0.4370   -0.2130 O   0  0  0  0  0  0  0  0  0  0  0  0
  1  2  2  0
  2  3  1  0
  3  4  1  0
  4  5  2  0
  4  6  1  0
  6  7  1  1
  6 12  1  0
  6 30  1  0
  7  8  1  0
  8  9  1  0
  9 10  1  0
  9 11  1  0
 12 13  1  0
 13 14  2  0
 13 15  1  0
 15 16  1  1
 15 23  1  0
 15 30  1  0
 16 17  1  0
 17 18  1  0
 18 19  2  0
 18 20  1  0
 20 21  1  0
 21 22  2  0
 23 24  2  0
 23 29  1  0
 24 25  1  0
 25 26  2  0
 25 27  1  0
 27 28  1  0
 28 29  1  0
M  END
