
     RDKit          3D

 30 31  0  0  0  0  0  0  0  0999 V2000
    4.7430   -2.6080    0.1830 N   0  0  0  0  0  0  0  0  0  0  0  0
    5.3740   -1.6050    0.6900 C   0  0  0  0  0  0  0  0  0  0  0  0
    4.7070   -0.8360    1.6840 N   0  0  0  0  0  0  0  0  0  0  0  0
    3.3360   -0.7970    1.7850 O   0  0  0  0  0  0  0  0  0  0  0  0
    2.5600   -0.4340    0.6970 C   0  0  0  0  0  0  0  0  0  0  0  0
    3.1850   -0.1470   -0.3680 O   0  0  0  0  0  0  0  0  0  0  0  0
    1.0620   -0.3790    0.7670 C   0  0  1  0  0  0  0  0  0  0  0  0
    0.6120    0.6180    1.8280 C   0  0  0  0  0  0  0  0  0  0  0  0
    0.4170    1.8740    1.3060 O   0  0  0  0  0  0  0  0  0  0  0  0
    1.2340    2.1710    0.2440 C   0  0  0  0  0  0  0  0  0  0  0  0
    1.1040    1.3450   -0.8430 O   0  0  0  0  0  0  0  0  0  0  0  0
    0.5620    0.1030   -0.5570 C   0  0  2  0  0  0  0  0  0  0  0  0
   -0.9160    0.1270   -0.5710 C   0  0  0  0  0  0  0  0  0  0  0  0
   -1.6890   -0.7890   -1.1570 N   0  0  0  0  0  0  0  0  0  0  0  0
   -2.9400   -0.4490   -0.9700 O   0  0  0  0  0  0  0  0  0  0  0  0
   -3.0000    0.6610   -0.2800 C   0  0  0  0  0  0  0  0  0  0  0  0
   -4.2740    1.3320    0.1130 C   0  0  1  0  0  0  0  0  0  0  0  0
   -5.0970    1.6420   -1.1390 C   0  0  0  0  0  0  0  0  0  0  0  0
   -4.3920    2.4860   -1.9990 O   0  0  0  0  0  0  0  0  0  0  0  0
   -5.1650    2.6990   -3.0380 O   0  0  0  0  0  0  0  0  0  0  0  0
   -5.3250    0.2190    1.1740 P   0  0  0  0  0  0  0  0  0  0  0  0
   -4.3960   -0.5910    2.3730 O   0  0  0  0  0  0  0  0  0  0  0  0
   -6.3850   -1.1870   -0.1360 P   0  0  0  0  0  0  0  0  0  0  0  0
   -7.8620   -0.4630   -0.7220 O   0  0  0  0  0  0  0  0  0  0  0  0
   -6.7030   -2.6850    0.6560 O   0  0  0  0  0  0  0  0  0  0  0  0
   -1.7440    1.0260   -0.0280 N   0  0  0  0  0  0  0  0  0  0  0  0
    6.7070   -1.2720    0.2660 N   0  0  0  0  0  0  0  0  0  0  0  0
    7.3770   -2.0200   -1.2140 P   0  0  0  0  0  0  0  0  0  0  0  0
    8.9060   -2.7340   -0.8020 O   0  0  0  0  0  0  0  0  0  0  0  0
    7.7000   -0.7520   -2.3650 O   0  0  0  0  0  0  0  0  0  0  0  0
  1  2  2  0
  2  3  1  0
  2 27  1  0
  3  4  1  0
  4  5  1  0
  5  6  2  0
  7  5  1  6
  7  8  1  0
  7 12  1  0
  8  9  1  0
  9 10  1  0
 10 11  1  0
 11 12  1  0
 12 13  1  1
 13 14  2  0
 13 26  1  0
 14 15  1  0
 15 16  1  0
 16 17  1  0
 16 26  2  0
 17 18  1  6
 17 21  1  0
 18 19  1  0
 19 20  1  0
 21 22  1  0
 21 23  1  0
 23 24  1  0
 23 25  1  0
 27 28  1  0
 28 29  1  0
 28 30  1  0
M  END
