
     RDKit          3D

 30 31  0  0  0  0  0  0  0  0999 V2000
   -3.5100    0.7400   -2.2970 N   0  0  0  0  0  0  0  0  0  0  0  0
   -3.1690    0.9720   -1.0520 C   0  0  0  0  0  0  0  0  0  0  0  0
   -3.7770    2.0220   -0.3270 N   0  0  0  0  0  0  0  0  0  0  0  0
   -4.5660    3.3590   -1.2020 P   0  0  0  0  0  0  0  0  0  0  0  0
   -5.9610    2.8400   -2.0700 O   0  0  0  0  0  0  0  0  0  0  0  0
   -4.8940    4.7100   -0.1770 O   0  0  0  0  0  0  0  0  0  0  0  0
   -2.1850    0.1550   -0.4520 N   0  0  0  0  0  0  0  0  0  0  0  0
   -0.8100    0.3630   -0.7270 C   0  0  0  0  0  0  0  0  0  0  0  0
    0.1250   -0.5470   -0.0470 C   0  0  0  0  0  0  0  0  0  0  0  0
   -0.3010   -1.4350    0.7150 O   0  0  0  0  0  0  0  0  0  0  0  0
    1.5050   -0.4150   -0.2600 N   0  0  0  0  0  0  0  0  0  0  0  0
    2.1390    0.5770   -1.1240 C   0  0  0  0  0  0  0  0  0  0  0  0
    3.3640    0.9070   -0.2580 C   0  0  1  0  0  0  0  0  0  0  0  0
    4.2760    1.6850   -0.9170 O   0  0  0  0  0  0  0  0  0  0  0  0
    2.9150    1.5270    1.0470 C   0  0  0  0  0  0  0  0  0  0  0  0
    4.0510    1.7050    1.9060 N   0  0  0  0  0  0  0  0  0  0  0  0
    3.8440   -0.5100   -0.0060 C   0  0  2  0  0  0  0  0  0  0  0  0
    4.3510   -0.9720   -1.2300 O   0  0  0  0  0  0  0  0  0  0  0  0
    4.8800   -2.2470   -1.1340 C   0  0  0  0  0  0  0  0  0  0  0  0
    3.8400   -3.0990   -0.6700 O   0  0  0  0  0  0  0  0  0  0  0  0
    2.6320   -2.5740   -0.2690 C   0  0  0  0  0  0  0  0  0  0  0  0
    1.5870   -3.2340   -0.4120 O   0  0  0  0  0  0  0  0  0  0  0  0
    2.5820   -1.2290    0.3300 C   0  0  2  0  0  0  0  0  0  0  0  0
   -2.7160   -1.1390    0.6530 P   0  0  0  0  0  0  0  0  0  0  0  0
   -2.9190   -2.5900   -0.2800 O   0  0  0  0  0  0  0  0  0  0  0  0
   -2.2760   -2.4760   -1.4360 O   0  0  0  0  0  0  0  0  0  0  0  0
   -4.2230   -0.7640    1.3910 O   0  0  0  0  0  0  0  0  0  0  0  0
   -4.3420   -1.4990    2.9780 P   0  0  0  0  0  0  0  0  0  0  0  0
   -4.3260   -3.2160    2.8030 O   0  0  0  0  0  0  0  0  0  0  0  0
   -2.9390   -1.0360    3.8870 O   0  0  0  0  0  0  0  0  0  0  0  0
  1  2  2  0
  2  3  1  0
  2  7  1  0
  3  4  1  0
  4  5  1  0
  4  6  1  0
  7  8  1  0
  7 24  1  0
  8  9  1  0
  9 10  2  0
  9 11  1  0
 11 12  1  0
 23 11  1  6
 12 13  1  0
 13 14  1  6
 13 15  1  0
 13 17  1  0
 15 16  1  0
 17 18  1  6
 17 23  1  0
 18 19  1  0
 19 20  1  0
 20 21  1  0
 21 22  2  0
 21 23  1  0
 24 25  1  0
 24 27  1  0
 25 26  1  0
 27 28  1  0
 28 29  1  0
 28 30  1  0
M  END
