
     RDKit          3D

 31 33  0  0  0  0  0  0  0  0999 V2000
   -6.3210    3.3200   -1.6340 N   0  0  0  0  0  0  0  0  0  0  0  0
   -5.4460    2.9240   -0.6130 C   0  0  0  0  0  0  0  0  0  0  0  0
   -5.2360    3.7330    0.4350 N   0  0  0  0  0  0  0  0  0  0  0  0
   -4.4040    3.3980    1.4420 C   0  0  0  0  0  0  0  0  0  0  0  0
   -3.7710    2.2190    1.3900 N   0  0  0  0  0  0  0  0  0  0  0  0
   -3.9240    1.3380    0.3700 C   0  0  0  0  0  0  0  0  0  0  0  0
   -4.7880    1.7200   -0.6480 C   0  0  0  0  0  0  0  0  0  0  0  0
   -4.7630    0.6830   -1.5290 N   0  0  0  0  0  0  0  0  0  0  0  0
   -3.9240   -0.2780   -1.0640 C   0  0  0  0  0  0  0  0  0  0  0  0
   -3.4090    0.1320    0.1070 N   0  0  0  0  0  0  0  0  0  0  0  0
   -2.4830   -0.5610    0.9460 C   0  0  2  0  0  0  0  0  0  0  0  0
   -1.1600   -0.1580    0.7580 O   0  0  0  0  0  0  0  0  0  0  0  0
   -0.4870   -1.0710    1.5740 C   0  0  2  0  0  0  0  0  0  0  0  0
    1.0010   -1.0520    1.3250 C   0  0  0  0  0  0  0  0  0  0  0  0
    1.3190   -1.3720    0.0160 O   0  0  0  0  0  0  0  0  0  0  0  0
    2.9940   -1.3360   -0.2100 P   0  0  1  0  0  0  0  0  0  0  0  0
    3.5680   -0.2940    0.7210 O   0  0  0  0  0  0  0  0  0  0  0  0
    3.6170   -2.8690    0.2000 O   0  0  0  0  0  0  0  0  0  0  0  0
    3.3930   -0.9530   -1.8070 O   0  0  0  0  0  0  0  0  0  0  0  0
    4.9660   -0.4070   -1.9520 P   0  0  2  0  0  0  0  0  0  0  0  0
    5.0570    0.8780   -2.7520 O   0  0  0  0  0  0  0  0  0  0  0  0
    5.8370   -1.6010   -2.8140 O   0  0  0  0  0  0  0  0  0  0  0  0
    5.6970   -0.1730   -0.4400 O   0  0  0  0  0  0  0  0  0  0  0  0
    6.7970    1.1020   -0.6010 P   0  0  2  0  0  0  0  0  0  0  0  0
    7.8790    0.7730   -1.6210 O   0  0  0  0  0  0  0  0  0  0  0  0
    7.5550    1.4500    0.8640 O   0  0  0  0  0  0  0  0  0  0  0  0
    6.0150    2.5180   -1.1190 O   0  0  0  0  0  0  0  0  0  0  0  0
   -1.1000   -2.4160    1.3350 C   0  0  1  0  0  0  0  0  0  0  0  0
   -1.5240   -2.9990    2.5410 O   0  0  0  0  0  0  0  0  0  0  0  0
   -2.3740   -2.0420    0.5720 C   0  0  1  0  0  0  0  0  0  0  0  0
   -3.4570   -2.7680    0.9900 O   0  0  0  0  0  0  0  0  0  0  0  0
  1  2  1  0
  2  3  2  0
  2  7  1  0
  3  4  1  0
  4  5  2  0
  5  6  1  0
  6  7  2  0
  6 10  1  0
  7  8  1  0
  8  9  2  0
  9 10  1  0
 11 10  1  6
 11 12  1  0
 11 30  1  0
 12 13  1  0
 13 14  1  6
 13 28  1  0
 14 15  1  0
 15 16  1  0
 16 17  2  0
 16 18  1  1
 16 19  1  0
 19 20  1  0
 20 21  2  0
 20 22  1  6
 20 23  1  0
 23 24  1  0
 24 25  2  0
 24 26  1  1
 24 27  1  0
 28 29  1  1
 28 30  1  0
 30 31  1  1
M  END
