
     RDKit          3D

 30 32  0  0  0  0  0  0  0  0999 V2000
    0.7330    2.5680   -0.0010 C   0  0  0  0  0  0  0  0  0  0  0  0
    1.3270    1.1950    0.1170 C   0  0  1  0  0  0  0  0  0  0  0  0
    0.4510    0.2440    0.6630 O   0  0  0  0  0  0  0  0  0  0  0  0
   -0.7530   -0.1030    0.1210 C   0  0  0  0  0  0  0  0  0  0  0  0
   -1.1120    0.4620   -0.9440 O   0  0  0  0  0  0  0  0  0  0  0  0
   -1.6710   -1.1160    0.7150 C   0  0  0  0  0  0  0  0  0  0  0  0
   -2.8600   -1.2710   -0.0750 N   0  0  0  0  0  0  0  0  0  0  0  0
   -3.1470   -2.1360   -1.1490 C   0  0  0  0  0  0  0  0  0  0  0  0
   -2.3120   -2.9800   -1.6120 O   0  0  0  0  0  0  0  0  0  0  0  0
   -4.4700   -1.9080   -1.6000 N   0  0  0  0  0  0  0  0  0  0  0  0
   -5.0340   -0.9010   -0.8200 N   0  0  0  0  0  0  0  0  0  0  0  0
   -4.0610   -0.4930    0.1260 C   0  0  0  0  0  0  0  0  0  0  0  0
   -4.2940    0.4290    0.9890 N   0  0  0  0  0  0  0  0  0  0  0  0
   -5.4660    1.1680    1.1640 C   0  0  0  0  0  0  0  0  0  0  0  0
   -5.4710    2.0350    2.0870 O   0  0  0  0  0  0  0  0  0  0  0  0
   -6.6390    1.0660    0.4390 O   0  0  0  0  0  0  0  0  0  0  0  0
   -6.6580   -0.1290   -0.8470 P   0  0  0  0  0  0  0  0  0  0  0  0
   -7.9080   -1.2770   -0.4870 O   0  0  0  0  0  0  0  0  0  0  0  0
    1.8520    0.8070   -1.2090 C   0  0  0  0  0  0  0  0  0  0  0  0
    1.3410    0.1110   -2.1210 O   0  0  0  0  0  0  0  0  0  0  0  0
    3.1440    1.3940   -1.3060 N   0  0  0  0  0  0  0  0  0  0  0  0
    3.5110    2.0000   -0.0350 C   0  0  0  0  0  0  0  0  0  0  0  0
    2.5840    1.2940    0.9360 C   0  0  1  0  0  0  0  0  0  0  0  0
    2.4170    2.0020    2.1110 O   0  0  0  0  0  0  0  0  0  0  0  0
    3.1530    0.0500    1.2030 O   0  0  0  0  0  0  0  0  0  0  0  0
    3.5820   -0.7990   -0.2220 P   0  0  0  0  0  0  0  0  0  0  0  0
    2.6040   -2.2040   -0.4850 O   0  0  0  0  0  0  0  0  0  0  0  0
    5.6810   -1.3930   -0.2770 P   0  0  0  0  0  0  0  0  0  0  0  0
    6.1770   -2.2640    1.1130 O   0  0  0  0  0  0  0  0  0  0  0  0
    6.7250   -0.0520   -0.6330 O   0  0  0  0  0  0  0  0  0  0  0  0
  2  1  1  6
  2  3  1  0
  2 19  1  0
  2 23  1  0
  3  4  1  0
  4  5  2  0
  4  6  1  0
  6  7  1  0
  7  8  1  0
  7 12  1  0
  8  9  2  0
  8 10  1  0
 10 11  1  0
 11 12  1  0
 11 17  1  0
 12 13  2  0
 13 14  1  0
 14 15  2  0
 14 16  1  0
 16 17  1  0
 17 18  1  0
 19 20  2  0
 19 21  1  0
 21 22  1  0
 22 23  1  0
 23 24  1  1
 23 25  1  0
 25 26  1  0
 26 27  1  0
 26 28  1  0
 28 29  1  0
 28 30  1  0
M  END
