
     RDKit          3D

 30 31  0  0  0  0  0  0  0  0999 V2000
   -8.2920    0.1450   -2.0540 O   0  0  0  0  0  0  0  0  0  0  0  0
   -7.4950   -1.0370   -1.3960 P   0  0  0  0  0  0  0  0  0  0  0  0
   -6.4560   -0.6880    0.0360 N   0  0  0  0  0  0  0  0  0  0  0  0
   -5.3730    0.2410   -0.0690 C   0  0  0  0  0  0  0  0  0  0  0  0
   -5.2120    0.7730   -1.1990 O   0  0  0  0  0  0  0  0  0  0  0  0
   -4.5160    0.5320    1.1080 C   0  0  1  0  0  0  0  0  0  0  0  0
   -3.5350    1.4470    0.7400 O   0  0  0  0  0  0  0  0  0  0  0  0
   -2.2070    1.3730    0.8510 N   0  0  0  0  0  0  0  0  0  0  0  0
   -1.3490    0.6850    0.2410 C   0  0  0  0  0  0  0  0  0  0  0  0
   -1.7130   -0.1710   -0.7230 N   0  0  0  0  0  0  0  0  0  0  0  0
   -0.7890   -0.9220   -1.3890 C   0  0  0  0  0  0  0  0  0  0  0  0
   -1.1600   -1.7190   -2.2910 O   0  0  0  0  0  0  0  0  0  0  0  0
    0.5190   -0.8380   -1.1120 N   0  0  0  0  0  0  0  0  0  0  0  0
    0.9400   -0.0010   -0.1610 C   0  0  0  0  0  0  0  0  0  0  0  0
   -0.0010    0.7660    0.5200 C   0  0  0  0  0  0  0  0  0  0  0  0
    0.7580    1.5090    1.4200 O   0  0  0  0  0  0  0  0  0  0  0  0
    2.0510    1.4630    1.0590 O   0  0  0  0  0  0  0  0  0  0  0  0
    2.2200    0.3280    0.3730 N   0  0  0  0  0  0  0  0  0  0  0  0
    3.4180   -0.4370    0.1830 C   0  0  0  0  0  0  0  0  0  0  0  0
    3.4280   -1.4930   -0.4910 O   0  0  0  0  0  0  0  0  0  0  0  0
    4.6910    0.0180    0.7960 C   0  0  1  0  0  0  0  0  0  0  0  0
    5.7980   -0.9290    0.4680 C   0  0  0  0  0  0  0  0  0  0  0  0
    6.1570   -1.1470   -1.2950 P   0  0  0  0  0  0  0  0  0  0  0  0
    5.5010    0.0320   -2.3350 O   0  0  0  0  0  0  0  0  0  0  0  0
    7.8010   -1.5380   -1.6410 O   0  0  0  0  0  0  0  0  0  0  0  0
    5.0090    1.7520    0.2870 P   0  0  0  0  0  0  0  0  0  0  0  0
    4.5760    2.3600   -1.0670 O   0  0  0  0  0  0  0  0  0  0  0  0
   -5.4000    1.1230    2.1580 C   0  0  0  0  0  0  0  0  0  0  0  0
   -5.1710    2.2810    2.5480 O   0  0  0  0  0  0  0  0  0  0  0  0
   -6.4350    0.3440    2.6460 O   0  0  0  0  0  0  0  0  0  0  0  0
  1  2  2  0
  2  3  1  0
  3  4  1  0
  4  5  2  0
  4  6  1  0
  6  7  1  6
  6 28  1  0
  7  8  1  0
  8  9  2  3
  9 10  1  0
  9 15  1  0
 10 11  1  0
 11 12  2  0
 11 13  1  0
 13 14  1  0
 14 15  2  0
 14 18  1  0
 15 16  1  0
 16 17  1  0
 17 18  1  0
 18 19  1  0
 19 20  2  0
 19 21  1  0
 21 22  1  6
 21 26  1  0
 22 23  1  0
 23 24  1  0
 23 25  1  0
 26 27  2  0
 28 29  2  0
 28 30  1  0
M  END
