
     RDKit          3D

 31 33  0  0  0  0  0  0  0  0999 V2000
    1.2670   -0.7380    0.5010 O   0  0  0  0  0  0  0  0  0  0  0  0
    1.2630    0.4160   -0.0150 C   0  0  0  0  0  0  0  0  0  0  0  0
   -0.0230    1.0870   -0.2870 C   0  0  0  0  0  0  0  0  0  0  0  0
   -1.0970    0.2200    0.1250 N   0  0  0  0  0  0  0  0  0  0  0  0
   -1.3220   -1.0050   -0.6150 C   0  0  0  0  0  0  0  0  0  0  0  0
   -2.7960   -1.2770   -0.6500 C   0  0  1  0  0  0  0  0  0  0  0  0
   -2.9990   -3.0470   -1.2560 P   0  0  0  0  0  0  0  0  0  0  0  0
   -3.6380   -4.0610    0.0010 O   0  0  0  0  0  0  0  0  0  0  0  0
   -1.4770   -3.7170   -1.7500 O   0  0  0  0  0  0  0  0  0  0  0  0
   -3.4600   -1.2010    0.6060 N   0  0  0  0  0  0  0  0  0  0  0  0
   -3.3390    0.0560    1.2900 C   0  0  1  0  0  0  0  0  0  0  0  0
   -4.4320    1.3890    0.7120 P   0  0  0  0  0  0  0  0  0  0  0  0
   -5.9660    1.4430    1.4680 O   0  0  0  0  0  0  0  0  0  0  0  0
   -4.4590    1.7380   -1.4180 P   0  0  0  0  0  0  0  0  0  0  0  0
   -5.0580    3.3650   -1.7040 O   0  0  0  0  0  0  0  0  0  0  0  0
   -5.5510    0.6710   -2.2420 O   0  0  0  0  0  0  0  0  0  0  0  0
   -3.4760   -0.0320    2.6760 O   0  0  0  0  0  0  0  0  0  0  0  0
   -2.9730    1.1910    3.0150 O   0  0  0  0  0  0  0  0  0  0  0  0
   -1.7670    1.2330    2.3040 N   0  0  0  0  0  0  0  0  0  0  0  0
   -1.9120    0.5540    1.2270 C   0  0  0  0  0  0  0  0  0  0  0  0
    2.4760    1.0790   -0.3390 N   0  0  0  0  0  0  0  0  0  0  0  0
    3.7280    0.4630   -0.0920 C   0  0  0  0  0  0  0  0  0  0  0  0
    4.9590    0.9520   -0.3380 N   0  0  0  0  0  0  0  0  0  0  0  0
    5.8730    0.0460    0.0460 C   0  0  0  0  0  0  0  0  0  0  0  0
    7.3290    0.1790   -0.0460 C   0  0  0  0  0  0  0  0  0  0  0  0
    8.0620   -0.7570    0.3550 O   0  0  0  0  0  0  0  0  0  0  0  0
    7.9280    1.3120   -0.5650 O   0  0  0  0  0  0  0  0  0  0  0  0
    9.2770    1.4260   -0.6470 O   0  0  0  0  0  0  0  0  0  0  0  0
    9.8110    1.6550    0.5360 O   0  0  0  0  0  0  0  0  0  0  0  0
    5.1630   -1.0240    0.5400 C   0  0  0  0  0  0  0  0  0  0  0  0
    3.9050   -0.7420    0.4430 O   0  0  0  0  0  0  0  0  0  0  0  0
  1  2  2  0
  2  3  1  0
  2 21  1  0
  3  4  1  0
  4  5  1  0
  4 20  1  0
  5  6  1  0
  6  7  1  1
  6 10  1  0
  7  8  1  0
  7  9  1  0
 10 11  1  0
 11 12  1  6
 11 17  1  0
 11 20  1  0
 12 13  1  0
 12 14  1  0
 14 15  1  0
 14 16  1  0
 17 18  1  0
 18 19  1  0
 19 20  2  0
 21 22  1  0
 22 23  2  0
 22 31  1  0
 23 24  1  0
 24 25  1  0
 24 30  2  0
 25 26  2  0
 25 27  1  0
 27 28  1  0
 28 29  1  0
 30 31  1  0
M  END
