
     RDKit          3D

 30 32  0  0  0  0  0  0  0  0999 V2000
    5.5280    3.2350   -2.0810 C   0  0  0  0  0  0  0  0  0  0  0  0
    4.7220    2.0740   -1.6710 C   0  0  0  0  0  0  0  0  0  0  0  0
    4.8030    1.8670   -0.1500 C   0  0  0  0  0  0  0  0  0  0  0  0
    4.0160    0.6840    0.2390 C   0  0  1  0  0  0  0  0  0  0  0  0
    4.4720   -0.6050   -0.3120 C   0  0  0  0  0  0  0  0  0  0  0  0
    4.8450   -1.7720    0.4960 C   0  0  1  0  0  0  0  0  0  0  0  0
    6.3520   -2.0340    0.3660 C   0  0  0  0  0  0  0  0  0  0  0  0
    4.4540   -1.6970    1.9520 C   0  0  0  0  0  0  0  0  0  0  0  0
    3.2710   -0.8010    1.8840 N   0  0  0  0  0  0  0  0  0  0  0  0
    2.0270   -1.4180    1.9520 C   0  0  0  0  0  0  0  0  0  0  0  0
    1.5690   -2.4450    2.1430 O   0  0  0  0  0  0  0  0  0  0  0  0
    0.9310   -0.3760    1.6670 C   0  0  0  0  0  0  0  0  0  0  0  0
    0.0400    0.4880    1.4150 C   0  0  0  0  0  0  0  0  0  0  0  0
   -0.9680    1.4850    1.1290 C   0  0  0  0  0  0  0  0  0  0  0  0
   -0.8150    2.8030    1.6870 C   0  0  0  0  0  0  0  0  0  0  0  0
   -1.9170    3.4660    1.2110 N   0  0  0  0  0  0  0  0  0  0  0  0
   -2.6770    2.7130    0.4710 C   0  0  0  0  0  0  0  0  0  0  0  0
   -3.8950    3.1270   -0.2250 C   0  0  0  0  0  0  0  0  0  0  0  0
   -2.0650    1.4490    0.4280 C   0  0  0  0  0  0  0  0  0  0  0  0
   -2.6620    0.3680   -0.3520 C   0  0  0  0  0  0  0  0  0  0  0  0
   -2.3200    0.2840   -1.6070 O   0  0  0  0  0  0  0  0  0  0  0  0
   -3.5450   -0.5670    0.0750 O   0  0  0  0  0  0  0  0  0  0  0  0
   -4.0370   -1.5480   -0.8000 C   0  0  1  0  0  0  0  0  0  0  0  0
   -3.6260   -2.9910   -0.4790 C   0  0  0  0  0  0  0  0  0  0  0  0
   -4.7280   -3.8560   -1.1260 C   0  0  0  0  0  0  0  0  0  0  0  0
   -5.7860   -2.8270   -1.6410 C   0  0  0  0  0  0  0  0  0  0  0  0
   -5.5000   -1.6760   -0.7500 C   0  0  2  0  0  0  0  0  0  0  0  0
   -6.2990   -0.4690   -0.6890 C   0  0  0  0  0  0  0  0  0  0  0  0
   -6.0270    0.1620    0.6950 C   0  0  0  0  0  0  0  0  0  0  0  0
    3.5690    0.5780    1.6970 C   0  0  0  0  0  0  0  0  0  0  0  0
  1  2  1  0
  2  3  1  0
  4  3  1  1
  4  5  1  0
  4 30  1  0
  5  6  1  0
  6  7  1  1
  6  8  1  0
  8  9  1  0
  9 10  1  0
  9 30  1  0
 10 11  2  0
 10 12  1  0
 12 13  3  0
 13 14  1  0
 14 15  2  0
 14 19  1  0
 15 16  1  0
 16 17  1  0
 17 18  1  0
 17 19  2  0
 19 20  1  0
 20 21  2  0
 20 22  1  0
 23 22  1  1
 23 24  1  0
 23 27  1  0
 24 25  1  0
 25 26  1  0
 26 27  1  0
 27 28  1  6
 28 29  1  0
M  END
