
     RDKit          3D

 31 33  0  0  0  0  0  0  0  0999 V2000
    7.0630   -1.4290   -0.2480 C   0  0  0  0  0  0  0  0  0  0  0  0
    6.8700   -0.1010    0.3650 C   0  0  0  0  0  0  0  0  0  0  0  0
    7.7840    0.2240    1.4360 N   0  0  0  0  0  0  0  0  0  0  0  0
    5.9500    0.7780    0.0130 C   0  0  0  0  0  0  0  0  0  0  0  0
    4.9950    0.4980   -1.0670 C   0  0  0  0  0  0  0  0  0  0  0  0
    3.5720    0.5470   -0.6780 C   0  0  0  0  0  0  0  0  0  0  0  0
    2.7570   -0.4860   -0.7770 C   0  0  0  0  0  0  0  0  0  0  0  0
    3.1160   -1.8310   -1.2810 C   0  0  0  0  0  0  0  0  0  0  0  0
    2.2360   -2.7210   -0.3920 C   0  0  0  0  0  0  0  0  0  0  0  0
    0.9520   -1.8890   -0.3970 C   0  0  1  0  0  0  0  0  0  0  0  0
    0.2220   -2.1920    0.8620 C   0  0  0  0  0  0  0  0  0  0  0  0
   -0.9480   -1.3700    1.0710 N   0  0  0  0  0  0  0  0  0  0  0  0
   -2.0450   -1.3160    0.2050 C   0  0  0  0  0  0  0  0  0  0  0  0
   -2.0220   -2.0280   -0.8300 O   0  0  0  0  0  0  0  0  0  0  0  0
   -3.1950   -0.5120    0.4060 N   0  0  0  0  0  0  0  0  0  0  0  0
   -4.3170   -0.4850   -0.5230 C   0  0  2  0  0  0  0  0  0  0  0  0
   -4.5760    0.9180   -1.0260 C   0  0  0  0  0  0  0  0  0  0  0  0
   -4.9920    1.8300    0.0880 C   0  0  0  0  0  0  0  0  0  0  0  0
   -6.3270    1.3550    0.6240 C   0  0  1  0  0  0  0  0  0  0  0  0
   -7.3340    2.2570    0.1310 N   0  0  0  0  0  0  0  0  0  0  0  0
   -8.6430    1.8900   -0.2340 C   0  0  0  0  0  0  0  0  0  0  0  0
   -9.5400    2.7570   -0.4430 O   0  0  0  0  0  0  0  0  0  0  0  0
   -8.9470    0.5100   -0.3660 N   0  0  0  0  0  0  0  0  0  0  0  0
   -7.9100   -0.4300   -0.1220 C   0  0  0  0  0  0  0  0  0  0  0  0
   -8.2090   -1.6560   -0.2480 O   0  0  0  0  0  0  0  0  0  0  0  0
   -6.6050   -0.0040    0.2440 N   0  0  0  0  0  0  0  0  0  0  0  0
   -5.5350   -0.9790    0.2290 C   0  0  0  0  0  0  0  0  0  0  0  0
    1.4100   -0.5630   -0.4460 O   0  0  0  0  0  0  0  0  0  0  0  0
    5.9130    2.0690    0.7570 C   0  0  1  0  0  0  0  0  0  0  0  0
    6.0500    3.2680   -0.1470 C   0  0  0  0  0  0  0  0  0  0  0  0
    4.4820    2.1070    1.7670 Cl  0  0  0  0  0  0  0  0  0  0  0  0
  1  2  1  0
  2  3  1  0
  2  4  2  3
  4  5  1  0
  4 29  1  0
  5  6  1  0
  6  7  2  3
  7  8  1  0
  7 28  1  0
  8  9  1  0
  9 10  1  0
 10 11  1  1
 10 28  1  0
 11 12  1  0
 12 13  1  0
 13 14  2  0
 13 15  1  0
 16 15  1  1
 16 17  1  0
 16 27  1  0
 17 18  1  0
 19 18  1  6
 19 20  1  0
 19 26  1  0
 20 21  1  0
 21 22  2  0
 21 23  1  0
 23 24  1  0
 24 25  2  0
 24 26  1  0
 26 27  1  0
 29 30  1  6
 29 31  1  0
M  END
