
     RDKit          3D

 30 31  0  0  0  0  0  0  0  0999 V2000
    6.1450    0.1760    1.4980 C   0  0  0  0  0  0  0  0  0  0  0  0
    4.8640    0.1140    2.2360 C   0  0  0  0  0  0  0  0  0  0  0  0
    3.7440   -0.3660    1.7960 C   0  0  0  0  0  0  0  0  0  0  0  0
    2.5490   -0.3510    2.6820 C   0  0  0  0  0  0  0  0  0  0  0  0
    2.8180    0.2080    3.9270 O   0  0  0  0  0  0  0  0  0  0  0  0
    3.6000   -0.8970    0.4520 C   0  0  0  0  0  0  0  0  0  0  0  0
    2.5570   -0.2260   -0.3330 N   0  0  0  0  0  0  0  0  0  0  0  0
    1.2680   -0.7850   -0.2280 C   0  0  0  0  0  0  0  0  0  0  0  0
    1.1320   -1.8830    0.4430 O   0  0  0  0  0  0  0  0  0  0  0  0
    0.0370   -0.3420   -0.7480 N   0  0  0  0  0  0  0  0  0  0  0  0
   -1.2260   -0.9850   -0.6400 C   0  0  1  0  0  0  0  0  0  0  0  0
   -1.1940   -2.4740   -0.3120 C   0  0  0  0  0  0  0  0  0  0  0  0
   -1.4130   -2.8670    1.0690 C   0  0  0  0  0  0  0  0  0  0  0  0
   -1.7240   -1.8380    2.1020 C   0  0  0  0  0  0  0  0  0  0  0  0
   -2.0600   -0.4590    1.6490 C   0  0  0  0  0  0  0  0  0  0  0  0
   -2.3100   -0.3330    0.1570 C   0  0  2  0  0  0  0  0  0  0  0  0
   -3.6210   -0.9980   -0.2080 C   0  0  0  0  0  0  0  0  0  0  0  0
   -4.8580   -0.6300    0.4580 C   0  0  2  0  0  0  0  0  0  0  0  0
   -5.9200   -1.5650   -0.2180 C   0  0  0  0  0  0  0  0  0  0  0  0
   -5.4730    0.6970    0.3910 C   0  0  0  0  0  0  0  0  0  0  0  0
   -2.3770    1.1250   -0.1610 C   0  0  2  0  0  0  0  0  0  0  0  0
   -2.6570    1.4950   -1.5810 C   0  0  0  0  0  0  0  0  0  0  0  0
   -2.6250    3.0320   -1.3850 C   0  0  0  0  0  0  0  0  0  0  0  0
   -1.4310    3.1180   -0.4440 C   0  0  0  0  0  0  0  0  0  0  0  0
   -1.2260    1.8610    0.1160 O   0  0  0  0  0  0  0  0  0  0  0  0
    2.8710    0.8600   -1.1700 C   0  0  2  0  0  0  0  0  0  0  0  0
    4.3260    1.3140   -1.0810 C   0  0  0  0  0  0  0  0  0  0  0  0
    2.0490    2.1060   -0.9750 C   0  0  0  0  0  0  0  0  0  0  0  0
    2.6700    0.3920   -2.6110 C   0  0  0  0  0  0  0  0  0  0  0  0
    3.5810   -0.7890   -2.9140 C   0  0  0  0  0  0  0  0  0  0  0  0
  1  2  1  0
  2  3  2  3
  3  4  1  0
  3  6  1  0
  4  5  1  0
  6  7  1  0
  7  8  1  0
  7 26  1  0
  8  9  2  0
  8 10  1  0
 11 10  1  1
 11 12  1  0
 11 16  1  0
 12 13  1  0
 13 14  1  0
 14 15  1  0
 15 16  1  0
 16 17  1  1
 16 21  1  0
 17 18  1  0
 18 19  1  6
 18 20  1  0
 21 22  1  6
 21 25  1  0
 22 23  1  0
 23 24  1  0
 24 25  1  0
 26 27  1  6
 26 28  1  0
 26 29  1  0
 29 30  1  0
M  END
