
     RDKit          3D

 30 32  0  0  0  0  0  0  0  0999 V2000
    5.3510   -3.2430    1.5830 C   0  0  0  0  0  0  0  0  0  0  0  0
    4.9190   -3.3830    0.1480 C   0  0  0  0  0  0  0  0  0  0  0  0
    4.7160   -2.0110   -0.4390 C   0  0  0  0  0  0  0  0  0  0  0  0
    5.7990   -1.4160   -1.0470 C   0  0  0  0  0  0  0  0  0  0  0  0
    5.6160   -0.1610   -1.5880 C   0  0  0  0  0  0  0  0  0  0  0  0
    4.3840    0.4800   -1.5210 C   0  0  0  0  0  0  0  0  0  0  0  0
    3.3150   -0.1310   -0.9090 C   0  0  0  0  0  0  0  0  0  0  0  0
    3.4920   -1.3810   -0.3700 C   0  0  0  0  0  0  0  0  0  0  0  0
    2.1510    0.7920   -0.9970 C   0  0  1  0  0  0  0  0  0  0  0  0
    1.1640    0.6230    0.0090 N   0  0  0  0  0  0  0  0  0  0  0  0
    0.0130    1.4540   -0.3030 C   0  0  1  0  0  0  0  0  0  0  0  0
   -1.0980    0.6720   -0.7480 N   0  0  0  0  0  0  0  0  0  0  0  0
   -2.1360    0.9260   -0.0470 C   0  0  0  0  0  0  0  0  0  0  0  0
   -3.4790    0.3110   -0.2080 C   0  0  0  0  0  0  0  0  0  0  0  0
   -4.4520    0.5940    0.4970 O   0  0  0  0  0  0  0  0  0  0  0  0
   -3.6230   -0.6920   -1.2840 C   0  0  2  0  0  0  0  0  0  0  0  0
   -3.3840   -0.0470   -2.6200 C   0  0  0  0  0  0  0  0  0  0  0  0
   -4.8700   -1.4920   -1.1780 C   0  0  0  0  0  0  0  0  0  0  0  0
   -4.8770   -2.2580    0.1200 C   0  0  1  0  0  0  0  0  0  0  0  0
   -6.1470   -3.0790    0.2500 C   0  0  0  0  0  0  0  0  0  0  0  0
   -3.6560   -3.1620    0.1090 C   0  0  0  0  0  0  0  0  0  0  0  0
   -1.7960    1.9240    0.9490 C   0  0  0  0  0  0  0  0  0  0  0  0
   -2.6530    2.5540    2.0000 C   0  0  0  0  0  0  0  0  0  0  0  0
   -0.4970    2.2570    0.8080 C   0  0  0  0  0  0  0  0  0  0  0  0
    0.1890    3.2510    1.6570 C   0  0  0  0  0  0  0  0  0  0  0  0
    1.3900    3.5060    1.4630 O   0  0  0  0  0  0  0  0  0  0  0  0
   -0.4580    3.9170    2.6720 O   0  0  0  0  0  0  0  0  0  0  0  0
    0.1310    4.8790    3.5240 C   0  0  0  0  0  0  0  0  0  0  0  0
    2.7750    2.1370   -1.1400 C   0  0  0  0  0  0  0  0  0  0  0  0
    3.9900    1.8410   -2.0530 C   0  0  0  0  0  0  0  0  0  0  0  0
  1  2  1  0
  2  3  1  0
  3  4  2  0
  3  8  1  0
  4  5  1  0
  5  6  2  0
  6  7  1  0
  6 30  1  0
  7  8  2  0
  7  9  1  0
  9 10  1  1
  9 29  1  0
 11 10  1  1
 11 12  1  0
 11 24  1  0
 12 13  2  0
 13 14  1  0
 13 22  1  0
 14 15  2  0
 14 16  1  0
 16 17  1  6
 16 18  1  0
 18 19  1  0
 19 20  1  6
 19 21  1  0
 22 23  1  0
 22 24  2  0
 24 25  1  0
 25 26  2  0
 25 27  1  0
 27 28  1  0
 29 30  1  0
M  END
