
     RDKit          3D

 30 32  0  0  0  0  0  0  0  0999 V2000
   -1.3240    4.2160    2.4850 C   0  0  0  0  0  0  0  0  0  0  0  0
   -1.7130    2.9600    2.4410 C   0  0  0  0  0  0  0  0  0  0  0  0
   -1.5410    2.1820    1.2050 C   0  0  0  0  0  0  0  0  0  0  0  0
   -1.9120    0.9460    1.1230 C   0  0  0  0  0  0  0  0  0  0  0  0
   -2.5220    0.2840    2.2830 C   0  0  0  0  0  0  0  0  0  0  0  0
   -2.7000    0.9310    3.4090 C   0  0  0  0  0  0  0  0  0  0  0  0
   -2.3260    2.3520    3.6390 C   0  0  0  0  0  0  0  0  0  0  0  0
   -2.9630   -1.0690    2.3030 N   0  0  0  0  0  0  0  0  0  0  0  0
   -3.5090   -1.8420    1.2370 C   0  0  1  0  0  0  0  0  0  0  0  0
   -4.8770   -1.3640    0.8480 C   0  0  0  0  0  0  0  0  0  0  0  0
   -2.5940   -2.1090    0.0670 C   0  0  1  0  0  0  0  0  0  0  0  0
   -3.0670   -2.9360   -0.7410 O   0  0  0  0  0  0  0  0  0  0  0  0
   -3.5230   -3.7680   -1.5390 C   0  0  0  0  0  0  0  0  0  0  0  0
   -4.8850   -3.3740   -2.2030 C   0  0  0  0  0  0  0  0  0  0  0  0
   -2.1490   -0.8470   -0.6040 C   0  0  0  0  0  0  0  0  0  0  0  0
   -2.2670   -0.9260   -1.8580 O   0  0  0  0  0  0  0  0  0  0  0  0
   -1.6320    0.4040   -0.1840 N   0  0  0  0  0  0  0  0  0  0  0  0
   -0.7700    1.1290   -1.0760 C   0  0  0  0  0  0  0  0  0  0  0  0
    0.6900    0.8310   -0.8250 C   0  0  1  0  0  0  0  0  0  0  0  0
    0.9150   -0.5720   -0.9430 O   0  0  0  0  0  0  0  0  0  0  0  0
    1.5700    1.3740   -1.9670 C   0  0  0  0  0  0  0  0  0  0  0  0
    2.9840    1.0460   -1.6400 C   0  0  0  0  0  0  0  0  0  0  0  0
    3.5590   -0.1520   -1.9470 C   0  0  0  0  0  0  0  0  0  0  0  0
    4.8810   -0.4590   -1.6500 C   0  0  0  0  0  0  0  0  0  0  0  0
    5.6670    0.4840   -1.0130 C   0  0  0  0  0  0  0  0  0  0  0  0
    7.0560    0.2340   -0.6770 C   0  0  0  0  0  0  0  0  0  0  0  0
    8.2300    0.0020   -0.3990 C   0  0  0  0  0  0  0  0  0  0  0  0
    9.6130   -0.2950   -0.0790 C   0  0  0  0  0  0  0  0  0  0  0  0
    5.1160    1.6840   -0.6990 C   0  0  0  0  0  0  0  0  0  0  0  0
    3.8020    1.9950   -0.9910 C   0  0  0  0  0  0  0  0  0  0  0  0
  1  2  2  0
  2  3  1  0
  2  7  1  0
  3  4  2  0
  4  5  1  0
  4 17  1  0
  5  6  2  0
  5  8  1  0
  6  7  1  0
  8  9  1  0
  9 10  1  6
  9 11  1  0
 11 12  1  6
 11 15  1  0
 12 13  1  0
 13 14  1  0
 15 16  2  0
 15 17  1  0
 17 18  1  0
 18 19  1  0
 19 20  1  6
 19 21  1  0
 21 22  1  0
 22 23  2  0
 22 30  1  0
 23 24  1  0
 24 25  2  0
 25 26  1  0
 25 29  1  0
 26 27  3  0
 27 28  1  0
 29 30  2  0
M  END
