
     RDKit          3D

 32 35  0  0  0  0  0  0  0  0999 V2000
    7.1270    2.3420    1.7800 C   0  0  0  0  0  0  0  0  0  0  0  0
    6.7110    0.9220    1.7620 C   0  0  0  0  0  0  0  0  0  0  0  0
    7.7370   -0.1430    1.7350 C   0  0  0  0  0  0  0  0  0  0  0  0
    5.4390    0.5830    1.7700 C   0  0  0  0  0  0  0  0  0  0  0  0
    5.0940   -0.7900    1.7520 N   0  0  0  0  0  0  0  0  0  0  0  0
    4.1760   -1.3660    0.7970 C   0  0  0  0  0  0  0  0  0  0  0  0
    4.7180   -1.3740   -0.5940 C   0  0  0  0  0  0  0  0  0  0  0  0
    3.7150   -1.9600   -1.5160 C   0  0  0  0  0  0  0  0  0  0  0  0
    3.4780   -3.2620   -1.7420 N   0  0  0  0  0  0  0  0  0  0  0  0
    2.5680   -3.4230   -2.6540 N   0  0  0  0  0  0  0  0  0  0  0  0
    2.2070   -2.1640   -3.0300 C   0  0  0  0  0  0  0  0  0  0  0  0
    2.8950   -1.2490   -2.3470 N   0  0  0  0  0  0  0  0  0  0  0  0
    2.8740    0.1840   -2.5060 C   0  0  0  0  0  0  0  0  0  0  0  0
    2.0560    0.8930   -1.5170 C   0  0  0  0  0  0  0  0  0  0  0  0
    0.6220    0.5250   -1.5450 C   0  0  0  0  0  0  0  0  0  0  0  0
    0.2290   -0.2270   -2.4440 O   0  0  0  0  0  0  0  0  0  0  0  0
   -0.2700    1.0370   -0.5480 N   0  0  0  0  0  0  0  0  0  0  0  0
   -1.6320    0.7380   -0.5110 C   0  0  0  0  0  0  0  0  0  0  0  0
   -2.3560   -0.0480   -1.3600 C   0  0  0  0  0  0  0  0  0  0  0  0
   -3.7320   -0.2690   -1.2150 C   0  0  0  0  0  0  0  0  0  0  0  0
   -4.4280    0.3130   -0.1810 C   0  0  0  0  0  0  0  0  0  0  0  0
   -5.8800    0.0750   -0.0380 C   0  0  0  0  0  0  0  0  0  0  0  0
   -6.5010   -0.7220   -0.9500 N   0  0  0  0  0  0  0  0  0  0  0  0
   -7.8040   -1.0060   -0.9230 C   0  0  0  0  0  0  0  0  0  0  0  0
   -8.6060   -0.4840    0.0690 C   0  0  0  0  0  0  0  0  0  0  0  0
   -9.9400   -0.5490    0.4120 C   0  0  0  0  0  0  0  0  0  0  0  0
  -10.1580    0.2170    1.5540 C   0  0  0  0  0  0  0  0  0  0  0  0
   -8.9410    0.7610    1.9180 C   0  0  0  0  0  0  0  0  0  0  0  0
   -7.9550    0.3700    1.0500 C   0  0  0  0  0  0  0  0  0  0  0  0
   -6.6120    0.6080    0.9450 N   0  0  0  0  0  0  0  0  0  0  0  0
   -3.7340    1.1050    0.6860 C   0  0  0  0  0  0  0  0  0  0  0  0
   -2.3700    1.3190    0.5350 C   0  0  0  0  0  0  0  0  0  0  0  0
  1  2  1  0
  2  3  1  0
  2  4  2  3
  4  5  1  0
  5  6  1  0
  6  7  1  0
  7  8  1  0
  8  9  2  0
  8 12  1  0
  9 10  1  0
 10 11  2  0
 11 12  1  0
 12 13  1  0
 13 14  1  0
 14 15  1  0
 15 16  2  0
 15 17  1  0
 17 18  1  0
 18 19  2  0
 18 32  1  0
 19 20  1  0
 20 21  2  0
 21 22  1  0
 21 31  1  0
 22 23  2  0
 22 30  1  0
 23 24  1  0
 24 25  2  0
 25 26  1  0
 25 29  1  0
 26 27  2  0
 27 28  1  0
 28 29  2  0
 29 30  1  0
 31 32  2  0
M  END
