
     RDKit          3D

 33 36  0  0  0  0  0  0  0  0999 V2000
    0.2490   -0.3350    0.4590 O   0  0  0  0  0  0  0  0  0  0  0  0
    0.0310    0.8290    0.0490 C   0  0  0  0  0  0  0  0  0  0  0  0
   -1.3690    1.1950    0.0450 N   0  0  0  0  0  0  0  0  0  0  0  0
   -2.4150    0.2950    0.4760 C   0  0  0  0  0  0  0  0  0  0  0  0
   -2.5100   -0.9660   -0.3360 C   0  0  0  0  0  0  0  0  0  0  0  0
   -3.6010   -1.8330    0.1870 C   0  0  2  0  0  0  0  0  0  0  0  0
   -3.6970   -3.1380   -0.6370 C   0  0  0  0  0  0  0  0  0  0  0  0
   -5.3000   -3.7060   -0.0410 S   0  0  2  0  0  0  0  0  0  0  0  0
   -5.1360   -4.8360    0.9270 O   0  0  0  0  0  0  0  0  0  0  0  0
   -6.2190   -4.0180   -1.1650 O   0  0  0  0  0  0  0  0  0  0  0  0
   -5.7880   -2.2060    0.8060 C   0  0  0  0  0  0  0  0  0  0  0  0
   -4.9080   -1.2470    0.1070 N   0  0  0  0  0  0  0  0  0  0  0  0
    1.0600    1.7360   -0.3850 C   0  0  0  0  0  0  0  0  0  0  0  0
    2.3150    1.4720   -0.3980 C   0  0  0  0  0  0  0  0  0  0  0  0
    2.9100    0.2280    0.0260 C   0  0  0  0  0  0  0  0  0  0  0  0
    2.7430   -0.1970    1.3230 C   0  0  0  0  0  0  0  0  0  0  0  0
    3.2920   -1.4020    1.7270 C   0  0  0  0  0  0  0  0  0  0  0  0
    3.9910   -2.1220    0.7830 C   0  0  0  0  0  0  0  0  0  0  0  0
    4.1400   -1.6620   -0.5150 C   0  0  0  0  0  0  0  0  0  0  0  0
    3.6020   -0.4910   -0.8960 N   0  0  0  0  0  0  0  0  0  0  0  0
    4.8410   -2.3140   -1.5840 N   0  0  0  0  0  0  0  0  0  0  0  0
    5.1940   -3.7090   -1.6050 C   0  0  0  0  0  0  0  0  0  0  0  0
    5.8760   -4.2060   -0.5610 O   0  0  0  0  0  0  0  0  0  0  0  0
    5.8890   -3.5960    0.6360 C   0  0  0  0  0  0  0  0  0  0  0  0
    4.5450   -3.4030    1.3080 C   0  0  0  0  0  0  0  0  0  0  0  0
    0.6050    3.0960   -0.8580 C   0  0  0  0  0  0  0  0  0  0  0  0
   -0.0630    3.7390    0.2080 O   0  0  0  0  0  0  0  0  0  0  0  0
   -0.6050    4.9970    0.1180 C   0  0  0  0  0  0  0  0  0  0  0  0
   -1.2350    5.5360    1.2120 C   0  0  0  0  0  0  0  0  0  0  0  0
   -1.7770    6.8170    1.0910 C   0  0  0  0  0  0  0  0  0  0  0  0
   -1.6610    7.4850   -0.1110 C   0  0  0  0  0  0  0  0  0  0  0  0
   -1.0420    6.9510   -1.1800 N   0  0  0  0  0  0  0  0  0  0  0  0
   -0.5290    5.7290   -1.0530 C   0  0  0  0  0  0  0  0  0  0  0  0
  1  2  2  0
  2  3  1  0
  2 13  1  0
  3  4  1  0
  4  5  1  0
  6  5  1  6
  6  7  1  0
  6 12  1  0
  8  7  1  6
  8  9  2  0
  8 10  2  0
  8 11  1  0
 11 12  1  0
 13 14  2  3
 13 26  1  0
 14 15  1  0
 15 16  2  0
 15 20  1  0
 16 17  1  0
 17 18  2  0
 18 19  1  0
 18 25  1  0
 19 20  2  0
 19 21  1  0
 21 22  1  0
 22 23  1  0
 23 24  1  0
 24 25  1  0
 26 27  1  0
 27 28  1  0
 28 29  2  0
 28 33  1  0
 29 30  1  0
 30 31  2  0
 31 32  1  0
 32 33  2  0
M  CHG  1  12   1
M  END
