
     RDKit          3D

 33 38  0  0  0  0  0  0  0  0999 V2000
   -1.9510    1.3250   -2.6120 C   0  0  0  0  0  0  0  0  0  0  0  0
   -2.3040    2.1380   -1.4220 C   0  0  0  0  0  0  0  0  0  0  0  0
   -1.4570    1.9900   -0.2150 C   0  0  2  0  0  0  0  0  0  0  0  0
   -0.0370    2.3800   -0.5070 C   0  0  2  0  0  0  0  0  0  0  0  0
    0.6030    1.1200   -0.9770 C   0  0  2  0  0  0  0  0  0  0  0  0
   -0.1490    0.0650   -0.2980 C   0  0  0  0  0  0  0  0  0  0  0  0
    0.1440   -1.1520   -0.2150 O   0  0  0  0  0  0  0  0  0  0  0  0
   -1.3120    0.6370    0.2820 N   0  0  0  0  0  0  0  0  0  0  0  0
   -2.1820   -0.0310    1.2220 C   0  0  0  0  0  0  0  0  0  0  0  0
   -3.2890   -0.7870    0.5970 C   0  0  0  0  0  0  0  0  0  0  0  0
   -4.5280   -0.2060    0.4320 C   0  0  0  0  0  0  0  0  0  0  0  0
   -5.5150   -0.9680   -0.1520 C   0  0  0  0  0  0  0  0  0  0  0  0
   -5.3050   -2.2790   -0.5730 C   0  0  0  0  0  0  0  0  0  0  0  0
   -4.0650   -2.8600   -0.4070 C   0  0  0  0  0  0  0  0  0  0  0  0
   -3.0770   -2.0950    0.1790 C   0  0  0  0  0  0  0  0  0  0  0  0
   -4.1450   -4.1590   -0.9120 O   0  0  0  0  0  0  0  0  0  0  0  0
   -5.5150   -4.5280   -1.0280 C   0  0  0  0  0  0  0  0  0  0  0  0
   -6.1050   -3.2390   -1.1730 O   0  0  0  0  0  0  0  0  0  0  0  0
    2.0300    1.2670   -0.4950 C   0  0  2  0  0  0  0  0  0  0  0  0
    2.6250    0.0210    0.0040 C   0  0  0  0  0  0  0  0  0  0  0  0
    3.4670   -0.6980   -0.8140 C   0  0  0  0  0  0  0  0  0  0  0  0
    4.0590   -1.8670   -0.4200 C   0  0  0  0  0  0  0  0  0  0  0  0
    3.8160   -2.3760    0.8630 C   0  0  0  0  0  0  0  0  0  0  0  0
    4.4620   -3.6210    1.2480 C   0  0  0  0  0  0  0  0  0  0  0  0
    5.3150   -4.2910    0.3390 N   0  0  0  0  0  0  0  0  0  0  0  0
    4.2850   -4.1400    2.3960 N   0  0  0  0  0  0  0  0  0  0  0  0
    2.9730   -1.6370    1.6530 C   0  0  0  0  0  0  0  0  0  0  0  0
    2.3700   -0.4530    1.2630 C   0  0  0  0  0  0  0  0  0  0  0  0
    2.0680    2.3680    0.4360 N   0  0  1  0  0  0  0  0  0  0  0  0
    2.5780    3.5910   -0.1560 C   0  0  0  0  0  0  0  0  0  0  0  0
    1.9290    4.7160    0.6240 C   0  0  0  0  0  0  0  0  0  0  0  0
    0.6510    4.1400    1.1400 C   0  0  0  0  0  0  0  0  0  0  0  0
    0.7210    2.6840    0.7680 C   0  0  1  0  0  0  0  0  0  0  0  0
  1  2  1  0
  3  2  1  6
  4  3  1  1
  3  8  1  0
  4  5  1  0
  4 33  1  0
  5  6  1  1
  5 19  1  0
  6  7  2  0
  6  8  1  0
  8  9  1  0
  9 10  1  0
 10 11  2  0
 10 15  1  0
 11 12  1  0
 12 13  2  0
 13 14  1  0
 13 18  1  0
 14 15  2  0
 14 16  1  0
 16 17  1  0
 17 18  1  0
 19 20  1  1
 19 29  1  0
 20 21  2  0
 20 28  1  0
 21 22  1  0
 22 23  2  0
 23 24  1  0
 23 27  1  0
 24 25  1  0
 24 26  2  0
 27 28  2  0
 29 30  1  6
 29 33  1  0
 30 31  1  0
 31 32  1  0
 33 32  1  6
M  CHG  2  26   1  29   1
M  END
