
     RDKit          3D

 32 35  0  0  0  0  0  0  0  0999 V2000
    4.6650    1.6830    0.2840 C   0  0  0  0  0  0  0  0  0  0  0  0
    5.7510    0.9560   -0.3920 C   0  0  0  0  0  0  0  0  0  0  0  0
    5.7040   -0.3170   -0.4910 N   0  0  0  0  0  0  0  0  0  0  0  0
    4.6420   -1.1010    0.0240 C   0  0  0  0  0  0  0  0  0  0  0  0
    3.3680   -1.0430   -0.2150 O   0  0  0  0  0  0  0  0  0  0  0  0
    2.6680   -1.9260    0.4380 C   0  0  0  0  0  0  0  0  0  0  0  0
    1.2390   -2.1820    0.4460 C   0  0  0  0  0  0  0  0  0  0  0  0
    0.3320   -1.5440   -0.2390 C   0  0  0  0  0  0  0  0  0  0  0  0
    0.5020   -0.4510   -1.1540 C   0  0  0  0  0  0  0  0  0  0  0  0
    1.6140    0.1830   -1.5350 N   0  0  0  0  0  0  0  0  0  0  0  0
    1.3810    1.1640   -2.4140 C   0  0  0  0  0  0  0  0  0  0  0  0
    2.2140    2.0710   -3.0720 C   0  0  0  0  0  0  0  0  0  0  0  0
    1.6090    2.9650   -3.9310 C   0  0  0  0  0  0  0  0  0  0  0  0
    0.2280    2.9620   -4.1320 C   0  0  0  0  0  0  0  0  0  0  0  0
   -0.5650    2.0530   -3.4660 C   0  0  0  0  0  0  0  0  0  0  0  0
    0.0250    1.1550   -2.6060 C   0  0  0  0  0  0  0  0  0  0  0  0
   -0.5110    0.1690   -1.8370 N   0  0  0  0  0  0  0  0  0  0  0  0
   -1.8050   -0.1560   -1.7700 N   0  0  0  0  0  0  0  0  0  0  0  0
   -2.8620    0.0690   -1.2080 C   0  0  0  0  0  0  0  0  0  0  0  0
   -4.0130   -0.7060   -1.6470 N   0  0  0  0  0  0  0  0  0  0  0  0
   -3.1250    1.0220   -0.1390 C   0  0  2  0  0  0  0  0  0  0  0  0
   -1.9460    1.9250    0.0670 C   0  0  0  0  0  0  0  0  0  0  0  0
   -3.4490    0.2710    1.0540 N   0  0  0  0  0  0  0  0  0  0  0  0
   -4.5950   -0.5320    1.0360 C   0  0  2  0  0  0  0  0  0  0  0  0
   -5.9350    0.0920    0.8470 C   0  0  0  0  0  0  0  0  0  0  0  0
   -6.0910    0.1880    2.2650 N   0  0  0  0  0  0  0  0  0  0  0  0
   -7.3410   -0.3140    2.7960 C   0  0  0  0  0  0  0  0  0  0  0  0
   -5.0520   -0.8250    2.4660 C   0  0  0  0  0  0  0  0  0  0  0  0
    3.5920   -2.6310    1.1800 C   0  0  0  0  0  0  0  0  0  0  0  0
    4.8400   -2.1230    0.9290 C   0  0  0  0  0  0  0  0  0  0  0  0
    6.1590   -2.5560    1.4950 C   0  0  0  0  0  0  0  0  0  0  0  0
    6.6470   -1.5970    2.5460 C   0  0  0  0  0  0  0  0  0  0  0  0
  1  2  1  0
  2  3  2  3
  3  4  1  0
  4  5  1  0
  4 30  2  0
  5  6  1  0
  6  7  1  0
  6 29  2  0
  7  8  2  3
  8  9  1  0
  9 10  2  0
  9 17  1  0
 10 11  1  0
 11 12  2  0
 11 16  1  0
 12 13  1  0
 13 14  2  0
 14 15  1  0
 15 16  2  0
 16 17  1  0
 17 18  1  0
 18 19  2  3
 19 20  1  0
 19 21  1  0
 21 22  1  1
 21 23  1  0
 24 23  1  1
 24 25  1  0
 24 28  1  0
 25 26  1  0
 26 27  1  0
 26 28  1  0
 29 30  1  0
 30 31  1  0
 31 32  1  0
M  END
