
     RDKit          3D

 33 35  0  0  0  0  0  0  0  0999 V2000
   10.0000    0.4790   -0.9390 C   0  0  0  0  0  0  0  0  0  0  0  0
    9.1130   -0.4250   -0.1040 C   0  0  0  0  0  0  0  0  0  0  0  0
    7.9570   -0.8660   -0.9530 C   0  0  0  0  0  0  0  0  0  0  0  0
    7.0280   -1.7380   -0.3110 N   0  0  0  0  0  0  0  0  0  0  0  0
    6.3010   -1.3630    0.8550 C   0  0  0  0  0  0  0  0  0  0  0  0
    6.5350   -0.1840    1.2930 O   0  0  0  0  0  0  0  0  0  0  0  0
    5.3450   -2.2750    1.5120 C   0  0  0  0  0  0  0  0  0  0  0  0
    3.8750   -2.5250    0.5780 S   0  0  2  0  0  0  0  0  0  0  0  0
    3.0280   -3.5390    1.3210 O   0  0  0  0  0  0  0  0  0  0  0  0
    4.2460   -3.2210   -0.7240 O   0  0  0  0  0  0  0  0  0  0  0  0
    2.9790   -1.0590    0.3000 C   0  0  1  0  0  0  0  0  0  0  0  0
    3.5950   -0.1090   -0.6580 C   0  0  0  0  0  0  0  0  0  0  0  0
    2.7840    1.2050   -0.6000 C   0  0  0  0  0  0  0  0  0  0  0  0
    1.4220    0.8120   -1.1820 C   0  0  0  0  0  0  0  0  0  0  0  0
    0.8570   -0.1400   -0.2550 N   0  0  0  0  0  0  0  0  0  0  0  0
   -0.2150    0.0370    0.6220 C   0  0  0  0  0  0  0  0  0  0  0  0
   -0.5440   -1.0390    1.2790 O   0  0  0  0  0  0  0  0  0  0  0  0
   -1.0050    1.2250    0.9190 C   0  0  1  0  0  0  0  0  0  0  0  0
   -1.3800    2.1190   -0.2250 C   0  0  0  0  0  0  0  0  0  0  0  0
   -2.6250    2.9220    0.2200 C   0  0  0  0  0  0  0  0  0  0  0  0
   -3.8500    1.9990    0.1050 C   0  0  0  0  0  0  0  0  0  0  0  0
   -3.3840    0.6950    0.6020 N   0  0  0  0  0  0  0  0  0  0  0  0
   -3.9200   -0.5280    0.1500 C   0  0  0  0  0  0  0  0  0  0  0  0
   -3.4910   -1.6000    0.6080 O   0  0  0  0  0  0  0  0  0  0  0  0
   -4.9450   -0.5440   -0.8260 N   0  0  0  0  0  0  0  0  0  0  0  0
   -6.1980   -0.2430   -0.2050 C   0  0  1  0  0  0  0  0  0  0  0  0
   -7.0690    0.6450   -1.1020 C   0  0  0  0  0  0  0  0  0  0  0  0
   -8.1400    1.1890   -0.1640 C   0  0  0  0  0  0  0  0  0  0  0  0
   -8.9150    0.0160    0.3930 C   0  0  0  0  0  0  0  0  0  0  0  0
   -8.0860   -0.9780    1.0200 N   0  0  0  0  0  0  0  0  0  0  0  0
   -7.0350   -1.4590    0.1170 C   0  0  0  0  0  0  0  0  0  0  0  0
   -2.3230    0.7940    1.5910 C   0  0  0  0  0  0  0  0  0  0  0  0
    1.5950   -1.4430   -0.2710 C   0  0  0  0  0  0  0  0  0  0  0  0
  1  2  1  0
  2  3  1  0
  3  4  1  0
  4  5  1  0
  5  6  2  0
  5  7  1  0
  8  7  1  1
  8  9  2  0
  8 10  2  0
  8 11  1  0
 11 12  1  6
 11 33  1  0
 12 13  1  0
 13 14  1  0
 14 15  1  0
 15 16  1  0
 15 33  1  0
 16 17  2  0
 18 16  1  6
 18 19  1  0
 18 32  1  0
 19 20  1  0
 20 21  1  0
 21 22  1  0
 22 23  1  0
 22 32  1  0
 23 24  2  0
 23 25  1  0
 26 25  1  6
 26 27  1  0
 26 31  1  0
 27 28  1  0
 28 29  1  0
 29 30  1  0
 30 31  1  0
M  CHG  1  25   1
M  END
