
     RDKit          3D

 32 35  0  0  0  0  0  0  0  0999 V2000
   -6.8000   -0.8480    1.5410 C   0  0  0  0  0  0  0  0  0  0  0  0
   -6.0820   -0.2180    0.6540 C   0  0  0  0  0  0  0  0  0  0  0  0
   -6.5520    0.4830   -0.5580 C   0  0  0  0  0  0  0  0  0  0  0  0
   -7.6690    0.2500   -1.2290 C   0  0  0  0  0  0  0  0  0  0  0  0
   -7.9470    1.0800   -2.4290 C   0  0  0  0  0  0  0  0  0  0  0  0
   -5.5060    1.4970   -0.8530 C   0  0  0  0  0  0  0  0  0  0  0  0
   -4.3620    1.2230    0.0640 C   0  0  0  0  0  0  0  0  0  0  0  0
   -4.6640   -0.0800    0.6860 N   0  0  0  0  0  0  0  0  0  0  0  0
   -3.6560   -0.9370    1.1870 C   0  0  0  0  0  0  0  0  0  0  0  0
   -3.8590   -2.2700    1.4830 C   0  0  0  0  0  0  0  0  0  0  0  0
   -2.8230   -3.0440    1.9840 C   0  0  0  0  0  0  0  0  0  0  0  0
   -1.6000   -2.4840    2.1830 C   0  0  0  0  0  0  0  0  0  0  0  0
   -1.3890   -1.1530    1.8890 C   0  0  0  0  0  0  0  0  0  0  0  0
   -0.1280   -0.5340    2.0930 N   0  0  0  0  0  0  0  0  0  0  0  0
    0.0800    0.8450    1.7630 C   0  0  0  0  0  0  0  0  0  0  0  0
   -0.0590    1.0840    0.2950 C   0  0  0  0  0  0  0  0  0  0  0  0
    0.8940    0.3090   -0.5660 C   0  0  0  0  0  0  0  0  0  0  0  0
    2.3260    0.6240   -0.2770 C   0  0  0  0  0  0  0  0  0  0  0  0
    3.3040    0.0020   -0.9510 N   0  0  0  0  0  0  0  0  0  0  0  0
    4.6210    0.2190   -0.7670 C   0  0  0  0  0  0  0  0  0  0  0  0
    5.5400   -0.5300   -1.5210 N   0  0  0  0  0  0  0  0  0  0  0  0
    6.9480   -0.4360   -1.4930 C   0  0  0  0  0  0  0  0  0  0  0  0
    7.6640   -1.6420   -1.5000 C   0  0  0  0  0  0  0  0  0  0  0  0
    9.0390   -1.6460   -1.5110 C   0  0  0  0  0  0  0  0  0  0  0  0
    9.7770   -0.4840   -1.5150 C   0  0  0  0  0  0  0  0  0  0  0  0
    9.0900    0.7080   -1.5090 C   0  0  0  0  0  0  0  0  0  0  0  0
    7.6860    0.7180   -1.4980 C   0  0  0  0  0  0  0  0  0  0  0  0
    5.0000    1.1170    0.1510 N   0  0  0  0  0  0  0  0  0  0  0  0
    4.0150    1.7590    0.8440 C   0  0  0  0  0  0  0  0  0  0  0  0
    4.4000    2.6090    1.7110 O   0  0  0  0  0  0  0  0  0  0  0  0
    2.7100    1.5240    0.6420 N   0  0  0  0  0  0  0  0  0  0  0  0
   -2.4240   -0.4450    1.4070 N   0  0  0  0  0  0  0  0  0  0  0  0
  1  2  2  0
  2  3  1  0
  2  8  1  0
  3  4  2  3
  3  6  1  0
  4  5  1  0
  6  7  1  0
  7  8  1  0
  8  9  1  0
  9 10  2  0
  9 32  1  0
 10 11  1  0
 11 12  2  0
 12 13  1  0
 13 14  1  0
 13 32  2  0
 14 15  1  0
 15 16  1  0
 16 17  1  0
 17 18  1  0
 18 19  1  0
 18 31  2  0
 19 20  2  0
 20 21  1  0
 20 28  1  0
 21 22  1  0
 22 23  2  0
 22 27  1  0
 23 24  1  0
 24 25  2  0
 25 26  1  0
 26 27  2  0
 28 29  1  0
 29 30  2  0
 29 31  1  0
M  END
