
     RDKit          3D

 33 36  0  0  0  0  0  0  0  0999 V2000
    1.2010    6.3240    0.2960 C   0  0  0  0  0  0  0  0  0  0  0  0
    1.0710    4.8730    0.6190 C   0  0  0  0  0  0  0  0  0  0  0  0
    0.3070    4.4070    1.6630 C   0  0  0  0  0  0  0  0  0  0  0  0
    0.2060    3.0540    1.9230 C   0  0  0  0  0  0  0  0  0  0  0  0
    0.9000    2.1970    1.0960 C   0  0  0  0  0  0  0  0  0  0  0  0
    0.8310    0.7040    1.3040 C   0  0  2  0  0  0  0  0  0  0  0  0
    2.1460    0.1580    1.2220 N   0  0  0  0  0  0  0  0  0  0  0  0
    2.3410   -0.5790    0.2020 C   0  0  0  0  0  0  0  0  0  0  0  0
    3.5580   -1.2340   -0.1090 N   0  0  0  0  0  0  0  0  0  0  0  0
    4.3980   -1.8170    0.9070 C   0  0  0  0  0  0  0  0  0  0  0  0
    5.6710   -2.3970    0.3390 C   0  0  2  0  0  0  0  0  0  0  0  0
    5.2880   -3.5390   -0.5870 C   0  0  0  0  0  0  0  0  0  0  0  0
    6.8280   -4.4700   -0.4810 S   0  0  1  0  0  0  0  0  0  0  0  0
    6.6010   -5.8820   -0.1000 O   0  0  0  0  0  0  0  0  0  0  0  0
    7.6460   -4.2920   -1.7200 O   0  0  0  0  0  0  0  0  0  0  0  0
    7.5320   -3.5390    0.8860 C   0  0  0  0  0  0  0  0  0  0  0  0
    6.3860   -2.9400    1.3830 O   0  0  0  0  0  0  0  0  0  0  0  0
    1.0790   -0.6220   -0.5610 C   0  0  0  0  0  0  0  0  0  0  0  0
    0.9160   -1.2530   -1.6220 O   0  0  0  0  0  0  0  0  0  0  0  0
    0.1380    0.1680    0.1330 N   0  0  0  0  0  0  0  0  0  0  0  0
   -1.2190    0.4220   -0.2020 N   0  0  0  0  0  0  0  0  0  0  0  0
   -1.5730    0.7590   -1.5280 C   0  0  0  0  0  0  0  0  0  0  0  0
   -0.6070    0.8110   -2.3670 O   0  0  0  0  0  0  0  0  0  0  0  0
   -2.9260    1.0420   -1.9860 C   0  0  0  0  0  0  0  0  0  0  0  0
   -3.9680    0.9790   -1.0010 N   0  0  0  0  0  0  0  0  0  0  0  0
   -4.8070   -0.2020   -1.2150 C   0  0  1  0  0  0  0  0  0  0  0  0
   -4.2180   -1.4420   -0.6010 C   0  0  0  0  0  0  0  0  0  0  0  0
   -5.3950   -2.3770   -0.2900 C   0  0  0  0  0  0  0  0  0  0  0  0
   -6.1810   -1.8790    0.8830 C   0  0  0  0  0  0  0  0  0  0  0  0
   -6.0860   -0.3660    0.8900 C   0  0  0  0  0  0  0  0  0  0  0  0
   -6.1520    0.0840   -0.5740 C   0  0  0  0  0  0  0  0  0  0  0  0
    1.6680    2.6590    0.0500 C   0  0  0  0  0  0  0  0  0  0  0  0
    1.7750    4.0080   -0.2170 C   0  0  0  0  0  0  0  0  0  0  0  0
  1  2  1  0
  2  3  2  0
  2 33  1  0
  3  4  1  0
  4  5  2  0
  6  5  1  6
  5 32  1  0
  6  7  1  0
  6 20  1  0
  7  8  2  0
  8  9  1  0
  8 18  1  0
  9 10  1  0
 11 10  1  1
 11 12  1  0
 11 17  1  0
 13 12  1  6
 13 14  2  0
 13 15  2  0
 13 16  1  0
 16 17  1  0
 18 19  2  0
 18 20  1  0
 20 21  1  0
 21 22  1  0
 22 23  2  0
 22 24  1  0
 24 25  1  0
 26 25  1  1
 26 27  1  0
 26 31  1  0
 27 28  1  0
 28 29  1  0
 29 30  1  0
 30 31  1  0
 32 33  2  0
M  CHG  1  25   1
M  END
