
     RDKit          3D

 33 35  0  0  0  0  0  0  0  0999 V2000
   -8.1400    1.9310    2.2180 C   0  0  0  0  0  0  0  0  0  0  0  0
   -6.8790    1.3770    1.6940 C   0  0  0  0  0  0  0  0  0  0  0  0
   -6.7970    1.0740    0.4140 C   0  0  0  0  0  0  0  0  0  0  0  0
   -7.8650    1.2270   -0.6160 C   0  0  0  0  0  0  0  0  0  0  0  0
   -7.0420    1.6290   -1.8220 C   0  0  0  0  0  0  0  0  0  0  0  0
   -5.7570    0.8490   -1.7290 C   0  0  0  0  0  0  0  0  0  0  0  0
   -5.6350    0.5130   -0.3030 C   0  0  0  0  0  0  0  0  0  0  0  0
   -4.6740   -0.1690    0.2890 C   0  0  0  0  0  0  0  0  0  0  0  0
   -3.5800   -0.6750   -0.5070 C   0  0  0  0  0  0  0  0  0  0  0  0
   -3.5560   -0.4610   -1.7390 O   0  0  0  0  0  0  0  0  0  0  0  0
   -2.5690   -1.3870    0.0830 O   0  0  0  0  0  0  0  0  0  0  0  0
   -1.4620   -1.9170   -0.6140 C   0  0  2  0  0  0  0  0  0  0  0  0
   -1.3370   -3.4070   -0.4920 C   0  0  0  0  0  0  0  0  0  0  0  0
   -0.2010   -1.2390   -0.1500 C   0  0  0  0  0  0  0  0  0  0  0  0
   -0.2190   -0.3500    0.7280 O   0  0  0  0  0  0  0  0  0  0  0  0
    1.0060   -1.6450   -0.7450 N   0  0  0  0  0  0  0  0  0  0  0  0
    2.2900   -1.0790   -0.3920 C   0  0  1  0  0  0  0  0  0  0  0  0
    3.3810   -1.6870   -1.1880 C   0  0  0  0  0  0  0  0  0  0  0  0
    3.0370   -2.5800   -2.0190 O   0  0  0  0  0  0  0  0  0  0  0  0
    4.7310   -1.3490   -1.0850 N   0  0  0  0  0  0  0  0  0  0  0  0
    5.3020   -0.3640   -0.1990 C   0  0  0  0  0  0  0  0  0  0  0  0
    6.7420   -0.6450    0.1610 C   0  0  0  0  0  0  0  0  0  0  0  0
    7.5650   -0.9600   -0.9710 N   0  0  0  0  0  0  0  0  0  0  0  0
    6.8110   -1.0550   -2.2050 C   0  0  0  0  0  0  0  0  0  0  0  0
    5.6930   -2.0440   -1.9490 C   0  0  0  0  0  0  0  0  0  0  0  0
    2.2540    0.7310   -0.5370 S   0  0  0  0  0  0  0  0  0  0  0  0
    2.3200    1.0970    1.2280 C   0  0  0  0  0  0  0  0  0  0  0  0
    2.4690    2.2760    1.6770 N   0  0  0  0  0  0  0  0  0  0  0  0
    2.5310    2.6520    3.0550 C   0  0  0  0  0  0  0  0  0  0  0  0
    3.0650    4.0650    3.1690 C   0  0  0  0  0  0  0  0  0  0  0  0
    2.1740   -0.1550    1.8460 N   0  0  0  0  0  0  0  0  0  0  0  0
    2.4710   -1.2580    1.0550 C   0  0  0  0  0  0  0  0  0  0  0  0
    2.8810   -2.3770    1.5260 O   0  0  0  0  0  0  0  0  0  0  0  0
  1  2  1  0
  2  3  2  3
  3  4  1  0
  3  7  1  0
  4  5  1  0
  5  6  1  0
  6  7  1  0
  7  8  2  3
  8  9  1  0
  9 10  2  0
  9 11  1  0
 11 12  1  0
 12 13  1  1
 12 14  1  0
 14 15  2  0
 14 16  1  0
 17 16  1  6
 17 18  1  0
 17 26  1  0
 17 32  1  0
 18 19  2  0
 18 20  1  0
 20 21  1  0
 20 25  1  0
 21 22  1  0
 22 23  1  0
 23 24  1  0
 24 25  1  0
 26 27  1  0
 27 28  2  3
 27 31  1  0
 28 29  1  0
 29 30  1  0
 31 32  1  0
 32 33  2  0
M  CHG  1  23   1
M  END
