
     RDKit          3D

 38 41  0  0  0  0  0  0  0  0999 V2000
    8.9010    0.9270   -4.8300 C   0  0  0  0  0  0  0  0  0  0  0  0
    8.3340   -0.0850   -4.0470 O   0  0  0  0  0  0  0  0  0  0  0  0
    7.7110    0.1170   -2.8220 C   0  0  0  0  0  0  0  0  0  0  0  0
    7.6390    1.2710   -2.3680 O   0  0  0  0  0  0  0  0  0  0  0  0
    7.1430   -1.0190   -2.0680 C   0  0  0  0  0  0  0  0  0  0  0  0
    6.5430   -0.6250   -0.8320 N   0  0  0  0  0  0  0  0  0  0  0  0
    5.4300    0.2370   -0.7960 C   0  0  0  0  0  0  0  0  0  0  0  0
    4.8130    0.6580   -1.9520 C   0  0  0  0  0  0  0  0  0  0  0  0
    3.7290    1.5120   -1.8220 C   0  0  0  0  0  0  0  0  0  0  0  0
    3.2520    1.9480   -0.6130 C   0  0  0  0  0  0  0  0  0  0  0  0
    3.8650    1.5300    0.5450 C   0  0  0  0  0  0  0  0  0  0  0  0
    3.4060    1.9570    1.8430 N   0  0  0  0  0  0  0  0  0  0  0  0
    3.2080    0.8740    3.1430 S   0  0  2  0  0  0  0  0  0  0  0  0
    2.6900    1.6290    4.3370 O   0  0  0  0  0  0  0  0  0  0  0  0
    4.5360    0.2680    3.4820 O   0  0  0  0  0  0  0  0  0  0  0  0
    1.9820   -0.3820    2.7700 C   0  0  0  0  0  0  0  0  0  0  0  0
    0.6950    0.3320    2.5240 C   0  0  0  0  0  0  0  0  0  0  0  0
   -0.4190   -0.6010    2.1950 C   0  0  0  0  0  0  0  0  0  0  0  0
   -0.1260   -1.8220    2.1110 O   0  0  0  0  0  0  0  0  0  0  0  0
   -1.7480   -0.1470    1.9870 N   0  0  0  0  0  0  0  0  0  0  0  0
   -2.7710   -1.0850    1.6730 C   0  0  1  0  0  0  0  0  0  0  0  0
   -3.9080   -1.0550    2.6290 C   0  0  0  0  0  0  0  0  0  0  0  0
   -3.9840   -0.7330    3.9610 C   0  0  0  0  0  0  0  0  0  0  0  0
   -5.2010   -0.7870    4.6510 C   0  0  0  0  0  0  0  0  0  0  0  0
   -6.3210   -1.1630    3.9860 C   0  0  0  0  0  0  0  0  0  0  0  0
   -6.2320   -1.4860    2.6390 C   0  0  0  0  0  0  0  0  0  0  0  0
   -5.0480   -1.4390    1.9490 C   0  0  0  0  0  0  0  0  0  0  0  0
   -4.6850   -1.7240    0.5400 C   0  0  2  0  0  0  0  0  0  0  0  0
   -4.2070   -3.0350    0.5020 O   0  0  0  0  0  0  0  0  0  0  0  0
   -3.5170   -0.7260    0.3870 C   0  0  2  0  0  0  0  0  0  0  0  0
   -2.7160   -0.9820   -0.8250 C   0  0  0  0  0  0  0  0  0  0  0  0
   -3.2920   -0.6810   -2.1410 C   0  0  0  0  0  0  0  0  0  0  0  0
   -3.6470    0.7360   -2.4580 C   0  0  1  0  0  0  0  0  0  0  0  0
   -4.2080    0.6980   -3.8930 C   0  0  0  0  0  0  0  0  0  0  0  0
   -5.6410    1.1430   -3.6450 C   0  0  0  0  0  0  0  0  0  0  0  0
   -5.4950    2.0710   -2.6170 O   0  0  0  0  0  0  0  0  0  0  0  0
   -4.7590    1.3250   -1.6740 C   0  0  0  0  0  0  0  0  0  0  0  0
    4.9430    0.6820    0.4320 C   0  0  0  0  0  0  0  0  0  0  0  0
  1  2  1  0
  2  3  1  0
  3  4  2  0
  3  5  1  0
  5  6  1  0
  6  7  1  0
  7  8  2  0
  7 38  1  0
  8  9  1  0
  9 10  2  0
 10 11  1  0
 11 12  1  0
 11 38  2  0
 12 13  1  0
 13 14  2  0
 13 15  2  0
 13 16  1  6
 16 17  1  0
 17 18  1  0
 18 19  2  0
 18 20  1  0
 21 20  1  1
 21 22  1  0
 21 30  1  0
 22 23  2  0
 22 27  1  0
 23 24  1  0
 24 25  2  0
 25 26  1  0
 26 27  2  0
 27 28  1  0
 28 29  1  1
 28 30  1  0
 30 31  1  6
 31 32  1  0
 33 32  1  1
 33 34  1  0
 33 37  1  0
 34 35  1  0
 35 36  1  0
 36 37  1  0
M  END
