
     RDKit          3D

 34 40  0  0  0  0  0  0  0  0999 V2000
    6.9390   -1.8100   -1.1420 N   0  0  0  0  0  0  0  0  0  0  0  0
    6.3450   -1.7610    0.1330 C   0  0  0  0  0  0  0  0  0  0  0  0
    6.9200   -2.3370    1.1150 N   0  0  0  0  0  0  0  0  0  0  0  0
    5.0930   -1.0570    0.3070 C   0  0  0  0  0  0  0  0  0  0  0  0
    4.4330   -0.9510    1.5110 C   0  0  0  0  0  0  0  0  0  0  0  0
    3.2210   -0.2530    1.6090 C   0  0  0  0  0  0  0  0  0  0  0  0
    2.6270    0.3570    0.5340 C   0  0  0  0  0  0  0  0  0  0  0  0
    1.3650    1.0970    0.6020 C   0  0  1  0  0  0  0  0  0  0  0  0
    0.7160    1.2540   -0.7650 C   0  0  1  0  0  0  0  0  0  0  0  0
    0.1850   -0.0170   -1.3000 C   0  0  0  0  0  0  0  0  0  0  0  0
    0.8340   -1.0800   -1.3860 O   0  0  0  0  0  0  0  0  0  0  0  0
   -1.1700    0.1540   -1.7010 N   0  0  0  0  0  0  0  0  0  0  0  0
   -2.0860   -0.8470   -2.2240 C   0  0  0  0  0  0  0  0  0  0  0  0
   -2.8610   -1.5320   -1.1590 C   0  0  0  0  0  0  0  0  0  0  0  0
   -2.3780   -2.6820   -0.5700 C   0  0  0  0  0  0  0  0  0  0  0  0
   -3.0790   -3.3370    0.4210 C   0  0  0  0  0  0  0  0  0  0  0  0
   -4.2970   -2.8650    0.8620 C   0  0  0  0  0  0  0  0  0  0  0  0
   -4.8050   -1.7180    0.2920 C   0  0  0  0  0  0  0  0  0  0  0  0
   -4.0800   -1.0660   -0.7120 C   0  0  0  0  0  0  0  0  0  0  0  0
   -6.0150   -1.4760    0.9100 O   0  0  0  0  0  0  0  0  0  0  0  0
   -6.0880   -2.1930    2.1280 C   0  0  0  0  0  0  0  0  0  0  0  0
   -5.2200   -3.2960    1.8240 O   0  0  0  0  0  0  0  0  0  0  0  0
   -1.4770    1.5520   -1.4870 C   0  0  2  0  0  0  0  0  0  0  0  0
   -1.0840    2.3040   -2.7280 C   0  0  2  0  0  0  0  0  0  0  0  0
   -1.2800    3.7770   -2.8120 C   0  0  0  0  0  0  0  0  0  0  0  0
   -2.1720    2.8890   -3.6080 C   0  0  0  0  0  0  0  0  0  0  0  0
   -0.6090    1.9060   -0.3260 C   0  0  1  0  0  0  0  0  0  0  0  0
   -0.9100    1.0990    0.8900 C   0  0  2  0  0  0  0  0  0  0  0  0
   -1.3740    2.0460    1.9730 C   0  0  0  0  0  0  0  0  0  0  0  0
   -0.9830    1.2530    3.2150 C   0  0  0  0  0  0  0  0  0  0  0  0
    0.3860    0.7200    2.7880 C   0  0  0  0  0  0  0  0  0  0  0  0
    0.3180    0.5160    1.3610 N   0  0  2  0  0  0  0  0  0  0  0  0
    3.2870    0.2520   -0.6710 C   0  0  0  0  0  0  0  0  0  0  0  0
    4.4780   -0.4300   -0.7860 C   0  0  0  0  0  0  0  0  0  0  0  0
  1  2  1  0
  2  3  2  0
  2  4  1  0
  4  5  2  0
  4 34  1  0
  5  6  1  0
  6  7  2  0
  8  7  1  6
  7 33  1  0
  8  9  1  0
  8 32  1  0
  9 10  1  1
  9 27  1  0
 10 11  2  0
 10 12  1  0
 12 13  1  0
 23 12  1  6
 13 14  1  0
 14 15  2  0
 14 19  1  0
 15 16  1  0
 16 17  2  0
 17 18  1  0
 17 22  1  0
 18 19  2  0
 18 20  1  0
 20 21  1  0
 21 22  1  0
 23 24  1  0
 27 23  1  6
 24 25  1  1
 24 26  1  0
 25 26  1  0
 27 28  1  0
 28 29  1  1
 28 32  1  0
 29 30  1  0
 30 31  1  0
 32 31  1  1
 33 34  2  0
M  CHG  2   3   1  32   1
M  END
