
     RDKit          3D

 38 41  0  0  0  0  0  0  0  0999 V2000
   -1.1740    6.9160   -2.2420 C   0  0  0  0  0  0  0  0  0  0  0  0
   -1.7500    5.7580   -1.6700 O   0  0  0  0  0  0  0  0  0  0  0  0
   -0.9020    4.7410   -1.2700 C   0  0  0  0  0  0  0  0  0  0  0  0
    0.4590    4.8000   -1.4030 C   0  0  0  0  0  0  0  0  0  0  0  0
    1.2880    3.7540   -0.9990 C   0  0  0  0  0  0  0  0  0  0  0  0
    0.6880    2.6430   -0.4530 C   0  0  0  0  0  0  0  0  0  0  0  0
   -0.7150    2.5960   -0.3080 C   0  0  0  0  0  0  0  0  0  0  0  0
   -1.4920    3.6270   -0.7160 C   0  0  0  0  0  0  0  0  0  0  0  0
   -1.2340    1.4990    0.5340 C   0  0  1  0  0  0  0  0  0  0  0  0
   -2.6570    1.5300    0.9090 C   0  0  1  0  0  0  0  0  0  0  0  0
   -3.0770    2.6930    1.5390 O   0  0  0  0  0  0  0  0  0  0  0  0
   -3.6120    0.8020    0.1370 N   0  0  0  0  0  0  0  0  0  0  0  0
   -4.0640   -0.5130    0.5000 C   0  0  0  0  0  0  0  0  0  0  0  0
   -3.5150   -1.0400    1.5200 O   0  0  0  0  0  0  0  0  0  0  0  0
   -5.0360   -1.2740   -0.1300 N   0  0  0  0  0  0  0  0  0  0  0  0
   -5.4530   -2.5940    0.2510 C   0  0  2  0  0  0  0  0  0  0  0  0
   -6.7210   -2.9660   -0.4150 C   0  0  0  0  0  0  0  0  0  0  0  0
   -5.6520   -2.7100    1.7690 C   0  0  0  0  0  0  0  0  0  0  0  0
   -6.5600   -1.7980    2.2110 O   0  0  0  0  0  0  0  0  0  0  0  0
   -0.7470    0.2200   -0.0060 C   0  0  0  0  0  0  0  0  0  0  0  0
    0.7640    0.3050    0.0300 C   0  0  0  0  0  0  0  0  0  0  0  0
    1.4260   -0.8550    0.2590 C   0  0  0  0  0  0  0  0  0  0  0  0
    0.6480   -2.1120    0.3220 C   0  0  0  0  0  0  0  0  0  0  0  0
    0.5720   -2.7780   -1.0560 C   0  0  0  0  0  0  0  0  0  0  0  0
    0.1170   -2.6210    1.2750 O   0  0  0  0  0  0  0  0  0  0  0  0
    2.8210   -0.9270    0.2090 C   0  0  0  0  0  0  0  0  0  0  0  0
    3.3640   -2.2030    0.6680 C   0  0  0  0  0  0  0  0  0  0  0  0
    4.3040   -3.2170   -0.3740 S   0  0  0  0  0  0  0  0  0  0  0  0
    5.8270   -2.5990   -1.0370 C   0  0  0  0  0  0  0  0  0  0  0  0
    6.7610   -2.3220    0.0850 C   0  0  0  0  0  0  0  0  0  0  0  0
    7.3600   -3.3080    0.8260 C   0  0  0  0  0  0  0  0  0  0  0  0
    8.1420   -2.6560    1.7510 C   0  0  0  0  0  0  0  0  0  0  0  0
    8.0220   -1.3490    1.5760 O   0  0  0  0  0  0  0  0  0  0  0  0
    7.1950   -1.1220    0.5800 C   0  0  0  0  0  0  0  0  0  0  0  0
    3.4880    0.2380   -0.0830 C   0  0  0  0  0  0  0  0  0  0  0  0
    2.7840    1.4400   -0.3230 C   0  0  0  0  0  0  0  0  0  0  0  0
    3.4790    2.4580   -0.5710 O   0  0  0  0  0  0  0  0  0  0  0  0
    1.4500    1.4320   -0.2600 N   0  0  0  0  0  0  0  0  0  0  0  0
  1  2  1  0
  2  3  1  0
  3  4  2  0
  3  8  1  0
  4  5  1  0
  5  6  2  0
  6  7  1  0
  6 38  1  0
  7  8  2  0
  7  9  1  0
  9 10  1  0
  9 20  1  6
 10 11  1  6
 10 12  1  0
 12 13  1  0
 13 14  2  0
 13 15  1  0
 15 16  1  0
 16 17  1  6
 16 18  1  0
 18 19  1  0
 20 21  1  0
 21 22  2  0
 21 38  1  0
 22 23  1  0
 22 26  1  0
 23 24  1  0
 23 25  2  0
 26 27  1  0
 26 35  2  0
 27 28  1  0
 28 29  1  0
 29 30  1  0
 30 31  1  0
 30 34  2  0
 31 32  2  0
 32 33  1  0
 33 34  1  0
 35 36  1  0
 36 37  2  0
 36 38  1  0
M  END
