
     RDKit          3D

 38 41  0  0  0  0  0  0  0  0999 V2000
    8.9300    0.6910    3.6420 C   0  0  0  0  0  0  0  0  0  0  0  0
    8.8290   -0.6830    3.3160 O   0  0  0  0  0  0  0  0  0  0  0  0
    8.4800   -1.0720    2.0250 C   0  0  0  0  0  0  0  0  0  0  0  0
    8.2340   -0.1120    1.0830 C   0  0  0  0  0  0  0  0  0  0  0  0
    7.8870   -0.5160   -0.2120 C   0  0  0  0  0  0  0  0  0  0  0  0
    7.5940    0.5610   -1.1820 C   0  0  0  0  0  0  0  0  0  0  0  0
    6.0790    0.7010   -1.1750 C   0  0  0  0  0  0  0  0  0  0  0  0
    5.3980   -0.3250   -0.9390 O   0  0  0  0  0  0  0  0  0  0  0  0
    5.4260    1.9170   -1.4110 N   0  0  0  0  0  0  0  0  0  0  0  0
    4.0610    2.2630   -1.4310 C   0  0  0  0  0  0  0  0  0  0  0  0
    3.2270    2.1150   -0.2250 C   0  0  2  0  0  0  0  0  0  0  0  0
    2.7190    0.7480    0.1150 C   0  0  0  0  0  0  0  0  0  0  0  0
    1.9290    0.4400   -1.1790 C   0  0  0  0  0  0  0  0  0  0  0  0
    1.4100    1.7900   -1.5130 C   0  0  1  0  0  0  0  0  0  0  0  0
   -0.0970    1.8220   -1.4790 C   0  0  0  0  0  0  0  0  0  0  0  0
   -0.7220    1.1110   -2.4080 O   0  0  0  0  0  0  0  0  0  0  0  0
   -0.7770   -0.1910   -2.5940 C   0  0  0  0  0  0  0  0  0  0  0  0
   -1.4950   -0.9090   -1.4790 C   0  0  0  0  0  0  0  0  0  0  0  0
   -2.8880   -0.3750   -1.4170 C   0  0  0  0  0  0  0  0  0  0  0  0
   -3.2240    0.5380   -2.2050 O   0  0  0  0  0  0  0  0  0  0  0  0
   -3.8380   -0.8630   -0.5020 N   0  0  0  0  0  0  0  0  0  0  0  0
   -5.1780   -0.4520   -0.3340 C   0  0  0  0  0  0  0  0  0  0  0  0
   -5.7440    0.6650   -0.8970 C   0  0  0  0  0  0  0  0  0  0  0  0
   -7.0900    0.9980   -0.7070 C   0  0  0  0  0  0  0  0  0  0  0  0
   -7.9270    0.1890    0.0780 C   0  0  0  0  0  0  0  0  0  0  0  0
   -7.3350   -0.9030    0.6180 C   0  0  0  0  0  0  0  0  0  0  0  0
   -6.0290   -1.2470    0.4500 C   0  0  0  0  0  0  0  0  0  0  0  0
   -8.4370   -1.5750    1.3990 C   0  0  2  0  0  0  0  0  0  0  0  0
   -9.1600   -2.3960    0.3130 C   0  0  0  0  0  0  0  0  0  0  0  0
   -9.4730   -0.4180    1.9590 S   0  0  0  0  0  0  0  0  0  0  0  0
   -9.1170    0.9770    2.7090 C   0  0  0  0  0  0  0  0  0  0  0  0
   -9.9230   -1.1270    3.0220 O   0  0  0  0  0  0  0  0  0  0  0  0
   -9.3170    0.2870    0.4240 N   0  0  0  0  0  0  0  0  0  0  0  0
    1.9460    2.6800   -0.5690 O   0  0  0  0  0  0  0  0  0  0  0  0
    7.8000   -1.8230   -0.5260 C   0  0  0  0  0  0  0  0  0  0  0  0
    8.0590   -2.7760    0.4730 C   0  0  0  0  0  0  0  0  0  0  0  0
    8.4020   -2.4430    1.7550 C   0  0  0  0  0  0  0  0  0  0  0  0
    8.6640   -3.3840    2.7620 O   0  0  0  0  0  0  0  0  0  0  0  0
  1  2  1  0
  2  3  1  0
  3  4  2  0
  3 37  1  0
  4  5  1  0
  5  6  1  0
  5 35  2  0
  6  7  1  0
  7  8  2  0
  7  9  1  0
  9 10  1  0
 11 10  1  6
 11 12  1  0
 11 34  1  0
 12 13  1  0
 13 14  1  0
 14 15  1  1
 14 34  1  0
 15 16  1  0
 16 17  1  0
 17 18  1  0
 18 19  1  0
 19 20  2  0
 19 21  1  0
 21 22  1  0
 22 23  2  0
 22 27  1  0
 23 24  1  0
 24 25  2  0
 25 26  1  0
 25 33  1  0
 26 27  2  0
 26 28  1  0
 28 29  1  6
 28 30  1  0
 30 31  1  0
 30 32  2  0
 30 33  1  0
 35 36  1  0
 36 37  2  0
 37 38  1  0
M  END
