
     RDKit          3D

 38 41  0  0  0  0  0  0  0  0999 V2000
   -0.9570    3.5490    5.7610 C   0  0  0  0  0  0  0  0  0  0  0  0
   -1.5610    2.6310    4.8790 O   0  0  0  0  0  0  0  0  0  0  0  0
   -1.1090    2.4170    3.5850 C   0  0  0  0  0  0  0  0  0  0  0  0
   -0.1120    3.0950    3.2230 O   0  0  0  0  0  0  0  0  0  0  0  0
   -1.7880    1.4380    2.7090 C   0  0  0  0  0  0  0  0  0  0  0  0
   -1.1610    1.3600    1.3960 N   0  0  0  0  0  0  0  0  0  0  0  0
   -1.7060    0.4600    0.4540 C   0  0  0  0  0  0  0  0  0  0  0  0
   -2.6970   -0.2040    0.8170 O   0  0  0  0  0  0  0  0  0  0  0  0
   -1.1370    0.3260   -0.8620 C   0  0  0  0  0  0  0  0  0  0  0  0
   -1.6190   -0.5020   -1.7570 C   0  0  0  0  0  0  0  0  0  0  0  0
   -2.7270   -1.4070   -1.6630 C   0  0  0  0  0  0  0  0  0  0  0  0
   -3.7510   -1.2740   -2.6060 C   0  0  0  0  0  0  0  0  0  0  0  0
   -4.8300   -2.1280   -2.6150 C   0  0  0  0  0  0  0  0  0  0  0  0
   -4.9360   -3.1520   -1.6850 C   0  0  0  0  0  0  0  0  0  0  0  0
   -3.9380   -3.2890   -0.7590 C   0  0  0  0  0  0  0  0  0  0  0  0
   -2.8590   -2.4300   -0.7560 C   0  0  0  0  0  0  0  0  0  0  0  0
   -4.2860   -4.4400    0.1130 C   0  0  0  0  0  0  0  0  0  0  0  0
   -5.2510   -5.2230   -0.7450 C   0  0  0  0  0  0  0  0  0  0  0  0
   -5.9320   -4.1720   -1.4690 N   0  0  0  0  0  0  0  0  0  0  0  0
    0.0640    1.1480   -1.2160 C   0  0  1  0  0  0  0  0  0  0  0  0
    1.2390    0.8170   -0.4190 N   0  0  0  0  0  0  0  0  0  0  0  0
    2.1590    1.7360    0.1030 C   0  0  0  0  0  0  0  0  0  0  0  0
    1.9670    2.9570   -0.1270 O   0  0  0  0  0  0  0  0  0  0  0  0
    3.3590    1.3120    0.9200 C   0  0  1  0  0  0  0  0  0  0  0  0
    4.2630    0.4800    0.1050 C   0  0  0  0  0  0  0  0  0  0  0  0
    5.4120    0.0320    0.6800 O   0  0  0  0  0  0  0  0  0  0  0  0
    4.1360    2.5670    1.3200 C   0  0  0  0  0  0  0  0  0  0  0  0
    4.2050    2.6110    2.6890 O   0  0  0  0  0  0  0  0  0  0  0  0
    4.1250    1.3010    3.1070 C   0  0  0  0  0  0  0  0  0  0  0  0
    2.9410    0.8140    2.2550 C   0  0  2  0  0  0  0  0  0  0  0  0
    2.6390   -0.8960    2.4860 S   0  0  0  0  0  0  0  0  0  0  0  0
    4.1100   -1.9250    2.3960 C   0  0  0  0  0  0  0  0  0  0  0  0
    0.4520    0.8920   -2.6680 C   0  0  0  0  0  0  0  0  0  0  0  0
    1.2200   -0.1520   -3.1410 C   0  0  0  0  0  0  0  0  0  0  0  0
    1.3150    0.0130   -4.5070 C   0  0  0  0  0  0  0  0  0  0  0  0
    0.6120    1.1360   -4.8250 C   0  0  0  0  0  0  0  0  0  0  0  0
    0.3860    1.7720   -6.1510 C   0  0  0  0  0  0  0  0  0  0  0  0
    0.1280    1.6100   -3.7070 O   0  0  0  0  0  0  0  0  0  0  0  0
  1  2  1  0
  2  3  1  0
  3  4  2  0
  3  5  1  0
  5  6  1  0
  6  7  1  0
  7  8  2  0
  7  9  1  0
  9 10  2  3
  9 20  1  0
 10 11  1  0
 11 12  2  0
 11 16  1  0
 12 13  1  0
 13 14  2  0
 14 15  1  0
 14 19  1  0
 15 16  2  0
 15 17  1  0
 17 18  1  0
 18 19  1  0
 20 21  1  1
 20 33  1  0
 21 22  1  0
 22 23  2  0
 22 24  1  0
 24 25  1  6
 24 27  1  0
 24 30  1  0
 25 26  1  0
 27 28  1  0
 28 29  1  0
 29 30  1  0
 30 31  1  6
 31 32  1  0
 33 34  2  0
 33 38  1  0
 34 35  1  0
 35 36  2  0
 36 37  1  0
 36 38  1  0
M  END
