
     RDKit          3D

 38 41  0  0  0  0  0  0  0  0999 V2000
   -5.4390   -5.0630   -1.4240 C   0  0  0  0  0  0  0  0  0  0  0  0
   -4.7900   -4.3780   -0.2410 C   0  0  0  0  0  0  0  0  0  0  0  0
   -5.4600   -3.0430    0.0540 C   0  0  0  0  0  0  0  0  0  0  0  0
   -5.3210   -2.1920   -1.1440 C   0  0  2  0  0  0  0  0  0  0  0  0
   -3.9010   -1.9430   -1.5240 C   0  0  0  0  0  0  0  0  0  0  0  0
   -3.1600   -2.5120   -2.3590 O   0  0  0  0  0  0  0  0  0  0  0  0
   -3.5240   -0.8050   -0.6490 C   0  0  0  0  0  0  0  0  0  0  0  0
   -2.1690   -0.5010   -0.2180 C   0  0  0  0  0  0  0  0  0  0  0  0
   -1.9710    0.4860    0.5240 O   0  0  0  0  0  0  0  0  0  0  0  0
   -1.0730   -1.2510   -0.5870 O   0  0  0  0  0  0  0  0  0  0  0  0
    0.2520   -1.0060   -0.2050 C   0  0  0  0  0  0  0  0  0  0  0  0
    0.4190   -1.0580    1.2770 C   0  0  0  0  0  0  0  0  0  0  0  0
   -0.5520   -1.2970    2.0160 O   0  0  0  0  0  0  0  0  0  0  0  0
    1.7660   -0.8170    1.8240 C   0  0  0  0  0  0  0  0  0  0  0  0
    2.2470   -0.7950    3.0900 C   0  0  0  0  0  0  0  0  0  0  0  0
    3.5420   -0.5420    3.2820 C   0  0  0  0  0  0  0  0  0  0  0  0
    4.3530   -0.3130    2.2370 C   0  0  0  0  0  0  0  0  0  0  0  0
    5.7190   -0.0270    2.1130 N   0  0  0  0  0  0  0  0  0  0  0  0
    6.3070    0.1750    0.8380 C   0  0  0  0  0  0  0  0  0  0  0  0
    5.5550    0.0890   -0.1920 O   0  0  0  0  0  0  0  0  0  0  0  0
    7.6970    0.4680    0.6560 N   0  0  0  0  0  0  0  0  0  0  0  0
    8.2130    0.6610   -0.6910 C   0  0  0  0  0  0  0  0  0  0  0  0
    9.6910    0.9520   -0.5720 C   0  0  2  0  0  0  0  0  0  0  0  0
    9.9670    2.2230    0.1700 C   0  0  0  0  0  0  0  0  0  0  0  0
   11.3040    2.6400   -0.4070 C   0  0  0  0  0  0  0  0  0  0  0  0
   11.5530    1.5890   -1.4660 C   0  0  0  0  0  0  0  0  0  0  0  0
   10.2810    1.1540   -1.8190 O   0  0  0  0  0  0  0  0  0  0  0  0
    3.2400   -0.4560    0.8450 S   0  0  0  0  0  0  0  0  0  0  0  0
   -4.6320   -0.1310   -0.3460 C   0  0  0  0  0  0  0  0  0  0  0  0
   -4.8480    1.0160    0.4390 N   0  0  0  0  0  0  0  0  0  0  0  0
   -6.1170    1.4790    0.9420 C   0  0  1  0  0  0  0  0  0  0  0  0
   -6.4570    2.8670    0.4520 C   0  0  2  0  0  0  0  0  0  0  0  0
   -6.5420    2.9500   -1.0430 C   0  0  0  0  0  0  0  0  0  0  0  0
   -5.4990    3.9040    0.9710 C   0  0  0  0  0  0  0  0  0  0  0  0
   -7.2310    0.5230    0.7280 C   0  0  0  0  0  0  0  0  0  0  0  0
   -6.9730   -0.6030   -0.1620 C   0  0  0  0  0  0  0  0  0  0  0  0
   -7.8440   -1.4870   -0.1910 O   0  0  0  0  0  0  0  0  0  0  0  0
   -5.7980   -0.7600   -0.9970 C   0  0  2  0  0  0  0  0  0  0  0  0
  1  2  1  0
  2  3  1  0
  4  3  1  1
  4  5  1  0
  4 38  1  0
  5  6  2  0
  5  7  1  0
  7  8  1  0
  7 29  2  0
  8  9  2  0
  8 10  1  0
 10 11  1  0
 11 12  1  0
 12 13  2  0
 12 14  1  0
 14 15  2  0
 14 28  1  0
 15 16  1  0
 16 17  2  0
 17 18  1  0
 17 28  1  0
 18 19  1  0
 19 20  2  0
 19 21  1  0
 21 22  1  0
 23 22  1  6
 23 24  1  0
 23 27  1  0
 24 25  1  0
 25 26  1  0
 26 27  1  0
 29 30  1  0
 29 38  1  0
 30 31  1  0
 31 32  1  0
 31 35  1  6
 32 33  1  6
 32 34  1  0
 35 36  1  0
 36 37  2  0
 38 36  1  1
M  END
