
     RDKit          3D

 38 41  0  0  0  0  0  0  0  0999 V2000
   -6.8540    3.5110   -0.7610 C   0  0  0  0  0  0  0  0  0  0  0  0
   -5.6200    4.2490   -0.3610 C   0  0  0  0  0  0  0  0  0  0  0  0
   -4.3720    3.7860   -1.0820 C   0  0  0  0  0  0  0  0  0  0  0  0
   -4.1320    2.2980   -0.7810 C   0  0  2  0  0  0  0  0  0  0  0  0
   -3.9290    2.1140    0.9650 S   0  0  0  0  0  0  0  0  0  0  0  0
   -3.5810    0.5110    1.5610 C   0  0  0  0  0  0  0  0  0  0  0  0
   -2.3690   -0.0360    1.8400 C   0  0  0  0  0  0  0  0  0  0  0  0
   -1.0680    0.6240    1.8350 C   0  0  0  0  0  0  0  0  0  0  0  0
   -1.0270    1.8690    1.7050 O   0  0  0  0  0  0  0  0  0  0  0  0
    0.1540   -0.0790    1.9700 N   0  0  0  0  0  0  0  0  0  0  0  0
    1.4660    0.5440    1.9730 C   0  0  2  0  0  0  0  0  0  0  0  0
    2.2730    0.1960    0.8270 C   0  0  0  0  0  0  0  0  0  0  0  0
    3.4630   -0.3450    0.8740 C   0  0  0  0  0  0  0  0  0  0  0  0
    4.2250   -0.6740   -0.3680 C   0  0  1  0  0  0  0  0  0  0  0  0
    5.4280    0.2270   -0.4330 C   0  0  0  0  0  0  0  0  0  0  0  0
    6.5260   -0.2710   -1.3130 C   0  0  0  0  0  0  0  0  0  0  0  0
    6.8180   -1.5900   -1.1280 O   0  0  0  0  0  0  0  0  0  0  0  0
    5.7410   -2.3780   -1.4120 C   0  0  2  0  0  0  0  0  0  0  0  0
    6.1330   -3.8380   -1.3680 C   0  0  0  0  0  0  0  0  0  0  0  0
    5.3100   -2.0960   -2.8520 C   0  0  0  0  0  0  0  0  0  0  0  0
    6.3440   -2.3680   -3.7480 O   0  0  0  0  0  0  0  0  0  0  0  0
    4.5540   -2.1270   -0.5110 C   0  0  0  0  0  0  0  0  0  0  0  0
    4.0990   -0.6260    2.1690 C   0  0  0  0  0  0  0  0  0  0  0  0
    5.2400   -1.1470    2.2510 O   0  0  0  0  0  0  0  0  0  0  0  0
    3.3950   -0.2960    3.3460 N   0  0  0  0  0  0  0  0  0  0  0  0
    2.1180    0.2890    3.2510 C   0  0  0  0  0  0  0  0  0  0  0  0
    1.5360    0.5960    4.3540 O   0  0  0  0  0  0  0  0  0  0  0  0
   -2.5580   -1.3410    2.2100 N   0  0  0  0  0  0  0  0  0  0  0  0
   -3.8570   -1.6630    2.1860 C   0  0  0  0  0  0  0  0  0  0  0  0
   -4.5850   -2.8010    2.4580 C   0  0  0  0  0  0  0  0  0  0  0  0
   -5.9450   -2.8130    2.3360 C   0  0  0  0  0  0  0  0  0  0  0  0
   -6.5870   -1.6520    1.9300 C   0  0  0  0  0  0  0  0  0  0  0  0
   -5.8890   -0.4930    1.6490 C   0  0  0  0  0  0  0  0  0  0  0  0
   -4.5150   -0.5070    1.7790 C   0  0  0  0  0  0  0  0  0  0  0  0
   -3.0040    1.8890   -1.6130 C   0  0  0  0  0  0  0  0  0  0  0  0
   -1.9600    1.4310   -1.1240 O   0  0  0  0  0  0  0  0  0  0  0  0
   -3.0580    2.0020   -3.0210 O   0  0  0  0  0  0  0  0  0  0  0  0
   -1.9200    1.5860   -3.7460 C   0  0  0  0  0  0  0  0  0  0  0  0
  1  2  1  0
  2  3  1  0
  4  3  1  1
  4  5  1  0
  4 35  1  0
  5  6  1  0
  6  7  2  0
  6 34  1  0
  7  8  1  0
  7 28  1  0
  8  9  2  0
  8 10  1  0
 11 10  1  1
 11 12  1  0
 11 26  1  0
 12 13  2  0
 14 13  1  1
 13 23  1  0
 14 15  1  0
 14 22  1  0
 15 16  1  0
 16 17  1  0
 17 18  1  0
 18 19  1  6
 18 20  1  0
 18 22  1  0
 20 21  1  0
 23 24  2  0
 23 25  1  0
 25 26  1  0
 26 27  2  0
 28 29  1  0
 29 30  2  0
 29 34  1  0
 30 31  1  0
 31 32  2  0
 32 33  1  0
 33 34  2  0
 35 36  2  0
 35 37  1  0
 37 38  1  0
M  END
