
     RDKit          3D

 33 37  0  0  0  0  0  0  0  0999 V2000
   -4.5780    3.4770   -0.8510 C   0  0  0  0  0  0  0  0  0  0  0  0
   -5.6590    3.0540    0.0590 C   0  0  0  0  0  0  0  0  0  0  0  0
   -5.7050    1.8140    0.4940 C   0  0  0  0  0  0  0  0  0  0  0  0
   -6.8020    1.4060    1.4100 C   0  0  0  0  0  0  0  0  0  0  0  0
   -4.6870    0.8320    0.0930 C   0  0  0  0  0  0  0  0  0  0  0  0
   -3.6300    1.0300   -0.7060 N   0  0  0  0  0  0  0  0  0  0  0  0
   -2.9120   -0.1270   -0.8460 C   0  0  0  0  0  0  0  0  0  0  0  0
   -1.6980   -0.2450   -1.6680 C   0  0  0  0  0  0  0  0  0  0  0  0
   -0.4270   -0.3040   -0.9210 C   0  0  0  0  0  0  0  0  0  0  0  0
    0.2550    0.8640   -0.6760 C   0  0  0  0  0  0  0  0  0  0  0  0
    1.4460    0.8960    0.0690 C   0  0  0  0  0  0  0  0  0  0  0  0
    1.9530   -0.2610    0.5710 C   0  0  0  0  0  0  0  0  0  0  0  0
    3.1150   -0.3990    1.3260 O   0  0  0  0  0  0  0  0  0  0  0  0
    4.3780   -0.6240    0.8200 C   0  0  0  0  0  0  0  0  0  0  0  0
    4.7440   -1.9160    0.7250 N   0  0  0  0  0  0  0  0  0  0  0  0
    5.9470   -2.2480    0.2480 C   0  0  0  0  0  0  0  0  0  0  0  0
    6.4640   -3.9200    0.1070 Cl  0  0  0  0  0  0  0  0  0  0  0  0
    6.8100   -1.2630   -0.1450 C   0  0  0  0  0  0  0  0  0  0  0  0
    6.4520    0.0730   -0.0550 C   0  0  0  0  0  0  0  0  0  0  0  0
    5.1970    0.4090    0.4440 C   0  0  0  0  0  0  0  0  0  0  0  0
    4.7510    1.7960    0.6140 C   0  0  0  0  0  0  0  0  0  0  0  0
    5.8020    2.6930    1.2380 C   0  0  0  0  0  0  0  0  0  0  0  0
    7.3790    2.6210    0.3670 S   0  0  0  0  0  0  0  0  0  0  0  0
    7.4380    1.0630   -0.5150 C   0  0  0  0  0  0  0  0  0  0  0  0
    1.2450   -1.4430    0.3100 C   0  0  0  0  0  0  0  0  0  0  0  0
    0.0780   -1.4800   -0.4190 C   0  0  0  0  0  0  0  0  0  0  0  0
   -0.5840   -2.6920   -0.6520 O   0  0  0  0  0  0  0  0  0  0  0  0
   -0.0120   -3.8640   -0.1110 C   0  0  0  0  0  0  0  0  0  0  0  0
   -3.5850   -1.0470   -0.0900 C   0  0  0  0  0  0  0  0  0  0  0  0
   -4.6740   -0.4630    0.4870 N   0  0  0  0  0  0  0  0  0  0  0  0
   -5.3880   -1.4090    1.2750 C   0  0  0  0  0  0  0  0  0  0  0  0
   -4.7870   -2.5370    1.2060 N   0  0  0  0  0  0  0  0  0  0  0  0
   -3.6250   -2.4710    0.3820 C   0  0  0  0  0  0  0  0  0  0  0  0
  1  2  1  0
  2  3  2  3
  3  4  1  0
  3  5  1  0
  5  6  2  0
  5 30  1  0
  6  7  1  0
  7  8  1  0
  7 29  2  0
  8  9  1  0
  9 10  2  0
  9 26  1  0
 10 11  1  0
 11 12  2  0
 12 13  1  0
 12 25  1  0
 13 14  1  0
 14 15  2  0
 14 20  1  0
 15 16  1  0
 16 17  1  0
 16 18  2  0
 18 19  1  0
 19 20  2  0
 19 24  1  0
 20 21  1  0
 21 22  1  0
 22 23  1  0
 23 24  1  0
 25 26  2  0
 26 27  1  0
 27 28  1  0
 29 30  1  0
 29 33  1  0
 30 31  1  0
 31 32  2  0
 32 33  1  0
M  CHG  1  32   1
M  END
