
     RDKit          3D

 33 35  0  0  0  0  0  0  0  0999 V2000
    6.1010    3.2470   -1.4050 C   0  0  0  0  0  0  0  0  0  0  0  0
    4.7730    2.8800   -1.1050 O   0  0  0  0  0  0  0  0  0  0  0  0
    4.4380    1.6380   -0.6420 C   0  0  0  0  0  0  0  0  0  0  0  0
    3.1030    1.3470   -0.3660 C   0  0  0  0  0  0  0  0  0  0  0  0
    2.7250    0.1260    0.0960 C   0  0  0  0  0  0  0  0  0  0  0  0
    1.4210   -0.2630    0.4030 N   0  0  0  0  0  0  0  0  0  0  0  0
    0.2860    0.5580    0.2690 C   0  0  0  0  0  0  0  0  0  0  0  0
    0.3480    1.7480   -0.1520 O   0  0  0  0  0  0  0  0  0  0  0  0
   -1.0470    0.0240    0.6320 C   0  0  0  0  0  0  0  0  0  0  0  0
   -1.0950   -1.1510    1.0500 O   0  0  0  0  0  0  0  0  0  0  0  0
   -2.2600    0.8940    0.4870 C   0  0  0  0  0  0  0  0  0  0  0  0
   -3.5090    0.1840    0.8760 C   0  0  1  0  0  0  0  0  0  0  0  0
   -4.6580    1.0990    0.7180 C   0  0  0  0  0  0  0  0  0  0  0  0
   -5.5060    1.3570    1.7660 C   0  0  0  0  0  0  0  0  0  0  0  0
   -6.5690    2.2110    1.5710 C   0  0  0  0  0  0  0  0  0  0  0  0
   -6.7950    2.7950    0.3890 N   0  0  0  0  0  0  0  0  0  0  0  0
   -5.9750    2.5600   -0.6640 C   0  0  0  0  0  0  0  0  0  0  0  0
   -4.9100    1.7120   -0.4930 C   0  0  0  0  0  0  0  0  0  0  0  0
   -3.7860   -1.0760    0.2270 C   0  0  0  0  0  0  0  0  0  0  0  0
   -4.6260   -1.9710    0.8440 C   0  0  0  0  0  0  0  0  0  0  0  0
   -5.2570   -1.7740    2.0980 N   0  0  0  0  0  0  0  0  0  0  0  0
   -4.9080   -3.1670    0.2430 N   0  0  0  0  0  0  0  0  0  0  0  0
   -4.3970   -3.5060   -0.9290 C   0  0  0  0  0  0  0  0  0  0  0  0
   -3.5740   -2.6600   -1.5610 N   0  0  0  0  0  0  0  0  0  0  0  0
   -3.2720   -1.4720   -1.0010 C   0  0  0  0  0  0  0  0  0  0  0  0
   -2.4300   -0.6340   -1.6740 O   0  0  0  0  0  0  0  0  0  0  0  0
    3.7400   -0.8110    0.2760 C   0  0  0  0  0  0  0  0  0  0  0  0
    3.4160   -2.1320    0.7640 N   0  0  0  0  0  0  0  0  0  0  0  0
    5.0510   -0.5230    0.0040 C   0  0  0  0  0  0  0  0  0  0  0  0
    6.0520   -1.4530    0.1830 O   0  0  0  0  0  0  0  0  0  0  0  0
    7.3860   -1.1540   -0.0940 C   0  0  0  0  0  0  0  0  0  0  0  0
    8.1840   -2.3510    0.2030 N   0  0  0  0  0  0  0  0  0  0  0  0
    5.3750    0.7060   -0.4530 N   0  0  0  0  0  0  0  0  0  0  0  0
  1  2  1  0
  2  3  1  0
  3  4  2  0
  3 33  1  0
  4  5  1  0
  5  6  1  0
  5 27  2  0
  6  7  1  0
  7  8  2  0
  7  9  1  0
  9 10  2  0
  9 11  1  0
 12 11  1  6
 12 13  1  0
 12 19  1  0
 13 14  2  0
 13 18  1  0
 14 15  1  0
 15 16  2  0
 16 17  1  0
 17 18  2  0
 19 20  2  0
 19 25  1  0
 20 21  1  0
 20 22  1  0
 22 23  2  0
 23 24  1  0
 24 25  2  0
 25 26  1  0
 27 28  1  0
 27 29  1  0
 29 30  1  0
 29 33  2  0
 30 31  1  0
 31 32  1  0
M  END
