
     RDKit          3D

 33 37  0  0  0  0  0  0  0  0999 V2000
   10.2660    1.4870    0.5550 C   0  0  0  0  0  0  0  0  0  0  0  0
    9.0450    1.4570   -0.2440 C   0  0  0  0  0  0  0  0  0  0  0  0
    7.8130    1.7810    0.5360 C   0  0  0  0  0  0  0  0  0  0  0  0
    7.1500    2.7140    0.8940 N   0  0  0  0  0  0  0  0  0  0  0  0
    5.9820    2.6250    1.4650 N   0  0  0  0  0  0  0  0  0  0  0  0
    5.4290    1.6480    1.7010 C   0  0  0  0  0  0  0  0  0  0  0  0
    4.0870    1.1770    2.1580 N   0  0  0  0  0  0  0  0  0  0  0  0
    3.1880    1.1320    1.0940 O   0  0  0  0  0  0  0  0  0  0  0  0
    2.4600    0.1200    0.5850 C   0  0  0  0  0  0  0  0  0  0  0  0
    1.1590   -0.2090    1.0080 C   0  0  0  0  0  0  0  0  0  0  0  0
    0.4640   -1.2410    0.4520 C   0  0  0  0  0  0  0  0  0  0  0  0
   -0.9540   -1.5750    0.7850 C   0  0  0  0  0  0  0  0  0  0  0  0
   -1.7950   -0.5430    0.2160 N   0  0  2  0  0  0  0  0  0  0  0  0
   -1.8170    0.7700    0.6950 C   0  0  0  0  0  0  0  0  0  0  0  0
   -2.8970    1.0230    1.7400 C   0  0  0  0  0  0  0  0  0  0  0  0
   -4.1790    0.7180    1.0500 C   0  0  0  0  0  0  0  0  0  0  0  0
   -5.3370    1.3920    1.3260 C   0  0  0  0  0  0  0  0  0  0  0  0
   -6.5140    1.0620    0.6620 C   0  0  0  0  0  0  0  0  0  0  0  0
   -6.6040    0.0830   -0.2790 C   0  0  0  0  0  0  0  0  0  0  0  0
   -5.4170   -0.6150   -0.5680 C   0  0  0  0  0  0  0  0  0  0  0  0
   -5.5060   -1.8690   -1.7650 Cl  0  0  0  0  0  0  0  0  0  0  0  0
   -4.2320   -0.2790    0.1070 C   0  0  0  0  0  0  0  0  0  0  0  0
   -3.0490   -1.0860   -0.2360 C   0  0  0  0  0  0  0  0  0  0  0  0
   -7.9730   -0.0310   -0.8260 C   0  0  0  0  0  0  0  0  0  0  0  0
   -8.8030    0.8010    0.1000 C   0  0  0  0  0  0  0  0  0  0  0  0
   -7.8700    1.6640    0.9050 C   0  0  0  0  0  0  0  0  0  0  0  0
    0.9910   -2.0570   -0.5680 C   0  0  0  0  0  0  0  0  0  0  0  0
    0.2370   -3.1010   -1.0650 O   0  0  0  0  0  0  0  0  0  0  0  0
    0.6260   -3.9750   -2.0860 C   0  0  0  0  0  0  0  0  0  0  0  0
    2.2500   -1.7440   -0.9870 C   0  0  0  0  0  0  0  0  0  0  0  0
    2.9300   -0.7020   -0.4290 C   0  0  0  0  0  0  0  0  0  0  0  0
    4.2330   -0.3400   -1.0760 C   0  0  0  0  0  0  0  0  0  0  0  0
    6.6560    0.3740    1.0790 S   0  0  0  0  0  0  0  0  0  0  0  0
  1  2  1  0
  2  3  1  0
  3  4  2  0
  3 33  1  0
  4  5  1  0
  5  6  2  0
  6  7  1  0
  6 33  1  0
  7  8  1  0
  8  9  1  0
  9 10  2  0
  9 31  1  0
 10 11  1  0
 11 12  1  0
 11 27  2  0
 13 12  1  1
 13 14  1  0
 13 23  1  0
 14 15  1  0
 15 16  1  0
 16 17  2  0
 16 22  1  0
 17 18  1  0
 18 19  2  0
 18 26  1  0
 19 20  1  0
 19 24  1  0
 20 21  1  0
 20 22  2  0
 22 23  1  0
 24 25  1  0
 25 26  1  0
 27 28  1  0
 27 30  1  0
 28 29  1  0
 30 31  2  0
 31 32  1  0
M  CHG  1  13   1
M  END
