
     RDKit          3D

 33 35  0  0  0  0  0  0  0  0999 V2000
   -9.1980   -0.6010    1.6560 C   0  0  0  0  0  0  0  0  0  0  0  0
   -8.9520    0.6880    0.8640 C   0  0  0  0  0  0  0  0  0  0  0  0
   -8.0560    0.3110   -0.2220 N   0  0  0  0  0  0  0  0  0  0  0  0
   -8.5050   -0.1030   -1.3970 C   0  0  0  0  0  0  0  0  0  0  0  0
   -9.7460   -0.1700   -1.5830 O   0  0  0  0  0  0  0  0  0  0  0  0
   -7.6390   -0.4420   -2.3640 N   0  0  0  0  0  0  0  0  0  0  0  0
   -6.3190   -0.3690   -2.1620 C   0  0  0  0  0  0  0  0  0  0  0  0
   -5.5400   -0.6900   -3.0800 O   0  0  0  0  0  0  0  0  0  0  0  0
   -5.7980    0.0530   -0.9650 N   0  0  0  0  0  0  0  0  0  0  0  0
   -4.4210    0.0810   -0.8610 N   0  0  0  0  0  0  0  0  0  0  0  0
   -3.5910    0.4710    0.1920 C   0  0  0  0  0  0  0  0  0  0  0  0
   -4.0870    0.8760    1.2480 O   0  0  0  0  0  0  0  0  0  0  0  0
   -2.1100    0.4140    0.0880 C   0  0  0  0  0  0  0  0  0  0  0  0
   -1.3940    0.0130   -0.9460 N   0  0  0  0  0  0  0  0  0  0  0  0
   -0.0590    0.0940   -0.6810 C   0  0  0  0  0  0  0  0  0  0  0  0
    1.0680   -0.2020   -1.4140 C   0  0  0  0  0  0  0  0  0  0  0  0
    2.3310   -0.0060   -0.8410 C   0  0  0  0  0  0  0  0  0  0  0  0
    2.4930    0.4740    0.4340 C   0  0  0  0  0  0  0  0  0  0  0  0
    3.7450    0.6660    1.0750 N   0  0  0  0  0  0  0  0  0  0  0  0
    4.9600    0.0610    0.7110 C   0  0  0  0  0  0  0  0  0  0  0  0
    4.9940   -0.7330   -0.2510 O   0  0  0  0  0  0  0  0  0  0  0  0
    6.2230    0.3370    1.4460 C   0  0  0  0  0  0  0  0  0  0  0  0
    7.4010   -0.4370    0.9420 C   0  0  0  0  0  0  0  0  0  0  0  0
    7.7260   -0.1580   -0.4200 N   0  0  0  0  0  0  0  0  0  0  0  0
    8.8280   -0.9180   -0.9250 C   0  0  1  0  0  0  0  0  0  0  0  0
    8.5370   -2.4150   -0.9110 C   0  0  0  0  0  0  0  0  0  0  0  0
    9.0130   -0.5420   -2.3370 N   0  0  0  0  0  0  0  0  0  0  0  0
    1.3110    0.7590    1.1340 C   0  0  0  0  0  0  0  0  0  0  0  0
    0.0650    0.5750    0.5960 C   0  0  0  0  0  0  0  0  0  0  0  0
   -1.2300    0.7770    1.0800 C   0  0  0  0  0  0  0  0  0  0  0  0
   -1.5040    1.2930    2.4360 C   0  0  0  0  0  0  0  0  0  0  0  0
   -6.6990    0.3770   -0.0400 C   0  0  0  0  0  0  0  0  0  0  0  0
   -6.3380    0.7710    1.0780 O   0  0  0  0  0  0  0  0  0  0  0  0
  1  2  1  0
  2  3  1  0
  3  4  1  0
  3 32  1  0
  4  5  2  0
  4  6  1  0
  6  7  1  0
  7  8  2  0
  7  9  1  0
  9 10  1  0
  9 32  1  0
 10 11  1  0
 11 12  2  0
 11 13  1  0
 13 14  1  0
 13 30  2  0
 14 15  1  0
 15 16  2  0
 15 29  1  0
 16 17  1  0
 17 18  2  0
 18 19  1  0
 18 28  1  0
 19 20  1  0
 20 21  2  0
 20 22  1  0
 22 23  1  0
 23 24  1  0
 24 25  1  0
 25 26  1  6
 25 27  1  0
 28 29  2  0
 29 30  1  0
 30 31  1  0
 32 33  2  0
M  END
