
     RDKit          3D

 33 37  0  0  0  0  0  0  0  0999 V2000
   10.2730    1.1240    0.8200 C   0  0  0  0  0  0  0  0  0  0  0  0
    8.7930    1.0510    0.6930 C   0  0  0  0  0  0  0  0  0  0  0  0
    8.0720   -0.0490    0.3100 C   0  0  0  0  0  0  0  0  0  0  0  0
    6.7080   -0.1070    0.2720 C   0  0  0  0  0  0  0  0  0  0  0  0
    5.9320    1.0380    0.6380 C   0  0  0  0  0  0  0  0  0  0  0  0
    4.6230    1.0760    0.6570 C   0  0  0  0  0  0  0  0  0  0  0  0
    3.5270    0.1610    0.2310 C   0  0  0  0  0  0  0  0  0  0  0  0
    3.3230   -0.0860   -0.9440 O   0  0  0  0  0  0  0  0  0  0  0  0
    2.7100   -0.4300    1.2860 N   0  0  0  0  0  0  0  0  0  0  0  0
    1.6610   -1.2630    0.7580 C   0  0  0  0  0  0  0  0  0  0  0  0
    1.8330   -2.5710    0.5870 C   0  0  0  0  0  0  0  0  0  0  0  0
    0.8470   -3.2560   -0.1470 C   0  0  0  0  0  0  0  0  0  0  0  0
   -0.2110   -2.5750   -0.6390 C   0  0  0  0  0  0  0  0  0  0  0  0
   -1.4270   -3.4960   -1.5190 Cl  0  0  0  0  0  0  0  0  0  0  0  0
   -0.4090   -1.1880   -0.4590 C   0  0  0  0  0  0  0  0  0  0  0  0
   -1.4060   -0.5550   -1.3060 C   0  0  0  0  0  0  0  0  0  0  0  0
   -2.6300   -0.0630   -0.9880 N   0  0  2  0  0  0  0  0  0  0  0  0
   -3.1780    0.2960   -2.3990 C   0  0  0  0  0  0  0  0  0  0  0  0
   -4.6270    0.0670   -2.3690 C   0  0  0  0  0  0  0  0  0  0  0  0
   -5.2990    0.6570   -1.2460 N   0  0  0  0  0  0  0  0  0  0  0  0
   -6.4880   -0.1280   -1.0480 C   0  0  0  0  0  0  0  0  0  0  0  0
   -7.1760    0.2660    0.1890 C   0  0  0  0  0  0  0  0  0  0  0  0
   -7.4810   -0.6250    1.2300 C   0  0  0  0  0  0  0  0  0  0  0  0
   -8.0940    0.1010    2.2000 C   0  0  0  0  0  0  0  0  0  0  0  0
   -8.1480    1.4000    1.7400 C   0  0  0  0  0  0  0  0  0  0  0  0
   -7.5990    1.4420    0.5510 O   0  0  0  0  0  0  0  0  0  0  0  0
   -4.5940    0.8550   -0.0660 C   0  0  0  0  0  0  0  0  0  0  0  0
   -3.0560    1.0400   -0.2410 C   0  0  0  0  0  0  0  0  0  0  0  0
    0.5460   -0.5510    0.2510 C   0  0  0  0  0  0  0  0  0  0  0  0
    4.0450    2.3490    1.1090 N   0  0  0  0  0  0  0  0  0  0  0  0
    5.5120    3.3510    1.4540 S   0  0  0  0  0  0  0  0  0  0  0  0
    6.6770    2.1060    1.0100 C   0  0  0  0  0  0  0  0  0  0  0  0
    8.0540    2.1520    1.0500 C   0  0  0  0  0  0  0  0  0  0  0  0
  1  2  1  0
  2  3  2  0
  2 33  1  0
  3  4  1  0
  4  5  2  0
  5  6  1  0
  5 32  1  0
  6  7  1  0
  6 30  2  0
  7  8  2  0
  7  9  1  0
  9 10  1  0
 10 11  2  0
 10 29  1  0
 11 12  1  0
 12 13  2  0
 13 14  1  0
 13 15  1  0
 15 16  1  0
 15 29  2  0
 17 16  1  6
 17 18  1  0
 17 28  1  0
 18 19  1  0
 19 20  1  0
 20 21  1  0
 20 27  1  0
 21 22  1  0
 22 23  2  0
 22 26  1  0
 23 24  1  0
 24 25  2  0
 25 26  1  0
 27 28  1  0
 30 31  1  0
 31 32  1  0
 32 33  2  0
M  CHG  1  17   1
M  END
