
     RDKit          3D

 33 37  0  0  0  0  0  0  0  0999 V2000
    0.6360   -3.8850    0.7820 C   0  0  0  0  0  0  0  0  0  0  0  0
    0.6060   -3.3940   -0.5960 C   0  0  0  0  0  0  0  0  0  0  0  0
    0.2220   -4.2500   -1.6350 C   0  0  0  0  0  0  0  0  0  0  0  0
    0.2770   -3.8890   -2.9450 C   0  0  0  0  0  0  0  0  0  0  0  0
    0.7260   -2.6240   -3.3230 C   0  0  0  0  0  0  0  0  0  0  0  0
    1.0910   -1.7980   -2.2970 C   0  0  0  0  0  0  0  0  0  0  0  0
    1.7640   -0.2030   -2.7210 Cl  0  0  0  0  0  0  0  0  0  0  0  0
    1.0490   -2.1150   -0.9540 C   0  0  0  0  0  0  0  0  0  0  0  0
    1.3730   -1.1360    0.0310 N   0  0  0  0  0  0  0  0  0  0  0  0
    0.5170   -0.0880    0.3140 C   0  0  0  0  0  0  0  0  0  0  0  0
   -0.8300    0.1630   -0.2530 C   0  0  0  0  0  0  0  0  0  0  0  0
   -1.8710   -0.6500    0.3790 N   0  0  0  0  0  0  0  0  0  0  0  0
   -3.0120    0.0800    0.8530 C   0  0  2  0  0  0  0  0  0  0  0  0
   -4.1820   -0.9060    0.8400 C   0  0  0  0  0  0  0  0  0  0  0  0
   -4.9360   -0.6940   -0.3420 O   0  0  0  0  0  0  0  0  0  0  0  0
   -5.7240    0.4420   -0.0560 C   0  0  0  0  0  0  0  0  0  0  0  0
   -4.7780    1.6250   -0.0820 C   0  0  2  0  0  0  0  0  0  0  0  0
   -5.2530    2.7400    0.7820 C   0  0  0  0  0  0  0  0  0  0  0  0
   -5.7080    3.4940   -0.4310 C   0  0  0  0  0  0  0  0  0  0  0  0
   -5.0400    2.4830   -1.3170 C   0  0  0  0  0  0  0  0  0  0  0  0
   -3.3340    1.2740   -0.0090 C   0  0  0  0  0  0  0  0  0  0  0  0
    1.1970    0.6870    1.1890 N   0  0  0  0  0  0  0  0  0  0  0  0
    2.3730    0.1650    1.4290 N   0  0  0  0  0  0  0  0  0  0  0  0
    2.4670   -0.9770    0.7010 C   0  0  0  0  0  0  0  0  0  0  0  0
    3.9170   -2.0160    0.8620 S   0  0  0  0  0  0  0  0  0  0  0  0
    5.0650   -1.4040    2.0240 C   0  0  0  0  0  0  0  0  0  0  0  0
    5.9750   -0.2990    1.4840 C   0  0  0  0  0  0  0  0  0  0  0  0
    6.6590    0.5150    1.0650 C   0  0  0  0  0  0  0  0  0  0  0  0
    7.5510    1.5920    0.5400 C   0  0  0  0  0  0  0  0  0  0  0  0
    7.1450    2.8940    1.0950 C   0  0  0  0  0  0  0  0  0  0  0  0
    7.9890    3.8050    0.6550 C   0  0  0  0  0  0  0  0  0  0  0  0
    8.8820    3.1300   -0.1470 C   0  0  0  0  0  0  0  0  0  0  0  0
    8.5650    1.8520   -0.1830 O   0  0  0  0  0  0  0  0  0  0  0  0
  1  2  1  0
  2  3  2  0
  2  8  1  0
  3  4  1  0
  4  5  2  0
  5  6  1  0
  6  7  1  0
  6  8  2  0
  8  9  1  0
  9 10  1  0
  9 24  1  0
 10 11  1  0
 10 22  2  0
 11 12  1  0
 13 12  1  6
 13 14  1  0
 13 21  1  0
 14 15  1  0
 15 16  1  0
 17 16  1  6
 17 18  1  0
 17 20  1  0
 17 21  1  0
 18 19  1  0
 19 20  1  0
 22 23  1  0
 23 24  2  0
 24 25  1  0
 25 26  1  0
 26 27  1  0
 27 28  3  0
 28 29  1  0
 29 30  2  0
 29 33  1  0
 30 31  1  0
 31 32  2  0
 32 33  1  0
M  CHG  1  12   1
M  END
