
     RDKit          3D

 23 24  0  0  0  0  0  0  0  0999 V2000
   -5.4250   -2.1930    1.4050 O   0  0  0  0  0  0  0  0  0  0  0  0
   -4.3530   -2.4140    0.7650 C   0  0  0  0  0  0  0  0  0  0  0  0
   -3.5820   -1.3810    0.1980 N   0  0  0  0  0  0  0  0  0  0  0  0
   -2.5420   -1.8860   -0.3960 C   0  0  0  0  0  0  0  0  0  0  0  0
   -1.5140   -1.1750   -1.0930 N   0  0  0  0  0  0  0  0  0  0  0  0
   -1.2790    0.1310   -0.8800 N   0  0  0  0  0  0  0  0  0  0  0  0
   -0.3120    0.8250   -0.4690 C   0  0  0  0  0  0  0  0  0  0  0  0
   -0.5580    2.2500   -0.4160 N   0  0  0  0  0  0  0  0  0  0  0  0
   -1.8550    2.7360    0.0600 C   0  0  0  0  0  0  0  0  0  0  0  0
   -1.8600    4.2470    0.0070 C   0  0  0  0  0  0  0  0  0  0  0  0
   -1.6580    4.7360   -1.2800 O   0  0  0  0  0  0  0  0  0  0  0  0
    0.9910    0.3260   -0.0680 C   0  0  0  0  0  0  0  0  0  0  0  0
    1.9190    1.1990    0.3490 C   0  0  0  0  0  0  0  0  0  0  0  0
    3.2690    1.0050    0.7960 N   0  0  0  0  0  0  0  0  0  0  0  0
    4.0560   -0.1620    0.6100 C   0  0  0  0  0  0  0  0  0  0  0  0
    5.2810   -0.1050    0.7660 O   0  0  0  0  0  0  0  0  0  0  0  0
    3.4880   -1.5080    0.2220 C   0  0  1  0  0  0  0  0  0  0  0  0
    4.2400   -2.4550    0.9160 O   0  0  0  0  0  0  0  0  0  0  0  0
    4.8500   -3.2970    0.1230 O   0  0  0  0  0  0  0  0  0  0  0  0
    2.1850   -1.5920    0.7070 O   0  0  0  0  0  0  0  0  0  0  0  0
    1.2090   -1.1480   -0.1420 C   0  0  0  0  0  0  0  0  0  0  0  0
   -2.5560   -3.3630   -0.2550 C   0  0  0  0  0  0  0  0  0  0  0  0
   -3.7350   -3.6250    0.4940 O   0  0  0  0  0  0  0  0  0  0  0  0
  1  2  2  0
  2  3  1  0
  2 23  1  0
  3  4  2  0
  4  5  1  0
  4 22  1  0
  5  6  1  0
  6  7  2  3
  7  8  1  0
  7 12  1  0
  8  9  1  0
  9 10  1  0
 10 11  1  0
 12 13  2  0
 12 21  1  0
 13 14  1  0
 14 15  1  0
 15 16  2  0
 15 17  1  0
 17 18  1  1
 17 20  1  0
 18 19  1  0
 20 21  1  0
 22 23  1  0
M  END
