
     RDKit          3D

 23 25  0  0  0  0  0  0  0  0999 V2000
   -3.7470    0.3590   -2.7830 N   0  0  0  0  0  0  0  0  0  0  0  0
   -3.6330    0.7190   -1.4950 O   0  0  0  0  0  0  0  0  0  0  0  0
   -3.4460   -0.4010   -0.7060 C   0  0  2  0  0  0  0  0  0  0  0  0
   -4.5860   -0.6000    0.2290 C   0  0  0  0  0  0  0  0  0  0  0  0
   -4.6520   -1.5880    0.9860 O   0  0  0  0  0  0  0  0  0  0  0  0
   -5.6410    0.3740    0.2560 N   0  0  0  0  0  0  0  0  0  0  0  0
   -6.6970    0.2270    1.0860 O   0  0  0  0  0  0  0  0  0  0  0  0
   -6.2900    0.0260    2.3150 O   0  0  0  0  0  0  0  0  0  0  0  0
   -2.1670   -0.3150    0.0470 C   0  0  0  0  0  0  0  0  0  0  0  0
   -0.9080   -0.2640   -0.3910 N   0  0  0  0  0  0  0  0  0  0  0  0
   -0.1230   -0.1870    0.6940 C   0  0  0  0  0  0  0  0  0  0  0  0
    1.3100   -0.1190    0.7300 C   0  0  0  0  0  0  0  0  0  0  0  0
    2.0550   -0.1300   -0.4240 C   0  0  0  0  0  0  0  0  0  0  0  0
    3.4460   -0.0640   -0.2710 C   0  0  0  0  0  0  0  0  0  0  0  0
    4.0420    0.0090    0.9650 C   0  0  0  0  0  0  0  0  0  0  0  0
    3.2290    0.0180    2.0920 C   0  0  0  0  0  0  0  0  0  0  0  0
    1.9160   -0.0460    1.9320 N   0  0  0  0  0  0  0  0  0  0  0  0
    5.4280    0.0750    1.0870 O   0  0  0  0  0  0  0  0  0  0  0  0
    6.1870   -0.3070   -0.0460 C   0  0  0  0  0  0  0  0  0  0  0  0
    5.5860    0.4880   -1.2030 C   0  0  0  0  0  0  0  0  0  0  0  0
    4.2850   -0.0720   -1.4040 O   0  0  0  0  0  0  0  0  0  0  0  0
   -0.9480   -0.1930    1.7550 N   0  0  0  0  0  0  0  0  0  0  0  0
   -2.1870   -0.2700    1.3830 O   0  0  0  0  0  0  0  0  0  0  0  0
  1  2  1  0
  3  2  1  1
  3  4  1  0
  3  9  1  0
  4  5  2  0
  4  6  1  0
  6  7  1  0
  7  8  1  0
  9 10  2  0
  9 23  1  0
 10 11  1  0
 11 12  1  0
 11 22  2  0
 12 13  2  0
 12 17  1  0
 13 14  1  0
 14 15  2  0
 14 21  1  0
 15 16  1  0
 15 18  1  0
 16 17  2  0
 18 19  1  0
 19 20  1  0
 20 21  1  0
 22 23  1  0
M  END
