
     RDKit          3D

 23 25  0  0  0  0  0  0  0  0999 V2000
   -4.9040    1.4100   -0.1470 O   0  0  0  0  0  0  0  0  0  0  0  0
   -3.8110    1.9820    0.0320 C   0  0  0  0  0  0  0  0  0  0  0  0
   -3.7690    3.3540    0.2510 O   0  0  0  0  0  0  0  0  0  0  0  0
   -2.6260    1.2360    0.0120 N   0  0  0  0  0  0  0  0  0  0  0  0
   -2.5590   -0.1880   -0.2070 C   0  0  2  0  0  0  0  0  0  0  0  0
   -1.2350   -0.7180    0.0390 N   0  0  0  0  0  0  0  0  0  0  0  0
   -0.8590   -1.8350    0.6850 C   0  0  0  0  0  0  0  0  0  0  0  0
    0.5070   -1.9200    0.6640 C   0  0  0  0  0  0  0  0  0  0  0  0
    0.9600   -0.8120   -0.0200 C   0  0  0  0  0  0  0  0  0  0  0  0
    2.3890   -0.4890   -0.2880 C   0  0  2  0  0  0  0  0  0  0  0  0
    2.7860    0.6040    0.6670 C   0  0  0  0  0  0  0  0  0  0  0  0
    4.2740    0.6670    0.9060 C   0  0  0  0  0  0  0  0  0  0  0  0
    4.9760    1.1990   -0.2580 N   0  0  0  0  0  0  0  0  0  0  0  0
    4.7340    0.7640   -1.6020 C   0  0  0  0  0  0  0  0  0  0  0  0
    5.5780    1.1970   -2.4330 O   0  0  0  0  0  0  0  0  0  0  0  0
    3.7050   -0.0590   -2.0880 O   0  0  0  0  0  0  0  0  0  0  0  0
    2.4710   -0.1000   -1.6220 O   0  0  0  0  0  0  0  0  0  0  0  0
   -0.1350   -0.1170   -0.3770 N   0  0  0  0  0  0  0  0  0  0  0  0
   -3.1220   -0.6160   -1.5370 C   0  0  0  0  0  0  0  0  0  0  0  0
   -3.3020   -2.0230   -1.3140 O   0  0  0  0  0  0  0  0  0  0  0  0
   -3.7500   -2.1260    0.0090 C   0  0  0  0  0  0  0  0  0  0  0  0
   -4.3210   -3.1710    0.4480 O   0  0  0  0  0  0  0  0  0  0  0  0
   -3.4570   -0.9150    0.7050 N   0  0  0  0  0  0  0  0  0  0  0  0
  1  2  2  0
  2  3  1  0
  2  4  1  0
  5  4  1  1
  5  6  1  0
  5 19  1  0
  5 23  1  0
  6  7  1  0
  6 18  1  0
  7  8  2  0
  8  9  1  0
 10  9  1  1
  9 18  2  0
 10 11  1  0
 10 17  1  0
 11 12  1  0
 12 13  1  0
 13 14  1  0
 14 15  2  0
 14 16  1  0
 16 17  1  0
 19 20  1  0
 20 21  1  0
 21 22  2  0
 21 23  1  0
M  END
