
     RDKit          3D

 23 25  0  0  0  0  0  0  0  0999 V2000
   -5.7150    0.8600   -0.6830 O   0  0  0  0  0  0  0  0  0  0  0  0
   -4.7470    0.3630   -0.0720 C   0  0  0  0  0  0  0  0  0  0  0  0
   -4.6850   -1.0020    0.2610 N   0  0  0  0  0  0  0  0  0  0  0  0
   -3.4900   -1.5540    0.8510 C   0  0  0  0  0  0  0  0  0  0  0  0
   -2.3050   -0.5710    0.7400 C   0  0  1  0  0  0  0  0  0  0  0  0
   -1.8050   -0.6250   -0.6430 C   0  0  0  0  0  0  0  0  0  0  0  0
   -0.6950    0.1940   -1.0220 N   0  0  0  0  0  0  0  0  0  0  0  0
   -1.0860    1.3650   -1.7990 C   0  0  0  0  0  0  0  0  0  0  0  0
   -0.2780    2.3100   -2.0900 N   0  0  0  0  0  0  0  0  0  0  0  0
    1.0710    2.2260   -1.6540 C   0  0  0  0  0  0  0  0  0  0  0  0
    1.5040    1.1930   -0.9760 C   0  0  0  0  0  0  0  0  0  0  0  0
    2.9370    1.4600   -0.6860 C   0  0  0  0  0  0  0  0  0  0  0  0
    3.5150    2.3500   -1.3450 O   0  0  0  0  0  0  0  0  0  0  0  0
    3.6810    0.7440    0.3120 N   0  0  0  0  0  0  0  0  0  0  0  0
    3.3500   -0.4970    0.9240 C   0  0  0  0  0  0  0  0  0  0  0  0
    4.3050   -1.0940    1.5910 N   0  0  0  0  0  0  0  0  0  0  0  0
    5.5150   -0.4910    1.6440 O   0  0  0  0  0  0  0  0  0  0  0  0
    6.6840   -1.1210    1.7130 O   0  0  0  0  0  0  0  0  0  0  0  0
    2.1390   -1.1370    0.8900 O   0  0  0  0  0  0  0  0  0  0  0  0
    0.8600   -0.6200    0.6300 C   0  0  0  0  0  0  0  0  0  0  0  0
    0.6820    0.0260   -0.7050 C   0  0  1  0  0  0  0  0  0  0  0  0
   -2.7390    0.7100    1.1160 O   0  0  0  0  0  0  0  0  0  0  0  0
   -3.6930    1.1680    0.2990 O   0  0  0  0  0  0  0  0  0  0  0  0
  1  2  2  0
  2  3  1  0
  2 23  1  0
  3  4  1  0
  4  5  1  0
  5  6  1  6
  5 22  1  0
  6  7  1  0
  7  8  1  0
  7 21  1  0
  8  9  2  0
  9 10  1  0
 10 11  2  0
 11 12  1  0
 11 21  1  0
 12 13  2  0
 12 14  1  0
 14 15  1  0
 15 16  2  3
 15 19  1  0
 16 17  1  0
 17 18  1  0
 19 20  1  0
 21 20  1  1
 22 23  1  0
M  END
