
     RDKit          3D

 23 25  0  0  0  0  0  0  0  0999 V2000
    4.8760   -1.3380   -0.7240 C   0  0  0  0  0  0  0  0  0  0  0  0
    3.8830   -0.3920   -0.0860 C   0  0  2  0  0  0  0  0  0  0  0  0
    2.5840   -0.5160   -0.6820 N   0  0  0  0  0  0  0  0  0  0  0  0
    1.4650    0.2440   -0.3150 C   0  0  0  0  0  0  0  0  0  0  0  0
    1.4230    1.1930    0.6330 N   0  0  0  0  0  0  0  0  0  0  0  0
    0.2180    1.6970    0.7100 N   0  0  0  0  0  0  0  0  0  0  0  0
   -0.5570    1.0800   -0.1960 C   0  0  0  0  0  0  0  0  0  0  0  0
   -1.9190    1.2890   -0.4760 N   0  0  0  0  0  0  0  0  0  0  0  0
   -2.8940    0.6760    0.0580 C   0  0  0  0  0  0  0  0  0  0  0  0
   -2.6680   -0.3660    1.0760 C   0  0  1  0  0  0  0  0  0  0  0  0
   -1.3670   -0.4220    1.5280 O   0  0  0  0  0  0  0  0  0  0  0  0
   -3.5800   -0.1170    2.1220 O   0  0  0  0  0  0  0  0  0  0  0  0
   -4.8540   -0.1070    1.5960 C   0  0  0  0  0  0  0  0  0  0  0  0
   -5.1000    0.9980    0.7800 O   0  0  0  0  0  0  0  0  0  0  0  0
   -4.2780    1.0060   -0.3410 C   0  0  2  0  0  0  0  0  0  0  0  0
   -4.6790   -0.0030   -1.2780 O   0  0  0  0  0  0  0  0  0  0  0  0
   -5.0760    0.3690   -2.5510 C   0  0  0  0  0  0  0  0  0  0  0  0
   -5.0670    1.5980   -2.8290 O   0  0  0  0  0  0  0  0  0  0  0  0
    0.2300    0.1680   -0.8370 N   0  0  0  0  0  0  0  0  0  0  0  0
    4.4450    1.0090   -0.1990 C   0  0  0  0  0  0  0  0  0  0  0  0
    5.2030    1.1220    0.9250 O   0  0  0  0  0  0  0  0  0  0  0  0
    4.7750    0.3710    1.8600 O   0  0  0  0  0  0  0  0  0  0  0  0
    3.8850   -0.5510    1.4120 C   0  0  0  0  0  0  0  0  0  0  0  0
  2  1  1  6
  2  3  1  0
  2 20  1  0
  2 23  1  0
  3  4  1  0
  4  5  2  0
  4 19  1  0
  5  6  1  0
  6  7  2  0
  7  8  1  0
  7 19  1  0
  8  9  2  3
  9 10  1  0
  9 15  1  0
 10 11  1  1
 10 12  1  0
 12 13  1  0
 13 14  1  0
 14 15  1  0
 15 16  1  6
 16 17  1  0
 17 18  2  0
 20 21  1  0
 21 22  1  0
 22 23  1  0
M  END
