
     RDKit          3D

 35 37  0  0  0  0  0  0  0  0999 V2000
    0.1650   -1.4540   -4.8330 C   0  0  0  0  0  0  0  0  0  0  0  0
    0.1310   -0.0030   -4.4690 C   0  0  0  0  0  0  0  0  0  0  0  0
   -0.4060    0.2180   -3.1780 O   0  0  0  0  0  0  0  0  0  0  0  0
    0.1470   -0.2900   -2.0270 C   0  0  0  0  0  0  0  0  0  0  0  0
    1.2850   -1.0600   -1.9990 C   0  0  0  0  0  0  0  0  0  0  0  0
    1.7910   -1.5470   -0.7860 C   0  0  0  0  0  0  0  0  0  0  0  0
    1.1850   -1.2790    0.4120 C   0  0  0  0  0  0  0  0  0  0  0  0
    1.6740   -1.7100    1.6780 N   0  0  0  0  0  0  0  0  0  0  0  0
    2.9840   -1.7440    2.1300 C   0  0  0  0  0  0  0  0  0  0  0  0
    3.2990   -2.3560    3.6330 S   0  0  0  0  0  0  0  0  0  0  0  0
    4.0950   -1.3090    1.3850 N   0  0  0  0  0  0  0  0  0  0  0  0
    5.4430   -1.3980    1.9010 C   0  0  0  0  0  0  0  0  0  0  0  0
    5.5710   -1.8790    3.0520 O   0  0  0  0  0  0  0  0  0  0  0  0
    6.5320   -0.9600    1.1300 N   0  0  0  0  0  0  0  0  0  0  0  0
    7.8910   -1.0470    1.6500 C   0  0  2  0  0  0  0  0  0  0  0  0
    8.4800    0.3410    1.6110 C   0  0  0  0  0  0  0  0  0  0  0  0
    8.7210   -2.0060    0.8170 C   0  0  0  0  0  0  0  0  0  0  0  0
    8.1660   -3.2730    0.8390 O   0  0  0  0  0  0  0  0  0  0  0  0
    0.0240   -0.4910    0.3620 C   0  0  0  0  0  0  0  0  0  0  0  0
   -0.4880   -0.0060   -0.8180 C   0  0  0  0  0  0  0  0  0  0  0  0
   -1.6450    0.7770   -0.8620 O   0  0  0  0  0  0  0  0  0  0  0  0
   -1.5330    2.1360   -0.6210 C   0  0  0  0  0  0  0  0  0  0  0  0
   -0.3740    2.5810   -0.3680 O   0  0  0  0  0  0  0  0  0  0  0  0
   -2.6840    3.0810   -0.6420 C   0  0  0  0  0  0  0  0  0  0  0  0
   -3.8970    2.4170   -1.0460 N   0  0  0  0  0  0  0  0  0  0  0  0
   -4.1830    2.3940   -2.4750 C   0  0  0  0  0  0  0  0  0  0  0  0
   -4.8120    1.7920   -0.1710 C   0  0  0  0  0  0  0  0  0  0  0  0
   -5.8360    1.2570   -0.6670 O   0  0  0  0  0  0  0  0  0  0  0  0
   -4.6530    1.7230    1.2880 C   0  0  2  0  0  0  0  0  0  0  0  0
   -5.0370    0.4510    1.9660 C   0  0  2  0  0  0  0  0  0  0  0  0
   -5.8280   -0.5610    1.2440 C   0  0  0  0  0  0  0  0  0  0  0  0
   -7.1270   -0.6560    1.4590 C   0  0  0  0  0  0  0  0  0  0  0  0
   -7.7040    0.3000    2.4440 C   0  0  0  0  0  0  0  0  0  0  0  0
   -7.1940    1.6720    1.9590 C   0  0  0  0  0  0  0  0  0  0  0  0
   -5.7500    1.7560    2.2580 C   0  0  2  0  0  0  0  0  0  0  0  0
  1  2  1  0
  2  3  1  0
  3  4  1  0
  4  5  2  0
  4 20  1  0
  5  6  1  0
  6  7  2  0
  7  8  1  0
  7 19  1  0
  8  9  1  0
  9 10  2  0
  9 11  1  0
 11 12  1  0
 12 13  2  0
 12 14  1  0
 14 15  1  0
 15 16  1  6
 15 17  1  0
 17 18  1  0
 19 20  2  0
 20 21  1  0
 21 22  1  0
 22 23  2  0
 22 24  1  0
 24 25  1  0
 25 26  1  0
 25 27  1  0
 27 28  2  0
 29 27  1  6
 29 30  1  0
 29 35  1  0
 30 31  1  6
 30 35  1  0
 31 32  2  0
 32 33  1  0
 33 34  1  0
 35 34  1  6
M  END
