
     RDKit          3D

 35 37  0  0  0  0  0  0  0  0999 V2000
   -1.9270   -5.4010   -0.8880 C   0  0  0  0  0  0  0  0  0  0  0  0
   -3.0000   -5.0360    0.0860 C   0  0  0  0  0  0  0  0  0  0  0  0
   -2.4850   -4.0070    1.0070 N   0  0  0  0  0  0  0  0  0  0  0  0
   -2.1770   -2.7230    0.5290 C   0  0  0  0  0  0  0  0  0  0  0  0
   -3.2860   -1.9250   -0.0220 C   0  0  0  0  0  0  0  0  0  0  0  0
   -0.9030   -2.1970    0.5380 C   0  0  0  0  0  0  0  0  0  0  0  0
   -0.7760   -0.8880    0.0190 C   0  0  0  0  0  0  0  0  0  0  0  0
    0.0400    0.0750   -0.2730 C   0  0  0  0  0  0  0  0  0  0  0  0
    1.5190    0.0040   -0.0830 C   0  0  0  0  0  0  0  0  0  0  0  0
    1.9410   -1.0760    0.2330 O   0  0  0  0  0  0  0  0  0  0  0  0
    2.4090    1.0670   -0.2350 N   0  0  0  0  0  0  0  0  0  0  0  0
    3.7840    1.2140   -0.1390 C   0  0  0  0  0  0  0  0  0  0  0  0
    4.8490    0.5470    0.1070 C   0  0  0  0  0  0  0  0  0  0  0  0
    5.0010   -0.8790    0.4290 C   0  0  0  0  0  0  0  0  0  0  0  0
    4.2480   -1.8060    0.5550 O   0  0  0  0  0  0  0  0  0  0  0  0
    6.1090    1.3730    0.1240 C   0  0  1  0  0  0  0  0  0  0  0  0
    7.3340    0.6780   -0.0440 C   0  0  0  0  0  0  0  0  0  0  0  0
    7.9170    1.1410   -1.1620 C   0  0  0  0  0  0  0  0  0  0  0  0
    7.0320    2.1780   -1.7570 C   0  0  0  0  0  0  0  0  0  0  0  0
    5.9840    2.3260   -1.0430 C   0  0  0  0  0  0  0  0  0  0  0  0
    4.3970    2.9520   -0.5950 S   0  0  0  0  0  0  0  0  0  0  0  0
   -0.4520    1.3510   -0.8100 C   0  0  0  0  0  0  0  0  0  0  0  0
    0.4540    2.2030   -1.2340 O   0  0  0  0  0  0  0  0  0  0  0  0
   -1.7170    1.8820   -0.9720 N   0  0  0  0  0  0  0  0  0  0  0  0
   -1.7780    3.1950   -1.7310 C   0  0  0  0  0  0  0  0  0  0  0  0
   -2.1030    4.2920   -0.7340 C   0  0  0  0  0  0  0  0  0  0  0  0
   -3.2830    3.8670    0.1320 C   0  0  1  0  0  0  0  0  0  0  0  0
   -4.3040    4.9650    0.2480 C   0  0  0  0  0  0  0  0  0  0  0  0
   -3.6850    6.0630    0.8240 O   0  0  0  0  0  0  0  0  0  0  0  0
   -3.9500    2.6490   -0.4670 C   0  0  0  0  0  0  0  0  0  0  0  0
   -2.9680    1.4490   -0.4720 C   0  0  0  0  0  0  0  0  0  0  0  0
    0.0470   -3.0950    1.1380 C   0  0  0  0  0  0  0  0  0  0  0  0
    1.2600   -2.9630    1.3390 O   0  0  0  0  0  0  0  0  0  0  0  0
   -0.3790   -4.3920    1.6210 O   0  0  0  0  0  0  0  0  0  0  0  0
    0.5490   -5.2740    2.2090 C   0  0  0  0  0  0  0  0  0  0  0  0
  1  2  1  0
  2  3  1  0
  3  4  1  0
  4  5  1  0
  4  6  2  3
  6  7  1  0
  6 32  1  0
  7  8  2  3
  8  9  1  0
  8 22  1  0
  9 10  2  0
  9 11  1  0
 11 12  1  0
 12 13  2  0
 12 21  1  0
 13 14  1  0
 13 16  1  0
 14 15  2  0
 16 17  1  6
 16 20  1  0
 17 18  2  0
 18 19  1  0
 19 20  2  0
 20 21  1  0
 22 23  2  0
 22 24  1  0
 24 25  1  0
 24 31  1  0
 25 26  1  0
 26 27  1  0
 27 28  1  6
 27 30  1  0
 28 29  1  0
 30 31  1  0
 32 33  2  0
 32 34  1  0
 34 35  1  0
M  END
