
     RDKit          3D

 35 37  0  0  0  0  0  0  0  0999 V2000
    6.5000   -1.6730   -1.3130 C   0  0  0  0  0  0  0  0  0  0  0  0
    6.1410   -0.3750   -0.6650 C   0  0  0  0  0  0  0  0  0  0  0  0
    6.9680    0.7170   -0.7390 C   0  0  0  0  0  0  0  0  0  0  0  0
    6.6080    1.8870   -0.1340 C   0  0  0  0  0  0  0  0  0  0  0  0
    5.4220    1.9760    0.5470 C   0  0  0  0  0  0  0  0  0  0  0  0
    5.1040    3.2860    1.1760 C   0  0  0  0  0  0  0  0  0  0  0  0
    4.5370    0.8900    0.6530 C   0  0  0  0  0  0  0  0  0  0  0  0
    3.3750    1.1290    1.3820 N   0  0  0  0  0  0  0  0  0  0  0  0
    2.2890    0.2040    1.6120 C   0  0  0  0  0  0  0  0  0  0  0  0
    2.4130   -0.9240    1.0980 O   0  0  0  0  0  0  0  0  0  0  0  0
    1.1240    0.6310    2.4200 C   0  0  0  0  0  0  0  0  0  0  0  0
   -0.0920   -0.1470    2.4210 C   0  0  0  0  0  0  0  0  0  0  0  0
   -0.8930   -0.2510    1.1760 N   0  0  0  0  0  0  0  0  0  0  0  0
   -1.8590    0.7880    0.9560 C   0  0  0  0  0  0  0  0  0  0  0  0
   -1.8590    1.7660    1.8370 O   0  0  0  0  0  0  0  0  0  0  0  0
   -2.8630    0.9620   -0.0670 C   0  0  2  0  0  0  0  0  0  0  0  0
   -2.4240    1.1840   -1.4620 C   0  0  0  0  0  0  0  0  0  0  0  0
   -3.5510    2.0290   -2.0570 C   0  0  0  0  0  0  0  0  0  0  0  0
   -4.3800    2.3590   -0.8710 C   0  0  2  0  0  0  0  0  0  0  0  0
   -4.9670    3.7420   -0.8890 C   0  0  0  0  0  0  0  0  0  0  0  0
   -5.7230    3.8850   -2.0730 O   0  0  0  0  0  0  0  0  0  0  0  0
   -3.6170    2.1270    0.2630 O   0  0  0  0  0  0  0  0  0  0  0  0
   -0.7250   -1.3190    0.2910 C   0  0  1  0  0  0  0  0  0  0  0  0
   -1.8830   -2.1850   -0.0600 C   0  0  0  0  0  0  0  0  0  0  0  0
   -2.5260   -2.8620    1.0470 C   0  0  0  0  0  0  0  0  0  0  0  0
   -2.1890   -2.7750    2.2400 O   0  0  0  0  0  0  0  0  0  0  0  0
   -3.7040   -3.7530    0.7610 C   0  0  0  0  0  0  0  0  0  0  0  0
   -4.2030   -3.9650   -0.4590 C   0  0  0  0  0  0  0  0  0  0  0  0
   -5.2720   -4.7820   -0.6630 C   0  0  0  0  0  0  0  0  0  0  0  0
   -5.6670   -5.3440    0.9800 S   0  0  0  0  0  0  0  0  0  0  0  0
   -4.3650   -4.4340    1.7990 C   0  0  0  0  0  0  0  0  0  0  0  0
    0.0050   -0.9360   -0.9700 C   0  0  0  0  0  0  0  0  0  0  0  0
    0.1020   -1.8120   -2.0700 N   0  0  0  0  0  0  0  0  0  0  0  0
    0.5430    0.1800   -1.0590 O   0  0  0  0  0  0  0  0  0  0  0  0
    4.9450   -0.2510    0.0330 C   0  0  0  0  0  0  0  0  0  0  0  0
  1  2  1  0
  2  3  2  0
  2 35  1  0
  3  4  1  0
  4  5  2  0
  5  6  1  0
  5  7  1  0
  7  8  1  0
  7 35  2  0
  8  9  1  0
  9 10  2  0
  9 11  1  0
 11 12  1  0
 12 13  1  0
 13 14  1  0
 13 23  1  0
 14 15  2  0
 16 14  1  1
 16 17  1  0
 16 22  1  0
 17 18  1  0
 18 19  1  0
 19 20  1  6
 19 22  1  0
 20 21  1  0
 23 24  1  6
 23 32  1  0
 24 25  1  0
 25 26  2  0
 25 27  1  0
 27 28  1  0
 27 31  2  0
 28 29  2  0
 29 30  1  0
 30 31  1  0
 32 33  1  0
 32 34  2  0
M  END
