
     RDKit          3D

 35 40  0  0  0  0  0  0  0  0999 V2000
   -8.9430   -1.0220    0.0640 C   0  0  0  0  0  0  0  0  0  0  0  0
   -8.3140   -1.9460    0.8660 C   0  0  0  0  0  0  0  0  0  0  0  0
   -6.9480   -2.1830    0.7800 C   0  0  0  0  0  0  0  0  0  0  0  0
   -6.2280   -1.4490   -0.1520 C   0  0  0  0  0  0  0  0  0  0  0  0
   -4.7770   -1.6810   -0.2630 C   0  0  0  0  0  0  0  0  0  0  0  0
   -4.0290   -0.7450    0.6850 C   0  0  1  0  0  0  0  0  0  0  0  0
   -2.5770   -1.0150    0.5390 C   0  0  0  0  0  0  0  0  0  0  0  0
   -1.7460    0.1420    0.5250 N   0  0  0  0  0  0  0  0  0  0  0  0
   -0.3620   -0.0220    0.2340 C   0  0  0  0  0  0  0  0  0  0  0  0
    0.5090    1.0740    0.2070 C   0  0  0  0  0  0  0  0  0  0  0  0
    1.8490    0.9230   -0.0720 C   0  0  0  0  0  0  0  0  0  0  0  0
    2.6830    2.1120   -0.0800 C   0  0  0  0  0  0  0  0  0  0  0  0
    3.7200    2.2570    0.8180 C   0  0  0  0  0  0  0  0  0  0  0  0
    4.4780    3.4160    0.7580 C   0  0  0  0  0  0  0  0  0  0  0  0
    4.2160    4.3880   -0.1540 N   0  0  0  0  0  0  0  0  0  0  0  0
    3.2110    4.2590   -1.0320 C   0  0  0  0  0  0  0  0  0  0  0  0
    2.4400    3.1150   -0.9940 C   0  0  0  0  0  0  0  0  0  0  0  0
    2.3030   -0.3510   -0.3250 C   0  0  0  0  0  0  0  0  0  0  0  0
    3.7120   -0.5280   -0.6200 C   0  0  0  0  0  0  0  0  0  0  0  0
    4.2950    0.0390   -1.7190 C   0  0  0  0  0  0  0  0  0  0  0  0
    5.6420   -0.1860   -1.9160 C   0  0  0  0  0  0  0  0  0  0  0  0
    6.4170   -0.9480   -1.0640 C   0  0  0  0  0  0  0  0  0  0  0  0
    7.7630   -1.1580   -1.2840 C   0  0  0  0  0  0  0  0  0  0  0  0
    8.5340   -1.9150   -0.4390 C   0  0  0  0  0  0  0  0  0  0  0  0
    7.9120   -2.4750    0.6660 C   0  0  0  0  0  0  0  0  0  0  0  0
    6.5670   -2.2710    0.8930 C   0  0  0  0  0  0  0  0  0  0  0  0
    5.7940   -1.5080    0.0400 C   0  0  0  0  0  0  0  0  0  0  0  0
    4.4470   -1.3050    0.2700 C   0  0  0  0  0  0  0  0  0  0  0  0
    1.4550   -1.4210   -0.2990 N   0  0  0  0  0  0  0  0  0  0  0  0
    0.1770   -1.2240   -0.0260 N   0  0  0  0  0  0  0  0  0  0  0  0
   -2.2380    1.4540    0.7890 C   0  0  0  0  0  0  0  0  0  0  0  0
   -3.6520    1.5250    1.2560 C   0  0  0  0  0  0  0  0  0  0  0  0
   -4.4170    0.6010    0.4040 N   0  0  0  0  0  0  0  0  0  0  0  0
   -6.8200   -0.5210   -0.9660 C   0  0  0  0  0  0  0  0  0  0  0  0
   -8.1780   -0.3170   -0.8480 C   0  0  0  0  0  0  0  0  0  0  0  0
  1  2  2  0
  1 35  1  0
  2  3  1  0
  3  4  2  0
  4  5  1  0
  4 34  1  0
  6  5  1  6
  6  7  1  0
  6 33  1  0
  7  8  1  0
  8  9  1  0
  8 31  1  0
  9 10  2  0
  9 30  1  0
 10 11  1  0
 11 12  1  0
 11 18  2  0
 12 13  2  0
 12 17  1  0
 13 14  1  0
 14 15  2  0
 15 16  1  0
 16 17  2  0
 18 19  1  0
 18 29  1  0
 19 20  2  0
 19 28  1  0
 20 21  1  0
 21 22  2  0
 22 23  1  0
 22 27  1  0
 23 24  2  0
 24 25  1  0
 25 26  2  0
 26 27  1  0
 27 28  2  0
 29 30  2  0
 31 32  1  0
 32 33  1  0
 34 35  2  0
M  CHG  1  33   1
M  END
