
     RDKit          3D

 35 39  0  0  0  0  0  0  0  0999 V2000
   -7.7170    2.0510   -0.3880 C   0  0  0  0  0  0  0  0  0  0  0  0
   -6.6310    1.2980    0.3440 C   0  0  2  0  0  0  0  0  0  0  0  0
   -5.4180    2.1320    0.6250 C   0  0  0  0  0  0  0  0  0  0  0  0
   -4.2210    1.4470    0.0110 C   0  0  2  0  0  0  0  0  0  0  0  0
   -4.5330    1.2920   -1.4670 C   0  0  0  0  0  0  0  0  0  0  0  0
   -5.6050    0.2090   -1.5450 C   0  0  0  0  0  0  0  0  0  0  0  0
   -6.2750    0.0690   -0.2900 N   0  0  0  0  0  0  0  0  0  0  0  0
   -7.3160   -0.9010   -0.3350 C   0  0  0  0  0  0  0  0  0  0  0  0
   -6.7560   -2.1820   -0.6930 N   0  0  0  0  0  0  0  0  0  0  0  0
   -4.0440    0.1410    0.5210 O   0  0  0  0  0  0  0  0  0  0  0  0
   -2.6730   -0.1180    0.4310 C   0  0  0  0  0  0  0  0  0  0  0  0
   -1.9380   -1.2850    0.4650 C   0  0  0  0  0  0  0  0  0  0  0  0
   -0.5340   -1.2680    0.3520 C   0  0  0  0  0  0  0  0  0  0  0  0
    0.1150   -0.0850    0.2060 C   0  0  0  0  0  0  0  0  0  0  0  0
    1.5190    0.0390    0.1090 N   0  0  0  0  0  0  0  0  0  0  0  0
    2.4990   -0.9160    0.4280 C   0  0  0  0  0  0  0  0  0  0  0  0
    2.0640   -2.0380    0.8610 O   0  0  0  0  0  0  0  0  0  0  0  0
    3.9350   -0.7890    0.3260 C   0  0  0  0  0  0  0  0  0  0  0  0
    4.7500   -1.9130    0.5040 C   0  0  0  0  0  0  0  0  0  0  0  0
    6.0780   -1.8490    0.4110 N   0  0  0  0  0  0  0  0  0  0  0  0
    6.6990   -0.6810    0.1370 C   0  0  0  0  0  0  0  0  0  0  0  0
    8.1500   -0.6600    0.0490 C   0  0  0  0  0  0  0  0  0  0  0  0
    8.8640   -1.8500    0.2390 C   0  0  0  0  0  0  0  0  0  0  0  0
   10.2380   -1.8860    0.1690 C   0  0  0  0  0  0  0  0  0  0  0  0
   10.9790   -0.7620   -0.0890 C   0  0  0  0  0  0  0  0  0  0  0  0
   12.7260   -0.7700   -0.1840 Cl  0  0  0  0  0  0  0  0  0  0  0  0
   10.2980    0.4080   -0.2760 C   0  0  0  0  0  0  0  0  0  0  0  0
   11.2230    1.8720   -0.6100 Cl  0  0  0  0  0  0  0  0  0  0  0  0
    8.9000    0.4630   -0.2090 C   0  0  0  0  0  0  0  0  0  0  0  0
    5.9760    0.4240   -0.0430 N   0  0  0  0  0  0  0  0  0  0  0  0
    4.6010    0.3720    0.0500 C   0  0  0  0  0  0  0  0  0  0  0  0
    3.9880    1.4440   -0.1290 O   0  0  0  0  0  0  0  0  0  0  0  0
   -0.6520    1.0880    0.1730 C   0  0  0  0  0  0  0  0  0  0  0  0
   -2.0210    1.0990    0.2820 C   0  0  0  0  0  0  0  0  0  0  0  0
   -3.0130    2.0700    0.2830 O   0  0  0  0  0  0  0  0  0  0  0  0
  2  1  1  6
  2  3  1  0
  2  7  1  0
  4  3  1  1
  4  5  1  0
  4 10  1  0
  4 35  1  0
  5  6  1  0
  6  7  1  0
  7  8  1  0
  8  9  1  0
 10 11  1  0
 11 12  2  0
 11 34  1  0
 12 13  1  0
 13 14  2  0
 14 15  1  0
 14 33  1  0
 15 16  1  0
 16 17  2  0
 16 18  1  0
 18 19  2  0
 18 31  1  0
 19 20  1  0
 20 21  2  0
 21 22  1  0
 21 30  1  0
 22 23  2  0
 22 29  1  0
 23 24  1  0
 24 25  2  0
 25 26  1  0
 25 27  1  0
 27 28  1  0
 27 29  2  0
 30 31  1  0
 31 32  2  0
 33 34  2  0
 34 35  1  0
M  END
