
     RDKit          3D

 35 39  0  0  0  0  0  0  0  0999 V2000
   -5.8950   -0.3670    1.5010 N   0  0  0  0  0  0  0  0  0  0  0  0
   -5.0610    0.6990    1.9070 C   0  0  0  0  0  0  0  0  0  0  0  0
   -5.2190    1.1070    3.0940 O   0  0  0  0  0  0  0  0  0  0  0  0
   -4.0360    1.3390    1.0130 C   0  0  2  0  0  0  0  0  0  0  0  0
   -4.4910    2.7570    0.7520 C   0  0  0  0  0  0  0  0  0  0  0  0
   -5.3220    2.6630   -0.5080 C   0  0  0  0  0  0  0  0  0  0  0  0
   -5.2040    1.2220   -0.9710 C   0  0  0  0  0  0  0  0  0  0  0  0
   -4.0300    0.7650   -0.2990 N   0  0  0  0  0  0  0  0  0  0  0  0
   -3.0420   -0.0900   -0.8150 C   0  0  0  0  0  0  0  0  0  0  0  0
   -3.1950   -0.5100   -2.0040 O   0  0  0  0  0  0  0  0  0  0  0  0
   -1.8420   -0.5080   -0.0190 C   0  0  0  0  0  0  0  0  0  0  0  0
   -1.0150   -1.4250   -0.8920 C   0  0  0  0  0  0  0  0  0  0  0  0
    0.1730   -1.8910   -0.2250 N   0  0  0  0  0  0  0  0  0  0  0  0
    1.3910   -1.3080   -0.2050 C   0  0  0  0  0  0  0  0  0  0  0  0
    1.7570   -0.0780   -0.8530 C   0  0  0  0  0  0  0  0  0  0  0  0
    0.8440    0.5230   -1.5300 O   0  0  0  0  0  0  0  0  0  0  0  0
    3.0360    0.5540   -0.8280 N   0  0  0  0  0  0  0  0  0  0  0  0
    4.2520    0.1730   -0.1750 C   0  0  0  0  0  0  0  0  0  0  0  0
    5.1810    1.2990   -0.3350 C   0  0  0  0  0  0  0  0  0  0  0  0
    6.4580    1.5680    0.1520 C   0  0  0  0  0  0  0  0  0  0  0  0
    7.0770    2.7420   -0.1840 C   0  0  0  0  0  0  0  0  0  0  0  0
    8.2480    2.9810    0.2670 O   0  0  0  0  0  0  0  0  0  0  0  0
    6.4880    3.6590   -0.9780 N   0  0  0  0  0  0  0  0  0  0  0  0
    5.2600    3.4300   -1.4620 C   0  0  0  0  0  0  0  0  0  0  0  0
    4.4900    4.6330   -2.5020 Cl  0  0  0  0  0  0  0  0  0  0  0  0
    4.6120    2.2440   -1.1350 C   0  0  0  0  0  0  0  0  0  0  0  0
    3.2680    1.8020   -1.5640 C   0  0  0  0  0  0  0  0  0  0  0  0
    2.2090   -2.1210    0.5520 C   0  0  0  0  0  0  0  0  0  0  0  0
    1.4800   -3.2130    1.0000 C   0  0  0  0  0  0  0  0  0  0  0  0
    1.7620   -4.3110    1.7680 C   0  0  0  0  0  0  0  0  0  0  0  0
    3.3900   -4.5420    2.4180 Cl  0  0  0  0  0  0  0  0  0  0  0  0
    0.7910   -5.2370    2.0380 C   0  0  0  0  0  0  0  0  0  0  0  0
   -0.4920   -5.0990    1.5520 C   0  0  0  0  0  0  0  0  0  0  0  0
   -0.7420   -3.9710    0.7770 C   0  0  0  0  0  0  0  0  0  0  0  0
    0.2200   -3.0320    0.4960 C   0  0  0  0  0  0  0  0  0  0  0  0
  1  2  1  0
  2  3  2  0
  4  2  1  1
  4  5  1  0
  4  8  1  0
  5  6  1  0
  6  7  1  0
  7  8  1  0
  8  9  1  0
  9 10  2  0
  9 11  1  0
 11 12  1  0
 12 13  1  0
 13 14  1  0
 13 35  1  0
 14 15  1  0
 14 28  2  0
 15 16  2  0
 15 17  1  0
 17 18  1  0
 17 27  1  0
 18 19  1  0
 19 20  2  0
 19 26  1  0
 20 21  1  0
 21 22  2  0
 21 23  1  0
 23 24  1  0
 24 25  1  0
 24 26  2  0
 26 27  1  0
 28 29  1  0
 29 30  2  0
 29 35  1  0
 30 31  1  0
 30 32  1  0
 32 33  2  0
 33 34  1  0
 34 35  2  0
M  END
