
     RDKit          3D

 35 37  0  0  0  0  0  0  0  0999 V2000
   -3.8740    3.4780   -0.8560 C   0  0  0  0  0  0  0  0  0  0  0  0
   -2.5120    3.0110   -1.3550 C   0  0  2  0  0  0  0  0  0  0  0  0
   -2.5610    2.9940   -2.8390 C   0  0  0  0  0  0  0  0  0  0  0  0
   -2.6450    1.6690   -3.3860 O   0  0  0  0  0  0  0  0  0  0  0  0
   -3.1340    0.6130   -2.6520 C   0  0  0  0  0  0  0  0  0  0  0  0
   -3.8320   -0.4490   -3.2180 C   0  0  0  0  0  0  0  0  0  0  0  0
   -4.3210   -1.5060   -2.4790 C   0  0  0  0  0  0  0  0  0  0  0  0
   -4.1290   -1.5480   -1.1020 C   0  0  0  0  0  0  0  0  0  0  0  0
   -4.6110   -2.6000   -0.3330 O   0  0  0  0  0  0  0  0  0  0  0  0
   -5.8650   -2.6160    0.2410 C   0  0  0  0  0  0  0  0  0  0  0  0
   -6.7390   -1.5650    0.0960 C   0  0  0  0  0  0  0  0  0  0  0  0
   -8.0100   -1.5910    0.6830 C   0  0  0  0  0  0  0  0  0  0  0  0
   -8.3960   -2.6910    1.4200 C   0  0  0  0  0  0  0  0  0  0  0  0
   -7.5150   -3.7360    1.5590 C   0  0  0  0  0  0  0  0  0  0  0  0
   -6.2570   -3.7060    0.9760 C   0  0  0  0  0  0  0  0  0  0  0  0
   -3.4360   -0.4890   -0.5550 C   0  0  0  0  0  0  0  0  0  0  0  0
   -2.9440    0.5700   -1.2870 C   0  0  0  0  0  0  0  0  0  0  0  0
   -2.1980    1.7030   -0.6880 C   0  0  1  0  0  0  0  0  0  0  0  0
   -0.7770    1.4480   -0.5630 N   0  0  0  0  0  0  0  0  0  0  0  0
   -0.0830    1.4750    0.6810 C   0  0  0  0  0  0  0  0  0  0  0  0
   -0.7510    1.7340    1.6890 O   0  0  0  0  0  0  0  0  0  0  0  0
    1.3460    1.2150    0.8030 C   0  0  0  0  0  0  0  0  0  0  0  0
    2.0460    0.9090   -0.2140 O   0  0  0  0  0  0  0  0  0  0  0  0
    1.9670    1.3060    2.0810 N   0  0  0  0  0  0  0  0  0  0  0  0
    3.3780    1.0580    2.2500 C   0  0  0  0  0  0  0  0  0  0  0  0
    4.1380    2.0200    1.4040 C   0  0  0  0  0  0  0  0  0  0  0  0
    3.5500    2.8470    0.6940 O   0  0  0  0  0  0  0  0  0  0  0  0
    5.6110    1.9950    1.4020 C   0  0  0  0  0  0  0  0  0  0  0  0
    6.0550    0.8280    0.5170 C   0  0  0  0  0  0  0  0  0  0  0  0
    7.5150    0.8290    0.5160 C   0  0  0  0  0  0  0  0  0  0  0  0
    8.2730   -0.1310    0.9430 C   0  0  0  0  0  0  0  0  0  0  0  0
    7.8200   -1.4100    1.5170 C   0  0  0  0  0  0  0  0  0  0  0  0
    8.4730   -2.7410    0.4780 S   0  0  0  0  0  0  0  0  0  0  0  0
    7.8870   -2.5870   -1.1540 N   0  0  0  0  0  0  0  0  0  0  0  0
   10.0150   -2.6960    0.5060 O   0  0  0  0  0  0  0  0  0  0  0  0
  2  1  1  1
  2  3  1  0
  2 18  1  0
  3  4  1  0
  4  5  1  0
  5  6  2  0
  5 17  1  0
  6  7  1  0
  7  8  2  0
  8  9  1  0
  8 16  1  0
  9 10  1  0
 10 11  2  0
 10 15  1  0
 11 12  1  0
 12 13  2  0
 13 14  1  0
 14 15  2  0
 16 17  2  0
 17 18  1  0
 18 19  1  6
 19 20  1  0
 20 21  2  0
 20 22  1  0
 22 23  2  0
 22 24  1  0
 24 25  1  0
 25 26  1  0
 26 27  2  0
 26 28  1  0
 28 29  1  0
 29 30  1  0
 30 31  2  3
 31 32  1  0
 32 33  1  0
 33 34  1  6
 33 35  2  0
M  END
