
     RDKit          3D

 23 24  0  0  0  0  0  0  0  0999 V2000
    4.3450   -1.9270    0.1080 C   0  0  0  0  0  0  0  0  0  0  0  0
    3.8610   -0.5320    0.0060 C   0  0  0  0  0  0  0  0  0  0  0  0
    2.7170   -0.2330   -0.7400 C   0  0  0  0  0  0  0  0  0  0  0  0
    2.2380    1.0350   -0.8600 C   0  0  0  0  0  0  0  0  0  0  0  0
    0.8000    1.3240   -1.8020 S   0  0  1  0  0  0  0  0  0  0  0  0
    0.9720    2.5870   -2.6210 O   0  0  0  0  0  0  0  0  0  0  0  0
    0.6930    0.2080   -2.8300 O   0  0  0  0  0  0  0  0  0  0  0  0
   -0.5910    1.3850   -0.8280 N   0  0  0  0  0  0  0  0  0  0  0  0
   -0.7580    0.0790   -0.1580 C   0  0  1  0  0  0  0  0  0  0  0  0
   -0.7800    0.3370    1.2750 C   0  0  0  0  0  0  0  0  0  0  0  0
   -0.8170    1.5470    1.6940 O   0  0  0  0  0  0  0  0  0  0  0  0
   -0.7600   -0.6470    2.2770 N   0  0  0  0  0  0  0  0  0  0  0  0
   -0.7860   -0.3080    3.6140 O   0  0  0  0  0  0  0  0  0  0  0  0
   -2.0250   -0.4630   -0.7610 C   0  0  1  0  0  0  0  0  0  0  0  0
   -2.4560   -1.8080   -0.2990 C   0  0  0  0  0  0  0  0  0  0  0  0
   -3.6210   -1.6900    0.6750 C   0  0  0  0  0  0  0  0  0  0  0  0
   -4.7390   -1.1530    0.0280 O   0  0  0  0  0  0  0  0  0  0  0  0
   -4.4330   -0.2750   -0.9830 C   0  0  0  0  0  0  0  0  0  0  0  0
   -3.1750    0.5260   -0.6280 C   0  0  0  0  0  0  0  0  0  0  0  0
    2.8950    2.0800   -0.2270 C   0  0  0  0  0  0  0  0  0  0  0  0
    4.0240    1.8170    0.5150 C   0  0  0  0  0  0  0  0  0  0  0  0
    4.4910    0.5170    0.6210 C   0  0  0  0  0  0  0  0  0  0  0  0
    5.6160    0.2980    1.3680 F   0  0  0  0  0  0  0  0  0  0  0  0
  1  2  1  0
  2  3  2  0
  2 22  1  0
  3  4  1  0
  4  5  1  0
  4 20  2  0
  5  6  2  0
  5  7  2  0
  5  8  1  1
  9  8  1  6
  9 10  1  0
  9 14  1  0
 10 11  2  0
 10 12  1  0
 12 13  1  0
 14 15  1  1
 14 19  1  0
 15 16  1  0
 16 17  1  0
 17 18  1  0
 18 19  1  0
 20 21  1  0
 21 22  2  0
 22 23  1  0
M  END
