
     RDKit          3D

 14 14  0  0  0  0  0  0  0  0999 V2000
   -2.7200    2.1280   -0.2970 C   0  0  0  0  0  0  0  0  0  0  0  0
   -1.7530    1.1790   -0.9740 C   0  0  0  0  0  0  0  0  0  0  0  0
   -1.6520   -0.0770   -0.2510 N   0  0  1  0  0  0  0  0  0  0  0  0
   -0.6450   -0.8760   -0.8600 C   0  0  0  0  0  0  0  0  0  0  0  0
    0.4780   -1.0640    0.1250 C   0  0  1  0  0  0  0  0  0  0  0  0
    1.5270   -0.2010   -0.0780 O   0  0  0  0  0  0  0  0  0  0  0  0
    2.6980   -0.9280   -0.2440 C   0  0  0  0  0  0  0  0  0  0  0  0
    3.8560   -0.0240   -0.4660 C   0  0  0  0  0  0  0  0  0  0  0  0
    3.6410    1.3670   -0.4790 N   0  0  0  0  0  0  0  0  0  0  0  0
    5.0020   -0.5140   -0.6370 O   0  0  0  0  0  0  0  0  0  0  0  0
   -0.2050   -0.8540    1.4570 C   0  0  2  0  0  0  0  0  0  0  0  0
   -0.6660   -2.0650    1.9390 O   0  0  0  0  0  0  0  0  0  0  0  0
   -1.3390    0.0960    1.1380 C   0  0  2  0  0  0  0  0  0  0  0  0
   -2.3930   -0.2200    1.9830 O   0  0  0  0  0  0  0  0  0  0  0  0
  1  2  1  0
  3  2  1  6
  3  4  1  0
  3 13  1  0
  4  5  1  0
  5  6  1  6
  5 11  1  0
  6  7  1  0
  7  8  1  0
  8  9  1  0
  8 10  2  0
 11 12  1  6
 11 13  1  0
 13 14  1  1
M  CHG  1   3   1
M  END
