
     RDKit          3D

 20 22  0  0  0  0  0  0  0  0999 V2000
   -2.6490    4.0670    1.0540 C   0  0  0  0  0  0  0  0  0  0  0  0
   -2.2720    2.7020    0.5850 C   0  0  0  0  0  0  0  0  0  0  0  0
   -1.2080    2.3290   -0.0350 N   0  0  0  0  0  0  0  0  0  0  0  0
   -1.2700    0.9110   -0.2900 C   0  0  0  0  0  0  0  0  0  0  0  0
   -0.4470    0.0610   -0.8830 C   0  0  0  0  0  0  0  0  0  0  0  0
    0.8480    0.5520   -1.4450 C   0  0  0  0  0  0  0  0  0  0  0  0
    1.9840   -0.0970   -0.8340 N   0  0  0  0  0  0  0  0  0  0  0  0
    3.1750    0.4260   -1.4250 C   0  0  0  0  0  0  0  0  0  0  0  0
    4.4190   -0.3370   -1.0330 C   0  0  0  0  0  0  0  0  0  0  0  0
    4.6200   -0.1810    0.4620 C   0  0  0  0  0  0  0  0  0  0  0  0
    4.1420    1.0470    0.8270 O   0  0  0  0  0  0  0  0  0  0  0  0
    2.8140    1.1090    1.1280 C   0  0  0  0  0  0  0  0  0  0  0  0
    1.9850   -0.0150    0.5920 C   0  0  0  0  0  0  0  0  0  0  0  0
   -0.8470   -1.3310   -0.9610 C   0  0  0  0  0  0  0  0  0  0  0  0
   -1.9710   -1.8060   -0.4820 C   0  0  0  0  0  0  0  0  0  0  0  0
   -2.3130   -3.2700   -0.6040 C   0  0  0  0  0  0  0  0  0  0  0  0
   -3.5310   -3.4380   -1.3460 N   0  0  0  0  0  0  0  0  0  0  0  0
   -2.9770   -0.9680    0.2020 C   0  0  0  0  0  0  0  0  0  0  0  0
   -2.5350    0.4430    0.2620 C   0  0  0  0  0  0  0  0  0  0  0  0
   -3.1140    1.5330    0.7790 C   0  0  0  0  0  0  0  0  0  0  0  0
  1  2  1  0
  2  3  2  0
  2 20  1  0
  3  4  1  0
  4  5  2  0
  4 19  1  0
  5  6  1  0
  5 14  1  0
  6  7  1  0
  7  8  1  0
  7 13  1  0
  8  9  1  0
  9 10  1  0
 10 11  1  0
 11 12  1  0
 12 13  1  0
 14 15  2  0
 15 16  1  0
 15 18  1  0
 16 17  1  0
 18 19  1  0
 19 20  2  0
M  CHG  1  17   1
M  END
