
     RDKit          3D

 14 14  0  0  0  0  0  0  0  0999 V2000
   -4.9440    0.6580    0.5420 C   0  0  0  0  0  0  0  0  0  0  0  0
   -3.9290    0.2640   -0.3500 O   0  0  0  0  0  0  0  0  0  0  0  0
   -2.6810    0.5940    0.1920 C   0  0  2  0  0  0  0  0  0  0  0  0
   -1.8470    1.3900   -0.7510 C   0  0  0  0  0  0  0  0  0  0  0  0
   -0.5870    0.8680   -0.8010 O   0  0  0  0  0  0  0  0  0  0  0  0
   -0.4870   -0.1970    0.0490 C   0  0  2  0  0  0  0  0  0  0  0  0
    0.3260   -1.2740   -0.6340 C   0  0  0  0  0  0  0  0  0  0  0  0
    1.5940   -0.8690   -0.9660 O   0  0  0  0  0  0  0  0  0  0  0  0
    2.3510   -0.4770    0.1320 C   0  0  0  0  0  0  0  0  0  0  0  0
    3.7420   -0.0460   -0.3290 C   0  0  0  0  0  0  0  0  0  0  0  0
    4.4580    0.3380    0.8220 O   0  0  0  0  0  0  0  0  0  0  0  0
    5.7000    0.7350    0.5190 N   0  0  0  0  0  0  0  0  0  0  0  0
   -1.8910   -0.6920    0.3250 C   0  0  2  0  0  0  0  0  0  0  0  0
   -2.2560   -1.6790   -0.6450 N   0  0  0  0  0  0  0  0  0  0  0  0
  1  2  1  0
  3  2  1  6
  3  4  1  0
  3 13  1  0
  4  5  1  0
  5  6  1  0
  6  7  1  6
  6 13  1  0
  7  8  1  0
  8  9  1  0
  9 10  1  0
 10 11  1  0
 11 12  1  0
 13 14  1  6
M  CHG  1  12   1
M  END
