
     RDKit          3D

 14 14  0  0  0  0  0  0  0  0999 V2000
    4.1250   -0.3020    0.9930 C   0  0  0  0  0  0  0  0  0  0  0  0
    3.2110   -0.2910   -0.0610 O   0  0  0  0  0  0  0  0  0  0  0  0
    1.9780    0.0460    0.4860 C   0  0  0  0  0  0  0  0  0  0  0  0
    0.8930    0.0850   -0.6010 C   0  0  1  0  0  0  0  0  0  0  0  0
    0.8700   -1.2630   -1.1570 N   0  0  0  0  0  0  0  0  0  0  0  0
   -0.3960    0.3620    0.1720 C   0  0  2  0  0  0  0  0  0  0  0  0
   -0.3920   -0.6170    1.1740 O   0  0  0  0  0  0  0  0  0  0  0  0
   -1.5400   -1.3680    1.1050 C   0  0  0  0  0  0  0  0  0  0  0  0
   -2.6910   -0.3910    1.2200 C   0  0  0  0  0  0  0  0  0  0  0  0
   -2.7350    0.3640    0.0850 O   0  0  0  0  0  0  0  0  0  0  0  0
   -1.6130    0.3140   -0.7030 C   0  0  1  0  0  0  0  0  0  0  0  0
   -1.6170    1.4840   -1.6000 C   0  0  0  0  0  0  0  0  0  0  0  0
   -2.6780    2.4220   -1.5120 N   0  0  0  0  0  0  0  0  0  0  0  0
   -0.7310    1.7180   -2.4570 O   0  0  0  0  0  0  0  0  0  0  0  0
  1  2  1  0
  2  3  1  0
  3  4  1  0
  4  5  1  1
  4  6  1  0
  6  7  1  1
  6 11  1  0
  7  8  1  0
  8  9  1  0
  9 10  1  0
 10 11  1  0
 11 12  1  6
 12 13  1  0
 12 14  2  0
M  CHG  1   5   1
M  END
