
     RDKit          3D

 14 14  0  0  0  0  0  0  0  0999 V2000
    1.7040   -1.2060    1.0590 C   0  0  0  0  0  0  0  0  0  0  0  0
    1.5760   -0.2210   -0.1110 C   0  0  1  0  0  0  0  0  0  0  0  0
    2.9610    0.0730   -0.5430 C   0  0  0  0  0  0  0  0  0  0  0  0
    3.9200    0.7150    0.2550 N   0  0  0  0  0  0  0  0  0  0  0  0
    3.2990   -0.2770   -1.7030 O   0  0  0  0  0  0  0  0  0  0  0  0
    0.8810   -0.8460   -1.0890 O   0  0  0  0  0  0  0  0  0  0  0  0
   -0.3000   -0.3480   -1.4880 C   0  0  0  0  0  0  0  0  0  0  0  0
   -1.1880    0.2340   -0.4280 C   0  0  1  0  0  0  0  0  0  0  0  0
   -2.0090    1.3280   -1.0850 C   0  0  0  0  0  0  0  0  0  0  0  0
   -2.0830   -0.8590    0.1190 C   0  0  0  0  0  0  0  0  0  0  0  0
   -3.0490   -0.3420    1.0670 N   0  0  0  0  0  0  0  0  0  0  0  0
   -0.4600    0.8720    0.6070 O   0  0  0  0  0  0  0  0  0  0  0  0
    0.9150    0.9850    0.4640 C   0  0  0  0  0  0  0  0  0  0  0  0
    1.5690    2.0240    0.7940 O   0  0  0  0  0  0  0  0  0  0  0  0
  2  1  1  1
  2  3  1  0
  2  6  1  0
  2 13  1  0
  3  4  1  0
  3  5  2  0
  6  7  1  0
  7  8  1  0
  8  9  1  6
  8 10  1  0
  8 12  1  0
 10 11  1  0
 12 13  1  0
 13 14  2  0
M  CHG  1  11   1
M  END
