
     RDKit          3D

 14 16  0  0  0  0  0  0  0  0999 V2000
    3.5000    0.7410    0.5260 C   0  0  0  0  0  0  0  0  0  0  0  0
    3.5110   -0.6140    0.2930 C   0  0  0  0  0  0  0  0  0  0  0  0
    2.3470   -1.2970    0.0220 C   0  0  0  0  0  0  0  0  0  0  0  0
    1.1390   -0.6160   -0.0210 C   0  0  0  0  0  0  0  0  0  0  0  0
   -0.1360   -0.9730   -0.2510 N   0  0  0  0  0  0  0  0  0  0  0  0
   -0.9540    0.1050   -0.1730 C   0  0  0  0  0  0  0  0  0  0  0  0
   -2.4130    0.1200   -0.3630 C   0  0  0  0  0  0  0  0  0  0  0  0
   -3.1270   -1.0520   -0.6600 C   0  0  0  0  0  0  0  0  0  0  0  0
   -4.8330   -0.4820   -0.7870 S   0  0  0  0  0  0  0  0  0  0  0  0
   -4.3030    1.3020   -0.4090 C   0  0  0  0  0  0  0  0  0  0  0  0
   -3.1890    1.1810   -0.2830 N   0  0  0  0  0  0  0  0  0  0  0  0
   -0.1220    1.1250    0.1130 N   0  0  0  0  0  0  0  0  0  0  0  0
    1.1440    0.7410    0.2140 C   0  0  0  0  0  0  0  0  0  0  0  0
    2.3130    1.4240    0.4860 C   0  0  0  0  0  0  0  0  0  0  0  0
  1  2  2  0
  1 14  1  0
  2  3  1  0
  3  4  2  0
  4  5  1  0
  4 13  1  0
  5  6  1  0
  6  7  1  0
  6 12  2  0
  7  8  2  0
  7 11  1  0
  8  9  1  0
  9 10  1  0
 10 11  2  0
 12 13  1  0
 13 14  2  0
M  END
