
     RDKit          3D

 14 16  0  0  0  0  0  0  0  0999 V2000
   -3.3520   -0.6170   -0.8780 C   0  0  0  0  0  0  0  0  0  0  0  0
   -1.9790   -0.4890   -0.9690 C   0  0  0  0  0  0  0  0  0  0  0  0
   -1.2740   -0.1010    0.1500 C   0  0  0  0  0  0  0  0  0  0  0  0
    0.1730    0.0400    0.0760 C   0  0  0  0  0  0  0  0  0  0  0  0
    0.9870    0.4000    1.0510 N   0  0  0  0  0  0  0  0  0  0  0  0
    2.2990    0.4270    0.6170 C   0  0  0  0  0  0  0  0  0  0  0  0
    3.4690    0.7270    1.2300 C   0  0  0  0  0  0  0  0  0  0  0  0
    4.6240    0.4910   -0.0950 S   0  0  0  0  0  0  0  0  0  0  0  0
    3.5230    0.0290   -1.3210 C   0  0  0  0  0  0  0  0  0  0  0  0
    2.2680    0.0750   -0.6470 C   0  0  0  0  0  0  0  0  0  0  0  0
    0.9660   -0.1670   -0.9970 N   0  0  0  0  0  0  0  0  0  0  0  0
   -1.9110    0.1530    1.3280 C   0  0  0  0  0  0  0  0  0  0  0  0
   -3.2880    0.0120    1.3760 C   0  0  0  0  0  0  0  0  0  0  0  0
   -3.9570   -0.3660    0.2750 N   0  0  0  0  0  0  0  0  0  0  0  0
  1  2  2  0
  1 14  1  0
  2  3  1  0
  3  4  1  0
  3 12  2  0
  4  5  2  0
  4 11  1  0
  5  6  1  0
  6  7  2  0
  6 10  1  0
  7  8  1  0
  8  9  1  0
  9 10  2  0
 10 11  1  0
 12 13  1  0
 13 14  2  0
M  END
