
     RDKit          3D

 14 16  0  0  0  0  0  0  0  0999 V2000
    4.5340    0.0100    0.0820 C   0  0  0  0  0  0  0  0  0  0  0  0
    4.6890    1.0190    1.0430 N   0  0  0  0  0  0  0  0  0  0  0  0
    2.8980    1.3970    1.3730 S   0  0  0  0  0  0  0  0  0  0  0  0
    2.3010    0.2550    0.2790 C   0  0  0  0  0  0  0  0  0  0  0  0
    0.8470   -0.0280   -0.0130 C   0  0  0  0  0  0  0  0  0  0  0  0
    0.4920   -0.9750   -0.9190 C   0  0  0  0  0  0  0  0  0  0  0  0
   -0.8390   -1.2610   -1.2120 C   0  0  0  0  0  0  0  0  0  0  0  0
   -1.8290   -0.5660   -0.5660 C   0  0  0  0  0  0  0  0  0  0  0  0
   -3.1790   -0.5660   -0.5880 N   0  0  0  0  0  0  0  0  0  0  0  0
   -3.6830    0.3320    0.2580 C   0  0  0  0  0  0  0  0  0  0  0  0
   -2.6240    0.9570    0.8680 C   0  0  0  0  0  0  0  0  0  0  0  0
   -1.4730    0.3980    0.3550 C   0  0  0  0  0  0  0  0  0  0  0  0
   -0.1290    0.6770    0.6410 C   0  0  0  0  0  0  0  0  0  0  0  0
    3.3400   -0.2920   -0.2250 N   0  0  0  0  0  0  0  0  0  0  0  0
  1  2  2  0
  1 14  1  0
  2  3  1  0
  3  4  1  0
  4  5  1  0
  4 14  2  0
  5  6  2  0
  5 13  1  0
  6  7  1  0
  7  8  2  0
  8  9  1  0
  8 12  1  0
  9 10  1  0
 10 11  2  0
 11 12  1  0
 12 13  2  0
M  END
