
     RDKit          3D

 14 16  0  0  0  0  0  0  0  0999 V2000
   -4.7430    0.7900   -0.3720 C   0  0  0  0  0  0  0  0  0  0  0  0
   -3.5680    0.2060   -0.1300 C   0  0  0  0  0  0  0  0  0  0  0  0
   -3.4700   -1.2700   -0.0020 C   0  0  0  0  0  0  0  0  0  0  0  0
   -1.6830   -1.4630   -0.3850 S   0  0  0  0  0  0  0  0  0  0  0  0
   -1.3060    0.2710   -0.0660 C   0  0  0  0  0  0  0  0  0  0  0  0
    0.0640    0.7650    0.0540 C   0  0  0  0  0  0  0  0  0  0  0  0
    0.3810    2.0510    0.2920 N   0  0  0  0  0  0  0  0  0  0  0  0
    1.6910    2.2160    0.3520 N   0  0  0  0  0  0  0  0  0  0  0  0
    2.2490    1.0100    0.1490 C   0  0  0  0  0  0  0  0  0  0  0  0
    1.2450    0.0870   -0.0400 C   0  0  0  0  0  0  0  0  0  0  0  0
    1.8410   -1.2660   -0.2690 C   0  0  0  0  0  0  0  0  0  0  0  0
    3.3140   -1.0920   -0.0720 C   0  0  0  0  0  0  0  0  0  0  0  0
    3.5750    0.3710    0.0650 C   0  0  0  0  0  0  0  0  0  0  0  0
   -2.3880    0.8790    0.0180 N   0  0  0  0  0  0  0  0  0  0  0  0
  1  2  2  0
  2  3  1  0
  2 14  1  0
  3  4  1  0
  4  5  1  0
  5  6  1  0
  5 14  2  0
  6  7  2  0
  6 10  1  0
  7  8  1  0
  8  9  1  0
  9 10  2  0
  9 13  1  0
 10 11  1  0
 11 12  1  0
 12 13  1  0
M  END
