
     RDKit          3D

 14 16  0  0  0  0  0  0  0  0999 V2000
   -3.2690    0.6480    1.1570 C   0  0  0  0  0  0  0  0  0  0  0  0
   -3.9790   -0.2790    0.4210 C   0  0  0  0  0  0  0  0  0  0  0  0
   -3.2930   -1.0670   -0.4240 N   0  0  0  0  0  0  0  0  0  0  0  0
   -1.9500   -0.9810   -0.5740 C   0  0  0  0  0  0  0  0  0  0  0  0
   -1.2090   -0.0690    0.1430 C   0  0  0  0  0  0  0  0  0  0  0  0
    0.2510    0.0100   -0.0330 C   0  0  0  0  0  0  0  0  0  0  0  0
    1.0670    0.8330    0.5880 N   0  0  0  0  0  0  0  0  0  0  0  0
    2.3830    0.6450    0.1890 C   0  0  0  0  0  0  0  0  0  0  0  0
    3.5090    1.1770    0.4890 C   0  0  0  0  0  0  0  0  0  0  0  0
    4.7850    0.3320   -0.5100 S   0  0  0  0  0  0  0  0  0  0  0  0
    3.4750   -0.7260   -1.2640 C   0  0  0  0  0  0  0  0  0  0  0  0
    2.3430   -0.3530   -0.7260 C   0  0  0  0  0  0  0  0  0  0  0  0
    1.0250   -0.7190   -0.8400 N   0  0  0  0  0  0  0  0  0  0  0  0
   -1.8870    0.7490    1.0140 C   0  0  0  0  0  0  0  0  0  0  0  0
  1  2  2  0
  1 14  1  0
  2  3  1  0
  3  4  2  0
  4  5  1  0
  5  6  1  0
  5 14  2  0
  6  7  2  0
  6 13  1  0
  7  8  1  0
  8  9  2  0
  8 12  1  0
  9 10  1  0
 10 11  1  0
 11 12  2  0
 12 13  1  0
M  END
