
     RDKit          3D

 14 16  0  0  0  0  0  0  0  0999 V2000
   -3.1480   -0.9010   -0.2020 C   0  0  0  0  0  0  0  0  0  0  0  0
   -2.1400   -1.8320   -0.2740 C   0  0  0  0  0  0  0  0  0  0  0  0
   -0.8350   -1.4060   -0.1850 C   0  0  0  0  0  0  0  0  0  0  0  0
   -0.5250   -0.0580   -0.0230 C   0  0  0  0  0  0  0  0  0  0  0  0
    0.6360    0.6480    0.0930 C   0  0  0  0  0  0  0  0  0  0  0  0
    1.9390   -0.0370    0.0580 C   0  0  0  0  0  0  0  0  0  0  0  0
    2.4510   -1.0990   -0.0460 N   0  0  0  0  0  0  0  0  0  0  0  0
    3.7190   -1.3620   -0.0350 N   0  0  0  0  0  0  0  0  0  0  0  0
    4.5340   -0.5010    0.0880 C   0  0  0  0  0  0  0  0  0  0  0  0
    3.4940    1.0250    0.2270 S   0  0  0  0  0  0  0  0  0  0  0  0
    0.3330    1.9740    0.2330 C   0  0  0  0  0  0  0  0  0  0  0  0
   -1.0080    2.0570    0.1990 N   0  0  0  0  0  0  0  0  0  0  0  0
   -1.5620    0.8270    0.0430 C   0  0  0  0  0  0  0  0  0  0  0  0
   -2.8790    0.4380   -0.0420 C   0  0  0  0  0  0  0  0  0  0  0  0
  1  2  2  0
  1 14  1  0
  2  3  1  0
  3  4  2  0
  4  5  1  0
  4 13  1  0
  5  6  1  0
  5 11  2  0
  6  7  2  0
  6 10  1  0
  7  8  1  0
  8  9  2  0
  9 10  1  0
 11 12  1  0
 12 13  1  0
 13 14  2  0
M  END
