
     RDKit          3D

 14 15  0  0  0  0  0  0  0  0999 V2000
    4.9000   -0.6700   -0.2110 C   0  0  0  0  0  0  0  0  0  0  0  0
    3.8830    0.3490   -0.5410 C   0  0  0  0  0  0  0  0  0  0  0  0
    2.6320    0.1370   -0.2600 C   0  0  0  0  0  0  0  0  0  0  0  0
    1.2050    1.1920   -0.5480 S   0  0  0  0  0  0  0  0  0  0  0  0
    0.0120    0.0590    0.1550 C   0  0  0  0  0  0  0  0  0  0  0  0
   -1.3790    0.3550    0.2180 N   0  0  0  0  0  0  0  0  0  0  0  0
   -1.8050    1.4070    1.1330 C   0  0  0  0  0  0  0  0  0  0  0  0
   -3.2500    1.7410    0.8590 C   0  0  0  0  0  0  0  0  0  0  0  0
   -4.1100    0.8920    0.3440 C   0  0  0  0  0  0  0  0  0  0  0  0
   -3.6520   -0.4810    0.0080 C   0  0  0  0  0  0  0  0  0  0  0  0
   -2.2850   -0.3790   -0.6070 C   0  0  0  0  0  0  0  0  0  0  0  0
    0.6510   -0.9580    0.5390 N   0  0  0  0  0  0  0  0  0  0  0  0
    2.0210   -1.0270    0.3730 C   0  0  0  0  0  0  0  0  0  0  0  0
    2.8040   -2.0390    0.7330 N   0  0  0  0  0  0  0  0  0  0  0  0
  1  2  1  0
  2  3  2  3
  3  4  1  0
  3 13  1  0
  4  5  1  0
  5  6  1  0
  5 12  2  0
  6  7  1  0
  6 11  1  0
  7  8  1  0
  8  9  2  0
  9 10  1  0
 10 11  1  0
 12 13  1  0
 13 14  2  0
M  END
