
     RDKit          3D

 14 16  0  0  0  0  0  0  0  0999 V2000
    3.6090    1.5630   -0.5040 S   0  0  0  0  0  0  0  0  0  0  0  0
    2.8870    0.0080   -1.0970 C   0  0  0  0  0  0  0  0  0  0  0  0
    1.8840   -0.4750   -0.1490 N   0  0  0  0  0  0  0  0  0  0  0  0
    2.1450   -1.3000    0.8880 C   0  0  0  0  0  0  0  0  0  0  0  0
    0.9570   -1.5450    1.5700 C   0  0  0  0  0  0  0  0  0  0  0  0
   -0.0160   -0.8340    0.8970 C   0  0  0  0  0  0  0  0  0  0  0  0
   -1.3770   -0.6780    1.0870 C   0  0  0  0  0  0  0  0  0  0  0  0
   -2.1560    0.1040    0.2590 C   0  0  0  0  0  0  0  0  0  0  0  0
   -3.4600    0.4260    0.2080 N   0  0  0  0  0  0  0  0  0  0  0  0
   -3.7230    1.2460   -0.8220 C   0  0  0  0  0  0  0  0  0  0  0  0
   -2.5370    1.4510   -1.4480 N   0  0  0  0  0  0  0  0  0  0  0  0
   -1.5620    0.7640   -0.8070 C   0  0  0  0  0  0  0  0  0  0  0  0
   -0.1990    0.6180   -1.0120 C   0  0  0  0  0  0  0  0  0  0  0  0
    0.5680   -0.1750   -0.1670 C   0  0  0  0  0  0  0  0  0  0  0  0
  1  2  1  0
  2  3  1  0
  3  4  1  0
  3 14  1  0
  4  5  2  0
  5  6  1  0
  6  7  2  0
  6 14  1  0
  7  8  1  0
  8  9  1  0
  8 12  2  0
  9 10  1  0
 10 11  2  0
 11 12  1  0
 12 13  1  0
 13 14  2  0
M  END
