
     RDKit          3D

 28 30  0  0  0  0  0  0  0  0999 V2000
    0.5720   -4.5790   -0.7730 C   0  0  0  0  0  0  0  0  0  0  0  0
   -0.5400   -3.7940   -0.4380 O   0  0  0  0  0  0  0  0  0  0  0  0
   -0.3440   -2.4350   -0.1560 C   0  0  0  0  0  0  0  0  0  0  0  0
   -1.4090   -1.6180    0.1800 C   0  0  0  0  0  0  0  0  0  0  0  0
   -1.2410   -0.2830    0.4610 C   0  0  0  0  0  0  0  0  0  0  0  0
   -2.3120    0.5740    0.8090 N   0  0  0  0  0  0  0  0  0  0  0  0
   -3.6670    0.1000    0.9050 C   0  0  0  0  0  0  0  0  0  0  0  0
   -4.6460    0.5930    0.1650 C   0  0  0  0  0  0  0  0  0  0  0  0
   -4.4840    1.6550   -0.8220 C   0  0  0  0  0  0  0  0  0  0  0  0
   -5.5580    2.7100   -0.5540 C   0  0  0  0  0  0  0  0  0  0  0  0
   -6.9830    1.6120   -0.2150 S   0  0  0  0  0  0  0  0  0  0  0  0
   -6.0450    0.1090    0.2600 C   0  0  1  0  0  0  0  0  0  0  0  0
   -6.3330   -1.0420   -0.6440 C   0  0  0  0  0  0  0  0  0  0  0  0
    0.0220    0.2000    0.3940 C   0  0  0  0  0  0  0  0  0  0  0  0
    1.1600   -0.5510    0.0630 C   0  0  0  0  0  0  0  0  0  0  0  0
    2.3630   -0.0810    0.0020 O   0  0  0  0  0  0  0  0  0  0  0  0
    3.5460    0.3820   -0.0580 C   0  0  0  0  0  0  0  0  0  0  0  0
    4.3460    0.0660   -1.2100 C   0  0  0  0  0  0  0  0  0  0  0  0
    5.6200    0.5510   -1.2990 C   0  0  0  0  0  0  0  0  0  0  0  0
    6.5730    0.1490   -2.7180 Cl  0  0  0  0  0  0  0  0  0  0  0  0
    6.1730    1.3340   -0.3280 C   0  0  0  0  0  0  0  0  0  0  0  0
    7.5660    1.8120   -0.5220 C   0  0  0  0  0  0  0  0  0  0  0  0
    5.4400    1.6540    0.7820 C   0  0  0  0  0  0  0  0  0  0  0  0
    4.1340    1.1710    0.9010 C   0  0  0  0  0  0  0  0  0  0  0  0
    3.4230    1.5040    2.1200 C   0  0  0  0  0  0  0  0  0  0  0  0
    2.2800    1.0650    2.3320 O   0  0  0  0  0  0  0  0  0  0  0  0
    4.1780    2.5500    3.3340 Cl  0  0  0  0  0  0  0  0  0  0  0  0
    0.9070   -1.9230   -0.2150 C   0  0  0  0  0  0  0  0  0  0  0  0
  1  2  1  0
  2  3  1  0
  3  4  2  0
  3 28  1  0
  4  5  1  0
  5  6  1  0
  5 14  2  0
  6  7  1  0
  7  8  2  3
  8  9  1  0
  8 12  1  0
  9 10  1  0
 10 11  1  0
 11 12  1  0
 12 13  1  6
 14 15  1  0
 15 16  1  0
 15 28  2  0
 16 17  1  0
 17 18  2  0
 17 24  1  0
 18 19  1  0
 19 20  1  0
 19 21  2  0
 21 22  1  0
 21 23  1  0
 23 24  2  0
 24 25  1  0
 25 26  2  0
 25 27  1  0
M  END
