
     RDKit          3D

 28 30  0  0  0  0  0  0  0  0999 V2000
    3.1560   -2.8430    0.3450 C   0  0  0  0  0  0  0  0  0  0  0  0
    3.5460   -1.6770    1.0670 O   0  0  0  0  0  0  0  0  0  0  0  0
    3.9750   -0.5970    0.2770 C   0  0  0  0  0  0  0  0  0  0  0  0
    5.3050   -0.5260   -0.0260 C   0  0  0  0  0  0  0  0  0  0  0  0
    6.2200   -1.5500    0.4700 C   0  0  0  0  0  0  0  0  0  0  0  0
    7.4280   -1.4520    0.1730 O   0  0  0  0  0  0  0  0  0  0  0  0
    5.7420    0.5180   -0.7940 C   0  0  0  0  0  0  0  0  0  0  0  0
    4.8730    1.4730   -1.2530 C   0  0  0  0  0  0  0  0  0  0  0  0
    3.5230    1.3640   -0.9210 C   0  0  0  0  0  0  0  0  0  0  0  0
    3.0120    0.3420   -0.1530 C   0  0  0  0  0  0  0  0  0  0  0  0
    1.7570    0.1360    0.2230 O   0  0  0  0  0  0  0  0  0  0  0  0
    0.5120    0.5830    0.1410 C   0  0  0  0  0  0  0  0  0  0  0  0
    0.0620    1.6760   -0.5740 C   0  0  0  0  0  0  0  0  0  0  0  0
   -1.2590    2.0910   -0.6180 C   0  0  0  0  0  0  0  0  0  0  0  0
   -1.6590    3.2980   -1.4260 C   0  0  0  0  0  0  0  0  0  0  0  0
   -2.1720    1.3690    0.0940 C   0  0  0  0  0  0  0  0  0  0  0  0
   -1.7820    0.2490    0.8410 C   0  0  0  0  0  0  0  0  0  0  0  0
   -0.4760   -0.1320    0.8630 C   0  0  0  0  0  0  0  0  0  0  0  0
   -0.0780   -1.3080    1.6740 C   0  0  0  0  0  0  0  0  0  0  0  0
   -2.6590   -0.6440    1.6610 C   0  0  0  0  0  0  0  0  0  0  0  0
   -3.7530   -1.2100    0.8720 N   0  0  0  0  0  0  0  0  0  0  0  0
   -4.8490   -0.6110    0.1790 C   0  0  0  0  0  0  0  0  0  0  0  0
   -5.7400   -1.4260   -0.3630 C   0  0  0  0  0  0  0  0  0  0  0  0
   -5.5080   -3.1510   -0.1860 Cl  0  0  0  0  0  0  0  0  0  0  0  0
   -5.0590    0.8090    0.0240 C   0  0  0  0  0  0  0  0  0  0  0  0
   -6.3030    1.2120   -0.0370 C   0  0  0  0  0  0  0  0  0  0  0  0
   -6.6920    2.9300   -0.2270 Cl  0  0  0  0  0  0  0  0  0  0  0  0
   -3.7890    2.0580   -0.0870 S   0  0  0  0  0  0  0  0  0  0  0  0
  1  2  1  0
  2  3  1  0
  3  4  2  0
  3 10  1  0
  4  5  1  0
  4  7  1  0
  5  6  2  0
  7  8  2  0
  8  9  1  0
  9 10  2  0
 10 11  1  0
 11 12  1  0
 12 13  2  0
 12 18  1  0
 13 14  1  0
 14 15  1  0
 14 16  2  0
 16 17  1  0
 16 28  1  0
 17 18  2  0
 17 20  1  0
 18 19  1  0
 20 21  1  0
 21 22  1  0
 22 23  2  3
 22 25  1  0
 23 24  1  0
 25 26  2  3
 25 28  1  0
 26 27  1  0
M  END
