
     RDKit          3D

 22 22  0  0  0  0  0  0  0  0999 V2000
   -2.8500    3.6110   -0.4710 C   0  0  0  0  0  0  0  0  0  0  0  0
   -1.7490    3.0520   -1.1230 O   0  0  0  0  0  0  0  0  0  0  0  0
   -1.2520    2.0330   -0.3120 C   0  0  1  0  0  0  0  0  0  0  0  0
   -0.8820    2.5960    0.9030 O   0  0  0  0  0  0  0  0  0  0  0  0
   -2.3450    0.9980   -0.1630 C   0  0  0  0  0  0  0  0  0  0  0  0
   -1.8620   -0.2800   -0.0430 O   0  0  0  0  0  0  0  0  0  0  0  0
   -2.8050   -1.1200    0.5460 C   0  0  2  0  0  0  0  0  0  0  0  0
   -3.2220   -0.6280    1.7860 O   0  0  0  0  0  0  0  0  0  0  0  0
   -2.1120   -2.4660    0.7530 C   0  0  1  0  0  0  0  0  0  0  0  0
   -3.0260   -3.5050    0.8170 O   0  0  0  0  0  0  0  0  0  0  0  0
   -1.1190   -2.6320   -0.3670 C   0  0  0  0  0  0  0  0  0  0  0  0
   -0.1410   -1.6310   -0.1820 O   0  0  0  0  0  0  0  0  0  0  0  0
    1.0100   -2.1970    0.3310 C   0  0  0  0  0  0  0  0  0  0  0  0
    2.0310   -1.0640    0.4870 C   0  0  1  0  0  0  0  0  0  0  0  0
    3.2880   -1.6400    0.3070 O   0  0  0  0  0  0  0  0  0  0  0  0
    1.7580    0.0430   -0.5060 C   0  0  2  0  0  0  0  0  0  0  0  0
    3.0420    0.5980   -1.0710 C   0  0  2  0  0  0  0  0  0  0  0  0
    3.8750   -0.4120   -1.5440 O   0  0  0  0  0  0  0  0  0  0  0  0
    3.8030    1.4200   -0.0600 C   0  0  0  0  0  0  0  0  0  0  0  0
    4.2450    0.7080    1.0230 O   0  0  0  0  0  0  0  0  0  0  0  0
    0.9110    1.0140   -0.0300 O   0  0  0  0  0  0  0  0  0  0  0  0
   -0.0170    1.4610   -0.9640 C   0  0  0  0  0  0  0  0  0  0  0  0
  1  2  1  0
  2  3  1  0
  3  4  1  1
  3  5  1  0
  3 22  1  0
  5  6  1  0
  6  7  1  0
  7  8  1  1
  7  9  1  0
  9 10  1  6
  9 11  1  0
 11 12  1  0
 12 13  1  0
 13 14  1  0
 14 15  1  6
 14 16  1  0
 16 17  1  0
 16 21  1  1
 17 18  1  1
 17 19  1  0
 19 20  1  0
 21 22  1  0
M  END
