
     RDKit          3D

 28 30  0  0  0  0  0  0  0  0999 V2000
    0.7610   -5.6540   -1.2110 C   0  0  0  0  0  0  0  0  0  0  0  0
    1.0550   -4.3160   -0.9390 O   0  0  0  0  0  0  0  0  0  0  0  0
    0.0140   -3.4090   -0.6510 C   0  0  0  0  0  0  0  0  0  0  0  0
   -1.1200   -3.8720   -0.6580 O   0  0  0  0  0  0  0  0  0  0  0  0
    0.3520   -1.9950   -0.3650 C   0  0  0  0  0  0  0  0  0  0  0  0
    1.6430   -1.6940   -0.4080 C   0  0  0  0  0  0  0  0  0  0  0  0
    2.3040   -0.4370   -0.1850 C   0  0  0  0  0  0  0  0  0  0  0  0
    3.6230   -0.3870   -0.2850 C   0  0  0  0  0  0  0  0  0  0  0  0
    4.3740    0.8140   -0.0820 C   0  0  0  0  0  0  0  0  0  0  0  0
    3.8370    2.0350    0.2340 C   0  0  0  0  0  0  0  0  0  0  0  0
    4.6470    3.1560    0.4140 C   0  0  0  0  0  0  0  0  0  0  0  0
    6.0160    3.1040    0.2870 C   0  0  0  0  0  0  0  0  0  0  0  0
    6.9860    4.5360    0.5230 Cl  0  0  0  0  0  0  0  0  0  0  0  0
    6.5730    1.8850   -0.0300 C   0  0  0  0  0  0  0  0  0  0  0  0
    8.3120    1.8150   -0.1920 Cl  0  0  0  0  0  0  0  0  0  0  0  0
    5.7720    0.7900   -0.2050 C   0  0  0  0  0  0  0  0  0  0  0  0
   -0.6500   -1.0010   -0.0600 C   0  0  0  0  0  0  0  0  0  0  0  0
   -0.2620    0.1810    0.1690 O   0  0  0  0  0  0  0  0  0  0  0  0
   -2.0160   -1.2740   -0.0060 N   0  0  0  0  0  0  0  0  0  0  0  0
   -3.0460   -0.3330    0.2960 C   0  0  0  0  0  0  0  0  0  0  0  0
   -4.3750   -0.6940    0.0300 C   0  0  0  0  0  0  0  0  0  0  0  0
   -5.4210    0.1520    0.3080 C   0  0  0  0  0  0  0  0  0  0  0  0
   -5.1920    1.4230    0.8760 C   0  0  0  0  0  0  0  0  0  0  0  0
   -3.9410    1.7850    1.1360 C   0  0  0  0  0  0  0  0  0  0  0  0
   -2.8700    0.9060    0.8460 C   0  0  0  0  0  0  0  0  0  0  0  0
   -3.7400    3.1390    1.7370 C   0  0  0  0  0  0  0  0  0  0  0  0
   -5.3410    3.9280    1.3350 S   0  0  0  0  0  0  0  0  0  0  0  0
   -6.2790    2.3770    1.1970 C   0  0  0  0  0  0  0  0  0  0  0  0
  1  2  1  0
  2  3  1  0
  3  4  2  0
  3  5  1  0
  5  6  2  3
  5 17  1  0
  6  7  1  0
  7  8  2  3
  8  9  1  0
  9 10  2  0
  9 16  1  0
 10 11  1  0
 11 12  2  0
 12 13  1  0
 12 14  1  0
 14 15  1  0
 14 16  2  0
 17 18  2  0
 17 19  1  0
 19 20  1  0
 20 21  2  0
 20 25  1  0
 21 22  1  0
 22 23  2  0
 23 24  1  0
 23 28  1  0
 24 25  2  0
 24 26  1  0
 26 27  1  0
 27 28  1  0
M  END
