
     RDKit          3D

 28 30  0  0  0  0  0  0  0  0999 V2000
   -6.6690    2.3950    1.6530 C   0  0  0  0  0  0  0  0  0  0  0  0
   -6.7810    0.8960    1.8200 C   0  0  0  0  0  0  0  0  0  0  0  0
   -5.8930    0.1960    0.9740 O   0  0  0  0  0  0  0  0  0  0  0  0
   -4.5400    0.3230    0.9930 C   0  0  0  0  0  0  0  0  0  0  0  0
   -4.0870    1.1520    1.8650 O   0  0  0  0  0  0  0  0  0  0  0  0
   -3.6460   -0.3950    0.1250 C   0  0  0  0  0  0  0  0  0  0  0  0
   -2.2700   -0.1360    0.2940 C   0  0  0  0  0  0  0  0  0  0  0  0
   -1.2920   -0.7530   -0.4690 C   0  0  0  0  0  0  0  0  0  0  0  0
    0.0950   -0.4630   -0.2190 N   0  0  0  0  0  0  0  0  0  0  0  0
    1.1230   -0.5590   -1.1500 C   0  0  0  0  0  0  0  0  0  0  0  0
    0.7790   -0.9340   -2.3530 O   0  0  0  0  0  0  0  0  0  0  0  0
    2.5380   -0.3080   -1.0040 C   0  0  0  0  0  0  0  0  0  0  0  0
    3.6430   -0.5310   -2.4780 S   0  0  0  0  0  0  0  0  0  0  0  0
    5.1270   -0.0910   -1.6550 C   0  0  0  0  0  0  0  0  0  0  0  0
    6.4310   -0.0780   -2.3570 C   0  0  0  0  0  0  0  0  0  0  0  0
    4.7420    0.1910   -0.3680 C   0  0  0  0  0  0  0  0  0  0  0  0
    5.6490    0.5910    0.6380 C   0  0  0  0  0  0  0  0  0  0  0  0
    7.0900    0.7190    0.3260 C   0  0  0  0  0  0  0  0  0  0  0  0
    5.2680    0.8750    1.9260 C   0  0  0  0  0  0  0  0  0  0  0  0
    3.9570    0.7620    2.2400 C   0  0  0  0  0  0  0  0  0  0  0  0
    3.0620    0.3730    1.2760 C   0  0  0  0  0  0  0  0  0  0  0  0
    3.4330    0.0740   -0.0650 C   0  0  0  0  0  0  0  0  0  0  0  0
   -1.6800   -1.6430   -1.4150 C   0  0  0  0  0  0  0  0  0  0  0  0
   -3.0270   -1.9320   -1.6190 C   0  0  0  0  0  0  0  0  0  0  0  0
   -4.0070   -1.2920   -0.8320 C   0  0  0  0  0  0  0  0  0  0  0  0
   -5.4040   -1.6410   -1.1000 C   0  0  2  0  0  0  0  0  0  0  0  0
   -5.6210   -3.4360   -1.0740 Cl  0  0  0  0  0  0  0  0  0  0  0  0
   -5.7190   -1.1730   -2.8180 Cl  0  0  0  0  0  0  0  0  0  0  0  0
  1  2  1  0
  2  3  1  0
  3  4  1  0
  4  5  2  0
  4  6  1  0
  6  7  2  0
  6 25  1  0
  7  8  1  0
  8  9  1  0
  8 23  2  0
  9 10  1  0
 10 11  2  0
 10 12  1  0
 12 13  1  0
 12 22  2  0
 13 14  1  0
 14 15  1  0
 14 16  2  0
 16 17  1  0
 16 22  1  0
 17 18  1  0
 17 19  2  0
 19 20  1  0
 20 21  2  0
 21 22  1  0
 23 24  1  0
 24 25  2  0
 25 26  1  0
 26 27  1  6
 26 28  1  0
M  END
