
     RDKit          3D

 28 30  0  0  0  0  0  0  0  0999 V2000
   -5.8440    1.6400   -1.3080 C   0  0  0  0  0  0  0  0  0  0  0  0
   -5.9750    0.4620   -1.9000 C   0  0  0  0  0  0  0  0  0  0  0  0
   -5.1530   -0.6750   -1.4960 C   0  0  0  0  0  0  0  0  0  0  0  0
   -4.2680   -0.2470   -0.3490 C   0  0  0  0  0  0  0  0  0  0  0  0
   -4.7700   -0.1380    0.8980 C   0  0  0  0  0  0  0  0  0  0  0  0
   -6.5180   -0.4590    1.4350 Cl  0  0  0  0  0  0  0  0  0  0  0  0
   -3.5170    0.3540    1.9110 S   0  0  0  0  0  0  0  0  0  0  0  0
   -2.2750    0.4200    0.6500 C   0  0  0  0  0  0  0  0  0  0  0  0
   -0.8970    0.8450    0.7980 C   0  0  0  0  0  0  0  0  0  0  0  0
    0.1870    0.0450    0.6810 C   0  0  0  0  0  0  0  0  0  0  0  0
    1.4390    0.7310    0.8650 C   0  0  0  0  0  0  0  0  0  0  0  0
    1.3530    1.9960    1.1170 O   0  0  0  0  0  0  0  0  0  0  0  0
    2.7550    0.2590    0.8170 N   0  0  0  0  0  0  0  0  0  0  0  0
    3.9560    1.0030    1.0110 C   0  0  0  0  0  0  0  0  0  0  0  0
    4.0750    2.3200    1.2940 C   0  0  0  0  0  0  0  0  0  0  0  0
    5.3290    2.9300    1.4620 C   0  0  0  0  0  0  0  0  0  0  0  0
    6.4760    2.2040    1.3430 C   0  0  0  0  0  0  0  0  0  0  0  0
    6.3990    0.8710    1.0580 C   0  0  0  0  0  0  0  0  0  0  0  0
    7.8780   -0.0760    0.9010 Cl  0  0  0  0  0  0  0  0  0  0  0  0
    5.1620    0.2920    0.8970 C   0  0  0  0  0  0  0  0  0  0  0  0
    5.1190   -1.1670    0.5850 C   0  0  0  0  0  0  0  0  0  0  0  0
   -0.0580   -1.3620    0.4910 C   0  0  0  0  0  0  0  0  0  0  0  0
    0.7000   -2.4190    0.3200 C   0  0  0  0  0  0  0  0  0  0  0  0
   -0.0580   -3.6010    0.1770 O   0  0  0  0  0  0  0  0  0  0  0  0
   -1.3590   -3.1790   -0.1400 C   0  0  0  0  0  0  0  0  0  0  0  0
   -1.3770   -1.9120    0.4610 O   0  0  0  0  0  0  0  0  0  0  0  0
   -2.9680    0.0450   -0.4780 C   0  0  0  0  0  0  0  0  0  0  0  0
   -2.2540    0.0140   -1.8140 C   0  0  0  0  0  0  0  0  0  0  0  0
  1  2  2  0
  2  3  1  0
  3  4  1  0
  4  5  2  0
  4 27  1  0
  5  6  1  0
  5  7  1  0
  7  8  1  0
  8  9  1  0
  8 27  2  0
  9 10  2  3
 10 11  1  0
 10 22  1  0
 11 12  2  0
 11 13  1  0
 13 14  1  0
 14 15  2  0
 14 20  1  0
 15 16  1  0
 16 17  2  0
 17 18  1  0
 18 19  1  0
 18 20  2  0
 20 21  1  0
 22 23  2  0
 22 26  1  0
 23 24  1  0
 24 25  1  0
 25 26  1  0
 27 28  1  0
M  END
