
     RDKit          3D

 45 50  0  0  0  0  0  0  0  0999 V2000
   -4.3700    4.5380   -3.6460 C   0  0  0  0  0  0  0  0  0  0  0  0
   -4.3400    4.3650   -2.2750 O   0  0  0  0  0  0  0  0  0  0  0  0
   -3.3890    3.5830   -1.6170 C   0  0  0  0  0  0  0  0  0  0  0  0
   -2.3900    2.8830   -2.2260 C   0  0  0  0  0  0  0  0  0  0  0  0
   -1.4850    2.1340   -1.5050 C   0  0  0  0  0  0  0  0  0  0  0  0
   -1.5160    2.0410   -0.1590 C   0  0  0  0  0  0  0  0  0  0  0  0
   -0.5960    1.3320    0.7370 C   0  0  0  0  0  0  0  0  0  0  0  0
   -0.9200   -0.0830    1.0700 C   0  0  2  0  0  0  0  0  0  0  0  0
   -2.3200   -0.1910    1.5810 C   0  0  0  0  0  0  0  0  0  0  0  0
   -3.3370   -0.4150    0.6240 C   0  0  0  0  0  0  0  0  0  0  0  0
   -4.6300   -0.7140    0.9050 C   0  0  0  0  0  0  0  0  0  0  0  0
   -5.5850   -0.9430   -0.0450 O   0  0  0  0  0  0  0  0  0  0  0  0
   -5.4570   -0.9450   -1.4280 C   0  0  1  0  0  0  0  0  0  0  0  0
   -4.6750   -2.2890   -1.6980 C   0  0  0  0  0  0  0  0  0  0  0  0
   -5.7210   -3.3440   -1.7040 C   0  0  0  0  0  0  0  0  0  0  0  0
   -7.0610   -2.6660   -1.6630 C   0  0  0  0  0  0  0  0  0  0  0  0
   -6.7250   -1.2360   -2.1160 C   0  0  0  0  0  0  0  0  0  0  0  0
   -4.9340   -0.7890    2.2730 C   0  0  0  0  0  0  0  0  0  0  0  0
   -3.9750   -0.5730    3.2210 C   0  0  0  0  0  0  0  0  0  0  0  0
   -2.6330   -0.2670    2.8970 C   0  0  0  0  0  0  0  0  0  0  0  0
   -1.6950    0.0400    3.9800 C   0  0  0  0  0  0  0  0  0  0  0  0
    0.0420   -0.8840    1.7090 N   0  0  1  0  0  0  0  0  0  0  0  0
   -0.4560   -2.2810    1.7010 C   0  0  0  0  0  0  0  0  0  0  0  0
    0.4530   -3.1720    2.4710 C   0  0  0  0  0  0  0  0  0  0  0  0
    1.5660   -2.4130    3.1080 C   0  0  0  0  0  0  0  0  0  0  0  0
    2.2920   -1.5180    2.1510 C   0  0  0  0  0  0  0  0  0  0  0  0
    1.3540   -0.8470    1.1310 C   0  0  1  0  0  0  0  0  0  0  0  0
    1.5200   -1.5150   -0.2100 C   0  0  0  0  0  0  0  0  0  0  0  0
    2.9190   -1.3500   -0.5800 N   0  0  0  0  0  0  0  0  0  0  0  0
    3.5560   -0.1040   -0.8090 C   0  0  0  0  0  0  0  0  0  0  0  0
    2.8300    0.9440   -0.7030 O   0  0  0  0  0  0  0  0  0  0  0  0
    4.9150    0.0080   -1.1320 N   0  0  0  0  0  0  0  0  0  0  0  0
    5.8610   -1.0970   -1.2990 C   0  0  0  0  0  0  0  0  0  0  0  0
    7.0160   -0.6340   -0.4030 C   0  0  2  0  0  0  0  0  0  0  0  0
    6.6530   -0.7930    1.0490 C   0  0  0  0  0  0  0  0  0  0  0  0
    6.3780   -2.1530    1.3620 N   0  0  0  0  0  0  0  0  0  0  0  0
    7.0950    0.8360   -0.7920 C   0  0  1  0  0  0  0  0  0  0  0  0
    8.0500    0.9560   -1.9330 C   0  0  0  0  0  0  0  0  0  0  0  0
    7.3720    1.6750   -2.9660 N   0  0  0  0  0  0  0  0  0  0  0  0
    5.9620    1.5900   -2.7300 C   0  0  0  0  0  0  0  0  0  0  0  0
    5.7100    1.2210   -1.3180 C   0  0  1  0  0  0  0  0  0  0  0  0
   -2.5610    2.7710    0.4630 C   0  0  0  0  0  0  0  0  0  0  0  0
   -3.4640    3.5110   -0.2070 C   0  0  0  0  0  0  0  0  0  0  0  0
   -4.4880    4.2330    0.3710 O   0  0  0  0  0  0  0  0  0  0  0  0
   -4.7800    4.3390    1.7280 C   0  0  0  0  0  0  0  0  0  0  0  0
  1  2  1  0
  2  3  1  0
  3  4  2  0
  3 43  1  0
  4  5  1  0
  5  6  2  0
  6  7  1  0
  6 42  1  0
  8  7  1  1
  8  9  1  0
  8 22  1  0
  9 10  2  0
  9 20  1  0
 10 11  1  0
 11 12  1  0
 11 18  2  0
 13 12  1  1
 13 14  1  0
 13 17  1  0
 14 15  1  0
 15 16  1  0
 16 17  1  0
 18 19  1  0
 19 20  2  0
 20 21  1  0
 22 23  1  6
 22 27  1  0
 23 24  1  0
 24 25  1  0
 25 26  1  0
 26 27  1  0
 27 28  1  6
 28 29  1  0
 29 30  1  0
 30 31  2  0
 30 32  1  0
 32 33  1  0
 32 41  1  0
 33 34  1  0
 34 35  1  1
 34 37  1  0
 35 36  1  0
 37 38  1  6
 37 41  1  0
 38 39  1  0
 39 40  1  0
 41 40  1  6
 42 43  2  0
 43 44  1  0
 44 45  1  0
M  CHG  2  22   1  39   1
M  END
