
     RDKit          3D

 44 47  0  0  0  0  0  0  0  0999 V2000
   -5.9520   -2.6880   -1.9440 C   0  0  0  0  0  0  0  0  0  0  0  0
   -4.8960   -2.8700   -0.8430 C   0  0  1  0  0  0  0  0  0  0  0  0
   -4.9910   -1.7370    0.1200 C   0  0  0  0  0  0  0  0  0  0  0  0
   -3.5900   -1.3660    0.5850 C   0  0  1  0  0  0  0  0  0  0  0  0
   -3.3040    0.0170    0.4470 C   0  0  0  0  0  0  0  0  0  0  0  0
   -3.9180    0.6670   -0.6270 C   0  0  0  0  0  0  0  0  0  0  0  0
   -3.6550    1.9790   -1.0080 C   0  0  0  0  0  0  0  0  0  0  0  0
   -4.3410    2.5290   -2.1410 N   0  0  0  0  0  0  0  0  0  0  0  0
   -4.5170    3.8970   -2.3810 C   0  0  0  0  0  0  0  0  0  0  0  0
   -4.0760    4.7530   -1.5880 O   0  0  0  0  0  0  0  0  0  0  0  0
   -5.2430    4.4050   -3.6030 C   0  0  0  0  0  0  0  0  0  0  0  0
   -5.2750    5.8700   -3.5650 C   0  0  0  0  0  0  0  0  0  0  0  0
   -4.3550    6.7260   -4.2290 N   0  0  0  0  0  0  0  0  0  0  0  0
   -6.1840    6.4440   -2.8920 O   0  0  0  0  0  0  0  0  0  0  0  0
   -2.7280    2.6810   -0.2810 C   0  0  0  0  0  0  0  0  0  0  0  0
   -2.1060    2.0700    0.7840 C   0  0  0  0  0  0  0  0  0  0  0  0
   -2.4000    0.7330    1.1460 C   0  0  0  0  0  0  0  0  0  0  0  0
   -1.8030    0.2650    2.3530 C   0  0  0  0  0  0  0  0  0  0  0  0
   -2.5650    0.0720    3.4840 C   0  0  0  0  0  0  0  0  0  0  0  0
   -2.0110   -0.2620    4.7020 C   0  0  0  0  0  0  0  0  0  0  0  0
   -0.6460   -0.4100    4.8010 C   0  0  0  0  0  0  0  0  0  0  0  0
    0.1320   -0.2260    3.6950 C   0  0  0  0  0  0  0  0  0  0  0  0
   -0.4560    0.1090    2.4800 C   0  0  0  0  0  0  0  0  0  0  0  0
    0.4540    0.2450    1.3200 C   0  0  0  0  0  0  0  0  0  0  0  0
    0.0050    0.5010    0.1850 O   0  0  0  0  0  0  0  0  0  0  0  0
    1.8200    0.0890    1.4550 O   0  0  0  0  0  0  0  0  0  0  0  0
    2.6370    0.2200    0.3080 C   0  0  0  0  0  0  0  0  0  0  0  0
    4.0310   -0.0020    0.7460 C   0  0  0  0  0  0  0  0  0  0  0  0
    4.3310   -0.1940    1.9740 O   0  0  0  0  0  0  0  0  0  0  0  0
    5.1020   -0.0120   -0.1800 N   0  0  0  0  0  0  0  0  0  0  0  0
    4.9280    0.1780   -1.5950 C   0  0  0  0  0  0  0  0  0  0  0  0
    5.8440   -0.6000   -2.4700 C   0  0  0  0  0  0  0  0  0  0  0  0
    6.7480   -1.5830   -1.8410 C   0  0  0  0  0  0  0  0  0  0  0  0
    6.8560   -1.5620   -0.3540 C   0  0  0  0  0  0  0  0  0  0  0  0
    6.4920   -0.2290    0.2440 C   0  0  1  0  0  0  0  0  0  0  0  0
    7.3580    0.9130   -0.1300 C   0  0  1  0  0  0  0  0  0  0  0  0
    6.7870    2.1510    0.5670 C   0  0  0  0  0  0  0  0  0  0  0  0
    8.7520    0.7400    0.3950 C   0  0  0  0  0  0  0  0  0  0  0  0
    9.4500   -0.4120   -0.0790 N   0  0  0  0  0  0  0  0  0  0  0  0
   -3.2160   -2.2430    1.6700 C   0  0  0  0  0  0  0  0  0  0  0  0
   -3.2190   -3.7000    1.1860 C   0  0  0  0  0  0  0  0  0  0  0  0
   -4.5180   -4.3300    0.9470 C   0  0  1  0  0  0  0  0  0  0  0  0
   -5.4730   -4.3390    2.1040 C   0  0  0  0  0  0  0  0  0  0  0  0
   -5.1940   -4.0290   -0.2030 O   0  0  0  0  0  0  0  0  0  0  0  0
  2  1  1  6
  2  3  1  0
  2 44  1  0
  3  4  1  0
  4  5  1  1
  4 40  1  0
  5  6  2  0
  5 17  1  0
  6  7  1  0
  7  8  1  0
  7 15  2  0
  8  9  1  0
  9 10  2  0
  9 11  1  0
 11 12  1  0
 12 13  1  0
 12 14  2  0
 15 16  1  0
 16 17  2  0
 17 18  1  0
 18 19  2  0
 18 23  1  0
 19 20  1  0
 20 21  2  0
 21 22  1  0
 22 23  2  0
 23 24  1  0
 24 25  2  0
 24 26  1  0
 26 27  1  0
 27 28  1  0
 28 29  2  0
 28 30  1  0
 30 31  1  0
 30 35  1  0
 31 32  1  0
 32 33  1  0
 33 34  1  0
 35 34  1  6
 35 36  1  0
 36 37  1  1
 36 38  1  0
 38 39  1  0
 40 41  1  0
 41 42  1  0
 42 43  1  1
 42 44  1  0
M  END
