
     RDKit          3D

 44 47  0  0  0  0  0  0  0  0999 V2000
    1.1800   -2.9640   -3.1170 C   0  0  0  0  0  0  0  0  0  0  0  0
    1.5720   -1.6190   -3.1290 O   0  0  0  0  0  0  0  0  0  0  0  0
    2.5380   -1.0650   -2.3100 C   0  0  0  0  0  0  0  0  0  0  0  0
    2.1410   -0.5460   -1.0870 C   0  0  0  0  0  0  0  0  0  0  0  0
    0.8250   -0.5690   -0.6740 O   0  0  0  0  0  0  0  0  0  0  0  0
    0.3380   -0.0890    0.5370 C   0  0  0  0  0  0  0  0  0  0  0  0
   -1.1440   -0.2480    0.6370 C   0  0  0  0  0  0  0  0  0  0  0  0
   -1.7770   -0.7000   -0.3620 O   0  0  0  0  0  0  0  0  0  0  0  0
   -1.8890    0.0770    1.7880 N   0  0  0  0  0  0  0  0  0  0  0  0
   -3.2950   -0.0400    1.9320 C   0  0  0  0  0  0  0  0  0  0  0  0
   -4.1500    0.0040    0.8750 C   0  0  0  0  0  0  0  0  0  0  0  0
   -5.5460   -0.1500    1.0320 C   0  0  0  0  0  0  0  0  0  0  0  0
   -6.1170   -0.3470    2.2490 C   0  0  0  0  0  0  0  0  0  0  0  0
   -7.5550   -0.4270    2.5210 C   0  0  0  0  0  0  0  0  0  0  0  0
   -7.8470   -1.0320    3.6550 O   0  0  0  0  0  0  0  0  0  0  0  0
   -8.6290    0.0220    1.7920 N   0  0  0  0  0  0  0  0  0  0  0  0
   -8.4970    0.8330    0.5870 C   0  0  0  0  0  0  0  0  0  0  0  0
   -8.9090   -0.0530   -0.5570 C   0  0  2  0  0  0  0  0  0  0  0  0
   -8.6380    0.6830   -1.8600 C   0  0  0  0  0  0  0  0  0  0  0  0
  -10.4040   -0.2860   -0.3710 C   0  0  1  0  0  0  0  0  0  0  0  0
  -10.9720   -1.0190   -1.4640 N   0  0  0  0  0  0  0  0  0  0  0  0
  -10.6350   -1.0280    0.8920 C   0  0  0  0  0  0  0  0  0  0  0  0
   -9.9950   -0.3250    2.1140 C   0  0  1  0  0  0  0  0  0  0  0  0
  -10.1840   -1.2770    3.2500 C   0  0  0  0  0  0  0  0  0  0  0  0
   -5.2230   -0.3910    3.3370 C   0  0  0  0  0  0  0  0  0  0  0  0
   -3.8720   -0.2430    3.1830 C   0  0  0  0  0  0  0  0  0  0  0  0
    3.0760    0.0100   -0.2520 C   0  0  0  0  0  0  0  0  0  0  0  0
    4.4190    0.0430   -0.6540 C   0  0  0  0  0  0  0  0  0  0  0  0
    4.8010   -0.4710   -1.8640 C   0  0  0  0  0  0  0  0  0  0  0  0
    6.1800   -0.4780   -2.3620 C   0  0  0  0  0  0  0  0  0  0  0  0
    7.1030    0.1430   -1.4470 N   0  0  0  0  0  0  0  0  0  0  0  0
    8.5060    0.2180   -1.7960 C   0  0  0  0  0  0  0  0  0  0  0  0
    8.8300   -0.2810   -2.9020 O   0  0  0  0  0  0  0  0  0  0  0  0
    9.4870    0.8300   -0.9330 C   0  0  0  0  0  0  0  0  0  0  0  0
   10.7930    0.9070   -1.3630 C   0  0  0  0  0  0  0  0  0  0  0  0
   11.7960    1.4770   -0.6150 C   0  0  0  0  0  0  0  0  0  0  0  0
   11.4800    1.9980    0.6330 C   0  0  0  0  0  0  0  0  0  0  0  0
   12.5340    2.6210    1.4690 C   0  0  0  0  0  0  0  0  0  0  0  0
   13.1640    1.5760    2.3530 C   0  0  0  0  0  0  0  0  0  0  0  0
   13.7180    0.5960    1.5490 O   0  0  0  0  0  0  0  0  0  0  0  0
   10.1790    1.9220    1.0660 C   0  0  0  0  0  0  0  0  0  0  0  0
    9.1720    1.3400    0.2910 C   0  0  0  0  0  0  0  0  0  0  0  0
    3.8460   -1.0400   -2.7170 C   0  0  0  0  0  0  0  0  0  0  0  0
    4.2750   -1.5880   -4.0070 C   0  0  0  0  0  0  0  0  0  0  0  0
  1  2  1  0
  2  3  1  0
  3  4  2  0
  3 43  1  0
  4  5  1  0
  4 27  1  0
  5  6  1  0
  6  7  1  0
  7  8  2  0
  7  9  1  0
  9 10  1  0
 10 11  2  0
 10 26  1  0
 11 12  1  0
 12 13  2  0
 13 14  1  0
 13 25  1  0
 14 15  2  0
 14 16  1  0
 16 17  1  0
 16 23  1  0
 17 18  1  0
 18 19  1  6
 18 20  1  0
 20 21  1  6
 20 22  1  0
 22 23  1  0
 23 24  1  1
 25 26  2  0
 27 28  2  0
 28 29  1  0
 29 30  1  0
 29 43  2  0
 30 31  1  0
 31 32  1  0
 32 33  2  0
 32 34  1  0
 34 35  2  0
 34 42  1  0
 35 36  1  0
 36 37  2  0
 37 38  1  0
 37 41  1  0
 38 39  1  0
 39 40  1  0
 41 42  2  0
 43 44  1  0
M  CHG  1  21   1
M  END
