
     RDKit          3D

 44 47  0  0  0  0  0  0  0  0999 V2000
   -1.9700    0.9560    1.6110 C   0  0  0  0  0  0  0  0  0  0  0  0
   -1.2300   -0.0140    0.7160 C   0  0  1  0  0  0  0  0  0  0  0  0
   -1.9950   -0.9180   -0.0250 N   0  0  0  0  0  0  0  0  0  0  0  0
   -3.0430   -0.6120   -0.8780 C   0  0  2  0  0  0  0  0  0  0  0  0
   -3.8540    0.6110   -0.7390 C   0  0  0  0  0  0  0  0  0  0  0  0
   -4.7730    0.6990   -1.9350 C   0  0  0  0  0  0  0  0  0  0  0  0
   -4.2630    0.3360   -3.0290 O   0  0  0  0  0  0  0  0  0  0  0  0
   -6.1100    1.1480   -1.8840 N   0  0  0  0  0  0  0  0  0  0  0  0
   -6.9060    1.4070   -0.7110 C   0  0  2  0  0  0  0  0  0  0  0  0
   -6.3080    2.4000    0.2260 C   0  0  0  0  0  0  0  0  0  0  0  0
   -7.2980    0.1360    0.0090 C   0  0  1  0  0  0  0  0  0  0  0  0
   -8.6730    0.2210    0.6360 C   0  0  0  0  0  0  0  0  0  0  0  0
   -7.2820   -1.0460   -0.8540 C   0  0  0  0  0  0  0  0  0  0  0  0
   -7.3240   -0.7850   -2.1120 O   0  0  0  0  0  0  0  0  0  0  0  0
   -7.2250   -2.3980   -0.4270 N   0  0  0  0  0  0  0  0  0  0  0  0
   -7.1030   -2.9040    0.8610 C   0  0  0  0  0  0  0  0  0  0  0  0
   -7.9810   -3.7680    1.2450 O   0  0  0  0  0  0  0  0  0  0  0  0
   -6.0950   -2.5960    1.8890 C   0  0  0  0  0  0  0  0  0  0  0  0
   -4.7570   -2.1870    1.4090 C   0  0  0  0  0  0  0  0  0  0  0  0
   -4.3940   -2.5930    0.0910 N   0  0  0  0  0  0  0  0  0  0  0  0
   -3.9950   -1.7830   -0.9960 C   0  0  0  0  0  0  0  0  0  0  0  0
   -4.5010   -2.1060   -2.1290 O   0  0  0  0  0  0  0  0  0  0  0  0
   -0.1040    0.6650    0.0900 C   0  0  0  0  0  0  0  0  0  0  0  0
    1.0930    0.7610    0.7650 C   0  0  0  0  0  0  0  0  0  0  0  0
    2.1970    1.4110    0.2020 C   0  0  0  0  0  0  0  0  0  0  0  0
    2.1250    1.9780   -1.0450 C   0  0  0  0  0  0  0  0  0  0  0  0
    3.1770    2.6140   -1.6160 O   0  0  0  0  0  0  0  0  0  0  0  0
    4.4620    2.8470   -1.1790 C   0  0  0  0  0  0  0  0  0  0  0  0
    5.3000    1.6830   -0.9010 C   0  0  0  0  0  0  0  0  0  0  0  0
    5.4720    0.7330   -1.8880 C   0  0  0  0  0  0  0  0  0  0  0  0
    6.2630   -0.3540   -1.6510 C   0  0  0  0  0  0  0  0  0  0  0  0
    6.9010   -0.5150   -0.4170 C   0  0  0  0  0  0  0  0  0  0  0  0
    6.7310    0.4280    0.5640 C   0  0  0  0  0  0  0  0  0  0  0  0
    7.3460    0.3020    1.7940 O   0  0  0  0  0  0  0  0  0  0  0  0
    8.1880   -0.7540    2.1640 C   0  0  0  0  0  0  0  0  0  0  0  0
    9.3710   -0.8020    1.2840 C   0  0  0  0  0  0  0  0  0  0  0  0
    9.6640    0.3190    0.5220 C   0  0  0  0  0  0  0  0  0  0  0  0
   10.7510    0.3220   -0.3090 C   0  0  0  0  0  0  0  0  0  0  0  0
   11.5560   -0.8080   -0.3810 C   0  0  0  0  0  0  0  0  0  0  0  0
   11.2970   -1.9280    0.3540 C   0  0  0  0  0  0  0  0  0  0  0  0
   10.1930   -1.9200    1.1920 C   0  0  0  0  0  0  0  0  0  0  0  0
    5.9240    1.5190    0.2950 C   0  0  0  0  0  0  0  0  0  0  0  0
    0.9110    1.8730   -1.7160 C   0  0  0  0  0  0  0  0  0  0  0  0
   -0.1640    1.2300   -1.1470 C   0  0  0  0  0  0  0  0  0  0  0  0
  2  1  1  6
  2  3  1  0
  2 23  1  0
  4  3  1  1
  4  5  1  0
  4 21  1  0
  5  6  1  0
  6  7  2  0
  6  8  1  0
  8  9  1  0
  9 10  1  1
  9 11  1  0
 11 12  1  6
 11 13  1  0
 13 14  2  0
 13 15  1  0
 15 16  1  0
 16 17  2  0
 16 18  1  0
 18 19  1  0
 19 20  1  0
 20 21  1  0
 21 22  2  0
 23 24  2  0
 23 44  1  0
 24 25  1  0
 25 26  2  0
 26 27  1  0
 26 43  1  0
 27 28  1  0
 28 29  1  0
 29 30  2  0
 29 42  1  0
 30 31  1  0
 31 32  2  0
 32 33  1  0
 33 34  1  0
 33 42  2  0
 34 35  1  0
 35 36  1  0
 36 37  2  0
 36 41  1  0
 37 38  1  0
 38 39  2  0
 39 40  1  0
 40 41  2  0
 43 44  2  0
M  CHG  1   3   1
M  END
