
     RDKit          3D

 45 49  0  0  0  0  0  0  0  0999 V2000
    0.1570   -4.9340    1.1750 C   0  0  0  0  0  0  0  0  0  0  0  0
   -1.0290   -4.3180    1.8710 C   0  0  1  0  0  0  0  0  0  0  0  0
   -1.4110   -3.0130    1.1990 C   0  0  0  0  0  0  0  0  0  0  0  0
   -1.8680   -3.3630   -0.1450 N   0  0  0  0  0  0  0  0  0  0  0  0
   -1.6790   -2.4540   -1.2000 C   0  0  0  0  0  0  0  0  0  0  0  0
   -2.0890   -2.7950   -2.3520 O   0  0  0  0  0  0  0  0  0  0  0  0
   -1.0440   -1.1590   -1.0340 C   0  0  0  0  0  0  0  0  0  0  0  0
    0.3190   -0.9880   -1.1750 C   0  0  0  0  0  0  0  0  0  0  0  0
    0.9310    0.2280   -1.0200 C   0  0  0  0  0  0  0  0  0  0  0  0
    2.3790    0.3490   -1.1760 C   0  0  0  0  0  0  0  0  0  0  0  0
    3.1100    0.5430    0.0600 N   0  0  1  0  0  0  0  0  0  0  0  0
    3.3670    1.9360    0.2060 C   0  0  0  0  0  0  0  0  0  0  0  0
    4.7630    2.3180    0.5510 C   0  0  0  0  0  0  0  0  0  0  0  0
    5.7490    1.8730   -0.4950 C   0  0  0  0  0  0  0  0  0  0  0  0
    5.3100    1.2790   -1.4960 O   0  0  0  0  0  0  0  0  0  0  0  0
    7.1280    2.1070   -0.3730 N   0  0  0  0  0  0  0  0  0  0  0  0
    8.1540    1.7480   -1.2610 C   0  0  0  0  0  0  0  0  0  0  0  0
    7.9620    1.0220   -2.3980 C   0  0  0  0  0  0  0  0  0  0  0  0
    9.0350    0.7030   -3.2440 C   0  0  0  0  0  0  0  0  0  0  0  0
   10.3150    1.1170   -2.9450 C   0  0  0  0  0  0  0  0  0  0  0  0
   10.5090    1.8470   -1.8010 C   0  0  0  0  0  0  0  0  0  0  0  0
    9.4500    2.1460   -0.9920 C   0  0  0  0  0  0  0  0  0  0  0  0
    2.4100   -0.0820    1.1470 C   0  0  1  0  0  0  0  0  0  0  0  0
    2.6680   -1.5780    1.0360 C   0  0  0  0  0  0  0  0  0  0  0  0
    3.9850   -1.7600    1.7490 C   0  0  0  0  0  0  0  0  0  0  0  0
    4.1100   -0.6380    2.7320 C   0  0  0  0  0  0  0  0  0  0  0  0
    2.9260    0.2360    2.5020 C   0  0  0  0  0  0  0  0  0  0  0  0
    0.1600    1.3220   -0.7140 C   0  0  0  0  0  0  0  0  0  0  0  0
   -1.1980    1.1620   -0.5710 C   0  0  0  0  0  0  0  0  0  0  0  0
   -1.8280   -0.0540   -0.7230 C   0  0  0  0  0  0  0  0  0  0  0  0
   -3.2730   -0.2300   -0.5730 C   0  0  0  0  0  0  0  0  0  0  0  0
   -3.9510    1.0900   -0.2320 C   0  0  0  0  0  0  0  0  0  0  0  0
   -5.3650    0.9080   -0.0880 N   0  0  2  0  0  0  0  0  0  0  0  0
   -6.0810    0.9810   -1.3370 C   0  0  0  0  0  0  0  0  0  0  0  0
   -6.1810    2.3590   -1.9000 C   0  0  0  0  0  0  0  0  0  0  0  0
   -6.9770    3.2330   -1.0640 N   0  0  0  0  0  0  0  0  0  0  0  0
   -6.0860    3.9860   -0.2400 C   0  0  1  0  0  0  0  0  0  0  0  0
   -6.7970    5.2280    0.2730 C   0  0  0  0  0  0  0  0  0  0  0  0
   -5.4300    3.1990    0.8440 C   0  0  1  0  0  0  0  0  0  0  0  0
   -5.7980    3.8090    2.0670 O   0  0  0  0  0  0  0  0  0  0  0  0
   -5.8610    1.7740    0.9380 C   0  0  0  0  0  0  0  0  0  0  0  0
   -2.4930   -4.6480   -0.2970 C   0  0  0  0  0  0  0  0  0  0  0  0
   -3.0180   -5.1580    1.0200 C   0  0  1  0  0  0  0  0  0  0  0  0
   -3.5080   -6.5920    0.7920 C   0  0  0  0  0  0  0  0  0  0  0  0
   -2.0750   -5.1900    2.0140 O   0  0  0  0  0  0  0  0  0  0  0  0
  2  1  1  6
  2  3  1  0
  2 45  1  0
  3  4  1  0
  4  5  1  0
  4 42  1  0
  5  6  2  0
  5  7  1  0
  7  8  2  0
  7 30  1  0
  8  9  1  0
  9 10  1  0
  9 28  2  0
 11 10  1  6
 11 12  1  0
 11 23  1  0
 12 13  1  0
 13 14  1  0
 14 15  2  0
 14 16  1  0
 16 17  1  0
 17 18  2  0
 17 22  1  0
 18 19  1  0
 19 20  2  0
 20 21  1  0
 21 22  2  0
 23 24  1  6
 23 27  1  0
 24 25  1  0
 25 26  1  0
 26 27  1  0
 28 29  1  0
 29 30  2  0
 30 31  1  0
 31 32  1  0
 33 32  1  6
 33 34  1  0
 33 41  1  0
 34 35  1  0
 35 36  1  0
 36 37  1  0
 37 38  1  1
 37 39  1  0
 39 40  1  1
 39 41  1  0
 42 43  1  0
 43 44  1  6
 43 45  1  0
M  CHG  3  11   1  33   1  36   1
M  END
