
     RDKit          3D

 44 48  0  0  0  0  0  0  0  0999 V2000
    0.6420    1.4400   -4.4980 C   0  0  0  0  0  0  0  0  0  0  0  0
    0.3900    0.4750   -3.3620 C   0  0  0  0  0  0  0  0  0  0  0  0
   -0.7230    0.8050   -2.6260 O   0  0  0  0  0  0  0  0  0  0  0  0
   -0.9900   -0.0620   -1.5740 C   0  0  1  0  0  0  0  0  0  0  0  0
   -0.9040    0.6940   -0.2900 C   0  0  0  0  0  0  0  0  0  0  0  0
    0.3250    1.2760   -0.0210 O   0  0  0  0  0  0  0  0  0  0  0  0
    1.5430    0.6020    0.1340 C   0  0  0  0  0  0  0  0  0  0  0  0
    1.4770   -0.6410    0.0140 O   0  0  0  0  0  0  0  0  0  0  0  0
    2.7230    1.3410    0.4060 N   0  0  0  0  0  0  0  0  0  0  0  0
    2.6880    2.7790    0.4590 C   0  0  0  0  0  0  0  0  0  0  0  0
    4.0110    3.4440    0.5090 C   0  0  0  0  0  0  0  0  0  0  0  0
    5.0810    2.7080   -0.2830 C   0  0  0  0  0  0  0  0  0  0  0  0
    5.1550    1.3140    0.2630 C   0  0  0  0  0  0  0  0  0  0  0  0
    6.3750    0.7000    0.4290 C   0  0  0  0  0  0  0  0  0  0  0  0
    6.4680   -0.5660    0.9440 C   0  0  0  0  0  0  0  0  0  0  0  0
    7.6660   -1.2640    1.1540 N   0  0  0  0  0  0  0  0  0  0  0  0
    8.9810   -0.7590    1.0300 C   0  0  0  0  0  0  0  0  0  0  0  0
    9.1890    0.4200    0.7080 O   0  0  0  0  0  0  0  0  0  0  0  0
   10.1050   -1.5650    1.2660 O   0  0  0  0  0  0  0  0  0  0  0  0
   11.4130   -0.9950    1.1240 C   0  0  1  0  0  0  0  0  0  0  0  0
   11.6230   -0.4870   -0.2720 C   0  0  0  0  0  0  0  0  0  0  0  0
   11.6110    0.1310    2.1120 C   0  0  0  0  0  0  0  0  0  0  0  0
   12.3850   -2.1340    1.4190 C   0  0  0  0  0  0  0  0  0  0  0  0
    5.2720   -1.1840    1.2850 C   0  0  0  0  0  0  0  0  0  0  0  0
    4.0370   -0.5740    1.1220 C   0  0  0  0  0  0  0  0  0  0  0  0
    3.9600    0.6770    0.6110 C   0  0  0  0  0  0  0  0  0  0  0  0
   -2.3310   -0.6690   -1.7850 C   0  0  0  0  0  0  0  0  0  0  0  0
   -2.9710   -0.3520   -2.8160 O   0  0  0  0  0  0  0  0  0  0  0  0
   -2.9340   -1.5790   -0.9010 N   0  0  0  0  0  0  0  0  0  0  0  0
   -4.2420   -2.1640   -1.1190 C   0  0  0  0  0  0  0  0  0  0  0  0
   -4.4850   -3.4520   -1.2190 C   0  0  0  0  0  0  0  0  0  0  0  0
   -5.9370   -3.7160   -1.4440 C   0  0  0  0  0  0  0  0  0  0  0  0
   -6.3760   -2.3790   -2.0670 C   0  0  0  0  0  0  0  0  0  0  0  0
   -5.5210   -1.4390   -1.2580 C   0  0  1  0  0  0  0  0  0  0  0  0
   -6.1370   -1.2670    0.0440 N   0  0  0  0  0  0  0  0  0  0  0  0
   -7.1400   -0.2500    0.0980 C   0  0  2  0  0  0  0  0  0  0  0  0
   -7.0470    0.7580   -1.0030 C   0  0  0  0  0  0  0  0  0  0  0  0
   -8.1360    1.7970   -0.8350 C   0  0  0  0  0  0  0  0  0  0  0  0
   -9.1630    1.4000    0.1930 C   0  0  0  0  0  0  0  0  0  0  0  0
   -8.4820    1.2310    1.5270 C   0  0  1  0  0  0  0  0  0  0  0  0
   -9.3760    0.5080    2.5090 C   0  0  0  0  0  0  0  0  0  0  0  0
   -8.3450   -0.0080    3.5190 C   0  0  0  0  0  0  0  0  0  0  0  0
   -7.2750   -0.5420    2.5730 C   0  0  0  0  0  0  0  0  0  0  0  0
   -7.1950    0.4530    1.4340 C   0  0  1  0  0  0  0  0  0  0  0  0
  1  2  1  0
  2  3  1  0
  3  4  1  0
  4  5  1  1
  4 27  1  0
  5  6  1  0
  6  7  1  0
  7  8  2  0
  7  9  1  0
  9 10  1  0
  9 26  1  0
 10 11  1  0
 11 12  1  0
 12 13  1  0
 13 14  2  0
 13 26  1  0
 14 15  1  0
 15 16  1  0
 15 24  2  0
 16 17  1  0
 17 18  2  0
 17 19  1  0
 19 20  1  0
 20 21  1  6
 20 22  1  0
 20 23  1  0
 24 25  1  0
 25 26  2  0
 27 28  2  0
 27 29  1  0
 29 30  1  0
 30 31  2  0
 30 34  1  0
 31 32  1  0
 32 33  1  0
 33 34  1  0
 34 35  1  1
 36 35  1  1
 36 37  1  0
 36 44  1  0
 37 38  1  0
 38 39  1  0
 40 39  1  6
 40 41  1  0
 40 44  1  0
 41 42  1  0
 42 43  1  0
 44 43  1  1
M  CHG  1  35   1
M  END
