
     RDKit          3D

 44 47  0  0  0  0  0  0  0  0999 V2000
    4.9580   -6.9040   -0.1270 C   0  0  0  0  0  0  0  0  0  0  0  0
    5.8290   -5.9060    0.6490 C   0  0  0  0  0  0  0  0  0  0  0  0
    5.0300   -4.9130    1.2450 O   0  0  0  0  0  0  0  0  0  0  0  0
    4.2540   -4.0420    0.5010 C   0  0  0  0  0  0  0  0  0  0  0  0
    4.2200   -4.0550   -0.8710 C   0  0  0  0  0  0  0  0  0  0  0  0
    3.4420   -3.1860   -1.5730 C   0  0  0  0  0  0  0  0  0  0  0  0
    2.6530   -2.2560   -0.9300 C   0  0  0  0  0  0  0  0  0  0  0  0
    1.8460   -1.3390   -1.7240 C   0  0  0  0  0  0  0  0  0  0  0  0
    2.2470    0.0450   -1.6640 N   0  0  0  0  0  0  0  0  0  0  0  0
    3.2070    0.6600   -2.3770 C   0  0  0  0  0  0  0  0  0  0  0  0
    4.0750    0.0110   -3.3800 C   0  0  0  0  0  0  0  0  0  0  0  0
    3.2770    1.9800   -2.0460 C   0  0  0  0  0  0  0  0  0  0  0  0
    2.3080    2.1800   -1.0830 C   0  0  0  0  0  0  0  0  0  0  0  0
    2.0630    3.4780   -0.4800 C   0  0  0  0  0  0  0  0  0  0  0  0
    1.9080    3.7300    0.8510 C   0  0  0  0  0  0  0  0  0  0  0  0
    1.6770    4.9940    1.3710 C   0  0  0  0  0  0  0  0  0  0  0  0
    1.5920    6.0850    0.5340 C   0  0  0  0  0  0  0  0  0  0  0  0
    1.3480    7.4150    1.0810 C   0  0  0  0  0  0  0  0  0  0  0  0
    1.2520    8.6280    0.2560 C   0  0  0  0  0  0  0  0  0  0  0  0
    1.2100    7.5560    2.3240 O   0  0  0  0  0  0  0  0  0  0  0  0
    1.7430    5.8690   -0.8110 C   0  0  0  0  0  0  0  0  0  0  0  0
    1.9710    4.6090   -1.3070 C   0  0  0  0  0  0  0  0  0  0  0  0
    1.6730    0.9820   -0.8520 C   0  0  0  0  0  0  0  0  0  0  0  0
    0.5600    0.7430    0.1040 C   0  0  0  0  0  0  0  0  0  0  0  0
   -0.6850    1.4140   -0.3920 C   0  0  1  0  0  0  0  0  0  0  0  0
   -1.0080    0.8190   -1.7660 C   0  0  0  0  0  0  0  0  0  0  0  0
   -2.0840    1.5010   -2.3420 O   0  0  0  0  0  0  0  0  0  0  0  0
   -1.8030    1.2850    0.4910 N   0  0  0  0  0  0  0  0  0  0  0  0
   -2.2720   -0.0040    0.9510 C   0  0  0  0  0  0  0  0  0  0  0  0
   -3.7520   -0.1650    0.8710 C   0  0  1  0  0  0  0  0  0  0  0  0
   -4.2670   -1.0360    2.0280 C   0  0  0  0  0  0  0  0  0  0  0  0
   -3.6860   -2.3420    2.0200 N   0  0  0  0  0  0  0  0  0  0  0  0
   -4.5340   -3.4080    1.5950 C   0  0  1  0  0  0  0  0  0  0  0  0
   -6.0000   -3.1580    1.7230 C   0  0  0  0  0  0  0  0  0  0  0  0
   -4.1910   -3.8700    0.1820 C   0  0  0  0  0  0  0  0  0  0  0  0
   -4.5520    1.0880    0.8700 C   0  0  1  0  0  0  0  0  0  0  0  0
   -4.9140    1.4410   -0.5680 C   0  0  0  0  0  0  0  0  0  0  0  0
   -5.7530    0.8700    1.5600 O   0  0  0  0  0  0  0  0  0  0  0  0
   -3.8080    2.1620    1.4880 N   0  0  0  0  0  0  0  0  0  0  0  0
   -2.4930    2.4170    0.9610 C   0  0  0  0  0  0  0  0  0  0  0  0
   -2.0200    3.5850    0.9350 O   0  0  0  0  0  0  0  0  0  0  0  0
    2.6830   -2.2380    0.4330 C   0  0  0  0  0  0  0  0  0  0  0  0
    3.4720   -3.1170    1.1770 C   0  0  0  0  0  0  0  0  0  0  0  0
    3.4770   -3.0700    2.5610 O   0  0  0  0  0  0  0  0  0  0  0  0
  1  2  1  0
  2  3  1  0
  3  4  1  0
  4  5  2  0
  4 43  1  0
  5  6  1  0
  6  7  2  0
  7  8  1  0
  7 42  1  0
  8  9  1  0
  9 10  1  0
  9 23  1  0
 10 11  1  0
 10 12  2  0
 12 13  1  0
 13 14  1  0
 13 23  2  0
 14 15  2  0
 14 22  1  0
 15 16  1  0
 16 17  2  0
 17 18  1  0
 17 21  1  0
 18 19  1  0
 18 20  2  0
 21 22  2  0
 23 24  1  0
 25 24  1  1
 25 26  1  0
 25 28  1  0
 26 27  1  0
 28 29  1  0
 28 40  1  0
 29 30  1  0
 30 31  1  1
 30 36  1  0
 31 32  1  0
 32 33  1  0
 33 34  1  6
 33 35  1  0
 36 37  1  6
 36 38  1  0
 36 39  1  0
 39 40  1  0
 40 41  2  0
 42 43  2  0
 43 44  1  0
M  CHG  1  32   1
M  END
