
     RDKit          3D

 16 16  0  0  0  0  0  0  0  0999 V2000
   -3.7080    1.9160   -0.8110 O   0  0  0  0  0  0  0  0  0  0  0  0
   -4.1390    0.8620   -0.0140 C   0  0  0  0  0  0  0  0  0  0  0  0
   -2.9870   -0.0390    0.2520 C   0  0  0  0  0  0  0  0  0  0  0  0
   -1.7020    0.1390   -0.2040 C   0  0  0  0  0  0  0  0  0  0  0  0
   -0.9930   -0.9480    0.3030 C   0  0  0  0  0  0  0  0  0  0  0  0
    0.4160   -1.2710    0.1430 C   0  0  0  0  0  0  0  0  0  0  0  0
    1.3190   -0.3060    0.3510 C   0  0  0  0  0  0  0  0  0  0  0  0
    0.9420    0.9740    0.7080 O   0  0  0  0  0  0  0  0  0  0  0  0
    2.7300   -0.5740    0.2040 C   0  0  0  0  0  0  0  0  0  0  0  0
    3.6860    0.3050    0.3960 C   0  0  0  0  0  0  0  0  0  0  0  0
    3.3860    1.5990    0.7680 O   0  0  0  0  0  0  0  0  0  0  0  0
    5.1060   -0.0730    0.2170 C   0  0  0  0  0  0  0  0  0  0  0  0
    5.9380    1.0440   -1.1420 Br  0  0  0  0  0  0  0  0  0  0  0  0
   -1.8420   -1.6930    1.0060 O   0  0  0  0  0  0  0  0  0  0  0  0
   -3.0410   -1.1910    1.0040 C   0  0  0  0  0  0  0  0  0  0  0  0
   -4.1910   -1.7040    1.6390 O   0  0  0  0  0  0  0  0  0  0  0  0
  1  2  1  0
  2  3  1  0
  3  4  1  0
  3 15  2  0
  4  5  2  0
  5  6  1  0
  5 14  1  0
  6  7  2  3
  7  8  1  0
  7  9  1  0
  9 10  2  3
 10 11  1  0
 10 12  1  0
 12 13  1  0
 14 15  1  0
 15 16  1  0
M  END
