
     RDKit          3D

 21 20  0  0  0  0  0  0  0  0999 V2000
   -2.9790   -1.6490   -0.0190 C   0  0  0  0  0  0  0  0  0  0  0  0
   -1.9770   -0.6380   -0.5760 C   0  0  1  0  0  0  0  0  0  0  0  0
   -0.6470   -1.1940   -0.4520 N   0  0  0  0  0  0  0  0  0  0  0  0
    0.4760   -0.4860   -0.9490 C   0  0  0  0  0  0  0  0  0  0  0  0
    0.4070    0.6250   -1.5140 O   0  0  0  0  0  0  0  0  0  0  0  0
    1.8070   -1.1480   -0.7640 C   0  0  0  0  0  0  0  0  0  0  0  0
    2.8750   -0.2460   -1.3540 C   0  0  0  0  0  0  0  0  0  0  0  0
    4.1330   -0.7610   -1.2360 O   0  0  0  0  0  0  0  0  0  0  0  0
    4.5860   -1.0160    0.0360 C   0  0  0  0  0  0  0  0  0  0  0  0
    4.6980    0.1410    0.9270 C   0  0  0  0  0  0  0  0  0  0  0  0
    5.1180    0.0400    2.2930 N   0  0  0  0  0  0  0  0  0  0  0  0
    4.4330    1.2550    0.5330 O   0  0  0  0  0  0  0  0  0  0  0  0
   -2.2720   -0.4420   -2.0090 C   0  0  0  0  0  0  0  0  0  0  0  0
   -3.5080    0.0930   -2.4740 N   0  0  0  0  0  0  0  0  0  0  0  0
   -1.4090   -0.7550   -2.8640 O   0  0  0  0  0  0  0  0  0  0  0  0
   -2.1200    0.6310    0.1910 C   0  0  0  0  0  0  0  0  0  0  0  0
   -0.9590    1.2630    0.5740 O   0  0  0  0  0  0  0  0  0  0  0  0
   -3.3010    1.1020    0.4730 C   0  0  0  0  0  0  0  0  0  0  0  0
   -4.4250    0.3650    0.0210 O   0  0  0  0  0  0  0  0  0  0  0  0
   -3.6180    2.3070    1.2030 C   0  0  0  0  0  0  0  0  0  0  0  0
   -2.7910    3.1330    1.7070 N   0  0  0  0  0  0  0  0  0  0  0  0
  2  1  1  1
  2  3  1  0
  2 13  1  0
  2 16  1  0
  3  4  1  0
  4  5  2  0
  4  6  1  0
  6  7  1  0
  7  8  1  0
  8  9  1  0
  9 10  1  0
 10 11  1  0
 10 12  2  0
 13 14  1  0
 13 15  2  0
 16 17  1  0
 16 18  2  3
 18 19  1  0
 18 20  1  0
 20 21  2  0
M  CHG  2  11   1  21   1
M  END
