
     RDKit          3D

 21 20  0  0  0  0  0  0  0  0999 V2000
   -1.6540    1.1560    1.5280 C   0  0  0  0  0  0  0  0  0  0  0  0
   -2.0590    0.7650    0.1170 C   0  0  1  0  0  0  0  0  0  0  0  0
   -2.8960    1.9460   -0.3590 C   0  0  0  0  0  0  0  0  0  0  0  0
   -3.0730    2.8870    0.4330 O   0  0  0  0  0  0  0  0  0  0  0  0
   -3.4660    2.0100   -1.6370 N   0  0  0  0  0  0  0  0  0  0  0  0
   -4.1970    3.0860   -1.9930 O   0  0  0  0  0  0  0  0  0  0  0  0
   -0.8260    0.8020   -0.7260 C   0  0  0  0  0  0  0  0  0  0  0  0
   -0.8230    1.3590   -1.8540 O   0  0  0  0  0  0  0  0  0  0  0  0
    0.4290    0.1910   -0.2810 C   0  0  0  0  0  0  0  0  0  0  0  0
    0.5230   -0.3460    0.8700 O   0  0  0  0  0  0  0  0  0  0  0  0
    1.5440    0.1700   -1.0710 O   0  0  0  0  0  0  0  0  0  0  0  0
    2.8000   -0.4070   -0.7010 C   0  0  0  0  0  0  0  0  0  0  0  0
    3.3770    0.2520    0.5200 C   0  0  0  0  0  0  0  0  0  0  0  0
    4.6790   -0.3760    0.8800 C   0  0  0  0  0  0  0  0  0  0  0  0
    5.7240   -0.2640   -0.1520 C   0  0  0  0  0  0  0  0  0  0  0  0
    6.9600   -0.9600    0.0910 N   0  0  0  0  0  0  0  0  0  0  0  0
    5.6430    0.3700   -1.2070 O   0  0  0  0  0  0  0  0  0  0  0  0
   -2.9200   -0.4070   -0.0060 C   0  0  2  0  0  0  0  0  0  0  0  0
   -4.1420   -0.1400    0.7640 N   0  0  0  0  0  0  0  0  0  0  0  0
   -2.4720   -1.7770    0.2150 C   0  0  0  0  0  0  0  0  0  0  0  0
   -1.4490   -2.2710   -0.6610 N   0  0  0  0  0  0  0  0  0  0  0  0
  2  1  1  1
  2  3  1  0
  2  7  1  0
  2 18  1  0
  3  4  2  0
  3  5  1  0
  5  6  1  0
  7  8  2  0
  7  9  1  0
  9 10  2  0
  9 11  1  0
 11 12  1  0
 12 13  1  0
 13 14  1  0
 14 15  1  0
 15 16  1  0
 15 17  2  0
 18 19  1  1
 18 20  1  0
 20 21  1  0
M  CHG  2  19   1  21   1
M  END
