
     RDKit          3D

 16 16  0  0  0  0  0  0  0  0999 V2000
   -0.5230   -0.2880    1.4890 O   0  0  0  0  0  0  0  0  0  0  0  0
   -0.1860   -0.4370    0.2920 C   0  0  0  0  0  0  0  0  0  0  0  0
    1.2890   -0.5030   -0.0510 C   0  0  0  0  0  0  0  0  0  0  0  0
    1.8230    0.8880   -0.0620 C   0  0  0  0  0  0  0  0  0  0  0  0
    3.2710    0.9530   -0.4350 C   0  0  1  0  0  0  0  0  0  0  0  0
    3.6220    2.3360   -0.4060 O   0  0  0  0  0  0  0  0  0  0  0  0
    4.1540    0.1900    0.4970 C   0  0  0  0  0  0  0  0  0  0  0  0
    3.9090   -1.1600    0.4630 O   0  0  0  0  0  0  0  0  0  0  0  0
   -1.1770   -0.5350   -0.6630 O   0  0  0  0  0  0  0  0  0  0  0  0
   -2.5020   -0.4630   -0.2590 C   0  0  0  0  0  0  0  0  0  0  0  0
   -3.1830    0.6630   -0.1750 C   0  0  0  0  0  0  0  0  0  0  0  0
   -4.5840    0.7360    0.2530 C   0  0  0  0  0  0  0  0  0  0  0  0
   -5.1630   -0.4910    0.5730 O   0  0  0  0  0  0  0  0  0  0  0  0
   -4.4630   -1.6770    0.4890 C   0  0  0  0  0  0  0  0  0  0  0  0
   -3.1990   -1.6920    0.0980 C   0  0  0  0  0  0  0  0  0  0  0  0
   -2.2940   -3.3860    0.0070 Br  0  0  0  0  0  0  0  0  0  0  0  0
  1  2  2  0
  2  3  1  0
  2  9  1  0
  3  4  1  0
  4  5  1  0
  5  6  1  1
  5  7  1  0
  7  8  1  0
  9 10  1  0
 10 11  2  0
 10 15  1  0
 11 12  1  0
 12 13  1  0
 13 14  1  0
 14 15  2  0
 15 16  1  0
M  END
