
     RDKit          3D

 21 20  0  0  0  0  0  0  0  0999 V2000
   -0.9510    4.3290   -2.2150 N   0  0  0  0  0  0  0  0  0  0  0  0
   -0.7890    3.3340   -1.2280 C   0  0  0  0  0  0  0  0  0  0  0  0
   -1.1370    3.5230   -0.0470 O   0  0  0  0  0  0  0  0  0  0  0  0
   -0.1930    2.0400   -1.6080 C   0  0  0  0  0  0  0  0  0  0  0  0
   -0.0850    1.1200   -0.5170 N   0  0  2  0  0  0  0  0  0  0  0  0
    1.1190    0.2960   -0.7910 C   0  0  0  0  0  0  0  0  0  0  0  0
    2.2680    1.0570   -0.2140 C   0  0  0  0  0  0  0  0  0  0  0  0
    3.4650    0.4130   -0.4060 O   0  0  0  0  0  0  0  0  0  0  0  0
    3.4420   -0.8270    0.2040 C   0  0  0  0  0  0  0  0  0  0  0  0
    4.7750   -1.5220    0.0410 C   0  0  0  0  0  0  0  0  0  0  0  0
    4.8900   -2.8070    0.6210 N   0  0  0  0  0  0  0  0  0  0  0  0
    5.6720   -0.9650   -0.5640 O   0  0  0  0  0  0  0  0  0  0  0  0
   -1.2340    0.2380   -0.3930 C   0  0  0  0  0  0  0  0  0  0  0  0
   -1.3910   -0.1470    1.0360 C   0  0  0  0  0  0  0  0  0  0  0  0
   -2.5280   -1.0570    1.3530 C   0  0  1  0  0  0  0  0  0  0  0  0
   -2.5450   -1.3330    2.7470 O   0  0  0  0  0  0  0  0  0  0  0  0
   -3.8300   -0.3300    1.0010 C   0  0  0  0  0  0  0  0  0  0  0  0
   -3.9020    0.8460    1.7100 O   0  0  0  0  0  0  0  0  0  0  0  0
   -2.4950   -2.3630    0.6790 C   0  0  0  0  0  0  0  0  0  0  0  0
   -2.4930   -2.4950   -0.7360 N   0  0  0  0  0  0  0  0  0  0  0  0
   -2.4650   -3.4740    1.3150 O   0  0  0  0  0  0  0  0  0  0  0  0
  1  2  1  0
  2  3  2  0
  2  4  1  0
  5  4  1  6
  5  6  1  0
  5 13  1  0
  6  7  1  0
  7  8  1  0
  8  9  1  0
  9 10  1  0
 10 11  1  0
 10 12  2  0
 13 14  1  0
 14 15  1  0
 15 16  1  1
 15 17  1  0
 15 19  1  0
 17 18  1  0
 19 20  1  0
 19 21  2  0
M  CHG  2   5   1  11   1
M  END
