
     RDKit          3D

 47 50  0  0  0  0  0  0  0  0999 V2000
   -8.4400   -5.2500    0.0610 C   0  0  0  0  0  0  0  0  0  0  0  0
   -7.9070   -4.7940    1.2430 O   0  0  0  0  0  0  0  0  0  0  0  0
   -7.7570   -3.4230    1.3160 C   0  0  0  0  0  0  0  0  0  0  0  0
   -6.8450   -2.8630    0.2450 C   0  0  0  0  0  0  0  0  0  0  0  0
   -6.7560   -1.4440    0.4070 N   0  0  0  0  0  0  0  0  0  0  0  0
   -5.9650   -0.5840   -0.4480 C   0  0  0  0  0  0  0  0  0  0  0  0
   -5.3530   -1.2080   -1.3600 O   0  0  0  0  0  0  0  0  0  0  0  0
   -5.9270    0.8590   -0.2160 C   0  0  0  0  0  0  0  0  0  0  0  0
   -5.2360    1.6280   -1.3120 C   0  0  1  0  0  0  0  0  0  0  0  0
   -3.8820    1.1880   -1.5230 N   0  0  0  0  0  0  0  0  0  0  0  0
   -2.8510    1.1030   -0.5690 C   0  0  0  0  0  0  0  0  0  0  0  0
   -3.0810    1.4230    0.5950 O   0  0  0  0  0  0  0  0  0  0  0  0
   -1.5580    0.6550   -0.9340 N   0  0  0  0  0  0  0  0  0  0  0  0
   -0.4430    0.5400   -0.0720 C   0  0  0  0  0  0  0  0  0  0  0  0
    0.6650   -0.2240   -0.4860 C   0  0  0  0  0  0  0  0  0  0  0  0
    1.7900   -0.3630    0.2990 C   0  0  0  0  0  0  0  0  0  0  0  0
    1.8730    0.2400    1.5210 C   0  0  0  0  0  0  0  0  0  0  0  0
    2.9170    0.1720    2.3700 O   0  0  0  0  0  0  0  0  0  0  0  0
    4.1260   -0.5160    2.2760 C   0  0  2  0  0  0  0  0  0  0  0  0
    5.0530    0.0420    1.2770 C   0  0  0  0  0  0  0  0  0  0  0  0
    6.3760   -0.6680    1.2360 C   0  0  0  0  0  0  0  0  0  0  0  0
    6.7500   -1.4790    2.0860 O   0  0  0  0  0  0  0  0  0  0  0  0
    7.2260   -0.3730    0.1450 N   0  0  0  0  0  0  0  0  0  0  0  0
    8.4960   -0.9050   -0.1150 C   0  0  0  0  0  0  0  0  0  0  0  0
    9.0770   -1.9260    0.5960 C   0  0  0  0  0  0  0  0  0  0  0  0
   10.3550   -2.4190    0.3000 C   0  0  0  0  0  0  0  0  0  0  0  0
   11.0730   -1.8750   -0.7370 C   0  0  0  0  0  0  0  0  0  0  0  0
   12.3550   -2.3580   -1.0450 O   0  0  0  0  0  0  0  0  0  0  0  0
   10.5010   -0.8530   -1.4560 C   0  0  0  0  0  0  0  0  0  0  0  0
   11.2520   -0.2470   -2.5820 C   0  0  0  0  0  0  0  0  0  0  0  0
    9.2520   -0.3790   -1.1580 C   0  0  0  0  0  0  0  0  0  0  0  0
    3.8610   -1.9690    2.0220 C   0  0  0  0  0  0  0  0  0  0  0  0
    2.6510   -2.4070    2.0990 O   0  0  0  0  0  0  0  0  0  0  0  0
    4.8040   -2.9000    1.7090 O   0  0  0  0  0  0  0  0  0  0  0  0
    0.7760    1.0110    1.9570 C   0  0  0  0  0  0  0  0  0  0  0  0
    0.8460    1.6290    3.1930 O   0  0  0  0  0  0  0  0  0  0  0  0
   -0.2370    2.4100    3.6620 C   0  0  0  0  0  0  0  0  0  0  0  0
   -0.3440    1.1390    1.1550 C   0  0  0  0  0  0  0  0  0  0  0  0
   -5.9760    1.3970   -2.5670 C   0  0  0  0  0  0  0  0  0  0  0  0
   -6.2200    0.2830   -3.1420 O   0  0  0  0  0  0  0  0  0  0  0  0
   -6.3980    2.6540   -3.0690 N   0  0  0  0  0  0  0  0  0  0  0  0
   -6.0070    3.6370   -2.1410 C   0  0  0  0  0  0  0  0  0  0  0  0
   -6.2700    5.0130   -2.2400 C   0  0  0  0  0  0  0  0  0  0  0  0
   -5.8680    5.8590   -1.2350 C   0  0  0  0  0  0  0  0  0  0  0  0
   -5.2210    5.3240   -0.1610 C   0  0  0  0  0  0  0  0  0  0  0  0
   -4.9650    3.9550   -0.0730 C   0  0  0  0  0  0  0  0  0  0  0  0
   -5.3580    3.0750   -1.0750 C   0  0  0  0  0  0  0  0  0  0  0  0
  1  2  1  0
  2  3  1  0
  3  4  1  0
  4  5  1  0
  5  6  1  0
  6  7  2  0
  6  8  1  0
  9  8  1  1
  9 10  1  0
  9 39  1  0
  9 47  1  0
 10 11  1  0
 11 12  2  0
 11 13  1  0
 13 14  1  0
 14 15  2  0
 14 38  1  0
 15 16  1  0
 16 17  2  0
 17 18  1  0
 17 35  1  0
 18 19  1  0
 19 20  1  6
 19 32  1  0
 20 21  1  0
 21 22  2  0
 21 23  1  0
 23 24  1  0
 24 25  2  0
 24 31  1  0
 25 26  1  0
 26 27  2  0
 27 28  1  0
 27 29  1  0
 29 30  1  0
 29 31  2  0
 32 33  2  0
 32 34  1  0
 35 36  1  0
 35 38  2  0
 36 37  1  0
 39 40  2  0
 39 41  1  0
 41 42  1  0
 42 43  2  0
 42 47  1  0
 43 44  1  0
 44 45  2  0
 45 46  1  0
 46 47  2  0
M  END
