
     RDKit          3D

 46 48  0  0  0  0  0  0  0  0999 V2000
   -7.9570    3.7060    4.6140 C   0  0  0  0  0  0  0  0  0  0  0  0
   -8.1740    2.2090    4.5950 C   0  0  0  0  0  0  0  0  0  0  0  0
   -7.3050    1.6190    3.5600 N   0  0  0  0  0  0  0  0  0  0  0  0
   -7.4480    2.0270    2.1970 C   0  0  0  0  0  0  0  0  0  0  0  0
   -8.3390    2.8930    1.9740 O   0  0  0  0  0  0  0  0  0  0  0  0
   -6.6410    1.5020    1.1040 C   0  0  0  0  0  0  0  0  0  0  0  0
   -5.6510    0.5340    1.3000 C   0  0  0  0  0  0  0  0  0  0  0  0
   -4.8980    0.0330    0.2630 C   0  0  0  0  0  0  0  0  0  0  0  0
   -3.8640   -0.9730    0.4500 C   0  0  0  0  0  0  0  0  0  0  0  0
   -3.3120   -1.0890    1.5600 O   0  0  0  0  0  0  0  0  0  0  0  0
   -3.4460   -1.8470   -0.5940 N   0  0  0  0  0  0  0  0  0  0  0  0
   -2.4320   -2.8520   -0.4850 C   0  0  0  0  0  0  0  0  0  0  0  0
   -2.3590   -3.5300   -1.8700 C   0  0  0  0  0  0  0  0  0  0  0  0
   -1.3100   -4.5920   -1.8960 C   0  0  0  0  0  0  0  0  0  0  0  0
   -0.0540   -4.0700   -1.6680 O   0  0  0  0  0  0  0  0  0  0  0  0
    0.6180   -3.2130   -2.5060 C   0  0  0  0  0  0  0  0  0  0  0  0
    0.1770   -2.7900   -3.7350 C   0  0  0  0  0  0  0  0  0  0  0  0
    0.9410   -1.9040   -4.5060 C   0  0  0  0  0  0  0  0  0  0  0  0
    0.4040   -1.5130   -5.7600 N   0  0  0  0  0  0  0  0  0  0  0  0
    2.1330   -1.4590   -4.0360 C   0  0  0  0  0  0  0  0  0  0  0  0
    2.6020   -1.8750   -2.7980 C   0  0  0  0  0  0  0  0  0  0  0  0
    3.8980   -1.3640   -2.3660 C   0  0  0  0  0  0  0  0  0  0  0  0
    4.5140   -0.5710   -3.0980 O   0  0  0  0  0  0  0  0  0  0  0  0
    4.4140   -1.7700   -1.1610 O   0  0  0  0  0  0  0  0  0  0  0  0
    5.6600   -1.2840   -0.7240 C   0  0  0  0  0  0  0  0  0  0  0  0
    5.5510    0.2090   -0.5160 C   0  0  1  0  0  0  0  0  0  0  0  0
    4.4840    0.4050    0.5470 C   0  0  0  0  0  0  0  0  0  0  0  0
    4.2680    1.8590    0.8020 C   0  0  0  0  0  0  0  0  0  0  0  0
    5.4990    2.6990    0.8140 C   0  0  0  0  0  0  0  0  0  0  0  0
    6.7950    1.9650    0.8050 C   0  0  1  0  0  0  0  0  0  0  0  0
    7.2380    1.5670    2.1670 C   0  0  0  0  0  0  0  0  0  0  0  0
    7.3750    0.3600    2.4200 O   0  0  0  0  0  0  0  0  0  0  0  0
    7.5100    2.5200    3.1830 N   0  0  0  0  0  0  0  0  0  0  0  0
    7.9360    2.1130    4.4730 C   0  0  0  0  0  0  0  0  0  0  0  0
    8.2230    3.0360    5.5110 N   0  0  0  0  0  0  0  0  0  0  0  0
    8.0520    0.8580    4.6580 O   0  0  0  0  0  0  0  0  0  0  0  0
    6.8750    0.8030   -0.1130 C   0  0  0  0  0  0  0  0  0  0  0  0
    1.8550   -2.7410   -2.0420 C   0  0  0  0  0  0  0  0  0  0  0  0
    2.3280   -3.1500   -0.8120 O   0  0  0  0  0  0  0  0  0  0  0  0
    2.0000   -2.4210    0.3480 C   0  0  0  0  0  0  0  0  0  0  0  0
   -5.1790    0.5500   -1.0090 C   0  0  0  0  0  0  0  0  0  0  0  0
   -6.1550    1.5050   -1.2070 C   0  0  0  0  0  0  0  0  0  0  0  0
   -6.4260    2.0120   -2.4710 O   0  0  0  0  0  0  0  0  0  0  0  0
   -5.7420    1.5970   -3.6300 C   0  0  0  0  0  0  0  0  0  0  0  0
   -6.8920    1.9890   -0.1590 C   0  0  0  0  0  0  0  0  0  0  0  0
   -7.8910    2.9650   -0.3470 O   0  0  0  0  0  0  0  0  0  0  0  0
  1  2  1  0
  2  3  1  0
  3  4  1  0
  4  5  2  0
  4  6  1  0
  6  7  2  0
  6 45  1  0
  7  8  1  0
  8  9  1  0
  8 41  2  0
  9 10  2  0
  9 11  1  0
 11 12  1  0
 12 13  1  0
 13 14  1  0
 14 15  1  0
 15 16  1  0
 16 17  2  0
 16 38  1  0
 17 18  1  0
 18 19  1  0
 18 20  2  0
 20 21  1  0
 21 22  1  0
 21 38  2  0
 22 23  2  0
 22 24  1  0
 24 25  1  0
 26 25  1  1
 26 27  1  0
 26 37  1  0
 27 28  1  0
 28 29  1  0
 29 30  1  0
 30 31  1  1
 30 37  1  0
 31 32  2  0
 31 33  1  0
 33 34  1  0
 34 35  1  0
 34 36  2  0
 38 39  1  0
 39 40  1  0
 41 42  1  0
 42 43  1  0
 42 45  2  0
 43 44  1  0
 45 46  1  0
M  END
