
     RDKit          3D

 47 50  0  0  0  0  0  0  0  0999 V2000
   -7.5580    2.3550   -2.8560 C   0  0  0  0  0  0  0  0  0  0  0  0
   -7.0100    2.7820   -1.6330 O   0  0  0  0  0  0  0  0  0  0  0  0
   -5.7160    2.4260   -1.3100 C   0  0  0  0  0  0  0  0  0  0  0  0
   -4.9560    1.6630   -2.1600 C   0  0  0  0  0  0  0  0  0  0  0  0
   -3.6550    1.3020   -1.8410 C   0  0  0  0  0  0  0  0  0  0  0  0
   -3.1280    1.7230   -0.6450 C   0  0  0  0  0  0  0  0  0  0  0  0
   -1.7910    1.3670   -0.2620 C   0  0  0  0  0  0  0  0  0  0  0  0
   -0.9000    2.4620   -0.0330 N   0  0  0  0  0  0  0  0  0  0  0  0
   -1.3500    0.1520   -0.1150 C   0  0  0  0  0  0  0  0  0  0  0  0
    0.0530    0.0130    0.2730 C   0  0  0  0  0  0  0  0  0  0  0  0
    0.7120    1.0970    0.4350 O   0  0  0  0  0  0  0  0  0  0  0  0
    0.7520   -1.1750    0.4840 N   0  0  0  0  0  0  0  0  0  0  0  0
    2.1730   -1.1320    0.8600 C   0  0  0  0  0  0  0  0  0  0  0  0
    2.9500   -0.5130   -0.2490 C   0  0  0  0  0  0  0  0  0  0  0  0
    4.3140   -0.4010   -0.0570 O   0  0  0  0  0  0  0  0  0  0  0  0
    5.2900   -1.3400    0.1130 C   0  0  0  0  0  0  0  0  0  0  0  0
    5.0880   -2.7020    0.1080 C   0  0  0  0  0  0  0  0  0  0  0  0
    6.1180   -3.6090    0.2840 C   0  0  0  0  0  0  0  0  0  0  0  0
    7.3810   -3.0850    0.4680 C   0  0  0  0  0  0  0  0  0  0  0  0
    8.4980   -4.0500    0.6580 C   0  0  0  0  0  0  0  0  0  0  0  0
    7.5620   -1.7570    0.4700 N   0  0  0  0  0  0  0  0  0  0  0  0
    6.5910   -0.8520    0.3030 C   0  0  0  0  0  0  0  0  0  0  0  0
    6.8320    0.5490    0.3130 N   0  0  0  0  0  0  0  0  0  0  0  0
    8.1200    1.1040    0.5010 C   0  0  0  0  0  0  0  0  0  0  0  0
    9.0840    0.3240    0.6650 O   0  0  0  0  0  0  0  0  0  0  0  0
    8.2580    2.5860    0.4930 C   0  0  2  0  0  0  0  0  0  0  0  0
    7.9510    3.1820   -0.8580 C   0  0  0  0  0  0  0  0  0  0  0  0
    9.1710    3.7770   -1.2540 O   0  0  0  0  0  0  0  0  0  0  0  0
   10.0830    2.9280   -0.6080 C   0  0  0  0  0  0  0  0  0  0  0  0
    9.5930    2.9280    0.6950 O   0  0  0  0  0  0  0  0  0  0  0  0
   -2.1860   -1.0200   -0.2360 C   0  0  0  0  0  0  0  0  0  0  0  0
   -1.7320   -2.2080   -0.1010 O   0  0  0  0  0  0  0  0  0  0  0  0
   -3.5440   -0.9770   -0.5000 O   0  0  0  0  0  0  0  0  0  0  0  0
   -4.2930   -2.1510   -0.5870 C   0  0  2  0  0  0  0  0  0  0  0  0
   -5.0250   -2.3380   -1.8510 C   0  0  0  0  0  0  0  0  0  0  0  0
   -5.8310   -3.4870   -2.0210 N   0  0  0  0  0  0  0  0  0  0  0  0
   -4.9430   -1.5020   -2.7630 O   0  0  0  0  0  0  0  0  0  0  0  0
   -5.3170   -2.0980    0.5010 C   0  0  0  0  0  0  0  0  0  0  0  0
   -5.5620   -3.1970    1.2940 C   0  0  0  0  0  0  0  0  0  0  0  0
   -6.5250   -3.1130    2.3010 C   0  0  0  0  0  0  0  0  0  0  0  0
   -7.2420   -1.9610    2.5290 C   0  0  0  0  0  0  0  0  0  0  0  0
   -6.9930   -0.8680    1.7340 C   0  0  0  0  0  0  0  0  0  0  0  0
   -6.0340   -0.9500    0.7320 C   0  0  0  0  0  0  0  0  0  0  0  0
   -3.8930    2.4920    0.2130 C   0  0  0  0  0  0  0  0  0  0  0  0
   -5.1700    2.8370   -0.1180 C   0  0  0  0  0  0  0  0  0  0  0  0
   -5.9570    3.6160    0.7400 O   0  0  0  0  0  0  0  0  0  0  0  0
   -5.4620    4.0750    1.9820 C   0  0  0  0  0  0  0  0  0  0  0  0
  1  2  1  0
  2  3  1  0
  3  4  2  0
  3 45  1  0
  4  5  1  0
  5  6  2  0
  6  7  1  0
  6 44  1  0
  7  8  1  0
  7  9  2  3
  9 10  1  0
  9 31  1  0
 10 11  2  0
 10 12  1  0
 12 13  1  0
 13 14  1  0
 14 15  1  0
 15 16  1  0
 16 17  2  0
 16 22  1  0
 17 18  1  0
 18 19  2  0
 19 20  1  0
 19 21  1  0
 21 22  2  0
 22 23  1  0
 23 24  1  0
 24 25  2  0
 26 24  1  6
 26 27  1  0
 26 30  1  0
 27 28  1  0
 28 29  1  0
 29 30  1  0
 31 32  2  0
 31 33  1  0
 34 33  1  6
 34 35  1  0
 34 38  1  0
 35 36  1  0
 35 37  2  0
 38 39  2  0
 38 43  1  0
 39 40  1  0
 40 41  2  0
 41 42  1  0
 42 43  2  0
 44 45  2  0
 45 46  1  0
 46 47  1  0
M  END
