
     RDKit          3D

 46 49  0  0  0  0  0  0  0  0999 V2000
   -1.2560   -4.1650   -1.4240 C   0  0  0  0  0  0  0  0  0  0  0  0
   -1.1330   -3.2460   -0.3480 O   0  0  0  0  0  0  0  0  0  0  0  0
    0.1440   -2.8010    0.0240 C   0  0  0  0  0  0  0  0  0  0  0  0
    1.2790   -3.2320   -0.6260 C   0  0  0  0  0  0  0  0  0  0  0  0
    2.5410   -2.7830   -0.2490 C   0  0  0  0  0  0  0  0  0  0  0  0
    2.7150   -1.8930    0.7870 C   0  0  0  0  0  0  0  0  0  0  0  0
    4.0500   -1.4100    1.2060 C   0  0  1  0  0  0  0  0  0  0  0  0
    3.9920   -0.7430    2.5740 C   0  0  0  0  0  0  0  0  0  0  0  0
    5.0390   -2.5130    1.2910 C   0  0  0  0  0  0  0  0  0  0  0  0
    5.3170   -3.2090    2.2650 O   0  0  0  0  0  0  0  0  0  0  0  0
    5.6270   -2.6170   -0.0120 N   0  0  0  0  0  0  0  0  0  0  0  0
    5.2330   -1.4660   -0.7720 C   0  0  0  0  0  0  0  0  0  0  0  0
    5.3280   -1.3530   -2.0040 O   0  0  0  0  0  0  0  0  0  0  0  0
    4.7210   -0.5070    0.1950 C   0  0  2  0  0  0  0  0  0  0  0  0
    5.8130    0.0690    0.8410 O   0  0  0  0  0  0  0  0  0  0  0  0
    3.8490    0.5750   -0.3160 C   0  0  0  0  0  0  0  0  0  0  0  0
    4.6090    1.3990   -1.2890 C   0  0  0  0  0  0  0  0  0  0  0  0
    4.6580    1.1020   -2.5280 O   0  0  0  0  0  0  0  0  0  0  0  0
    5.3300    2.5650   -0.9070 N   0  0  0  0  0  0  0  0  0  0  0  0
    6.1090    3.4540   -1.7380 C   0  0  0  0  0  0  0  0  0  0  0  0
    5.7120    4.8210   -1.2370 C   0  0  0  0  0  0  0  0  0  0  0  0
    5.5290    4.5950    0.2440 C   0  0  0  0  0  0  0  0  0  0  0  0
    5.4190    3.0910    0.4380 C   0  0  0  0  0  0  0  0  0  0  0  0
    1.5620   -1.4680    1.4330 C   0  0  0  0  0  0  0  0  0  0  0  0
    0.3110   -1.9100    1.0620 C   0  0  0  0  0  0  0  0  0  0  0  0
   -0.8420   -1.4650    1.7320 O   0  0  0  0  0  0  0  0  0  0  0  0
   -2.1130   -1.9160    1.3660 C   0  0  0  0  0  0  0  0  0  0  0  0
   -2.9170   -1.1590    0.6430 C   0  0  0  0  0  0  0  0  0  0  0  0
   -4.2420   -1.5880    0.2410 C   0  0  0  0  0  0  0  0  0  0  0  0
   -4.7930   -2.8120    0.5530 C   0  0  0  0  0  0  0  0  0  0  0  0
   -6.0680   -3.2110    0.1730 C   0  0  0  0  0  0  0  0  0  0  0  0
   -6.5500   -4.5460    0.5640 C   0  0  0  0  0  0  0  0  0  0  0  0
   -7.8570   -4.9520    0.1970 N   0  0  0  0  0  0  0  0  0  0  0  0
   -5.8210   -5.3350    1.2180 O   0  0  0  0  0  0  0  0  0  0  0  0
   -6.8280   -2.3430   -0.5530 C   0  0  0  0  0  0  0  0  0  0  0  0
   -6.3150   -1.1010   -0.8890 C   0  0  0  0  0  0  0  0  0  0  0  0
   -5.0560   -0.7340   -0.5030 C   0  0  0  0  0  0  0  0  0  0  0  0
   -4.5150    0.5110   -0.8300 O   0  0  0  0  0  0  0  0  0  0  0  0
   -5.2330    1.4810   -1.5770 C   0  0  0  0  0  0  0  0  0  0  0  0
   -4.3550    2.6770   -1.7670 C   0  0  0  0  0  0  0  0  0  0  0  0
   -3.9550    3.2950   -0.4960 C   0  0  0  0  0  0  0  0  0  0  0  0
   -4.4110    2.8590    0.6580 C   0  0  0  0  0  0  0  0  0  0  0  0
   -4.0040    3.4780    1.8900 N   0  0  0  0  0  0  0  0  0  0  0  0
   -3.0190    4.4250   -0.5210 C   0  0  0  0  0  0  0  0  0  0  0  0
   -2.6250    5.0200    0.6890 N   0  0  0  0  0  0  0  0  0  0  0  0
   -2.5780    4.8530   -1.6060 O   0  0  0  0  0  0  0  0  0  0  0  0
  1  2  1  0
  2  3  1  0
  3  4  2  0
  3 25  1  0
  4  5  1  0
  5  6  2  0
  6  7  1  0
  6 24  1  0
  7  8  1  1
  7  9  1  0
  7 14  1  0
  9 10  2  0
  9 11  1  0
 11 12  1  0
 12 13  2  0
 12 14  1  0
 14 15  1  1
 14 16  1  0
 16 17  1  0
 17 18  2  0
 17 19  1  0
 19 20  1  0
 19 23  1  0
 20 21  1  0
 21 22  1  0
 22 23  1  0
 24 25  2  0
 25 26  1  0
 26 27  1  0
 27 28  2  3
 28 29  1  0
 29 30  2  0
 29 37  1  0
 30 31  1  0
 31 32  1  0
 31 35  2  0
 32 33  1  0
 32 34  2  0
 35 36  1  0
 36 37  2  0
 37 38  1  0
 38 39  1  0
 39 40  1  0
 40 41  1  0
 41 42  2  3
 41 44  1  0
 42 43  1  0
 44 45  1  0
 44 46  2  0
M  END
