
     RDKit          3D

 47 50  0  0  0  0  0  0  0  0999 V2000
    6.1310   -2.4570   -3.0350 N   0  0  0  0  0  0  0  0  0  0  0  0
    5.4370   -1.3080   -2.4850 C   0  0  0  0  0  0  0  0  0  0  0  0
    4.3290   -1.0630   -2.9530 O   0  0  0  0  0  0  0  0  0  0  0  0
    6.0800   -0.5430   -1.4450 C   0  0  0  0  0  0  0  0  0  0  0  0
    7.3280   -0.9910   -0.9800 C   0  0  0  0  0  0  0  0  0  0  0  0
    8.0290   -0.3740    0.0200 C   0  0  0  0  0  0  0  0  0  0  0  0
    9.3480   -0.8680    0.4870 C   0  0  1  0  0  0  0  0  0  0  0  0
    9.3130   -2.2940    0.9410 C   0  0  0  0  0  0  0  0  0  0  0  0
    8.3560   -2.5040    2.0930 C   0  0  0  0  0  0  0  0  0  0  0  0
    8.3610   -3.8460    2.4720 O   0  0  0  0  0  0  0  0  0  0  0  0
   10.4110   -0.7310   -0.5990 C   0  0  0  0  0  0  0  0  0  0  0  0
   10.5640    0.7170   -0.9950 C   0  0  0  0  0  0  0  0  0  0  0  0
   10.9430    1.4940    0.0980 O   0  0  0  0  0  0  0  0  0  0  0  0
    7.4710    0.7390    0.5910 C   0  0  0  0  0  0  0  0  0  0  0  0
    6.2310    1.2000    0.1410 C   0  0  0  0  0  0  0  0  0  0  0  0
    5.5200    0.5750   -0.8740 C   0  0  0  0  0  0  0  0  0  0  0  0
    4.2860    1.0960   -1.3470 N   0  0  0  0  0  0  0  0  0  0  0  0
    3.5320    2.1440   -0.7380 C   0  0  0  0  0  0  0  0  0  0  0  0
    3.9210    2.6950    0.3010 O   0  0  0  0  0  0  0  0  0  0  0  0
    2.2780    2.6100   -1.3150 C   0  0  0  0  0  0  0  0  0  0  0  0
    1.8160    2.1020   -2.3620 O   0  0  0  0  0  0  0  0  0  0  0  0
    1.5640    3.6530   -0.6910 N   0  0  0  0  0  0  0  0  0  0  0  0
    0.3170    4.2050   -1.1610 C   0  0  0  0  0  0  0  0  0  0  0  0
   -0.7700    3.2560   -0.8200 C   0  0  0  0  0  0  0  0  0  0  0  0
   -0.6550    1.9710   -0.3540 C   0  0  0  0  0  0  0  0  0  0  0  0
   -1.8660    1.4920   -0.1790 O   0  0  0  0  0  0  0  0  0  0  0  0
   -2.7820    2.3920   -0.5050 C   0  0  0  0  0  0  0  0  0  0  0  0
   -4.2290    2.2250   -0.4430 C   0  0  0  0  0  0  0  0  0  0  0  0
   -4.8280    1.0550   -0.0340 C   0  0  0  0  0  0  0  0  0  0  0  0
   -6.2090    0.9660    0.0050 C   0  0  0  0  0  0  0  0  0  0  0  0
   -7.0340    2.0100   -0.3510 C   0  0  0  0  0  0  0  0  0  0  0  0
   -8.5030    1.8900   -0.3020 C   0  0  0  0  0  0  0  0  0  0  0  0
   -9.2080    2.8840   -0.6390 O   0  0  0  0  0  0  0  0  0  0  0  0
   -9.1610    0.7500    0.0910 O   0  0  0  0  0  0  0  0  0  0  0  0
  -10.5680    0.6380    0.1360 C   0  0  0  0  0  0  0  0  0  0  0  0
  -11.0100   -0.6960    0.5890 C   0  0  0  0  0  0  0  0  0  0  0  0
  -12.2200   -0.9050    0.7050 O   0  0  0  0  0  0  0  0  0  0  0  0
  -10.0840   -1.7890    0.9080 C   0  0  1  0  0  0  0  0  0  0  0  0
  -10.8200   -3.0280    1.3910 C   0  0  0  0  0  0  0  0  0  0  0  0
   -9.8030   -3.8640    2.1400 C   0  0  0  0  0  0  0  0  0  0  0  0
   -8.4800   -3.7180    1.5880 N   0  0  0  0  0  0  0  0  0  0  0  0
   -8.2590   -3.2410    0.2680 C   0  0  0  0  0  0  0  0  0  0  0  0
   -7.3180   -3.7050   -0.4220 O   0  0  0  0  0  0  0  0  0  0  0  0
   -9.1790   -2.1860   -0.2430 C   0  0  0  0  0  0  0  0  0  0  0  0
   -6.4360    3.1830   -0.7620 C   0  0  0  0  0  0  0  0  0  0  0  0
   -5.0630    3.2690   -0.8000 C   0  0  0  0  0  0  0  0  0  0  0  0
   -2.1110    3.4690   -0.8960 N   0  0  0  0  0  0  0  0  0  0  0  0
  1  2  1  0
  2  3  2  0
  2  4  1  0
  4  5  2  0
  4 16  1  0
  5  6  1  0
  6  7  1  0
  6 14  2  0
  7  8  1  6
  7 11  1  0
  8  9  1  0
  9 10  1  0
 11 12  1  0
 12 13  1  0
 14 15  1  0
 15 16  2  0
 16 17  1  0
 17 18  1  0
 18 19  2  0
 18 20  1  0
 20 21  2  0
 20 22  1  0
 22 23  1  0
 23 24  1  0
 24 25  2  0
 24 47  1  0
 25 26  1  0
 26 27  1  0
 27 28  1  0
 27 47  2  0
 28 29  2  0
 28 46  1  0
 29 30  1  0
 30 31  2  0
 31 32  1  0
 31 45  1  0
 32 33  2  0
 32 34  1  0
 34 35  1  0
 35 36  1  0
 36 37  2  0
 38 36  1  6
 38 39  1  0
 38 44  1  0
 39 40  1  0
 40 41  1  0
 41 42  1  0
 42 43  2  0
 42 44  1  0
 45 46  2  0
M  END
