
     RDKit          3D

 46 49  0  0  0  0  0  0  0  0999 V2000
   -3.5740    7.6600   -2.9620 C   0  0  0  0  0  0  0  0  0  0  0  0
   -2.5210    6.7680   -3.2450 O   0  0  0  0  0  0  0  0  0  0  0  0
   -2.1560    5.8380   -2.2700 C   0  0  0  0  0  0  0  0  0  0  0  0
   -2.8170    5.8070   -1.0670 C   0  0  0  0  0  0  0  0  0  0  0  0
   -2.4330    4.8820   -0.1330 C   0  0  0  0  0  0  0  0  0  0  0  0
   -1.4050    3.9610   -0.3240 C   0  0  0  0  0  0  0  0  0  0  0  0
   -1.1150    3.0690    0.7090 N   0  0  0  0  0  0  0  0  0  0  0  0
   -0.0980    2.0940    0.7580 C   0  0  0  0  0  0  0  0  0  0  0  0
    0.6640    1.9760   -0.2310 O   0  0  0  0  0  0  0  0  0  0  0  0
    0.0860    1.2000    1.9630 C   0  0  1  0  0  0  0  0  0  0  0  0
    1.1250    0.2720    1.7030 O   0  0  0  0  0  0  0  0  0  0  0  0
    2.4270    0.5950    1.4110 C   0  0  0  0  0  0  0  0  0  0  0  0
    2.7430    1.8170    1.3670 O   0  0  0  0  0  0  0  0  0  0  0  0
    3.4630   -0.3950    1.1500 C   0  0  0  0  0  0  0  0  0  0  0  0
    3.1970   -1.7460    1.1870 C   0  0  0  0  0  0  0  0  0  0  0  0
    4.1560   -2.6870    0.9400 C   0  0  0  0  0  0  0  0  0  0  0  0
    5.4950   -2.3290    0.6270 C   0  0  0  0  0  0  0  0  0  0  0  0
    6.3950   -3.3120    0.4000 O   0  0  0  0  0  0  0  0  0  0  0  0
    7.7000   -3.2390    0.0220 C   0  0  0  0  0  0  0  0  0  0  0  0
    7.8660   -2.7820   -1.4020 C   0  0  2  0  0  0  0  0  0  0  0  0
    9.3410   -2.7950   -1.7930 C   0  0  0  0  0  0  0  0  0  0  0  0
    9.3310   -1.8190   -2.9550 C   0  0  0  0  0  0  0  0  0  0  0  0
    8.1710   -0.9400   -2.6300 C   0  0  0  0  0  0  0  0  0  0  0  0
    7.3590   -1.5940   -1.7310 O   0  0  0  0  0  0  0  0  0  0  0  0
    5.7520   -0.9820    0.5940 C   0  0  0  0  0  0  0  0  0  0  0  0
    4.7520   -0.0380    0.8500 C   0  0  0  0  0  0  0  0  0  0  0  0
    0.3800    2.0150    3.1640 C   0  0  0  0  0  0  0  0  0  0  0  0
   -0.5040    3.0320    3.5600 N   0  0  0  0  0  0  0  0  0  0  0  0
    1.4440    1.7890    3.8380 O   0  0  0  0  0  0  0  0  0  0  0  0
   -1.1500    0.4220    2.2260 C   0  0  0  0  0  0  0  0  0  0  0  0
   -1.5970    0.2550    3.5280 C   0  0  0  0  0  0  0  0  0  0  0  0
   -2.7480   -0.4620    3.7510 C   0  0  0  0  0  0  0  0  0  0  0  0
   -3.4460   -1.0070    2.6800 C   0  0  0  0  0  0  0  0  0  0  0  0
   -3.0360   -0.8640    1.3860 C   0  0  0  0  0  0  0  0  0  0  0  0
   -3.7040   -1.4050    0.2730 N   0  0  0  0  0  0  0  0  0  0  0  0
   -4.8050   -2.2780    0.2820 C   0  0  0  0  0  0  0  0  0  0  0  0
   -5.2890   -2.6560    1.3480 O   0  0  0  0  0  0  0  0  0  0  0  0
   -5.4230   -2.7730   -0.9030 N   0  0  0  0  0  0  0  0  0  0  0  0
   -6.5330   -3.6480   -0.9530 C   0  0  0  0  0  0  0  0  0  0  0  0
   -7.8180   -3.1960   -0.3660 C   0  0  2  0  0  0  0  0  0  0  0  0
   -7.8010   -2.9000    0.9860 O   0  0  0  0  0  0  0  0  0  0  0  0
   -8.7950   -4.3760   -0.5090 C   0  0  0  0  0  0  0  0  0  0  0  0
   -8.8860   -4.7560   -1.8550 O   0  0  0  0  0  0  0  0  0  0  0  0
   -1.8740   -0.1390    1.1770 C   0  0  0  0  0  0  0  0  0  0  0  0
   -0.7730    4.0230   -1.5310 C   0  0  0  0  0  0  0  0  0  0  0  0
   -1.1340    4.9520   -2.5110 C   0  0  0  0  0  0  0  0  0  0  0  0
  1  2  1  0
  2  3  1  0
  3  4  2  0
  3 46  1  0
  4  5  1  0
  5  6  2  0
  6  7  1  0
  6 45  1  0
  7  8  1  0
  8  9  2  0
  8 10  1  0
 10 11  1  6
 10 27  1  0
 10 30  1  0
 11 12  1  0
 12 13  2  0
 12 14  1  0
 14 15  2  0
 14 26  1  0
 15 16  1  0
 16 17  2  0
 17 18  1  0
 17 25  1  0
 18 19  1  0
 20 19  1  1
 20 21  1  0
 20 24  1  0
 21 22  1  0
 22 23  1  0
 23 24  1  0
 25 26  2  0
 27 28  1  0
 27 29  2  0
 30 31  2  0
 30 44  1  0
 31 32  1  0
 32 33  2  0
 33 34  1  0
 34 35  1  0
 34 44  2  0
 35 36  1  0
 36 37  2  0
 36 38  1  0
 38 39  1  0
 39 40  1  0
 40 41  1  1
 40 42  1  0
 42 43  1  0
 45 46  2  0
M  END
