
     RDKit          3D

 22 23  0  0  0  0  0  0  0  0999 V2000
   -2.4570    0.0800   -4.7240 C   0  0  0  0  0  0  0  0  0  0  0  0
   -3.1100    0.2100   -3.4800 C   0  0  0  0  0  0  0  0  0  0  0  0
   -2.1980    0.3220   -2.4390 N   0  0  0  0  0  0  0  0  0  0  0  0
   -2.2950    0.4670   -1.0620 C   0  0  0  0  0  0  0  0  0  0  0  0
   -3.3860    0.5220   -0.5230 O   0  0  0  0  0  0  0  0  0  0  0  0
   -1.1120    0.5630   -0.1800 C   0  0  0  0  0  0  0  0  0  0  0  0
    0.1790    0.5380   -0.4370 C   0  0  0  0  0  0  0  0  0  0  0  0
    1.0980    0.6430    0.5390 C   0  0  0  0  0  0  0  0  0  0  0  0
    0.6070    0.7800    1.8400 C   0  0  0  0  0  0  0  0  0  0  0  0
    1.2870    0.9160    3.1340 C   0  0  0  0  0  0  0  0  0  0  0  0
    1.3320   -0.1970    3.9150 O   0  0  0  0  0  0  0  0  0  0  0  0
    1.9620   -1.3010    3.4350 C   0  0  0  0  0  0  0  0  0  0  0  0
    3.3990   -1.0720    3.1450 C   0  0  0  0  0  0  0  0  0  0  0  0
    3.9960   -1.0800    1.9090 C   0  0  0  0  0  0  0  0  0  0  0  0
    5.3520   -0.8200    2.1050 C   0  0  0  0  0  0  0  0  0  0  0  0
    5.5000   -0.6670    3.4660 C   0  0  0  0  0  0  0  0  0  0  0  0
    4.3360   -0.8210    4.0470 O   0  0  0  0  0  0  0  0  0  0  0  0
   -1.1920    0.7500    1.5870 S   0  0  0  0  0  0  0  0  0  0  0  0
   -4.5290    0.1980   -3.5730 C   0  0  0  0  0  0  0  0  0  0  0  0
   -5.0240    0.0540   -4.9250 O   0  0  0  0  0  0  0  0  0  0  0  0
   -5.4420    0.2900   -2.6850 C   0  0  0  0  0  0  0  0  0  0  0  0
   -7.2980    0.2200   -3.3150 Br  0  0  0  0  0  0  0  0  0  0  0  0
  1  2  2  0
  2  3  1  0
  2 19  1  0
  3  4  1  0
  4  5  2  0
  4  6  1  0
  6  7  2  0
  6 18  1  0
  7  8  1  0
  8  9  2  0
  9 10  1  0
  9 18  1  0
 10 11  1  0
 11 12  1  0
 12 13  1  0
 13 14  2  0
 13 17  1  0
 14 15  1  0
 15 16  2  0
 16 17  1  0
 19 20  1  0
 19 21  2  3
 21 22  1  0
M  END
