
     RDKit          3D

 10 10  0  0  0  0  0  0  0  0999 V2000
   -2.7060    0.2120    0.2060 C   0  0  0  0  0  0  0  0  0  0  0  0
   -1.6300   -0.6920   -0.1230 N   0  0  0  0  0  0  0  0  0  0  0  0
   -0.2660   -0.3250   -0.0630 C   0  0  0  0  0  0  0  0  0  0  0  0
    0.1320    0.9390    0.3200 C   0  0  0  0  0  0  0  0  0  0  0  0
    1.4830    1.2760    0.3710 C   0  0  0  0  0  0  0  0  0  0  0  0
    2.4110    0.3290    0.0340 C   0  0  0  0  0  0  0  0  0  0  0  0
    4.2780    0.7980    0.1050 Br  0  0  0  0  0  0  0  0  0  0  0  0
    2.0070   -0.8930   -0.3350 N   0  0  0  0  0  0  0  0  0  0  0  0
    0.6990   -1.2480   -0.3940 C   0  0  0  0  0  0  0  0  0  0  0  0
    0.4230   -2.4260   -0.7540 O   0  0  0  0  0  0  0  0  0  0  0  0
  1  2  1  0
  2  3  1  0
  3  4  2  0
  3  9  1  0
  4  5  1  0
  5  6  2  0
  6  7  1  0
  6  8  1  0
  8  9  1  0
  9 10  2  0
M  END
