
     RDKit          3D

 10 10  0  0  0  0  0  0  0  0999 V2000
    1.1180   -1.9550    1.0880 N   0  0  0  0  0  0  0  0  0  0  0  0
    0.8990   -0.6950    0.4860 C   0  0  0  0  0  0  0  0  0  0  0  0
    1.8880    0.1700    0.4310 C   0  0  0  0  0  0  0  0  0  0  0  0
    3.5870   -0.3030    1.1640 Br  0  0  0  0  0  0  0  0  0  0  0  0
    1.7300    1.4950   -0.1800 C   0  0  0  0  0  0  0  0  0  0  0  0
    2.6730    2.2990   -0.2240 O   0  0  0  0  0  0  0  0  0  0  0  0
   -0.3470   -0.3090   -0.0690 N   0  0  0  0  0  0  0  0  0  0  0  0
   -1.0080   -0.1580   -1.3380 C   0  0  0  0  0  0  0  0  0  0  0  0
   -1.9860    0.7930   -0.7160 C   0  0  0  0  0  0  0  0  0  0  0  0
   -1.5770    0.1370    0.5800 C   0  0  0  0  0  0  0  0  0  0  0  0
  1  2  1  0
  2  3  2  3
  2  7  1  0
  3  4  1  0
  3  5  1  0
  5  6  2  0
  7  8  1  0
  7 10  1  0
  8  9  1  0
  9 10  1  0
M  END
