
     RDKit          3D

 22 23  0  0  0  0  0  0  0  0999 V2000
   -5.4910    1.1480    1.5510 C   0  0  0  0  0  0  0  0  0  0  0  0
   -5.3760    2.2170    0.6570 O   0  0  0  0  0  0  0  0  0  0  0  0
   -4.6480    1.8040   -0.4740 C   0  0  0  0  0  0  0  0  0  0  0  0
   -3.2980    1.3540   -0.0990 C   0  0  0  0  0  0  0  0  0  0  0  0
   -2.7640    0.1840   -0.2790 C   0  0  0  0  0  0  0  0  0  0  0  0
   -3.4940   -0.9060   -0.9210 C   0  0  0  0  0  0  0  0  0  0  0  0
   -2.4690   -1.3960   -2.3690 S   0  0  0  0  0  0  0  0  0  0  0  0
   -0.8480   -1.7360   -1.6350 C   0  0  0  0  0  0  0  0  0  0  0  0
   -0.5680   -0.9400   -0.4380 C   0  0  0  0  0  0  0  0  0  0  0  0
    0.7640   -1.0880    0.1570 C   0  0  0  0  0  0  0  0  0  0  0  0
    1.1180   -0.4540    1.1870 O   0  0  0  0  0  0  0  0  0  0  0  0
    1.7230   -1.9670   -0.4160 N   0  0  0  0  0  0  0  0  0  0  0  0
    3.0270   -2.0990    0.1820 C   0  0  0  0  0  0  0  0  0  0  0  0
    3.7590   -0.8000    0.1940 C   0  0  0  0  0  0  0  0  0  0  0  0
    3.3690    0.3860   -0.3870 C   0  0  0  0  0  0  0  0  0  0  0  0
    4.3840    1.3030   -0.1010 C   0  0  0  0  0  0  0  0  0  0  0  0
    5.3150    0.6120    0.6310 C   0  0  0  0  0  0  0  0  0  0  0  0
    6.5820    1.2200    1.1530 C   0  0  0  0  0  0  0  0  0  0  0  0
    6.3090    1.9620    2.9130 Br  0  0  0  0  0  0  0  0  0  0  0  0
    4.9070   -0.6050    0.7750 O   0  0  0  0  0  0  0  0  0  0  0  0
   -1.3780   -0.1100    0.1580 C   0  0  0  0  0  0  0  0  0  0  0  0
   -0.9740    0.5980    1.3130 O   0  0  0  0  0  0  0  0  0  0  0  0
  1  2  1  0
  2  3  1  0
  3  4  1  0
  4  5  2  3
  5  6  1  0
  5 21  1  0
  6  7  1  0
  7  8  1  0
  8  9  1  0
  9 10  1  0
  9 21  2  0
 10 11  2  0
 10 12  1  0
 12 13  1  0
 13 14  1  0
 14 15  2  0
 14 20  1  0
 15 16  1  0
 16 17  2  0
 17 18  1  0
 17 20  1  0
 18 19  1  0
 21 22  1  0
M  END
