
     RDKit          3D

 10 10  0  0  0  0  0  0  0  0999 V2000
    1.6730   -1.4560    0.6810 O   0  0  0  0  0  0  0  0  0  0  0  0
    0.7190   -0.4890    0.3590 C   0  0  0  0  0  0  0  0  0  0  0  0
    0.9940    0.7660    0.3910 N   0  0  0  0  0  0  0  0  0  0  0  0
    2.3260    1.1470    0.7710 C   0  0  0  0  0  0  0  0  0  0  0  0
    3.3770    0.8320    0.0520 C   0  0  0  0  0  0  0  0  0  0  0  0
    3.1600   -0.1570   -1.5440 Br  0  0  0  0  0  0  0  0  0  0  0  0
   -0.5910   -0.9520   -0.0110 N   0  0  0  0  0  0  0  0  0  0  0  0
   -1.7110   -0.0370    0.0850 C   0  0  2  0  0  0  0  0  0  0  0  0
   -3.0650   -0.4500   -0.2770 C   0  0  0  0  0  0  0  0  0  0  0  0
   -2.2930    0.4220   -1.2270 C   0  0  0  0  0  0  0  0  0  0  0  0
  1  2  1  0
  2  3  2  3
  2  7  1  0
  3  4  1  0
  4  5  2  3
  5  6  1  0
  8  7  1  6
  8  9  1  0
  8 10  1  0
  9 10  1  0
M  END
