
     RDKit          3D

 10 10  0  0  0  0  0  0  0  0999 V2000
   -1.8500   -0.9200    0.8360 C   0  0  0  0  0  0  0  0  0  0  0  0
   -1.1090   -0.0060   -0.0590 C   0  0  0  0  0  0  0  0  0  0  0  0
   -1.8480    0.9770   -0.8650 C   0  0  0  0  0  0  0  0  0  0  0  0
   -2.8260    2.1410    0.3420 Br  0  0  0  0  0  0  0  0  0  0  0  0
    0.2110   -0.0570   -0.1480 C   0  0  0  0  0  0  0  0  0  0  0  0
    1.0590   -0.9640    0.5780 N   0  0  0  0  0  0  0  0  0  0  0  0
    2.3410   -0.3100    0.6410 C   0  0  0  0  0  0  0  0  0  0  0  0
    2.4130    0.3220   -0.7140 C   0  0  0  0  0  0  0  0  0  0  0  0
    3.4050    0.4570   -1.4700 O   0  0  0  0  0  0  0  0  0  0  0  0
    1.0630    0.7460   -0.9560 N   0  0  0  0  0  0  0  0  0  0  0  0
  1  2  1  0
  2  3  1  0
  2  5  2  3
  3  4  1  0
  5  6  1  0
  5 10  1  0
  6  7  1  0
  7  8  1  0
  8  9  2  0
  8 10  1  0
M  END
