
     RDKit          3D

 22 24  0  0  0  0  0  0  0  0999 V2000
    5.0240   -0.8060   -1.5020 O   0  0  0  0  0  0  0  0  0  0  0  0
    3.9200   -0.5270   -0.9970 C   0  0  0  0  0  0  0  0  0  0  0  0
    3.7560   -0.4640    0.3690 O   0  0  0  0  0  0  0  0  0  0  0  0
    2.7340    0.3720    0.8800 C   0  0  2  0  0  0  0  0  0  0  0  0
    2.5530    0.1990    2.2460 O   0  0  0  0  0  0  0  0  0  0  0  0
    1.4350    0.1430    0.1170 C   0  0  1  0  0  0  0  0  0  0  0  0
    1.0160   -1.2730    0.3640 C   0  0  2  0  0  0  0  0  0  0  0  0
    1.8830   -2.1890   -0.1610 O   0  0  0  0  0  0  0  0  0  0  0  0
   -0.3690   -1.5790   -0.1180 C   0  0  1  0  0  0  0  0  0  0  0  0
   -0.6680   -2.8890    0.2530 O   0  0  0  0  0  0  0  0  0  0  0  0
   -1.3270   -0.6610    0.5760 C   0  0  2  0  0  0  0  0  0  0  0  0
   -2.7010   -0.9130   -0.0350 C   0  0  0  0  0  0  0  0  0  0  0  0
   -3.5740    0.3110    0.0550 C   0  0  0  0  0  0  0  0  0  0  0  0
   -2.8610    1.4600   -0.5910 C   0  0  0  0  0  0  0  0  0  0  0  0
   -1.5020    1.2370   -0.7740 O   0  0  0  0  0  0  0  0  0  0  0  0
   -0.9770    0.7800    0.4590 C   0  0  1  0  0  0  0  0  0  0  0  0
   -1.7280    1.4710    1.4390 O   0  0  0  0  0  0  0  0  0  0  0  0
    0.4410    1.1290    0.6460 C   0  0  2  0  0  0  0  0  0  0  0  0
    0.6820    2.3530   -0.0230 O   0  0  0  0  0  0  0  0  0  0  0  0
    1.7410    0.4350   -1.3330 C   0  0  2  0  0  0  0  0  0  0  0  0
    0.6380    0.2940   -2.1600 O   0  0  0  0  0  0  0  0  0  0  0  0
    2.8440   -0.2780   -1.8190 O   0  0  0  0  0  0  0  0  0  0  0  0
  1  2  2  0
  2  3  1  0
  2 22  1  0
  3  4  1  0
  4  5  1  1
  6  4  1  1
  6  7  1  0
  6 18  1  0
  6 20  1  0
  7  8  1  6
  7  9  1  0
  9 10  1  1
  9 11  1  0
 11 12  1  6
 11 16  1  0
 12 13  1  0
 13 14  1  0
 14 15  1  0
 15 16  1  0
 16 17  1  1
 16 18  1  0
 18 19  1  6
 20 21  1  6
 20 22  1  0
M  END
