
     RDKit          3D

 23 24  0  0  0  0  0  0  0  0999 V2000
    3.5170   -3.2320   -0.3900 O   0  0  0  0  0  0  0  0  0  0  0  0
    3.6850   -1.8840   -0.0020 C   0  0  0  0  0  0  0  0  0  0  0  0
    2.4160   -1.3600    0.6170 C   0  0  2  0  0  0  0  0  0  0  0  0
    1.3250   -1.3820   -0.1810 O   0  0  0  0  0  0  0  0  0  0  0  0
    0.8030   -0.2100   -0.6360 C   0  0  1  0  0  0  0  0  0  0  0  0
   -0.1480    0.2300    0.2200 O   0  0  0  0  0  0  0  0  0  0  0  0
   -1.4380    0.3160   -0.2150 C   0  0  1  0  0  0  0  0  0  0  0  0
   -2.2890   -0.5500    0.6820 C   0  0  2  0  0  0  0  0  0  0  0  0
   -1.6500   -1.8490    1.0650 C   0  0  0  0  0  0  0  0  0  0  0  0
   -1.4570   -2.6870   -0.0250 O   0  0  0  0  0  0  0  0  0  0  0  0
   -3.5330   -0.7690    0.0920 O   0  0  0  0  0  0  0  0  0  0  0  0
   -4.0250    0.3280   -0.5560 C   0  0  2  0  0  0  0  0  0  0  0  0
   -3.8780    0.2600   -1.9400 O   0  0  0  0  0  0  0  0  0  0  0  0
   -3.5010    1.6380   -0.0330 C   0  0  1  0  0  0  0  0  0  0  0  0
   -4.0380    1.9000    1.2480 O   0  0  0  0  0  0  0  0  0  0  0  0
   -2.0090    1.7290   -0.0440 C   0  0  1  0  0  0  0  0  0  0  0  0
   -1.5930    2.3030    1.1420 O   0  0  0  0  0  0  0  0  0  0  0  0
    1.8310    0.8200   -1.0230 C   0  0  2  0  0  0  0  0  0  0  0  0
    2.4360    0.4010   -2.2160 O   0  0  0  0  0  0  0  0  0  0  0  0
    2.9300    0.9190    0.0070 C   0  0  1  0  0  0  0  0  0  0  0  0
    2.9860    2.2200    0.5360 O   0  0  0  0  0  0  0  0  0  0  0  0
    2.6060    0.0190    1.1860 C   0  0  2  0  0  0  0  0  0  0  0  0
    3.6860    0.0860    2.0600 O   0  0  0  0  0  0  0  0  0  0  0  0
  1  2  1  0
  3  2  1  6
  3  4  1  0
  3 22  1  0
  4  5  1  0
  5  6  1  1
  5 18  1  0
  7  6  1  1
  7  8  1  0
  7 16  1  0
  8  9  1  6
  8 11  1  0
  9 10  1  0
 11 12  1  0
 12 13  1  6
 12 14  1  0
 14 15  1  1
 14 16  1  0
 16 17  1  1
 18 19  1  6
 18 20  1  0
 20 21  1  1
 20 22  1  0
 22 23  1  1
M  END
