
     RDKit          3D

 22 22  0  0  0  0  0  0  0  0999 V2000
   -1.2020   -1.8660    2.7280 O   0  0  0  0  0  0  0  0  0  0  0  0
   -1.2120   -2.2060    1.5070 C   0  0  0  0  0  0  0  0  0  0  0  0
   -1.3720   -3.5560    1.2390 O   0  0  0  0  0  0  0  0  0  0  0  0
   -1.0650   -1.2420    0.3990 C   0  0  2  0  0  0  0  0  0  0  0  0
   -1.1170   -1.9170   -0.7970 O   0  0  0  0  0  0  0  0  0  0  0  0
    0.2690   -0.5630    0.5230 C   0  0  0  0  0  0  0  0  0  0  0  0
    0.4810    0.6310   -0.3180 C   0  0  2  0  0  0  0  0  0  0  0  0
    1.4420    1.4390    0.3230 O   0  0  0  0  0  0  0  0  0  0  0  0
    2.5880    1.5890   -0.4410 C   0  0  1  0  0  0  0  0  0  0  0  0
    2.8250    2.9240   -0.7710 O   0  0  0  0  0  0  0  0  0  0  0  0
    3.6490    1.0770    0.2960 O   0  0  0  0  0  0  0  0  0  0  0  0
    4.2000    0.0200   -0.4200 C   0  0  0  0  0  0  0  0  0  0  0  0
    5.3570   -0.5280    0.4010 C   0  0  0  0  0  0  0  0  0  0  0  0
    4.8340   -0.9580    1.6350 O   0  0  0  0  0  0  0  0  0  0  0  0
   -0.7130    1.5000   -0.5720 C   0  0  0  0  0  0  0  0  0  0  0  0
   -1.9850    0.6460   -0.7480 C   0  0  2  0  0  0  0  0  0  0  0  0
   -1.6780   -0.1450   -1.8850 O   0  0  0  0  0  0  0  0  0  0  0  0
   -3.1160    1.5140   -1.1430 C   0  0  0  0  0  0  0  0  0  0  0  0
   -4.1900    0.7240   -1.5470 O   0  0  0  0  0  0  0  0  0  0  0  0
   -2.1050   -0.1240    0.5070 C   0  0  1  0  0  0  0  0  0  0  0  0
   -3.4350   -0.6120    0.9110 C   0  0  0  0  0  0  0  0  0  0  0  0
   -4.3290    0.4400    1.0070 O   0  0  0  0  0  0  0  0  0  0  0  0
  1  2  2  0
  2  3  1  0
  2  4  1  0
  4  5  1  6
  4  6  1  0
  4 20  1  0
  6  7  1  0
  7  8  1  1
  7 15  1  0
  8  9  1  0
  9 10  1  1
  9 11  1  0
 11 12  1  0
 12 13  1  0
 13 14  1  0
 15 16  1  0
 16 17  1  6
 16 18  1  0
 16 20  1  0
 18 19  1  0
 20 21  1  6
 21 22  1  0
M  END
