
     RDKit          3D

 23 23  0  0  0  0  0  0  0  0999 V2000
   -1.8970    0.5150    2.1770 C   0  0  0  0  0  0  0  0  0  0  0  0
   -1.8240   -0.1260    0.7530 C   0  0  1  0  0  0  0  0  0  0  0  0
   -2.6000   -1.2960    0.9470 O   0  0  0  0  0  0  0  0  0  0  0  0
   -2.4680    0.8100   -0.1720 C   0  0  2  0  0  0  0  0  0  0  0  0
   -3.9380    1.0280    0.2420 C   0  0  0  0  0  0  0  0  0  0  0  0
   -4.5050    1.9240   -0.6670 O   0  0  0  0  0  0  0  0  0  0  0  0
   -2.4880    0.4660   -1.6250 C   0  0  0  0  0  0  0  0  0  0  0  0
   -3.1230   -0.7300   -1.9210 O   0  0  0  0  0  0  0  0  0  0  0  0
   -0.4330   -0.5360    0.5860 C   0  0  2  0  0  0  0  0  0  0  0  0
   -0.0050   -1.1730    1.7990 O   0  0  0  0  0  0  0  0  0  0  0  0
    0.5760    0.5340    0.3170 C   0  0  0  0  0  0  0  0  0  0  0  0
    1.5950   -0.2340   -0.5340 C   0  0  1  0  0  0  0  0  0  0  0  0
    1.4140    0.0520   -1.8650 O   0  0  0  0  0  0  0  0  0  0  0  0
    2.9490    0.1350   -0.0450 C   0  0  0  0  0  0  0  0  0  0  0  0
    3.2760   -0.0620    1.1530 O   0  0  0  0  0  0  0  0  0  0  0  0
    3.9190    0.7090   -0.8630 O   0  0  0  0  0  0  0  0  0  0  0  0
    5.2020    1.0550   -0.3900 C   0  0  0  0  0  0  0  0  0  0  0  0
    5.9530   -0.0860    0.1350 C   0  0  0  0  0  0  0  0  0  0  0  0
    7.1050    0.0820    0.5850 O   0  0  0  0  0  0  0  0  0  0  0  0
    5.4080   -1.3520    0.1410 O   0  0  0  0  0  0  0  0  0  0  0  0
    1.3040   -1.5820   -0.3270 O   0  0  0  0  0  0  0  0  0  0  0  0
   -0.1110   -1.5640   -0.4620 C   0  0  1  0  0  0  0  0  0  0  0  0
   -0.5330   -2.8460   -0.1130 O   0  0  0  0  0  0  0  0  0  0  0  0
  2  1  1  1
  2  3  1  0
  2  4  1  0
  2  9  1  0
  4  5  1  1
  4  7  1  0
  5  6  1  0
  7  8  1  0
  9 10  1  1
  9 11  1  0
  9 22  1  0
 11 12  1  0
 12 13  1  6
 12 14  1  0
 12 21  1  0
 14 15  2  0
 14 16  1  0
 16 17  1  0
 17 18  1  0
 18 19  2  0
 18 20  1  0
 21 22  1  0
 22 23  1  1
M  END
