
     RDKit          3D

 22 22  0  0  0  0  0  0  0  0999 V2000
   -4.6300   -1.6060   -1.9600 O   0  0  0  0  0  0  0  0  0  0  0  0
   -3.3250   -1.1360   -1.9810 C   0  0  0  0  0  0  0  0  0  0  0  0
   -3.0210   -0.4650   -0.6880 C   0  0  1  0  0  0  0  0  0  0  0  0
   -1.7060    0.0220   -0.6370 O   0  0  0  0  0  0  0  0  0  0  0  0
   -1.0220   -0.4540    0.4740 C   0  0  0  0  0  0  0  0  0  0  0  0
    0.3800    0.1510    0.3990 C   0  0  1  0  0  0  0  0  0  0  0  0
    0.1700    1.5500    0.4300 O   0  0  0  0  0  0  0  0  0  0  0  0
    1.2340   -0.2780    1.5470 C   0  0  0  0  0  0  0  0  0  0  0  0
    2.4610    0.3320    1.5150 O   0  0  0  0  0  0  0  0  0  0  0  0
    3.2320    0.0920    0.4040 C   0  0  1  0  0  0  0  0  0  0  0  0
    3.4670    1.4460   -0.2730 C   0  0  0  0  0  0  0  0  0  0  0  0
    4.5870    1.4640   -1.0560 O   0  0  0  0  0  0  0  0  0  0  0  0
    4.9090    0.2370   -1.6250 C   0  0  0  0  0  0  0  0  0  0  0  0
    5.2770   -0.7890   -0.5740 C   0  0  1  0  0  0  0  0  0  0  0  0
    6.6360   -0.7820   -0.3480 O   0  0  0  0  0  0  0  0  0  0  0  0
    4.6010   -0.4550    0.7510 C   0  0  2  0  0  0  0  0  0  0  0  0
    4.5520   -1.6040    1.5000 O   0  0  0  0  0  0  0  0  0  0  0  0
   -3.8220    0.6690   -0.5790 O   0  0  0  0  0  0  0  0  0  0  0  0
   -4.6020    0.6150    0.5590 C   0  0  1  0  0  0  0  0  0  0  0  0
   -4.1470    1.5840    1.4950 O   0  0  0  0  0  0  0  0  0  0  0  0
   -6.0510    0.9150    0.3520 C   0  0  0  0  0  0  0  0  0  0  0  0
   -6.7190    0.0850   -0.5080 O   0  0  0  0  0  0  0  0  0  0  0  0
  1  2  1  0
  3  2  1  6
  3  4  1  0
  3 18  1  0
  4  5  1  0
  5  6  1  0
  6  7  1  1
  6  8  1  0
  8  9  1  0
 10  9  1  1
 10 11  1  0
 10 16  1  0
 11 12  1  0
 12 13  1  0
 13 14  1  0
 14 15  1  1
 14 16  1  0
 16 17  1  1
 18 19  1  0
 19 20  1  1
 19 21  1  0
 21 22  1  0
M  END
