
     RDKit          3D

 22 23  0  0  0  0  0  0  0  0999 V2000
    5.0880   -0.6890   -0.8030 O   0  0  0  0  0  0  0  0  0  0  0  0
    4.7520    0.2950   -0.1160 C   0  0  0  0  0  0  0  0  0  0  0  0
    5.6060    1.3280    0.2370 O   0  0  0  0  0  0  0  0  0  0  0  0
    4.8590    2.5330    0.3430 C   0  0  0  0  0  0  0  0  0  0  0  0
    3.4330    2.1190    0.5200 C   0  0  0  0  0  0  0  0  0  0  0  0
    3.4560    0.5910    0.4520 C   0  0  1  0  0  0  0  0  0  0  0  0
    2.3490    0.2170   -0.2640 O   0  0  0  0  0  0  0  0  0  0  0  0
    1.4800   -0.5490    0.5320 C   0  0  1  0  0  0  0  0  0  0  0  0
    0.2840    0.1080    0.7400 O   0  0  0  0  0  0  0  0  0  0  0  0
   -0.6610   -0.0390   -0.2340 C   0  0  2  0  0  0  0  0  0  0  0  0
   -0.3520    0.7570   -1.3350 O   0  0  0  0  0  0  0  0  0  0  0  0
   -1.9940    0.4620    0.3850 C   0  0  0  0  0  0  0  0  0  0  0  0
   -2.9440    0.3240   -0.5650 O   0  0  0  0  0  0  0  0  0  0  0  0
   -4.2090    0.7190   -0.3320 C   0  0  0  0  0  0  0  0  0  0  0  0
   -4.8720    0.0180    0.8010 C   0  0  2  0  0  0  0  0  0  0  0  0
   -6.2050    0.4940    0.8990 O   0  0  0  0  0  0  0  0  0  0  0  0
   -4.2480    0.2070    2.0360 O   0  0  0  0  0  0  0  0  0  0  0  0
   -0.9190   -1.4260   -0.7040 C   0  0  1  0  0  0  0  0  0  0  0  0
   -1.8600   -1.4180   -1.7050 O   0  0  0  0  0  0  0  0  0  0  0  0
    0.4160   -1.9540   -1.2490 C   0  0  0  0  0  0  0  0  0  0  0  0
    1.3550   -1.9010   -0.0640 C   0  0  1  0  0  0  0  0  0  0  0  0
    2.5980   -2.4200   -0.3460 O   0  0  0  0  0  0  0  0  0  0  0  0
  1  2  2  0
  2  3  1  0
  2  6  1  0
  3  4  1  0
  4  5  1  0
  5  6  1  0
  6  7  1  6
  8  7  1  6
  8  9  1  0
  8 21  1  0
  9 10  1  0
 10 11  1  6
 10 12  1  0
 10 18  1  0
 12 13  1  0
 13 14  1  0
 14 15  1  0
 15 16  1  1
 15 17  1  0
 18 19  1  6
 18 20  1  0
 20 21  1  0
 21 22  1  6
M  END
