
     RDKit          3D

 15 14  0  0  0  0  0  0  0  0999 V2000
   -2.6290   -0.7280    0.8900 O   0  0  0  0  0  0  0  0  0  0  0  0
   -2.5100   -0.6720   -0.3720 C   0  0  0  0  0  0  0  0  0  0  0  0
   -3.6390   -0.5400   -1.1290 O   0  0  0  0  0  0  0  0  0  0  0  0
   -4.9280   -0.4640   -0.5600 C   0  0  0  0  0  0  0  0  0  0  0  0
   -5.0560    0.7250    0.3530 C   0  0  0  0  0  0  0  0  0  0  0  0
   -4.8180    1.8850   -0.3880 O   0  0  0  0  0  0  0  0  0  0  0  0
   -1.2210   -0.7480   -0.9350 O   0  0  0  0  0  0  0  0  0  0  0  0
   -0.1510   -0.8810   -0.0450 C   0  0  0  0  0  0  0  0  0  0  0  0
    1.0780   -0.9490   -0.6570 O   0  0  0  0  0  0  0  0  0  0  0  0
    2.0360   -1.0800    0.3570 C   0  0  0  0  0  0  0  0  0  0  0  0
    3.4350   -1.1650   -0.2040 C   0  0  0  0  0  0  0  0  0  0  0  0
    3.7970    0.0660   -1.0000 C   0  0  0  0  0  0  0  0  0  0  0  0
    3.7170    1.5820    0.0390 P   0  0  0  0  0  0  0  0  0  0  0  0
    5.1110    2.5880   -0.2760 O   0  0  0  0  0  0  0  0  0  0  0  0
    3.5870    1.2390    1.7250 O   0  0  0  0  0  0  0  0  0  0  0  0
  1  2  2  0
  2  3  1  0
  2  7  1  0
  3  4  1  0
  4  5  1  0
  5  6  1  0
  7  8  1  0
  8  9  1  0
  9 10  1  0
 10 11  1  0
 11 12  1  0
 12 13  1  0
 13 14  1  0
 13 15  1  0
M  END
