
     RDKit          3D

 15 14  0  0  0  0  0  0  0  0999 V2000
   -1.3010   -2.8270    0.3690 C   0  0  0  0  0  0  0  0  0  0  0  0
   -1.0700   -1.3610   -0.0260 C   0  0  1  0  0  0  0  0  0  0  0  0
   -0.7990   -1.3600   -1.3870 O   0  0  0  0  0  0  0  0  0  0  0  0
   -2.3720   -0.6450    0.2800 C   0  0  0  0  0  0  0  0  0  0  0  0
   -2.2980    0.7040   -0.1570 O   0  0  0  0  0  0  0  0  0  0  0  0
   -3.3580    1.5650    0.0090 C   0  0  0  0  0  0  0  0  0  0  0  0
   -4.3920    1.1280    0.5560 O   0  0  0  0  0  0  0  0  0  0  0  0
   -3.3250    2.8990   -0.4070 O   0  0  0  0  0  0  0  0  0  0  0  0
    0.0600   -0.8740    0.8180 C   0  0  0  0  0  0  0  0  0  0  0  0
    0.5180    0.8810    0.5130 P   0  0  0  0  0  0  0  0  0  0  0  0
    1.2630    1.4770    1.9790 O   0  0  0  0  0  0  0  0  0  0  0  0
    1.7500    1.0780   -0.8480 C   0  0  0  0  0  0  0  0  0  0  0  0
    3.1790    1.1280   -0.2970 C   0  0  0  0  0  0  0  0  0  0  0  0
    4.0550    1.2740   -1.3430 O   0  0  0  0  0  0  0  0  0  0  0  0
    5.2870    1.3200   -0.8980 O   0  0  0  0  0  0  0  0  0  0  0  0
  2  1  1  1
  2  3  1  0
  2  4  1  0
  2  9  1  0
  4  5  1  0
  5  6  1  0
  6  7  2  0
  6  8  1  0
  9 10  1  0
 10 11  1  0
 10 12  1  0
 12 13  1  0
 13 14  1  0
 14 15  1  0
M  END
