
     RDKit          3D

 15 14  0  0  0  0  0  0  0  0999 V2000
   -3.5800   -0.7600   -1.1150 C   0  0  0  0  0  0  0  0  0  0  0  0
   -3.3070    0.6410   -0.6740 C   0  0  2  0  0  0  0  0  0  0  0  0
   -4.1160    0.9440    0.5660 C   0  0  0  0  0  0  0  0  0  0  0  0
   -3.7520    1.5040   -1.6720 O   0  0  0  0  0  0  0  0  0  0  0  0
   -1.9310    0.8190   -0.4840 O   0  0  0  0  0  0  0  0  0  0  0  0
   -1.2030    0.0710    0.4300 C   0  0  0  0  0  0  0  0  0  0  0  0
   -1.7630   -0.7910    1.1150 O   0  0  0  0  0  0  0  0  0  0  0  0
    0.2630    0.2740    0.6200 C   0  0  0  0  0  0  0  0  0  0  0  0
    0.7500   -0.5680    1.5610 O   0  0  0  0  0  0  0  0  0  0  0  0
    2.0590   -0.5290    1.8880 C   0  0  0  0  0  0  0  0  0  0  0  0
    3.0630   -0.7960    0.8300 C   0  0  0  0  0  0  0  0  0  0  0  0
    3.0290    0.0820   -0.2490 O   0  0  0  0  0  0  0  0  0  0  0  0
    4.2030   -0.2650   -1.4390 P   0  0  0  0  0  0  0  0  0  0  0  0
    5.4270   -1.3660   -0.8790 O   0  0  0  0  0  0  0  0  0  0  0  0
    4.9810    1.2380   -1.8870 O   0  0  0  0  0  0  0  0  0  0  0  0
  2  1  1  6
  2  3  1  0
  2  4  1  0
  2  5  1  0
  5  6  1  0
  6  7  2  0
  6  8  1  0
  8  9  1  0
  9 10  1  0
 10 11  1  0
 11 12  1  0
 12 13  1  0
 13 14  1  0
 13 15  1  0
M  END
