
     RDKit          3D

 16 16  0  0  0  0  0  0  0  0999 V2000
   -2.5630    2.5930    0.6610 O   0  0  0  0  0  0  0  0  0  0  0  0
   -1.8350    2.2290   -0.4480 C   0  0  0  0  0  0  0  0  0  0  0  0
   -1.1480    0.9040   -0.3180 C   0  0  1  0  0  0  0  0  0  0  0  0
   -0.2470    0.8690    0.7440 O   0  0  0  0  0  0  0  0  0  0  0  0
    0.6000   -0.2180    0.5530 C   0  0  2  0  0  0  0  0  0  0  0  0
    1.3740   -0.0340   -0.5560 O   0  0  0  0  0  0  0  0  0  0  0  0
    2.9940    0.0940   -0.3260 P   0  0  0  0  0  0  0  0  0  0  0  0
    3.8670    1.3090   -1.0730 O   0  0  0  0  0  0  0  0  0  0  0  0
    2.8780    0.9610    0.9210 O   0  0  0  0  0  0  0  0  0  0  0  0
    3.8440   -1.0880    0.4390 O   0  0  0  0  0  0  0  0  0  0  0  0
   -0.1180   -1.5330    0.5140 C   0  0  2  0  0  0  0  0  0  0  0  0
    0.7710   -2.4910    0.0240 O   0  0  0  0  0  0  0  0  0  0  0  0
   -1.3050   -1.5130   -0.4210 C   0  0  1  0  0  0  0  0  0  0  0  0
   -2.1290   -2.5990   -0.1650 O   0  0  0  0  0  0  0  0  0  0  0  0
   -2.1080   -0.2470   -0.1190 C   0  0  1  0  0  0  0  0  0  0  0  0
   -2.4620   -0.3340    1.2450 O   0  0  0  0  0  0  0  0  0  0  0  0
  1  2  1  0
  3  2  1  1
  3  4  1  0
  3 15  1  0
  4  5  1  0
  5  6  1  6
  5 11  1  0
  6  7  1  0
  7  8  1  0
  7  9  1  0
  7 10  1  0
 11 12  1  6
 11 13  1  0
 13 14  1  1
 13 15  1  0
 15 16  1  1
M  END
