
     RDKit          3D

 16 15  0  0  0  0  0  0  0  0999 V2000
   -2.8150    2.7010   -0.2350 C   0  0  0  0  0  0  0  0  0  0  0  0
   -2.2120    1.6830   -0.9700 O   0  0  0  0  0  0  0  0  0  0  0  0
   -0.9770    1.1690   -0.7780 N   0  0  0  0  0  0  0  0  0  0  0  0
   -0.8150    0.0350   -0.2010 C   0  0  0  0  0  0  0  0  0  0  0  0
    0.4870   -0.4620   -0.0220 N   0  0  0  0  0  0  0  0  0  0  0  0
    1.6850    0.1640   -0.5150 C   0  0  0  0  0  0  0  0  0  0  0  0
    2.9120   -0.6370   -0.1440 C   0  0  0  0  0  0  0  0  0  0  0  0
    4.0310    0.0120   -0.6440 O   0  0  0  0  0  0  0  0  0  0  0  0
    5.4940   -0.8130   -0.2810 P   0  0  0  0  0  0  0  0  0  0  0  0
    6.8180    0.2510    0.0030 O   0  0  0  0  0  0  0  0  0  0  0  0
    5.2850   -1.9800    0.9670 O   0  0  0  0  0  0  0  0  0  0  0  0
   -1.9990   -0.6870    0.2450 C   0  0  0  0  0  0  0  0  0  0  0  0
   -1.8550   -1.8080    0.8160 O   0  0  0  0  0  0  0  0  0  0  0  0
   -3.2820   -0.2200    0.0800 O   0  0  0  0  0  0  0  0  0  0  0  0
   -4.4300   -0.9410    0.5220 C   0  0  0  0  0  0  0  0  0  0  0  0
   -5.6000   -0.2480    0.2340 O   0  0  0  0  0  0  0  0  0  0  0  0
  1  2  1  0
  2  3  1  0
  3  4  2  3
  4  5  1  0
  4 12  1  0
  5  6  1  0
  6  7  1  0
  7  8  1  0
  8  9  1  0
  9 10  1  0
  9 11  1  0
 12 13  2  0
 12 14  1  0
 14 15  1  0
 15 16  1  0
M  END
