
     RDKit          3D

 31 33  0  0  0  0  0  0  0  0999 V2000
   -5.6630   -3.1320   -0.6510 C   0  0  0  0  0  0  0  0  0  0  0  0
   -5.7690   -1.6890   -0.7940 C   0  0  0  0  0  0  0  0  0  0  0  0
   -6.2780   -1.2200   -1.9490 C   0  0  0  0  0  0  0  0  0  0  0  0
   -6.5430    0.1410   -2.4710 C   0  0  0  0  0  0  0  0  0  0  0  0
   -5.8990    1.2890   -2.3370 N   0  0  0  0  0  0  0  0  0  0  0  0
   -4.6930    1.6270   -1.6310 C   0  0  0  0  0  0  0  0  0  0  0  0
   -3.9600    2.7050   -2.2930 C   0  0  0  0  0  0  0  0  0  0  0  0
   -4.1060    1.1770   -0.5120 C   0  0  0  0  0  0  0  0  0  0  0  0
   -2.9120    1.7770   -0.1740 N   0  0  0  0  0  0  0  0  0  0  0  0
   -1.9930    1.5290    0.8550 C   0  0  0  0  0  0  0  0  0  0  0  0
   -2.1190    0.6100    1.6570 O   0  0  0  0  0  0  0  0  0  0  0  0
   -0.7730    2.4100    1.0200 C   0  0  0  0  0  0  0  0  0  0  0  0
    0.0430    2.0130    2.1070 N   0  0  0  0  0  0  0  0  0  0  0  0
   -0.2320    2.6790    3.4050 C   0  0  0  0  0  0  0  0  0  0  0  0
    1.0620    1.0740    2.0970 C   0  0  0  0  0  0  0  0  0  0  0  0
    1.7110    0.9070    3.2150 O   0  0  0  0  0  0  0  0  0  0  0  0
    1.5220    0.2290    0.9990 C   0  0  0  0  0  0  0  0  0  0  0  0
    1.0670    0.0740   -0.2850 C   0  0  0  0  0  0  0  0  0  0  0  0
    1.8790   -0.8710   -0.9290 C   0  0  0  0  0  0  0  0  0  0  0  0
    2.7910   -1.2450    0.0020 C   0  0  0  0  0  0  0  0  0  0  0  0
    3.9040   -2.2510   -0.1830 C   0  0  0  0  0  0  0  0  0  0  0  0
    5.0910   -1.5940   -0.6640 N   0  0  0  0  0  0  0  0  0  0  0  0
    5.5080   -0.5890    0.3050 C   0  0  0  0  0  0  0  0  0  0  0  0
    6.7140    0.1710   -0.1550 C   0  0  0  0  0  0  0  0  0  0  0  0
    7.6960   -0.6630   -0.9250 C   0  0  0  0  0  0  0  0  0  0  0  0
    7.4960   -2.1040   -0.5300 C   0  0  0  0  0  0  0  0  0  0  0  0
    6.1080   -2.5730   -0.9100 C   0  0  0  0  0  0  0  0  0  0  0  0
    2.5540   -0.5960    1.0870 O   0  0  0  0  0  0  0  0  0  0  0  0
   -4.6580    0.2300    0.4710 C   0  0  0  0  0  0  0  0  0  0  0  0
   -4.6700    0.7220    1.8740 C   0  0  0  0  0  0  0  0  0  0  0  0
   -5.3220   -0.9240    0.3780 C   0  0  0  0  0  0  0  0  0  0  0  0
  1  2  1  0
  2  3  2  0
  2 31  1  0
  3  4  1  0
  4  5  2  0
  5  6  1  0
  6  7  1  0
  6  8  2  0
  8  9  1  0
  8 29  1  0
  9 10  1  0
 10 11  2  0
 10 12  1  0
 12 13  1  0
 13 14  1  0
 13 15  1  0
 15 16  2  0
 15 17  1  0
 17 18  2  0
 17 28  1  0
 18 19  1  0
 19 20  2  0
 20 21  1  0
 20 28  1  0
 21 22  1  0
 22 23  1  0
 22 27  1  0
 23 24  1  0
 24 25  1  0
 25 26  1  0
 26 27  1  0
 29 30  1  0
 29 31  2  0
M  END
