
     RDKit          3D

 31 34  0  0  0  0  0  0  0  0999 V2000
    5.0880   -0.8110    2.8420 C   0  0  0  0  0  0  0  0  0  0  0  0
    3.8210   -1.5090    2.4040 C   0  0  0  0  0  0  0  0  0  0  0  0
    3.2820   -0.9920    1.2170 O   0  0  0  0  0  0  0  0  0  0  0  0
    4.0030   -1.0530    0.0450 C   0  0  0  0  0  0  0  0  0  0  0  0
    5.2360   -1.5960   -0.1160 C   0  0  0  0  0  0  0  0  0  0  0  0
    5.8970   -1.6180   -1.3420 C   0  0  0  0  0  0  0  0  0  0  0  0
    5.2880   -1.0710   -2.4470 C   0  0  0  0  0  0  0  0  0  0  0  0
    4.0280   -0.5120   -2.3090 C   0  0  0  0  0  0  0  0  0  0  0  0
    3.3680    0.0500   -3.3780 C   0  0  0  0  0  0  0  0  0  0  0  0
    2.0950    0.6090   -3.2120 C   0  0  0  0  0  0  0  0  0  0  0  0
    1.4440    0.6330   -2.0120 C   0  0  0  0  0  0  0  0  0  0  0  0
    0.1500    1.1760   -1.7750 N   0  0  0  0  0  0  0  0  0  0  0  0
   -0.7180    1.6940   -2.7480 C   0  0  0  0  0  0  0  0  0  0  0  0
   -0.4040    1.7130   -3.9480 O   0  0  0  0  0  0  0  0  0  0  0  0
   -2.0530    2.2440   -2.4050 C   0  0  0  0  0  0  0  0  0  0  0  0
   -2.3590    2.1970   -1.0180 N   0  0  0  0  0  0  0  0  0  0  0  0
   -2.0330    3.2260   -0.2260 C   0  0  0  0  0  0  0  0  0  0  0  0
   -1.4470    4.2670   -0.6810 O   0  0  0  0  0  0  0  0  0  0  0  0
   -2.3220    3.1970    1.1230 C   0  0  0  0  0  0  0  0  0  0  0  0
   -2.9620    2.0890    1.6860 C   0  0  0  0  0  0  0  0  0  0  0  0
   -3.2830    2.0300    3.1190 C   0  0  0  0  0  0  0  0  0  0  0  0
   -3.2910    1.0390    0.8560 C   0  0  0  0  0  0  0  0  0  0  0  0
   -3.9140   -0.1610    1.1270 C   0  0  0  0  0  0  0  0  0  0  0  0
   -4.4210   -0.6850    2.3970 C   0  0  0  0  0  0  0  0  0  0  0  0
   -3.9710   -0.7940   -0.0660 N   0  0  0  0  0  0  0  0  0  0  0  0
   -4.5390   -2.1150   -0.3470 C   0  0  0  0  0  0  0  0  0  0  0  0
   -3.4160   -3.1160   -0.1670 C   0  0  0  0  0  0  0  0  0  0  0  0
   -3.4250   -0.0510   -1.0130 N   0  0  0  0  0  0  0  0  0  0  0  0
   -2.9740    1.1220   -0.5020 C   0  0  0  0  0  0  0  0  0  0  0  0
    2.1300    0.0560   -0.9320 C   0  0  0  0  0  0  0  0  0  0  0  0
    3.3790   -0.4940   -1.0860 C   0  0  0  0  0  0  0  0  0  0  0  0
  1  2  1  0
  2  3  1  0
  3  4  1  0
  4  5  2  0
  4 31  1  0
  5  6  1  0
  6  7  2  0
  7  8  1  0
  8  9  2  0
  8 31  1  0
  9 10  1  0
 10 11  2  0
 11 12  1  0
 11 30  1  0
 12 13  1  0
 13 14  2  0
 13 15  1  0
 15 16  1  0
 16 17  1  0
 16 29  1  0
 17 18  2  0
 17 19  1  0
 19 20  2  0
 20 21  1  0
 20 22  1  0
 22 23  2  0
 22 29  1  0
 23 24  1  0
 23 25  1  0
 25 26  1  0
 25 28  1  0
 26 27  1  0
 28 29  2  0
 30 31  2  0
M  END
