
     RDKit          3D

 31 34  0  0  0  0  0  0  0  0999 V2000
   -7.6910   -0.4100    0.1270 C   0  0  0  0  0  0  0  0  0  0  0  0
   -6.7140    0.3650    0.9070 C   0  0  0  0  0  0  0  0  0  0  0  0
   -7.0780    1.0890    1.8030 O   0  0  0  0  0  0  0  0  0  0  0  0
   -5.2300    0.2510    0.5770 C   0  0  0  0  0  0  0  0  0  0  0  0
   -4.4770    1.1160    1.4920 C   0  0  0  0  0  0  0  0  0  0  0  0
   -3.0310    1.1990    1.3690 C   0  0  0  0  0  0  0  0  0  0  0  0
   -2.2530    1.9660    2.2120 N   0  0  0  0  0  0  0  0  0  0  0  0
   -1.0170    1.8510    1.8480 N   0  0  0  0  0  0  0  0  0  0  0  0
   -0.9160    1.0340    0.7870 C   0  0  0  0  0  0  0  0  0  0  0  0
    0.3300    0.6930    0.1300 C   0  0  2  0  0  0  0  0  0  0  0  0
    0.6050    1.5360   -1.1340 C   0  0  0  0  0  0  0  0  0  0  0  0
    2.0730    1.5540   -1.3730 C   0  0  0  0  0  0  0  0  0  0  0  0
    2.6830    0.3920   -0.7730 N   0  0  0  0  0  0  0  0  0  0  0  0
    4.0430    0.5100   -0.3480 C   0  0  0  0  0  0  0  0  0  0  0  0
    4.6380    1.6000   -0.5140 O   0  0  0  0  0  0  0  0  0  0  0  0
    4.7390   -0.6210    0.2730 C   0  0  0  0  0  0  0  0  0  0  0  0
    6.1540   -0.1980    0.5900 C   0  0  0  0  0  0  0  0  0  0  0  0
    7.2570   -0.7480    0.1260 C   0  0  0  0  0  0  0  0  0  0  0  0
    8.4140   -0.0270    0.6880 C   0  0  0  0  0  0  0  0  0  0  0  0
    7.7840    1.0100    1.5390 C   0  0  0  0  0  0  0  0  0  0  0  0
    6.4820    0.8880    1.4640 C   0  0  0  0  0  0  0  0  0  0  0  0
    2.0320   -0.8760   -0.5760 C   0  0  0  0  0  0  0  0  0  0  0  0
    0.5400   -0.7180   -0.2740 C   0  0  0  0  0  0  0  0  0  0  0  0
   -2.1700    0.6540    0.5240 N   0  0  0  0  0  0  0  0  0  0  0  0
   -2.4780   -0.2320   -0.5370 C   0  0  0  0  0  0  0  0  0  0  0  0
   -2.6880    0.2290   -1.8370 C   0  0  0  0  0  0  0  0  0  0  0  0
   -2.9700   -0.6510   -2.8520 C   0  0  0  0  0  0  0  0  0  0  0  0
   -3.0630   -2.0120   -2.6590 C   0  0  0  0  0  0  0  0  0  0  0  0
   -2.8590   -2.4830   -1.3860 C   0  0  0  0  0  0  0  0  0  0  0  0
   -2.5760   -1.6100   -0.3630 C   0  0  0  0  0  0  0  0  0  0  0  0
   -2.3740   -2.0990    0.9170 O   0  0  0  0  0  0  0  0  0  0  0  0
  1  2  1  0
  2  3  2  0
  2  4  1  0
  4  5  1  0
  5  6  1  0
  6  7  2  0
  6 24  1  0
  7  8  1  0
  8  9  2  0
 10  9  1  6
  9 24  1  0
 10 11  1  0
 10 23  1  0
 11 12  1  0
 12 13  1  0
 13 14  1  0
 13 22  1  0
 14 15  2  0
 14 16  1  0
 16 17  1  0
 17 18  2  0
 17 21  1  0
 18 19  1  0
 19 20  1  0
 20 21  2  0
 22 23  1  0
 24 25  1  0
 25 26  2  0
 25 30  1  0
 26 27  1  0
 27 28  2  0
 28 29  1  0
 29 30  2  0
 30 31  1  0
M  END
