
     RDKit          3D

 31 34  0  0  0  0  0  0  0  0999 V2000
   -5.3210    3.5510   -1.2970 C   0  0  0  0  0  0  0  0  0  0  0  0
   -5.2170    2.1170   -0.9440 C   0  0  0  0  0  0  0  0  0  0  0  0
   -6.3400    1.3420   -0.9280 C   0  0  0  0  0  0  0  0  0  0  0  0
   -6.2510   -0.0070   -0.5980 C   0  0  0  0  0  0  0  0  0  0  0  0
   -7.4790   -0.8380   -0.5850 C   0  0  0  0  0  0  0  0  0  0  0  0
   -4.9940   -0.5150   -0.2910 C   0  0  0  0  0  0  0  0  0  0  0  0
   -3.8640    0.2440   -0.3020 C   0  0  0  0  0  0  0  0  0  0  0  0
   -2.5600   -0.3100    0.0170 C   0  0  0  0  0  0  0  0  0  0  0  0
   -2.1820   -1.5210   -0.5780 C   0  0  0  0  0  0  0  0  0  0  0  0
   -0.9620   -2.1170   -0.3360 C   0  0  0  0  0  0  0  0  0  0  0  0
   -0.0540   -1.5280    0.5180 C   0  0  0  0  0  0  0  0  0  0  0  0
    1.1650   -2.1500    0.7430 O   0  0  0  0  0  0  0  0  0  0  0  0
    2.1580   -1.6490    1.5830 C   0  0  0  0  0  0  0  0  0  0  0  0
    3.3450   -2.5580    1.6030 C   0  0  0  0  0  0  0  0  0  0  0  0
    4.0480   -2.7480    0.3060 C   0  0  0  0  0  0  0  0  0  0  0  0
    4.5890   -1.5150   -0.1910 N   0  0  0  0  0  0  0  0  0  0  0  0
    3.9620   -0.7080   -1.0400 C   0  0  0  0  0  0  0  0  0  0  0  0
    2.8180   -1.0180   -1.4810 O   0  0  0  0  0  0  0  0  0  0  0  0
    4.5030    0.4710   -1.4770 N   0  0  0  0  0  0  0  0  0  0  0  0
    5.7100    0.8670   -1.0590 C   0  0  0  0  0  0  0  0  0  0  0  0
    6.2700    2.0690   -1.4990 C   0  0  0  0  0  0  0  0  0  0  0  0
    7.5200    2.4120   -1.0240 C   0  0  0  0  0  0  0  0  0  0  0  0
    8.1160    1.5790   -0.1780 N   0  0  0  0  0  0  0  0  0  0  0  0
    7.6060    0.4400    0.2520 N   0  0  0  0  0  0  0  0  0  0  0  0
    6.3900    0.0600   -0.1810 C   0  0  0  0  0  0  0  0  0  0  0  0
    5.8210   -1.1160    0.2380 C   0  0  0  0  0  0  0  0  0  0  0  0
    6.4170   -1.8950    1.0520 O   0  0  0  0  0  0  0  0  0  0  0  0
   -0.4250   -0.3380    1.1020 C   0  0  0  0  0  0  0  0  0  0  0  0
   -1.6620    0.2650    0.8570 C   0  0  0  0  0  0  0  0  0  0  0  0
   -2.0070    1.5550    1.5260 C   0  0  0  0  0  0  0  0  0  0  0  0
   -3.9680    1.5720   -0.6300 C   0  0  0  0  0  0  0  0  0  0  0  0
  1  2  1  0
  2  3  2  0
  2 31  1  0
  3  4  1  0
  4  5  1  0
  4  6  2  0
  6  7  1  0
  7  8  1  0
  7 31  2  0
  8  9  2  0
  8 29  1  0
  9 10  1  0
 10 11  2  0
 11 12  1  0
 11 28  1  0
 12 13  1  0
 13 14  1  0
 14 15  1  0
 15 16  1  0
 16 17  1  0
 16 26  1  0
 17 18  2  0
 17 19  1  0
 19 20  1  0
 20 21  2  0
 20 25  1  0
 21 22  1  0
 22 23  2  0
 23 24  1  0
 24 25  2  0
 25 26  1  0
 26 27  2  0
 28 29  2  0
 29 30  1  0
M  END
