
     RDKit          3D

 30 33  0  0  0  0  0  0  0  0999 V2000
    3.1060   -0.0850    2.5750 O   0  0  0  0  0  0  0  0  0  0  0  0
    3.6190    0.4170    1.4960 C   0  0  0  0  0  0  0  0  0  0  0  0
    2.7920    0.5450    0.3290 C   0  0  0  0  0  0  0  0  0  0  0  0
    3.1480    1.1770   -0.8180 C   0  0  0  0  0  0  0  0  0  0  0  0
    2.2960    1.2290   -1.9190 C   0  0  0  0  0  0  0  0  0  0  0  0
    1.0690    0.6390   -1.8690 C   0  0  0  0  0  0  0  0  0  0  0  0
    0.0330    0.7350   -3.2910 Cl  0  0  0  0  0  0  0  0  0  0  0  0
    0.6650   -0.0140   -0.7240 C   0  0  0  0  0  0  0  0  0  0  0  0
   -0.6240   -0.6210   -0.7020 N   0  0  0  0  0  0  0  0  0  0  0  0
   -1.1100   -1.3170    0.4500 C   0  0  0  0  0  0  0  0  0  0  0  0
   -2.4970   -1.8610    0.2050 C   0  0  0  0  0  0  0  0  0  0  0  0
   -2.8890   -3.1070    0.2400 C   0  0  0  0  0  0  0  0  0  0  0  0
   -4.3070   -3.1420   -0.0610 C   0  0  0  0  0  0  0  0  0  0  0  0
   -5.1120   -4.1820   -0.1340 C   0  0  0  0  0  0  0  0  0  0  0  0
   -6.4060   -4.0230   -0.4270 F   0  0  0  0  0  0  0  0  0  0  0  0
   -4.4720   -5.7730    0.1540 Cl  0  0  0  0  0  0  0  0  0  0  0  0
   -4.7540   -1.7880   -0.2860 N   0  0  0  0  0  0  0  0  0  0  0  0
   -3.6000   -0.9820   -0.1150 C   0  0  0  0  0  0  0  0  0  0  0  0
   -3.5670    0.3240   -0.2330 N   0  0  0  0  0  0  0  0  0  0  0  0
   -4.7480    1.0180   -0.5520 C   0  0  0  0  0  0  0  0  0  0  0  0
   -5.6990    1.3160    0.3020 C   0  0  0  0  0  0  0  0  0  0  0  0
   -6.7440    2.0130   -0.3340 N   0  0  0  0  0  0  0  0  0  0  0  0
   -6.3790    2.1400   -1.7000 C   0  0  0  0  0  0  0  0  0  0  0  0
   -5.2020    1.5550   -1.8340 C   0  0  0  0  0  0  0  0  0  0  0  0
    1.5180   -0.0510    0.3420 C   0  0  0  0  0  0  0  0  0  0  0  0
    4.9830    0.7910    1.6090 N   0  0  0  0  0  0  0  0  0  0  0  0
    5.7390    0.6610    2.8970 C   0  0  0  0  0  0  0  0  0  0  0  0
    7.0700    0.1460    2.4010 C   0  0  0  0  0  0  0  0  0  0  0  0
    7.3210    1.0260    1.1920 C   0  0  0  0  0  0  0  0  0  0  0  0
    5.9310    1.3000    0.6580 C   0  0  0  0  0  0  0  0  0  0  0  0
  1  2  2  0
  2  3  1  0
  2 26  1  0
  3  4  2  0
  3 25  1  0
  4  5  1  0
  5  6  2  0
  6  7  1  0
  6  8  1  0
  8  9  1  0
  8 25  2  0
  9 10  1  0
 10 11  1  0
 11 12  2  0
 11 18  1  0
 12 13  1  0
 13 14  2  3
 13 17  1  0
 14 15  1  0
 14 16  1  0
 17 18  1  0
 18 19  2  3
 19 20  1  0
 20 21  2  0
 20 24  1  0
 21 22  1  0
 22 23  1  0
 23 24  2  0
 26 27  1  0
 26 30  1  0
 27 28  1  0
 28 29  1  0
 29 30  1  0
M  CHG  1  22   1
M  END
