
     RDKit          3D

 31 34  0  0  0  0  0  0  0  0999 V2000
   -7.4240   -0.2760   -0.4780 C   0  0  0  0  0  0  0  0  0  0  0  0
   -6.7310   -1.5890   -0.1860 C   0  0  0  0  0  0  0  0  0  0  0  0
   -5.9900   -1.5730    1.1110 C   0  0  0  0  0  0  0  0  0  0  0  0
   -4.9270   -0.5380    1.1750 C   0  0  0  0  0  0  0  0  0  0  0  0
   -5.0410    0.6510    1.8660 C   0  0  0  0  0  0  0  0  0  0  0  0
   -3.8670    1.3300    1.6850 C   0  0  0  0  0  0  0  0  0  0  0  0
   -3.5620    2.6770    2.2650 C   0  0  0  0  0  0  0  0  0  0  0  0
   -3.0910    0.5910    0.9300 O   0  0  0  0  0  0  0  0  0  0  0  0
   -3.6730   -0.5310    0.5980 C   0  0  0  0  0  0  0  0  0  0  0  0
   -3.0900   -1.5900   -0.2390 C   0  0  0  0  0  0  0  0  0  0  0  0
   -1.7750   -1.3210   -0.7050 N   0  0  0  0  0  0  0  0  0  0  0  0
   -0.7720   -1.1220    0.2830 C   0  0  0  0  0  0  0  0  0  0  0  0
    0.5930   -1.1690   -0.3650 C   0  0  0  0  0  0  0  0  0  0  0  0
    0.6500   -0.5250   -1.6520 N   0  0  0  0  0  0  0  0  0  0  0  0
    1.7250    0.3040   -2.0480 C   0  0  0  0  0  0  0  0  0  0  0  0
    1.7220    0.8390   -3.1820 O   0  0  0  0  0  0  0  0  0  0  0  0
    2.8570    0.5510   -1.1480 C   0  0  0  0  0  0  0  0  0  0  0  0
    3.9790   -0.2420   -1.1220 C   0  0  0  0  0  0  0  0  0  0  0  0
    5.0310    0.0370   -0.2450 C   0  0  0  0  0  0  0  0  0  0  0  0
    4.8730    1.1350    0.5740 C   0  0  0  0  0  0  0  0  0  0  0  0
    3.7760    1.9210    0.5580 N   0  0  0  0  0  0  0  0  0  0  0  0
    2.7660    1.6330   -0.3020 C   0  0  0  0  0  0  0  0  0  0  0  0
    1.5580    2.4890   -0.3260 C   0  0  0  0  0  0  0  0  0  0  0  0
    5.8280    1.5850    1.5340 N   0  0  0  0  0  0  0  0  0  0  0  0
    7.1240    1.0720    1.8180 C   0  0  0  0  0  0  0  0  0  0  0  0
    7.9080    1.8230    2.4580 O   0  0  0  0  0  0  0  0  0  0  0  0
    7.6330   -0.2700    1.4260 C   0  0  0  0  0  0  0  0  0  0  0  0
    7.4690   -0.4480   -0.0710 C   0  0  0  0  0  0  0  0  0  0  0  0
    6.0920   -0.9590   -0.4240 C   0  0  0  0  0  0  0  0  0  0  0  0
   -0.4410   -0.7360   -2.5790 C   0  0  0  0  0  0  0  0  0  0  0  0
   -1.7260   -0.4280   -1.8110 C   0  0  0  0  0  0  0  0  0  0  0  0
  1  2  1  0
  2  3  1  0
  3  4  1  0
  4  5  1  0
  4  9  2  0
  5  6  2  0
  6  7  1  0
  6  8  1  0
  8  9  1  0
  9 10  1  0
 10 11  1  0
 11 12  1  0
 11 31  1  0
 12 13  1  0
 13 14  1  0
 14 15  1  0
 14 30  1  0
 15 16  2  0
 15 17  1  0
 17 18  2  0
 17 22  1  0
 18 19  1  0
 19 20  2  0
 19 29  1  0
 20 21  1  0
 20 24  1  0
 21 22  2  0
 22 23  1  0
 24 25  1  0
 25 26  2  0
 25 27  1  0
 27 28  1  0
 28 29  1  0
 30 31  1  0
M  END
