
     RDKit          3D

 31 34  0  0  0  0  0  0  0  0999 V2000
   -4.8200   -0.9270    3.6360 C   0  0  0  0  0  0  0  0  0  0  0  0
   -5.1940   -1.5850    2.3330 C   0  0  0  0  0  0  0  0  0  0  0  0
   -4.4020   -0.9760    1.2840 N   0  0  0  0  0  0  0  0  0  0  0  0
   -4.7060    0.1000    0.5340 C   0  0  0  0  0  0  0  0  0  0  0  0
   -3.6900    0.3480   -0.3430 C   0  0  0  0  0  0  0  0  0  0  0  0
   -3.5480    1.3600   -1.3260 N   0  0  0  0  0  0  0  0  0  0  0  0
   -2.5330    2.3840   -1.4430 C   0  0  0  0  0  0  0  0  0  0  0  0
   -3.1970    3.5450   -2.1640 C   0  0  0  0  0  0  0  0  0  0  0  0
   -4.4290    2.9950   -2.8250 C   0  0  0  0  0  0  0  0  0  0  0  0
   -4.4370    1.5440   -2.4280 C   0  0  0  0  0  0  0  0  0  0  0  0
   -5.1250    0.6460   -2.9900 O   0  0  0  0  0  0  0  0  0  0  0  0
   -2.7330   -0.6280   -0.1040 C   0  0  0  0  0  0  0  0  0  0  0  0
   -1.4920   -0.8610   -0.7020 C   0  0  0  0  0  0  0  0  0  0  0  0
   -0.6900   -1.9080   -0.3000 C   0  0  0  0  0  0  0  0  0  0  0  0
    0.5490   -2.1460   -0.8940 O   0  0  0  0  0  0  0  0  0  0  0  0
    1.7300   -1.5630   -0.3980 C   0  0  0  0  0  0  0  0  0  0  0  0
    1.5540   -0.8310    0.6010 O   0  0  0  0  0  0  0  0  0  0  0  0
    3.0160   -1.8210   -1.0260 C   0  0  0  0  0  0  0  0  0  0  0  0
    3.3010   -2.6150   -2.1160 C   0  0  0  0  0  0  0  0  0  0  0  0
    2.3130   -3.3870   -2.9030 C   0  0  0  0  0  0  0  0  0  0  0  0
    4.6080   -2.5570   -2.3230 N   0  0  0  0  0  0  0  0  0  0  0  0
    5.2080   -1.7820   -1.4500 N   0  0  0  0  0  0  0  0  0  0  0  0
    4.2220   -1.3090   -0.6250 C   0  0  0  0  0  0  0  0  0  0  0  0
    4.5390   -0.3690    0.4770 C   0  0  0  0  0  0  0  0  0  0  0  0
    4.2140    1.0330    0.0190 C   0  0  0  0  0  0  0  0  0  0  0  0
    4.4860    2.0770    1.0520 C   0  0  1  0  0  0  0  0  0  0  0  0
    3.7140    1.9090    2.3200 C   0  0  0  0  0  0  0  0  0  0  0  0
    5.9570    2.2340    1.3580 C   0  0  0  0  0  0  0  0  0  0  0  0
   -1.1800   -2.7040    0.7160 C   0  0  0  0  0  0  0  0  0  0  0  0
   -2.3990   -2.4960    1.3240 C   0  0  0  0  0  0  0  0  0  0  0  0
   -3.1960   -1.4420    0.9120 C   0  0  0  0  0  0  0  0  0  0  0  0
  1  2  1  0
  2  3  1  0
  3  4  1  0
  3 31  1  0
  4  5  2  0
  5  6  1  0
  5 12  1  0
  6  7  1  0
  6 10  1  0
  7  8  1  0
  8  9  1  0
  9 10  1  0
 10 11  2  0
 12 13  2  0
 12 31  1  0
 13 14  1  0
 14 15  1  0
 14 29  2  0
 15 16  1  0
 16 17  2  0
 16 18  1  0
 18 19  1  0
 18 23  2  0
 19 20  1  0
 19 21  2  0
 21 22  1  0
 22 23  1  0
 23 24  1  0
 24 25  1  0
 25 26  1  0
 26 27  1  1
 26 28  1  0
 29 30  1  0
 30 31  2  0
M  END
