
     RDKit          3D

 31 34  0  0  0  0  0  0  0  0999 V2000
    6.0400    2.7430    2.4960 C   0  0  0  0  0  0  0  0  0  0  0  0
    5.4270    2.1770    1.2640 C   0  0  0  0  0  0  0  0  0  0  0  0
    4.1700    1.5600    1.4760 O   0  0  0  0  0  0  0  0  0  0  0  0
    3.5070    1.0180    0.3970 C   0  0  0  0  0  0  0  0  0  0  0  0
    4.0470    1.0720   -0.8720 C   0  0  0  0  0  0  0  0  0  0  0  0
    3.3950    0.5390   -1.9590 C   0  0  0  0  0  0  0  0  0  0  0  0
    2.1760   -0.0750   -1.8420 C   0  0  0  0  0  0  0  0  0  0  0  0
    1.5020   -0.6220   -2.9310 O   0  0  0  0  0  0  0  0  0  0  0  0
    2.0900   -0.5590   -4.2400 C   0  0  0  0  0  0  0  0  0  0  0  0
    1.6050   -0.1430   -0.5630 C   0  0  0  0  0  0  0  0  0  0  0  0
    0.2980   -0.7000   -0.4950 N   0  0  0  0  0  0  0  0  0  0  0  0
   -0.2770   -1.2170    0.7220 C   0  0  0  0  0  0  0  0  0  0  0  0
    0.3690   -1.2270    1.7560 O   0  0  0  0  0  0  0  0  0  0  0  0
   -1.6510   -1.7410    0.7180 C   0  0  0  0  0  0  0  0  0  0  0  0
   -1.8430   -3.0580    1.1390 C   0  0  0  0  0  0  0  0  0  0  0  0
   -3.0870   -3.5940    1.0830 C   0  0  0  0  0  0  0  0  0  0  0  0
   -3.2680   -4.9150    1.5140 C   0  0  0  0  0  0  0  0  0  0  0  0
   -4.5290   -5.4390    1.4600 C   0  0  0  0  0  0  0  0  0  0  0  0
   -5.5720   -4.6510    0.9850 C   0  0  0  0  0  0  0  0  0  0  0  0
   -5.3510   -3.3970    0.5830 N   0  0  0  0  0  0  0  0  0  0  0  0
   -4.1150   -2.8340    0.6180 C   0  0  0  0  0  0  0  0  0  0  0  0
   -3.9410   -1.5830    0.2180 N   0  0  0  0  0  0  0  0  0  0  0  0
   -2.6890   -1.0180    0.2670 C   0  0  0  0  0  0  0  0  0  0  0  0
   -2.6060    0.4080   -0.0990 C   0  0  0  0  0  0  0  0  0  0  0  0
   -1.8730    1.3210    0.6500 C   0  0  0  0  0  0  0  0  0  0  0  0
   -1.9120    2.6450    0.3100 C   0  0  0  0  0  0  0  0  0  0  0  0
   -2.6530    3.1210   -0.7580 C   0  0  0  0  0  0  0  0  0  0  0  0
   -2.7090    4.5730   -1.0870 C   0  0  0  0  0  0  0  0  0  0  0  0
   -3.3460    2.2180   -1.4630 N   0  0  0  0  0  0  0  0  0  0  0  0
   -3.3410    0.8870   -1.1620 C   0  0  0  0  0  0  0  0  0  0  0  0
    2.2700    0.3950    0.5190 C   0  0  0  0  0  0  0  0  0  0  0  0
  1  2  1  0
  2  3  1  0
  3  4  1  0
  4  5  2  0
  4 31  1  0
  5  6  1  0
  6  7  2  0
  7  8  1  0
  7 10  1  0
  8  9  1  0
 10 11  1  0
 10 31  2  0
 11 12  1  0
 12 13  2  0
 12 14  1  0
 14 15  2  0
 14 23  1  0
 15 16  1  0
 16 17  2  0
 16 21  1  0
 17 18  1  0
 18 19  2  0
 19 20  1  0
 20 21  2  0
 21 22  1  0
 22 23  2  0
 23 24  1  0
 24 25  2  0
 24 30  1  0
 25 26  1  0
 26 27  2  0
 27 28  1  0
 27 29  1  0
 29 30  2  0
M  END
