
     RDKit          3D

 15 14  0  0  0  0  0  0  0  0999 V2000
    4.3880   -0.8170    0.1450 C   0  0  0  0  0  0  0  0  0  0  0  0
    3.3110   -0.0770   -0.6040 C   0  0  0  0  0  0  0  0  0  0  0  0
    2.1790    0.1700    0.3120 C   0  0  0  0  0  0  0  0  0  0  0  0
    2.2290   -0.2130    1.4610 O   0  0  0  0  0  0  0  0  0  0  0  0
    0.7060    1.0420   -0.2640 P   0  0  0  0  0  0  0  0  0  0  0  0
   -0.8740    0.2710    0.3410 C   0  0  1  0  0  0  0  0  0  0  0  0
   -0.9620    0.4910    1.8110 C   0  0  0  0  0  0  0  0  0  0  0  0
   -2.0140    0.8790   -0.4300 C   0  0  0  0  0  0  0  0  0  0  0  0
   -2.1140    2.2430   -0.2770 O   0  0  0  0  0  0  0  0  0  0  0  0
   -3.2020    2.6740   -1.0390 C   0  0  0  0  0  0  0  0  0  0  0  0
   -0.8870   -1.1890    0.0770 C   0  0  0  0  0  0  0  0  0  0  0  0
    0.0750   -1.7290   -0.4780 O   0  0  0  0  0  0  0  0  0  0  0  0
   -1.9880   -1.9200    0.4630 O   0  0  0  0  0  0  0  0  0  0  0  0
   -2.0890   -3.2490    0.2650 O   0  0  0  0  0  0  0  0  0  0  0  0
   -1.0060   -3.7380   -0.2650 O   0  0  0  0  0  0  0  0  0  0  0  0
  1  2  1  0
  2  3  1  0
  3  4  2  0
  3  5  1  0
  5  6  1  0
  6  7  1  1
  6  8  1  0
  6 11  1  0
  8  9  1  0
  9 10  1  0
 11 12  2  0
 11 13  1  0
 13 14  1  0
 14 15  1  0
M  END
