
     RDKit          3D

 16 15  0  0  0  0  0  0  0  0999 V2000
   -3.7500    1.7110   -0.0300 C   0  0  0  0  0  0  0  0  0  0  0  0
   -2.7230    0.6470    0.3330 C   0  0  0  0  0  0  0  0  0  0  0  0
   -1.9190    1.0380    1.3750 O   0  0  0  0  0  0  0  0  0  0  0  0
   -0.7860   -0.1920    1.7400 P   0  0  0  0  0  0  0  0  0  0  0  0
   -1.4520   -1.7330    2.0400 O   0  0  0  0  0  0  0  0  0  0  0  0
    0.6720   -0.2150    0.5880 C   0  0  2  0  0  0  0  0  0  0  0  0
    0.5650    0.6980   -0.4160 O   0  0  0  0  0  0  0  0  0  0  0  0
    1.4280    1.5980   -0.5450 O   0  0  0  0  0  0  0  0  0  0  0  0
    2.4820    1.6780    0.3230 C   0  0  0  0  0  0  0  0  0  0  0  0
    3.3510    2.8450   -0.0590 C   0  0  0  0  0  0  0  0  0  0  0  0
    3.0460    3.5210   -1.0070 O   0  0  0  0  0  0  0  0  0  0  0  0
    0.8680   -1.6000   -0.0150 C   0  0  2  0  0  0  0  0  0  0  0  0
    1.0780   -2.6310    1.0570 C   0  0  0  0  0  0  0  0  0  0  0  0
    2.0610   -1.5100   -0.7580 O   0  0  0  0  0  0  0  0  0  0  0  0
   -0.1920   -1.9940   -0.9480 C   0  0  0  0  0  0  0  0  0  0  0  0
   -1.3320   -2.1490   -0.5480 O   0  0  0  0  0  0  0  0  0  0  0  0
  1  2  1  0
  2  3  1  0
  3  4  1  0
  4  5  1  0
  4  6  1  0
  6  7  1  6
  6 12  1  0
  7  8  1  0
  8  9  1  0
  9 10  1  0
 10 11  2  0
 12 13  1  1
 12 14  1  0
 12 15  1  0
 15 16  2  0
M  END
