
     RDKit          3D

 16 16  0  0  0  0  0  0  0  0999 V2000
    3.1940    0.3200    1.1810 C   0  0  0  0  0  0  0  0  0  0  0  0
    2.5130   -0.5950    0.4070 O   0  0  0  0  0  0  0  0  0  0  0  0
    1.2790   -0.8220    0.8570 O   0  0  0  0  0  0  0  0  0  0  0  0
    0.4390   -0.6100   -0.2380 C   0  0  1  0  0  0  0  0  0  0  0  0
    0.7920   -1.5370   -1.3240 C   0  0  0  0  0  0  0  0  0  0  0  0
    1.7250   -2.3650   -1.1970 O   0  0  0  0  0  0  0  0  0  0  0  0
    0.0870   -1.4990   -2.5030 O   0  0  0  0  0  0  0  0  0  0  0  0
   -1.0120   -0.7770    0.1170 C   0  0  0  0  0  0  0  0  0  0  0  0
   -1.5380    0.6000    0.4110 C   0  0  1  0  0  0  0  0  0  0  0  0
   -2.7180    0.8860   -0.5050 C   0  0  0  0  0  0  0  0  0  0  0  0
   -2.1260    0.7530    2.1700 P   0  0  0  0  0  0  0  0  0  0  0  0
   -2.3310   -0.4780    3.0920 O   0  0  0  0  0  0  0  0  0  0  0  0
   -0.4350    1.5430    0.1160 C   0  0  0  0  0  0  0  0  0  0  0  0
   -0.4120    2.7370    0.4530 O   0  0  0  0  0  0  0  0  0  0  0  0
    0.5800    0.8100   -0.6240 C   0  0  0  0  0  0  0  0  0  0  0  0
    1.4230    1.2980   -1.4440 O   0  0  0  0  0  0  0  0  0  0  0  0
  1  2  1  0
  2  3  1  0
  4  3  1  1
  4  5  1  0
  4  8  1  0
  4 15  1  0
  5  6  2  0
  5  7  1  0
  8  9  1  0
  9 10  1  6
  9 11  1  0
  9 13  1  0
 11 12  2  0
 13 14  2  0
 13 15  1  0
 15 16  2  0
M  END
