
     RDKit          3D

 23 25  0  0  0  0  0  0  0  0999 V2000
    6.5090   -0.1820    1.4790 N   0  0  0  0  0  0  0  0  0  0  0  0
    5.4370    0.4320    0.7960 C   0  0  0  0  0  0  0  0  0  0  0  0
    5.6310    1.6120    0.1860 N   0  0  0  0  0  0  0  0  0  0  0  0
    4.6290    2.2030   -0.4630 C   0  0  0  0  0  0  0  0  0  0  0  0
    3.4110    1.6360   -0.5220 N   0  0  0  0  0  0  0  0  0  0  0  0
    3.1480    0.4510    0.0690 C   0  0  0  0  0  0  0  0  0  0  0  0
    4.1860   -0.1470    0.7330 C   0  0  0  0  0  0  0  0  0  0  0  0
    3.6820   -1.2950    1.2280 N   0  0  0  0  0  0  0  0  0  0  0  0
    2.3820   -1.3800    0.8690 C   0  0  0  0  0  0  0  0  0  0  0  0
    2.0450   -0.3150    0.1590 N   0  0  0  0  0  0  0  0  0  0  0  0
    0.7690    0.0050   -0.4220 C   0  0  2  0  0  0  0  0  0  0  0  0
   -0.2480    0.0840    0.5280 O   0  0  0  0  0  0  0  0  0  0  0  0
   -1.3520    0.1250   -0.3250 C   0  0  2  0  0  0  0  0  0  0  0  0
   -2.6450    0.2090    0.4150 C   0  0  0  0  0  0  0  0  0  0  0  0
   -3.7380    0.2500   -0.3890 O   0  0  0  0  0  0  0  0  0  0  0  0
   -5.1990    0.3480    0.5410 P   0  0  0  0  0  0  0  0  0  0  0  0
   -5.7310   -1.2400    0.9380 O   0  0  0  0  0  0  0  0  0  0  0  0
   -4.8830    1.2110    2.0340 O   0  0  0  0  0  0  0  0  0  0  0  0
   -6.3870    1.1310   -0.3750 O   0  0  0  0  0  0  0  0  0  0  0  0
   -1.1700   -1.1150   -1.1340 C   0  0  1  0  0  0  0  0  0  0  0  0
   -1.8390   -1.0820   -2.3530 O   0  0  0  0  0  0  0  0  0  0  0  0
    0.3210   -1.0710   -1.4170 C   0  0  1  0  0  0  0  0  0  0  0  0
    0.5960   -0.5890   -2.6960 O   0  0  0  0  0  0  0  0  0  0  0  0
  1  2  1  0
  2  3  2  0
  2  7  1  0
  3  4  1  0
  4  5  2  0
  5  6  1  0
  6  7  2  0
  6 10  1  0
  7  8  1  0
  8  9  2  0
  9 10  1  0
 11 10  1  1
 11 12  1  0
 11 22  1  0
 12 13  1  0
 13 14  1  1
 13 20  1  0
 14 15  1  0
 15 16  1  0
 16 17  1  0
 16 18  1  0
 16 19  1  0
 20 21  1  6
 20 22  1  0
 22 23  1  6
M  END
