
     RDKit          3D

 16 15  0  0  0  0  0  0  0  0999 V2000
    4.6660    0.4470   -0.7030 C   0  0  0  0  0  0  0  0  0  0  0  0
    3.5760   -0.5880   -0.6790 C   0  0  0  0  0  0  0  0  0  0  0  0
    2.5320   -0.3070    0.3260 C   0  0  0  0  0  0  0  0  0  0  0  0
    2.6130    0.7060    1.0470 O   0  0  0  0  0  0  0  0  0  0  0  0
    1.4780   -1.1710    0.4540 O   0  0  0  0  0  0  0  0  0  0  0  0
    0.4230   -0.9990    1.3830 C   0  0  0  0  0  0  0  0  0  0  0  0
   -0.2040    0.2230    1.0980 O   0  0  0  0  0  0  0  0  0  0  0  0
   -0.6760    0.2110   -0.1120 O   0  0  0  0  0  0  0  0  0  0  0  0
   -2.0630    0.3110   -0.1570 C   0  0  1  0  0  0  0  0  0  0  0  0
   -2.5310    0.2900   -1.5790 C   0  0  0  0  0  0  0  0  0  0  0  0
   -2.7190   -0.8820    0.5470 C   0  0  0  0  0  0  0  0  0  0  0  0
   -4.1010   -0.7020    0.4550 O   0  0  0  0  0  0  0  0  0  0  0  0
   -2.5190    1.5340    0.5530 C   0  0  0  0  0  0  0  0  0  0  0  0
   -3.6990    1.7970    0.6230 O   0  0  0  0  0  0  0  0  0  0  0  0
   -1.3030    2.6510    1.3240 P   0  0  0  0  0  0  0  0  0  0  0  0
   -0.5580    2.3470    2.6320 O   0  0  0  0  0  0  0  0  0  0  0  0
  1  2  1  0
  2  3  1  0
  3  4  2  0
  3  5  1  0
  5  6  1  0
  6  7  1  0
  7  8  1  0
  8  9  1  0
  9 10  1  6
  9 11  1  0
  9 13  1  0
 11 12  1  0
 13 14  2  0
 13 15  1  0
 15 16  2  0
M  END
