
     RDKit          3D

 16 15  0  0  0  0  0  0  0  0999 V2000
    3.9220    0.4570   -0.0690 C   0  0  0  0  0  0  0  0  0  0  0  0
    2.6270   -0.4200   -0.0930 C   0  0  0  0  0  0  0  0  0  0  0  0
    1.8440    0.0470   -1.0490 O   0  0  0  0  0  0  0  0  0  0  0  0
    0.7530   -0.2750   -1.4630 O   0  0  0  0  0  0  0  0  0  0  0  0
   -0.4010   -0.3290   -0.7240 C   0  0  1  0  0  0  0  0  0  0  0  0
   -1.5810   -0.6710   -1.7080 C   0  0  0  0  0  0  0  0  0  0  0  0
   -3.1050   -0.7220   -0.6800 P   0  0  0  0  0  0  0  0  0  0  0  0
   -4.0960    0.4600   -0.5500 O   0  0  0  0  0  0  0  0  0  0  0  0
   -0.3530   -1.4220    0.2750 C   0  0  0  0  0  0  0  0  0  0  0  0
   -1.3770   -1.6120    1.3280 C   0  0  0  0  0  0  0  0  0  0  0  0
    0.5670   -2.2120    0.2410 O   0  0  0  0  0  0  0  0  0  0  0  0
   -0.7370    0.9970   -0.1850 C   0  0  0  0  0  0  0  0  0  0  0  0
    0.0430    1.9670   -0.4250 O   0  0  0  0  0  0  0  0  0  0  0  0
   -1.8490    1.3060    0.5790 O   0  0  0  0  0  0  0  0  0  0  0  0
   -2.0900    2.5890    1.0470 C   0  0  0  0  0  0  0  0  0  0  0  0
   -1.3030    3.5360    0.7970 O   0  0  0  0  0  0  0  0  0  0  0  0
  1  2  1  0
  2  3  1  0
  3  4  1  0
  4  5  1  0
  5  6  1  6
  5  9  1  0
  5 12  1  0
  6  7  1  0
  7  8  2  0
  9 10  1  0
  9 11  2  0
 12 13  2  0
 12 14  1  0
 14 15  1  0
 15 16  2  0
M  END
