
     RDKit          3D

 16 15  0  0  0  0  0  0  0  0999 V2000
   -4.6680    1.1120   -0.2690 C   0  0  0  0  0  0  0  0  0  0  0  0
   -3.7210   -0.0570   -0.1480 C   0  0  0  0  0  0  0  0  0  0  0  0
   -2.4400    0.3390    0.5980 C   0  0  0  0  0  0  0  0  0  0  0  0
   -1.6580   -0.7980    0.6470 O   0  0  0  0  0  0  0  0  0  0  0  0
   -0.1660   -0.6070    1.4370 P   0  0  0  0  0  0  0  0  0  0  0  0
   -0.0370    0.8330    2.3640 O   0  0  0  0  0  0  0  0  0  0  0  0
    1.2680   -0.8310    0.2810 C   0  0  1  0  0  0  0  0  0  0  0  0
    2.3020   -1.4090    1.0170 O   0  0  0  0  0  0  0  0  0  0  0  0
    0.9160   -1.6810   -0.8800 C   0  0  0  0  0  0  0  0  0  0  0  0
    1.6510   -2.9490   -1.1010 C   0  0  0  0  0  0  0  0  0  0  0  0
    0.0490   -1.3750   -1.6520 O   0  0  0  0  0  0  0  0  0  0  0  0
    1.6740    0.5450   -0.1720 C   0  0  0  0  0  0  0  0  0  0  0  0
    0.8960    1.1980   -0.8270 O   0  0  0  0  0  0  0  0  0  0  0  0
    3.0160    1.0610    0.1960 C   0  0  0  0  0  0  0  0  0  0  0  0
    3.2020    2.3270   -0.3060 O   0  0  0  0  0  0  0  0  0  0  0  0
    4.4130    2.7320    0.0550 O   0  0  0  0  0  0  0  0  0  0  0  0
  1  2  1  0
  2  3  1  0
  3  4  1  0
  4  5  1  0
  5  6  1  0
  5  7  1  0
  7  8  1  1
  7  9  1  0
  7 12  1  0
  9 10  1  0
  9 11  2  0
 12 13  2  0
 12 14  1  0
 14 15  1  0
 15 16  1  0
M  END
