
     RDKit          3D

 15 14  0  0  0  0  0  0  0  0999 V2000
   -2.6010   -1.0090    0.5240 C   0  0  0  0  0  0  0  0  0  0  0  0
   -2.0900    0.3640    0.2320 C   0  0  2  0  0  0  0  0  0  0  0  0
   -3.2970    1.1540   -0.3070 C   0  0  0  0  0  0  0  0  0  0  0  0
   -1.0320    0.4790   -0.7880 C   0  0  0  0  0  0  0  0  0  0  0  0
    0.2550   -0.2330   -0.5500 C   0  0  1  0  0  0  0  0  0  0  0  0
    0.8720    0.1870    0.6080 O   0  0  0  0  0  0  0  0  0  0  0  0
    2.0600    0.8370    0.4480 C   0  0  0  0  0  0  0  0  0  0  0  0
    3.1500    0.0820   -0.2230 C   0  0  0  0  0  0  0  0  0  0  0  0
    4.2730    0.9070   -0.2930 O   0  0  0  0  0  0  0  0  0  0  0  0
    5.2880    0.3070   -0.8770 O   0  0  0  0  0  0  0  0  0  0  0  0
    0.1020   -1.7040   -0.4870 C   0  0  0  0  0  0  0  0  0  0  0  0
   -0.4310   -2.3310   -1.4200 O   0  0  0  0  0  0  0  0  0  0  0  0
    0.5480   -2.4590    0.6160 O   0  0  0  0  0  0  0  0  0  0  0  0
   -1.5650    1.2560    1.7750 P   0  0  0  0  0  0  0  0  0  0  0  0
   -1.4430    2.8100    1.6860 O   0  0  0  0  0  0  0  0  0  0  0  0
  2  1  1  1
  2  3  1  0
  2  4  1  0
  2 14  1  0
  5  4  1  1
  5  6  1  0
  5 11  1  0
  6  7  1  0
  7  8  1  0
  8  9  1  0
  9 10  1  0
 11 12  2  0
 11 13  1  0
 14 15  2  0
M  END
