
     RDKit          3D

 16 16  0  0  0  0  0  0  0  0999 V2000
    4.5110   -0.3050    0.2520 C   0  0  0  0  0  0  0  0  0  0  0  0
    3.4900    0.5280    0.6680 O   0  0  0  0  0  0  0  0  0  0  0  0
    2.7650    0.8920   -0.3650 O   0  0  0  0  0  0  0  0  0  0  0  0
    1.4700    0.8840   -0.0780 O   0  0  0  0  0  0  0  0  0  0  0  0
    0.8700   -0.1720   -0.7190 C   0  0  0  0  0  0  0  0  0  0  0  0
   -0.5720   -0.2300   -0.4350 C   0  0  0  0  0  0  0  0  0  0  0  0
   -1.1300    0.6720    0.3550 C   0  0  0  0  0  0  0  0  0  0  0  0
   -0.3680    1.6800    0.9240 O   0  0  0  0  0  0  0  0  0  0  0  0
   -0.3960    3.2980    0.2480 P   0  0  0  0  0  0  0  0  0  0  0  0
   -1.4860    4.2830    0.7510 O   0  0  0  0  0  0  0  0  0  0  0  0
   -2.5770    0.6300    0.6520 C   0  0  0  0  0  0  0  0  0  0  0  0
   -3.1970    1.7030    0.8850 O   0  0  0  0  0  0  0  0  0  0  0  0
   -3.2760   -0.6870    0.6700 C   0  0  0  0  0  0  0  0  0  0  0  0
   -2.3970   -1.6870    0.0480 C   0  0  0  0  0  0  0  0  0  0  0  0
   -2.4420   -2.8360    0.3970 O   0  0  0  0  0  0  0  0  0  0  0  0
   -1.4540   -1.2800   -1.0080 C   0  0  0  0  0  0  0  0  0  0  0  0
  1  2  1  0
  2  3  1  0
  3  4  1  0
  4  5  1  0
  5  6  1  0
  6  7  2  0
  6 16  1  0
  7  8  1  0
  7 11  1  0
  8  9  1  0
  9 10  2  0
 11 12  2  0
 11 13  1  0
 13 14  1  0
 14 15  2  0
 14 16  1  0
M  END
