
     RDKit          3D

 33 36  0  0  0  0  0  0  0  0999 V2000
   -6.3730    1.3830    1.5230 C   0  0  0  0  0  0  0  0  0  0  0  0
   -5.5470    0.1430    1.3840 C   0  0  0  0  0  0  0  0  0  0  0  0
   -4.2300    0.2750    0.9740 C   0  0  0  0  0  0  0  0  0  0  0  0
   -3.4460   -0.8560    0.8320 C   0  0  0  0  0  0  0  0  0  0  0  0
   -2.0070   -0.7840    0.4100 C   0  0  1  0  0  0  0  0  0  0  0  0
   -1.3630   -1.7980    1.1320 O   0  0  0  0  0  0  0  0  0  0  0  0
   -1.9450   -1.0540   -1.0620 C   0  0  0  0  0  0  0  0  0  0  0  0
   -0.6870   -1.1450   -1.5980 O   0  0  0  0  0  0  0  0  0  0  0  0
    0.2980   -0.2280   -1.7110 C   0  0  0  0  0  0  0  0  0  0  0  0
    0.1640    1.0730   -1.2890 C   0  0  0  0  0  0  0  0  0  0  0  0
    1.2510    1.9310   -1.4600 C   0  0  0  0  0  0  0  0  0  0  0  0
    1.0510    3.5970   -0.9290 Cl  0  0  0  0  0  0  0  0  0  0  0  0
    2.4420    1.5460   -2.0260 C   0  0  0  0  0  0  0  0  0  0  0  0
    3.6070    2.4650   -2.1770 C   0  0  0  0  0  0  0  0  0  0  0  0
    4.3270    2.5970   -0.8660 C   0  0  1  0  0  0  0  0  0  0  0  0
    3.5800    3.0910    0.1670 O   0  0  0  0  0  0  0  0  0  0  0  0
    4.8900    1.2740   -0.4590 C   0  0  0  0  0  0  0  0  0  0  0  0
    4.1310    0.3020    0.1530 C   0  0  0  0  0  0  0  0  0  0  0  0
    4.6680   -0.9310    0.5250 C   0  0  0  0  0  0  0  0  0  0  0  0
    5.9970   -1.2190    0.2880 C   0  0  0  0  0  0  0  0  0  0  0  0
    6.5740   -2.4830    0.6630 C   0  0  0  0  0  0  0  0  0  0  0  0
    7.0350   -3.5140    0.9860 N   0  0  0  0  0  0  0  0  0  0  0  0
    6.7480   -0.2390   -0.3260 C   0  0  0  0  0  0  0  0  0  0  0  0
    6.2230    0.9780   -0.6950 C   0  0  0  0  0  0  0  0  0  0  0  0
    2.5460    0.2310   -2.4440 C   0  0  0  0  0  0  0  0  0  0  0  0
    1.5190   -0.6300   -2.2960 C   0  0  0  0  0  0  0  0  0  0  0  0
    1.6650   -2.3090   -2.8320 Cl  0  0  0  0  0  0  0  0  0  0  0  0
   -3.9950   -2.0850    1.1040 C   0  0  0  0  0  0  0  0  0  0  0  0
   -5.2990   -2.2410    1.5140 C   0  0  0  0  0  0  0  0  0  0  0  0
   -6.0690   -1.1030    1.6500 C   0  0  0  0  0  0  0  0  0  0  0  0
   -7.3390   -1.5420    2.0740 O   0  0  0  0  0  0  0  0  0  0  0  0
   -7.0740   -2.7740    2.7630 C   0  0  0  0  0  0  0  0  0  0  0  0
   -6.1110   -3.3290    1.8540 O   0  0  0  0  0  0  0  0  0  0  0  0
  1  2  1  0
  2  3  2  0
  2 30  1  0
  3  4  1  0
  4  5  1  0
  4 28  2  0
  5  6  1  1
  5  7  1  0
  7  8  1  0
  8  9  1  0
  9 10  2  0
  9 26  1  0
 10 11  1  0
 11 12  1  0
 11 13  2  0
 13 14  1  0
 13 25  1  0
 14 15  1  0
 15 16  1  1
 15 17  1  0
 17 18  2  0
 17 24  1  0
 18 19  1  0
 19 20  2  0
 20 21  1  0
 20 23  1  0
 21 22  3  0
 23 24  2  0
 25 26  2  0
 26 27  1  0
 28 29  1  0
 29 30  2  0
 29 33  1  0
 30 31  1  0
 31 32  1  0
 32 33  1  0
M  END
