
     RDKit          3D

 33 35  0  0  0  0  0  0  0  0999 V2000
    4.5170    1.4480    1.4840 C   0  0  0  0  0  0  0  0  0  0  0  0
    4.7600    0.0090    0.9640 C   0  0  1  0  0  0  0  0  0  0  0  0
    3.8880   -0.1620   -0.1810 N   0  0  0  0  0  0  0  0  0  0  0  0
    2.6210   -0.8310   -0.0780 C   0  0  0  0  0  0  0  0  0  0  0  0
    2.2570   -1.2600    1.0260 O   0  0  0  0  0  0  0  0  0  0  0  0
    1.7880   -0.9940   -1.2730 C   0  0  0  0  0  0  0  0  0  0  0  0
    0.4690   -0.3350   -1.2250 C   0  0  0  0  0  0  0  0  0  0  0  0
    0.3780    1.0580   -1.3540 C   0  0  0  0  0  0  0  0  0  0  0  0
    1.8120    2.0280   -1.5190 Cl  0  0  0  0  0  0  0  0  0  0  0  0
   -0.8350    1.6980   -1.3540 C   0  0  0  0  0  0  0  0  0  0  0  0
   -1.9870    0.9180   -1.2210 C   0  0  0  0  0  0  0  0  0  0  0  0
   -1.9030   -0.4530   -1.0930 C   0  0  0  0  0  0  0  0  0  0  0  0
   -3.0690   -1.2760   -0.9520 N   0  0  0  0  0  0  0  0  0  0  0  0
   -4.4110   -0.7960   -0.8480 C   0  0  0  0  0  0  0  0  0  0  0  0
   -4.7000   -0.4110    0.5760 C   0  0  2  0  0  0  0  0  0  0  0  0
   -3.8420    0.5590    1.0000 F   0  0  0  0  0  0  0  0  0  0  0  0
   -4.4480   -1.5580    1.3320 F   0  0  0  0  0  0  0  0  0  0  0  0
   -6.1120   -0.0200    0.7810 C   0  0  0  0  0  0  0  0  0  0  0  0
   -6.9270   -0.7570    1.6110 C   0  0  0  0  0  0  0  0  0  0  0  0
   -8.2510   -0.4140    1.8350 C   0  0  0  0  0  0  0  0  0  0  0  0
   -8.7720    0.7100    1.2040 C   0  0  0  0  0  0  0  0  0  0  0  0
   -7.9360    1.4200    0.3860 C   0  0  0  0  0  0  0  0  0  0  0  0
   -6.6390    1.0560    0.1840 N   0  0  0  0  0  0  0  0  0  0  0  0
   -5.8960    1.8520   -0.6660 O   0  0  0  0  0  0  0  0  0  0  0  0
   -0.6680   -1.0110   -1.1010 N   0  0  0  0  0  0  0  0  0  0  0  0
   -0.6040   -2.3960   -0.9670 O   0  0  0  0  0  0  0  0  0  0  0  0
    6.1710   -0.1270    0.5360 C   0  0  0  0  0  0  0  0  0  0  0  0
    7.0950   -0.8990    1.1770 C   0  0  0  0  0  0  0  0  0  0  0  0
    8.4200   -0.9910    0.7410 C   0  0  0  0  0  0  0  0  0  0  0  0
    8.8550   -0.2960   -0.3680 C   0  0  0  0  0  0  0  0  0  0  0  0
    7.9300    0.4870   -1.0240 C   0  0  0  0  0  0  0  0  0  0  0  0
    8.4770    1.3810   -2.4350 Cl  0  0  0  0  0  0  0  0  0  0  0  0
    6.6110    0.5830   -0.5960 C   0  0  0  0  0  0  0  0  0  0  0  0
  2  1  1  6
  2  3  1  0
  2 27  1  0
  3  4  1  0
  4  5  2  0
  4  6  1  0
  6  7  1  0
  7  8  2  0
  7 25  1  0
  8  9  1  0
  8 10  1  0
 10 11  2  0
 11 12  1  0
 12 13  1  0
 12 25  2  0
 13 14  1  0
 14 15  1  0
 15 16  1  1
 15 17  1  0
 15 18  1  0
 18 19  2  0
 18 23  1  0
 19 20  1  0
 20 21  2  0
 21 22  1  0
 22 23  2  0
 23 24  1  0
 25 26  1  0
 27 28  2  0
 27 33  1  0
 28 29  1  0
 29 30  2  0
 30 31  1  0
 31 32  1  0
 31 33  2  0
M  CHG  2  23   1  25   1
M  END
