
     RDKit          3D

 33 36  0  0  0  0  0  0  0  0999 V2000
    1.4420   -2.2090   -2.8600 C   0  0  0  0  0  0  0  0  0  0  0  0
    1.2910   -1.7960   -1.3480 C   0  0  1  0  0  0  0  0  0  0  0  0
    2.2540   -0.8150   -1.1960 O   0  0  0  0  0  0  0  0  0  0  0  0
    3.4430   -1.1280   -0.6120 C   0  0  0  0  0  0  0  0  0  0  0  0
    3.5900   -2.3590   -0.2040 O   0  0  0  0  0  0  0  0  0  0  0  0
    4.6100   -0.3210   -0.3570 C   0  0  0  0  0  0  0  0  0  0  0  0
    5.3750   -0.4750    0.7930 C   0  0  0  0  0  0  0  0  0  0  0  0
    6.5250    0.2390    1.0170 C   0  0  0  0  0  0  0  0  0  0  0  0
    6.9380    1.1420    0.0690 C   0  0  0  0  0  0  0  0  0  0  0  0
    6.1830    1.3170   -1.0900 C   0  0  0  0  0  0  0  0  0  0  0  0
    5.0320    0.6030   -1.3160 C   0  0  0  0  0  0  0  0  0  0  0  0
    4.1110    0.8670   -2.7980 Cl  0  0  0  0  0  0  0  0  0  0  0  0
    8.2080    1.7950    0.4700 C   0  0  0  0  0  0  0  0  0  0  0  0
    8.3560    1.4360    1.9100 C   0  0  0  0  0  0  0  0  0  0  0  0
    7.5090    0.2320    2.1640 C   0  0  0  0  0  0  0  0  0  0  0  0
   -0.1000   -1.5700   -1.0640 C   0  0  0  0  0  0  0  0  0  0  0  0
   -0.8850   -2.6100   -1.0700 O   0  0  0  0  0  0  0  0  0  0  0  0
   -0.8010   -0.3630   -0.7640 N   0  0  0  0  0  0  0  0  0  0  0  0
   -2.2040   -0.4200   -0.5100 C   0  0  0  0  0  0  0  0  0  0  0  0
   -2.7410   -1.4200    0.2490 C   0  0  0  0  0  0  0  0  0  0  0  0
   -4.0960   -1.5670    0.4350 C   0  0  0  0  0  0  0  0  0  0  0  0
   -4.9860   -0.6620   -0.1690 C   0  0  0  0  0  0  0  0  0  0  0  0
   -6.4190   -0.8210    0.0080 C   0  0  0  0  0  0  0  0  0  0  0  0
   -6.9350   -1.9090   -0.4020 O   0  0  0  0  0  0  0  0  0  0  0  0
   -7.2370    0.2100    0.6230 C   0  0  0  0  0  0  0  0  0  0  0  0
   -6.8440    1.3730    1.0960 C   0  0  0  0  0  0  0  0  0  0  0  0
   -8.0130    2.1000    1.6280 C   0  0  0  0  0  0  0  0  0  0  0  0
   -9.1290    1.1700    1.3910 C   0  0  0  0  0  0  0  0  0  0  0  0
   -8.7020    0.0710    0.8110 C   0  0  0  0  0  0  0  0  0  0  0  0
   -9.4500   -1.0330    0.4340 O   0  0  0  0  0  0  0  0  0  0  0  0
   -4.4470    0.3400   -0.9300 C   0  0  0  0  0  0  0  0  0  0  0  0
   -5.4930    1.5020   -1.7780 Cl  0  0  0  0  0  0  0  0  0  0  0  0
   -3.0510    0.4580   -1.0970 C   0  0  0  0  0  0  0  0  0  0  0  0
  2  1  1  6
  2  3  1  0
  2 16  1  0
  3  4  1  0
  4  5  2  0
  4  6  1  0
  6  7  2  0
  6 11  1  0
  7  8  1  0
  8  9  2  0
  8 15  1  0
  9 10  1  0
  9 13  1  0
 10 11  2  0
 11 12  1  0
 13 14  1  0
 14 15  1  0
 16 17  2  0
 16 18  1  0
 18 19  1  0
 19 20  2  0
 19 33  1  0
 20 21  1  0
 21 22  2  0
 22 23  1  0
 22 31  1  0
 23 24  2  0
 23 25  1  0
 25 26  2  0
 25 29  1  0
 26 27  1  0
 27 28  1  0
 28 29  2  0
 29 30  1  0
 31 32  1  0
 31 33  2  0
M  END
