
     RDKit          3D

 33 36  0  0  0  0  0  0  0  0999 V2000
    6.8570    4.0040   -1.2070 N   0  0  0  0  0  0  0  0  0  0  0  0
    6.5960    2.6100   -1.0610 C   0  0  0  0  0  0  0  0  0  0  0  0
    7.5900    1.6700   -1.1950 C   0  0  0  0  0  0  0  0  0  0  0  0
    7.3090    0.3300   -1.0480 C   0  0  0  0  0  0  0  0  0  0  0  0
    6.0300   -0.1420   -0.7610 C   0  0  0  0  0  0  0  0  0  0  0  0
    5.7550   -1.8640   -0.5860 Cl  0  0  0  0  0  0  0  0  0  0  0  0
    5.0360    0.8040   -0.6270 C   0  0  0  0  0  0  0  0  0  0  0  0
    3.6870    0.3770   -0.3330 C   0  0  0  0  0  0  0  0  0  0  0  0
    3.0980   -0.6610   -1.0090 C   0  0  0  0  0  0  0  0  0  0  0  0
    1.8080   -1.0190   -0.6770 C   0  0  0  0  0  0  0  0  0  0  0  0
    1.0650   -0.4010    0.2970 C   0  0  0  0  0  0  0  0  0  0  0  0
   -0.2320   -0.7730    0.6200 O   0  0  0  0  0  0  0  0  0  0  0  0
   -0.5290   -1.7210    1.5810 C   0  0  0  0  0  0  0  0  0  0  0  0
    0.4790   -2.3700    2.2970 C   0  0  0  0  0  0  0  0  0  0  0  0
    0.1300   -3.3120    3.2500 C   0  0  0  0  0  0  0  0  0  0  0  0
    1.3970   -4.1300    4.1510 Cl  0  0  0  0  0  0  0  0  0  0  0  0
   -1.1950   -3.6100    3.4950 C   0  0  0  0  0  0  0  0  0  0  0  0
   -2.1800   -2.9560    2.7760 C   0  0  0  0  0  0  0  0  0  0  0  0
   -1.8550   -2.0120    1.8180 C   0  0  0  0  0  0  0  0  0  0  0  0
   -2.8260   -1.3450    1.0870 O   0  0  0  0  0  0  0  0  0  0  0  0
   -4.1830   -1.6580    1.3460 C   0  0  0  0  0  0  0  0  0  0  0  0
   -5.0950   -0.8580    0.4800 C   0  0  0  0  0  0  0  0  0  0  0  0
   -6.3300   -1.0230    0.5920 O   0  0  0  0  0  0  0  0  0  0  0  0
   -4.6380    0.0650   -0.4490 O   0  0  0  0  0  0  0  0  0  0  0  0
   -5.4880    0.8070   -1.2520 C   0  0  0  0  0  0  0  0  0  0  0  0
   -5.8500    0.3230   -2.4400 C   0  0  0  0  0  0  0  0  0  0  0  0
   -6.7540    1.0410   -3.3690 C   0  0  0  0  0  0  0  0  0  0  0  0
   -7.2060    2.2740   -2.9090 O   0  0  0  0  0  0  0  0  0  0  0  0
   -6.8280    2.7720   -1.6770 C   0  0  0  0  0  0  0  0  0  0  0  0
   -6.0210    2.1070   -0.8740 C   0  0  0  0  0  0  0  0  0  0  0  0
    1.6700    0.6510    0.9780 C   0  0  0  0  0  0  0  0  0  0  0  0
    2.9590    1.0200    0.6570 C   0  0  0  0  0  0  0  0  0  0  0  0
    5.3220    2.1630   -0.7770 C   0  0  0  0  0  0  0  0  0  0  0  0
  1  2  1  0
  2  3  2  0
  2 33  1  0
  3  4  1  0
  4  5  2  0
  5  6  1  0
  5  7  1  0
  7  8  1  0
  7 33  2  0
  8  9  2  0
  8 32  1  0
  9 10  1  0
 10 11  2  0
 11 12  1  0
 11 31  1  0
 12 13  1  0
 13 14  2  0
 13 19  1  0
 14 15  1  0
 15 16  1  0
 15 17  2  0
 17 18  1  0
 18 19  2  0
 19 20  1  0
 20 21  1  0
 21 22  1  0
 22 23  2  0
 22 24  1  0
 24 25  1  0
 25 26  2  0
 25 30  1  0
 26 27  1  0
 27 28  1  0
 28 29  1  0
 29 30  2  0
 31 32  2  0
M  END
