
     RDKit          3D

 30 33  0  0  0  0  0  0  0  0999 V2000
    7.2600    0.5150    0.1630 C   0  0  0  0  0  0  0  0  0  0  0  0
    5.8860   -0.0470    0.2900 C   0  0  0  0  0  0  0  0  0  0  0  0
    5.1000    0.3450    1.2570 C   0  0  0  0  0  0  0  0  0  0  0  0
    3.7540   -0.1590    1.4400 C   0  0  0  0  0  0  0  0  0  0  0  0
    3.3460   -1.1590    0.4230 C   0  0  0  0  0  0  0  0  0  0  0  0
    2.0760   -1.7440    0.5160 N   0  0  0  0  0  0  0  0  0  0  0  0
    0.9490   -1.3000    0.3210 C   0  0  0  0  0  0  0  0  0  0  0  0
   -0.2380   -2.1400    0.4970 N   0  0  0  0  0  0  0  0  0  0  0  0
   -1.4880   -1.5300    0.2680 C   0  0  0  0  0  0  0  0  0  0  0  0
   -1.7010   -0.2450   -0.0430 C   0  0  0  0  0  0  0  0  0  0  0  0
   -3.0490    0.2140   -0.3060 C   0  0  0  0  0  0  0  0  0  0  0  0
   -3.3430    1.5440   -0.8400 C   0  0  0  0  0  0  0  0  0  0  0  0
   -4.1080   -0.6350   -0.2260 C   0  0  0  0  0  0  0  0  0  0  0  0
   -5.4660   -0.1930   -0.4830 C   0  0  0  0  0  0  0  0  0  0  0  0
   -6.4930   -1.0140   -0.4100 C   0  0  0  0  0  0  0  0  0  0  0  0
   -7.8850   -0.6380   -0.6560 C   0  0  1  0  0  0  0  0  0  0  0  0
   -8.6570   -1.7550   -0.9040 F   0  0  0  0  0  0  0  0  0  0  0  0
   -8.3800   -0.0580    0.5120 F   0  0  0  0  0  0  0  0  0  0  0  0
   -3.9240   -2.0480    0.1260 C   0  0  0  0  0  0  0  0  0  0  0  0
   -2.6020   -2.4560    0.3930 N   0  0  0  0  0  0  0  0  0  0  0  0
   -0.5600    0.6400    0.3560 C   0  0  2  0  0  0  0  0  0  0  0  0
   -0.5690    2.0410    0.1300 C   0  0  0  0  0  0  0  0  0  0  0  0
   -1.4740    2.9610    0.9220 C   0  0  0  0  0  0  0  0  0  0  0  0
    0.3240    2.6630   -0.6110 N   0  0  0  0  0  0  0  0  0  0  0  0
    1.4180    2.0100   -1.2220 C   0  0  0  0  0  0  0  0  0  0  0  0
    1.5650    0.7150   -0.9850 C   0  0  0  0  0  0  0  0  0  0  0  0
    0.6410    0.0290   -0.0990 N   0  0  0  0  0  0  0  0  0  0  0  0
    4.1650   -1.5080   -0.5130 N   0  0  0  0  0  0  0  0  0  0  0  0
    5.4290   -1.0080   -0.6450 N   0  0  0  0  0  0  0  0  0  0  0  0
    6.3020   -1.4440   -1.7210 C   0  0  0  0  0  0  0  0  0  0  0  0
  1  2  1  0
  2  3  2  0
  2 29  1  0
  3  4  1  0
  4  5  1  0
  5  6  1  0
  5 28  2  0
  6  7  2  3
  7  8  1  0
  7 27  1  0
  8  9  1  0
  9 10  2  0
  9 20  1  0
 10 11  1  0
 10 21  1  0
 11 12  1  0
 11 13  2  0
 13 14  1  0
 13 19  1  0
 14 15  2  3
 15 16  1  0
 16 17  1  1
 16 18  1  0
 19 20  1  0
 21 22  1  6
 21 27  1  0
 22 23  1  0
 22 24  2  0
 24 25  1  0
 25 26  2  0
 26 27  1  0
 28 29  1  0
 29 30  1  0
M  CHG  1  24   1
M  END
