
     RDKit          3D

 29 33  0  0  0  0  0  0  0  0999 V2000
    5.3980   -0.8050   -2.6660 C   0  0  0  0  0  0  0  0  0  0  0  0
    5.4080   -0.2720   -1.2950 C   0  0  0  0  0  0  0  0  0  0  0  0
    6.5220    0.0510   -0.5870 N   0  0  0  0  0  0  0  0  0  0  0  0
    6.1740    0.4940    0.5930 N   0  0  0  0  0  0  0  0  0  0  0  0
    7.0300    0.9440    1.6580 C   0  0  0  0  0  0  0  0  0  0  0  0
    4.8180    0.4720    0.6860 C   0  0  0  0  0  0  0  0  0  0  0  0
    3.9050    0.8120    1.6650 C   0  0  0  0  0  0  0  0  0  0  0  0
    2.5480    0.6780    1.4710 C   0  0  0  0  0  0  0  0  0  0  0  0
    2.1090    0.1960    0.2780 N   0  0  0  0  0  0  0  0  0  0  0  0
    0.8580   -0.0280   -0.1590 C   0  0  0  0  0  0  0  0  0  0  0  0
   -0.4220    0.1970    0.5610 C   0  0  0  0  0  0  0  0  0  0  0  0
   -1.5420   -0.1750   -0.2760 N   0  0  0  0  0  0  0  0  0  0  0  0
   -2.5130   -0.9950    0.4260 C   0  0  2  0  0  0  0  0  0  0  0  0
   -2.6660   -2.2740   -0.3200 C   0  0  0  0  0  0  0  0  0  0  0  0
   -3.6810   -2.2630   -1.4020 C   0  0  0  0  0  0  0  0  0  0  0  0
   -3.9630   -0.9300   -2.0050 C   0  0  0  0  0  0  0  0  0  0  0  0
   -4.0320    0.1310   -1.0040 N   0  0  0  0  0  0  0  0  0  0  0  0
   -4.2710    1.4570   -1.4430 C   0  0  0  0  0  0  0  0  0  0  0  0
   -4.3300    2.4050   -0.5240 C   0  0  0  0  0  0  0  0  0  0  0  0
   -4.1550    2.0820    0.8790 C   0  0  0  0  0  0  0  0  0  0  0  0
   -3.9310    0.8520    1.3120 C   0  0  0  0  0  0  0  0  0  0  0  0
   -3.7600    0.5900    2.7610 C   0  0  2  0  0  0  0  0  0  0  0  0
   -4.7410   -0.3020    3.2010 F   0  0  0  0  0  0  0  0  0  0  0  0
   -3.9000    1.7300    3.5260 F   0  0  0  0  0  0  0  0  0  0  0  0
   -3.8490   -0.2630    0.3710 C   0  0  2  0  0  0  0  0  0  0  0  0
    0.9650   -0.5090   -1.4100 N   0  0  0  0  0  0  0  0  0  0  0  0
    2.2350   -0.5940   -1.7710 N   0  0  0  0  0  0  0  0  0  0  0  0
    2.9450   -0.1540   -0.7160 C   0  0  0  0  0  0  0  0  0  0  0  0
    4.2960   -0.0100   -0.4980 C   0  0  0  0  0  0  0  0  0  0  0  0
  1  2  1  0
  2  3  2  0
  2 29  1  0
  3  4  1  0
  4  5  1  0
  4  6  1  0
  6  7  1  0
  6 29  2  0
  7  8  2  0
  8  9  1  0
  9 10  1  0
  9 28  1  0
 10 11  1  0
 10 26  2  0
 11 12  1  0
 13 12  1  6
 13 14  1  0
 13 25  1  0
 14 15  1  0
 15 16  1  0
 16 17  1  0
 17 18  1  0
 17 25  1  0
 18 19  2  0
 19 20  1  0
 20 21  2  0
 21 22  1  0
 25 21  1  1
 22 23  1  1
 22 24  1  0
 26 27  1  0
 27 28  2  0
 28 29  1  0
M  CHG  1  12   1
M  END
