
     RDKit          3D

 30 33  0  0  0  0  0  0  0  0999 V2000
    6.7620    1.5760    1.1570 C   0  0  0  0  0  0  0  0  0  0  0  0
    5.4810    1.0000    0.7770 N   0  0  0  0  0  0  0  0  0  0  0  0
    4.4760    1.6090    0.0990 C   0  0  0  0  0  0  0  0  0  0  0  0
    3.4080    0.7490   -0.0810 C   0  0  0  0  0  0  0  0  0  0  0  0
    2.1300    0.9950   -0.7670 C   0  0  0  0  0  0  0  0  0  0  0  0
    1.0900    0.1120   -0.9150 C   0  0  0  0  0  0  0  0  0  0  0  0
    0.9780   -1.2750   -0.4410 C   0  0  0  0  0  0  0  0  0  0  0  0
   -0.2530   -1.9400   -0.7410 N   0  0  0  0  0  0  0  0  0  0  0  0
    0.0180   -3.3390   -0.3660 C   0  0  0  0  0  0  0  0  0  0  0  0
   -1.1540   -4.1580   -0.0200 C   0  0  0  0  0  0  0  0  0  0  0  0
   -1.9420   -3.6290    1.1690 C   0  0  0  0  0  0  0  0  0  0  0  0
   -1.6590   -2.1150    1.3060 C   0  0  0  0  0  0  0  0  0  0  0  0
   -1.4490   -1.5760   -0.0730 C   0  0  1  0  0  0  0  0  0  0  0  0
   -2.2530   -0.4600   -0.5090 C   0  0  0  0  0  0  0  0  0  0  0  0
   -2.8830   -0.4890   -1.7120 C   0  0  0  0  0  0  0  0  0  0  0  0
   -3.7630    0.5590   -2.3540 C   0  0  0  0  0  0  0  0  0  0  0  0
   -4.8290    0.9200   -1.4430 N   0  0  0  0  0  0  0  0  0  0  0  0
   -4.4560    1.8300   -0.4320 C   0  0  0  0  0  0  0  0  0  0  0  0
   -3.3830    1.7430    0.3710 C   0  0  0  0  0  0  0  0  0  0  0  0
   -2.3480    0.6770    0.3820 C   0  0  0  0  0  0  0  0  0  0  0  0
   -1.4060    0.7450    1.2800 C   0  0  0  0  0  0  0  0  0  0  0  0
   -1.4190    1.8830    2.2460 C   0  0  2  0  0  0  0  0  0  0  0  0
   -0.2940    1.9200    3.0550 F   0  0  0  0  0  0  0  0  0  0  0  0
   -2.5150    1.7920    3.0750 F   0  0  0  0  0  0  0  0  0  0  0  0
    0.1310    0.7860   -1.6370 N   0  0  0  0  0  0  0  0  0  0  0  0
    0.5680    1.9770   -1.8960 N   0  0  0  0  0  0  0  0  0  0  0  0
    1.7970    2.1510   -1.3790 N   0  0  0  0  0  0  0  0  0  0  0  0
    2.5830    3.3640   -1.4800 C   0  0  0  0  0  0  0  0  0  0  0  0
    3.8310   -0.4110    0.5290 C   0  0  0  0  0  0  0  0  0  0  0  0
    5.0880   -0.2080    1.0310 N   0  0  0  0  0  0  0  0  0  0  0  0
  1  2  1  0
  2  3  1  0
  2 30  1  0
  3  4  2  0
  4  5  1  0
  4 29  1  0
  5  6  2  0
  5 27  1  0
  6  7  1  0
  6 25  1  0
  7  8  1  0
  8  9  1  0
  8 13  1  0
  9 10  1  0
 10 11  1  0
 11 12  1  0
 12 13  1  0
 13 14  1  1
 14 15  2  0
 14 20  1  0
 15 16  1  0
 16 17  1  0
 17 18  1  0
 18 19  2  0
 19 20  1  0
 20 21  2  3
 21 22  1  0
 22 23  1  1
 22 24  1  0
 25 26  2  0
 26 27  1  0
 27 28  1  0
 29 30  2  0
M  CHG  1  17   1
M  END
