
     RDKit          3D

 30 34  0  0  0  0  0  0  0  0999 V2000
    5.4220    3.2220   -0.2370 C   0  0  0  0  0  0  0  0  0  0  0  0
    4.5920    2.0640   -0.8550 C   0  0  1  0  0  0  0  0  0  0  0  0
    4.3790    2.3810   -2.1620 F   0  0  0  0  0  0  0  0  0  0  0  0
    5.4060    0.8420   -0.7830 C   0  0  0  0  0  0  0  0  0  0  0  0
    5.0920   -0.3780   -0.5470 C   0  0  0  0  0  0  0  0  0  0  0  0
    6.1430   -1.4930   -0.5170 C   0  0  0  0  0  0  0  0  0  0  0  0
    6.2840   -1.9130    0.9400 C   0  0  0  0  0  0  0  0  0  0  0  0
    4.9590   -2.0740    1.6320 C   0  0  0  0  0  0  0  0  0  0  0  0
    3.7900   -1.6470    0.9120 C   0  0  0  0  0  0  0  0  0  0  0  0
    2.5590   -2.0570    1.2850 F   0  0  0  0  0  0  0  0  0  0  0  0
    3.8010   -0.8050   -0.1910 C   0  0  0  0  0  0  0  0  0  0  0  0
    2.5040   -0.5720   -0.7830 C   0  0  0  0  0  0  0  0  0  0  0  0
    2.0790   -1.2730   -1.8690 N   0  0  0  0  0  0  0  0  0  0  0  0
    0.7490   -1.1430   -1.9850 N   0  0  0  0  0  0  0  0  0  0  0  0
    0.3390   -0.3740   -0.9930 C   0  0  0  0  0  0  0  0  0  0  0  0
    1.4280   -0.0060   -0.2640 N   0  0  0  0  0  0  0  0  0  0  0  0
    1.0520    1.0150    0.7130 C   0  0  0  0  0  0  0  0  0  0  0  0
   -0.4030    1.3260    0.3190 C   0  0  0  0  0  0  0  0  0  0  0  0
   -0.8180   -0.0200   -0.2460 N   0  0  0  0  0  0  0  0  0  0  0  0
   -2.0160   -0.5730    0.1680 C   0  0  0  0  0  0  0  0  0  0  0  0
   -3.2650   -0.6180   -0.5660 C   0  0  0  0  0  0  0  0  0  0  0  0
   -3.8190   -1.4180   -1.4860 N   0  0  0  0  0  0  0  0  0  0  0  0
   -5.1400   -1.2160   -1.5670 N   0  0  0  0  0  0  0  0  0  0  0  0
   -6.0560   -1.9730   -2.4030 C   0  0  0  0  0  0  0  0  0  0  0  0
   -5.5250   -0.2790   -0.7220 C   0  0  0  0  0  0  0  0  0  0  0  0
   -4.3820    0.1130   -0.0930 C   0  0  0  0  0  0  0  0  0  0  0  0
   -4.4430    1.2720    0.8490 C   0  0  0  0  0  0  0  0  0  0  0  0
   -5.5250    0.9750    1.8270 C   0  0  0  0  0  0  0  0  0  0  0  0
   -6.6550    0.3270    1.2350 N   0  0  0  0  0  0  0  0  0  0  0  0
   -6.7420    0.4550   -0.2220 C   0  0  0  0  0  0  0  0  0  0  0  0
  2  1  1  6
  2  3  1  0
  2  4  1  0
  4  5  2  3
  5  6  1  0
  5 11  1  0
  6  7  1  0
  7  8  1  0
  8  9  1  0
  9 10  1  0
  9 11  2  0
 11 12  1  0
 12 13  2  0
 12 16  1  0
 13 14  1  0
 14 15  2  0
 15 16  1  0
 15 19  1  0
 16 17  1  0
 17 18  1  0
 18 19  1  0
 19 20  1  0
 20 21  1  0
 21 22  2  0
 21 26  1  0
 22 23  1  0
 23 24  1  0
 23 25  1  0
 25 26  2  0
 25 30  1  0
 26 27  1  0
 27 28  1  0
 28 29  1  0
 29 30  1  0
M  CHG  1  29   1
M  END
