
     RDKit          3D

 30 33  0  0  0  0  0  0  0  0999 V2000
    7.9930    1.7850    1.3200 C   0  0  0  0  0  0  0  0  0  0  0  0
    6.9340    1.4960    0.3110 C   0  0  0  0  0  0  0  0  0  0  0  0
    6.8910    2.1900   -0.8540 C   0  0  0  0  0  0  0  0  0  0  0  0
    5.9880    1.8600   -1.8130 N   0  0  0  0  0  0  0  0  0  0  0  0
    5.1380    0.8290   -1.5730 C   0  0  0  0  0  0  0  0  0  0  0  0
    4.2010    0.2370   -2.3850 C   0  0  0  0  0  0  0  0  0  0  0  0
    3.7120   -0.8040   -1.6620 C   0  0  0  0  0  0  0  0  0  0  0  0
    4.2740   -0.9040   -0.4390 N   0  0  0  0  0  0  0  0  0  0  0  0
    3.9490   -1.8540    0.5860 C   0  0  0  0  0  0  0  0  0  0  0  0
    2.7900   -1.4940    1.4340 C   0  0  0  0  0  0  0  0  0  0  0  0
    1.4190   -1.3990    1.0000 C   0  0  0  0  0  0  0  0  0  0  0  0
    0.9270   -0.4510    0.0180 N   0  0  0  0  0  0  0  0  0  0  0  0
    0.9550    0.9680    0.3890 C   0  0  0  0  0  0  0  0  0  0  0  0
    0.3760   -0.8900   -1.2100 C   0  0  0  0  0  0  0  0  0  0  0  0
   -0.8810   -1.1520   -1.4390 C   0  0  0  0  0  0  0  0  0  0  0  0
   -1.8970   -1.0090   -0.4600 C   0  0  0  0  0  0  0  0  0  0  0  0
   -1.6290   -0.6030    0.7170 O   0  0  0  0  0  0  0  0  0  0  0  0
   -3.3140   -1.2650   -0.7030 N   0  0  0  0  0  0  0  0  0  0  0  0
   -4.1960   -0.8950    0.4060 C   0  0  0  0  0  0  0  0  0  0  0  0
   -5.6020   -0.8620    0.0750 C   0  0  0  0  0  0  0  0  0  0  0  0
   -6.4840   -1.8560   -0.2150 C   0  0  0  0  0  0  0  0  0  0  0  0
   -7.7180   -1.3160   -0.2060 N   0  0  0  0  0  0  0  0  0  0  0  0
   -7.6690    0.0170    0.0760 C   0  0  0  0  0  0  0  0  0  0  0  0
   -8.6300    1.0380    0.0880 C   0  0  0  0  0  0  0  0  0  0  0  0
   -8.1870    2.3050    0.2800 N   0  0  0  0  0  0  0  0  0  0  0  0
   -6.8980    2.6310    0.4600 C   0  0  0  0  0  0  0  0  0  0  0  0
   -5.9360    1.6230    0.4540 C   0  0  0  0  0  0  0  0  0  0  0  0
   -6.3700    0.3130    0.2520 C   0  0  0  0  0  0  0  0  0  0  0  0
    5.1690    0.1260   -0.4010 C   0  0  0  0  0  0  0  0  0  0  0  0
    6.0900    0.4520    0.5930 C   0  0  0  0  0  0  0  0  0  0  0  0
  1  2  1  0
  2  3  2  0
  2 30  1  0
  3  4  1  0
  4  5  2  0
  5  6  1  0
  5 29  1  0
  6  7  2  0
  7  8  1  0
  8  9  1  0
  8 29  1  0
  9 10  1  0
 10 11  1  0
 11 12  1  0
 12 13  1  0
 12 14  1  0
 14 15  2  3
 15 16  1  0
 16 17  2  0
 16 18  1  0
 18 19  1  0
 19 20  1  0
 20 21  2  0
 20 28  1  0
 21 22  1  0
 22 23  1  0
 23 24  2  0
 23 28  1  0
 24 25  1  0
 25 26  2  0
 26 27  1  0
 27 28  2  0
 29 30  2  0
M  CHG  1  25   1
M  END
