
     RDKit          3D

 29 33  0  0  0  0  0  0  0  0999 V2000
    3.5800   -1.1140   -0.5760 C   0  0  0  0  0  0  0  0  0  0  0  0
    2.7740    0.0310   -0.0890 C   0  0  0  0  0  0  0  0  0  0  0  0
    1.4230    0.1230    0.1450 C   0  0  0  0  0  0  0  0  0  0  0  0
    0.4410   -0.9640   -0.0240 C   0  0  0  0  0  0  0  0  0  0  0  0
    0.6920   -2.2410   -0.3550 N   0  0  0  0  0  0  0  0  0  0  0  0
   -0.4420   -2.9520   -0.4310 N   0  0  0  0  0  0  0  0  0  0  0  0
   -0.5450   -4.3750   -0.7680 C   0  0  0  0  0  0  0  0  0  0  0  0
   -1.4670   -2.1490   -0.1490 C   0  0  0  0  0  0  0  0  0  0  0  0
   -0.9280   -0.8860    0.1110 C   0  0  0  0  0  0  0  0  0  0  0  0
   -1.8160    0.2600    0.4520 C   0  0  0  0  0  0  0  0  0  0  0  0
   -3.2810   -0.1070    0.3640 C   0  0  2  0  0  0  0  0  0  0  0  0
   -4.1310    0.8930    1.0280 C   0  0  0  0  0  0  0  0  0  0  0  0
   -4.1300    1.2480    2.3570 C   0  0  0  0  0  0  0  0  0  0  0  0
   -5.0680    2.2060    2.5450 N   0  0  0  0  0  0  0  0  0  0  0  0
   -5.6430    2.4430    1.3520 C   0  0  0  0  0  0  0  0  0  0  0  0
   -5.0710    1.6440    0.4370 N   0  0  0  0  0  0  0  0  0  0  0  0
   -5.4110    1.5970   -0.9700 C   0  0  0  0  0  0  0  0  0  0  0  0
   -3.4530   -1.4740    0.9890 C   0  0  0  0  0  0  0  0  0  0  0  0
   -2.9130   -2.4290   -0.0870 C   0  0  0  0  0  0  0  0  0  0  0  0
    1.1720    1.3990    0.5820 C   0  0  0  0  0  0  0  0  0  0  0  0
    2.3580    2.0400    0.6020 N   0  0  0  0  0  0  0  0  0  0  0  0
    3.3160    1.2290    0.2030 N   0  0  0  0  0  0  0  0  0  0  0  0
    4.7120    1.5640    0.0950 C   0  0  0  0  0  0  0  0  0  0  0  0
    5.1270    2.4210   -0.8940 C   0  0  0  0  0  0  0  0  0  0  0  0
    6.4800    2.7660   -1.0250 C   0  0  0  0  0  0  0  0  0  0  0  0
    7.4010    2.2370   -0.1480 C   0  0  0  0  0  0  0  0  0  0  0  0
    8.7310    2.5380   -0.2280 F   0  0  0  0  0  0  0  0  0  0  0  0
    6.9420    1.3800    0.8300 C   0  0  0  0  0  0  0  0  0  0  0  0
    5.6160    1.0580    0.9390 N   0  0  0  0  0  0  0  0  0  0  0  0
  1  2  1  0
  2  3  2  0
  2 22  1  0
  3  4  1  0
  3 20  1  0
  4  5  2  0
  4  9  1  0
  5  6  1  0
  6  7  1  0
  6  8  1  0
  8  9  2  0
  8 19  1  0
  9 10  1  0
 10 11  1  0
 11 12  1  1
 11 18  1  0
 12 13  2  0
 12 16  1  0
 13 14  1  0
 14 15  2  0
 15 16  1  0
 16 17  1  0
 18 19  1  0
 20 21  2  0
 21 22  1  0
 22 23  1  0
 23 24  2  0
 23 29  1  0
 24 25  1  0
 25 26  2  0
 26 27  1  0
 26 28  1  0
 28 29  2  0
M  CHG  1   5   1
M  END
