
     RDKit          3D

 30 34  0  0  0  0  0  0  0  0999 V2000
   -5.6740   -1.4500   -0.2410 C   0  0  0  0  0  0  0  0  0  0  0  0
   -5.2450   -0.0540   -0.1490 N   0  0  0  0  0  0  0  0  0  0  0  0
   -3.9610    0.1210    0.3240 C   0  0  0  0  0  0  0  0  0  0  0  0
   -2.8600   -0.2840   -0.4170 N   0  0  0  0  0  0  0  0  0  0  0  0
   -1.6040   -0.1600   -0.0250 C   0  0  0  0  0  0  0  0  0  0  0  0
   -0.4400   -0.5070   -0.6440 N   0  0  0  0  0  0  0  0  0  0  0  0
    0.5680   -0.1720    0.1660 C   0  0  0  0  0  0  0  0  0  0  0  0
    2.0340   -0.3500   -0.0940 C   0  0  0  0  0  0  0  0  0  0  0  0
    2.3450   -0.6730   -1.4230 N   0  0  0  0  0  0  0  0  0  0  0  0
    1.9030   -1.9210   -1.9350 C   0  0  0  0  0  0  0  0  0  0  0  0
    2.7930   -3.0260   -1.3980 C   0  0  0  0  0  0  0  0  0  0  0  0
    4.1690   -2.5860   -1.0290 C   0  0  0  0  0  0  0  0  0  0  0  0
    4.6090   -1.4290   -1.9020 C   0  0  0  0  0  0  0  0  0  0  0  0
    3.6620   -0.2900   -1.8680 C   0  0  2  0  0  0  0  0  0  0  0  0
    4.0950    0.8990   -1.0970 C   0  0  0  0  0  0  0  0  0  0  0  0
    5.0930    1.0330   -0.2760 C   0  0  0  0  0  0  0  0  0  0  0  0
    6.0250    0.1020    0.1040 F   0  0  0  0  0  0  0  0  0  0  0  0
    5.1140    2.3970    0.2590 C   0  0  0  0  0  0  0  0  0  0  0  0
    3.9740    3.0660   -0.3580 C   0  0  0  0  0  0  0  0  0  0  0  0
    3.3860    2.2030   -1.1410 C   0  0  0  0  0  0  0  0  0  0  0  0
    2.2800    2.4230   -1.9060 F   0  0  0  0  0  0  0  0  0  0  0  0
   -0.0040    0.3730    1.2630 N   0  0  0  0  0  0  0  0  0  0  0  0
   -1.3230    0.3790    1.1430 N   0  0  0  0  0  0  0  0  0  0  0  0
   -2.3140    0.8070    1.9450 C   0  0  0  0  0  0  0  0  0  0  0  0
   -2.0120    1.3620    3.1410 N   0  0  0  0  0  0  0  0  0  0  0  0
   -2.9640    1.8040    3.9720 C   0  0  0  0  0  0  0  0  0  0  0  0
   -4.2770    1.6880    3.5910 C   0  0  0  0  0  0  0  0  0  0  0  0
   -4.6710    1.1220    2.3590 C   0  0  0  0  0  0  0  0  0  0  0  0
   -6.0720    1.0190    1.9880 C   0  0  0  0  0  0  0  0  0  0  0  0
   -3.6580    0.6810    1.5380 C   0  0  0  0  0  0  0  0  0  0  0  0
  1  2  1  0
  2  3  1  0
  3  4  2  0
  3 30  1  0
  4  5  1  0
  5  6  2  0
  5 23  1  0
  6  7  1  0
  7  8  1  0
  7 22  2  0
  8  9  1  0
  9 10  1  0
  9 14  1  0
 10 11  1  0
 11 12  1  0
 12 13  1  0
 13 14  1  0
 14 15  1  1
 15 16  2  0
 15 20  1  0
 16 17  1  0
 16 18  1  0
 18 19  1  0
 19 20  2  0
 20 21  1  0
 22 23  1  0
 23 24  1  0
 24 25  2  0
 24 30  1  0
 25 26  1  0
 26 27  2  0
 27 28  1  0
 28 29  1  0
 28 30  2  0
M  CHG  1   2   1
M  END
