
     RDKit          3D

 29 30  0  0  0  0  0  0  0  0999 V2000
    1.2860    1.6730   -2.7340 C   0  0  0  0  0  0  0  0  0  0  0  0
    0.8530    1.0720   -1.5070 C   0  0  2  0  0  0  0  0  0  0  0  0
    0.9960    2.0960   -0.4690 O   0  0  0  0  0  0  0  0  0  0  0  0
    1.6820   -0.0350   -0.8710 C   0  0  0  0  0  0  0  0  0  0  0  0
    3.3140    0.5870   -0.4240 S   0  0  1  0  0  0  0  0  0  0  0  0
    4.0590    0.7590   -1.7580 O   0  0  0  0  0  0  0  0  0  0  0  0
    3.2040    1.8690    0.2940 O   0  0  0  0  0  0  0  0  0  0  0  0
    4.1610   -0.6560    0.4340 C   0  0  0  0  0  0  0  0  0  0  0  0
    4.9230   -1.5580   -0.2890 C   0  0  0  0  0  0  0  0  0  0  0  0
    5.5970   -2.5590    0.3550 C   0  0  0  0  0  0  0  0  0  0  0  0
    5.5360   -2.6970    1.7160 C   0  0  0  0  0  0  0  0  0  0  0  0
    6.2380   -3.7010    2.2710 F   0  0  0  0  0  0  0  0  0  0  0  0
    4.7670   -1.7990    2.5020 C   0  0  0  0  0  0  0  0  0  0  0  0
    4.1160   -0.8100    1.7630 C   0  0  0  0  0  0  0  0  0  0  0  0
   -0.5840    0.6270   -1.4520 C   0  0  0  0  0  0  0  0  0  0  0  0
   -1.0700   -0.2240   -2.2220 O   0  0  0  0  0  0  0  0  0  0  0  0
   -1.4500    1.1860   -0.4850 N   0  0  0  0  0  0  0  0  0  0  0  0
   -2.7790    0.9170   -0.1660 C   0  0  0  0  0  0  0  0  0  0  0  0
   -3.1190    1.2640    1.2250 C   0  0  0  0  0  0  0  0  0  0  0  0
   -4.3400    0.9470    1.6890 C   0  0  0  0  0  0  0  0  0  0  0  0
   -5.3480    0.3070    0.9650 C   0  0  0  0  0  0  0  0  0  0  0  0
   -6.5620    0.0420    1.6760 C   0  0  0  0  0  0  0  0  0  0  0  0
   -7.5320   -0.1780    2.2400 N   0  0  0  0  0  0  0  0  0  0  0  0
   -5.0380   -0.0110   -0.3300 C   0  0  0  0  0  0  0  0  0  0  0  0
   -6.0340   -0.7830   -1.0930 C   0  0  2  0  0  0  0  0  0  0  0  0
   -6.1380   -2.0610   -0.5830 F   0  0  0  0  0  0  0  0  0  0  0  0
   -5.7060   -0.7510   -2.4020 F   0  0  0  0  0  0  0  0  0  0  0  0
   -7.3170   -0.2050   -0.9380 F   0  0  0  0  0  0  0  0  0  0  0  0
   -3.7640    0.3160   -0.8260 C   0  0  0  0  0  0  0  0  0  0  0  0
  2  1  1  6
  2  3  1  0
  2  4  1  0
  2 15  1  0
  5  4  1  6
  5  6  2  0
  5  7  2  0
  5  8  1  0
  8  9  2  0
  8 14  1  0
  9 10  1  0
 10 11  2  0
 11 12  1  0
 11 13  1  0
 13 14  2  0
 15 16  2  0
 15 17  1  0
 17 18  1  0
 18 19  2  0
 18 29  1  0
 19 20  1  0
 20 21  2  0
 21 22  1  0
 21 24  1  0
 22 23  3  0
 24 25  1  0
 24 29  2  0
 25 26  1  1
 25 27  1  0
 25 28  1  0
M  END
