
     RDKit          3D

 18 20  0  0  0  0  0  0  0  0999 V2000
   -3.0970    2.4280   -2.6450 C   0  0  0  0  0  0  0  0  0  0  0  0
   -2.1030    1.7620   -2.1310 C   0  0  0  0  0  0  0  0  0  0  0  0
   -2.0030    0.2700   -2.1730 C   0  0  0  0  0  0  0  0  0  0  0  0
   -1.7050   -0.1720   -0.8230 N   0  0  0  0  0  0  0  0  0  0  0  0
   -2.4830   -1.1990   -0.1570 C   0  0  0  0  0  0  0  0  0  0  0  0
   -2.1680   -1.1940    1.2890 C   0  0  0  0  0  0  0  0  0  0  0  0
   -0.7160   -1.2540    1.6330 C   0  0  0  0  0  0  0  0  0  0  0  0
    0.1560   -0.3120    0.8780 C   0  0  1  0  0  0  0  0  0  0  0  0
    1.3140   -1.0360    0.2670 C   0  0  1  0  0  0  0  0  0  0  0  0
    2.2140   -0.1300   -0.5430 C   0  0  0  0  0  0  0  0  0  0  0  0
    3.0040    0.7750    0.3490 C   0  0  0  0  0  0  0  0  0  0  0  0
    3.3990    0.4010    1.5610 C   0  0  0  0  0  0  0  0  0  0  0  0
    3.0720   -0.9390    2.0850 C   0  0  0  0  0  0  0  0  0  0  0  0
    2.1750   -1.7610    1.2400 C   0  0  0  0  0  0  0  0  0  0  0  0
   -0.6130    0.4390   -0.1640 C   0  0  0  0  0  0  0  0  0  0  0  0
   -0.3000    1.6420   -0.4800 N   0  0  0  0  0  0  0  0  0  0  0  0
   -0.9660    2.4260   -1.4520 C   0  0  0  0  0  0  0  0  0  0  0  0
   -0.6620    3.6360   -1.7710 N   0  0  0  0  0  0  0  0  0  0  0  0
  1  2  2  0
  2  3  1  0
  2 17  1  0
  3  4  1  0
  4  5  1  0
  4 15  1  0
  5  6  1  0
  6  7  1  0
  8  7  1  6
  8  9  1  0
  8 15  1  0
  9 10  1  1
  9 14  1  0
 10 11  1  0
 11 12  2  0
 12 13  1  0
 13 14  1  0
 15 16  2  0
 16 17  1  0
 17 18  2  0
M  END
