
     RDKit          3D

 18 20  0  0  0  0  0  0  0  0999 V2000
   -2.8810    2.3070    0.9540 C   0  0  0  0  0  0  0  0  0  0  0  0
   -2.6960    1.3420   -0.1990 C   0  0  0  0  0  0  0  0  0  0  0  0
   -1.5170    0.5520   -0.0880 N   0  0  0  0  0  0  0  0  0  0  0  0
   -1.4350   -0.8370    0.1450 C   0  0  0  0  0  0  0  0  0  0  0  0
   -2.4810   -1.8100   -0.0430 N   0  0  0  0  0  0  0  0  0  0  0  0
   -3.7010   -1.7580    0.7300 C   0  0  0  0  0  0  0  0  0  0  0  0
   -2.3130   -2.8550   -1.0110 C   0  0  0  0  0  0  0  0  0  0  0  0
   -0.2730   -1.1710    0.5650 N   0  0  0  0  0  0  0  0  0  0  0  0
    0.5490   -0.0010    0.6540 C   0  0  1  0  0  0  0  0  0  0  0  0
    1.9560   -0.2210    0.3460 C   0  0  0  0  0  0  0  0  0  0  0  0
    2.8600    0.0180    1.2630 C   0  0  0  0  0  0  0  0  0  0  0  0
    4.2950   -0.1550    1.0970 C   0  0  0  0  0  0  0  0  0  0  0  0
    4.7250   -0.6180   -0.2350 C   0  0  0  0  0  0  0  0  0  0  0  0
    3.6710   -0.8740   -1.2240 C   0  0  0  0  0  0  0  0  0  0  0  0
    2.3710   -0.6900   -0.9590 C   0  0  0  0  0  0  0  0  0  0  0  0
   -0.1480    1.0120   -0.1870 C   0  0  1  0  0  0  0  0  0  0  0  0
    0.3460    1.5270   -1.4500 C   0  0  0  0  0  0  0  0  0  0  0  0
    0.2350    2.4230   -0.1970 C   0  0  0  0  0  0  0  0  0  0  0  0
  1  2  1  0
  2  3  1  0
  3  4  1  0
  3 16  1  0
  4  5  1  0
  4  8  2  0
  5  6  1  0
  5  7  1  0
  8  9  1  0
  9 10  1  6
  9 16  1  0
 10 11  2  0
 10 15  1  0
 11 12  1  0
 12 13  1  0
 13 14  1  0
 14 15  2  0
 16 17  1  6
 16 18  1  0
 17 18  1  0
M  END
