
     RDKit          3D

 18 20  0  0  0  0  0  0  0  0999 V2000
   -3.4220   -0.9930    0.1750 C   0  0  0  0  0  0  0  0  0  0  0  0
   -1.8710   -0.9410   -0.0400 C   0  0  1  0  0  0  0  0  0  0  0  0
   -1.3890   -1.7890    1.1280 C   0  0  0  0  0  0  0  0  0  0  0  0
   -1.6900   -1.5950   -1.3610 C   0  0  0  0  0  0  0  0  0  0  0  0
   -1.4980    0.4840    0.0640 C   0  0  0  0  0  0  0  0  0  0  0  0
   -2.3630    1.4050    0.6160 N   0  0  0  0  0  0  0  0  0  0  0  0
   -1.8610    2.5980    0.5930 N   0  0  0  0  0  0  0  0  0  0  0  0
   -0.6500    2.4840    0.0220 C   0  0  0  0  0  0  0  0  0  0  0  0
   -0.4400    1.2140   -0.2910 N   0  0  0  0  0  0  0  0  0  0  0  0
    0.7950    0.8120   -0.9170 C   0  0  2  0  0  0  0  0  0  0  0  0
    1.4200   -0.4180   -0.3090 C   0  0  0  0  0  0  0  0  0  0  0  0
    1.5830   -1.5660   -0.9350 C   0  0  0  0  0  0  0  0  0  0  0  0
    2.2240   -2.5280   -0.0350 C   0  0  0  0  0  0  0  0  0  0  0  0
    2.4360   -1.7840    1.2140 C   0  0  0  0  0  0  0  0  0  0  0  0
    1.9620   -0.5700    1.0350 C   0  0  0  0  0  0  0  0  0  0  0  0
    1.8990    1.8010   -0.8720 C   0  0  0  0  0  0  0  0  0  0  0  0
    1.6780    3.0170   -0.0210 C   0  0  0  0  0  0  0  0  0  0  0  0
    0.3310    3.6140   -0.2630 C   0  0  0  0  0  0  0  0  0  0  0  0
  2  1  1  1
  2  3  1  0
  2  4  1  0
  2  5  1  0
  5  6  2  0
  5  9  1  0
  6  7  1  0
  7  8  2  0
  8  9  1  0
  8 18  1  0
  9 10  1  0
 10 11  1  1
 10 16  1  0
 11 12  2  0
 11 15  1  0
 12 13  1  0
 13 14  1  0
 14 15  2  0
 16 17  1  0
 17 18  1  0
M  END
