
     RDKit          3D

 17 17  0  0  0  0  0  0  0  0999 V2000
    4.5500    1.6940   -1.4640 O   0  0  0  0  0  0  0  0  0  0  0  0
    4.9950    0.8310   -0.6790 C   0  0  0  0  0  0  0  0  0  0  0  0
    6.3640    0.7820   -0.4890 O   0  0  0  0  0  0  0  0  0  0  0  0
    4.0820   -0.1080    0.0220 C   0  0  0  0  0  0  0  0  0  0  0  0
    2.6860    0.1900   -0.3830 C   0  0  0  0  0  0  0  0  0  0  0  0
    2.4420    1.1120   -1.1960 O   0  0  0  0  0  0  0  0  0  0  0  0
    1.6350   -0.5770    0.1570 N   0  0  0  0  0  0  0  0  0  0  0  0
    0.2150   -0.3550   -0.1870 C   0  0  1  0  0  0  0  0  0  0  0  0
   -0.2270   -1.6030   -0.8690 C   0  0  0  0  0  0  0  0  0  0  0  0
   -1.9260   -1.6060   -1.4390 S   0  0  0  0  0  0  0  0  0  0  0  0
   -0.5410    0.0590    1.0180 C   0  0  0  0  0  0  0  0  0  0  0  0
   -1.9780    0.3080    0.8110 C   0  0  0  0  0  0  0  0  0  0  0  0
   -2.3720    1.5540    0.3500 C   0  0  0  0  0  0  0  0  0  0  0  0
   -3.7120    1.7910    0.1900 C   0  0  0  0  0  0  0  0  0  0  0  0
   -4.6840    0.8470    0.4650 C   0  0  0  0  0  0  0  0  0  0  0  0
   -4.2610   -0.3760    0.9200 C   0  0  0  0  0  0  0  0  0  0  0  0
   -2.9280   -0.6380    1.0890 C   0  0  0  0  0  0  0  0  0  0  0  0
  1  2  2  0
  2  3  1  0
  2  4  1  0
  4  5  1  0
  5  6  2  0
  5  7  1  0
  7  8  1  0
  8  9  1  1
  8 11  1  0
  9 10  1  0
 11 12  1  0
 12 13  2  0
 12 17  1  0
 13 14  1  0
 14 15  2  0
 15 16  1  0
 16 17  2  0
M  END
