
     RDKit          3D

 23 25  0  0  0  0  0  0  0  0999 V2000
   -3.5720    3.1030   -0.1770 C   0  0  0  0  0  0  0  0  0  0  0  0
   -3.7070    1.6190   -0.5450 C   0  0  2  0  0  0  0  0  0  0  0  0
   -4.9500    1.1220    0.1430 C   0  0  0  0  0  0  0  0  0  0  0  0
   -5.1630   -0.3510    0.0170 C   0  0  0  0  0  0  0  0  0  0  0  0
   -3.8530   -1.1070    0.0300 C   0  0  1  0  0  0  0  0  0  0  0  0
   -3.4370   -1.5330   -1.3500 C   0  0  0  0  0  0  0  0  0  0  0  0
   -4.4660   -2.3440   -1.8560 O   0  0  0  0  0  0  0  0  0  0  0  0
   -2.8760   -0.2600    0.6720 N   0  0  1  0  0  0  0  0  0  0  0  0
   -1.8120   -1.0640    1.1690 C   0  0  0  0  0  0  0  0  0  0  0  0
   -0.4500   -0.4170    1.0500 C   0  0  0  0  0  0  0  0  0  0  0  0
    0.7540   -1.5950    1.7320 S   0  0  0  0  0  0  0  0  0  0  0  0
    2.3650   -0.8890    1.6180 C   0  0  0  0  0  0  0  0  0  0  0  0
    2.8700   -0.1400    2.6010 N   0  0  0  0  0  0  0  0  0  0  0  0
    4.0940    0.4180    2.5560 C   0  0  0  0  0  0  0  0  0  0  0  0
    4.8500    0.2090    1.4620 N   0  0  0  0  0  0  0  0  0  0  0  0
    4.4140   -0.5330    0.4300 C   0  0  0  0  0  0  0  0  0  0  0  0
    5.2140   -0.7470   -0.7140 N   0  0  0  0  0  0  0  0  0  0  0  0
    6.5300   -0.1460   -0.7600 C   0  0  2  0  0  0  0  0  0  0  0  0
    6.5130    1.3690   -0.6610 C   0  0  0  0  0  0  0  0  0  0  0  0
    6.9700    0.6740   -1.9000 C   0  0  0  0  0  0  0  0  0  0  0  0
    3.1590   -1.0980    0.4900 C   0  0  0  0  0  0  0  0  0  0  0  0
    2.7210   -1.8730   -0.6030 N   0  0  0  0  0  0  0  0  0  0  0  0
   -2.4690    0.8480   -0.1420 C   0  0  0  0  0  0  0  0  0  0  0  0
  2  1  1  1
  2  3  1  0
  2 23  1  0
  3  4  1  0
  4  5  1  0
  5  6  1  6
  5  8  1  0
  6  7  1  0
  8  9  1  6
  8 23  1  0
  9 10  1  0
 10 11  1  0
 11 12  1  0
 12 13  2  0
 12 21  1  0
 13 14  1  0
 14 15  2  0
 15 16  1  0
 16 17  1  0
 16 21  2  0
 18 17  1  6
 18 19  1  0
 18 20  1  0
 19 20  1  0
 21 22  1  0
M  CHG  1   8   1
M  END
