
     RDKit          3D

 23 25  0  0  0  0  0  0  0  0999 V2000
    5.2010    1.4310    0.4850 C   0  0  0  0  0  0  0  0  0  0  0  0
    5.9300    0.1630    0.7540 C   0  0  1  0  0  0  0  0  0  0  0  0
    6.5640   -0.2810   -0.5550 C   0  0  0  0  0  0  0  0  0  0  0  0
    7.0120    0.4910    1.5940 O   0  0  0  0  0  0  0  0  0  0  0  0
    5.1820   -0.9270    1.4270 C   0  0  0  0  0  0  0  0  0  0  0  0
    4.0380   -1.4500    0.7690 N   0  0  0  0  0  0  0  0  0  0  0  0
    2.7750   -0.8250    0.6410 C   0  0  0  0  0  0  0  0  0  0  0  0
    1.7400   -1.3960   -0.0590 C   0  0  0  0  0  0  0  0  0  0  0  0
    0.4730   -0.7920   -0.1700 C   0  0  0  0  0  0  0  0  0  0  0  0
   -0.4330   -1.3820   -0.8340 N   0  0  0  0  0  0  0  0  0  0  0  0
   -1.7710   -1.0800   -1.1430 C   0  0  2  0  0  0  0  0  0  0  0  0
   -1.8360    0.0660   -2.1320 C   0  0  0  0  0  0  0  0  0  0  0  0
   -3.1700    0.0710   -2.8660 C   0  0  0  0  0  0  0  0  0  0  0  0
   -4.4380    0.2090   -1.5500 S   0  0  0  0  0  0  0  0  0  0  0  0
   -3.5030    0.3200    0.0210 C   0  0  1  0  0  0  0  0  0  0  0  0
   -4.4790    0.3000    1.0810 N   0  0  0  0  0  0  0  0  0  0  0  0
   -5.6730    0.9460    0.5970 C   0  0  2  0  0  0  0  0  0  0  0  0
   -7.0140    0.6150    1.0810 C   0  0  0  0  0  0  0  0  0  0  0  0
   -6.5640    0.0360   -0.2380 C   0  0  0  0  0  0  0  0  0  0  0  0
   -2.5850   -0.8730    0.0910 C   0  0  0  0  0  0  0  0  0  0  0  0
    0.2900    0.3850    0.4400 N   0  0  0  0  0  0  0  0  0  0  0  0
    1.3120    0.9450    1.1290 C   0  0  0  0  0  0  0  0  0  0  0  0
    2.5110    0.3580    1.2240 N   0  0  0  0  0  0  0  0  0  0  0  0
  2  1  1  6
  2  3  1  0
  2  4  1  0
  2  5  1  0
  5  6  1  0
  6  7  1  0
  7  8  2  0
  7 23  1  0
  8  9  1  0
  9 10  2  3
  9 21  1  0
 11 10  1  1
 11 12  1  0
 11 20  1  0
 12 13  1  0
 13 14  1  0
 14 15  1  0
 15 16  1  1
 15 20  1  0
 17 16  1  1
 17 18  1  0
 17 19  1  0
 18 19  1  0
 21 22  1  0
 22 23  2  0
M  CHG  1  16   1
M  END
