
     RDKit          3D

 13 13  0  0  0  0  0  0  0  0999 V2000
    4.3200    1.0450    0.3090 O   0  0  0  0  0  0  0  0  0  0  0  0
    3.0590    0.6950    0.1830 C   0  0  0  0  0  0  0  0  0  0  0  0
    2.5530   -0.5710    0.0030 N   0  0  0  0  0  0  0  0  0  0  0  0
    1.2850   -0.7080   -0.0990 C   0  0  0  0  0  0  0  0  0  0  0  0
    0.4080    0.3390   -0.0380 C   0  0  0  0  0  0  0  0  0  0  0  0
   -1.0120    0.5370   -0.1120 C   0  0  0  0  0  0  0  0  0  0  0  0
   -1.4790    1.7690   -0.0020 C   0  0  0  0  0  0  0  0  0  0  0  0
   -0.4310    3.1520    0.2290 Cl  0  0  0  0  0  0  0  0  0  0  0  0
   -2.0930   -0.8030   -0.3400 S   0  0  2  0  0  0  0  0  0  0  0  0
   -1.5100   -1.8830   -1.1990 O   0  0  0  0  0  0  0  0  0  0  0  0
   -3.3050   -0.2720   -1.0870 O   0  0  0  0  0  0  0  0  0  0  0  0
   -2.5600   -1.4320    1.1290 O   0  0  0  0  0  0  0  0  0  0  0  0
    1.6220    1.7210    0.2040 S   0  0  0  0  0  0  0  0  0  0  0  0
  1  2  2  0
  2  3  1  0
  2 13  1  0
  3  4  1  0
  4  5  2  0
  5  6  1  0
  5 13  1  0
  6  7  2  3
  6  9  1  0
  7  8  1  0
  9 10  2  0
  9 11  2  0
  9 12  1  1
M  END
