
     RDKit          3D

 12 11  0  0  0  0  0  0  0  0999 V2000
   -2.5350   -1.4480   -0.6820 O   0  0  0  0  0  0  0  0  0  0  0  0
   -2.2500   -0.3900   -0.0640 C   0  0  0  0  0  0  0  0  0  0  0  0
   -3.3160    0.5550    0.3820 C   0  0  0  0  0  0  0  0  0  0  0  0
   -2.7490    1.6260    1.0290 O   0  0  0  0  0  0  0  0  0  0  0  0
   -0.8860   -0.0940    0.2110 N   0  0  0  0  0  0  0  0  0  0  0  0
    0.1900   -0.9350   -0.1760 C   0  0  0  0  0  0  0  0  0  0  0  0
   -0.1370   -1.9980   -0.7990 O   0  0  0  0  0  0  0  0  0  0  0  0
    1.5760   -0.6400    0.1010 C   0  0  0  0  0  0  0  0  0  0  0  0
    2.0050    0.8510    0.9730 S   0  0  0  0  0  0  0  0  0  0  0  0
    2.5320   -1.4590   -0.2840 C   0  0  0  0  0  0  0  0  0  0  0  0
    4.2570   -1.0930    0.0600 S   0  0  0  0  0  0  0  0  0  0  0  0
    4.4380    0.5950    0.3810 O   0  0  0  0  0  0  0  0  0  0  0  0
  1  2  2  0
  2  3  1  0
  2  5  1  0
  3  4  1  0
  5  6  1  0
  6  7  2  0
  6  8  1  0
  8  9  1  0
  8 10  2  3
 10 11  1  0
 11 12  1  0
M  END
