
     RDKit          3D

 12 11  0  0  0  0  0  0  0  0999 V2000
    1.5570    0.5750   -0.8520 N   0  0  0  0  0  0  0  0  0  0  0  0
    2.4810   -0.1860   -0.0860 C   0  0  0  0  0  0  0  0  0  0  0  0
    3.7030   -0.2540   -0.4180 O   0  0  0  0  0  0  0  0  0  0  0  0
    2.0650   -0.9150    1.1040 C   0  0  0  0  0  0  0  0  0  0  0  0
    2.9800   -1.6640    1.8520 O   0  0  0  0  0  0  0  0  0  0  0  0
    0.8130   -0.9080    1.5360 C   0  0  0  0  0  0  0  0  0  0  0  0
   -0.4330    0.0160    0.6560 S   0  0  0  0  0  0  0  0  0  0  0  0
   -1.2300   -0.9460   -0.6180 C   0  0  0  0  0  0  0  0  0  0  0  0
   -0.9170   -2.1110   -0.8320 O   0  0  0  0  0  0  0  0  0  0  0  0
   -2.5070   -0.1770   -1.5910 S   0  0  0  0  0  0  0  0  0  0  0  0
   -2.7100    1.5270   -1.0270 C   0  0  0  0  0  0  0  0  0  0  0  0
   -3.2110    1.4400    0.2940 O   0  0  0  0  0  0  0  0  0  0  0  0
  1  2  1  0
  2  3  2  0
  2  4  1  0
  4  5  1  0
  4  6  2  3
  6  7  1  0
  7  8  1  0
  8  9  2  0
  8 10  1  0
 10 11  1  0
 11 12  1  0
M  END
