
     RDKit          3D

 13 12  0  0  0  0  0  0  0  0999 V2000
    4.0940   -0.7220   -0.4550 N   0  0  0  0  0  0  0  0  0  0  0  0
    2.7020   -0.4970   -0.5210 C   0  0  0  0  0  0  0  0  0  0  0  0
    2.0770    0.2650   -1.8300 S   0  0  0  0  0  0  0  0  0  0  0  0
    1.7530   -0.9210    0.5380 C   0  0  0  0  0  0  0  0  0  0  0  0
    0.4310   -0.5580    0.2890 O   0  0  0  0  0  0  0  0  0  0  0  0
   -0.0420    0.7340    0.1430 C   0  0  0  0  0  0  0  0  0  0  0  0
    0.7650    1.6810    0.2390 O   0  0  0  0  0  0  0  0  0  0  0  0
   -1.4460    1.0180   -0.1180 C   0  0  0  0  0  0  0  0  0  0  0  0
   -2.3520    0.0660   -0.2310 C   0  0  0  0  0  0  0  0  0  0  0  0
   -1.8730   -1.5940   -0.0660 Cl  0  0  0  0  0  0  0  0  0  0  0  0
   -3.9990    0.5090   -0.5430 S   0  0  1  0  0  0  0  0  0  0  0  0
   -4.6010    1.3090    0.5810 O   0  0  0  0  0  0  0  0  0  0  0  0
   -4.1030    1.3850   -1.7840 O   0  0  0  0  0  0  0  0  0  0  0  0
  1  2  1  0
  2  3  2  0
  2  4  1  0
  4  5  1  0
  5  6  1  0
  6  7  2  0
  6  8  1  0
  8  9  2  3
  9 10  1  0
 11  9  1  1
 11 12  2  0
 11 13  2  0
M  END
