
     RDKit          3D

 21 22  0  0  0  0  0  0  0  0999 V2000
   -5.3190   -1.4550   -0.3380 N   0  0  0  0  0  0  0  0  0  0  0  0
   -4.7070   -0.0140    0.3900 S   0  0  2  0  0  0  0  0  0  0  0  0
   -5.0530    0.0440    1.8470 O   0  0  0  0  0  0  0  0  0  0  0  0
   -5.2920    1.1460   -0.3660 O   0  0  0  0  0  0  0  0  0  0  0  0
   -2.9620    0.0760    0.2340 C   0  0  0  0  0  0  0  0  0  0  0  0
   -2.3430    1.1090   -0.4240 C   0  0  0  0  0  0  0  0  0  0  0  0
   -0.9450    1.2060   -0.5640 C   0  0  0  0  0  0  0  0  0  0  0  0
   -0.3920    2.3440   -1.2820 C   0  0  0  0  0  0  0  0  0  0  0  0
    0.8130    2.5590   -1.4820 O   0  0  0  0  0  0  0  0  0  0  0  0
   -1.2480    3.3200   -1.8210 O   0  0  0  0  0  0  0  0  0  0  0  0
   -0.2100    0.2060   -0.0040 C   0  0  0  0  0  0  0  0  0  0  0  0
    1.2030    0.1970   -0.0810 N   0  0  0  0  0  0  0  0  0  0  0  0
    1.9890   -0.8770    0.5220 C   0  0  0  0  0  0  0  0  0  0  0  0
    3.4420   -0.6640    0.3080 C   0  0  0  0  0  0  0  0  0  0  0  0
    4.3060    0.0350    1.1540 C   0  0  0  0  0  0  0  0  0  0  0  0
    5.5630   -0.0090    0.5810 C   0  0  0  0  0  0  0  0  0  0  0  0
    5.4110   -0.7280   -0.5800 C   0  0  0  0  0  0  0  0  0  0  0  0
    4.1620   -1.0830   -0.6890 O   0  0  0  0  0  0  0  0  0  0  0  0
   -0.8530   -0.8560    0.6740 C   0  0  0  0  0  0  0  0  0  0  0  0
   -2.2130   -0.9350    0.8000 C   0  0  0  0  0  0  0  0  0  0  0  0
   -3.0080   -2.2510    1.6400 Cl  0  0  0  0  0  0  0  0  0  0  0  0
  2  1  1  6
  2  3  2  0
  2  4  2  0
  2  5  1  0
  5  6  2  0
  5 20  1  0
  6  7  1  0
  7  8  1  0
  7 11  2  0
  8  9  2  0
  8 10  1  0
 11 12  1  0
 11 19  1  0
 12 13  1  0
 13 14  1  0
 14 15  2  0
 14 18  1  0
 15 16  1  0
 16 17  2  0
 17 18  1  0
 19 20  2  0
 20 21  1  0
M  END
