
     RDKit          3D

 23 25  0  0  0  0  0  0  0  0999 V2000
   -3.4860   -2.6030   -1.6230 C   0  0  0  0  0  0  0  0  0  0  0  0
   -3.6450   -1.1430   -1.3520 C   0  0  0  0  0  0  0  0  0  0  0  0
   -2.4750   -0.5960   -0.5200 C   0  0  2  0  0  0  0  0  0  0  0  0
   -2.4970   -1.3860    0.7790 C   0  0  0  0  0  0  0  0  0  0  0  0
   -2.7170    0.7850   -0.1720 N   0  0  0  0  0  0  0  0  0  0  0  0
   -1.5750    1.6370   -0.3940 C   0  0  1  0  0  0  0  0  0  0  0  0
   -1.4990    2.6160    0.7590 C   0  0  0  0  0  0  0  0  0  0  0  0
   -2.6960    3.4550    0.8740 C   0  0  0  0  0  0  0  0  0  0  0  0
   -2.8200    4.4250    1.8840 N   0  0  0  0  0  0  0  0  0  0  0  0
   -3.6270    3.2950    0.0430 O   0  0  0  0  0  0  0  0  0  0  0  0
   -0.3010    0.9130   -0.4290 C   0  0  0  0  0  0  0  0  0  0  0  0
    0.0540   -0.0340    0.4470 N   0  0  0  0  0  0  0  0  0  0  0  0
    1.2260   -0.6890    0.4030 C   0  0  0  0  0  0  0  0  0  0  0  0
    2.1320   -0.3880   -0.5920 C   0  0  0  0  0  0  0  0  0  0  0  0
    1.7780    0.5780   -1.4930 C   0  0  0  0  0  0  0  0  0  0  0  0
    0.5860    1.2030   -1.3980 N   0  0  0  0  0  0  0  0  0  0  0  0
    2.9740    0.9650   -2.7820 S   0  0  0  0  0  0  0  0  0  0  0  0
    4.5590    0.5560   -2.0670 C   0  0  0  0  0  0  0  0  0  0  0  0
    4.5610   -0.3700   -1.1400 C   0  0  0  0  0  0  0  0  0  0  0  0
    5.7040   -0.8690   -0.4200 N   0  0  0  0  0  0  0  0  0  0  0  0
    5.2820   -1.9140    0.4940 C   0  0  0  0  0  0  0  0  0  0  0  0
    3.8430   -1.4720    0.7810 C   0  0  0  0  0  0  0  0  0  0  0  0
    3.3990   -1.1000   -0.6450 C   0  0  1  0  0  0  0  0  0  0  0  0
  1  2  1  0
  2  3  1  0
  3  4  1  1
  3  5  1  0
  5  6  1  0
  6  7  1  1
  6 11  1  0
  7  8  1  0
  8  9  1  0
  8 10  2  0
 11 12  2  0
 11 16  1  0
 12 13  1  0
 13 14  2  0
 14 15  1  0
 14 23  1  0
 15 16  2  0
 15 17  1  0
 17 18  1  0
 18 19  2  0
 19 20  1  0
 19 23  1  0
 20 21  1  0
 21 22  1  0
 23 22  1  1
M  CHG  1   5   1
M  END
