
     RDKit          3D

 13 13  0  0  0  0  0  0  0  0999 V2000
   -3.6770    1.3140    0.4280 N   0  0  0  0  0  0  0  0  0  0  0  0
   -2.4400    0.6360    0.5800 C   0  0  0  0  0  0  0  0  0  0  0  0
   -1.9750    0.4680    1.7380 O   0  0  0  0  0  0  0  0  0  0  0  0
   -1.7110    0.1450   -0.4890 O   0  0  0  0  0  0  0  0  0  0  0  0
   -0.4580   -0.5300   -0.1990 C   0  0  0  0  0  0  0  0  0  0  0  0
   -0.4200   -1.8910    0.0250 C   0  0  0  0  0  0  0  0  0  0  0  0
    1.3320   -2.1860    0.3270 S   0  0  0  0  0  0  0  0  0  0  0  0
    1.8520   -0.5760    0.1450 C   0  0  0  0  0  0  0  0  0  0  0  0
    3.4960   -0.0380    0.2980 S   0  0  1  0  0  0  0  0  0  0  0  0
    4.3690   -1.0050   -0.4810 O   0  0  0  0  0  0  0  0  0  0  0  0
    3.6990    1.3090   -0.3180 O   0  0  0  0  0  0  0  0  0  0  0  0
    0.6960    0.1250   -0.1350 C   0  0  0  0  0  0  0  0  0  0  0  0
    0.8330    1.8900   -0.3980 Cl  0  0  0  0  0  0  0  0  0  0  0  0
  1  2  1  0
  2  3  2  0
  2  4  1  0
  4  5  1  0
  5  6  2  0
  5 12  1  0
  6  7  1  0
  7  8  1  0
  9  8  1  6
  8 12  2  0
  9 10  2  0
  9 11  2  0
 12 13  1  0
M  END
