
     RDKit          3D

 23 23  0  0  0  0  0  0  0  0999 V2000
    0.4070   -0.1860   -2.7220 O   0  0  0  0  0  0  0  0  0  0  0  0
    0.7660   -0.3500   -1.3810 C   0  0  0  0  0  0  0  0  0  0  0  0
    2.1540   -0.8120   -1.2000 C   0  0  0  0  0  0  0  0  0  0  0  0
    2.8400   -1.0280    0.2710 P   0  0  0  0  0  0  0  0  0  0  0  0
    4.4700   -1.5710    0.3990 O   0  0  0  0  0  0  0  0  0  0  0  0
    5.5310   -0.2690    0.4460 P   0  0  0  0  0  0  0  0  0  0  0  0
    5.9830    0.4750   -0.9630 O   0  0  0  0  0  0  0  0  0  0  0  0
    6.4010    0.0050    1.8490 O   0  0  0  0  0  0  0  0  0  0  0  0
    0.0010   -0.1270   -0.3410 C   0  0  0  0  0  0  0  0  0  0  0  0
    0.6160   -0.3870    0.9260 O   0  0  0  0  0  0  0  0  0  0  0  0
    0.2950   -2.0930    1.5090 P   0  0  0  0  0  0  0  0  0  0  0  0
   -1.3520    0.3140   -0.3160 C   0  0  0  0  0  0  0  0  0  0  0  0
   -2.0990    0.3600   -1.6180 C   0  0  0  0  0  0  0  0  0  0  0  0
   -1.7540    0.0610   -2.7530 N   0  0  0  0  0  0  0  0  0  0  0  0
   -2.7530    0.1650   -4.2290 P   0  0  0  0  0  0  0  0  0  0  0  0
   -3.5130   -1.3690   -4.5770 O   0  0  0  0  0  0  0  0  0  0  0  0
   -3.9420    1.4070   -4.0780 O   0  0  0  0  0  0  0  0  0  0  0  0
   -2.0920    0.6450    0.6750 C   0  0  0  0  0  0  0  0  0  0  0  0
   -2.0110    0.7650    2.0880 C   0  0  0  0  0  0  0  0  0  0  0  0
   -3.1350    1.0890    2.8070 N   0  0  0  0  0  0  0  0  0  0  0  0
   -2.8530    1.1570    4.1220 O   0  0  0  0  0  0  0  0  0  0  0  0
   -1.4910    1.6420    4.1600 C   0  0  0  0  0  0  0  0  0  0  0  0
   -1.0030    0.7340    3.0650 N   0  0  0  0  0  0  0  0  0  0  0  0
  1  2  1  0
  2  3  1  0
  2  9  2  3
  3  4  2  3
  4  5  1  0
  5  6  1  0
  6  7  1  0
  6  8  1  0
  9 10  1  0
  9 12  1  0
 10 11  1  0
 12 13  1  0
 12 18  2  3
 13 14  2  3
 14 15  1  0
 15 16  1  0
 15 17  1  0
 18 19  1  0
 19 20  2  0
 19 23  1  0
 20 21  1  0
 21 22  1  0
 22 23  1  0
M  END
