
     RDKit          3D

 21 21  0  0  0  0  0  0  0  0999 V2000
   -2.8260   -3.1960    0.4020 C   0  0  0  0  0  0  0  0  0  0  0  0
   -2.1640   -1.5770    0.9370 P   0  0  0  0  0  0  0  0  0  0  0  0
   -2.9440   -0.1570    0.0560 C   0  0  0  0  0  0  0  0  0  0  0  0
   -2.0230    0.9040   -0.2790 N   0  0  0  0  0  0  0  0  0  0  0  0
   -2.6160    2.1190   -0.6920 C   0  0  0  0  0  0  0  0  0  0  0  0
   -1.9090    3.1170   -1.0030 O   0  0  0  0  0  0  0  0  0  0  0  0
   -4.4280    2.3140   -0.8020 P   0  0  0  0  0  0  0  0  0  0  0  0
   -4.8740    3.9850   -0.8960 O   0  0  0  0  0  0  0  0  0  0  0  0
   -0.6260    0.8470   -0.2410 C   0  0  0  0  0  0  0  0  0  0  0  0
    0.0480    1.8550   -0.6690 O   0  0  0  0  0  0  0  0  0  0  0  0
    0.1790   -0.2130    0.2230 N   0  0  0  0  0  0  0  0  0  0  0  0
    1.6080   -0.1050    0.1940 N   0  0  0  0  0  0  0  0  0  0  0  0
    2.1730    0.4870   -0.9550 C   0  0  0  0  0  0  0  0  0  0  0  0
    3.3570    1.0300   -1.0530 C   0  0  0  0  0  0  0  0  0  0  0  0
    3.7650    1.5750   -2.2720 O   0  0  0  0  0  0  0  0  0  0  0  0
    4.2710    1.0780    0.0990 C   0  0  0  0  0  0  0  0  0  0  0  0
    5.4510    0.3910   -0.2030 O   0  0  0  0  0  0  0  0  0  0  0  0
    6.2810    0.4200    0.8190 O   0  0  0  0  0  0  0  0  0  0  0  0
   -0.3680   -1.4230    0.7400 C   0  0  0  0  0  0  0  0  0  0  0  0
    0.4170   -2.4140    1.0860 C   0  0  0  0  0  0  0  0  0  0  0  0
   -0.1180   -3.5700    1.6010 O   0  0  0  0  0  0  0  0  0  0  0  0
  1  2  1  0
  2  3  1  0
  2 19  1  0
  3  4  1  0
  4  5  1  0
  4  9  1  0
  5  6  2  0
  5  7  1  0
  7  8  1  0
  9 10  2  0
  9 11  1  0
 11 12  1  0
 11 19  1  0
 12 13  1  0
 13 14  2  3
 14 15  1  0
 14 16  1  0
 16 17  1  0
 17 18  1  0
 19 20  2  3
 20 21  1  0
M  END
