
     RDKit          3D

 23 24  0  0  0  0  0  0  0  0999 V2000
    6.4790    2.3680   -0.4580 N   0  0  0  0  0  0  0  0  0  0  0  0
    5.2830    1.9150   -0.5930 C   0  0  0  0  0  0  0  0  0  0  0  0
    4.8710    0.6310    0.0470 C   0  0  0  0  0  0  0  0  0  0  0  0
    5.7100    0.0380    0.6950 N   0  0  0  0  0  0  0  0  0  0  0  0
    5.9020   -1.0170    1.4020 O   0  0  0  0  0  0  0  0  0  0  0  0
    3.5660    0.2430   -0.1630 O   0  0  0  0  0  0  0  0  0  0  0  0
    2.9930   -0.8930    0.3310 C   0  0  0  0  0  0  0  0  0  0  0  0
    3.6790   -1.6650    1.0350 O   0  0  0  0  0  0  0  0  0  0  0  0
    1.5900   -1.2470    0.0660 C   0  0  0  0  0  0  0  0  0  0  0  0
    1.0490   -2.3470    0.5490 C   0  0  0  0  0  0  0  0  0  0  0  0
   -0.2460   -2.7650    0.3600 O   0  0  0  0  0  0  0  0  0  0  0  0
   -1.5030   -1.9880   -0.5430 P   0  0  0  0  0  0  0  0  0  0  0  0
   -3.0900   -1.8340    0.3640 C   0  0  0  0  0  0  0  0  0  0  0  0
   -3.5460   -0.0900    0.7520 P   0  0  0  0  0  0  0  0  0  0  0  0
   -2.2490    1.0110    0.4620 O   0  0  0  0  0  0  0  0  0  0  0  0
   -5.0360    0.4660   -0.0790 C   0  0  0  0  0  0  0  0  0  0  0  0
   -6.2450    0.1620    0.2090 N   0  0  0  0  0  0  0  0  0  0  0  0
   -7.2110    0.6850   -0.5340 O   0  0  0  0  0  0  0  0  0  0  0  0
   -6.9320    1.0110   -1.7930 O   0  0  0  0  0  0  0  0  0  0  0  0
   -5.2710    1.5760   -1.5390 P   0  0  0  0  0  0  0  0  0  0  0  0
   -5.4030    3.2320   -1.0410 O   0  0  0  0  0  0  0  0  0  0  0  0
   -0.9370   -0.4940   -1.2570 N   0  0  0  0  0  0  0  0  0  0  0  0
    0.6110   -0.0990   -0.9680 P   0  0  0  0  0  0  0  0  0  0  0  0
  1  2  2  0
  2  3  1  0
  3  4  2  3
  3  6  1  0
  4  5  1  0
  6  7  1  0
  7  8  2  0
  7  9  1  0
  9 10  2  0
  9 23  1  0
 10 11  1  0
 11 12  1  0
 12 13  1  0
 12 22  1  0
 13 14  1  0
 14 15  1  0
 14 16  1  0
 16 17  2  0
 16 20  1  0
 17 18  1  0
 18 19  1  0
 19 20  1  0
 20 21  1  0
 22 23  2  0
M  END
