
     RDKit          3D

 20 20  0  0  0  0  0  0  0  0999 V2000
    0.9860    2.6910   -0.8700 C   0  0  0  0  0  0  0  0  0  0  0  0
    0.8990    1.3680    0.1170 P   0  0  0  0  0  0  0  0  0  0  0  0
   -0.5500    0.1760    0.0270 C   0  0  1  0  0  0  0  0  0  0  0  0
   -0.0900   -1.0390   -0.6750 C   0  0  2  0  0  0  0  0  0  0  0  0
   -0.9790   -2.1070   -0.7720 O   0  0  0  0  0  0  0  0  0  0  0  0
   -1.3050   -2.6540   -1.9980 C   0  0  0  0  0  0  0  0  0  0  0  0
   -0.7540   -2.1340   -3.0230 O   0  0  0  0  0  0  0  0  0  0  0  0
    1.1820   -1.5410   -0.0220 C   0  0  0  0  0  0  0  0  0  0  0  0
    1.2820   -2.7430    0.3100 O   0  0  0  0  0  0  0  0  0  0  0  0
    2.2500   -0.7000    0.2240 O   0  0  0  0  0  0  0  0  0  0  0  0
    3.4360   -1.2100    0.8440 C   0  0  0  0  0  0  0  0  0  0  0  0
    4.6110    0.1620    1.0100 S   0  0  0  0  0  0  0  0  0  0  0  0
    4.0110    1.3420    2.1240 O   0  0  0  0  0  0  0  0  0  0  0  0
   -0.9030   -0.0740    1.4000 O   0  0  0  0  0  0  0  0  0  0  0  0
   -0.8650    0.9860    2.1670 C   0  0  0  0  0  0  0  0  0  0  0  0
   -1.5360    2.3150    1.0210 P   0  0  0  0  0  0  0  0  0  0  0  0
   -1.7370    0.8770   -0.4570 C   0  0  1  0  0  0  0  0  0  0  0  0
   -1.6700    1.6120   -1.5910 O   0  0  0  0  0  0  0  0  0  0  0  0
   -3.0760    0.2820   -0.1500 C   0  0  0  0  0  0  0  0  0  0  0  0
   -3.5590   -0.5520   -1.1180 O   0  0  0  0  0  0  0  0  0  0  0  0
  1  2  2  0
  3  2  1  1
  3  4  1  0
  3 14  1  0
  3 17  1  0
  4  5  1  1
  4  8  1  0
  5  6  1  0
  6  7  2  0
  8  9  2  0
  8 10  1  0
 10 11  1  0
 11 12  1  0
 12 13  1  0
 14 15  1  0
 15 16  2  0
 16 17  1  0
 17 18  1  6
 17 19  1  0
 19 20  1  0
M  END
