
     RDKit          3D

 23 24  0  0  0  0  0  0  0  0999 V2000
   -4.3860   -0.4170    0.6460 C   0  0  0  0  0  0  0  0  0  0  0  0
   -4.1210    0.0820   -0.7580 C   0  0  1  0  0  0  0  0  0  0  0  0
   -4.2140    1.5930   -0.7070 C   0  0  0  0  0  0  0  0  0  0  0  0
   -2.8260   -0.4190   -1.3050 C   0  0  0  0  0  0  0  0  0  0  0  0
   -1.6620   -0.0610   -0.5790 N   0  0  0  0  0  0  0  0  0  0  0  0
   -0.9730    1.1200   -0.8900 C   0  0  0  0  0  0  0  0  0  0  0  0
   -1.4100    1.8980   -1.7900 O   0  0  0  0  0  0  0  0  0  0  0  0
    0.1980    1.5280   -0.2690 O   0  0  0  0  0  0  0  0  0  0  0  0
    1.2990    0.4150    0.4350 P   0  0  0  0  0  0  0  0  0  0  0  0
    2.9860    0.6120   -0.2730 C   0  0  1  0  0  0  0  0  0  0  0  0
    2.9870    0.4510   -1.7330 N   0  0  0  0  0  0  0  0  0  0  0  0
    3.5550    2.3510    0.0620 P   0  0  0  0  0  0  0  0  0  0  0  0
    5.2340    2.3270    0.5060 O   0  0  0  0  0  0  0  0  0  0  0  0
    5.3930    1.3470    1.3990 O   0  0  0  0  0  0  0  0  0  0  0  0
    4.9050    0.0680    1.2510 C   0  0  0  0  0  0  0  0  0  0  0  0
    5.3100   -0.8420    2.0240 O   0  0  0  0  0  0  0  0  0  0  0  0
    3.9490   -0.3030    0.2570 N   0  0  0  0  0  0  0  0  0  0  0  0
    3.9390   -1.5770   -0.2150 O   0  0  0  0  0  0  0  0  0  0  0  0
    0.7290   -1.3140    0.5400 C   0  0  2  0  0  0  0  0  0  0  0  0
    1.2380   -2.0390    1.7590 C   0  0  0  0  0  0  0  0  0  0  0  0
    0.9620   -2.0610   -0.5950 O   0  0  0  0  0  0  0  0  0  0  0  0
   -1.1400   -1.1970    0.7340 P   0  0  0  0  0  0  0  0  0  0  0  0
   -1.3870   -0.3330    2.2430 O   0  0  0  0  0  0  0  0  0  0  0  0
  2  1  1  1
  2  3  1  0
  2  4  1  0
  4  5  1  0
  5  6  1  0
  5 22  1  0
  6  7  2  0
  6  8  1  0
  8  9  1  0
  9 10  1  0
  9 19  1  0
 10 11  1  6
 10 12  1  0
 10 17  1  0
 12 13  1  0
 13 14  1  0
 14 15  1  0
 15 16  2  0
 15 17  1  0
 17 18  1  0
 19 20  1  1
 19 21  1  0
 19 22  1  0
 22 23  1  0
M  END
