
     RDKit          3D

 22 22  0  0  0  0  0  0  0  0999 V2000
    6.0930   -1.8680   -0.7460 C   0  0  0  0  0  0  0  0  0  0  0  0
    4.8680   -1.2850   -0.0780 C   0  0  0  0  0  0  0  0  0  0  0  0
    3.9460   -0.8150   -1.0780 N   0  0  0  0  0  0  0  0  0  0  0  0
    2.7100   -0.2210   -0.7190 C   0  0  0  0  0  0  0  0  0  0  0  0
    2.7390    0.9810   -0.1250 C   0  0  0  0  0  0  0  0  0  0  0  0
    1.5120    1.5730    0.2320 N   0  0  0  0  0  0  0  0  0  0  0  0
    0.4130    0.7150    0.6250 C   0  0  1  0  0  0  0  0  0  0  0  0
   -0.8420    1.4560    0.6810 N   0  0  0  0  0  0  0  0  0  0  0  0
   -1.8090    0.6150    1.0470 O   0  0  0  0  0  0  0  0  0  0  0  0
   -3.0550    0.9270    0.4690 C   0  0  2  0  0  0  0  0  0  0  0  0
   -4.1970    1.4150    1.8100 P   0  0  0  0  0  0  0  0  0  0  0  0
   -5.7610    1.8110    1.3310 O   0  0  0  0  0  0  0  0  0  0  0  0
   -4.0040    0.6080    3.2720 O   0  0  0  0  0  0  0  0  0  0  0  0
   -3.6490   -0.4720   -0.5560 P   0  0  0  0  0  0  0  0  0  0  0  0
   -5.3060   -0.8120   -0.2630 O   0  0  0  0  0  0  0  0  0  0  0  0
   -3.3030   -0.1220   -2.3120 C   0  0  0  0  0  0  0  0  0  0  0  0
   -2.6620   -0.9060   -2.9740 O   0  0  0  0  0  0  0  0  0  0  0  0
   -3.9240    1.4150   -3.0710 P   0  0  0  0  0  0  0  0  0  0  0  0
   -5.3600    1.5640   -3.6040 O   0  0  0  0  0  0  0  0  0  0  0  0
    0.3070   -0.5210   -0.2020 C   0  0  2  0  0  0  0  0  0  0  0  0
   -0.0220   -2.0210    0.8800 P   0  0  0  0  0  0  0  0  0  0  0  0
    1.4850   -0.7930   -0.9390 O   0  0  0  0  0  0  0  0  0  0  0  0
  1  2  1  0
  2  3  1  0
  3  4  1  0
  4  5  2  0
  4 22  1  0
  5  6  1  0
  6  7  1  0
  7  8  1  6
  7 20  1  0
  8  9  1  0
 10  9  1  1
 10 11  1  0
 10 14  1  0
 11 12  1  0
 11 13  1  0
 14 15  1  0
 14 16  1  0
 16 17  2  0
 16 18  1  0
 18 19  2  0
 20 21  1  1
 20 22  1  0
M  END
