
     RDKit          3D

 22 23  0  0  0  0  0  0  0  0999 V2000
   -1.4730    2.1960   -0.9410 C   0  0  0  0  0  0  0  0  0  0  0  0
   -1.5910    0.9910   -0.0130 C   0  0  2  0  0  0  0  0  0  0  0  0
   -2.4080    1.5030    1.1920 C   0  0  0  0  0  0  0  0  0  0  0  0
   -0.4040    0.6290    0.4210 O   0  0  0  0  0  0  0  0  0  0  0  0
    0.2150   -0.5130    0.1580 C   0  0  1  0  0  0  0  0  0  0  0  0
    0.5630   -0.7460   -1.3040 C   0  0  0  0  0  0  0  0  0  0  0  0
    1.4680   -1.8120   -1.5270 N   0  0  0  0  0  0  0  0  0  0  0  0
    0.7770   -3.3240   -2.0990 P   0  0  0  0  0  0  0  0  0  0  0  0
    1.2470   -4.7230   -1.6090 O   0  0  0  0  0  0  0  0  0  0  0  0
    2.5200   -1.9050   -0.7390 O   0  0  0  0  0  0  0  0  0  0  0  0
    2.6770   -0.8410    0.0750 N   0  0  0  0  0  0  0  0  0  0  0  0
    3.8970   -0.2600    0.1250 O   0  0  0  0  0  0  0  0  0  0  0  0
    3.8080    1.1230   -0.0440 C   0  0  0  0  0  0  0  0  0  0  0  0
    5.1340    1.7610   -0.0050 C   0  0  0  0  0  0  0  0  0  0  0  0
    5.1950    2.9840   -0.1230 O   0  0  0  0  0  0  0  0  0  0  0  0
    1.5750   -0.3960    0.8170 C   0  0  0  0  0  0  0  0  0  0  0  0
    1.7480    0.0670    1.9610 O   0  0  0  0  0  0  0  0  0  0  0  0
   -0.3470   -1.7180    0.7660 N   0  0  0  0  0  0  0  0  0  0  0  0
   -1.8400   -2.2280   -0.1410 P   0  0  0  0  0  0  0  0  0  0  0  0
   -2.9520   -2.9990    0.9310 O   0  0  0  0  0  0  0  0  0  0  0  0
   -2.6440   -0.2700   -0.8390 P   0  0  0  0  0  0  0  0  0  0  0  0
   -4.7550   -0.0610   -0.4030 P   0  0  0  0  0  0  0  0  0  0  0  0
  2  1  1  6
  2  3  1  0
  2  4  1  0
  2 21  1  0
  4  5  1  0
  5  6  1  6
  5 16  1  0
  5 18  1  0
  6  7  1  0
  7  8  1  0
  7 10  1  0
  8  9  2  0
 10 11  1  0
 11 12  1  0
 11 16  1  0
 12 13  1  0
 13 14  1  0
 14 15  2  0
 16 17  2  0
 18 19  1  0
 19 20  1  0
 19 21  1  0
 21 22  1  0
M  END
