
     RDKit          3D

 23 25  0  0  0  0  0  0  0  0999 V2000
    4.8870   -1.9880    0.3120 C   0  0  0  0  0  0  0  0  0  0  0  0
    4.6220   -0.6730    0.8810 C   0  0  0  0  0  0  0  0  0  0  0  0
    5.2150   -0.3330    1.9370 O   0  0  0  0  0  0  0  0  0  0  0  0
    3.6680    0.2470    0.2220 C   0  0  0  0  0  0  0  0  0  0  0  0
    3.3000    1.7520    0.7830 P   0  0  0  0  0  0  0  0  0  0  0  0
    2.1580    2.7460   -0.0850 N   0  0  0  0  0  0  0  0  0  0  0  0
    1.1210    3.2940    0.5800 O   0  0  0  0  0  0  0  0  0  0  0  0
    0.1860    2.4430    0.7870 O   0  0  0  0  0  0  0  0  0  0  0  0
   -0.3950    2.0980   -0.4630 C   0  0  2  0  0  0  0  0  0  0  0  0
   -0.9460    3.1930   -1.0860 O   0  0  0  0  0  0  0  0  0  0  0  0
   -1.4530    0.6490   -0.4090 P   0  0  0  0  0  0  0  0  0  0  0  0
   -1.2680   -0.5250   -1.8090 C   0  0  0  0  0  0  0  0  0  0  0  0
   -1.7310   -1.7850   -1.3640 O   0  0  0  0  0  0  0  0  0  0  0  0
   -2.6210   -1.5420   -0.3170 C   0  0  1  0  0  0  0  0  0  0  0  0
   -3.8410   -2.9560   -0.1510 P   0  0  0  0  0  0  0  0  0  0  0  0
   -1.9580   -1.4560    0.9180 O   0  0  0  0  0  0  0  0  0  0  0  0
   -1.5680   -0.1620    1.1660 N   0  0  0  0  0  0  0  0  0  0  0  0
   -2.4880    0.3990    2.0250 N   0  0  0  0  0  0  0  0  0  0  0  0
   -3.2400    1.4840    1.4720 C   0  0  0  0  0  0  0  0  0  0  0  0
   -3.3790   -0.5110    2.5110 O   0  0  0  0  0  0  0  0  0  0  0  0
    1.2790    1.7480   -1.2880 P   0  0  0  0  0  0  0  0  0  0  0  0
    1.6150    0.0870   -0.9640 O   0  0  0  0  0  0  0  0  0  0  0  0
    2.9820   -0.1880   -1.0180 C   0  0  0  0  0  0  0  0  0  0  0  0
  1  2  1  0
  2  3  2  0
  2  4  1  0
  4  5  2  0
  4 23  1  0
  5  6  1  0
  6  7  1  0
  6 21  1  0
  7  8  1  0
  8  9  1  0
  9 10  1  6
  9 11  1  0
  9 21  1  0
 11 12  1  0
 11 17  1  0
 12 13  1  0
 13 14  1  0
 14 15  1  1
 14 16  1  0
 16 17  1  0
 17 18  1  0
 18 19  1  0
 18 20  1  0
 21 22  1  0
 22 23  1  0
M  END
