
     RDKit          3D

 23 25  0  0  0  0  0  0  0  0999 V2000
   -0.0380   -3.0760    0.1640 N   0  0  0  0  0  0  0  0  0  0  0  0
   -0.0950   -1.6580    0.2070 C   0  0  0  0  0  0  0  0  0  0  0  0
    0.9910   -1.0230    0.6170 C   0  0  0  0  0  0  0  0  0  0  0  0
    2.1220   -1.7710    0.9820 O   0  0  0  0  0  0  0  0  0  0  0  0
    2.7390   -3.0790    0.0160 P   0  0  0  0  0  0  0  0  0  0  0  0
    1.1430    0.7900    0.7520 P   0  0  0  0  0  0  0  0  0  0  0  0
    1.9600    1.3200    2.7800 P   0  0  0  0  0  0  0  0  0  0  0  0
    3.4760    1.8930    2.0630 O   0  0  0  0  0  0  0  0  0  0  0  0
    3.0480    2.4540    0.8620 C   0  0  0  0  0  0  0  0  0  0  0  0
    2.6870    1.3600   -0.0520 N   0  0  0  0  0  0  0  0  0  0  0  0
    3.5520    0.3290    0.0770 O   0  0  0  0  0  0  0  0  0  0  0  0
    5.2040    0.8400   -0.0360 P   0  0  0  0  0  0  0  0  0  0  0  0
    6.2070    0.6840    1.1470 O   0  0  0  0  0  0  0  0  0  0  0  0
   -1.2830   -0.9540   -0.1780 N   0  0  0  0  0  0  0  0  0  0  0  0
   -1.5760    0.4520   -0.2160 C   0  0  0  0  0  0  0  0  0  0  0  0
   -2.9490    0.5530   -0.7830 C   0  0  2  0  0  0  0  0  0  0  0  0
   -3.0580    1.5920   -1.8850 C   0  0  0  0  0  0  0  0  0  0  0  0
   -4.3450    2.0160   -1.7680 O   0  0  0  0  0  0  0  0  0  0  0  0
   -4.7970    1.8490   -0.5930 O   0  0  0  0  0  0  0  0  0  0  0  0
   -3.9560    1.1220    0.1890 C   0  0  0  0  0  0  0  0  0  0  0  0
   -3.2980   -0.7060   -1.2620 O   0  0  0  0  0  0  0  0  0  0  0  0
   -2.4650   -1.6230   -0.6250 C   0  0  0  0  0  0  0  0  0  0  0  0
   -2.7610   -2.8470   -0.4910 O   0  0  0  0  0  0  0  0  0  0  0  0
  1  2  1  0
  2  3  2  3
  2 14  1  0
  3  4  1  0
  3  6  1  0
  4  5  1  0
  6  7  1  0
  6 10  1  0
  7  8  1  0
  8  9  1  0
  9 10  1  0
 10 11  1  0
 11 12  1  0
 12 13  2  0
 14 15  1  0
 14 22  1  0
 16 15  1  1
 16 17  1  0
 16 20  1  0
 16 21  1  0
 17 18  1  0
 18 19  1  0
 19 20  1  0
 21 22  1  0
 22 23  2  0
M  END
