
     RDKit          3D

 21 22  0  0  0  0  0  0  0  0999 V2000
    6.9810   -0.0100    0.3590 C   0  0  0  0  0  0  0  0  0  0  0  0
    5.5400   -0.2770    0.0220 C   0  0  0  0  0  0  0  0  0  0  0  0
    4.9840    0.8900   -0.6510 N   0  0  0  0  0  0  0  0  0  0  0  0
    3.6400    0.6230   -0.9370 N   0  0  0  0  0  0  0  0  0  0  0  0
    2.6710    0.5970    0.0730 C   0  0  0  0  0  0  0  0  0  0  0  0
    2.9830    0.8130    1.2560 O   0  0  0  0  0  0  0  0  0  0  0  0
    1.2620    0.3130   -0.3050 C   0  0  0  0  0  0  0  0  0  0  0  0
    0.9850    0.0310   -1.4930 O   0  0  0  0  0  0  0  0  0  0  0  0
    0.2880    0.3750    0.7010 N   0  0  0  0  0  0  0  0  0  0  0  0
   -1.0880    0.1240    0.4860 C   0  0  0  0  0  0  0  0  0  0  0  0
   -1.6640   -0.2130   -0.7050 C   0  0  0  0  0  0  0  0  0  0  0  0
   -3.0420   -0.3960   -0.7790 C   0  0  0  0  0  0  0  0  0  0  0  0
   -3.8640   -0.2440    0.3260 C   0  0  0  0  0  0  0  0  0  0  0  0
   -3.2390    0.1010    1.5260 C   0  0  0  0  0  0  0  0  0  0  0  0
   -4.0190    0.2900    2.7190 N   0  0  0  0  0  0  0  0  0  0  0  0
   -1.9210    0.2660    1.5610 N   0  0  0  0  0  0  0  0  0  0  0  0
   -5.2580   -0.4700   -0.0220 C   0  0  0  0  0  0  0  0  0  0  0  0
   -6.3320   -0.4510    0.6250 N   0  0  0  0  0  0  0  0  0  0  0  0
   -6.8150   -0.1720    2.1890 Cl  0  0  0  0  0  0  0  0  0  0  0  0
   -5.2610   -0.7750   -1.4390 N   0  0  0  0  0  0  0  0  0  0  0  0
   -3.9140   -0.7800   -1.9110 C   0  0  0  0  0  0  0  0  0  0  0  0
  1  2  1  0
  2  3  1  0
  3  4  1  0
  4  5  1  0
  5  6  2  0
  5  7  1  0
  7  8  2  0
  7  9  1  0
  9 10  1  0
 10 11  2  0
 10 16  1  0
 11 12  1  0
 12 13  2  0
 12 21  1  0
 13 14  1  0
 13 17  1  0
 14 15  1  0
 14 16  2  0
 17 18  2  3
 17 20  1  0
 18 19  1  0
 20 21  1  0
M  CHG  1  16   1
M  END
