
     RDKit          3D

 21 22  0  0  0  0  0  0  0  0999 V2000
   -2.7970   -1.7720   -1.0990 C   0  0  0  0  0  0  0  0  0  0  0  0
   -3.0940   -0.3650   -0.6310 C   0  0  1  0  0  0  0  0  0  0  0  0
   -2.1190    0.3110    0.1940 N   0  0  0  0  0  0  0  0  0  0  0  0
   -2.3030    0.4050    1.4530 C   0  0  0  0  0  0  0  0  0  0  0  0
   -3.4850   -0.1570    2.0860 N   0  0  0  0  0  0  0  0  0  0  0  0
   -1.3510    1.0600    2.2760 N   0  0  0  0  0  0  0  0  0  0  0  0
    0.0220    1.0550    1.8870 C   0  0  0  0  0  0  0  0  0  0  0  0
    0.9170    2.0600    2.3430 N   0  0  0  0  0  0  0  0  0  0  0  0
    0.3980    0.0930    1.1080 N   0  0  0  0  0  0  0  0  0  0  0  0
    1.7650    0.0810    0.7170 C   0  0  0  0  0  0  0  0  0  0  0  0
    2.4990   -0.7950    1.2500 O   0  0  0  0  0  0  0  0  0  0  0  0
    2.3260    0.9440   -0.1860 O   0  0  0  0  0  0  0  0  0  0  0  0
    3.6500    0.9660   -0.6000 C   0  0  0  0  0  0  0  0  0  0  0  0
    4.1180   -0.2600   -1.2650 C   0  0  0  0  0  0  0  0  0  0  0  0
    3.4360   -1.4180   -1.5580 C   0  0  0  0  0  0  0  0  0  0  0  0
    4.3180   -2.2270   -2.1790 N   0  0  0  0  0  0  0  0  0  0  0  0
    5.4900   -1.6300   -2.2790 N   0  0  0  0  0  0  0  0  0  0  0  0
    5.4200   -0.4090   -1.7290 C   0  0  0  0  0  0  0  0  0  0  0  0
    6.7480    0.7240   -1.6440 Cl  0  0  0  0  0  0  0  0  0  0  0  0
   -3.8900    0.4680   -1.6280 C   0  0  0  0  0  0  0  0  0  0  0  0
   -4.5010   -0.0360   -0.3530 C   0  0  0  0  0  0  0  0  0  0  0  0
  2  1  1  6
  2  3  1  0
  2 20  1  0
  2 21  1  0
  3  4  2  3
  4  5  1  0
  4  6  1  0
  6  7  1  0
  7  8  1  0
  7  9  2  3
  9 10  1  0
 10 11  2  0
 10 12  1  0
 12 13  1  0
 13 14  1  0
 14 15  1  0
 14 18  2  0
 15 16  2  0
 16 17  1  0
 17 18  1  0
 18 19  1  0
 20 21  1  0
M  CHG  1   3   1
M  END
