
     RDKit          3D

 21 22  0  0  0  0  0  0  0  0999 V2000
   -4.0090   -1.7350   -1.5670 C   0  0  0  0  0  0  0  0  0  0  0  0
   -3.4380   -0.3430   -1.6610 C   0  0  0  0  0  0  0  0  0  0  0  0
   -3.2530    0.2710   -0.3330 C   0  0  0  0  0  0  0  0  0  0  0  0
   -2.0420    0.3610    0.2470 N   0  0  0  0  0  0  0  0  0  0  0  0
   -1.8820    0.9130    1.4540 C   0  0  0  0  0  0  0  0  0  0  0  0
   -0.7610    1.0050    2.0110 N   0  0  0  0  0  0  0  0  0  0  0  0
    0.5000    0.5970    1.5680 C   0  0  0  0  0  0  0  0  0  0  0  0
    1.0430    1.0230    0.3730 C   0  0  0  0  0  0  0  0  0  0  0  0
    2.3170    0.5770   -0.0150 C   0  0  0  0  0  0  0  0  0  0  0  0
    3.0600   -0.2800    0.7560 C   0  0  0  0  0  0  0  0  0  0  0  0
    4.3210   -0.7780    0.4150 N   0  0  0  0  0  0  0  0  0  0  0  0
    4.9600   -0.5240   -0.8270 C   0  0  0  0  0  0  0  0  0  0  0  0
    6.3190   -0.0490   -0.8780 N   0  0  0  0  0  0  0  0  0  0  0  0
    4.2870   -0.7450   -1.8920 N   0  0  0  0  0  0  0  0  0  0  0  0
    2.4870   -0.6790    1.9340 N   0  0  0  0  0  0  0  0  0  0  0  0
    1.2720   -0.2660    2.3240 C   0  0  0  0  0  0  0  0  0  0  0  0
   -2.9740    1.3820    2.0820 N   0  0  0  0  0  0  0  0  0  0  0  0
   -4.2000    1.3210    1.5560 C   0  0  0  0  0  0  0  0  0  0  0  0
   -5.2070    1.7810    2.1910 O   0  0  0  0  0  0  0  0  0  0  0  0
   -4.3870    0.7570    0.3160 C   0  0  0  0  0  0  0  0  0  0  0  0
   -5.9810    0.6680   -0.3900 Cl  0  0  0  0  0  0  0  0  0  0  0  0
  1  2  1  0
  2  3  1  0
  3  4  1  0
  3 20  2  0
  4  5  1  0
  5  6  2  3
  5 17  1  0
  6  7  1  0
  7  8  2  0
  7 16  1  0
  8  9  1  0
  9 10  2  0
 10 11  1  0
 10 15  1  0
 11 12  1  0
 12 13  1  0
 12 14  2  0
 15 16  2  0
 17 18  1  0
 18 19  2  0
 18 20  1  0
 20 21  1  0
M  CHG  1  14   1
M  END
