
     RDKit          3D

 20 21  0  0  0  0  0  0  0  0999 V2000
    4.7730   -1.8840   -2.2030 N   0  0  0  0  0  0  0  0  0  0  0  0
    3.6590   -1.2320   -1.6070 N   0  0  0  0  0  0  0  0  0  0  0  0
    3.5950   -0.9150   -0.2330 C   0  0  0  0  0  0  0  0  0  0  0  0
    4.5570   -1.2120    0.5220 O   0  0  0  0  0  0  0  0  0  0  0  0
    2.4260   -0.2350    0.3680 C   0  0  0  0  0  0  0  0  0  0  0  0
    1.3650    0.1010   -0.5390 N   0  0  0  0  0  0  0  0  0  0  0  0
    0.0350    0.4620   -0.1090 C   0  0  0  0  0  0  0  0  0  0  0  0
   -0.2210    1.6870    0.2330 C   0  0  0  0  0  0  0  0  0  0  0  0
    0.8300    2.7360    0.1770 C   0  0  0  0  0  0  0  0  0  0  0  0
    0.5290    3.9250    0.5470 N   0  0  0  0  0  0  0  0  0  0  0  0
   -0.7520    4.3440    1.0180 C   0  0  0  0  0  0  0  0  0  0  0  0
   -1.7470    3.4860    1.1040 C   0  0  0  0  0  0  0  0  0  0  0  0
   -1.4780    2.1360    0.7070 N   0  0  0  0  0  0  0  0  0  0  0  0
   -0.9130   -0.5820   -0.1880 N   0  0  0  0  0  0  0  0  0  0  0  0
   -2.2090   -0.4420   -0.8590 C   0  0  0  0  0  0  0  0  0  0  0  0
   -3.3550   -1.0290   -0.1110 C   0  0  0  0  0  0  0  0  0  0  0  0
   -3.0210   -2.3550    0.5270 C   0  0  1  0  0  0  0  0  0  0  0  0
   -2.7600   -3.5830   -0.7360 Cl  0  0  0  0  0  0  0  0  0  0  0  0
   -1.7230   -2.2690    1.3200 C   0  0  0  0  0  0  0  0  0  0  0  0
   -0.6650   -1.9310    0.3160 C   0  0  0  0  0  0  0  0  0  0  0  0
  1  2  1  0
  2  3  1  0
  3  4  2  0
  3  5  1  0
  5  6  1  0
  6  7  1  0
  7  8  2  3
  7 14  1  0
  8  9  1  0
  8 13  1  0
  9 10  2  0
 10 11  1  0
 11 12  2  0
 12 13  1  0
 14 15  1  0
 14 20  1  0
 15 16  1  0
 16 17  1  0
 17 18  1  6
 17 19  1  0
 19 20  1  0
M  CHG  1  10   1
M  END
