
     RDKit          3D

 21 22  0  0  0  0  0  0  0  0999 V2000
   -1.8750   -1.6400   -1.1940 C   0  0  0  0  0  0  0  0  0  0  0  0
   -2.5210   -0.4270   -0.9110 N   0  0  0  0  0  0  0  0  0  0  0  0
   -2.3180    0.4120    0.0120 C   0  0  0  0  0  0  0  0  0  0  0  0
   -1.2530    0.1860    0.9870 C   0  0  0  0  0  0  0  0  0  0  0  0
    0.1080    0.0130    0.7050 N   0  0  0  0  0  0  0  0  0  0  0  0
    0.8030    0.0790   -0.5090 C   0  0  0  0  0  0  0  0  0  0  0  0
    0.0900    0.3910   -1.5240 O   0  0  0  0  0  0  0  0  0  0  0  0
    2.2280   -0.1640   -0.7520 C   0  0  0  0  0  0  0  0  0  0  0  0
    2.7620   -0.0470   -2.0480 C   0  0  0  0  0  0  0  0  0  0  0  0
    2.0870    0.2980   -3.2580 N   0  0  0  0  0  0  0  0  0  0  0  0
    4.0650   -0.3310   -1.9230 N   0  0  0  0  0  0  0  0  0  0  0  0
    4.3610   -0.6080   -0.6630 C   0  0  0  0  0  0  0  0  0  0  0  0
    5.6500   -0.9630   -0.1110 N   0  0  0  0  0  0  0  0  0  0  0  0
    3.2280   -0.5040    0.0510 N   0  0  0  0  0  0  0  0  0  0  0  0
    3.1550   -0.7420    1.5020 C   0  0  0  0  0  0  0  0  0  0  0  0
   -1.6590    0.1360    2.2780 C   0  0  0  0  0  0  0  0  0  0  0  0
   -0.5270   -0.1790    3.5680 Cl  0  0  0  0  0  0  0  0  0  0  0  0
   -2.9520    0.7460    2.5960 C   0  0  0  0  0  0  0  0  0  0  0  0
   -3.6850    1.3460    1.7100 C   0  0  0  0  0  0  0  0  0  0  0  0
   -3.3060    1.5140    0.2610 C   0  0  2  0  0  0  0  0  0  0  0  0
   -4.4650    1.4220   -0.5640 N   0  0  0  0  0  0  0  0  0  0  0  0
  1  2  1  0
  2  3  2  3
  3  4  1  0
  3 20  1  0
  4  5  1  0
  4 16  2  0
  5  6  1  0
  6  7  2  0
  6  8  1  0
  8  9  2  0
  8 14  1  0
  9 10  1  0
  9 11  1  0
 11 12  2  0
 12 13  1  0
 12 14  1  0
 14 15  1  0
 16 17  1  0
 16 18  1  0
 18 19  2  0
 19 20  1  0
 20 21  1  6
M  CHG  1  21   1
M  END
