
     RDKit          3D

 17 17  0  0  0  0  0  0  0  0999 V2000
    4.0590    1.6490    1.7250 O   0  0  0  0  0  0  0  0  0  0  0  0
    4.6840    0.8340    0.9780 C   0  0  0  0  0  0  0  0  0  0  0  0
    6.0640    0.7830    1.1650 O   0  0  0  0  0  0  0  0  0  0  0  0
    3.9900   -0.0080   -0.0270 C   0  0  0  0  0  0  0  0  0  0  0  0
    2.5870    0.2770    0.0290 N   0  0  0  0  0  0  0  0  0  0  0  0
    1.6210   -0.3610   -0.8100 C   0  0  0  0  0  0  0  0  0  0  0  0
    2.0590   -1.2100   -1.6240 O   0  0  0  0  0  0  0  0  0  0  0  0
    0.1920   -0.0830   -0.7660 C   0  0  1  0  0  0  0  0  0  0  0  0
   -0.5190   -0.9400   -1.7890 C   0  0  0  0  0  0  0  0  0  0  0  0
   -0.2380   -2.7200   -1.4500 S   0  0  0  0  0  0  0  0  0  0  0  0
   -0.4510   -0.2700    0.5680 C   0  0  0  0  0  0  0  0  0  0  0  0
   -1.8980    0.0450    0.5320 C   0  0  0  0  0  0  0  0  0  0  0  0
   -2.2650    1.3540    0.7600 C   0  0  0  0  0  0  0  0  0  0  0  0
   -3.6060    1.7360    0.7510 C   0  0  0  0  0  0  0  0  0  0  0  0
   -4.5730    0.7830    0.5100 C   0  0  0  0  0  0  0  0  0  0  0  0
   -4.1880   -0.5190    0.2840 C   0  0  0  0  0  0  0  0  0  0  0  0
   -2.8580   -0.9090    0.2900 C   0  0  0  0  0  0  0  0  0  0  0  0
  1  2  2  0
  2  3  1  0
  2  4  1  0
  4  5  1  0
  5  6  1  0
  6  7  2  0
  6  8  1  0
  8  9  1  6
  8 11  1  0
  9 10  1  0
 11 12  1  0
 12 13  2  0
 12 17  1  0
 13 14  1  0
 14 15  2  0
 15 16  1  0
 16 17  2  0
M  END
