
     RDKit          3D

 10 10  0  0  0  0  0  0  0  0999 V2000
   -2.6270    0.2800    0.1870 N   0  0  0  0  0  0  0  0  0  0  0  0
   -1.6160   -0.7510    0.2040 C   0  0  0  0  0  0  0  0  0  0  0  0
   -0.2570   -0.2550   -0.2120 C   0  0  2  0  0  0  0  0  0  0  0  0
   -0.2170    0.2650   -1.4830 O   0  0  0  0  0  0  0  0  0  0  0  0
    0.7000   -1.4270   -0.1130 C   0  0  0  0  0  0  0  0  0  0  0  0
    2.0690   -0.9280   -0.5010 C   0  0  0  0  0  0  0  0  0  0  0  0
    2.0870    0.4520   -0.6690 O   0  0  0  0  0  0  0  0  0  0  0  0
    1.6500    1.0830    0.5040 C   0  0  1  0  0  0  0  0  0  0  0  0
    1.8440    2.4510    0.3900 O   0  0  0  0  0  0  0  0  0  0  0  0
    0.2060    0.7690    0.8110 C   0  0  0  0  0  0  0  0  0  0  0  0
  1  2  1  0
  2  3  1  0
  3  4  1  6
  3  5  1  0
  3 10  1  0
  5  6  1  0
  6  7  1  0
  7  8  1  0
  8  9  1  6
  8 10  1  0
M  CHG  1   1   1
M  END
