
     RDKit          3D

 11 11  0  0  0  0  0  0  0  0999 V2000
    2.9510   -0.1630   -0.7020 C   0  0  0  0  0  0  0  0  0  0  0  0
    2.6710    0.6360    0.3680 O   0  0  0  0  0  0  0  0  0  0  0  0
    1.7800    0.1330    1.2640 C   0  0  0  0  0  0  0  0  0  0  0  0
    0.4490   -0.1350    0.6840 C   0  0  1  0  0  0  0  0  0  0  0  0
   -0.1110    1.0890    0.1080 N   0  0  0  0  0  0  0  0  0  0  0  0
   -1.5530    0.9450    0.1910 C   0  0  1  0  0  0  0  0  0  0  0  0
   -2.1560    2.0060   -0.4830 O   0  0  0  0  0  0  0  0  0  0  0  0
   -1.9170   -0.3860   -0.4150 C   0  0  2  0  0  0  0  0  0  0  0  0
   -2.4830   -1.2370    0.5520 O   0  0  0  0  0  0  0  0  0  0  0  0
   -0.7250   -1.0630   -1.0590 C   0  0  0  0  0  0  0  0  0  0  0  0
    0.3700   -1.1290   -0.2420 O   0  0  0  0  0  0  0  0  0  0  0  0
  1  2  1  0
  2  3  1  0
  4  3  1  6
  4  5  1  0
  4 11  1  0
  5  6  1  0
  6  7  1  6
  6  8  1  0
  8  9  1  1
  8 10  1  0
 10 11  1  0
M  END
