
     RDKit          3D

 20 21  0  0  0  0  0  0  0  0999 V2000
   -3.3640   -0.9760    1.2920 C   0  0  0  0  0  0  0  0  0  0  0  0
   -2.5040   -0.4440    0.1160 C   0  0  2  0  0  0  0  0  0  0  0  0
   -3.2600    0.7220   -0.4270 C   0  0  0  0  0  0  0  0  0  0  0  0
   -2.5220   -1.5130   -0.9680 C   0  0  0  0  0  0  0  0  0  0  0  0
   -1.2120   -0.2380    0.6580 N   0  0  0  0  0  0  0  0  0  0  0  0
   -0.9630    0.6640    1.7410 C   0  0  0  0  0  0  0  0  0  0  0  0
   -0.9890    2.0960    1.4660 C   0  0  0  0  0  0  0  0  0  0  0  0
   -1.1810    2.7610    0.2600 N   0  0  0  0  0  0  0  0  0  0  0  0
   -0.8020    2.8560    2.4910 O   0  0  0  0  0  0  0  0  0  0  0  0
   -0.0520   -0.9400    0.1320 C   0  0  0  0  0  0  0  0  0  0  0  0
    0.0580   -2.2170    0.1470 N   0  0  0  0  0  0  0  0  0  0  0  0
    1.3210   -2.5590   -0.4490 C   0  0  0  0  0  0  0  0  0  0  0  0
    1.9180   -1.2740   -0.8060 C   0  0  0  0  0  0  0  0  0  0  0  0
    3.1640   -0.9790   -1.4250 N   0  0  0  0  0  0  0  0  0  0  0  0
    3.8750    0.1860   -1.0630 C   0  0  0  0  0  0  0  0  0  0  0  0
    3.5840    1.1710   -0.1690 C   0  0  0  0  0  0  0  0  0  0  0  0
    4.5960    2.0690   -0.1860 N   0  0  0  0  0  0  0  0  0  0  0  0
    5.5210    1.6690   -1.0750 C   0  0  0  0  0  0  0  0  0  0  0  0
    5.0620    0.5230   -1.5950 N   0  0  0  0  0  0  0  0  0  0  0  0
    1.0930   -0.3460   -0.4550 N   0  0  0  0  0  0  0  0  0  0  0  0
  2  1  1  1
  2  3  1  0
  2  4  1  0
  2  5  1  0
  5  6  1  0
  5 10  1  0
  6  7  1  0
  7  8  1  0
  7  9  2  0
 10 11  2  0
 10 20  1  0
 11 12  1  0
 12 13  1  0
 13 14  1  0
 13 20  2  0
 14 15  1  0
 15 16  2  0
 15 19  1  0
 16 17  1  0
 17 18  1  0
 18 19  2  0
M  CHG  1  11   1
M  END
