
     RDKit          3D

 21 22  0  0  0  0  0  0  0  0999 V2000
   -2.1420    2.2210    1.4230 C   0  0  0  0  0  0  0  0  0  0  0  0
   -3.0850    1.1430    0.9930 C   0  0  0  0  0  0  0  0  0  0  0  0
   -4.4140    1.3100    1.0600 C   0  0  0  0  0  0  0  0  0  0  0  0
   -5.0790    2.4820    1.5280 N   0  0  0  0  0  0  0  0  0  0  0  0
   -4.9990    0.1000    0.5790 C   0  0  0  0  0  0  0  0  0  0  0  0
   -6.2410   -0.0970    0.5010 O   0  0  0  0  0  0  0  0  0  0  0  0
   -4.0060   -0.8170    0.2140 N   0  0  0  0  0  0  0  0  0  0  0  0
   -2.7120   -0.1560    0.4770 C   0  0  0  0  0  0  0  0  0  0  0  0
   -1.5850   -0.7580    0.2340 C   0  0  0  0  0  0  0  0  0  0  0  0
   -0.2180   -0.4370    0.3560 C   0  0  0  0  0  0  0  0  0  0  0  0
    0.3220    0.7710    0.8310 N   0  0  0  0  0  0  0  0  0  0  0  0
    0.6710   -1.3450   -0.0050 N   0  0  0  0  0  0  0  0  0  0  0  0
    2.0330   -1.0500    0.1070 C   0  0  0  0  0  0  0  0  0  0  0  0
    2.5210   -0.4080    1.0950 O   0  0  0  0  0  0  0  0  0  0  0  0
    2.8990   -1.4940   -0.9380 N   0  0  0  0  0  0  0  0  0  0  0  0
    4.2970   -1.2580   -0.9420 C   0  0  0  0  0  0  0  0  0  0  0  0
    5.0910   -0.6150   -0.0440 C   0  0  0  0  0  0  0  0  0  0  0  0
    6.3610   -0.6680   -0.5190 N   0  0  0  0  0  0  0  0  0  0  0  0
    6.3910   -1.3190   -1.6790 C   0  0  0  0  0  0  0  0  0  0  0  0
    7.7760   -1.6710   -2.7180 Cl  0  0  0  0  0  0  0  0  0  0  0  0
    5.1230   -1.6780   -1.9330 N   0  0  0  0  0  0  0  0  0  0  0  0
  1  2  1  0
  2  3  2  0
  2  8  1  0
  3  4  1  0
  3  5  1  0
  5  6  2  0
  5  7  1  0
  7  8  1  0
  8  9  2  3
  9 10  1  0
 10 11  1  0
 10 12  2  3
 12 13  1  0
 13 14  2  0
 13 15  1  0
 15 16  1  0
 16 17  2  0
 16 21  1  0
 17 18  1  0
 18 19  2  0
 19 20  1  0
 19 21  1  0
M  CHG  1  12   1
M  END
