
     RDKit          3D

 25 26  0  0  0  0  0  0  0  0999 V2000
   -2.6320   -1.4620   -1.3370 O   0  0  0  0  0  0  0  0  0  0  0  0
   -1.8680   -0.5200   -0.9330 C   0  0  0  0  0  0  0  0  0  0  0  0
   -2.2730    0.7550   -0.9310 N   0  0  0  0  0  0  0  0  0  0  0  0
   -3.5120    1.3230   -1.2880 C   0  0  0  0  0  0  0  0  0  0  0  0
   -4.6690    1.0090   -0.4520 C   0  0  1  0  0  0  0  0  0  0  0  0
   -5.1860   -0.3790   -0.5430 C   0  0  0  0  0  0  0  0  0  0  0  0
   -6.5670   -0.3280   -0.1720 O   0  0  0  0  0  0  0  0  0  0  0  0
   -6.6830    0.5560    0.9010 C   0  0  0  0  0  0  0  0  0  0  0  0
   -5.4000    0.6820    1.6920 C   0  0  0  0  0  0  0  0  0  0  0  0
   -4.4700    1.3900    0.9030 O   0  0  0  0  0  0  0  0  0  0  0  0
   -0.6790   -1.0600   -0.5510 N   0  0  0  0  0  0  0  0  0  0  0  0
    0.5090   -1.5300   -0.1600 C   0  0  0  0  0  0  0  0  0  0  0  0
    0.5220   -2.8030   -0.3210 O   0  0  0  0  0  0  0  0  0  0  0  0
    1.6080   -0.9180    0.3390 N   0  0  0  0  0  0  0  0  0  0  0  0
    2.7960   -1.5920    0.6860 C   0  0  0  0  0  0  0  0  0  0  0  0
    3.5910   -2.2840   -0.3400 C   0  0  1  0  0  0  0  0  0  0  0  0
    2.8570   -3.3040   -0.9850 O   0  0  0  0  0  0  0  0  0  0  0  0
    4.2830   -1.4650   -1.3710 C   0  0  0  0  0  0  0  0  0  0  0  0
    5.1080   -0.4460   -0.9460 O   0  0  0  0  0  0  0  0  0  0  0  0
    4.7970    0.6620   -0.2130 C   0  0  0  0  0  0  0  0  0  0  0  0
    5.4770    0.9810    0.8870 C   0  0  0  0  0  0  0  0  0  0  0  0
    5.1590    2.1700    1.6910 C   0  0  0  0  0  0  0  0  0  0  0  0
    4.0920    2.9220    1.1920 O   0  0  0  0  0  0  0  0  0  0  0  0
    3.3660    2.6180    0.0550 C   0  0  0  0  0  0  0  0  0  0  0  0
    3.7060    1.5380   -0.6130 C   0  0  0  0  0  0  0  0  0  0  0  0
  1  2  2  0
  2  3  1  0
  2 11  1  0
  3  4  1  0
  5  4  1  6
  5  6  1  0
  5 10  1  0
  6  7  1  0
  7  8  1  0
  8  9  1  0
  9 10  1  0
 11 12  1  0
 12 13  2  0
 12 14  1  0
 14 15  1  0
 15 16  1  0
 16 17  1  6
 16 18  1  0
 18 19  1  0
 19 20  1  0
 20 21  2  0
 20 25  1  0
 21 22  1  0
 22 23  1  0
 23 24  1  0
 24 25  2  0
M  END
