
     RDKit          3D

 25 26  0  0  0  0  0  0  0  0999 V2000
    6.2220    0.1860   -0.5540 C   0  0  0  0  0  0  0  0  0  0  0  0
    5.2420   -0.6990   -0.0490 O   0  0  0  0  0  0  0  0  0  0  0  0
    3.8970   -0.3890   -0.1920 C   0  0  0  0  0  0  0  0  0  0  0  0
    3.6130    0.6960   -0.7820 O   0  0  0  0  0  0  0  0  0  0  0  0
    2.8740   -1.2650    0.3080 N   0  0  0  0  0  0  0  0  0  0  0  0
    1.5340   -0.8770    0.1220 C   0  0  0  0  0  0  0  0  0  0  0  0
    0.6340   -1.5570   -0.5420 C   0  0  0  0  0  0  0  0  0  0  0  0
   -0.7610   -1.1620   -0.7400 C   0  0  2  0  0  0  0  0  0  0  0  0
   -1.1500   -1.2850   -2.1920 C   0  0  0  0  0  0  0  0  0  0  0  0
   -1.5450   -0.2960   -2.8560 O   0  0  0  0  0  0  0  0  0  0  0  0
   -1.0860   -2.5030   -2.8500 O   0  0  0  0  0  0  0  0  0  0  0  0
   -1.4330   -2.6820   -4.1940 C   0  0  0  0  0  0  0  0  0  0  0  0
   -1.1540    0.0950   -0.1420 C   0  0  1  0  0  0  0  0  0  0  0  0
   -2.4110   -0.0090    0.6860 C   0  0  0  0  0  0  0  0  0  0  0  0
   -2.5830   -0.7370    1.8260 C   0  0  0  0  0  0  0  0  0  0  0  0
   -3.9060   -0.5210    2.2310 C   0  0  0  0  0  0  0  0  0  0  0  0
   -4.4550    0.3340    1.3000 C   0  0  0  0  0  0  0  0  0  0  0  0
   -5.7720    0.7960    1.3470 O   0  0  0  0  0  0  0  0  0  0  0  0
   -3.5270    0.6050    0.4080 O   0  0  0  0  0  0  0  0  0  0  0  0
   -0.1190    0.8280    0.5930 C   0  0  0  0  0  0  0  0  0  0  0  0
   -0.4830    2.1270    1.2260 C   0  0  0  0  0  0  0  0  0  0  0  0
   -1.6850    2.5550    1.1040 O   0  0  0  0  0  0  0  0  0  0  0  0
    0.3860    2.9310    1.9510 N   0  0  0  0  0  0  0  0  0  0  0  0
    0.0040    4.1570    2.5370 N   0  0  0  0  0  0  0  0  0  0  0  0
    1.0960    0.3830    0.7100 C   0  0  0  0  0  0  0  0  0  0  0  0
  1  2  1  0
  2  3  1  0
  3  4  2  0
  3  5  1  0
  5  6  1  0
  6  7  2  0
  6 25  1  0
  7  8  1  0
  8  9  1  6
  8 13  1  0
  9 10  2  0
  9 11  1  0
 11 12  1  0
 13 14  1  1
 13 20  1  0
 14 15  2  0
 14 19  1  0
 15 16  1  0
 16 17  2  0
 17 18  1  0
 17 19  1  0
 20 21  1  0
 20 25  2  0
 21 22  2  0
 21 23  1  0
 23 24  1  0
M  END
