
     RDKit          3D

 25 26  0  0  0  0  0  0  0  0999 V2000
    2.9440    2.8180   -1.4560 O   0  0  0  0  0  0  0  0  0  0  0  0
    2.4660    2.1370   -0.5100 C   0  0  0  0  0  0  0  0  0  0  0  0
    3.3350    1.9170    0.6650 C   0  0  0  0  0  0  0  0  0  0  0  0
    4.5030    1.0240    0.2540 C   0  0  0  0  0  0  0  0  0  0  0  0
    4.3620   -0.3560    0.8490 C   0  0  0  0  0  0  0  0  0  0  0  0
    3.9560   -1.3870   -0.1840 C   0  0  0  0  0  0  0  0  0  0  0  0
    2.7570   -1.0670   -0.7550 O   0  0  0  0  0  0  0  0  0  0  0  0
    1.7490   -2.0230   -0.4960 C   0  0  0  0  0  0  0  0  0  0  0  0
    0.6000   -1.6540   -1.3970 C   0  0  0  0  0  0  0  0  0  0  0  0
   -0.7310   -1.6890   -0.7790 C   0  0  0  0  0  0  0  0  0  0  0  0
   -1.1200   -0.8370    0.3250 C   0  0  2  0  0  0  0  0  0  0  0  0
   -0.5290   -1.2550    1.5200 O   0  0  0  0  0  0  0  0  0  0  0  0
   -2.5900   -1.0150    0.5110 C   0  0  0  0  0  0  0  0  0  0  0  0
   -3.0120   -2.0110    1.1210 O   0  0  0  0  0  0  0  0  0  0  0  0
   -3.5290   -0.0770    0.0090 N   0  0  0  0  0  0  0  0  0  0  0  0
   -4.9350   -0.2300    0.2090 C   0  0  0  0  0  0  0  0  0  0  0  0
   -5.4120    0.3990    1.4190 N   0  0  0  0  0  0  0  0  0  0  0  0
   -6.7220    0.2520    1.5980 O   0  0  0  0  0  0  0  0  0  0  0  0
   -3.0880    1.0840   -0.7320 C   0  0  0  0  0  0  0  0  0  0  0  0
   -3.9080    1.9170   -1.1860 O   0  0  0  0  0  0  0  0  0  0  0  0
   -1.6270    1.2770   -0.9510 C   0  0  1  0  0  0  0  0  0  0  0  0
   -1.2950    2.6320   -0.9390 O   0  0  0  0  0  0  0  0  0  0  0  0
   -0.9240    0.6420    0.2250 C   0  0  2  0  0  0  0  0  0  0  0  0
    0.4460    1.1480    0.4900 C   0  0  0  0  0  0  0  0  0  0  0  0
    1.1550    1.6430   -0.6440 N   0  0  0  0  0  0  0  0  0  0  0  0
  1  2  2  0
  2  3  1  0
  2 25  1  0
  3  4  1  0
  4  5  1  0
  5  6  1  0
  6  7  1  0
  7  8  1  0
  8  9  1  0
  9 10  1  0
 10 11  1  0
 11 12  1  1
 11 13  1  0
 11 23  1  0
 13 14  2  0
 13 15  1  0
 15 16  1  0
 15 19  1  0
 16 17  1  0
 17 18  1  0
 19 20  2  0
 19 21  1  0
 21 22  1  1
 21 23  1  0
 23 24  1  6
 24 25  1  0
M  END
