
     RDKit          3D

 25 26  0  0  0  0  0  0  0  0999 V2000
    6.8520    0.9410    1.0540 C   0  0  0  0  0  0  0  0  0  0  0  0
    6.2110    0.0790    0.0230 C   0  0  1  0  0  0  0  0  0  0  0  0
    4.8010    0.1870   -0.0150 O   0  0  0  0  0  0  0  0  0  0  0  0
    3.9670   -0.9090    0.1940 C   0  0  0  0  0  0  0  0  0  0  0  0
    4.5420   -2.0050    0.4200 O   0  0  0  0  0  0  0  0  0  0  0  0
    2.5180   -0.8170    0.1590 C   0  0  0  0  0  0  0  0  0  0  0  0
    1.8900    0.3130   -0.0740 C   0  0  0  0  0  0  0  0  0  0  0  0
    0.4050    0.3470   -0.0970 C   0  0  0  0  0  0  0  0  0  0  0  0
   -0.3120   -0.7380    0.1110 C   0  0  0  0  0  0  0  0  0  0  0  0
   -1.7650   -0.7310    0.0930 C   0  0  0  0  0  0  0  0  0  0  0  0
   -2.3700   -1.8360    0.3070 O   0  0  0  0  0  0  0  0  0  0  0  0
   -2.5840    0.3860   -0.1400 N   0  0  0  0  0  0  0  0  0  0  0  0
   -4.0070    0.4580   -0.1620 C   0  0  2  0  0  0  0  0  0  0  0  0
   -4.6460    0.1460    1.1500 C   0  0  0  0  0  0  0  0  0  0  0  0
   -4.4110   -1.1380    1.6980 N   0  0  0  0  0  0  0  0  0  0  0  0
   -4.6080   -0.4190   -1.2540 C   0  0  0  0  0  0  0  0  0  0  0  0
   -5.8610    0.3490   -1.6150 C   0  0  0  0  0  0  0  0  0  0  0  0
   -5.3440    1.7010   -1.7030 N   0  0  0  0  0  0  0  0  0  0  0  0
   -4.4090    1.8290   -0.6410 C   0  0  0  0  0  0  0  0  0  0  0  0
   -3.9930    2.9180   -0.1820 O   0  0  0  0  0  0  0  0  0  0  0  0
    0.3790   -2.0110    0.3730 C   0  0  0  0  0  0  0  0  0  0  0  0
    1.7660   -1.9350    0.3740 O   0  0  0  0  0  0  0  0  0  0  0  0
    6.7310    0.4030   -1.3300 C   0  0  0  0  0  0  0  0  0  0  0  0
    5.9910    0.7130   -2.3010 O   0  0  0  0  0  0  0  0  0  0  0  0
    8.1130    0.3560   -1.5150 O   0  0  0  0  0  0  0  0  0  0  0  0
  2  1  1  1
  2  3  1  0
  2 23  1  0
  3  4  1  0
  4  5  2  0
  4  6  1  0
  6  7  2  0
  6 22  1  0
  7  8  1  0
  8  9  2  0
  9 10  1  0
  9 21  1  0
 10 11  2  0
 10 12  1  0
 12 13  1  0
 13 14  1  1
 13 16  1  0
 13 19  1  0
 14 15  1  0
 16 17  1  0
 17 18  1  0
 18 19  1  0
 19 20  2  0
 21 22  1  0
 23 24  2  0
 23 25  1  0
M  END
