
     RDKit          3D

 12 11  0  0  0  0  0  0  0  0999 V2000
    3.0170    1.2160   -1.1430 N   0  0  0  0  0  0  0  0  0  0  0  0
    3.0300    0.3300   -0.0150 C   0  0  0  0  0  0  0  0  0  0  0  0
    1.8210   -0.5740   -0.0420 C   0  0  0  0  0  0  0  0  0  0  0  0
    0.6330    0.1170   -0.0010 O   0  0  0  0  0  0  0  0  0  0  0  0
   -0.4050   -0.8010   -0.0300 C   0  0  0  0  0  0  0  0  0  0  0  0
   -1.7620   -0.1430    0.0100 C   0  0  1  0  0  0  0  0  0  0  0  0
   -2.8190   -1.2180   -0.0250 C   0  0  0  0  0  0  0  0  0  0  0  0
   -2.7080   -1.9730   -1.1840 O   0  0  0  0  0  0  0  0  0  0  0  0
   -1.9340    0.7240    1.2320 C   0  0  0  0  0  0  0  0  0  0  0  0
   -0.9390    1.7650    1.2470 N   0  0  0  0  0  0  0  0  0  0  0  0
   -0.1460    1.8270    2.1960 O   0  0  0  0  0  0  0  0  0  0  0  0
   -0.8460    2.6820    0.2430 O   0  0  0  0  0  0  0  0  0  0  0  0
  1  2  1  0
  2  3  1  0
  3  4  1  0
  4  5  1  0
  6  5  1  1
  6  7  1  0
  6  9  1  0
  7  8  1  0
  9 10  1  0
 10 11  2  0
 10 12  1  0
M  CHG  3   1   1  10   1  12  -1
M  END
