
     RDKit          3D

  3  2  0  0  0  0  0  0  0  0999 V2000
   -1.4260    0.1230   -0.4670 C   0  0  0  0  0  0  0  0  0  0  0  0
    0.2540    0.4490   -1.0070 S   0  0  0  0  0  0  0  0  0  0  0  0
    1.4720   -0.1210    0.1980 C   0  0  0  0  0  0  0  0  0  0  0  0
  1  2  1  0
  2  3  1  0
M  END
