
     RDKit          3D

 24 25  0  0  0  0  0  0  0  0999 V2000
    0.6760   -1.0530   -2.7690 C   0  0  0  0  0  0  0  0  0  0  0  0
    0.1420   -0.9040   -1.4200 N   0  0  0  0  0  0  0  0  0  0  0  0
    0.8330   -1.5140   -0.3150 C   0  0  0  0  0  0  0  0  0  0  0  0
    1.8930   -0.5900    0.2080 C   0  0  2  0  0  0  0  0  0  0  0  0
    2.8950   -0.3290   -0.8970 C   0  0  0  0  0  0  0  0  0  0  0  0
    4.2130   -0.2300   -0.3930 O   0  0  0  0  0  0  0  0  0  0  0  0
    4.4910   -0.0980    0.9530 C   0  0  0  0  0  0  0  0  0  0  0  0
    5.6890    0.2110    1.3800 C   0  0  0  0  0  0  0  0  0  0  0  0
    5.9230    0.3350    2.7660 N   0  0  0  0  0  0  0  0  0  0  0  0
    3.3480   -0.3270    1.9020 C   0  0  0  0  0  0  0  0  0  0  0  0
    2.5030   -1.2460    1.2860 O   0  0  0  0  0  0  0  0  0  0  0  0
   -1.0610   -0.1410   -1.1910 C   0  0  0  0  0  0  0  0  0  0  0  0
   -1.5480    0.3800   -2.2230 O   0  0  0  0  0  0  0  0  0  0  0  0
   -1.6420   -0.0080    0.1450 C   0  0  0  0  0  0  0  0  0  0  0  0
   -2.8510    0.8380    0.2660 C   0  0  2  0  0  0  0  0  0  0  0  0
   -2.6360    2.2300   -0.1140 C   0  0  0  0  0  0  0  0  0  0  0  0
   -2.3680    2.6750   -1.4210 N   0  0  0  0  0  0  0  0  0  0  0  0
   -2.6960    3.1090    0.8060 O   0  0  0  0  0  0  0  0  0  0  0  0
   -3.4250    0.8100    1.6820 C   0  0  0  0  0  0  0  0  0  0  0  0
   -3.4560   -0.5880    2.2320 C   0  0  0  0  0  0  0  0  0  0  0  0
   -4.1690   -1.4000    1.3220 O   0  0  0  0  0  0  0  0  0  0  0  0
   -4.2320   -1.1250   -0.0280 C   0  0  0  0  0  0  0  0  0  0  0  0
   -4.5150   -2.0530   -0.8160 O   0  0  0  0  0  0  0  0  0  0  0  0
   -3.9780    0.2230   -0.5860 C   0  0  0  0  0  0  0  0  0  0  0  0
  1  2  1  0
  2  3  1  0
  2 12  1  0
  4  3  1  6
  4  5  1  0
  4 11  1  0
  5  6  1  0
  6  7  1  0
  7  8  2  3
  7 10  1  0
  8  9  1  0
 10 11  1  0
 12 13  2  0
 12 14  1  0
 15 14  1  1
 15 16  1  0
 15 19  1  0
 15 24  1  0
 16 17  1  0
 16 18  2  0
 19 20  1  0
 20 21  1  0
 21 22  1  0
 22 23  2  0
 22 24  1  0
M  END
