
     RDKit          3D

 23 23  0  0  0  0  0  0  0  0999 V2000
   -2.5950   -2.2880    2.5660 C   0  0  0  0  0  0  0  0  0  0  0  0
   -2.0990   -2.7850    1.4600 C   0  0  0  0  0  0  0  0  0  0  0  0
   -1.7000   -2.0630    0.3030 C   0  0  0  0  0  0  0  0  0  0  0  0
   -1.2120   -2.8110   -0.7040 C   0  0  0  0  0  0  0  0  0  0  0  0
   -0.7210   -2.3470   -2.0200 C   0  0  0  0  0  0  0  0  0  0  0  0
   -1.1940   -1.2780   -2.7020 C   0  0  0  0  0  0  0  0  0  0  0  0
   -2.2840   -0.4320   -2.2030 C   0  0  0  0  0  0  0  0  0  0  0  0
   -2.5540   -0.1480   -0.9380 C   0  0  0  0  0  0  0  0  0  0  0  0
   -3.7570    0.7370   -0.8770 C   0  0  0  0  0  0  0  0  0  0  0  0
   -1.8620   -0.6100    0.2660 C   0  0  2  0  0  0  0  0  0  0  0  0
   -0.5800    0.1490    0.5940 C   0  0  0  0  0  0  0  0  0  0  0  0
   -0.6830    1.5970    0.4970 C   0  0  0  0  0  0  0  0  0  0  0  0
   -1.8140    2.1250    0.1710 O   0  0  0  0  0  0  0  0  0  0  0  0
    0.3990    2.5760    0.7350 C   0  0  0  0  0  0  0  0  0  0  0  0
   -0.1610    3.9990    0.4140 C   0  0  0  0  0  0  0  0  0  0  0  0
   -0.5740    3.9520   -1.0340 C   0  0  0  0  0  0  0  0  0  0  0  0
    0.4830   -0.5350    0.9230 C   0  0  0  0  0  0  0  0  0  0  0  0
    0.3980   -1.9530    0.9650 O   0  0  0  0  0  0  0  0  0  0  0  0
    1.8140   -0.0670    1.2760 C   0  0  0  0  0  0  0  0  0  0  0  0
    2.8700   -0.5160    0.2650 C   0  0  1  0  0  0  0  0  0  0  0  0
    4.1900    0.0640    0.7960 C   0  0  0  0  0  0  0  0  0  0  0  0
    3.0440   -1.9980    0.2360 C   0  0  0  0  0  0  0  0  0  0  0  0
    2.6340    0.1160   -1.0650 C   0  0  0  0  0  0  0  0  0  0  0  0
  1  2  2  0
  2  3  1  0
  3  4  2  0
  3 10  1  0
  4  5  1  0
  5  6  2  0
  6  7  1  0
  7  8  2  0
  8  9  1  0
  8 10  1  0
 10 11  1  6
 11 12  1  0
 11 17  2  3
 12 13  2  0
 12 14  1  0
 14 15  1  0
 15 16  1  0
 17 18  1  0
 17 19  1  0
 19 20  1  0
 20 21  1  1
 20 22  1  0
 20 23  1  0
M  END
