
     RDKit          3D

 23 24  0  0  0  0  0  0  0  0999 V2000
   -4.6760   -0.1410   -0.8090 C   0  0  0  0  0  0  0  0  0  0  0  0
   -3.3100   -0.1010   -0.8230 O   0  0  0  0  0  0  0  0  0  0  0  0
   -2.6550   -0.6780    0.2180 C   0  0  2  0  0  0  0  0  0  0  0  0
   -3.0480   -2.1690    0.2480 C   0  0  0  0  0  0  0  0  0  0  0  0
   -3.0080   -0.1610    1.5880 C   0  0  0  0  0  0  0  0  0  0  0  0
   -1.1790   -0.5610    0.0360 C   0  0  2  0  0  0  0  0  0  0  0  0
   -0.4680   -1.1470    1.1080 O   0  0  0  0  0  0  0  0  0  0  0  0
   -0.6510    0.7910   -0.1580 C   0  0  0  0  0  0  0  0  0  0  0  0
   -1.3950    1.9430   -0.2270 C   0  0  0  0  0  0  0  0  0  0  0  0
   -0.8280    3.1970   -0.4230 C   0  0  0  0  0  0  0  0  0  0  0  0
   -1.6830    4.4200   -0.4870 C   0  0  0  0  0  0  0  0  0  0  0  0
    0.5490    3.2950   -0.5560 C   0  0  0  0  0  0  0  0  0  0  0  0
    1.3170    2.1560   -0.4910 C   0  0  0  0  0  0  0  0  0  0  0  0
    2.7970    2.2850   -0.6340 C   0  0  0  0  0  0  0  0  0  0  0  0
    0.7160    0.9180   -0.2930 C   0  0  0  0  0  0  0  0  0  0  0  0
    1.6390   -0.2190   -0.2210 C   0  0  0  0  0  0  0  0  0  0  0  0
    2.1950   -0.4530    1.0390 C   0  0  0  0  0  0  0  0  0  0  0  0
    3.0670   -1.5090    1.1900 C   0  0  0  0  0  0  0  0  0  0  0  0
    3.6910   -1.8000    2.5060 C   0  0  0  0  0  0  0  0  0  0  0  0
    3.3760   -2.3090    0.1210 C   0  0  0  0  0  0  0  0  0  0  0  0
    2.8310   -2.0920   -1.1450 C   0  0  0  0  0  0  0  0  0  0  0  0
    3.1520   -2.9480   -2.3110 C   0  0  0  0  0  0  0  0  0  0  0  0
    1.9580   -1.0230   -1.2700 C   0  0  0  0  0  0  0  0  0  0  0  0
  1  2  1  0
  2  3  1  0
  3  4  1  1
  3  5  1  0
  3  6  1  0
  6  7  1  1
  6  8  1  0
  8  9  2  0
  8 15  1  0
  9 10  1  0
 10 11  1  0
 10 12  2  0
 12 13  1  0
 13 14  1  0
 13 15  2  0
 15 16  1  0
 16 17  2  0
 16 23  1  0
 17 18  1  0
 18 19  1  0
 18 20  2  0
 20 21  1  0
 21 22  1  0
 21 23  2  0
M  END
