
     RDKit          3D

  6  6  0  0  0  0  0  0  0  0999 V2000
   -1.5020    0.3640   -0.1450 C   0  0  0  0  0  0  0  0  0  0  0  0
   -0.2510   -0.2090   -0.5060 N   0  0  0  0  0  0  0  0  0  0  0  0
    0.4030   -1.0050    0.5170 C   0  0  0  0  0  0  0  0  0  0  0  0
    1.6630   -0.5460   -0.0980 N   0  0  0  0  0  0  0  0  0  0  0  0
    0.9100    0.6850   -0.4060 C   0  0  2  0  0  0  0  0  0  0  0  0
    0.8960    1.8060    1.1660 Br  0  0  0  0  0  0  0  0  0  0  0  0
  1  2  1  0
  2  3  1  0
  2  5  1  0
  3  4  1  0
  4  5  1  0
  5  6  1  1
M  END
