
     RDKit          3D

 23 24  0  0  0  0  0  0  0  0999 V2000
   -4.1220    3.3820    0.9980 C   0  0  0  0  0  0  0  0  0  0  0  0
   -3.1940    2.9250   -0.0550 C   0  0  0  0  0  0  0  0  0  0  0  0
   -2.7750    1.6850   -0.1420 C   0  0  0  0  0  0  0  0  0  0  0  0
   -3.2660    0.6980    0.8780 C   0  0  0  0  0  0  0  0  0  0  0  0
   -3.8790   -0.4470    0.0930 C   0  0  0  0  0  0  0  0  0  0  0  0
   -2.9180   -1.5590   -0.1560 C   0  0  1  0  0  0  0  0  0  0  0  0
   -2.9180   -2.4890    1.0150 C   0  0  0  0  0  0  0  0  0  0  0  0
   -3.4490   -2.3540   -1.3550 C   0  0  0  0  0  0  0  0  0  0  0  0
   -1.5580   -1.0890   -0.5210 C   0  0  0  0  0  0  0  0  0  0  0  0
   -0.6430   -2.1050   -0.3470 C   0  0  0  0  0  0  0  0  0  0  0  0
    0.7130   -1.9080   -0.6260 C   0  0  0  0  0  0  0  0  0  0  0  0
    1.1920   -0.6980   -1.0840 C   0  0  0  0  0  0  0  0  0  0  0  0
    2.6320   -0.5180   -1.3690 C   0  0  2  0  0  0  0  0  0  0  0  0
    3.2250   -1.5540   -2.0430 O   0  0  0  0  0  0  0  0  0  0  0  0
    3.4150   -0.1210   -0.0920 C   0  0  2  0  0  0  0  0  0  0  0  0
    3.3040   -1.2950    0.8480 C   0  0  0  0  0  0  0  0  0  0  0  0
    2.6620    1.0220    0.5770 C   0  0  0  0  0  0  0  0  0  0  0  0
    4.6190    0.2470   -0.4690 O   0  0  0  0  0  0  0  0  0  0  0  0
    5.6610    0.6050    0.2500 C   0  0  0  0  0  0  0  0  0  0  0  0
    5.5390    1.8250    1.1200 C   0  0  0  0  0  0  0  0  0  0  0  0
    0.2480    0.3130   -1.2530 C   0  0  0  0  0  0  0  0  0  0  0  0
   -1.0840    0.1160   -0.9770 C   0  0  0  0  0  0  0  0  0  0  0  0
   -1.8430    1.3560   -1.2470 C   0  0  0  0  0  0  0  0  0  0  0  0
  1  2  1  0
  2  3  2  3
  3  4  1  0
  3 23  1  0
  4  5  1  0
  5  6  1  0
  6  7  1  1
  6  8  1  0
  6  9  1  0
  9 10  2  0
  9 22  1  0
 10 11  1  0
 11 12  2  0
 12 13  1  0
 12 21  1  0
 13 14  1  1
 13 15  1  0
 15 16  1  1
 15 17  1  0
 15 18  1  0
 18 19  1  0
 19 20  1  0
 21 22  2  0
 22 23  1  0
M  END
