
     RDKit          3D

 23 25  0  0  0  0  0  0  0  0999 V2000
   -4.6460    0.4760   -2.0530 C   0  0  0  0  0  0  0  0  0  0  0  0
   -4.0870   -0.4670   -0.9870 C   0  0  1  0  0  0  0  0  0  0  0  0
   -2.6270   -0.4140   -0.9390 C   0  0  0  0  0  0  0  0  0  0  0  0
   -2.0460   -0.6290   -2.0840 O   0  0  0  0  0  0  0  0  0  0  0  0
   -1.8320   -0.1530    0.2280 C   0  0  0  0  0  0  0  0  0  0  0  0
   -0.4070   -0.0990    0.2750 C   0  0  0  0  0  0  0  0  0  0  0  0
    0.6450   -0.2050   -0.4320 C   0  0  0  0  0  0  0  0  0  0  0  0
    0.8020   -0.4750   -1.8330 C   0  0  0  0  0  0  0  0  0  0  0  0
    2.0250   -0.5620   -2.3040 O   0  0  0  0  0  0  0  0  0  0  0  0
    2.0090   -0.0430    0.3530 C   0  0  0  0  0  0  0  0  0  0  0  0
    2.6500    1.1640   -0.2010 C   0  0  0  0  0  0  0  0  0  0  0  0
    3.9930    1.4780    0.4310 C   0  0  0  0  0  0  0  0  0  0  0  0
    4.9760    0.4050    0.2620 C   0  0  0  0  0  0  0  0  0  0  0  0
    5.5880   -0.2740    1.2130 C   0  0  0  0  0  0  0  0  0  0  0  0
    6.5140   -1.2790    0.5900 C   0  0  0  0  0  0  0  0  0  0  0  0
    6.3280   -1.0610   -0.8550 C   0  0  0  0  0  0  0  0  0  0  0  0
    5.4570   -0.1080   -1.0120 C   0  0  0  0  0  0  0  0  0  0  0  0
   -2.5200    0.0560    1.3830 C   0  0  0  0  0  0  0  0  0  0  0  0
   -3.9550    0.0290    1.4830 C   0  0  0  0  0  0  0  0  0  0  0  0
   -4.8070    0.2020    2.4940 C   0  0  0  0  0  0  0  0  0  0  0  0
   -6.2020    0.0670    2.0480 C   0  0  0  0  0  0  0  0  0  0  0  0
   -6.0490   -0.2130    0.6170 C   0  0  0  0  0  0  0  0  0  0  0  0
   -4.7330   -0.2320    0.3040 C   0  0  0  0  0  0  0  0  0  0  0  0
  2  1  1  6
  2  3  1  0
  2 23  1  0
  3  4  2  0
  3  5  1  0
  5  6  1  0
  5 18  2  0
  6  7  2  3
  7  8  1  0
  7 10  1  0
  8  9  2  0
 10 11  1  0
 11 12  1  0
 12 13  1  0
 13 14  2  0
 13 17  1  0
 14 15  1  0
 15 16  1  0
 16 17  2  0
 18 19  1  0
 19 20  2  0
 19 23  1  0
 20 21  1  0
 21 22  1  0
 22 23  2  0
M  END
