
     RDKit          3D

 23 24  0  0  0  0  0  0  0  0999 V2000
   -0.7590    3.6000   -1.0080 C   0  0  0  0  0  0  0  0  0  0  0  0
   -0.7830    2.8460    0.3450 C   0  0  0  0  0  0  0  0  0  0  0  0
    0.3820    2.0090    0.5470 C   0  0  0  0  0  0  0  0  0  0  0  0
    1.4910    2.5090    1.1380 C   0  0  0  0  0  0  0  0  0  0  0  0
    1.6500    3.9240    1.6360 C   0  0  0  0  0  0  0  0  0  0  0  0
    2.5360    1.5220    1.2400 C   0  0  0  0  0  0  0  0  0  0  0  0
    1.9580    0.3180    0.6470 C   0  0  0  0  0  0  0  0  0  0  0  0
    2.5310   -0.9290    0.4870 C   0  0  0  0  0  0  0  0  0  0  0  0
    3.9140   -1.1800    0.9420 C   0  0  0  0  0  0  0  0  0  0  0  0
    1.7880   -1.8900   -0.0930 C   0  0  0  0  0  0  0  0  0  0  0  0
    2.3410   -3.2560   -0.2950 C   0  0  0  0  0  0  0  0  0  0  0  0
    3.3210   -3.2460   -1.4600 C   0  0  0  0  0  0  0  0  0  0  0  0
    0.4880   -1.6050   -0.5060 C   0  0  0  0  0  0  0  0  0  0  0  0
   -0.1150   -0.3580   -0.3560 C   0  0  0  0  0  0  0  0  0  0  0  0
   -1.5230   -0.1180   -0.7250 C   0  0  1  0  0  0  0  0  0  0  0  0
   -1.7640    0.8920   -1.5940 O   0  0  0  0  0  0  0  0  0  0  0  0
   -1.7590   -1.2320   -1.8360 C   0  0  0  0  0  0  0  0  0  0  0  0
   -3.0270   -1.0460   -2.3790 O   0  0  0  0  0  0  0  0  0  0  0  0
   -2.5490   -0.5070    0.2820 C   0  0  1  0  0  0  0  0  0  0  0  0
   -3.9600   -0.1730   -0.1610 C   0  0  0  0  0  0  0  0  0  0  0  0
   -2.6400   -2.0490    0.4450 C   0  0  0  0  0  0  0  0  0  0  0  0
   -2.2660   -0.0690    1.7050 C   0  0  0  0  0  0  0  0  0  0  0  0
    0.6760    0.6140    0.2420 C   0  0  0  0  0  0  0  0  0  0  0  0
  1  2  1  0
  2  3  1  0
  3  4  2  0
  3 23  1  0
  4  5  1  0
  4  6  1  0
  6  7  1  0
  7  8  2  0
  7 23  1  0
  8  9  1  0
  8 10  1  0
 10 11  1  0
 10 13  2  0
 11 12  1  0
 13 14  1  0
 14 15  1  0
 14 23  2  0
 15 16  1  6
 15 17  1  0
 15 19  1  0
 17 18  1  0
 19 20  1  6
 19 21  1  0
 19 22  1  0
M  END
