
     RDKit          3D

 23 24  0  0  0  0  0  0  0  0999 V2000
    0.3170    4.9220   -1.0260 C   0  0  0  0  0  0  0  0  0  0  0  0
   -0.2900    3.9570   -0.0160 C   0  0  0  0  0  0  0  0  0  0  0  0
   -0.0670    2.5590   -0.3830 C   0  0  0  0  0  0  0  0  0  0  0  0
   -0.9050    1.6200   -0.7030 C   0  0  0  0  0  0  0  0  0  0  0  0
   -0.4220    0.2440   -1.0390 C   0  0  0  0  0  0  0  0  0  0  0  0
    0.7990    0.0500   -1.8080 C   0  0  0  0  0  0  0  0  0  0  0  0
    1.9960    0.4650   -1.2650 O   0  0  0  0  0  0  0  0  0  0  0  0
    2.4070   -0.1890   -0.1310 C   0  0  2  0  0  0  0  0  0  0  0  0
    2.8710    0.6890    1.0000 C   0  0  0  0  0  0  0  0  0  0  0  0
    3.4460   -0.3640    1.9540 C   0  0  0  0  0  0  0  0  0  0  0  0
    4.2190   -1.2540    1.0040 C   0  0  0  0  0  0  0  0  0  0  0  0
    3.7040   -0.9750   -0.3920 C   0  0  0  0  0  0  0  0  0  0  0  0
   -1.2140   -0.7810   -0.6270 C   0  0  0  0  0  0  0  0  0  0  0  0
   -0.8340   -2.1430   -0.9130 C   0  0  0  0  0  0  0  0  0  0  0  0
   -1.4080   -3.2840   -0.6720 C   0  0  0  0  0  0  0  0  0  0  0  0
   -0.5880   -4.5030   -1.1800 C   0  0  0  0  0  0  0  0  0  0  0  0
   -2.6790   -3.6340   -0.0570 C   0  0  0  0  0  0  0  0  0  0  0  0
   -2.3750   -0.4910    0.2180 C   0  0  1  0  0  0  0  0  0  0  0  0
   -1.9990   -0.6740    1.7080 C   0  0  0  0  0  0  0  0  0  0  0  0
   -0.8930    0.2780    2.1120 C   0  0  0  0  0  0  0  0  0  0  0  0
   -3.0800    0.8100    0.0580 C   0  0  0  0  0  0  0  0  0  0  0  0
   -2.3790    1.7640   -0.8330 C   0  0  1  0  0  0  0  0  0  0  0  0
   -2.8290    3.0800   -0.6600 O   0  0  0  0  0  0  0  0  0  0  0  0
  1  2  1  0
  2  3  1  0
  3  4  2  3
  4  5  1  0
  4 22  1  0
  5  6  1  0
  5 13  2  0
  6  7  1  0
  8  7  1  6
  8  9  1  0
  8 12  1  0
  9 10  1  0
 10 11  1  0
 11 12  1  0
 13 14  1  0
 13 18  1  0
 14 15  2  3
 15 16  1  0
 15 17  1  0
 18 19  1  1
 18 21  1  0
 19 20  1  0
 21 22  1  0
 22 23  1  1
M  END
