
     RDKit          3D

 23 25  0  0  0  0  0  0  0  0999 V2000
   -0.1750    4.1640    0.6360 C   0  0  0  0  0  0  0  0  0  0  0  0
   -0.4250    3.1950   -0.4900 C   0  0  0  0  0  0  0  0  0  0  0  0
    0.5360    2.1050   -0.5680 C   0  0  0  0  0  0  0  0  0  0  0  0
    0.4790    0.8220   -0.4470 C   0  0  0  0  0  0  0  0  0  0  0  0
    1.6600   -0.0820   -0.5980 C   0  0  0  0  0  0  0  0  0  0  0  0
    1.2160   -1.3170   -0.4640 C   0  0  0  0  0  0  0  0  0  0  0  0
    2.1900   -2.4230   -0.5720 C   0  0  0  0  0  0  0  0  0  0  0  0
    1.7280   -3.5840   -0.6040 O   0  0  0  0  0  0  0  0  0  0  0  0
    3.6490   -2.1960   -0.6410 C   0  0  0  0  0  0  0  0  0  0  0  0
    3.9330   -0.7860   -0.1830 C   0  0  1  0  0  0  0  0  0  0  0  0
    3.7810   -0.6180    1.2960 C   0  0  0  0  0  0  0  0  0  0  0  0
    5.3410   -0.4490   -0.6630 C   0  0  0  0  0  0  0  0  0  0  0  0
    3.0000    0.0950   -0.8280 O   0  0  0  0  0  0  0  0  0  0  0  0
   -0.2180   -1.2940   -0.2250 C   0  0  0  0  0  0  0  0  0  0  0  0
   -0.6520   -0.0390   -0.2050 C   0  0  0  0  0  0  0  0  0  0  0  0
   -2.1060   -0.0860    0.1340 C   0  0  0  0  0  0  0  0  0  0  0  0
   -2.6670    0.6480    1.0270 C   0  0  0  0  0  0  0  0  0  0  0  0
   -1.9710    1.6370    1.8760 C   0  0  0  0  0  0  0  0  0  0  0  0
   -4.1630    0.5750    1.2340 C   0  0  0  0  0  0  0  0  0  0  0  0
   -2.5220   -1.2790   -0.6700 C   0  0  2  0  0  0  0  0  0  0  0  0
   -2.2710   -1.1020   -2.1310 C   0  0  0  0  0  0  0  0  0  0  0  0
   -3.7720   -1.9570   -0.3030 C   0  0  0  0  0  0  0  0  0  0  0  0
   -1.3940   -2.2290   -0.0740 C   0  0  0  0  0  0  0  0  0  0  0  0
  1  2  1  0
  2  3  1  0
  3  4  2  3
  4  5  1  0
  4 15  1  0
  5  6  2  0
  5 13  1  0
  6  7  1  0
  6 14  1  0
  7  8  2  0
  7  9  1  0
  9 10  1  0
 10 11  1  1
 10 12  1  0
 10 13  1  0
 14 15  2  0
 14 23  1  0
 15 16  1  0
 16 17  2  3
 16 20  1  0
 17 18  1  0
 17 19  1  0
 20 21  1  6
 20 22  1  0
 20 23  1  0
M  END
