
     RDKit          3D

 22 23  0  0  0  0  0  0  0  0999 V2000
   -5.1590    2.0330   -0.1010 C   0  0  0  0  0  0  0  0  0  0  0  0
   -4.1270    0.9730    0.0360 C   0  0  0  0  0  0  0  0  0  0  0  0
   -3.1340    0.9240   -0.7940 C   0  0  0  0  0  0  0  0  0  0  0  0
   -2.0350   -0.0050   -0.8560 C   0  0  0  0  0  0  0  0  0  0  0  0
   -2.1690   -1.3520   -0.9470 C   0  0  0  0  0  0  0  0  0  0  0  0
   -3.5190   -1.9490   -1.0860 C   0  0  0  0  0  0  0  0  0  0  0  0
   -1.0860   -2.2110   -0.9590 C   0  0  0  0  0  0  0  0  0  0  0  0
   -1.3180   -3.6890   -1.0600 C   0  0  0  0  0  0  0  0  0  0  0  0
    0.1930   -1.6960   -0.8760 C   0  0  0  0  0  0  0  0  0  0  0  0
    0.3820   -0.3370   -0.7840 C   0  0  0  0  0  0  0  0  0  0  0  0
    1.7580    0.1620   -0.7230 C   0  0  0  0  0  0  0  0  0  0  0  0
    2.8050   -0.6680   -0.8460 C   0  0  0  0  0  0  0  0  0  0  0  0
    4.1590   -0.0470   -0.7680 C   0  0  0  0  0  0  0  0  0  0  0  0
    4.3160    0.7770    0.4900 C   0  0  1  0  0  0  0  0  0  0  0  0
    4.6510   -0.0910    1.6780 C   0  0  0  0  0  0  0  0  0  0  0  0
    5.5400    1.6730    0.2530 C   0  0  0  0  0  0  0  0  0  0  0  0
    3.0960    1.6130    0.7220 C   0  0  0  0  0  0  0  0  0  0  0  0
    2.1600    1.5680   -0.5040 C   0  0  0  0  0  0  0  0  0  0  0  0
   -0.7260    0.5040   -0.7740 C   0  0  0  0  0  0  0  0  0  0  0  0
   -0.5880    1.8580   -0.6860 O   0  0  0  0  0  0  0  0  0  0  0  0
   -4.2760    0.0390    1.1660 C   0  0  0  0  0  0  0  0  0  0  0  0
   -5.4680   -0.7140    1.1030 O   0  0  0  0  0  0  0  0  0  0  0  0
  1  2  1  0
  2  3  2  3
  2 21  1  0
  3  4  1  0
  4  5  2  0
  4 19  1  0
  5  6  1  0
  5  7  1  0
  7  8  1  0
  7  9  2  0
  9 10  1  0
 10 11  1  0
 10 19  2  0
 11 12  2  0
 11 18  1  0
 12 13  1  0
 13 14  1  0
 14 15  1  1
 14 16  1  0
 14 17  1  0
 17 18  1  0
 19 20  1  0
 21 22  1  0
M  END
