
     RDKit          3D

 13 12  0  0  0  0  0  0  0  0999 V2000
    4.4820    0.8600   -0.3020 C   0  0  0  0  0  0  0  0  0  0  0  0
    3.2150    0.2400   -0.2830 O   0  0  0  0  0  0  0  0  0  0  0  0
    3.0340   -0.9010    0.4820 C   0  0  0  0  0  0  0  0  0  0  0  0
    4.0090   -1.3460    1.1340 O   0  0  0  0  0  0  0  0  0  0  0  0
    1.7040   -1.5610    0.5100 C   0  0  0  0  0  0  0  0  0  0  0  0
    0.7200   -0.9090   -0.2550 N   0  0  0  0  0  0  0  0  0  0  0  0
    0.8260   -0.8900   -1.6530 C   0  0  0  0  0  0  0  0  0  0  0  0
   -0.3790   -0.3170    0.3810 C   0  0  1  0  0  0  0  0  0  0  0  0
    0.0340    0.8070    1.3060 C   0  0  0  0  0  0  0  0  0  0  0  0
   -1.4200    0.1180   -0.6040 C   0  0  0  0  0  0  0  0  0  0  0  0
   -2.5740    0.7330   -0.0240 N   0  0  2  0  0  0  0  0  0  0  0  0
   -3.2930   -0.1230    0.8870 C   0  0  0  0  0  0  0  0  0  0  0  0
   -3.4940    1.0600   -1.1070 C   0  0  0  0  0  0  0  0  0  0  0  0
  1  2  1  0
  2  3  1  0
  3  4  2  0
  3  5  1  0
  5  6  1  0
  6  7  1  0
  6  8  1  0
  8  9  1  6
  8 10  1  0
 10 11  1  0
 11 12  1  1
 11 13  1  0
M  CHG  1  11   1
M  END
