
     RDKit          3D

 13 12  0  0  0  0  0  0  0  0999 V2000
    4.1410    0.5970    0.6950 C   0  0  0  0  0  0  0  0  0  0  0  0
    2.8100   -0.1010    0.5880 C   0  0  0  0  0  0  0  0  0  0  0  0
    2.1030    0.2430   -0.6250 N   0  0  2  0  0  0  0  0  0  0  0  0
    2.7180    1.3830   -1.3050 C   0  0  0  0  0  0  0  0  0  0  0  0
    0.7440    0.5160   -0.2950 C   0  0  0  0  0  0  0  0  0  0  0  0
   -0.1800   -0.6550   -0.4180 C   0  0  1  0  0  0  0  0  0  0  0  0
    0.1630   -1.8150    0.4450 C   0  0  0  0  0  0  0  0  0  0  0  0
   -1.5510   -0.1780   -0.0110 C   0  0  0  0  0  0  0  0  0  0  0  0
   -2.4990   -0.2530   -0.8610 N   0  0  0  0  0  0  0  0  0  0  0  0
   -3.7460    0.1530   -0.5720 O   0  0  0  0  0  0  0  0  0  0  0  0
   -4.9360   -0.2930   -1.1630 C   0  0  0  0  0  0  0  0  0  0  0  0
   -1.7890    0.3320    1.2470 O   0  0  0  0  0  0  0  0  0  0  0  0
   -3.0120    0.8530    1.7020 C   0  0  0  0  0  0  0  0  0  0  0  0
  1  2  1  0
  2  3  1  0
  3  4  1  1
  3  5  1  0
  5  6  1  0
  6  7  1  1
  6  8  1  0
  8  9  2  3
  8 12  1  0
  9 10  1  0
 10 11  1  0
 12 13  1  0
M  CHG  1   3   1
M  END
