
     RDKit          3D

 23 24  0  0  0  0  0  0  0  0999 V2000
   -1.9640   -1.1180   -3.6700 C   0  0  0  0  0  0  0  0  0  0  0  0
   -0.8450   -0.7030   -2.7680 C   0  0  0  0  0  0  0  0  0  0  0  0
    0.3670   -0.4580   -3.1380 N   0  0  0  0  0  0  0  0  0  0  0  0
    1.1040   -0.0960   -1.9610 C   0  0  0  0  0  0  0  0  0  0  0  0
    2.3900    0.2420   -1.9040 C   0  0  0  0  0  0  0  0  0  0  0  0
    3.1810    0.2660   -3.1260 C   0  0  0  0  0  0  0  0  0  0  0  0
    4.4640    0.5900   -3.1530 C   0  0  0  0  0  0  0  0  0  0  0  0
    5.0970    0.9350   -1.9110 N   0  0  0  0  0  0  0  0  0  0  0  0
    5.2270    0.5950   -4.4120 C   0  0  0  0  0  0  0  0  0  0  0  0
    6.5810   -0.5620   -4.2290 Cl  0  0  0  0  0  0  0  0  0  0  0  0
    0.1690   -0.1590   -0.8570 C   0  0  0  0  0  0  0  0  0  0  0  0
    0.3930    0.1190    0.5260 N   0  0  0  0  0  0  0  0  0  0  0  0
   -0.6720   -0.1620    1.4380 C   0  0  1  0  0  0  0  0  0  0  0  0
   -0.8970   -1.6690    1.4560 C   0  0  0  0  0  0  0  0  0  0  0  0
   -2.1790   -1.8940    2.1840 C   0  0  0  0  0  0  0  0  0  0  0  0
   -2.6160   -0.8550    3.1360 C   0  0  0  0  0  0  0  0  0  0  0  0
   -1.7420    0.1840    3.5090 N   0  0  0  0  0  0  0  0  0  0  0  0
   -2.5180    1.7290    3.4360 S   0  0  1  0  0  0  0  0  0  0  0  0
   -3.9040    1.7990    4.5680 C   0  0  0  0  0  0  0  0  0  0  0  0
   -1.5740    2.8400    3.7780 O   0  0  0  0  0  0  0  0  0  0  0  0
   -3.0440    1.9190    2.0430 O   0  0  0  0  0  0  0  0  0  0  0  0
   -0.4460    0.2230    2.8620 C   0  0  0  0  0  0  0  0  0  0  0  0
   -0.9670   -0.5190   -1.3690 N   0  0  0  0  0  0  0  0  0  0  0  0
  1  2  1  0
  2  3  2  0
  2 23  1  0
  3  4  1  0
  4  5  2  3
  4 11  1  0
  5  6  1  0
  6  7  2  3
  7  8  1  0
  7  9  1  0
  9 10  1  0
 11 12  1  0
 11 23  2  0
 13 12  1  6
 13 14  1  0
 13 22  1  0
 14 15  1  0
 15 16  1  0
 16 17  1  0
 17 18  1  0
 17 22  1  0
 18 19  1  1
 18 20  2  0
 18 21  2  0
M  END
