
     RDKit          3D

 13 12  0  0  0  0  0  0  0  0999 V2000
    4.7510    0.9290    0.4070 C   0  0  0  0  0  0  0  0  0  0  0  0
    3.7950    0.4550   -0.5190 O   0  0  0  0  0  0  0  0  0  0  0  0
    2.5650   -0.0170   -0.0490 C   0  0  0  0  0  0  0  0  0  0  0  0
    2.3970    0.0180    1.2140 O   0  0  0  0  0  0  0  0  0  0  0  0
    1.5450   -0.5150   -0.9470 C   0  0  0  0  0  0  0  0  0  0  0  0
    1.8010   -0.5290   -2.3980 C   0  0  0  0  0  0  0  0  0  0  0  0
    0.4300   -0.9410   -0.5030 N   0  0  0  0  0  0  0  0  0  0  0  0
    0.1910   -0.9240    0.8990 C   0  0  0  0  0  0  0  0  0  0  0  0
   -0.7040   -0.0990    1.3940 C   0  0  0  0  0  0  0  0  0  0  0  0
   -1.4560    0.8010    0.5090 C   0  0  0  0  0  0  0  0  0  0  0  0
   -2.8770    0.4700    0.6720 N   0  0  1  0  0  0  0  0  0  0  0  0
   -3.6870    1.0340   -0.3690 C   0  0  0  0  0  0  0  0  0  0  0  0
   -2.9540   -0.9940    0.5480 C   0  0  0  0  0  0  0  0  0  0  0  0
  1  2  1  0
  2  3  1  0
  3  4  2  0
  3  5  1  0
  5  6  1  0
  5  7  2  3
  7  8  1  0
  8  9  2  3
  9 10  1  0
 10 11  1  0
 11 12  1  6
 11 13  1  0
M  CHG  1  11   1
M  END
