
     RDKit          3D

 13 13  0  0  0  0  0  0  0  0999 V2000
    4.4470    0.4800    0.0320 C   0  0  0  0  0  0  0  0  0  0  0  0
    3.3350    0.8080   -0.7020 O   0  0  0  0  0  0  0  0  0  0  0  0
    2.4410   -0.2220   -0.8880 C   0  0  0  0  0  0  0  0  0  0  0  0
    1.9230   -0.7470    0.3610 N   0  0  1  0  0  0  0  0  0  0  0  0
    1.4060    0.3670    1.1220 C   0  0  0  0  0  0  0  0  0  0  0  0
    0.0770    0.6460    0.4650 C   0  0  0  0  0  0  0  0  0  0  0  0
   -0.3310   -0.6220   -0.0420 N   0  0  0  0  0  0  0  0  0  0  0  0
   -1.6340   -0.9820    0.3510 C   0  0  0  0  0  0  0  0  0  0  0  0
   -2.7150   -0.1400   -0.3170 C   0  0  2  0  0  0  0  0  0  0  0  0
   -2.6230   -0.4280   -1.8020 C   0  0  0  0  0  0  0  0  0  0  0  0
   -2.5630    1.1790   -0.0130 O   0  0  0  0  0  0  0  0  0  0  0  0
   -3.6150    1.7830    0.6310 C   0  0  0  0  0  0  0  0  0  0  0  0
    0.7250   -1.5520    0.1330 C   0  0  0  0  0  0  0  0  0  0  0  0
  1  2  1  0
  2  3  1  0
  4  3  1  6
  4  5  1  0
  4 13  1  0
  5  6  1  0
  6  7  1  0
  7  8  1  0
  7 13  1  0
  8  9  1  0
  9 10  1  6
  9 11  1  0
 11 12  1  0
M  CHG  1   4   1
M  END
