
     RDKit          3D

 13 13  0  0  0  0  0  0  0  0999 V2000
    3.5590    1.1390    0.8070 C   0  0  0  0  0  0  0  0  0  0  0  0
    2.6190    0.0370    0.5040 C   0  0  0  0  0  0  0  0  0  0  0  0
    1.7190    0.2110   -0.3850 N   0  0  0  0  0  0  0  0  0  0  0  0
    0.7680   -0.7720   -0.7560 C   0  0  0  0  0  0  0  0  0  0  0  0
   -0.4890   -0.8510   -0.4040 C   0  0  0  0  0  0  0  0  0  0  0  0
   -1.2190    0.0160    0.4300 N   0  0  0  0  0  0  0  0  0  0  0  0
   -1.6190   -0.3960    1.7500 C   0  0  0  0  0  0  0  0  0  0  0  0
   -1.5680    1.3300   -0.0540 C   0  0  0  0  0  0  0  0  0  0  0  0
   -3.0610    1.4780   -0.2800 C   0  0  0  0  0  0  0  0  0  0  0  0
   -1.0350   -2.0400   -1.0540 C   0  0  0  0  0  0  0  0  0  0  0  0
   -2.2240   -2.4690   -0.9680 O   0  0  0  0  0  0  0  0  0  0  0  0
   -0.0610   -2.6750   -1.8110 O   0  0  0  0  0  0  0  0  0  0  0  0
    1.1200   -1.9150   -1.6560 C   0  0  0  0  0  0  0  0  0  0  0  0
  1  2  1  0
  2  3  2  3
  3  4  1  0
  4  5  2  0
  4 13  1  0
  5  6  1  0
  5 10  1  0
  6  7  1  0
  6  8  1  0
  8  9  1  0
 10 11  2  0
 10 12  1  0
 12 13  1  0
M  CHG  1   3   1
M  END
