
     RDKit          3D

 13 13  0  0  0  0  0  0  0  0999 V2000
    4.4630    0.5460    0.6110 C   0  0  0  0  0  0  0  0  0  0  0  0
    3.7960    0.5180   -0.5740 O   0  0  0  0  0  0  0  0  0  0  0  0
    2.9560   -0.5230   -0.8190 C   0  0  0  0  0  0  0  0  0  0  0  0
    1.8490   -0.6840    0.0940 N   0  0  2  0  0  0  0  0  0  0  0  0
    1.5570   -2.1060    0.1450 C   0  0  0  0  0  0  0  0  0  0  0  0
    0.7090    0.0970   -0.3340 C   0  0  0  0  0  0  0  0  0  0  0  0
   -0.5450   -0.4430    0.2730 C   0  0  0  0  0  0  0  0  0  0  0  0
   -1.7430    0.2510   -0.0750 N   0  0  0  0  0  0  0  0  0  0  0  0
   -1.8670    1.5730    0.4380 C   0  0  0  0  0  0  0  0  0  0  0  0
   -3.1840    1.9870    0.9560 C   0  0  0  0  0  0  0  0  0  0  0  0
   -4.2700    1.2340    0.6510 O   0  0  0  0  0  0  0  0  0  0  0  0
   -4.1070    0.1570   -0.1530 C   0  0  0  0  0  0  0  0  0  0  0  0
   -2.8730   -0.6020    0.2180 C   0  0  0  0  0  0  0  0  0  0  0  0
  1  2  1  0
  2  3  1  0
  3  4  1  0
  4  5  1  6
  4  6  1  0
  6  7  1  0
  7  8  1  0
  8  9  1  0
  8 13  1  0
  9 10  1  0
 10 11  1  0
 11 12  1  0
 12 13  1  0
M  CHG  1   4   1
M  END
