
     RDKit          3D

 32 35  0  0  0  0  0  0  0  0999 V2000
    7.8940    0.4700    0.6290 C   0  0  0  0  0  0  0  0  0  0  0  0
    6.5190    0.5780    1.0060 N   0  0  0  0  0  0  0  0  0  0  0  0
    5.7310   -0.5360    0.5410 C   0  0  0  0  0  0  0  0  0  0  0  0
    4.3120   -0.4330    0.9270 C   0  0  0  0  0  0  0  0  0  0  0  0
    3.8190   -0.9370    2.1280 C   0  0  0  0  0  0  0  0  0  0  0  0
    2.4740   -0.8140    2.4420 C   0  0  0  0  0  0  0  0  0  0  0  0
    1.5800   -0.1990    1.5980 C   0  0  0  0  0  0  0  0  0  0  0  0
    2.0640    0.3060    0.4000 C   0  0  0  0  0  0  0  0  0  0  0  0
    1.1590    0.9750   -0.5410 C   0  0  2  0  0  0  0  0  0  0  0  0
    0.7220    2.3380   -0.0780 C   0  0  0  0  0  0  0  0  0  0  0  0
   -0.0070    2.9100   -1.2730 C   0  0  0  0  0  0  0  0  0  0  0  0
    0.3480    3.9490   -1.8250 O   0  0  0  0  0  0  0  0  0  0  0  0
   -1.1540    2.1630   -1.7340 N   0  0  0  0  0  0  0  0  0  0  0  0
   -1.0330    0.7350   -1.5250 C   0  0  0  0  0  0  0  0  0  0  0  0
   -2.1690   -0.0800   -2.0390 C   0  0  0  0  0  0  0  0  0  0  0  0
   -1.9860   -0.7800   -3.2050 C   0  0  0  0  0  0  0  0  0  0  0  0
   -2.9970   -1.5710   -3.6860 C   0  0  0  0  0  0  0  0  0  0  0  0
   -4.1820   -1.6560   -3.0000 C   0  0  0  0  0  0  0  0  0  0  0  0
   -4.3970   -0.9700   -1.8330 C   0  0  0  0  0  0  0  0  0  0  0  0
   -3.3430   -0.1610   -1.3540 C   0  0  0  0  0  0  0  0  0  0  0  0
   -3.6000    0.5310   -0.1470 N   0  0  0  0  0  0  0  0  0  0  0  0
   -3.8020    1.9470   -0.1080 C   0  0  0  0  0  0  0  0  0  0  0  0
   -3.6530   -0.2130    1.0550 C   0  0  0  0  0  0  0  0  0  0  0  0
   -3.8590    0.4010    2.2850 C   0  0  0  0  0  0  0  0  0  0  0  0
   -3.9140   -0.3100    3.4640 C   0  0  0  0  0  0  0  0  0  0  0  0
   -3.7610   -1.6920    3.4510 C   0  0  0  0  0  0  0  0  0  0  0  0
   -3.5580   -2.3080    2.2460 C   0  0  0  0  0  0  0  0  0  0  0  0
   -3.5060   -1.5830    1.0720 C   0  0  0  0  0  0  0  0  0  0  0  0
    0.0200    0.1810   -0.9770 C   0  0  0  0  0  0  0  0  0  0  0  0
   -0.0030   -1.2890   -0.7950 C   0  0  0  0  0  0  0  0  0  0  0  0
   -0.9480   -2.0200   -1.1180 O   0  0  0  0  0  0  0  0  0  0  0  0
    3.4000    0.1800    0.0940 C   0  0  0  0  0  0  0  0  0  0  0  0
  1  2  1  0
  2  3  1  0
  3  4  1  0
  4  5  2  0
  4 32  1  0
  5  6  1  0
  6  7  2  0
  7  8  1  0
  9  8  1  1
  8 32  2  0
  9 10  1  0
  9 29  1  0
 10 11  1  0
 11 12  2  0
 11 13  1  0
 13 14  1  0
 14 15  1  0
 14 29  2  0
 15 16  2  0
 15 20  1  0
 16 17  1  0
 17 18  2  0
 18 19  1  0
 19 20  2  0
 20 21  1  0
 21 22  1  0
 21 23  1  0
 23 24  2  0
 23 28  1  0
 24 25  1  0
 25 26  2  0
 26 27  1  0
 27 28  2  0
 29 30  1  0
 30 31  2  0
M  END
