
     RDKit          3D

 32 34  0  0  0  0  0  0  0  0999 V2000
   -7.4010    1.0160    1.6650 C   0  0  0  0  0  0  0  0  0  0  0  0
   -7.9870    0.5530    0.5850 C   0  0  0  0  0  0  0  0  0  0  0  0
   -7.3060   -0.3160   -0.3890 C   0  0  0  0  0  0  0  0  0  0  0  0
   -5.9640   -0.6090   -0.0840 O   0  0  0  0  0  0  0  0  0  0  0  0
   -5.0070    0.3780   -0.0710 C   0  0  0  0  0  0  0  0  0  0  0  0
   -5.3350    1.5530   -0.3450 O   0  0  0  0  0  0  0  0  0  0  0  0
   -3.5810    0.1120    0.2580 C   0  0  0  0  0  0  0  0  0  0  0  0
   -2.7210    0.0030   -0.9840 C   0  0  2  0  0  0  0  0  0  0  0  0
   -3.2440   -1.1280   -1.8210 C   0  0  0  0  0  0  0  0  0  0  0  0
   -3.2300   -2.4010   -1.1750 N   0  0  0  0  0  0  0  0  0  0  0  0
   -1.3610   -0.1870   -0.5420 N   0  0  0  0  0  0  0  0  0  0  0  0
   -0.2890    0.6830   -0.8150 C   0  0  0  0  0  0  0  0  0  0  0  0
   -0.5700    1.6950   -1.5260 O   0  0  0  0  0  0  0  0  0  0  0  0
    1.0860    0.5660   -0.3990 C   0  0  0  0  0  0  0  0  0  0  0  0
    2.0580    0.7650   -1.3130 N   0  0  0  0  0  0  0  0  0  0  0  0
    3.3720    0.6950   -1.0570 C   0  0  0  0  0  0  0  0  0  0  0  0
    3.8160    0.4040    0.2060 C   0  0  0  0  0  0  0  0  0  0  0  0
    5.1740    0.3300    0.5110 N   0  0  0  0  0  0  0  0  0  0  0  0
    6.2200    0.4760   -0.4070 C   0  0  0  0  0  0  0  0  0  0  0  0
    6.1170    0.7030   -1.7000 N   0  0  0  0  0  0  0  0  0  0  0  0
    7.1480    0.8350   -2.5480 C   0  0  0  0  0  0  0  0  0  0  0  0
    6.8870    1.0490   -3.7580 O   0  0  0  0  0  0  0  0  0  0  0  0
    8.3920    0.7320   -2.0600 N   0  0  0  0  0  0  0  0  0  0  0  0
    8.5700    0.5010   -0.7500 C   0  0  0  0  0  0  0  0  0  0  0  0
    9.7550    0.4030   -0.2860 O   0  0  0  0  0  0  0  0  0  0  0  0
    7.5090    0.3760    0.0590 N   0  0  0  0  0  0  0  0  0  0  0  0
    2.8670    0.1860    1.2180 C   0  0  0  0  0  0  0  0  0  0  0  0
    3.2280   -0.0840    2.5140 C   0  0  0  0  0  0  0  0  0  0  0  0
    2.2380   -0.2590    3.4700 C   0  0  0  0  0  0  0  0  0  0  0  0
    0.9190   -0.1640    3.1320 C   0  0  0  0  0  0  0  0  0  0  0  0
    0.5290    0.1060    1.8340 C   0  0  0  0  0  0  0  0  0  0  0  0
    1.4970    0.2780    0.8740 C   0  0  0  0  0  0  0  0  0  0  0  0
  1  2  2  0
  2  3  1  0
  3  4  1  0
  4  5  1  0
  5  6  2  0
  5  7  1  0
  8  7  1  1
  8  9  1  0
  8 11  1  0
  9 10  1  0
 11 12  1  0
 12 13  2  0
 12 14  1  0
 14 15  2  0
 14 32  1  0
 15 16  1  0
 16 17  2  0
 17 18  1  0
 17 27  1  0
 18 19  1  0
 19 20  2  0
 19 26  1  0
 20 21  1  0
 21 22  2  0
 21 23  1  0
 23 24  1  0
 24 25  2  0
 24 26  1  0
 27 28  2  0
 27 32  1  0
 28 29  1  0
 29 30  2  0
 30 31  1  0
 31 32  2  0
M  CHG  1  10   1
M  END
