
     RDKit          3D

 32 35  0  0  0  0  0  0  0  0999 V2000
    7.1060    1.2690   -1.3530 O   0  0  0  0  0  0  0  0  0  0  0  0
    5.8890    0.9590   -1.9440 C   0  0  0  0  0  0  0  0  0  0  0  0
    5.0930    0.0920   -1.0320 C   0  0  0  0  0  0  0  0  0  0  0  0
    5.5900   -0.2810    0.1840 C   0  0  0  0  0  0  0  0  0  0  0  0
    4.8820   -1.0750    1.0410 C   0  0  0  0  0  0  0  0  0  0  0  0
    3.6300   -1.5190    0.6790 C   0  0  0  0  0  0  0  0  0  0  0  0
    3.1080   -1.1600   -0.5340 C   0  0  0  0  0  0  0  0  0  0  0  0
    1.7590   -1.6580   -0.8850 C   0  0  0  0  0  0  0  0  0  0  0  0
    0.6880   -0.6870   -0.4230 C   0  0  0  0  0  0  0  0  0  0  0  0
    0.7220   -0.4850    1.0610 C   0  0  0  0  0  0  0  0  0  0  0  0
   -0.3600    0.4340    1.5530 C   0  0  0  0  0  0  0  0  0  0  0  0
   -0.0140    1.6420    1.9200 C   0  0  0  0  0  0  0  0  0  0  0  0
   -0.7920    2.6760    2.4030 N   0  0  0  0  0  0  0  0  0  0  0  0
   -1.0510    3.7650    1.8350 C   0  0  0  0  0  0  0  0  0  0  0  0
   -0.5870    4.1750    0.5350 C   0  0  0  0  0  0  0  0  0  0  0  0
    0.1810    3.5420   -0.3890 C   0  0  0  0  0  0  0  0  0  0  0  0
    0.3590    4.3640   -1.4930 C   0  0  0  0  0  0  0  0  0  0  0  0
   -0.3180    5.5140   -1.2220 C   0  0  0  0  0  0  0  0  0  0  0  0
   -0.8820    5.3990   -0.0110 N   0  0  0  0  0  0  0  0  0  0  0  0
   -1.7100   -0.0880    1.6070 C   0  0  0  0  0  0  0  0  0  0  0  0
   -1.9380   -1.3740    1.2230 C   0  0  0  0  0  0  0  0  0  0  0  0
   -3.3300   -1.7950    1.3130 C   0  0  0  0  0  0  0  0  0  0  0  0
   -3.8180   -2.5800    0.3430 C   0  0  0  0  0  0  0  0  0  0  0  0
   -3.0410   -3.0310   -0.7850 C   0  0  0  0  0  0  0  0  0  0  0  0
   -3.5120   -3.8180   -1.7470 C   0  0  0  0  0  0  0  0  0  0  0  0
   -4.9070   -4.2130   -1.5940 C   0  0  0  0  0  0  0  0  0  0  0  0
   -5.6120   -3.8240   -0.6060 N   0  0  0  0  0  0  0  0  0  0  0  0
   -5.2250   -2.9810    0.4820 C   0  0  0  0  0  0  0  0  0  0  0  0
   -4.1080   -1.3350    2.4630 C   0  0  0  0  0  0  0  0  0  0  0  0
   -3.6930   -0.1070    2.9480 O   0  0  0  0  0  0  0  0  0  0  0  0
   -2.9190    0.6070    2.0470 C   0  0  0  0  0  0  0  0  0  0  0  0
    3.8450   -0.3490   -1.3960 C   0  0  0  0  0  0  0  0  0  0  0  0
  1  2  1  0
  2  3  1  0
  3  4  2  0
  3 32  1  0
  4  5  1  0
  5  6  2  0
  6  7  1  0
  7  8  1  0
  7 32  2  0
  8  9  1  0
  9 10  1  0
 10 11  1  0
 11 12  2  3
 11 20  1  0
 12 13  1  0
 13 14  2  3
 14 15  1  0
 15 16  2  0
 15 19  1  0
 16 17  1  0
 17 18  2  0
 18 19  1  0
 20 21  2  0
 20 31  1  0
 21 22  1  0
 22 23  2  3
 22 29  1  0
 23 24  1  0
 23 28  1  0
 24 25  2  0
 25 26  1  0
 26 27  2  0
 27 28  1  0
 29 30  1  0
 30 31  1  0
M  END
