
     RDKit          3D

 31 34  0  0  0  0  0  0  0  0999 V2000
    4.4230    4.3020   -0.0850 C   0  0  0  0  0  0  0  0  0  0  0  0
    5.4250    3.7620    0.9090 C   0  0  0  0  0  0  0  0  0  0  0  0
    6.0020    2.5050    0.4970 N   0  0  0  0  0  0  0  0  0  0  0  0
    5.2090    1.3470    0.3150 C   0  0  0  0  0  0  0  0  0  0  0  0
    5.7420    0.1570   -0.1390 C   0  0  0  0  0  0  0  0  0  0  0  0
    4.9670   -0.9470   -0.3050 C   0  0  0  0  0  0  0  0  0  0  0  0
    3.5840   -0.9640   -0.0330 C   0  0  0  0  0  0  0  0  0  0  0  0
    2.8560   -2.2050   -0.1900 C   0  0  0  0  0  0  0  0  0  0  0  0
    3.5670   -3.2400   -0.3740 O   0  0  0  0  0  0  0  0  0  0  0  0
    1.4300   -2.3530   -0.1540 C   0  0  0  0  0  0  0  0  0  0  0  0
    0.7820   -3.5250   -0.2320 C   0  0  0  0  0  0  0  0  0  0  0  0
    1.3460   -4.8900   -0.3670 C   0  0  0  0  0  0  0  0  0  0  0  0
    0.9410   -5.5640   -1.6690 C   0  0  0  0  0  0  0  0  0  0  0  0
   -0.6390   -3.2940   -0.1330 N   0  0  0  0  0  0  0  0  0  0  0  0
   -0.8490   -1.9710   -0.6680 C   0  0  1  0  0  0  0  0  0  0  0  0
   -2.0390   -1.3270   -0.0120 C   0  0  0  0  0  0  0  0  0  0  0  0
   -2.6100   -1.9380    0.9270 O   0  0  0  0  0  0  0  0  0  0  0  0
   -2.5140   -0.0630   -0.4360 N   0  0  0  0  0  0  0  0  0  0  0  0
   -1.9590    0.6450   -1.5560 C   0  0  0  0  0  0  0  0  0  0  0  0
   -2.9030    1.6970   -2.0530 C   0  0  0  0  0  0  0  0  0  0  0  0
   -4.3320    1.2480   -1.9000 C   0  0  0  0  0  0  0  0  0  0  0  0
   -4.5840    1.1890   -0.4200 C   0  0  0  0  0  0  0  0  0  0  0  0
   -5.6490    1.7450    0.2220 C   0  0  0  0  0  0  0  0  0  0  0  0
   -5.7510    1.6140    1.6020 C   0  0  0  0  0  0  0  0  0  0  0  0
   -6.9160    2.2210    2.3110 C   0  0  0  0  0  0  0  0  0  0  0  0
   -4.7820    0.9280    2.3150 C   0  0  0  0  0  0  0  0  0  0  0  0
   -3.7130    0.3710    1.6660 C   0  0  0  0  0  0  0  0  0  0  0  0
   -3.6150    0.5010    0.3020 C   0  0  0  0  0  0  0  0  0  0  0  0
    0.3820   -1.2830   -0.1030 C   0  0  0  0  0  0  0  0  0  0  0  0
    3.0670    0.2140    0.4160 C   0  0  0  0  0  0  0  0  0  0  0  0
    3.8630    1.3530    0.5870 C   0  0  0  0  0  0  0  0  0  0  0  0
  1  2  1  0
  2  3  1  0
  3  4  1  0
  4  5  2  0
  4 31  1  0
  5  6  1  0
  6  7  2  0
  7  8  1  0
  7 30  1  0
  8  9  2  0
  8 10  1  0
 10 11  2  0
 10 29  1  0
 11 12  1  0
 11 14  1  0
 12 13  1  0
 14 15  1  0
 15 16  1  1
 15 29  1  0
 16 17  2  0
 16 18  1  0
 18 19  1  0
 18 28  1  0
 19 20  1  0
 20 21  1  0
 21 22  1  0
 22 23  2  0
 22 28  1  0
 23 24  1  0
 24 25  1  0
 24 26  2  0
 26 27  1  0
 27 28  2  0
 30 31  2  0
M  END
