
     RDKit          3D

 32 35  0  0  0  0  0  0  0  0999 V2000
   -7.0430    1.4870   -2.9950 C   0  0  0  0  0  0  0  0  0  0  0  0
   -6.2810    0.6940   -1.9760 C   0  0  0  0  0  0  0  0  0  0  0  0
   -4.9280    0.6180   -2.1150 C   0  0  0  0  0  0  0  0  0  0  0  0
   -4.2110   -0.1130   -1.1800 C   0  0  0  0  0  0  0  0  0  0  0  0
   -4.8300   -0.7520   -0.1310 C   0  0  0  0  0  0  0  0  0  0  0  0
   -6.2170   -0.6650   -0.0020 C   0  0  0  0  0  0  0  0  0  0  0  0
   -6.9480    0.0750   -0.9490 C   0  0  0  0  0  0  0  0  0  0  0  0
   -6.9430   -1.3230    1.0930 C   0  0  0  0  0  0  0  0  0  0  0  0
   -6.0750   -2.0290    1.9690 N   0  0  0  0  0  0  0  0  0  0  0  0
   -4.6830   -2.1030    1.8180 C   0  0  0  0  0  0  0  0  0  0  0  0
   -4.0120   -1.5030    0.8160 C   0  0  0  0  0  0  0  0  0  0  0  0
   -2.6160   -1.6380    0.7540 C   0  0  0  0  0  0  0  0  0  0  0  0
   -1.5510   -1.3530    0.1400 C   0  0  0  0  0  0  0  0  0  0  0  0
   -0.1870   -1.8530    0.6180 C   0  0  0  0  0  0  0  0  0  0  0  0
    0.7430   -0.7430    0.9470 C   0  0  2  0  0  0  0  0  0  0  0  0
    0.2250    0.1700    2.0420 C   0  0  0  0  0  0  0  0  0  0  0  0
   -0.3890    1.4440    1.5030 C   0  0  0  0  0  0  0  0  0  0  0  0
    0.6580    2.3050    0.8310 C   0  0  0  0  0  0  0  0  0  0  0  0
    1.6740    1.3270    0.2980 N   0  0  0  0  0  0  0  0  0  0  0  0
    2.9950    1.7490    0.3880 C   0  0  0  0  0  0  0  0  0  0  0  0
    3.2240    2.9450    0.8650 O   0  0  0  0  0  0  0  0  0  0  0  0
    4.1750    1.0180    0.0110 C   0  0  0  0  0  0  0  0  0  0  0  0
    4.2530   -0.2970   -0.3350 C   0  0  0  0  0  0  0  0  0  0  0  0
    5.4670   -0.8840   -0.7340 C   0  0  0  0  0  0  0  0  0  0  0  0
    6.6450   -0.2020   -0.8060 C   0  0  0  0  0  0  0  0  0  0  0  0
    7.8820   -0.7470   -1.1990 N   0  0  0  0  0  0  0  0  0  0  0  0
    8.1290   -2.0680   -1.5830 C   0  0  0  0  0  0  0  0  0  0  0  0
    7.2310   -2.9210   -1.6120 O   0  0  0  0  0  0  0  0  0  0  0  0
    6.5750    1.1530   -0.4500 C   0  0  0  0  0  0  0  0  0  0  0  0
    7.7980    1.9700   -0.4960 C   0  0  0  0  0  0  0  0  0  0  0  0
    5.3950    1.7230   -0.0630 C   0  0  0  0  0  0  0  0  0  0  0  0
    1.0670    0.1480   -0.2350 C   0  0  0  0  0  0  0  0  0  0  0  0
  1  2  1  0
  2  3  2  0
  2  7  1  0
  3  4  1  0
  4  5  2  0
  5  6  1  0
  5 11  1  0
  6  7  2  0
  6  8  1  0
  8  9  1  0
  9 10  1  0
 10 11  2  0
 11 12  1  0
 12 13  2  3
 13 14  1  0
 15 14  1  6
 15 16  1  0
 15 32  1  0
 16 17  1  0
 17 18  1  0
 18 19  1  0
 19 20  1  0
 19 32  1  0
 20 21  2  0
 20 22  1  0
 22 23  2  0
 22 31  1  0
 23 24  1  0
 24 25  2  0
 25 26  1  0
 25 29  1  0
 26 27  1  0
 27 28  2  0
 29 30  1  0
 29 31  2  0
M  END
