
     RDKit          3D

 33 35  0  0  0  0  0  0  0  0999 V2000
   -7.6730    0.7290   -0.3960 C   0  0  0  0  0  0  0  0  0  0  0  0
   -6.5530   -0.1680   -0.3770 O   0  0  0  0  0  0  0  0  0  0  0  0
   -5.3040    0.4050   -0.2300 C   0  0  0  0  0  0  0  0  0  0  0  0
   -5.1210    1.7800   -0.1030 C   0  0  0  0  0  0  0  0  0  0  0  0
   -3.8220    2.2520    0.0390 C   0  0  0  0  0  0  0  0  0  0  0  0
   -2.7100    1.4430    0.0610 C   0  0  0  0  0  0  0  0  0  0  0  0
   -1.3770    2.0740    0.2100 C   0  0  1  0  0  0  0  0  0  0  0  0
   -0.8670    2.1570    1.5190 N   0  0  0  0  0  0  0  0  0  0  0  0
    0.4310    1.7330    1.8670 C   0  0  0  0  0  0  0  0  0  0  0  0
    0.8610    1.8520    3.0640 O   0  0  0  0  0  0  0  0  0  0  0  0
    1.2940    1.1620    0.8990 N   0  0  0  0  0  0  0  0  0  0  0  0
    0.7790    1.0520   -0.4200 C   0  0  0  0  0  0  0  0  0  0  0  0
    1.5990    0.4770   -1.4610 N   0  0  0  0  0  0  0  0  0  0  0  0
    1.8520   -0.9250   -1.5890 C   0  0  0  0  0  0  0  0  0  0  0  0
    2.7330   -1.4750   -0.4680 C   0  0  0  0  0  0  0  0  0  0  0  0
    3.9930   -0.7760   -0.5280 N   0  0  0  0  0  0  0  0  0  0  0  0
    4.9950   -1.1000    0.4330 C   0  0  0  0  0  0  0  0  0  0  0  0
    4.7990   -2.0250    1.3880 N   0  0  0  0  0  0  0  0  0  0  0  0
    5.7540   -2.3170    2.2820 C   0  0  0  0  0  0  0  0  0  0  0  0
    6.9430   -1.6890    2.2500 N   0  0  0  0  0  0  0  0  0  0  0  0
    7.1360   -0.7610    1.2910 C   0  0  0  0  0  0  0  0  0  0  0  0
    8.4350   -0.0520    1.2330 C   0  0  0  0  0  0  0  0  0  0  0  0
    6.1580   -0.4710    0.3860 N   0  0  0  0  0  0  0  0  0  0  0  0
   -0.4180    1.4540   -0.7400 C   0  0  0  0  0  0  0  0  0  0  0  0
   -0.8370    1.2570   -2.1470 C   0  0  0  0  0  0  0  0  0  0  0  0
   -2.1270    1.6740   -2.5720 N   0  0  0  0  0  0  0  0  0  0  0  0
   -0.0780    0.7280   -2.9730 O   0  0  0  0  0  0  0  0  0  0  0  0
   -2.9020    0.0710   -0.0670 C   0  0  0  0  0  0  0  0  0  0  0  0
   -1.8180   -0.7860   -0.0500 O   0  0  0  0  0  0  0  0  0  0  0  0
   -1.3360   -1.3650    1.1230 C   0  0  0  0  0  0  0  0  0  0  0  0
   -4.2050   -0.4140   -0.2100 C   0  0  0  0  0  0  0  0  0  0  0  0
   -4.3800   -1.7690   -0.3350 O   0  0  0  0  0  0  0  0  0  0  0  0
   -4.3940   -2.4580   -1.5660 C   0  0  0  0  0  0  0  0  0  0  0  0
  1  2  1  0
  2  3  1  0
  3  4  2  0
  3 31  1  0
  4  5  1  0
  5  6  2  0
  7  6  1  1
  6 28  1  0
  7  8  1  0
  7 24  1  0
  8  9  1  0
  9 10  2  0
  9 11  1  0
 11 12  1  0
 12 13  1  0
 12 24  2  0
 13 14  1  0
 14 15  1  0
 15 16  1  0
 16 17  1  0
 17 18  2  0
 17 23  1  0
 18 19  1  0
 19 20  2  0
 20 21  1  0
 21 22  1  0
 21 23  2  0
 24 25  1  0
 25 26  1  0
 25 27  2  0
 28 29  1  0
 28 31  2  0
 29 30  1  0
 31 32  1  0
 32 33  1  0
M  CHG  1  20   1
M  END
