
     RDKit          3D

 32 35  0  0  0  0  0  0  0  0999 V2000
    7.0460   -2.8510    2.7170 C   0  0  0  0  0  0  0  0  0  0  0  0
    6.2810   -2.5060    1.5240 N   0  0  0  0  0  0  0  0  0  0  0  0
    5.0810   -1.8600    1.9550 C   0  0  0  0  0  0  0  0  0  0  0  0
    4.2560   -1.4840    0.7510 C   0  0  0  0  0  0  0  0  0  0  0  0
    4.5980   -1.7170   -0.5540 C   0  0  0  0  0  0  0  0  0  0  0  0
    3.5770   -1.2210   -1.3300 C   0  0  0  0  0  0  0  0  0  0  0  0
    2.6490   -0.7030   -0.4620 C   0  0  0  0  0  0  0  0  0  0  0  0
    1.3600   -0.0530   -0.8720 C   0  0  0  0  0  0  0  0  0  0  0  0
    1.2840    1.2470   -0.7650 C   0  0  0  0  0  0  0  0  0  0  0  0
    2.4080    1.8940   -0.2860 C   0  0  0  0  0  0  0  0  0  0  0  0
    2.4810    3.2430   -0.1860 C   0  0  0  0  0  0  0  0  0  0  0  0
    1.4040    3.9830   -0.5710 C   0  0  0  0  0  0  0  0  0  0  0  0
    1.4090    5.3630   -0.4640 C   0  0  0  0  0  0  0  0  0  0  0  0
    2.4790    5.8890   -0.0210 O   0  0  0  0  0  0  0  0  0  0  0  0
    0.3600    6.1350   -0.7990 N   0  0  0  0  0  0  0  0  0  0  0  0
   -0.7260    5.5410   -1.2530 N   0  0  0  0  0  0  0  0  0  0  0  0
   -0.7550    4.1940   -1.3680 C   0  0  0  0  0  0  0  0  0  0  0  0
    0.2720    3.3400   -1.0500 C   0  0  0  0  0  0  0  0  0  0  0  0
    0.1430    1.9720   -1.1750 C   0  0  0  0  0  0  0  0  0  0  0  0
   -0.9240    1.3570   -1.5070 C   0  0  0  0  0  0  0  0  0  0  0  0
   -2.2460    1.3180   -1.9640 C   0  0  0  0  0  0  0  0  0  0  0  0
   -3.1090    2.3390   -2.5890 C   0  0  0  0  0  0  0  0  0  0  0  0
   -2.9040    0.1100   -1.9700 C   0  0  0  0  0  0  0  0  0  0  0  0
   -2.5280   -1.2130   -1.5890 C   0  0  0  0  0  0  0  0  0  0  0  0
   -3.5170   -1.7110   -0.5500 C   0  0  0  0  0  0  0  0  0  0  0  0
   -3.2830   -1.5000    0.7880 C   0  0  0  0  0  0  0  0  0  0  0  0
   -4.1970   -1.9620    1.7300 C   0  0  0  0  0  0  0  0  0  0  0  0
   -5.3430   -2.6330    1.3620 C   0  0  0  0  0  0  0  0  0  0  0  0
   -6.2940   -3.1100    2.4090 C   0  0  0  0  0  0  0  0  0  0  0  0
   -5.5680   -2.8400    0.0190 C   0  0  0  0  0  0  0  0  0  0  0  0
   -4.6600   -2.3810   -0.9210 C   0  0  0  0  0  0  0  0  0  0  0  0
    3.0960   -0.8840    0.7460 O   0  0  0  0  0  0  0  0  0  0  0  0
  1  2  1  0
  2  3  1  0
  3  4  1  0
  4  5  2  0
  4 32  1  0
  5  6  1  0
  6  7  2  0
  7  8  1  0
  7 32  1  0
  8  9  2  3
  9 10  1  0
  9 19  1  0
 10 11  2  0
 11 12  1  0
 12 13  1  0
 12 18  2  0
 13 14  2  0
 13 15  1  0
 15 16  1  0
 16 17  2  0
 17 18  1  0
 18 19  1  0
 19 20  2  3
 20 21  1  0
 21 22  1  0
 21 23  2  3
 23 24  1  0
 24 25  1  0
 25 26  2  0
 25 31  1  0
 26 27  1  0
 27 28  2  0
 28 29  1  0
 28 30  1  0
 30 31  2  0
M  END
