
     RDKit          3D

 25 27  0  0  0  0  0  0  0  0999 V2000
   -5.4450    2.0200   -0.3570 C   0  0  0  0  0  0  0  0  0  0  0  0
   -5.8330    0.9640    0.6220 C   0  0  0  0  0  0  0  0  0  0  0  0
   -4.9210   -0.2420    0.5820 C   0  0  0  0  0  0  0  0  0  0  0  0
   -3.5040    0.1110    0.8910 C   0  0  0  0  0  0  0  0  0  0  0  0
   -2.6490   -1.1160    0.8370 C   0  0  1  0  0  0  0  0  0  0  0  0
   -2.6510   -1.7930   -0.4960 C   0  0  0  0  0  0  0  0  0  0  0  0
   -2.0520   -0.8580   -1.5230 C   0  0  0  0  0  0  0  0  0  0  0  0
   -0.6220   -0.5300   -1.1010 C   0  0  0  0  0  0  0  0  0  0  0  0
   -0.7000    0.1550    0.1640 N   0  0  0  0  0  0  0  0  0  0  0  0
    0.4890    0.7310    0.5670 N   0  0  0  0  0  0  0  0  0  0  0  0
    1.4030    1.3630   -0.3350 C   0  0  0  0  0  0  0  0  0  0  0  0
    0.9360    2.3900   -1.2940 C   0  0  0  0  0  0  0  0  0  0  0  0
    2.6660    1.0240   -0.3070 C   0  0  0  0  0  0  0  0  0  0  0  0
    3.1670    0.0330    0.6040 N   0  0  0  0  0  0  0  0  0  0  0  0
    4.4140   -0.3210    0.6510 C   0  0  0  0  0  0  0  0  0  0  0  0
    4.8500   -1.3510    1.6210 C   0  0  0  0  0  0  0  0  0  0  0  0
    6.1080   -1.7390    1.7010 C   0  0  0  0  0  0  0  0  0  0  0  0
    7.1040   -1.1470    0.8200 C   0  0  0  0  0  0  0  0  0  0  0  0
    6.7670   -0.2330   -0.0540 C   0  0  0  0  0  0  0  0  0  0  0  0
    5.4230    0.2280   -0.1880 N   0  0  0  0  0  0  0  0  0  0  0  0
    5.0670    1.2170   -1.1360 C   0  0  0  0  0  0  0  0  0  0  0  0
    5.9500    1.6990   -1.8720 O   0  0  0  0  0  0  0  0  0  0  0  0
    3.6510    1.6180   -1.1880 C   0  0  0  0  0  0  0  0  0  0  0  0
    3.3530    2.4920   -2.0300 O   0  0  0  0  0  0  0  0  0  0  0  0
   -1.1980   -0.7610    1.1630 C   0  0  0  0  0  0  0  0  0  0  0  0
  1  2  1  0
  2  3  1  0
  3  4  1  0
  5  4  1  6
  5  6  1  0
  5 25  1  0
  6  7  1  0
  7  8  1  0
  8  9  1  0
  9 10  1  0
  9 25  1  0
 10 11  1  0
 11 12  1  0
 11 13  2  3
 13 14  1  0
 13 23  1  0
 14 15  2  0
 15 16  1  0
 15 20  1  0
 16 17  2  0
 17 18  1  0
 18 19  2  0
 19 20  1  0
 20 21  1  0
 21 22  2  0
 21 23  1  0
 23 24  2  0
M  END
