
     RDKit          3D

 25 26  0  0  0  0  0  0  0  0999 V2000
   -0.1530   -2.9550    0.3980 C   0  0  0  0  0  0  0  0  0  0  0  0
    0.6940   -1.7970   -0.0110 C   0  0  0  0  0  0  0  0  0  0  0  0
    0.2400   -0.9650   -0.9270 C   0  0  0  0  0  0  0  0  0  0  0  0
   -1.0340   -1.1470   -1.5330 N   0  0  0  0  0  0  0  0  0  0  0  0
   -2.2160   -0.6260   -1.0010 N   0  0  0  0  0  0  0  0  0  0  0  0
   -3.4180   -0.7950   -1.7500 C   0  0  0  0  0  0  0  0  0  0  0  0
   -3.3930   -1.4020   -2.8620 O   0  0  0  0  0  0  0  0  0  0  0  0
   -4.6280   -0.2770   -1.2300 N   0  0  0  0  0  0  0  0  0  0  0  0
   -5.8870   -0.7630   -1.7900 C   0  0  0  0  0  0  0  0  0  0  0  0
   -4.6780    0.6950   -0.1860 C   0  0  0  0  0  0  0  0  0  0  0  0
   -3.5260    0.6800    0.7570 C   0  0  1  0  0  0  0  0  0  0  0  0
   -3.1810    2.1250    1.1010 C   0  0  0  0  0  0  0  0  0  0  0  0
   -3.8830   -0.0670    2.0440 C   0  0  0  0  0  0  0  0  0  0  0  0
   -2.2970    0.0510    0.2210 C   0  0  0  0  0  0  0  0  0  0  0  0
   -1.2640    0.1440    0.9330 O   0  0  0  0  0  0  0  0  0  0  0  0
    1.1090    0.1740   -1.3130 C   0  0  1  0  0  0  0  0  0  0  0  0
    2.1000   -0.2220   -2.3810 C   0  0  0  0  0  0  0  0  0  0  0  0
    0.2110    1.2330   -1.9680 C   0  0  0  0  0  0  0  0  0  0  0  0
    1.7710    0.8420   -0.1280 C   0  0  0  0  0  0  0  0  0  0  0  0
    2.2650   -0.0890    0.9170 C   0  0  2  0  0  0  0  0  0  0  0  0
    3.6100    0.0850    1.3630 N   0  0  0  0  0  0  0  0  0  0  0  0
    4.5550    0.6420    0.4780 C   0  0  1  0  0  0  0  0  0  0  0  0
    4.9010    2.0710    0.9230 C   0  0  0  0  0  0  0  0  0  0  0  0
    5.8940   -0.1130    0.5980 C   0  0  0  0  0  0  0  0  0  0  0  0
    2.0150   -1.5580    0.5760 C   0  0  0  0  0  0  0  0  0  0  0  0
  1  2  1  0
  2  3  2  0
  2 25  1  0
  3  4  1  0
  3 16  1  0
  4  5  1  0
  5  6  1  0
  5 14  1  0
  6  7  2  0
  6  8  1  0
  8  9  1  0
  8 10  1  0
 10 11  1  0
 11 12  1  1
 11 13  1  0
 11 14  1  0
 14 15  2  0
 16 17  1  6
 16 18  1  0
 16 19  1  0
 19 20  1  0
 20 21  1  6
 20 25  1  0
 21 22  1  0
 22 23  1  1
 22 24  1  0
M  CHG  1  21   1
M  END
