
     RDKit          3D

 25 27  0  0  0  0  0  0  0  0999 V2000
    6.3070   -1.3590    1.9230 C   0  0  0  0  0  0  0  0  0  0  0  0
    5.3710   -0.3980    1.7080 C   0  0  0  0  0  0  0  0  0  0  0  0
    4.3200   -0.7770    0.9420 O   0  0  0  0  0  0  0  0  0  0  0  0
    5.5920    0.8850    2.3010 C   0  0  0  0  0  0  0  0  0  0  0  0
    4.8290    1.9290    2.2200 C   0  0  0  0  0  0  0  0  0  0  0  0
    5.3330    3.1260    2.9510 C   0  0  0  0  0  0  0  0  0  0  0  0
    5.7370    4.0340    3.5150 N   0  0  0  0  0  0  0  0  0  0  0  0
    3.5810    2.0440    1.5100 C   0  0  0  0  0  0  0  0  0  0  0  0
    2.9020    1.1610    0.7820 N   0  0  0  0  0  0  0  0  0  0  0  0
    1.7660    1.6710    0.2820 C   0  0  0  0  0  0  0  0  0  0  0  0
    0.7970    0.9370   -0.5660 C   0  0  0  0  0  0  0  0  0  0  0  0
   -0.2530    0.2580    0.2840 C   0  0  2  0  0  0  0  0  0  0  0  0
    0.3320   -0.7270    1.2390 C   0  0  0  0  0  0  0  0  0  0  0  0
   -0.2890   -2.0760    0.9520 C   0  0  0  0  0  0  0  0  0  0  0  0
   -1.5640   -1.6430    0.1970 C   0  0  0  0  0  0  0  0  0  0  0  0
   -1.1820   -0.5080   -0.5730 N   0  0  1  0  0  0  0  0  0  0  0  0
   -2.1770    0.4050   -0.9690 C   0  0  0  0  0  0  0  0  0  0  0  0
   -3.4540   -0.0690   -1.5090 C   0  0  2  0  0  0  0  0  0  0  0  0
   -4.3200   -0.9190   -0.6550 C   0  0  0  0  0  0  0  0  0  0  0  0
   -5.7430   -0.8130   -1.2390 C   0  0  0  0  0  0  0  0  0  0  0  0
   -5.6800   -0.3970   -2.5680 O   0  0  0  0  0  0  0  0  0  0  0  0
   -4.7350   -1.0980   -3.2960 C   0  0  0  0  0  0  0  0  0  0  0  0
   -3.3220   -0.7820   -2.8540 C   0  0  0  0  0  0  0  0  0  0  0  0
    1.7580    2.9670    0.7460 C   0  0  0  0  0  0  0  0  0  0  0  0
    2.8460    3.2000    1.4860 N   0  0  0  0  0  0  0  0  0  0  0  0
  1  2  2  0
  2  3  1  0
  2  4  1  0
  4  5  2  3
  5  6  1  0
  5  8  1  0
  6  7  3  0
  8  9  2  0
  8 25  1  0
  9 10  1  0
 10 11  1  0
 10 24  2  0
 12 11  1  6
 12 13  1  0
 12 16  1  0
 13 14  1  0
 14 15  1  0
 15 16  1  0
 16 17  1  1
 18 17  1  1
 18 19  1  0
 18 23  1  0
 19 20  1  0
 20 21  1  0
 21 22  1  0
 22 23  1  0
 24 25  1  0
M  CHG  1  16   1
M  END
