
     RDKit          3D

 25 27  0  0  0  0  0  0  0  0999 V2000
    7.0040   -1.8130   -0.0920 C   0  0  0  0  0  0  0  0  0  0  0  0
    6.0510   -0.9490   -0.7350 N   0  0  0  0  0  0  0  0  0  0  0  0
    4.7130   -0.9070   -0.2870 C   0  0  0  0  0  0  0  0  0  0  0  0
    4.3910   -1.7290    0.7880 C   0  0  0  0  0  0  0  0  0  0  0  0
    3.1120   -1.7330    1.2680 C   0  0  0  0  0  0  0  0  0  0  0  0
    2.1370   -0.9390    0.7060 C   0  0  0  0  0  0  0  0  0  0  0  0
    2.4220   -0.1180   -0.3520 C   0  0  0  0  0  0  0  0  0  0  0  0
    1.4690    0.7290   -1.0200 C   0  0  0  0  0  0  0  0  0  0  0  0
    1.9440    1.2690   -2.1290 O   0  0  0  0  0  0  0  0  0  0  0  0
    0.1510    1.0930   -0.7260 N   0  0  0  0  0  0  0  0  0  0  0  0
   -0.4860    1.9960   -1.7150 C   0  0  0  0  0  0  0  0  0  0  0  0
   -1.8280    1.4760   -2.1310 C   0  0  0  0  0  0  0  0  0  0  0  0
   -2.6370    1.0680   -1.0170 N   0  0  0  0  0  0  0  0  0  0  0  0
   -3.3460   -0.1450   -1.2170 C   0  0  0  0  0  0  0  0  0  0  0  0
   -4.1660   -0.5460   -0.0530 C   0  0  0  0  0  0  0  0  0  0  0  0
   -3.6640   -1.4520    0.8800 C   0  0  0  0  0  0  0  0  0  0  0  0
   -4.4590   -1.8010    1.9550 C   0  0  0  0  0  0  0  0  0  0  0  0
   -5.7240   -1.2280    2.0500 C   0  0  0  0  0  0  0  0  0  0  0  0
   -6.1950   -0.3270    1.1000 C   0  0  0  0  0  0  0  0  0  0  0  0
   -5.3870   -0.0170    0.0720 N   0  0  0  0  0  0  0  0  0  0  0  0
   -2.0570    1.2930    0.2480 C   0  0  0  0  0  0  0  0  0  0  0  0
   -0.6260    0.7260    0.3940 C   0  0  2  0  0  0  0  0  0  0  0  0
   -0.1720    1.3000    1.7200 C   0  0  0  0  0  0  0  0  0  0  0  0
    3.7430   -0.1170   -0.8450 C   0  0  0  0  0  0  0  0  0  0  0  0
    4.0700    0.7120   -1.9290 O   0  0  0  0  0  0  0  0  0  0  0  0
  1  2  1  0
  2  3  1  0
  3  4  2  0
  3 24  1  0
  4  5  1  0
  5  6  2  0
  6  7  1  0
  7  8  1  0
  7 24  2  0
  8  9  2  0
  8 10  1  0
 10 11  1  0
 10 22  1  0
 11 12  1  0
 12 13  1  0
 13 14  1  0
 13 21  1  0
 14 15  1  0
 15 16  2  0
 15 20  1  0
 16 17  1  0
 17 18  2  0
 18 19  1  0
 19 20  2  0
 21 22  1  0
 22 23  1  1
 24 25  1  0
M  CHG  1  20   1
M  END
