
     RDKit          3D

 25 28  0  0  0  0  0  0  0  0999 V2000
   -0.4030   -2.6200    1.3670 O   0  0  0  0  0  0  0  0  0  0  0  0
   -0.6180   -1.7260    0.4910 C   0  0  0  0  0  0  0  0  0  0  0  0
    0.1670   -0.5220    0.6300 N   0  0  0  0  0  0  0  0  0  0  0  0
    1.1140   -0.4100    1.7350 C   0  0  0  0  0  0  0  0  0  0  0  0
    1.8720    0.8940    1.6240 C   0  0  0  0  0  0  0  0  0  0  0  0
    2.6480    0.9410    0.3860 N   0  0  2  0  0  0  0  0  0  0  0  0
    3.2020   -0.3830    0.1750 C   0  0  0  0  0  0  0  0  0  0  0  0
    4.2670   -0.4880   -0.8440 C   0  0  0  0  0  0  0  0  0  0  0  0
    5.2070    0.6790   -0.9090 C   0  0  0  0  0  0  0  0  0  0  0  0
    4.5340    1.9930   -0.6400 C   0  0  0  0  0  0  0  0  0  0  0  0
    3.7350    1.8670    0.6270 C   0  0  0  0  0  0  0  0  0  0  0  0
   -1.5400   -1.8160   -0.6060 C   0  0  0  0  0  0  0  0  0  0  0  0
   -1.2140   -2.5880   -1.7740 C   0  0  0  0  0  0  0  0  0  0  0  0
   -2.1530   -2.3850   -2.6820 N   0  0  0  0  0  0  0  0  0  0  0  0
   -3.0710   -1.5430   -2.2060 N   0  0  0  0  0  0  0  0  0  0  0  0
   -2.6970   -1.2020   -0.9330 C   0  0  0  0  0  0  0  0  0  0  0  0
   -3.4660   -0.3460    0.0030 C   0  0  0  0  0  0  0  0  0  0  0  0
   -2.9260   -0.2950    1.1970 C   0  0  0  0  0  0  0  0  0  0  0  0
   -3.5930    0.5330    2.2250 C   0  0  0  0  0  0  0  0  0  0  0  0
   -4.7030    1.1930    1.9360 C   0  0  0  0  0  0  0  0  0  0  0  0
   -5.2880    1.1500    0.6980 O   0  0  0  0  0  0  0  0  0  0  0  0
   -4.6950    0.3800   -0.3100 C   0  0  0  0  0  0  0  0  0  0  0  0
   -5.4140    0.4510   -1.4150 C   0  0  0  0  0  0  0  0  0  0  0  0
   -5.1440   -0.2340   -2.6750 C   0  0  0  0  0  0  0  0  0  0  0  0
   -4.1560   -1.0560   -2.9580 C   0  0  0  0  0  0  0  0  0  0  0  0
  1  2  2  0
  2  3  1  0
  2 12  1  0
  3  4  1  0
  4  5  1  0
  6  5  1  1
  6  7  1  0
  6 11  1  0
  7  8  1  0
  8  9  1  0
  9 10  1  0
 10 11  1  0
 12 13  1  0
 12 16  2  0
 13 14  2  0
 14 15  1  0
 15 16  1  0
 15 25  1  0
 16 17  1  0
 17 18  2  0
 17 22  1  0
 18 19  1  0
 19 20  2  0
 20 21  1  0
 21 22  1  0
 22 23  2  0
 23 24  1  0
 24 25  2  0
M  CHG  1   6   1
M  END
