
     RDKit          3D

 28 31  0  0  0  0  0  0  0  0999 V2000
    7.6170   -1.1380   -0.1970 C   0  0  0  0  0  0  0  0  0  0  0  0
    6.4460   -0.4160   -0.8350 C   0  0  2  0  0  0  0  0  0  0  0  0
    7.0520    0.6520   -1.7280 C   0  0  0  0  0  0  0  0  0  0  0  0
    5.6390    0.1910    0.2880 C   0  0  0  0  0  0  0  0  0  0  0  0
    4.4360    0.9410   -0.1500 C   0  0  0  0  0  0  0  0  0  0  0  0
    3.3720    0.2260   -0.8670 C   0  0  0  0  0  0  0  0  0  0  0  0
    2.6060   -0.8580   -0.2640 C   0  0  1  0  0  0  0  0  0  0  0  0
    3.4220   -2.0700    0.2130 C   0  0  0  0  0  0  0  0  0  0  0  0
    1.4870   -0.6280    0.6430 C   0  0  1  0  0  0  0  0  0  0  0  0
    1.6440    0.1070    1.9050 C   0  0  0  0  0  0  0  0  0  0  0  0
    0.2350    0.6070    2.2960 C   0  0  0  0  0  0  0  0  0  0  0  0
   -0.6380   -0.1590    1.3450 C   0  0  1  0  0  0  0  0  0  0  0  0
   -1.9870    0.3750    1.1060 C   0  0  2  0  0  0  0  0  0  0  0  0
   -2.8810    0.2000    2.3630 C   0  0  0  0  0  0  0  0  0  0  0  0
   -4.1230    0.9320    2.0500 C   0  0  0  0  0  0  0  0  0  0  0  0
   -4.6280    0.8910    0.8430 C   0  0  0  0  0  0  0  0  0  0  0  0
   -5.8770    1.6360    0.5600 C   0  0  0  0  0  0  0  0  0  0  0  0
   -6.8800    0.6060    0.0860 C   0  0  1  0  0  0  0  0  0  0  0  0
   -7.5210    0.9680   -1.0950 O   0  0  0  0  0  0  0  0  0  0  0  0
   -6.3260   -0.7940    0.0580 C   0  0  0  0  0  0  0  0  0  0  0  0
   -5.0220   -0.9520   -0.6370 C   0  0  0  0  0  0  0  0  0  0  0  0
   -4.0150    0.1300   -0.2610 C   0  0  1  0  0  0  0  0  0  0  0  0
   -3.8990    1.0010   -1.5140 C   0  0  0  0  0  0  0  0  0  0  0  0
   -2.6730   -0.4650    0.0550 C   0  0  1  0  0  0  0  0  0  0  0  0
   -1.8650   -0.6940   -1.1830 C   0  0  0  0  0  0  0  0  0  0  0  0
   -0.4420   -1.0920   -0.8840 C   0  0  0  0  0  0  0  0  0  0  0  0
    0.1890   -0.1080    0.0770 C   0  0  2  0  0  0  0  0  0  0  0  0
    0.2410    1.2110   -0.5800 C   0  0  0  0  0  0  0  0  0  0  0  0
  2  1  1  1
  2  3  1  0
  2  4  1  0
  4  5  1  0
  5  6  1  0
  6  7  1  0
  7  8  1  1
  7  9  1  0
  9 10  1  1
  9 27  1  0
 10 11  1  0
 12 11  1  1
 12 13  1  0
 12 27  1  0
 13 14  1  1
 13 24  1  0
 14 15  1  0
 15 16  2  0
 16 17  1  0
 16 22  1  0
 17 18  1  0
 18 19  1  6
 18 20  1  0
 20 21  1  0
 21 22  1  0
 22 23  1  6
 22 24  1  0
 24 25  1  6
 25 26  1  0
 26 27  1  0
 27 28  1  6
M  END
