
     RDKit          3D

 22 23  0  0  0  0  0  0  0  0999 V2000
   -5.3190    2.1180    0.1460 O   0  0  0  0  0  0  0  0  0  0  0  0
   -5.3040    0.8800   -0.5030 C   0  0  0  0  0  0  0  0  0  0  0  0
   -4.2060   -0.0230    0.0730 C   0  0  1  0  0  0  0  0  0  0  0  0
   -4.4370   -0.2260    1.4120 O   0  0  0  0  0  0  0  0  0  0  0  0
   -4.2690   -1.3110   -0.7180 C   0  0  0  0  0  0  0  0  0  0  0  0
   -5.5260   -1.9050   -0.5970 O   0  0  0  0  0  0  0  0  0  0  0  0
   -2.8990    0.6680   -0.2100 C   0  0  1  0  0  0  0  0  0  0  0  0
   -2.8450    1.9200    0.3910 O   0  0  0  0  0  0  0  0  0  0  0  0
   -1.7000   -0.1270    0.2170 C   0  0  0  0  0  0  0  0  0  0  0  0
   -0.5650    0.5760   -0.1990 O   0  0  0  0  0  0  0  0  0  0  0  0
    0.6140   -0.0440    0.1290 C   0  0  1  0  0  0  0  0  0  0  0  0
    1.4060   -0.2120   -1.1730 C   0  0  0  0  0  0  0  0  0  0  0  0
    2.5020   -0.9710   -0.8890 O   0  0  0  0  0  0  0  0  0  0  0  0
    3.2210   -0.6370    0.2020 C   0  0  2  0  0  0  0  0  0  0  0  0
    2.6540    0.3110    1.1610 C   0  0  1  0  0  0  0  0  0  0  0  0
    3.7060    1.4150    1.2450 C   0  0  0  0  0  0  0  0  0  0  0  0
    4.8690    0.7080    0.9430 O   0  0  0  0  0  0  0  0  0  0  0  0
    4.5220    0.0490   -0.2340 C   0  0  1  0  0  0  0  0  0  0  0  0
    5.5130   -1.0150   -0.6140 C   0  0  1  0  0  0  0  0  0  0  0  0
    5.0580   -1.5980   -1.8010 O   0  0  0  0  0  0  0  0  0  0  0  0
    6.8050   -0.5580   -0.7100 O   0  0  0  0  0  0  0  0  0  0  0  0
    1.4040    0.7910    0.9190 O   0  0  0  0  0  0  0  0  0  0  0  0
  1  2  1  0
  2  3  1  0
  3  4  1  1
  3  5  1  0
  3  7  1  0
  5  6  1  0
  7  8  1  1
  7  9  1  0
  9 10  1  0
 11 10  1  6
 11 12  1  0
 11 22  1  0
 12 13  1  0
 14 13  1  6
 14 15  1  0
 14 18  1  0
 15 16  1  6
 15 22  1  0
 16 17  1  0
 18 17  1  1
 18 19  1  0
 19 20  1  6
 19 21  1  0
M  END
