
     RDKit          3D

 16 17  0  0  0  0  0  0  0  0999 V2000
   -1.0980    0.0610   -2.6930 C   0  0  0  0  0  0  0  0  0  0  0  0
   -0.9540    1.1440   -1.6570 C   0  0  0  0  0  0  0  0  0  0  0  0
   -1.2950    2.3700   -1.7430 N   0  0  0  0  0  0  0  0  0  0  0  0
   -1.0080    3.1070   -0.5650 C   0  0  0  0  0  0  0  0  0  0  0  0
   -0.4470    2.2630    0.3090 C   0  0  0  0  0  0  0  0  0  0  0  0
    0.1190    2.0540    1.5920 N   0  0  0  0  0  0  0  0  0  0  0  0
    0.4640    0.8450    1.7010 N   0  0  0  0  0  0  0  0  0  0  0  0
    0.1850    0.1060    0.5410 C   0  0  0  0  0  0  0  0  0  0  0  0
    0.3950   -1.2750    0.2090 C   0  0  0  0  0  0  0  0  0  0  0  0
    0.9330   -2.1790    0.9850 C   0  0  0  0  0  0  0  0  0  0  0  0
    1.0830   -3.9720    0.2560 Br  0  0  0  0  0  0  0  0  0  0  0  0
    1.4070   -1.8920    2.3400 C   0  0  2  0  0  0  0  0  0  0  0  0
    2.1900   -3.5510    3.0330 Br  0  0  0  0  0  0  0  0  0  0  0  0
   -0.0270   -1.3480    3.5020 Br  0  0  0  0  0  0  0  0  0  0  0  0
    2.8290   -0.5930    2.4250 Br  0  0  0  0  0  0  0  0  0  0  0  0
   -0.3820    0.9650   -0.3380 C   0  0  0  0  0  0  0  0  0  0  0  0
  1  2  1  0
  2  3  2  0
  2 16  1  0
  3  4  1  0
  4  5  2  0
  5  6  1  0
  5 16  1  0
  6  7  2  0
  7  8  1  0
  8  9  1  0
  8 16  2  0
  9 10  2  3
 10 11  1  0
 10 12  1  0
 12 13  1  1
 12 14  1  0
 12 15  1  0
M  END
