
     RDKit          3D

 16 17  0  0  0  0  0  0  0  0999 V2000
   -1.6200   -3.6310   -0.3560 Br  0  0  0  0  0  0  0  0  0  0  0  0
   -1.1680   -1.8240    0.0570 C   0  0  0  0  0  0  0  0  0  0  0  0
    0.0100   -1.4190   -0.4100 C   0  0  0  0  0  0  0  0  0  0  0  0
    0.6200   -0.1030   -0.2550 C   0  0  0  0  0  0  0  0  0  0  0  0
    1.9140    0.0170   -0.1380 C   0  0  0  0  0  0  0  0  0  0  0  0
    2.8010   -1.1630   -0.1560 C   0  0  2  0  0  0  0  0  0  0  0  0
    4.5740   -0.6820    0.5210 Br  0  0  0  0  0  0  0  0  0  0  0  0
    2.9630   -1.8740   -1.9480 Br  0  0  0  0  0  0  0  0  0  0  0  0
    2.1640   -2.5750    1.0150 Br  0  0  0  0  0  0  0  0  0  0  0  0
   -0.1070    1.1530   -0.2070 N   0  0  0  0  0  0  0  0  0  0  0  0
    0.4100    2.3340   -0.5560 C   0  0  0  0  0  0  0  0  0  0  0  0
   -0.5910    3.2670   -0.3690 C   0  0  0  0  0  0  0  0  0  0  0  0
   -1.6680    2.6040    0.0850 N   0  0  0  0  0  0  0  0  0  0  0  0
   -1.4010    1.2850    0.1970 C   0  0  0  0  0  0  0  0  0  0  0  0
   -2.2900    0.2850    0.6380 N   0  0  0  0  0  0  0  0  0  0  0  0
   -2.1900   -1.1160    0.8410 C   0  0  0  0  0  0  0  0  0  0  0  0
  1  2  1  0
  2  3  2  0
  2 16  1  0
  3  4  1  0
  4  5  2  3
  4 10  1  0
  5  6  1  0
  6  7  1  1
  6  8  1  0
  6  9  1  0
 10 11  1  0
 10 14  1  0
 11 12  2  0
 12 13  1  0
 13 14  2  0
 14 15  1  0
 15 16  1  0
M  END
