
     RDKit          3D

 16 17  0  0  0  0  0  0  0  0999 V2000
   -2.9440    0.8670   -0.9320 C   0  0  0  0  0  0  0  0  0  0  0  0
   -2.2990   -0.0840   -0.0640 N   0  0  0  0  0  0  0  0  0  0  0  0
   -3.0760   -1.0090    0.7210 C   0  0  0  0  0  0  0  0  0  0  0  0
   -0.8880   -0.1020    0.0120 C   0  0  0  0  0  0  0  0  0  0  0  0
   -0.0010   -0.7990   -0.7220 N   0  0  0  0  0  0  0  0  0  0  0  0
    1.2540   -0.5200   -0.3180 C   0  0  0  0  0  0  0  0  0  0  0  0
    2.4870   -0.9730   -0.7500 C   0  0  0  0  0  0  0  0  0  0  0  0
    2.6680   -2.2300   -2.1710 Br  0  0  0  0  0  0  0  0  0  0  0  0
    3.6190   -0.4930   -0.1260 C   0  0  0  0  0  0  0  0  0  0  0  0
    5.3540   -1.0930   -0.6920 Br  0  0  0  0  0  0  0  0  0  0  0  0
    3.4700    0.4190    0.9030 C   0  0  0  0  0  0  0  0  0  0  0  0
    5.0550    1.0660    1.7490 Br  0  0  0  0  0  0  0  0  0  0  0  0
    2.2520    0.8750    1.3400 C   0  0  0  0  0  0  0  0  0  0  0  0
    2.0610    2.1230    2.7500 Br  0  0  0  0  0  0  0  0  0  0  0  0
    1.1010    0.3900    0.7080 C   0  0  0  0  0  0  0  0  0  0  0  0
   -0.2090    0.6490    0.9140 N   0  0  0  0  0  0  0  0  0  0  0  0
  1  2  1  0
  2  3  1  0
  2  4  1  0
  4  5  2  0
  4 16  1  0
  5  6  1  0
  6  7  2  0
  6 15  1  0
  7  8  1  0
  7  9  1  0
  9 10  1  0
  9 11  2  0
 11 12  1  0
 11 13  1  0
 13 14  1  0
 13 15  2  0
 15 16  1  0
M  END
