
     RDKit          3D

 16 17  0  0  0  0  0  0  0  0999 V2000
    3.9910    3.0730   -0.0930 Br  0  0  0  0  0  0  0  0  0  0  0  0
    2.1670    2.3240   -0.1700 C   0  0  0  0  0  0  0  0  0  0  0  0
    0.8590    3.6350   -0.4040 Br  0  0  0  0  0  0  0  0  0  0  0  0
    2.0500    1.0670   -0.0500 C   0  0  0  0  0  0  0  0  0  0  0  0
    1.0190    0.0540   -0.0330 C   0  0  0  0  0  0  0  0  0  0  0  0
    1.3490   -1.3290    0.0220 C   0  0  0  0  0  0  0  0  0  0  0  0
    2.7220   -1.9400    0.0590 C   0  0  2  0  0  0  0  0  0  0  0  0
    3.6820   -1.4180    1.6530 Br  0  0  0  0  0  0  0  0  0  0  0  0
    3.7190   -1.4060   -1.4960 Br  0  0  0  0  0  0  0  0  0  0  0  0
    0.2250   -2.0290    0.0360 N   0  0  0  0  0  0  0  0  0  0  0  0
   -0.7790   -1.1820   -0.0080 C   0  0  0  0  0  0  0  0  0  0  0  0
   -0.3170    0.0750   -0.0500 N   0  0  0  0  0  0  0  0  0  0  0  0
   -1.2280    1.1720   -0.1240 C   0  0  0  0  0  0  0  0  0  0  0  0
   -2.6930    0.7880   -0.2070 C   0  0  0  0  0  0  0  0  0  0  0  0
   -2.8380   -0.4720   -0.8810 N   0  0  0  0  0  0  0  0  0  0  0  0
   -2.2520   -1.4510   -0.0010 C   0  0  0  0  0  0  0  0  0  0  0  0
  1  2  1  0
  2  3  1  0
  2  4  2  3
  4  5  1  0
  5  6  2  0
  5 12  1  0
  6  7  1  0
  6 10  1  0
  7  8  1  1
  7  9  1  0
 10 11  2  0
 11 12  1  0
 11 16  1  0
 12 13  1  0
 13 14  1  0
 14 15  1  0
 15 16  1  0
M  END
