
     RDKit          3D

 16 17  0  0  0  0  0  0  0  0999 V2000
   -2.9230    2.5720    0.9500 Br  0  0  0  0  0  0  0  0  0  0  0  0
   -3.3340    0.9420    0.1090 C   0  0  0  0  0  0  0  0  0  0  0  0
   -5.1410    0.4670   -0.2110 Br  0  0  0  0  0  0  0  0  0  0  0  0
   -2.3900    0.1200   -0.2640 C   0  0  0  0  0  0  0  0  0  0  0  0
   -1.0050    0.4860   -0.0180 C   0  0  0  0  0  0  0  0  0  0  0  0
   -0.0420   -0.3310   -0.3880 C   0  0  0  0  0  0  0  0  0  0  0  0
    1.3360    0.0250   -0.1470 N   0  0  0  0  0  0  0  0  0  0  0  0
    2.3960   -0.7350   -0.4840 C   0  0  0  0  0  0  0  0  0  0  0  0
    3.5760   -0.1090   -0.1150 C   0  0  0  0  0  0  0  0  0  0  0  0
    5.3400   -0.7870   -0.3800 Br  0  0  0  0  0  0  0  0  0  0  0  0
    3.1780    1.0760    0.4650 C   0  0  0  0  0  0  0  0  0  0  0  0
    4.3730    2.3720    1.1730 Br  0  0  0  0  0  0  0  0  0  0  0  0
    1.7860    1.1470    0.4390 C   0  0  0  0  0  0  0  0  0  0  0  0
   -0.3540   -1.5640   -1.0250 N   0  0  0  0  0  0  0  0  0  0  0  0
   -1.5600   -1.9470   -1.2710 C   0  0  0  0  0  0  0  0  0  0  0  0
   -2.6540   -1.1210   -0.9030 N   0  0  0  0  0  0  0  0  0  0  0  0
  1  2  1  0
  2  3  1  0
  2  4  2  3
  4  5  1  0
  4 16  1  0
  5  6  2  0
  6  7  1  0
  6 14  1  0
  7  8  1  0
  7 13  1  0
  8  9  2  0
  9 10  1  0
  9 11  1  0
 11 12  1  0
 11 13  2  0
 14 15  2  0
 15 16  1  0
M  END
