
     RDKit          3D

 15 16  0  0  0  0  0  0  0  0999 V2000
    4.1070    0.2530    0.2250 C   0  0  0  0  0  0  0  0  0  0  0  0
    3.0750   -0.5280   -1.0770 S   0  0  0  0  0  0  0  0  0  0  0  0
    1.3490   -0.2650   -0.6950 C   0  0  0  0  0  0  0  0  0  0  0  0
    0.5900    0.7820   -1.0930 N   0  0  0  0  0  0  0  0  0  0  0  0
   -0.6380    0.5750   -0.5820 C   0  0  0  0  0  0  0  0  0  0  0  0
   -1.8350    1.2720   -0.6300 C   0  0  0  0  0  0  0  0  0  0  0  0
   -1.9140    2.9040   -1.5980 Br  0  0  0  0  0  0  0  0  0  0  0  0
   -2.9680    0.8110    0.0060 C   0  0  0  0  0  0  0  0  0  0  0  0
   -4.5760    1.8420   -0.1160 Br  0  0  0  0  0  0  0  0  0  0  0  0
   -2.9530   -0.3650    0.7170 C   0  0  0  0  0  0  0  0  0  0  0  0
   -4.5330   -0.9800    1.5860 Br  0  0  0  0  0  0  0  0  0  0  0  0
   -1.7790   -1.0710    0.7770 C   0  0  0  0  0  0  0  0  0  0  0  0
   -1.6990   -2.7140    1.7510 Br  0  0  0  0  0  0  0  0  0  0  0  0
   -0.6410   -0.6010    0.1340 C   0  0  0  0  0  0  0  0  0  0  0  0
    0.6100   -1.1070    0.0490 N   0  0  0  0  0  0  0  0  0  0  0  0
  1  2  1  0
  2  3  1  0
  3  4  2  0
  3 15  1  0
  4  5  1  0
  5  6  2  0
  5 14  1  0
  6  7  1  0
  6  8  1  0
  8  9  1  0
  8 10  2  0
 10 11  1  0
 10 12  1  0
 12 13  1  0
 12 14  2  0
 14 15  1  0
M  END
