
     RDKit          3D

 15 16  0  0  0  0  0  0  0  0999 V2000
    2.7190   -2.7480   -0.3320 S   0  0  0  0  0  0  0  0  0  0  0  0
    2.3670   -1.1560   -0.2460 C   0  0  0  0  0  0  0  0  0  0  0  0
    3.2400   -0.0440   -0.2730 N   0  0  0  0  0  0  0  0  0  0  0  0
    2.4890    1.1140   -0.1730 N   0  0  0  0  0  0  0  0  0  0  0  0
    1.2040    0.8490   -0.0840 C   0  0  0  0  0  0  0  0  0  0  0  0
    1.0110   -0.5810   -0.1210 C   0  0  0  0  0  0  0  0  0  0  0  0
   -0.1880   -1.1540   -0.0490 C   0  0  0  0  0  0  0  0  0  0  0  0
   -1.3160   -0.2520    0.0700 C   0  0  0  0  0  0  0  0  0  0  0  0
   -2.6870   -0.8370    0.1550 C   0  0  0  0  0  0  0  0  0  0  0  0
   -2.7980   -1.9820    1.7040 Br  0  0  0  0  0  0  0  0  0  0  0  0
   -1.2280    1.0510    0.1110 C   0  0  0  0  0  0  0  0  0  0  0  0
   -2.8600    2.1080    0.2760 Br  0  0  0  0  0  0  0  0  0  0  0  0
    0.0560    1.7540    0.0380 C   0  0  2  0  0  0  0  0  0  0  0  0
    0.0060    2.8110   -1.6110 Br  0  0  0  0  0  0  0  0  0  0  0  0
    0.2650    2.9780    1.5310 Br  0  0  0  0  0  0  0  0  0  0  0  0
  1  2  2  0
  2  3  1  0
  2  6  1  0
  3  4  1  0
  4  5  2  0
  5  6  1  0
  5 13  1  0
  6  7  2  0
  7  8  1  0
  8  9  1  0
  8 11  2  0
  9 10  1  0
 11 12  1  0
 11 13  1  0
 13 14  1  6
 13 15  1  0
M  END
