
     RDKit          3D

 15 15  0  0  0  0  0  0  0  0999 V2000
   -0.2080   -1.8500   -1.6520 C   0  0  0  0  0  0  0  0  0  0  0  0
   -0.2710   -0.8480   -0.7840 C   0  0  0  0  0  0  0  0  0  0  0  0
    0.8660   -0.5740    0.0480 N   0  0  0  0  0  0  0  0  0  0  0  0
    0.9910    0.3160    0.9120 C   0  0  0  0  0  0  0  0  0  0  0  0
    2.2040    0.4310    1.6400 N   0  0  0  0  0  0  0  0  0  0  0  0
    3.4510   -0.1270    1.1870 C   0  0  2  0  0  0  0  0  0  0  0  0
    4.8280    0.2500    2.4500 Br  0  0  0  0  0  0  0  0  0  0  0  0
    3.9010    0.4670   -0.5940 Br  0  0  0  0  0  0  0  0  0  0  0  0
    3.2100   -2.0640    1.0910 Br  0  0  0  0  0  0  0  0  0  0  0  0
   -0.2940    1.4650    1.2830 S   0  0  0  0  0  0  0  0  0  0  0  0
   -1.6700    1.0630    0.2140 C   0  0  0  0  0  0  0  0  0  0  0  0
   -2.7530    1.7690    0.2920 C   0  0  0  0  0  0  0  0  0  0  0  0
   -2.7970    3.2120    1.5660 Br  0  0  0  0  0  0  0  0  0  0  0  0
   -1.4870   -0.0570   -0.6990 C   0  0  0  0  0  0  0  0  0  0  0  0
   -2.4900   -0.3800   -1.5050 C   0  0  0  0  0  0  0  0  0  0  0  0
  1  2  2  0
  2  3  1  0
  2 14  1  0
  3  4  2  0
  4  5  1  0
  4 10  1  0
  5  6  1  0
  6  7  1  1
  6  8  1  0
  6  9  1  0
 10 11  1  0
 11 12  2  3
 11 14  1  0
 12 13  1  0
 14 15  2  0
M  END
