
     RDKit          3D

 15 16  0  0  0  0  0  0  0  0999 V2000
   -3.5660    1.7480    1.4540 Br  0  0  0  0  0  0  0  0  0  0  0  0
   -3.3500    0.4120    0.0520 C   0  0  0  0  0  0  0  0  0  0  0  0
   -1.9060    0.1040   -0.0820 C   0  0  0  0  0  0  0  0  0  0  0  0
   -1.0810    0.5680   -1.0190 N   0  0  0  0  0  0  0  0  0  0  0  0
    0.1570    0.0450   -0.7660 C   0  0  0  0  0  0  0  0  0  0  0  0
    0.0860   -0.7610    0.3580 C   0  0  0  0  0  0  0  0  0  0  0  0
   -1.2060   -0.7310    0.7950 C   0  0  0  0  0  0  0  0  0  0  0  0
   -1.8540   -1.6710    2.3100 Br  0  0  0  0  0  0  0  0  0  0  0  0
    1.4030   -1.6960    1.1610 S   0  0  0  0  0  0  0  0  0  0  0  0
    2.8930   -0.7230    0.9420 C   0  0  0  0  0  0  0  0  0  0  0  0
    4.1040   -0.8160    2.4040 Br  0  0  0  0  0  0  0  0  0  0  0  0
    3.2860    0.0440   -0.0580 C   0  0  0  0  0  0  0  0  0  0  0  0
    4.9890    0.8810    0.2050 Br  0  0  0  0  0  0  0  0  0  0  0  0
    2.6080    0.3010   -1.2690 N   0  0  0  0  0  0  0  0  0  0  0  0
    1.3580    0.3020   -1.5540 C   0  0  0  0  0  0  0  0  0  0  0  0
  1  2  1  0
  2  3  1  0
  3  4  1  0
  3  7  2  0
  4  5  1  0
  5  6  2  0
  5 15  1  0
  6  7  1  0
  6  9  1  0
  7  8  1  0
  9 10  1  0
 10 11  1  0
 10 12  2  0
 12 13  1  0
 12 14  1  0
 14 15  2  0
M  END
