
     RDKit          3D

 15 15  0  0  0  0  0  0  0  0999 V2000
    3.6140   -1.2670    0.0930 C   0  0  0  0  0  0  0  0  0  0  0  0
    3.0500    0.4020   -0.2050 S   0  0  0  0  0  0  0  0  0  0  0  0
    1.2720    0.5550   -0.0500 C   0  0  0  0  0  0  0  0  0  0  0  0
    0.6150   -0.5310    0.2520 N   0  0  0  0  0  0  0  0  0  0  0  0
   -0.8240   -0.6820    0.4370 C   0  0  0  0  0  0  0  0  0  0  0  0
   -1.2470   -1.5960    1.2730 C   0  0  0  0  0  0  0  0  0  0  0  0
   -3.0400   -2.0000    1.7070 Br  0  0  0  0  0  0  0  0  0  0  0  0
    0.1040   -2.6550    2.1520 Br  0  0  0  0  0  0  0  0  0  0  0  0
   -1.8340    0.1050   -0.2480 C   0  0  0  0  0  0  0  0  0  0  0  0
   -2.8340   -0.5580   -0.7440 C   0  0  0  0  0  0  0  0  0  0  0  0
   -4.2000    0.4560   -1.6580 Br  0  0  0  0  0  0  0  0  0  0  0  0
   -1.7520    1.5340   -0.4360 N   0  0  0  0  0  0  0  0  0  0  0  0
   -0.5420    2.3220   -0.4340 C   0  0  0  0  0  0  0  0  0  0  0  0
    0.6890    1.8670   -0.2700 C   0  0  0  0  0  0  0  0  0  0  0  0
    2.0210    3.2570   -0.3350 Br  0  0  0  0  0  0  0  0  0  0  0  0
  1  2  1  0
  2  3  1  0
  3  4  2  0
  3 14  1  0
  4  5  1  0
  5  6  2  3
  5  9  1  0
  6  7  1  0
  6  8  1  0
  9 10  2  3
  9 12  1  0
 10 11  1  0
 12 13  1  0
 13 14  2  0
 14 15  1  0
M  END
