
     RDKit          3D

 15 16  0  0  0  0  0  0  0  0999 V2000
    3.6000   -2.1900   -0.7490 Br  0  0  0  0  0  0  0  0  0  0  0  0
    2.2400   -1.5640    0.4940 C   0  0  0  0  0  0  0  0  0  0  0  0
    1.9100   -0.1460    0.2920 C   0  0  0  0  0  0  0  0  0  0  0  0
    3.4850    1.0010    0.5980 Br  0  0  0  0  0  0  0  0  0  0  0  0
    0.8530    0.4770   -0.0450 C   0  0  0  0  0  0  0  0  0  0  0  0
    0.9630    2.2830   -0.1440 S   0  0  0  0  0  0  0  0  0  0  0  0
   -0.6980    2.8960   -0.2570 C   0  0  0  0  0  0  0  0  0  0  0  0
   -1.6940    2.0690   -0.4960 C   0  0  0  0  0  0  0  0  0  0  0  0
   -3.4330    2.9070   -0.6050 Br  0  0  0  0  0  0  0  0  0  0  0  0
   -1.5860    0.6430   -0.5590 C   0  0  0  0  0  0  0  0  0  0  0  0
   -2.5680   -0.2460   -0.8550 N   0  0  0  0  0  0  0  0  0  0  0  0
   -2.0870   -1.4740   -0.8540 C   0  0  0  0  0  0  0  0  0  0  0  0
   -3.0410   -3.0920   -1.2080 Br  0  0  0  0  0  0  0  0  0  0  0  0
   -0.7650   -1.3880   -0.5520 N   0  0  0  0  0  0  0  0  0  0  0  0
   -0.4340   -0.0980   -0.3630 C   0  0  0  0  0  0  0  0  0  0  0  0
  1  2  1  0
  2  3  1  0
  3  4  1  0
  3  5  2  3
  5  6  1  0
  5 15  1  0
  6  7  1  0
  7  8  2  0
  8  9  1  0
  8 10  1  0
 10 11  1  0
 10 15  2  0
 11 12  2  0
 12 13  1  0
 12 14  1  0
 14 15  1  0
M  END
