
     RDKit          3D

 22 22  0  0  0  0  0  0  0  0999 V2000
   -5.2140   -1.5280    0.8180 C   0  0  0  0  0  0  0  0  0  0  0  0
   -3.8960   -1.9280    0.1970 C   0  0  2  0  0  0  0  0  0  0  0  0
   -3.5260   -3.3630    0.6040 C   0  0  0  0  0  0  0  0  0  0  0  0
   -2.3090   -3.7080    0.0200 O   0  0  0  0  0  0  0  0  0  0  0  0
   -2.7630   -1.0570    0.6180 C   0  0  0  0  0  0  0  0  0  0  0  0
   -2.9340    0.3330    0.2740 N   0  0  0  0  0  0  0  0  0  0  0  0
   -1.6810    1.0640    0.3250 C   0  0  0  0  0  0  0  0  0  0  0  0
   -1.2320    1.5030   -1.0460 C   0  0  1  0  0  0  0  0  0  0  0  0
   -1.0890    0.2920   -1.9360 C   0  0  0  0  0  0  0  0  0  0  0  0
   -2.1860    2.3400   -1.6380 O   0  0  0  0  0  0  0  0  0  0  0  0
    0.0610    2.2560   -1.0320 C   0  0  1  0  0  0  0  0  0  0  0  0
   -0.1190    3.6280   -0.4230 C   0  0  0  0  0  0  0  0  0  0  0  0
    1.1500    1.5270   -0.4500 N   0  0  0  0  0  0  0  0  0  0  0  0
    2.3150    1.1570   -1.1800 C   0  0  0  0  0  0  0  0  0  0  0  0
    2.3270    1.5170   -2.3870 O   0  0  0  0  0  0  0  0  0  0  0  0
    3.4380    0.3930   -0.5400 C   0  0  1  0  0  0  0  0  0  0  0  0
    4.3800    0.2270   -1.5620 O   0  0  0  0  0  0  0  0  0  0  0  0
    4.0670    1.1650    0.5470 C   0  0  0  0  0  0  0  0  0  0  0  0
    4.5040    0.4600    1.7590 C   0  0  0  0  0  0  0  0  0  0  0  0
    3.8210   -0.8260    2.0690 C   0  0  0  0  0  0  0  0  0  0  0  0
    3.9120   -1.6770    0.7930 C   0  0  0  0  0  0  0  0  0  0  0  0
    3.0040   -1.0040   -0.1780 C   0  0  0  0  0  0  0  0  0  0  0  0
  2  1  1  1
  2  3  1  0
  2  5  1  0
  3  4  1  0
  5  6  1  0
  6  7  1  0
  7  8  1  0
  8  9  1  6
  8 10  1  0
  8 11  1  0
 11 12  1  1
 11 13  1  0
 13 14  1  0
 14 15  2  0
 14 16  1  0
 16 17  1  6
 16 18  1  0
 16 22  1  0
 18 19  1  0
 19 20  1  0
 20 21  1  0
 21 22  1  0
M  CHG  1   6   1
M  END
