
     RDKit          3D

 22 22  0  0  0  0  0  0  0  0999 V2000
   -4.6060   -1.5860    0.0810 C   0  0  0  0  0  0  0  0  0  0  0  0
   -3.4690   -1.0690   -0.4210 C   0  0  0  0  0  0  0  0  0  0  0  0
   -2.9650    0.0970    0.2450 C   0  0  0  0  0  0  0  0  0  0  0  0
   -3.6320    1.0450    0.8540 C   0  0  0  0  0  0  0  0  0  0  0  0
   -5.0770    1.1800    1.0010 C   0  0  0  0  0  0  0  0  0  0  0  0
   -5.4680    2.5530    0.4940 N   0  0  0  0  0  0  0  0  0  0  0  0
   -1.5410    0.3570    0.0330 N   0  0  0  0  0  0  0  0  0  0  0  0
   -0.7910   -0.4730   -0.8120 C   0  0  0  0  0  0  0  0  0  0  0  0
    0.6560   -0.1640   -0.9210 C   0  0  0  0  0  0  0  0  0  0  0  0
    1.3350   -0.8920   -1.6680 O   0  0  0  0  0  0  0  0  0  0  0  0
    1.2500    0.8460   -0.2600 O   0  0  0  0  0  0  0  0  0  0  0  0
    2.5430    1.3060   -0.1810 C   0  0  0  0  0  0  0  0  0  0  0  0
    3.5370    0.5070    0.5730 C   0  0  1  0  0  0  0  0  0  0  0  0
    3.7540   -0.8470    0.0970 C   0  0  0  0  0  0  0  0  0  0  0  0
    4.8060   -1.6300    0.8720 C   0  0  0  0  0  0  0  0  0  0  0  0
    4.7960    1.3390    0.7480 C   0  0  0  0  0  0  0  0  0  0  0  0
    5.4060    1.7380   -0.5600 C   0  0  0  0  0  0  0  0  0  0  0  0
    6.5460    2.4920   -0.2780 O   0  0  0  0  0  0  0  0  0  0  0  0
   -1.3280   -1.4730   -1.4790 C   0  0  0  0  0  0  0  0  0  0  0  0
   -2.7400   -1.8230   -1.4460 C   0  0  1  0  0  0  0  0  0  0  0  0
   -2.9180   -3.3160   -1.2500 C   0  0  0  0  0  0  0  0  0  0  0  0
   -3.3390   -1.4870   -2.6810 O   0  0  0  0  0  0  0  0  0  0  0  0
  1  2  2  0
  2  3  1  0
  2 20  1  0
  3  4  2  3
  3  7  1  0
  4  5  1  0
  5  6  1  0
  7  8  1  0
  8  9  1  0
  8 19  2  0
  9 10  2  0
  9 11  1  0
 11 12  1  0
 13 12  1  6
 13 14  1  0
 13 16  1  0
 14 15  1  0
 16 17  1  0
 17 18  1  0
 19 20  1  0
 20 21  1  1
 20 22  1  0
M  CHG  1   6   1
M  END
