
     RDKit          3D

 22 22  0  0  0  0  0  0  0  0999 V2000
   -6.2320   -1.3700   -1.1300 C   0  0  0  0  0  0  0  0  0  0  0  0
   -5.3820   -0.3070   -0.4660 C   0  0  0  0  0  0  0  0  0  0  0  0
   -4.0220   -0.2520   -1.0940 C   0  0  0  0  0  0  0  0  0  0  0  0
   -3.0850    0.7260   -0.5600 C   0  0  1  0  0  0  0  0  0  0  0  0
   -3.7170    2.1270   -0.7610 C   0  0  0  0  0  0  0  0  0  0  0  0
   -2.6140    0.7030    0.8210 C   0  0  0  0  0  0  0  0  0  0  0  0
   -1.8790   -0.4480    1.3670 C   0  0  1  0  0  0  0  0  0  0  0  0
   -1.5500   -0.0710    2.8430 C   0  0  0  0  0  0  0  0  0  0  0  0
   -2.6370   -1.7430    1.5180 C   0  0  0  0  0  0  0  0  0  0  0  0
   -1.7830   -2.5420    2.3360 O   0  0  0  0  0  0  0  0  0  0  0  0
   -0.6270   -0.7680    0.7140 N   0  0  0  0  0  0  0  0  0  0  0  0
    0.4820    0.1260    0.6380 C   0  0  0  0  0  0  0  0  0  0  0  0
    0.3850    1.2630    1.1650 O   0  0  0  0  0  0  0  0  0  0  0  0
    1.6620   -0.2710   -0.0200 O   0  0  0  0  0  0  0  0  0  0  0  0
    2.7360    0.6420   -0.0730 C   0  0  2  0  0  0  0  0  0  0  0  0
    3.0690    0.8600   -1.5280 C   0  0  0  0  0  0  0  0  0  0  0  0
    4.5200    0.5590   -1.7160 C   0  0  0  0  0  0  0  0  0  0  0  0
    5.0860    0.1310   -0.4000 C   0  0  1  0  0  0  0  0  0  0  0  0
    5.7340   -1.1550   -0.5710 N   0  0  0  0  0  0  0  0  0  0  0  0
    6.1130    1.1070    0.1400 C   0  0  0  0  0  0  0  0  0  0  0  0
    7.1930    1.2640   -0.7100 O   0  0  0  0  0  0  0  0  0  0  0  0
    3.9600    0.0370    0.5740 C   0  0  0  0  0  0  0  0  0  0  0  0
  1  2  1  0
  2  3  1  0
  3  4  1  0
  4  5  1  1
  4  6  1  0
  6  7  1  0
  7  8  1  1
  7  9  1  0
  7 11  1  0
  9 10  1  0
 11 12  1  0
 12 13  2  0
 12 14  1  0
 15 14  1  6
 15 16  1  0
 15 22  1  0
 16 17  1  0
 17 18  1  0
 18 19  1  6
 18 20  1  0
 18 22  1  0
 20 21  1  0
M  CHG  1  19   1
M  END
