
     RDKit          3D

 22 22  0  0  0  0  0  0  0  0999 V2000
    4.5630    2.3020    1.7640 C   0  0  0  0  0  0  0  0  0  0  0  0
    3.5830    2.5970    0.6840 C   0  0  0  0  0  0  0  0  0  0  0  0
    3.0700    1.4630    0.0350 O   0  0  0  0  0  0  0  0  0  0  0  0
    2.3710    0.4500    0.6210 C   0  0  0  0  0  0  0  0  0  0  0  0
    2.1590    0.5250    1.8590 O   0  0  0  0  0  0  0  0  0  0  0  0
    1.8300   -0.7520   -0.0770 C   0  0  1  0  0  0  0  0  0  0  0  0
    0.8290   -0.5490   -1.0930 C   0  0  0  0  0  0  0  0  0  0  0  0
   -0.4960    0.0850   -0.8890 C   0  0  2  0  0  0  0  0  0  0  0  0
   -0.4780    1.4920   -0.3940 C   0  0  0  0  0  0  0  0  0  0  0  0
   -1.4230   -0.7480   -0.0520 C   0  0  2  0  0  0  0  0  0  0  0  0
   -1.5280   -1.9820   -0.7550 O   0  0  0  0  0  0  0  0  0  0  0  0
   -2.8080   -0.2070   -0.0860 C   0  0  0  0  0  0  0  0  0  0  0  0
   -3.2460    0.7000   -0.8930 C   0  0  0  0  0  0  0  0  0  0  0  0
   -4.6060    1.2810   -0.9760 C   0  0  0  0  0  0  0  0  0  0  0  0
   -4.5880    2.7210   -0.7510 N   0  0  0  0  0  0  0  0  0  0  0  0
   -3.7470   -0.8550    0.8950 C   0  0  0  0  0  0  0  0  0  0  0  0
   -3.2920   -0.6120    2.2650 N   0  0  0  0  0  0  0  0  0  0  0  0
    3.1070   -1.1780   -0.8950 C   0  0  0  0  0  0  0  0  0  0  0  0
    2.9640   -2.5510   -1.4340 C   0  0  0  0  0  0  0  0  0  0  0  0
    2.8700   -3.4670   -0.3890 O   0  0  0  0  0  0  0  0  0  0  0  0
    1.6330   -3.2390    0.2210 C   0  0  0  0  0  0  0  0  0  0  0  0
    1.6800   -1.9040    0.8830 C   0  0  0  0  0  0  0  0  0  0  0  0
  1  2  1  0
  2  3  1  0
  3  4  1  0
  4  5  2  0
  4  6  1  0
  6  7  1  6
  6 18  1  0
  6 22  1  0
  7  8  1  0
  8  9  1  1
  8 10  1  0
 10 11  1  6
 10 12  1  0
 12 13  2  3
 12 16  1  0
 13 14  1  0
 14 15  1  0
 16 17  1  0
 18 19  1  0
 19 20  1  0
 20 21  1  0
 21 22  1  0
M  CHG  1  15   1
M  END
