
     RDKit          3D

 22 22  0  0  0  0  0  0  0  0999 V2000
   -0.3060    3.6740   -2.0980 C   0  0  0  0  0  0  0  0  0  0  0  0
   -0.6920    2.1790   -2.1590 C   0  0  0  0  0  0  0  0  0  0  0  0
    0.5190    1.4080   -1.6130 C   0  0  0  0  0  0  0  0  0  0  0  0
    0.3680   -0.0010   -1.6110 N   0  0  0  0  0  0  0  0  0  0  0  0
    0.0600   -0.6270   -0.3540 C   0  0  2  0  0  0  0  0  0  0  0  0
    0.9950   -0.1480    0.6760 C   0  0  0  0  0  0  0  0  0  0  0  0
    0.7670   -0.1570    1.9230 O   0  0  0  0  0  0  0  0  0  0  0  0
    2.2710    0.3710    0.2840 N   0  0  0  0  0  0  0  0  0  0  0  0
    3.2160    0.8570    1.2860 C   0  0  0  0  0  0  0  0  0  0  0  0
    4.4550    1.3350    0.5760 C   0  0  0  0  0  0  0  0  0  0  0  0
    5.4950    1.8580    1.5330 C   0  0  0  0  0  0  0  0  0  0  0  0
    6.5890    2.2680    0.7490 O   0  0  0  0  0  0  0  0  0  0  0  0
    0.3950   -2.1390   -0.4910 C   0  0  0  0  0  0  0  0  0  0  0  0
    0.0480   -2.8240    0.7950 C   0  0  0  0  0  0  0  0  0  0  0  0
   -1.2840   -2.4680    1.3420 C   0  0  2  0  0  0  0  0  0  0  0  0
   -1.9200   -3.6890    1.6840 O   0  0  0  0  0  0  0  0  0  0  0  0
   -2.1240   -1.6550    0.4250 C   0  0  1  0  0  0  0  0  0  0  0  0
   -2.7010   -2.4810   -0.7050 C   0  0  0  0  0  0  0  0  0  0  0  0
   -3.2490   -1.1800    1.1380 O   0  0  0  0  0  0  0  0  0  0  0  0
   -4.0830   -0.4090    0.3680 C   0  0  0  0  0  0  0  0  0  0  0  0
   -5.2900    0.0790    1.1660 C   0  0  0  0  0  0  0  0  0  0  0  0
   -1.3860   -0.4510   -0.0500 C   0  0  0  0  0  0  0  0  0  0  0  0
  1  2  1  0
  2  3  1  0
  3  4  1  0
  5  4  1  6
  5  6  1  0
  5 13  1  0
  5 22  1  0
  6  7  2  0
  6  8  1  0
  8  9  1  0
  9 10  1  0
 10 11  1  0
 11 12  1  0
 13 14  1  0
 14 15  1  0
 15 16  1  6
 15 17  1  0
 17 18  1  6
 17 19  1  0
 17 22  1  0
 19 20  1  0
 20 21  1  0
M  CHG  1   4   1
M  END
