
     RDKit          3D

 22 22  0  0  0  0  0  0  0  0999 V2000
   -2.8360    2.2780   -4.2390 C   0  0  0  0  0  0  0  0  0  0  0  0
   -2.2550    2.0080   -3.0900 C   0  0  0  0  0  0  0  0  0  0  0  0
   -1.0120    1.2020   -2.9910 C   0  0  0  0  0  0  0  0  0  0  0  0
   -1.1710    0.0450   -2.2260 O   0  0  0  0  0  0  0  0  0  0  0  0
   -1.5420   -0.0010   -0.9000 C   0  0  0  0  0  0  0  0  0  0  0  0
   -2.3980   -0.9010   -0.4770 C   0  0  0  0  0  0  0  0  0  0  0  0
   -2.8120   -0.9610    0.9230 C   0  0  0  0  0  0  0  0  0  0  0  0
   -3.7310   -1.8490    1.2830 C   0  0  0  0  0  0  0  0  0  0  0  0
   -4.1970   -1.9660    2.6670 C   0  0  0  0  0  0  0  0  0  0  0  0
   -5.6530   -1.7370    2.7530 N   0  0  0  0  0  0  0  0  0  0  0  0
   -2.2390   -0.0700    1.9050 C   0  0  1  0  0  0  0  0  0  0  0  0
   -1.5520   -0.7650    2.9300 O   0  0  0  0  0  0  0  0  0  0  0  0
   -1.3100    0.9080    1.3350 C   0  0  0  0  0  0  0  0  0  0  0  0
   -0.9930    0.9370    0.0720 C   0  0  0  0  0  0  0  0  0  0  0  0
   -0.0850    1.9250   -0.3240 O   0  0  0  0  0  0  0  0  0  0  0  0
    1.0880    2.1540    0.4200 C   0  0  0  0  0  0  0  0  0  0  0  0
    1.9880    0.9260    0.5070 C   0  0  0  0  0  0  0  0  0  0  0  0
    2.3680    0.5720   -0.8930 C   0  0  0  0  0  0  0  0  0  0  0  0
    3.1670   -0.5380   -0.9370 O   0  0  0  0  0  0  0  0  0  0  0  0
    4.3290   -0.3480   -0.2420 C   0  0  0  0  0  0  0  0  0  0  0  0
    5.2080   -1.5940   -0.3440 C   0  0  0  0  0  0  0  0  0  0  0  0
    6.4160   -1.3270    0.4100 N   0  0  0  0  0  0  0  0  0  0  0  0
  1  2  2  0
  2  3  1  0
  3  4  1  0
  4  5  1  0
  5  6  2  0
  5 14  1  0
  6  7  1  0
  7  8  2  3
  7 11  1  0
  8  9  1  0
  9 10  1  0
 11 12  1  1
 11 13  1  0
 13 14  2  0
 14 15  1  0
 15 16  1  0
 16 17  1  0
 17 18  1  0
 18 19  1  0
 19 20  1  0
 20 21  1  0
 21 22  1  0
M  CHG  1  22   1
M  END
