
     RDKit          3D

 20 21  0  0  0  0  0  0  0  0999 V2000
   -1.6700   -4.5240   -0.4390 N   0  0  0  0  0  0  0  0  0  0  0  0
   -2.1790   -3.2710    0.0540 C   0  0  0  0  0  0  0  0  0  0  0  0
   -1.5080   -2.1960   -0.2390 C   0  0  0  0  0  0  0  0  0  0  0  0
   -0.2430   -2.0290   -1.0350 C   0  0  0  0  0  0  0  0  0  0  0  0
    0.3860   -0.8830   -0.4020 N   0  0  0  0  0  0  0  0  0  0  0  0
    1.7890   -0.6730   -0.3880 C   0  0  0  0  0  0  0  0  0  0  0  0
    2.5880   -1.4990   -0.9540 O   0  0  0  0  0  0  0  0  0  0  0  0
    2.4090    0.4380    0.2370 N   0  0  0  0  0  0  0  0  0  0  0  0
    3.8240    0.5920    0.2120 C   0  0  0  0  0  0  0  0  0  0  0  0
    4.5470   -0.2750   -0.3770 O   0  0  0  0  0  0  0  0  0  0  0  0
    4.4500    1.7230    0.8480 C   0  0  0  0  0  0  0  0  0  0  0  0
    5.8480    1.8670    0.8190 N   0  0  0  0  0  0  0  0  0  0  0  0
    3.5460    2.8330    1.6000 S   0  0  0  0  0  0  0  0  0  0  0  0
   -0.6210   -0.0340    0.1850 C   0  0  1  0  0  0  0  0  0  0  0  0
   -0.9030    1.2330   -0.5630 C   0  0  0  0  0  0  0  0  0  0  0  0
   -2.1170    1.9560   -0.1180 C   0  0  2  0  0  0  0  0  0  0  0  0
   -1.7180    3.2020    0.5230 N   0  0  0  0  0  0  0  0  0  0  0  0
   -2.9750    1.2210    0.8870 C   0  0  0  0  0  0  0  0  0  0  0  0
   -2.9740   -0.2170    0.5110 C   0  0  0  0  0  0  0  0  0  0  0  0
   -1.8760   -0.8480    0.1720 C   0  0  0  0  0  0  0  0  0  0  0  0
  1  2  1  0
  2  3  2  3
  3  4  1  0
  3 20  1  0
  4  5  1  0
  5  6  1  0
  5 14  1  0
  6  7  2  0
  6  8  1  0
  8  9  1  0
  9 10  2  0
  9 11  1  0
 11 12  1  0
 11 13  2  0
 14 15  1  6
 14 20  1  0
 15 16  1  0
 16 17  1  1
 16 18  1  0
 18 19  1  0
 19 20  2  0
M  END
