
     RDKit          3D

 20 21  0  0  0  0  0  0  0  0999 V2000
   -0.2850   -2.7520   -1.1450 N   0  0  0  0  0  0  0  0  0  0  0  0
    0.6010   -1.8990   -0.6980 C   0  0  0  0  0  0  0  0  0  0  0  0
    1.9550   -2.2430   -0.5180 N   0  0  0  0  0  0  0  0  0  0  0  0
    2.8970   -1.3120   -0.0360 N   0  0  0  0  0  0  0  0  0  0  0  0
    2.5120    0.0060    0.2850 C   0  0  0  0  0  0  0  0  0  0  0  0
    3.3480    0.9180    0.7400 C   0  0  0  0  0  0  0  0  0  0  0  0
    4.7440    0.8070    1.0000 C   0  0  0  0  0  0  0  0  0  0  0  0
    5.5430   -0.3360    0.8190 N   0  0  0  0  0  0  0  0  0  0  0  0
    5.5520    2.1390    1.5760 S   0  0  0  0  0  0  0  0  0  0  0  0
    1.0830    0.3280    0.0830 C   0  0  0  0  0  0  0  0  0  0  0  0
    0.7150    1.4980    0.3620 O   0  0  0  0  0  0  0  0  0  0  0  0
    0.1400   -0.6110   -0.4020 N   0  0  0  0  0  0  0  0  0  0  0  0
   -1.2550   -0.1790   -0.5630 C   0  0  2  0  0  0  0  0  0  0  0  0
   -1.3150    0.8550   -1.6090 C   0  0  0  0  0  0  0  0  0  0  0  0
   -2.0410    2.1110   -1.2560 C   0  0  0  0  0  0  0  0  0  0  0  0
   -3.3050    1.7390   -0.5280 C   0  0  0  0  0  0  0  0  0  0  0  0
   -2.9120    1.1560    0.8010 C   0  0  0  0  0  0  0  0  0  0  0  0
   -1.8580    0.1320    0.7530 C   0  0  1  0  0  0  0  0  0  0  0  0
   -2.4210   -1.1590    1.3740 C   0  0  0  0  0  0  0  0  0  0  0  0
   -2.9930   -0.9240    2.6000 O   0  0  0  0  0  0  0  0  0  0  0  0
  1  2  2  0
  2  3  1  0
  2 12  1  0
  3  4  1  0
  4  5  1  0
  5  6  2  3
  5 10  1  0
  6  7  1  0
  7  8  1  0
  7  9  2  0
 10 11  2  0
 10 12  1  0
 13 12  1  1
 13 14  1  0
 13 18  1  0
 14 15  1  0
 15 16  1  0
 16 17  1  0
 17 18  1  0
 18 19  1  6
 19 20  1  0
M  END
