
     RDKit          3D

 20 22  0  0  0  0  0  0  0  0999 V2000
   -3.6410    1.2720   -0.2990 C   0  0  0  0  0  0  0  0  0  0  0  0
   -2.8510    0.5970    0.7950 C   0  0  2  0  0  0  0  0  0  0  0  0
   -2.1050    1.5610    1.5060 O   0  0  0  0  0  0  0  0  0  0  0  0
   -1.0710    1.8960    0.6310 C   0  0  2  0  0  0  0  0  0  0  0  0
   -1.5260    2.8080   -0.2790 O   0  0  0  0  0  0  0  0  0  0  0  0
   -0.6600    0.5470    0.0160 C   0  0  1  0  0  0  0  0  0  0  0  0
    0.7370    0.3100    0.1280 C   0  0  0  0  0  0  0  0  0  0  0  0
    1.5780    1.3930    0.1000 N   0  0  0  0  0  0  0  0  0  0  0  0
    2.8490    1.3430    0.0850 N   0  0  0  0  0  0  0  0  0  0  0  0
    3.5700    0.1440    0.0930 C   0  0  0  0  0  0  0  0  0  0  0  0
    4.9130   -0.0180    0.0720 C   0  0  0  0  0  0  0  0  0  0  0  0
    5.8680    1.1040    0.0090 N   0  0  0  0  0  0  0  0  0  0  0  0
    5.4000   -1.3080    0.0830 C   0  0  0  0  0  0  0  0  0  0  0  0
    3.8580   -2.2870    0.1260 S   0  0  0  0  0  0  0  0  0  0  0  0
    2.7860   -0.9660    0.1240 C   0  0  0  0  0  0  0  0  0  0  0  0
    1.3760   -0.8760    0.1430 C   0  0  0  0  0  0  0  0  0  0  0  0
    0.6940   -2.0760    0.2370 N   0  0  0  0  0  0  0  0  0  0  0  0
   -1.7540   -0.3340    0.2640 C   0  0  2  0  0  0  0  0  0  0  0  0
   -2.3020   -1.0750   -0.9570 C   0  0  0  0  0  0  0  0  0  0  0  0
   -3.4340   -1.8550   -0.5700 N   0  0  0  0  0  0  0  0  0  0  0  0
  2  1  1  6
  2  3  1  0
  2 18  1  0
  3  4  1  0
  4  5  1  6
  4  6  1  0
  6  7  1  1
  6 18  1  0
  7  8  2  0
  7 16  1  0
  8  9  1  0
  9 10  2  0
 10 11  1  0
 10 15  1  0
 11 12  1  0
 11 13  2  0
 13 14  1  0
 14 15  1  0
 15 16  2  0
 16 17  1  0
 18 19  1  6
 19 20  1  0
M  CHG  1  20   1
M  END
