
     RDKit          3D

 20 21  0  0  0  0  0  0  0  0999 V2000
   -4.3120    1.6830   -0.8670 C   0  0  0  0  0  0  0  0  0  0  0  0
   -3.1880    0.9480   -0.1620 C   0  0  2  0  0  0  0  0  0  0  0  0
   -1.9500    1.3530   -0.7170 N   0  0  0  0  0  0  0  0  0  0  0  0
   -0.6220    0.8280   -0.6880 C   0  0  0  0  0  0  0  0  0  0  0  0
    0.4460    1.6890   -1.0670 N   0  0  0  0  0  0  0  0  0  0  0  0
   -0.3090   -0.4030   -0.3330 C   0  0  0  0  0  0  0  0  0  0  0  0
    1.4280   -0.7440   -0.4020 S   0  0  2  0  0  0  0  0  0  0  0  0
    2.0220    0.1460   -1.4480 O   0  0  0  0  0  0  0  0  0  0  0  0
    1.6480   -2.1700   -0.8060 O   0  0  0  0  0  0  0  0  0  0  0  0
    2.0710   -0.3450    1.1530 C   0  0  0  0  0  0  0  0  0  0  0  0
    3.2240    0.2050    1.3980 C   0  0  0  0  0  0  0  0  0  0  0  0
    3.5970    0.4700    2.7580 N   0  0  0  0  0  0  0  0  0  0  0  0
    4.1840    0.5450    0.3320 C   0  0  2  0  0  0  0  0  0  0  0  0
    4.5520   -0.5520   -0.6040 C   0  0  0  0  0  0  0  0  0  0  0  0
    5.5600   -0.0250    0.3620 C   0  0  0  0  0  0  0  0  0  0  0  0
   -1.1560   -1.4900    0.0940 C   0  0  0  0  0  0  0  0  0  0  0  0
   -2.4790   -1.4470    0.1440 C   0  0  0  0  0  0  0  0  0  0  0  0
   -3.0070   -2.7040    0.6150 N   0  0  0  0  0  0  0  0  0  0  0  0
   -3.5100   -0.4850   -0.1470 C   0  0  1  0  0  0  0  0  0  0  0  0
   -4.5910   -0.6850    0.8360 N   0  0  0  0  0  0  0  0  0  0  0  0
  2  1  1  6
  2  3  1  0
  2 19  1  0
  3  4  1  0
  4  5  1  0
  4  6  2  0
  6  7  1  0
  6 16  1  0
  7  8  2  0
  7  9  2  0
  7 10  1  1
 10 11  2  3
 11 12  1  0
 13 11  1  1
 13 14  1  0
 13 15  1  0
 14 15  1  0
 16 17  2  0
 17 18  1  0
 17 19  1  0
 19 20  1  1
M  END
