
     RDKit          3D

 20 21  0  0  0  0  0  0  0  0999 V2000
   -3.4620   -1.1170   -1.0120 N   0  0  0  0  0  0  0  0  0  0  0  0
   -2.1270   -1.5280   -0.6440 C   0  0  0  0  0  0  0  0  0  0  0  0
   -1.5180   -2.1760   -1.4990 O   0  0  0  0  0  0  0  0  0  0  0  0
   -1.6180   -1.1430    0.7030 C   0  0  2  0  0  0  0  0  0  0  0  0
   -1.9270    0.2420    1.0910 C   0  0  0  0  0  0  0  0  0  0  0  0
   -2.3930    1.1740    0.0260 C   0  0  0  0  0  0  0  0  0  0  0  0
   -2.1320    2.5530    0.5330 C   0  0  0  0  0  0  0  0  0  0  0  0
   -3.1540    3.1800    1.2920 N   0  0  0  0  0  0  0  0  0  0  0  0
   -1.0100    3.1370    0.2790 N   0  0  0  0  0  0  0  0  0  0  0  0
    0.2630    2.3670   -0.6610 S   0  0  0  0  0  0  0  0  0  0  0  0
    1.4760    1.5880    0.3940 C   0  0  0  0  0  0  0  0  0  0  0  0
    2.1110    0.4920    0.0740 C   0  0  0  0  0  0  0  0  0  0  0  0
    3.1300   -0.3160    0.7640 C   0  0  0  0  0  0  0  0  0  0  0  0
    3.9630   -0.8900   -0.3700 C   0  0  0  0  0  0  0  0  0  0  0  0
    3.3090   -0.3910   -1.6660 C   0  0  0  0  0  0  0  0  0  0  0  0
    1.8460   -0.1670   -1.2220 C   0  0  1  0  0  0  0  0  0  0  0  0
    1.2030   -1.4610   -1.1060 N   0  0  0  0  0  0  0  0  0  0  0  0
    0.6820   -2.0790    0.0350 C   0  0  0  0  0  0  0  0  0  0  0  0
    1.1640   -3.2620    0.2670 O   0  0  0  0  0  0  0  0  0  0  0  0
   -0.2820   -1.5990    0.9540 N   0  0  0  0  0  0  0  0  0  0  0  0
  1  2  1  0
  2  3  2  0
  4  2  1  6
  4  5  1  0
  4 20  1  0
  5  6  1  0
  6  7  1  0
  7  8  1  0
  7  9  2  0
  9 10  1  0
 10 11  1  0
 11 12  2  0
 12 13  1  0
 12 16  1  0
 13 14  1  0
 14 15  1  0
 16 15  1  1
 16 17  1  0
 17 18  1  0
 18 19  2  0
 18 20  1  0
M  END
