
     RDKit          3D

 48 53  0  0  0  0  0  0  0  0999 V2000
   -7.1680   -3.5810   -2.1390 C   0  0  0  0  0  0  0  0  0  0  0  0
   -7.3860   -2.4260   -1.2630 C   0  0  0  0  0  0  0  0  0  0  0  0
   -6.5940   -2.1140   -0.1640 C   0  0  0  0  0  0  0  0  0  0  0  0
   -6.8000   -1.0290    0.6200 C   0  0  0  0  0  0  0  0  0  0  0  0
   -6.0280   -0.5870    1.7940 C   0  0  0  0  0  0  0  0  0  0  0  0
   -4.9320    0.3940    1.4240 C   0  0  1  0  0  0  0  0  0  0  0  0
   -4.3240    0.8400    2.8140 C   0  0  0  0  0  0  0  0  0  0  0  0
   -5.4530    1.3840    3.5580 C   0  0  0  0  0  0  0  0  0  0  0  0
   -6.3870    1.8540    4.1920 N   0  0  0  0  0  0  0  0  0  0  0  0
   -3.8780   -0.1170    0.5670 C   0  0  0  0  0  0  0  0  0  0  0  0
   -2.8760   -1.1150    0.9240 C   0  0  1  0  0  0  0  0  0  0  0  0
   -2.1010   -0.5160    1.9960 O   0  0  0  0  0  0  0  0  0  0  0  0
   -3.2170   -2.4950    1.2940 C   0  0  0  0  0  0  0  0  0  0  0  0
   -2.8470   -3.4330    0.1520 C   0  0  0  0  0  0  0  0  0  0  0  0
   -1.6700   -2.7530   -0.4400 C   0  0  0  0  0  0  0  0  0  0  0  0
   -1.9140   -1.2470   -0.2310 C   0  0  2  0  0  0  0  0  0  0  0  0
   -0.6910   -0.5120   -0.2650 C   0  0  0  0  0  0  0  0  0  0  0  0
   -0.3680    0.1340   -1.3440 O   0  0  0  0  0  0  0  0  0  0  0  0
    0.3170   -0.3780    0.7650 N   0  0  0  0  0  0  0  0  0  0  0  0
    1.5350    0.2310    0.4440 C   0  0  0  0  0  0  0  0  0  0  0  0
    2.5490    0.4910    1.4130 C   0  0  0  0  0  0  0  0  0  0  0  0
    3.7650    0.9490    0.9690 C   0  0  0  0  0  0  0  0  0  0  0  0
    4.0850    1.1780   -0.3270 C   0  0  0  0  0  0  0  0  0  0  0  0
    5.4010    1.5230   -0.8030 C   0  0  0  0  0  0  0  0  0  0  0  0
    6.1860    2.4260   -0.1610 O   0  0  0  0  0  0  0  0  0  0  0  0
    6.1070    3.7650    0.0540 C   0  0  0  0  0  0  0  0  0  0  0  0
    5.1100    4.3590   -0.4250 O   0  0  0  0  0  0  0  0  0  0  0  0
    7.1840    4.4920    0.8380 C   0  0  0  0  0  0  0  0  0  0  0  0
    8.0030    3.5660    1.4440 O   0  0  0  0  0  0  0  0  0  0  0  0
    8.7620    2.6160    0.8830 C   0  0  0  0  0  0  0  0  0  0  0  0
    9.4560    1.7560    1.6940 C   0  0  0  0  0  0  0  0  0  0  0  0
   10.2380    0.7630    1.2270 C   0  0  0  0  0  0  0  0  0  0  0  0
   10.3710    0.5720   -0.1800 C   0  0  0  0  0  0  0  0  0  0  0  0
   11.1560   -0.5200   -0.7110 C   0  0  0  0  0  0  0  0  0  0  0  0
   11.3410   -0.8280   -2.0290 C   0  0  0  0  0  0  0  0  0  0  0  0
   12.1550   -1.9500   -2.0310 C   0  0  0  0  0  0  0  0  0  0  0  0
   12.4070   -2.2420   -0.7590 N   0  0  0  0  0  0  0  0  0  0  0  0
   11.7990   -1.3710    0.0510 O   0  0  0  0  0  0  0  0  0  0  0  0
    9.6900    1.4250   -0.9760 C   0  0  0  0  0  0  0  0  0  0  0  0
    8.9050    2.4250   -0.4840 C   0  0  0  0  0  0  0  0  0  0  0  0
    3.0480    0.9160   -1.2770 C   0  0  0  0  0  0  0  0  0  0  0  0
    1.9230    0.4840   -0.7830 N   0  0  0  0  0  0  0  0  0  0  0  0
   -7.8780   -0.2080    0.2660 C   0  0  0  0  0  0  0  0  0  0  0  0
   -8.6890   -0.4630   -0.8030 C   0  0  0  0  0  0  0  0  0  0  0  0
   -8.4470   -1.5720   -1.5700 C   0  0  0  0  0  0  0  0  0  0  0  0
   -9.4390   -1.6050   -2.5870 N   0  0  0  0  0  0  0  0  0  0  0  0
  -10.5760   -0.7940   -2.1520 C   0  0  0  0  0  0  0  0  0  0  0  0
   -9.8890    0.2800   -1.3400 C   0  0  0  0  0  0  0  0  0  0  0  0
  1  2  1  0
  2  3  2  0
  2 45  1  0
  3  4  1  0
  4  5  1  0
  4 43  2  0
  6  5  1  1
  6  7  1  0
  6 10  1  0
  7  8  1  0
  8  9  3  0
 10 11  1  0
 11 12  1  1
 11 13  1  0
 11 16  1  0
 13 14  1  0
 14 15  1  0
 15 16  1  0
 16 17  1  1
 17 18  2  0
 17 19  1  0
 19 20  1  0
 20 21  2  0
 20 42  1  0
 21 22  1  0
 22 23  2  0
 23 24  1  0
 23 41  1  0
 24 25  1  0
 25 26  1  0
 26 27  2  0
 26 28  1  0
 28 29  1  0
 29 30  1  0
 30 31  2  0
 30 40  1  0
 31 32  1  0
 32 33  2  0
 33 34  1  0
 33 39  1  0
 34 35  2  0
 34 38  1  0
 35 36  1  0
 36 37  2  0
 37 38  1  0
 39 40  2  0
 41 42  2  0
 43 44  1  0
 44 45  2  0
 44 48  1  0
 45 46  1  0
 46 47  1  0
 47 48  1  0
M  END
