
     RDKit          3D

 47 50  0  0  0  0  0  0  0  0999 V2000
   -6.6490    4.6470    1.1520 C   0  0  0  0  0  0  0  0  0  0  0  0
   -5.3650    4.5870    1.4440 C   0  0  0  0  0  0  0  0  0  0  0  0
   -4.3680    4.4480    0.3660 C   0  0  0  0  0  0  0  0  0  0  0  0
   -3.5860    3.2000    0.5550 N   0  0  0  0  0  0  0  0  0  0  0  0
   -4.2460    1.9700    0.5610 C   0  0  0  0  0  0  0  0  0  0  0  0
   -5.5520    2.1390    0.3900 O   0  0  0  0  0  0  0  0  0  0  0  0
   -3.7420    0.6640    0.7090 C   0  0  0  0  0  0  0  0  0  0  0  0
   -2.3740    0.1580    0.8610 C   0  0  0  0  0  0  0  0  0  0  0  0
   -2.2710   -1.1070    0.9940 O   0  0  0  0  0  0  0  0  0  0  0  0
   -1.1780    0.8590    0.8810 N   0  0  0  0  0  0  0  0  0  0  0  0
    0.1780    0.6310    1.0680 C   0  0  0  0  0  0  0  0  0  0  0  0
    0.7630   -0.4770    1.3880 C   0  0  0  0  0  0  0  0  0  0  0  0
    0.0170   -1.7100    1.6380 C   0  0  0  0  0  0  0  0  0  0  0  0
    0.4270   -2.8930    1.2470 C   0  0  0  0  0  0  0  0  0  0  0  0
    1.6950   -2.9370    0.5510 N   0  0  0  0  0  0  0  0  0  0  0  0
    2.2320   -4.1900    0.0440 C   0  0  0  0  0  0  0  0  0  0  0  0
    2.4270   -1.7460    0.3370 C   0  0  0  0  0  0  0  0  0  0  0  0
    3.1440   -1.5330   -0.6340 O   0  0  0  0  0  0  0  0  0  0  0  0
    2.2560   -0.7120    1.4380 C   0  0  1  0  0  0  0  0  0  0  0  0
    3.0970    0.4840    1.2660 C   0  0  1  0  0  0  0  0  0  0  0  0
    4.1420    0.2830    0.3730 O   0  0  0  0  0  0  0  0  0  0  0  0
    5.4890    0.2840    0.5870 C   0  0  0  0  0  0  0  0  0  0  0  0
    6.0380    0.4820    1.8300 C   0  0  0  0  0  0  0  0  0  0  0  0
    7.4240    0.4640    1.9270 C   0  0  0  0  0  0  0  0  0  0  0  0
    8.2430    0.2560    0.8270 C   0  0  0  0  0  0  0  0  0  0  0  0
    9.7160    0.2430    0.9810 C   0  0  0  0  0  0  0  0  0  0  0  0
    7.6940    0.0570   -0.4220 C   0  0  0  0  0  0  0  0  0  0  0  0
    8.5680   -0.1530   -1.5710 C   0  0  0  0  0  0  0  0  0  0  0  0
    9.8050   -0.1600   -1.5060 O   0  0  0  0  0  0  0  0  0  0  0  0
    8.0060   -0.3620   -2.8350 O   0  0  0  0  0  0  0  0  0  0  0  0
    8.8220   -0.5680   -3.9800 C   0  0  0  0  0  0  0  0  0  0  0  0
    9.7260    0.6210   -4.2280 C   0  0  0  0  0  0  0  0  0  0  0  0
    6.3270    0.0740   -0.5200 C   0  0  0  0  0  0  0  0  0  0  0  0
    2.3360    1.6920    0.9150 C   0  0  0  0  0  0  0  0  0  0  0  0
    1.0560    1.8290    0.8090 C   0  0  0  0  0  0  0  0  0  0  0  0
    0.4320    3.1060    0.4460 C   0  0  0  0  0  0  0  0  0  0  0  0
   -4.6970   -0.3190    0.7120 C   0  0  0  0  0  0  0  0  0  0  0  0
   -4.2760   -1.6410    0.8530 N   0  0  0  0  0  0  0  0  0  0  0  0
   -6.0580    0.0600    0.5800 N   0  0  0  0  0  0  0  0  0  0  0  0
   -6.6880   -0.1480   -0.7020 C   0  0  0  0  0  0  0  0  0  0  0  0
   -7.2890   -1.4850   -0.7500 C   0  0  0  0  0  0  0  0  0  0  0  0
   -7.3250   -2.3160    0.3400 C   0  0  0  0  0  0  0  0  0  0  0  0
   -7.9320   -3.5530    0.2840 C   0  0  0  0  0  0  0  0  0  0  0  0
   -8.5140   -3.9670   -0.8790 C   0  0  0  0  0  0  0  0  0  0  0  0
   -8.4830   -3.1320   -1.9860 C   0  0  0  0  0  0  0  0  0  0  0  0
   -7.8810   -1.9050   -1.9330 C   0  0  0  0  0  0  0  0  0  0  0  0
   -7.8660   -1.0390   -3.1490 C   0  0  0  0  0  0  0  0  0  0  0  0
  1  2  2  0
  2  3  1  0
  3  4  1  0
  4  5  1  0
  5  6  2  0
  5  7  1  0
  7  8  1  0
  7 37  2  3
  8  9  2  0
  8 10  1  0
 10 11  1  0
 11 12  2  0
 11 35  1  0
 12 13  1  0
 12 19  1  0
 13 14  2  0
 14 15  1  0
 15 16  1  0
 15 17  1  0
 17 18  2  0
 19 17  1  6
 19 20  1  0
 20 21  1  6
 20 34  1  0
 21 22  1  0
 22 23  2  0
 22 33  1  0
 23 24  1  0
 24 25  2  0
 25 26  1  0
 25 27  1  0
 27 28  1  0
 27 33  2  0
 28 29  2  0
 28 30  1  0
 30 31  1  0
 31 32  1  0
 34 35  2  0
 35 36  1  0
 37 38  1  0
 37 39  1  0
 39 40  1  0
 40 41  1  0
 41 42  2  0
 41 46  1  0
 42 43  1  0
 43 44  2  0
 44 45  1  0
 45 46  2  0
 46 47  1  0
M  END
