
     RDKit          3D

 47 50  0  0  0  0  0  0  0  0999 V2000
   -8.0240   -0.2660    0.9560 C   0  0  0  0  0  0  0  0  0  0  0  0
   -7.5610    0.6990   -0.0660 C   0  0  0  0  0  0  0  0  0  0  0  0
   -6.0950    0.7290   -0.3730 C   0  0  1  0  0  0  0  0  0  0  0  0
   -5.3970    1.0480    0.9330 C   0  0  0  0  0  0  0  0  0  0  0  0
   -5.5550   -0.4020   -1.1480 C   0  0  1  0  0  0  0  0  0  0  0  0
   -4.0600   -0.2760   -1.4920 C   0  0  0  0  0  0  0  0  0  0  0  0
   -3.1360   -0.8340   -0.6130 N   0  0  0  0  0  0  0  0  0  0  0  0
   -1.8280   -0.2670   -0.3800 C   0  0  0  0  0  0  0  0  0  0  0  0
   -1.0850   -0.9190    0.4410 O   0  0  0  0  0  0  0  0  0  0  0  0
   -1.3100    0.9600   -0.9980 C   0  0  2  0  0  0  0  0  0  0  0  0
   -1.5140    0.9100   -2.4980 C   0  0  0  0  0  0  0  0  0  0  0  0
    0.2140    0.9090   -0.8280 C   0  0  0  0  0  0  0  0  0  0  0  0
    0.7620    0.9140    0.5370 C   0  0  0  0  0  0  0  0  0  0  0  0
    2.1320    0.7780    0.6210 O   0  0  0  0  0  0  0  0  0  0  0  0
    3.2260    1.4130    0.2450 C   0  0  0  0  0  0  0  0  0  0  0  0
    3.2320    2.6000   -0.4440 C   0  0  0  0  0  0  0  0  0  0  0  0
    4.4010    3.1970   -0.8010 C   0  0  0  0  0  0  0  0  0  0  0  0
    5.6330    2.6260   -0.4810 C   0  0  0  0  0  0  0  0  0  0  0  0
    5.6730    1.4390    0.2080 C   0  0  0  0  0  0  0  0  0  0  0  0
    4.4820    0.8670    0.5510 C   0  0  0  0  0  0  0  0  0  0  0  0
    7.0840    1.0330    0.4200 C   0  0  0  0  0  0  0  0  0  0  0  0
    7.4370   -0.0970    0.9530 C   0  0  0  0  0  0  0  0  0  0  0  0
    8.8760   -0.4050    1.1260 C   0  0  0  0  0  0  0  0  0  0  0  0
    9.6940    0.4660    0.7860 O   0  0  0  0  0  0  0  0  0  0  0  0
    9.3060   -1.6240    1.6470 N   0  0  0  0  0  0  0  0  0  0  0  0
   10.6320   -2.0960    1.9120 C   0  0  1  0  0  0  0  0  0  0  0  0
   10.9120   -3.3370    1.1220 C   0  0  0  0  0  0  0  0  0  0  0  0
   11.7110   -1.0740    1.7780 C   0  0  0  0  0  0  0  0  0  0  0  0
   12.9360   -1.3440    1.1150 N   0  0  0  0  0  0  0  0  0  0  0  0
   11.5460    0.0630    2.2590 O   0  0  0  0  0  0  0  0  0  0  0  0
    7.9190    2.1200   -0.0930 C   0  0  0  0  0  0  0  0  0  0  0  0
    7.0030    3.0910   -0.7640 C   0  0  0  0  0  0  0  0  0  0  0  0
   -1.9370    2.1270   -0.3260 C   0  0  0  0  0  0  0  0  0  0  0  0
   -1.7020    3.4930   -0.8200 C   0  0  1  0  0  0  0  0  0  0  0  0
   -2.5350    4.4120    0.1360 C   0  0  0  0  0  0  0  0  0  0  0  0
   -0.3510    4.0900   -0.8350 C   0  0  0  0  0  0  0  0  0  0  0  0
   -3.4410   -2.0890    0.1020 C   0  0  0  0  0  0  0  0  0  0  0  0
   -4.8860   -2.2470    0.4060 C   0  0  0  0  0  0  0  0  0  0  0  0
   -5.7320   -1.7270   -0.6430 N   0  0  0  0  0  0  0  0  0  0  0  0
   -6.7140   -2.5740   -1.2110 C   0  0  0  0  0  0  0  0  0  0  0  0
   -7.4620   -2.1520   -2.1140 O   0  0  0  0  0  0  0  0  0  0  0  0
   -6.9050   -3.9670   -0.7930 C   0  0  0  0  0  0  0  0  0  0  0  0
   -6.1940   -5.0610   -1.2250 C   0  0  0  0  0  0  0  0  0  0  0  0
   -6.6980   -6.1610   -0.5420 C   0  0  0  0  0  0  0  0  0  0  0  0
   -7.6540   -5.7280    0.2460 O   0  0  0  0  0  0  0  0  0  0  0  0
   -7.8030   -4.4090    0.1180 C   0  0  0  0  0  0  0  0  0  0  0  0
   -8.8220   -3.6860    0.9040 C   0  0  0  0  0  0  0  0  0  0  0  0
  1  2  1  0
  2  3  1  0
  3  4  1  1
  3  5  1  0
  5  6  1  1
  5 39  1  0
  6  7  1  0
  7  8  1  0
  7 37  1  0
  8  9  2  0
  8 10  1  0
 10 11  1  6
 10 12  1  0
 10 33  1  0
 12 13  1  0
 13 14  1  0
 14 15  1  0
 15 16  2  0
 15 20  1  0
 16 17  1  0
 17 18  2  0
 18 19  1  0
 18 32  1  0
 19 20  2  0
 19 21  1  0
 21 22  2  3
 21 31  1  0
 22 23  1  0
 23 24  2  0
 23 25  1  0
 25 26  1  0
 26 27  1  6
 26 28  1  0
 28 29  1  0
 28 30  2  0
 31 32  1  0
 33 34  1  0
 34 35  1  1
 34 36  1  0
 37 38  1  0
 38 39  1  0
 39 40  1  0
 40 41  2  0
 40 42  1  0
 42 43  1  0
 42 46  2  0
 43 44  2  0
 44 45  1  0
 45 46  1  0
 46 47  1  0
M  END
