
     RDKit          3D

 48 52  0  0  0  0  0  0  0  0999 V2000
    9.2780    3.0750   -0.6090 C   0  0  0  0  0  0  0  0  0  0  0  0
    9.5410    1.9750    0.4190 C   0  0  0  0  0  0  0  0  0  0  0  0
    8.5940    0.8440    0.0750 C   0  0  1  0  0  0  0  0  0  0  0  0
    8.7600   -0.3290    0.9790 C   0  0  0  0  0  0  0  0  0  0  0  0
    7.5900   -1.2460    0.9040 C   0  0  0  0  0  0  0  0  0  0  0  0
    6.8020   -1.0710   -0.3770 C   0  0  0  0  0  0  0  0  0  0  0  0
    6.2710    0.3420   -0.5170 C   0  0  1  0  0  0  0  0  0  0  0  0
    4.8730    0.3270   -0.1000 C   0  0  0  0  0  0  0  0  0  0  0  0
    4.4450    0.6280    1.2130 C   0  0  0  0  0  0  0  0  0  0  0  0
    3.0900    0.5440    1.5580 C   0  0  0  0  0  0  0  0  0  0  0  0
    2.1120    0.1810    0.6970 C   0  0  0  0  0  0  0  0  0  0  0  0
    2.5370   -0.1210   -0.6270 C   0  0  0  0  0  0  0  0  0  0  0  0
    3.8680   -0.0300   -0.9410 C   0  0  0  0  0  0  0  0  0  0  0  0
    1.3850   -0.5290   -1.4040 C   0  0  0  0  0  0  0  0  0  0  0  0
    1.3940   -0.8670   -2.6050 O   0  0  0  0  0  0  0  0  0  0  0  0
    0.1790   -0.4920   -0.5650 N   0  0  0  0  0  0  0  0  0  0  0  0
   -1.0740   -0.9100   -1.0210 C   0  0  1  0  0  0  0  0  0  0  0  0
   -1.3010   -2.3170   -0.5050 C   0  0  0  0  0  0  0  0  0  0  0  0
   -2.6250   -2.9390   -0.9110 C   0  0  0  0  0  0  0  0  0  0  0  0
   -2.4400   -4.3690   -0.5280 C   0  0  0  0  0  0  0  0  0  0  0  0
   -1.6540   -5.0760   -1.4210 C   0  0  0  0  0  0  0  0  0  0  0  0
   -1.3300   -6.3950   -1.2360 C   0  0  0  0  0  0  0  0  0  0  0  0
   -1.8750   -6.9490   -0.0460 C   0  0  0  0  0  0  0  0  0  0  0  0
   -2.6300   -6.3060    0.8340 C   0  0  0  0  0  0  0  0  0  0  0  0
   -2.9430   -4.9400    0.5990 C   0  0  0  0  0  0  0  0  0  0  0  0
   -2.2930   -0.1330   -1.1840 C   0  0  0  0  0  0  0  0  0  0  0  0
   -3.1950    0.3260   -1.3250 O   0  0  0  0  0  0  0  0  0  0  0  0
   -1.5540    1.4090   -0.7250 N   0  0  0  0  0  0  0  0  0  0  0  0
   -2.6460    2.3090   -0.8730 C   0  0  0  0  0  0  0  0  0  0  0  0
   -3.7950    1.9320    0.0470 C   0  0  0  0  0  0  0  0  0  0  0  0
   -3.5530    1.1340    0.9630 O   0  0  0  0  0  0  0  0  0  0  0  0
   -5.0500    2.4730   -0.1870 N   0  0  0  0  0  0  0  0  0  0  0  0
   -6.1970    2.2530    0.5880 C   0  0  0  0  0  0  0  0  0  0  0  0
   -6.2160    2.1970    1.9170 C   0  0  0  0  0  0  0  0  0  0  0  0
   -7.3730    2.0820    2.5890 C   0  0  0  0  0  0  0  0  0  0  0  0
   -7.3830    2.0830    4.0910 C   0  0  0  0  0  0  0  0  0  0  0  0
   -8.6240    2.5410    4.6420 N   0  0  0  0  0  0  0  0  0  0  0  0
   -6.4290    1.7320    4.7320 O   0  0  0  0  0  0  0  0  0  0  0  0
   -8.5430    2.0200    1.9280 C   0  0  0  0  0  0  0  0  0  0  0  0
   -8.6000    2.0790    0.5050 C   0  0  0  0  0  0  0  0  0  0  0  0
   -7.4150    2.1950   -0.2100 C   0  0  0  0  0  0  0  0  0  0  0  0
   -7.2950    2.2280   -1.4760 O   0  0  0  0  0  0  0  0  0  0  0  0
   -7.2300    2.2600   -2.7570 C   0  0  0  0  0  0  0  0  0  0  0  0
   -7.6670    3.2400   -3.7280 C   0  0  0  0  0  0  0  0  0  0  0  0
   -8.0420    4.0980   -4.5490 N   0  0  0  0  0  0  0  0  0  0  0  0
    0.7040   -0.0570    0.6690 C   0  0  0  0  0  0  0  0  0  0  0  0
   -0.0170    0.1190    1.7220 O   0  0  0  0  0  0  0  0  0  0  0  0
    7.1600    1.3430    0.1180 C   0  0  0  0  0  0  0  0  0  0  0  0
  1  2  1  0
  3  2  1  1
  3  4  1  0
  3 48  1  0
  4  5  1  0
  5  6  1  0
  6  7  1  0
  7  8  1  1
  7 48  1  0
  8  9  2  0
  8 13  1  0
  9 10  1  0
 10 11  2  0
 11 12  1  0
 11 46  1  0
 12 13  2  0
 12 14  1  0
 14 15  2  0
 14 16  1  0
 16 17  1  0
 16 46  1  0
 17 18  1  1
 17 26  1  0
 18 19  1  0
 19 20  1  0
 20 21  2  0
 20 25  1  0
 21 22  1  0
 22 23  2  0
 23 24  1  0
 24 25  2  0
 26 27  2  0
 26 28  1  0
 28 29  1  0
 29 30  1  0
 30 31  2  0
 30 32  1  0
 32 33  1  0
 33 34  2  0
 33 41  1  0
 34 35  1  0
 35 36  1  0
 35 39  2  0
 36 37  1  0
 36 38  2  0
 39 40  1  0
 40 41  2  0
 41 42  1  0
 42 43  1  0
 43 44  1  0
 44 45  3  0
 46 47  2  0
M  END
