
     RDKit          3D

 47 51  0  0  0  0  0  0  0  0999 V2000
  -10.0510    3.4970   -0.0500 C   0  0  0  0  0  0  0  0  0  0  0  0
   -8.6990    3.8880   -0.0820 O   0  0  0  0  0  0  0  0  0  0  0  0
   -7.6520    3.0590    0.2540 C   0  0  0  0  0  0  0  0  0  0  0  0
   -6.3630    3.5090    0.1970 C   0  0  0  0  0  0  0  0  0  0  0  0
   -5.3100    2.6570    0.5420 C   0  0  0  0  0  0  0  0  0  0  0  0
   -5.5090    1.3560    0.9460 C   0  0  0  0  0  0  0  0  0  0  0  0
   -4.1960    0.3010    1.3950 S   0  0  2  0  0  0  0  0  0  0  0  0
   -4.6750   -0.6120    2.5060 O   0  0  0  0  0  0  0  0  0  0  0  0
   -3.1460    1.1940    2.0480 O   0  0  0  0  0  0  0  0  0  0  0  0
   -3.4780   -0.5410    0.1260 N   0  0  0  0  0  0  0  0  0  0  0  0
   -4.2320   -1.4320   -0.6290 C   0  0  0  0  0  0  0  0  0  0  0  0
   -4.5170   -0.9850   -2.0370 C   0  0  2  0  0  0  0  0  0  0  0  0
   -5.2660    0.2910   -2.1790 C   0  0  0  0  0  0  0  0  0  0  0  0
   -5.3020   -2.0430   -2.8030 C   0  0  0  0  0  0  0  0  0  0  0  0
   -2.0730   -0.7520    0.2450 C   0  0  0  0  0  0  0  0  0  0  0  0
   -1.1950    0.2080   -0.4090 C   0  0  1  0  0  0  0  0  0  0  0  0
   -1.4190    1.5040    0.1370 O   0  0  0  0  0  0  0  0  0  0  0  0
    0.2580   -0.0300   -0.3230 C   0  0  2  0  0  0  0  0  0  0  0  0
    0.9020   -1.1980   -0.9000 C   0  0  0  0  0  0  0  0  0  0  0  0
    0.5640   -2.5710   -0.5370 C   0  0  0  0  0  0  0  0  0  0  0  0
   -0.2620   -3.3390   -1.3260 C   0  0  0  0  0  0  0  0  0  0  0  0
   -0.5630   -4.6220   -0.9790 C   0  0  0  0  0  0  0  0  0  0  0  0
   -0.0620   -5.2110    0.1670 C   0  0  0  0  0  0  0  0  0  0  0  0
    0.7630   -4.4410    0.9530 C   0  0  0  0  0  0  0  0  0  0  0  0
    1.0690   -3.1480    0.6070 C   0  0  0  0  0  0  0  0  0  0  0  0
    0.7360    0.3020    1.0310 N   0  0  0  0  0  0  0  0  0  0  0  0
    1.9890    0.2600    1.4750 C   0  0  0  0  0  0  0  0  0  0  0  0
    1.9760    0.6580    2.7910 C   0  0  0  0  0  0  0  0  0  0  0  0
    3.1220    0.7780    3.7320 C   0  0  0  0  0  0  0  0  0  0  0  0
    4.3580    0.5340    3.1460 O   0  0  0  0  0  0  0  0  0  0  0  0
    4.9300    1.2320    2.1110 C   0  0  0  0  0  0  0  0  0  0  0  0
    4.3120    2.1860    1.6190 O   0  0  0  0  0  0  0  0  0  0  0  0
    6.2260    0.8270    1.6370 N   0  0  0  0  0  0  0  0  0  0  0  0
    6.8680    1.5200    0.5600 C   0  0  2  0  0  0  0  0  0  0  0  0
    7.3360    0.5710   -0.4750 C   0  0  0  0  0  0  0  0  0  0  0  0
    6.7570    0.0770   -1.6360 C   0  0  0  0  0  0  0  0  0  0  0  0
    7.4460   -0.8200   -2.4210 C   0  0  0  0  0  0  0  0  0  0  0  0
    8.7090   -1.2330   -2.0630 C   0  0  0  0  0  0  0  0  0  0  0  0
    9.3080   -0.7590   -0.9160 C   0  0  0  0  0  0  0  0  0  0  0  0
    8.5940    0.1450   -0.1410 C   0  0  0  0  0  0  0  0  0  0  0  0
    9.0330    0.7920    1.1330 C   0  0  0  0  0  0  0  0  0  0  0  0
    8.1880    2.0730    1.1060 C   0  0  1  0  0  0  0  0  0  0  0  0
    8.7480    2.9770    0.2050 O   0  0  0  0  0  0  0  0  0  0  0  0
    0.6700    0.9240    3.0660 N   0  0  0  0  0  0  0  0  0  0  0  0
   -0.0440    0.7000    1.9890 N   0  0  0  0  0  0  0  0  0  0  0  0
   -6.8360    0.9190    0.9960 C   0  0  0  0  0  0  0  0  0  0  0  0
   -7.8750    1.7590    0.6560 C   0  0  0  0  0  0  0  0  0  0  0  0
  1  2  1  0
  2  3  1  0
  3  4  2  0
  3 47  1  0
  4  5  1  0
  5  6  2  0
  6  7  1  0
  6 46  1  0
  7  8  2  0
  7  9  2  0
  7 10  1  6
 10 11  1  0
 10 15  1  0
 11 12  1  0
 12 13  1  1
 12 14  1  0
 15 16  1  0
 16 17  1  1
 16 18  1  0
 18 19  1  1
 18 26  1  0
 19 20  1  0
 20 21  2  0
 20 25  1  0
 21 22  1  0
 22 23  2  0
 23 24  1  0
 24 25  2  0
 26 27  1  0
 26 45  1  0
 27 28  2  0
 28 29  1  0
 28 44  1  0
 29 30  1  0
 30 31  1  0
 31 32  2  0
 31 33  1  0
 34 33  1  1
 34 35  1  0
 34 42  1  0
 35 36  2  0
 35 40  1  0
 36 37  1  0
 37 38  2  0
 38 39  1  0
 39 40  2  0
 40 41  1  0
 41 42  1  0
 42 43  1  6
 44 45  2  0
 46 47  2  0
M  END
