
     RDKit          3D

 48 52  0  0  0  0  0  0  0  0999 V2000
   -0.3590   -5.5910    0.5280 C   0  0  0  0  0  0  0  0  0  0  0  0
   -1.1390   -4.4300    0.6580 O   0  0  0  0  0  0  0  0  0  0  0  0
   -1.5950   -3.7540   -0.4480 C   0  0  0  0  0  0  0  0  0  0  0  0
   -1.2950   -4.1850   -1.7040 C   0  0  0  0  0  0  0  0  0  0  0  0
   -1.7730   -3.4860   -2.7900 C   0  0  0  0  0  0  0  0  0  0  0  0
   -2.5380   -2.3770   -2.5830 C   0  0  0  0  0  0  0  0  0  0  0  0
   -2.8740   -1.8960   -1.3220 C   0  0  0  0  0  0  0  0  0  0  0  0
   -3.7110   -0.7110   -1.2240 C   0  0  0  0  0  0  0  0  0  0  0  0
   -3.9740   -0.2190    0.0970 N   0  0  0  0  0  0  0  0  0  0  0  0
   -3.0930    0.6950    0.7020 C   0  0  0  0  0  0  0  0  0  0  0  0
   -3.3750    1.0990    1.8810 O   0  0  0  0  0  0  0  0  0  0  0  0
   -1.8720    1.2290    0.1060 C   0  0  2  0  0  0  0  0  0  0  0  0
   -0.8220    1.4130    1.1200 N   0  0  0  0  0  0  0  0  0  0  0  0
    0.5310    1.1250    0.9470 C   0  0  0  0  0  0  0  0  0  0  0  0
    0.9440    0.7000   -0.1580 O   0  0  0  0  0  0  0  0  0  0  0  0
    1.5010    1.2960    2.0010 N   0  0  0  0  0  0  0  0  0  0  0  0
    2.9020    1.0520    1.7600 C   0  0  0  0  0  0  0  0  0  0  0  0
    3.1350   -0.3750    1.5380 C   0  0  0  0  0  0  0  0  0  0  0  0
    2.1420   -1.3180    1.6460 C   0  0  0  0  0  0  0  0  0  0  0  0
    2.4920   -2.6410    1.3540 C   0  0  0  0  0  0  0  0  0  0  0  0
    3.7740   -2.9760    0.9770 C   0  0  0  0  0  0  0  0  0  0  0  0
    4.7670   -2.0170    0.8730 C   0  0  0  0  0  0  0  0  0  0  0  0
    6.0720   -2.3630    0.4870 O   0  0  0  0  0  0  0  0  0  0  0  0
    7.0260   -1.3220    0.4200 C   0  0  0  0  0  0  0  0  0  0  0  0
    8.3560   -1.8070   -0.0280 C   0  0  0  0  0  0  0  0  0  0  0  0
    9.1210   -2.7750    0.5640 C   0  0  0  0  0  0  0  0  0  0  0  0
   10.2620   -2.9260   -0.1480 C   0  0  0  0  0  0  0  0  0  0  0  0
   11.4320   -3.8110    0.0130 C   0  0  0  0  0  0  0  0  0  0  0  0
   10.1620   -2.0350   -1.1680 N   0  0  0  0  0  0  0  0  0  0  0  0
    9.0430   -1.3900   -1.0840 O   0  0  0  0  0  0  0  0  0  0  0  0
    4.4390   -0.7250    1.1550 C   0  0  0  0  0  0  0  0  0  0  0  0
   -2.0350    2.6030   -0.4820 C   0  0  0  0  0  0  0  0  0  0  0  0
   -1.1010    3.0080   -1.4030 C   0  0  0  0  0  0  0  0  0  0  0  0
   -1.1510    4.2840   -1.9700 C   0  0  0  0  0  0  0  0  0  0  0  0
   -2.1580    5.1340   -1.5880 C   0  0  0  0  0  0  0  0  0  0  0  0
   -2.1800    6.4470   -2.1800 C   0  0  0  0  0  0  0  0  0  0  0  0
   -2.1980    7.5250   -2.6440 C   0  0  0  0  0  0  0  0  0  0  0  0
   -2.2340    8.8630   -3.2250 C   0  0  0  0  0  0  0  0  0  0  0  0
   -3.0890    9.8370   -2.6970 N   0  0  0  0  0  0  0  0  0  0  0  0
   -1.4990    9.1640   -4.2120 O   0  0  0  0  0  0  0  0  0  0  0  0
   -3.0900    4.7090   -0.6600 C   0  0  0  0  0  0  0  0  0  0  0  0
   -3.0440    3.4290   -0.0880 C   0  0  0  0  0  0  0  0  0  0  0  0
   -5.1640   -0.6360    0.8000 C   0  0  1  0  0  0  0  0  0  0  0  0
   -4.8860   -1.1840    2.1520 C   0  0  0  0  0  0  0  0  0  0  0  0
   -6.0590    0.5970    0.8880 C   0  0  2  0  0  0  0  0  0  0  0  0
   -7.3750    0.5360    1.5510 C   0  0  0  0  0  0  0  0  0  0  0  0
   -7.3640    0.4640    0.0670 C   0  0  0  0  0  0  0  0  0  0  0  0
   -2.3810   -2.6150   -0.2580 C   0  0  0  0  0  0  0  0  0  0  0  0
  1  2  1  0
  2  3  1  0
  3  4  2  0
  3 48  1  0
  4  5  1  0
  5  6  2  0
  6  7  1  0
  7  8  1  0
  7 48  2  0
  8  9  1  0
  9 10  1  0
  9 43  1  0
 10 11  2  0
 10 12  1  0
 12 13  1  1
 12 32  1  0
 13 14  1  0
 14 15  2  0
 14 16  1  0
 16 17  1  0
 17 18  1  0
 18 19  2  0
 18 31  1  0
 19 20  1  0
 20 21  2  0
 21 22  1  0
 22 23  1  0
 22 31  2  0
 23 24  1  0
 24 25  1  0
 25 26  2  0
 25 30  1  0
 26 27  1  0
 27 28  1  0
 27 29  2  0
 29 30  1  0
 32 33  2  0
 32 42  1  0
 33 34  1  0
 34 35  2  0
 35 36  1  0
 35 41  1  0
 36 37  3  0
 37 38  1  0
 38 39  1  0
 38 40  2  0
 41 42  2  0
 43 44  1  1
 43 45  1  0
 45 46  1  1
 45 47  1  0
 46 47  1  0
M  END
