
     RDKit          3D

 44 48  0  0  0  0  0  0  0  0999 V2000
   -6.3320   -0.2950   -1.4610 C   0  0  0  0  0  0  0  0  0  0  0  0
   -6.1240    0.6420   -0.3100 C   0  0  0  0  0  0  0  0  0  0  0  0
   -4.7580    0.7750   -0.0190 O   0  0  0  0  0  0  0  0  0  0  0  0
   -3.8100    1.2410   -0.8910 C   0  0  0  0  0  0  0  0  0  0  0  0
   -4.1760    1.5880   -2.0660 O   0  0  0  0  0  0  0  0  0  0  0  0
   -2.4160    1.3350   -0.4810 C   0  0  0  0  0  0  0  0  0  0  0  0
   -1.9310    2.4720    0.0990 C   0  0  0  0  0  0  0  0  0  0  0  0
   -2.6360    3.5880    0.3600 O   0  0  0  0  0  0  0  0  0  0  0  0
   -3.8950    4.0660    0.2130 C   0  0  1  0  0  0  0  0  0  0  0  0
   -4.4320    4.7250    1.4920 C   0  0  0  0  0  0  0  0  0  0  0  0
   -5.4180    5.7620    1.0240 C   0  0  0  0  0  0  0  0  0  0  0  0
   -5.1700    5.9240   -0.4630 C   0  0  0  0  0  0  0  0  0  0  0  0
   -3.8030    5.3160   -0.6950 C   0  0  0  0  0  0  0  0  0  0  0  0
   -0.5780    2.4730    0.4540 C   0  0  0  0  0  0  0  0  0  0  0  0
    0.2320    1.3890    0.2350 C   0  0  0  0  0  0  0  0  0  0  0  0
   -0.2520    0.2400   -0.3500 C   0  0  0  0  0  0  0  0  0  0  0  0
    0.5220   -0.8750   -0.5920 O   0  0  0  0  0  0  0  0  0  0  0  0
    1.8680   -0.8720   -0.2410 C   0  0  0  0  0  0  0  0  0  0  0  0
    2.2630   -1.2820    1.0190 C   0  0  0  0  0  0  0  0  0  0  0  0
    3.5860   -1.2750    1.3530 C   0  0  0  0  0  0  0  0  0  0  0  0
    4.5980   -0.8680    0.4780 C   0  0  0  0  0  0  0  0  0  0  0  0
    5.9300   -0.8940    0.9530 N   0  0  0  0  0  0  0  0  0  0  0  0
    7.0710   -0.7510    0.1530 C   0  0  0  0  0  0  0  0  0  0  0  0
    6.9870   -0.5880   -1.0770 O   0  0  0  0  0  0  0  0  0  0  0  0
    8.4460   -0.7950    0.7990 C   0  0  0  0  0  0  0  0  0  0  0  0
    9.5030   -0.6400   -0.2760 C   0  0  0  0  0  0  0  0  0  0  0  0
   10.8490   -0.6780    0.3110 C   0  0  0  0  0  0  0  0  0  0  0  0
   10.9760   -0.8220    1.5590 O   0  0  0  0  0  0  0  0  0  0  0  0
   12.0060   -0.5640   -0.4290 O   0  0  0  0  0  0  0  0  0  0  0  0
   13.2950   -0.6080    0.1940 C   0  0  0  0  0  0  0  0  0  0  0  0
    4.2080   -0.4610   -0.7690 C   0  0  0  0  0  0  0  0  0  0  0  0
    2.8580   -0.4680   -1.1110 C   0  0  0  0  0  0  0  0  0  0  0  0
   -1.5770    0.2460   -0.6950 C   0  0  0  0  0  0  0  0  0  0  0  0
   -2.1450   -0.9400   -1.3110 C   0  0  0  0  0  0  0  0  0  0  0  0
   -2.0940   -0.9730   -2.5850 O   0  0  0  0  0  0  0  0  0  0  0  0
   -2.7160   -1.9920   -0.5570 N   0  0  0  0  0  0  0  0  0  0  0  0
   -3.2580   -3.1310   -1.2130 C   0  0  0  0  0  0  0  0  0  0  0  0
   -3.5570   -4.2820   -0.2920 C   0  0  2  0  0  0  0  0  0  0  0  0
   -4.2540   -3.8840    0.9720 C   0  0  0  0  0  0  0  0  0  0  0  0
   -4.1060   -2.4220    1.3060 C   0  0  0  0  0  0  0  0  0  0  0  0
   -2.7360   -1.8970    0.8750 C   0  0  1  0  0  0  0  0  0  0  0  0
   -1.6360   -2.7180    1.5180 C   0  0  0  0  0  0  0  0  0  0  0  0
   -0.9590   -3.9210    0.3150 S   0  0  0  0  0  0  0  0  0  0  0  0
   -2.2990   -5.0840   -0.0540 C   0  0  0  0  0  0  0  0  0  0  0  0
  1  2  1  0
  2  3  1  0
  3  4  1  0
  4  5  2  0
  4  6  1  0
  6  7  2  0
  6 33  1  0
  7  8  1  0
  7 14  1  0
  9  8  1  1
  9 10  1  0
  9 13  1  0
 10 11  1  0
 11 12  1  0
 12 13  1  0
 14 15  2  0
 15 16  1  0
 16 17  1  0
 16 33  2  0
 17 18  1  0
 18 19  2  0
 18 32  1  0
 19 20  1  0
 20 21  2  0
 21 22  1  0
 21 31  1  0
 22 23  1  0
 23 24  2  0
 23 25  1  0
 25 26  1  0
 26 27  1  0
 27 28  2  0
 27 29  1  0
 29 30  1  0
 31 32  2  0
 33 34  1  0
 34 35  2  0
 34 36  1  0
 36 37  1  0
 36 41  1  0
 37 38  1  0
 38 39  1  1
 38 44  1  0
 39 40  1  0
 41 40  1  1
 41 42  1  0
 42 43  1  0
 43 44  1  0
M  END
