
     RDKit          3D

 22 23  0  0  0  0  0  0  0  0999 V2000
   -2.2100    0.3380    1.6580 O   0  0  0  0  0  0  0  0  0  0  0  0
   -2.0040    0.2030    0.4340 C   0  0  0  0  0  0  0  0  0  0  0  0
   -3.0850    0.1550   -0.4220 O   0  0  0  0  0  0  0  0  0  0  0  0
   -4.3820    0.2600    0.1190 C   0  0  2  0  0  0  0  0  0  0  0  0
   -5.1380   -0.9860   -0.2930 C   0  0  0  0  0  0  0  0  0  0  0  0
   -6.3870   -0.9550    0.2740 O   0  0  0  0  0  0  0  0  0  0  0  0
   -6.8080    0.2820    0.6900 C   0  0  0  0  0  0  0  0  0  0  0  0
   -6.3430    1.4080   -0.1950 C   0  0  0  0  0  0  0  0  0  0  0  0
   -4.9960    1.3630   -0.4690 O   0  0  0  0  0  0  0  0  0  0  0  0
   -0.6580    0.0980   -0.0890 C   0  0  0  0  0  0  0  0  0  0  0  0
   -0.2540   -0.0500   -1.3620 N   0  0  0  0  0  0  0  0  0  0  0  0
    1.0660   -0.0980   -1.3400 N   0  0  0  0  0  0  0  0  0  0  0  0
    1.5180    0.0150   -0.0900 C   0  0  0  0  0  0  0  0  0  0  0  0
    2.9280    0.0100    0.3750 C   0  0  0  0  0  0  0  0  0  0  0  0
    3.2810   -1.2700    0.6410 O   0  0  0  0  0  0  0  0  0  0  0  0
    4.5030   -1.5690    1.1240 C   0  0  0  0  0  0  0  0  0  0  0  0
    5.6090   -1.1650    0.2150 C   0  0  0  0  0  0  0  0  0  0  0  0
    5.6810    0.1780   -0.0550 O   0  0  0  0  0  0  0  0  0  0  0  0
    6.6680    0.4810   -0.8570 O   0  0  0  0  0  0  0  0  0  0  0  0
    6.6560    1.7660   -1.1180 O   0  0  0  0  0  0  0  0  0  0  0  0
    7.8640    2.1480   -1.4070 O   0  0  0  0  0  0  0  0  0  0  0  0
    0.4500    0.1380    0.7000 N   0  0  0  0  0  0  0  0  0  0  0  0
  1  2  2  0
  2  3  1  0
  2 10  1  0
  4  3  1  6
  4  5  1  0
  4  9  1  0
  5  6  1  0
  6  7  1  0
  7  8  1  0
  8  9  1  0
 10 11  2  0
 10 22  1  0
 11 12  1  0
 12 13  1  0
 13 14  1  0
 13 22  2  0
 14 15  1  0
 15 16  1  0
 16 17  1  0
 17 18  1  0
 18 19  1  0
 19 20  1  0
 20 21  1  0
M  END
