
     RDKit          3D

 22 22  0  0  0  0  0  0  0  0999 V2000
   -4.3460   -2.6290    0.8650 C   0  0  0  0  0  0  0  0  0  0  0  0
   -3.4480   -2.1050   -0.0810 O   0  0  0  0  0  0  0  0  0  0  0  0
   -2.2420   -1.5630    0.3550 C   0  0  0  0  0  0  0  0  0  0  0  0
   -1.9260   -1.5240    1.5590 O   0  0  0  0  0  0  0  0  0  0  0  0
   -1.3720   -1.0470   -0.6390 N   0  0  0  0  0  0  0  0  0  0  0  0
   -0.0930   -0.4630   -0.2740 C   0  0  1  0  0  0  0  0  0  0  0  0
    1.0490   -1.2170   -0.9010 C   0  0  0  0  0  0  0  0  0  0  0  0
    2.2960   -0.6680   -0.5250 O   0  0  0  0  0  0  0  0  0  0  0  0
    3.5010   -1.1660   -0.9570 C   0  0  0  0  0  0  0  0  0  0  0  0
    3.5120   -2.1630   -1.7290 O   0  0  0  0  0  0  0  0  0  0  0  0
    4.8150   -0.6020   -0.5730 C   0  0  0  0  0  0  0  0  0  0  0  0
    4.5510    0.4830    0.2770 O   0  0  0  0  0  0  0  0  0  0  0  0
    5.6520    1.0640    0.6840 O   0  0  0  0  0  0  0  0  0  0  0  0
   -0.0550    0.9630   -0.7420 C   0  0  0  0  0  0  0  0  0  0  0  0
    0.9610    1.5740   -1.4410 C   0  0  0  0  0  0  0  0  0  0  0  0
    0.5580    2.8670   -1.6430 N   0  0  0  0  0  0  0  0  0  0  0  0
   -0.6540    3.0060   -1.0800 C   0  0  0  0  0  0  0  0  0  0  0  0
   -1.0620    1.8600   -0.5180 N   0  0  0  0  0  0  0  0  0  0  0  0
   -2.2040    1.5560    0.1480 O   0  0  0  0  0  0  0  0  0  0  0  0
   -2.8650    2.4280    0.9960 C   0  0  0  0  0  0  0  0  0  0  0  0
   -2.3430    3.5720    1.1350 O   0  0  0  0  0  0  0  0  0  0  0  0
   -4.0320    2.1000    1.6690 O   0  0  0  0  0  0  0  0  0  0  0  0
  1  2  1  0
  2  3  1  0
  3  4  2  0
  3  5  1  0
  5  6  1  0
  6  7  1  6
  6 14  1  0
  7  8  1  0
  8  9  1  0
  9 10  2  0
  9 11  1  0
 11 12  1  0
 12 13  1  0
 14 15  2  0
 14 18  1  0
 15 16  1  0
 16 17  2  0
 17 18  1  0
 18 19  1  0
 19 20  1  0
 20 21  2  0
 20 22  1  0
M  END
