
     RDKit          3D

 22 22  0  0  0  0  0  0  0  0999 V2000
    2.0740   -1.6760   -1.1590 C   0  0  0  0  0  0  0  0  0  0  0  0
    2.4790   -0.7980   -0.0880 N   0  0  0  0  0  0  0  0  0  0  0  0
    3.4490   -1.2400    0.8280 C   0  0  0  0  0  0  0  0  0  0  0  0
    3.9540   -2.3770    0.7180 O   0  0  0  0  0  0  0  0  0  0  0  0
    3.8500   -0.4220    1.8550 O   0  0  0  0  0  0  0  0  0  0  0  0
    4.7570   -0.7450    2.7710 O   0  0  0  0  0  0  0  0  0  0  0  0
    5.9420   -0.2300    2.5350 O   0  0  0  0  0  0  0  0  0  0  0  0
    1.9030    0.4820    0.0260 C   0  0  0  0  0  0  0  0  0  0  0  0
    2.2960    1.2220    0.9880 O   0  0  0  0  0  0  0  0  0  0  0  0
    0.8820    1.0420   -0.8730 C   0  0  2  0  0  0  0  0  0  0  0  0
   -0.2640    1.6870   -0.1120 C   0  0  0  0  0  0  0  0  0  0  0  0
   -0.5490    1.0180    1.0960 O   0  0  0  0  0  0  0  0  0  0  0  0
   -1.7810    1.0420    1.7150 C   0  0  0  0  0  0  0  0  0  0  0  0
   -1.8460    0.6600    2.9120 O   0  0  0  0  0  0  0  0  0  0  0  0
   -3.0230    1.4870    1.0620 C   0  0  0  0  0  0  0  0  0  0  0  0
   -3.5300    0.5410    0.1000 N   0  0  0  0  0  0  0  0  0  0  0  0
   -3.1310   -0.8180    0.3890 C   0  0  0  0  0  0  0  0  0  0  0  0
   -2.0460   -1.2120   -0.5590 C   0  0  0  0  0  0  0  0  0  0  0  0
   -1.9720   -0.2760   -1.6630 N   0  0  0  0  0  0  0  0  0  0  0  0
   -0.8040    0.0170   -2.4120 C   0  0  0  0  0  0  0  0  0  0  0  0
   -0.9520    0.0970   -3.6620 O   0  0  0  0  0  0  0  0  0  0  0  0
    0.4570    0.2170   -1.9010 O   0  0  0  0  0  0  0  0  0  0  0  0
  1  2  1  0
  2  3  1  0
  2  8  1  0
  3  4  2  0
  3  5  1  0
  5  6  1  0
  6  7  1  0
  8  9  2  0
 10  8  1  1
 10 11  1  0
 10 22  1  0
 11 12  1  0
 12 13  1  0
 13 14  2  0
 13 15  1  0
 15 16  1  0
 16 17  1  0
 17 18  1  0
 18 19  1  0
 19 20  1  0
 20 21  2  0
 20 22  1  0
M  END
