
     RDKit          3D

 22 23  0  0  0  0  0  0  0  0999 V2000
   -4.6600    1.5430    1.7830 O   0  0  0  0  0  0  0  0  0  0  0  0
   -3.7500    1.1330    1.0090 C   0  0  0  0  0  0  0  0  0  0  0  0
   -3.8930   -0.1600    0.4290 N   0  0  0  0  0  0  0  0  0  0  0  0
   -2.7490   -0.8780   -0.1440 C   0  0  0  0  0  0  0  0  0  0  0  0
   -1.9110   -1.5010    0.9280 C   0  0  0  0  0  0  0  0  0  0  0  0
   -0.6350   -0.9460    0.9660 O   0  0  0  0  0  0  0  0  0  0  0  0
    0.0620   -1.4290   -0.1420 C   0  0  0  0  0  0  0  0  0  0  0  0
    1.5310   -1.4210    0.0670 C   0  0  0  0  0  0  0  0  0  0  0  0
    2.1780   -0.2970    0.3130 C   0  0  0  0  0  0  0  0  0  0  0  0
    3.6220   -0.3370    0.5110 C   0  0  0  0  0  0  0  0  0  0  0  0
    4.2740    0.6970    0.7460 O   0  0  0  0  0  0  0  0  0  0  0  0
    4.3090   -1.5630    0.4390 O   0  0  0  0  0  0  0  0  0  0  0  0
    5.6180   -1.5580    0.6240 O   0  0  0  0  0  0  0  0  0  0  0  0
    6.1080   -2.7480    0.7940 O   0  0  0  0  0  0  0  0  0  0  0  0
    1.5180    0.9990    0.3980 C   0  0  0  0  0  0  0  0  0  0  0  0
    0.3550    1.2470   -0.2020 N   0  0  0  0  0  0  0  0  0  0  0  0
   -0.0210    2.5100    0.0400 C   0  0  0  0  0  0  0  0  0  0  0  0
    0.9370    3.0390    0.8050 N   0  0  0  0  0  0  0  0  0  0  0  0
    1.8240    2.1380    1.0000 O   0  0  0  0  0  0  0  0  0  0  0  0
   -1.2650    3.0910   -0.4850 C   0  0  0  0  0  0  0  0  0  0  0  0
   -2.2090    2.0700   -0.5790 O   0  0  0  0  0  0  0  0  0  0  0  0
   -2.6260    1.8590    0.6890 O   0  0  0  0  0  0  0  0  0  0  0  0
  1  2  2  0
  2  3  1  0
  2 22  1  0
  3  4  1  0
  4  5  1  0
  5  6  1  0
  6  7  1  0
  7  8  1  0
  8  9  2  0
  9 10  1  0
  9 15  1  0
 10 11  2  0
 10 12  1  0
 12 13  1  0
 13 14  1  0
 15 16  2  0
 15 19  1  0
 16 17  1  0
 17 18  2  0
 17 20  1  0
 18 19  1  0
 20 21  1  0
 21 22  1  0
M  END
