
     RDKit          3D

 22 23  0  0  0  0  0  0  0  0999 V2000
    3.1340   -0.7190    0.9730 O   0  0  0  0  0  0  0  0  0  0  0  0
    2.9130   -0.0790   -0.0790 C   0  0  0  0  0  0  0  0  0  0  0  0
    4.0190    0.5360   -0.8480 C   0  0  0  0  0  0  0  0  0  0  0  0
    5.3040    0.3100   -0.2530 N   0  0  0  0  0  0  0  0  0  0  0  0
    6.1140   -0.7170   -0.4980 C   0  0  0  0  0  0  0  0  0  0  0  0
    5.9090   -1.6890   -1.2990 O   0  0  0  0  0  0  0  0  0  0  0  0
    7.1750   -0.5290    0.2550 O   0  0  0  0  0  0  0  0  0  0  0  0
    7.0630    0.5510    0.9460 O   0  0  0  0  0  0  0  0  0  0  0  0
    5.8990    1.0930    0.6440 C   0  0  0  0  0  0  0  0  0  0  0  0
    5.4680    2.1640    1.1410 O   0  0  0  0  0  0  0  0  0  0  0  0
    1.6090    0.0460   -0.5200 O   0  0  0  0  0  0  0  0  0  0  0  0
    0.5140   -0.4900    0.1260 C   0  0  0  0  0  0  0  0  0  0  0  0
    0.7450   -1.1360    1.1920 O   0  0  0  0  0  0  0  0  0  0  0  0
   -0.8290   -0.3370   -0.3650 N   0  0  0  0  0  0  0  0  0  0  0  0
   -1.9170   -0.9230    0.3610 C   0  0  0  0  0  0  0  0  0  0  0  0
   -3.2030   -0.5910   -0.4040 C   0  0  2  0  0  0  0  0  0  0  0  0
   -3.3910    0.8840   -0.5030 C   0  0  0  0  0  0  0  0  0  0  0  0
   -4.7840    1.3600   -0.6940 C   0  0  0  0  0  0  0  0  0  0  0  0
   -5.7980    0.4490   -0.4240 O   0  0  0  0  0  0  0  0  0  0  0  0
   -5.5430   -0.6510    0.3760 C   0  0  0  0  0  0  0  0  0  0  0  0
   -6.4370   -1.0890    1.1650 O   0  0  0  0  0  0  0  0  0  0  0  0
   -4.2770   -1.2620    0.2880 N   0  0  0  0  0  0  0  0  0  0  0  0
  1  2  2  0
  2  3  1  0
  2 11  1  0
  3  4  1  0
  4  5  1  0
  4  9  1  0
  5  6  2  0
  5  7  1  0
  7  8  1  0
  8  9  1  0
  9 10  2  0
 11 12  1  0
 12 13  2  0
 12 14  1  0
 14 15  1  0
 16 15  1  1
 16 17  1  0
 16 22  1  0
 17 18  1  0
 18 19  1  0
 19 20  1  0
 20 21  2  0
 20 22  1  0
M  END
