
     RDKit          3D

 22 23  0  0  0  0  0  0  0  0999 V2000
   -4.3910   -2.6040    0.4650 N   0  0  0  0  0  0  0  0  0  0  0  0
   -3.1110   -1.9950    0.3490 C   0  0  0  0  0  0  0  0  0  0  0  0
   -2.6240   -1.5030    1.3990 O   0  0  0  0  0  0  0  0  0  0  0  0
   -2.3980   -1.9110   -0.7910 O   0  0  0  0  0  0  0  0  0  0  0  0
   -1.1850   -1.3550   -1.1180 C   0  0  0  0  0  0  0  0  0  0  0  0
   -1.0260    0.1190   -1.1780 C   0  0  2  0  0  0  0  0  0  0  0  0
   -1.5010    0.8250    0.0190 C   0  0  0  0  0  0  0  0  0  0  0  0
   -1.3650    2.2580   -0.1100 O   0  0  0  0  0  0  0  0  0  0  0  0
   -1.7630    3.0870    0.9270 C   0  0  0  0  0  0  0  0  0  0  0  0
   -2.2350    2.5170    1.9510 O   0  0  0  0  0  0  0  0  0  0  0  0
   -1.6730    4.4550    0.8950 O   0  0  0  0  0  0  0  0  0  0  0  0
   -1.6310    0.5640   -2.3630 O   0  0  0  0  0  0  0  0  0  0  0  0
   -0.8820    1.4810   -2.8700 O   0  0  0  0  0  0  0  0  0  0  0  0
    0.3310    1.3430   -2.4480 O   0  0  0  0  0  0  0  0  0  0  0  0
    0.3650    0.4050   -1.5090 N   0  0  0  0  0  0  0  0  0  0  0  0
    1.4760   -0.2080   -0.9300 C   0  0  0  0  0  0  0  0  0  0  0  0
    2.3710    0.5510   -0.3660 N   0  0  0  0  0  0  0  0  0  0  0  0
    3.5290   -0.0010    0.2440 C   0  0  0  0  0  0  0  0  0  0  0  0
    3.7120   -0.2040    1.5950 C   0  0  0  0  0  0  0  0  0  0  0  0
    4.9820   -0.7630    1.7510 C   0  0  0  0  0  0  0  0  0  0  0  0
    5.5070   -0.8760    0.5510 O   0  0  0  0  0  0  0  0  0  0  0  0
    4.6750   -0.4350   -0.3670 C   0  0  0  0  0  0  0  0  0  0  0  0
  1  2  1  0
  2  3  2  0
  2  4  1  0
  4  5  1  0
  6  5  1  1
  6  7  1  0
  6 12  1  0
  6 15  1  0
  7  8  1  0
  8  9  1  0
  9 10  2  0
  9 11  1  0
 12 13  1  0
 13 14  1  0
 14 15  1  0
 15 16  1  0
 16 17  2  3
 17 18  1  0
 18 19  1  0
 18 22  2  0
 19 20  2  0
 20 21  1  0
 21 22  1  0
M  END
