
     RDKit          3D

 25 26  0  0  0  0  0  0  0  0999 V2000
    5.0990    0.3590    1.6540 N   0  0  0  0  0  0  0  0  0  0  0  0
    5.2340    1.7360    1.3920 N   0  0  0  0  0  0  0  0  0  0  0  0
    4.2300    2.1900    0.5870 O   0  0  0  0  0  0  0  0  0  0  0  0
    2.9360    1.0410    0.5530 P   0  0  0  0  0  0  0  0  0  0  0  0
    1.4200    1.7520    1.0770 O   0  0  0  0  0  0  0  0  0  0  0  0
    0.6160    1.6870    0.0210 O   0  0  0  0  0  0  0  0  0  0  0  0
    0.2840    0.3740   -0.3050 C   0  0  1  0  0  0  0  0  0  0  0  0
    0.3290   -0.4400    0.9430 C   0  0  0  0  0  0  0  0  0  0  0  0
   -0.9100   -0.9450    1.3270 O   0  0  0  0  0  0  0  0  0  0  0  0
   -1.8600    0.0240    1.0200 C   0  0  2  0  0  0  0  0  0  0  0  0
   -3.1420   -0.0920    1.7940 C   0  0  0  0  0  0  0  0  0  0  0  0
   -4.0710    0.9870    1.4110 C   0  0  0  0  0  0  0  0  0  0  0  0
   -3.7250    2.2170    1.3940 O   0  0  0  0  0  0  0  0  0  0  0  0
   -5.4160    0.7310    1.0330 O   0  0  0  0  0  0  0  0  0  0  0  0
   -1.9830    0.0230   -0.3870 N   0  0  0  0  0  0  0  0  0  0  0  0
   -2.8360   -0.8720   -1.0400 C   0  0  0  0  0  0  0  0  0  0  0  0
   -2.5050   -2.3030   -1.0550 C   0  0  0  0  0  0  0  0  0  0  0  0
   -3.2800   -3.3040   -1.6830 N   0  0  0  0  0  0  0  0  0  0  0  0
   -1.4580   -2.6970   -0.4700 O   0  0  0  0  0  0  0  0  0  0  0  0
   -0.8920    0.4080   -0.9840 O   0  0  0  0  0  0  0  0  0  0  0  0
    1.2740   -0.0410   -1.2730 O   0  0  0  0  0  0  0  0  0  0  0  0
    2.5900    0.4020   -1.1290 C   0  0  0  0  0  0  0  0  0  0  0  0
    3.4940    0.3730   -2.0740 C   0  0  0  0  0  0  0  0  0  0  0  0
    4.7720    0.8330   -1.8330 O   0  0  0  0  0  0  0  0  0  0  0  0
    3.1740   -0.1240   -3.3220 O   0  0  0  0  0  0  0  0  0  0  0  0
  1  2  1  0
  2  3  1  0
  3  4  1  0
  4  5  1  0
  4 22  1  0
  5  6  1  0
  6  7  1  0
  7  8  1  1
  7 20  1  0
  7 21  1  0
  8  9  1  0
  9 10  1  0
 10 11  1  1
 10 15  1  0
 11 12  1  0
 12 13  2  0
 12 14  1  0
 15 16  1  0
 15 20  1  0
 16 17  1  0
 17 18  1  0
 17 19  2  0
 21 22  1  0
 22 23  2  3
 23 24  1  0
 23 25  1  0
M  END
