
     RDKit          3D

 26 27  0  0  0  0  0  0  0  0999 V2000
    8.0950    1.3970    1.2320 C   0  0  0  0  0  0  0  0  0  0  0  0
    7.1600    1.9580    0.3370 O   0  0  0  0  0  0  0  0  0  0  0  0
    5.9180    1.3790    0.1280 C   0  0  0  0  0  0  0  0  0  0  0  0
    5.5070    0.2470    0.7540 C   0  0  0  0  0  0  0  0  0  0  0  0
    4.2420   -0.2850    0.5000 C   0  0  0  0  0  0  0  0  0  0  0  0
    3.3970    0.3270   -0.3840 C   0  0  0  0  0  0  0  0  0  0  0  0
    2.0870   -0.2590   -0.6190 C   0  0  0  0  0  0  0  0  0  0  0  0
    1.4390   -0.9270    0.3900 C   0  0  0  0  0  0  0  0  0  0  0  0
    0.1790   -1.4790    0.1400 C   0  0  0  0  0  0  0  0  0  0  0  0
   -0.4180   -1.3640   -1.0910 C   0  0  0  0  0  0  0  0  0  0  0  0
   -1.9810   -2.0500   -1.3680 S   0  0  1  0  0  0  0  0  0  0  0  0
   -2.0740   -2.4280   -2.8180 O   0  0  0  0  0  0  0  0  0  0  0  0
   -2.2330   -3.2430   -0.4810 O   0  0  0  0  0  0  0  0  0  0  0  0
   -3.2450   -0.9150   -1.0520 N   0  0  0  0  0  0  0  0  0  0  0  0
   -3.2400   -0.4830    0.3210 C   0  0  2  0  0  0  0  0  0  0  0  0
   -4.5210   -0.7460    1.0390 C   0  0  2  0  0  0  0  0  0  0  0  0
   -4.8140   -2.2410    1.0430 C   0  0  0  0  0  0  0  0  0  0  0  0
   -5.6900   -0.0470    0.4310 C   0  0  0  0  0  0  0  0  0  0  0  0
   -3.0610    1.3520    0.2760 P   0  0  0  0  0  0  0  0  0  0  0  0
   -1.3530    1.7380    0.4230 O   0  0  0  0  0  0  0  0  0  0  0  0
   -3.6520    1.9240   -1.1630 O   0  0  0  0  0  0  0  0  0  0  0  0
   -3.9540    2.0290    1.5780 O   0  0  0  0  0  0  0  0  0  0  0  0
    0.2570   -0.6890   -2.0810 C   0  0  0  0  0  0  0  0  0  0  0  0
    1.4930   -0.1460   -1.8390 C   0  0  0  0  0  0  0  0  0  0  0  0
    3.8040    1.4750   -1.0250 C   0  0  0  0  0  0  0  0  0  0  0  0
    5.0710    2.0080   -0.7700 C   0  0  0  0  0  0  0  0  0  0  0  0
  1  2  1  0
  2  3  1  0
  3  4  2  0
  3 26  1  0
  4  5  1  0
  5  6  2  0
  6  7  1  0
  6 25  1  0
  7  8  2  0
  7 24  1  0
  8  9  1  0
  9 10  2  0
 10 11  1  0
 10 23  1  0
 11 12  2  0
 11 13  2  0
 11 14  1  1
 15 14  1  6
 15 16  1  0
 15 19  1  0
 16 17  1  6
 16 18  1  0
 19 20  1  0
 19 21  1  0
 19 22  1  0
 23 24  2  0
 25 26  2  0
M  END
