
     RDKit          3D

 22 22  0  0  0  0  0  0  0  0999 V2000
    3.1110   -1.4320    0.0510 C   0  0  0  0  0  0  0  0  0  0  0  0
    2.3180   -0.1550   -0.0150 C   0  0  2  0  0  0  0  0  0  0  0  0
    1.2920   -0.1560   -0.9700 O   0  0  0  0  0  0  0  0  0  0  0  0
    0.5460   -1.1930   -1.4430 C   0  0  0  0  0  0  0  0  0  0  0  0
    0.5340   -1.3560   -2.7270 O   0  0  0  0  0  0  0  0  0  0  0  0
   -0.2270   -2.1250   -0.6780 N   0  0  0  0  0  0  0  0  0  0  0  0
   -1.2870   -1.8060    0.2010 C   0  0  0  0  0  0  0  0  0  0  0  0
   -1.3110   -2.4650    1.2990 O   0  0  0  0  0  0  0  0  0  0  0  0
   -2.3220   -0.8690    0.0470 N   0  0  0  0  0  0  0  0  0  0  0  0
   -3.6910   -1.2280    0.3040 N   0  0  0  0  0  0  0  0  0  0  0  0
   -4.4990   -1.5760   -0.8090 C   0  0  0  0  0  0  0  0  0  0  0  0
   -4.0430   -1.5750   -1.9740 O   0  0  0  0  0  0  0  0  0  0  0  0
   -2.1560    0.4840   -0.3610 C   0  0  0  0  0  0  0  0  0  0  0  0
   -2.8590    0.9280   -1.3350 O   0  0  0  0  0  0  0  0  0  0  0  0
   -1.2070    1.4540    0.2710 C   0  0  0  0  0  0  0  0  0  0  0  0
   -0.6120    2.2720   -0.7030 O   0  0  0  0  0  0  0  0  0  0  0  0
    0.5150    3.0340   -0.4860 C   0  0  0  0  0  0  0  0  0  0  0  0
    0.5730    4.1500   -1.1040 O   0  0  0  0  0  0  0  0  0  0  0  0
    1.6410    2.6740    0.3860 C   0  0  0  0  0  0  0  0  0  0  0  0
    2.7920    2.2510   -0.3180 O   0  0  0  0  0  0  0  0  0  0  0  0
    3.2320    0.9460   -0.3850 C   0  0  0  0  0  0  0  0  0  0  0  0
    4.4020    0.7200   -0.7610 O   0  0  0  0  0  0  0  0  0  0  0  0
  2  1  1  6
  2  3  1  0
  2 21  1  0
  3  4  1  0
  4  5  2  0
  4  6  1  0
  6  7  1  0
  7  8  2  0
  7  9  1  0
  9 10  1  0
  9 13  1  0
 10 11  1  0
 11 12  2  0
 13 14  2  0
 13 15  1  0
 15 16  1  0
 16 17  1  0
 17 18  2  0
 17 19  1  0
 19 20  1  0
 20 21  1  0
 21 22  2  0
M  END
