
     RDKit          3D

 22 22  0  0  0  0  0  0  0  0999 V2000
   -3.0530   -2.2760   -0.8450 O   0  0  0  0  0  0  0  0  0  0  0  0
   -3.4380   -1.0450   -0.5920 C   0  0  0  0  0  0  0  0  0  0  0  0
   -3.8730   -0.8610    0.7410 N   0  0  0  0  0  0  0  0  0  0  0  0
   -3.4040    0.2190    1.6270 C   0  0  0  0  0  0  0  0  0  0  0  0
   -1.9640    0.5790    1.3910 C   0  0  0  0  0  0  0  0  0  0  0  0
   -1.1290    0.2370    2.4590 O   0  0  0  0  0  0  0  0  0  0  0  0
    0.0890   -0.0900    1.8160 C   0  0  0  0  0  0  0  0  0  0  0  0
    0.3790    0.8560    0.7140 C   0  0  0  0  0  0  0  0  0  0  0  0
    0.2810    0.2860   -0.6430 N   0  0  0  0  0  0  0  0  0  0  0  0
    0.9740   -0.9460   -0.5790 O   0  0  0  0  0  0  0  0  0  0  0  0
    2.1860   -0.4690   -0.9820 C   0  0  0  0  0  0  0  0  0  0  0  0
    3.4470   -1.1910   -0.5360 C   0  0  0  0  0  0  0  0  0  0  0  0
    4.4100   -0.3410   -1.1910 O   0  0  0  0  0  0  0  0  0  0  0  0
    4.9420    0.3800   -0.2950 O   0  0  0  0  0  0  0  0  0  0  0  0
    5.0930   -0.0220    0.9000 O   0  0  0  0  0  0  0  0  0  0  0  0
    6.4340   -0.1920    1.1020 O   0  0  0  0  0  0  0  0  0  0  0  0
   -0.2590    0.8310   -1.7680 C   0  0  0  0  0  0  0  0  0  0  0  0
    0.4270    0.6450   -2.8700 O   0  0  0  0  0  0  0  0  0  0  0  0
   -1.4750    1.5880   -1.8770 N   0  0  0  0  0  0  0  0  0  0  0  0
   -2.8110    1.1170   -1.8220 C   0  0  0  0  0  0  0  0  0  0  0  0
   -3.7210    2.0720   -1.9150 O   0  0  0  0  0  0  0  0  0  0  0  0
   -3.3370   -0.1630   -1.6870 N   0  0  0  0  0  0  0  0  0  0  0  0
  1  2  2  0
  2  3  1  0
  2 22  1  0
  3  4  1  0
  4  5  1  0
  5  6  1  0
  6  7  1  0
  7  8  1  0
  8  9  1  0
  9 10  1  0
  9 17  1  0
 10 11  1  0
 11 12  1  0
 12 13  1  0
 13 14  1  0
 14 15  1  0
 15 16  1  0
 17 18  2  0
 17 19  1  0
 19 20  1  0
 20 21  2  0
 20 22  1  0
M  END
