
     RDKit          3D

 26 27  0  0  0  0  0  0  0  0999 V2000
    8.0710    0.4980    1.6820 C   0  0  0  0  0  0  0  0  0  0  0  0
    7.1010    1.4060    1.2320 O   0  0  0  0  0  0  0  0  0  0  0  0
    5.8530    1.0260    0.7630 C   0  0  0  0  0  0  0  0  0  0  0  0
    4.9800    2.0190    0.3450 C   0  0  0  0  0  0  0  0  0  0  0  0
    3.7270    1.6970   -0.1310 C   0  0  0  0  0  0  0  0  0  0  0  0
    3.3540    0.3910   -0.1860 C   0  0  0  0  0  0  0  0  0  0  0  0
    2.0410    0.0170   -0.6830 C   0  0  0  0  0  0  0  0  0  0  0  0
    1.4320    0.7720   -1.6610 C   0  0  0  0  0  0  0  0  0  0  0  0
    0.1770    0.4350   -2.1510 C   0  0  0  0  0  0  0  0  0  0  0  0
   -0.4390   -0.6780   -1.6280 C   0  0  0  0  0  0  0  0  0  0  0  0
   -2.0070   -1.1310   -2.2330 S   0  0  2  0  0  0  0  0  0  0  0  0
   -2.1130   -2.6290   -2.3610 O   0  0  0  0  0  0  0  0  0  0  0  0
   -2.0680   -0.6350   -3.6780 O   0  0  0  0  0  0  0  0  0  0  0  0
   -3.3210   -0.4320   -1.4450 N   0  0  0  0  0  0  0  0  0  0  0  0
   -3.4900   -0.7160   -0.0500 C   0  0  1  0  0  0  0  0  0  0  0  0
   -3.3100    0.5730    0.7110 C   0  0  2  0  0  0  0  0  0  0  0  0
   -4.3540    1.5490    0.2260 C   0  0  0  0  0  0  0  0  0  0  0  0
   -1.9470    1.1820    0.5700 C   0  0  0  0  0  0  0  0  0  0  0  0
   -4.9920   -1.4200    0.4830 P   0  0  0  0  0  0  0  0  0  0  0  0
   -5.4690   -2.8600   -0.0550 O   0  0  0  0  0  0  0  0  0  0  0  0
   -6.0170   -0.4630    1.4680 O   0  0  0  0  0  0  0  0  0  0  0  0
   -4.4640   -2.0120    1.8020 O   0  0  0  0  0  0  0  0  0  0  0  0
    0.1380   -1.4680   -0.6430 C   0  0  0  0  0  0  0  0  0  0  0  0
    1.4030   -1.0860   -0.1830 C   0  0  0  0  0  0  0  0  0  0  0  0
    4.2140   -0.6020    0.2260 C   0  0  0  0  0  0  0  0  0  0  0  0
    5.4850   -0.2860    0.7090 C   0  0  0  0  0  0  0  0  0  0  0  0
  1  2  1  0
  2  3  1  0
  3  4  2  0
  3 26  1  0
  4  5  1  0
  5  6  2  0
  6  7  1  0
  6 25  1  0
  7  8  2  0
  7 24  1  0
  8  9  1  0
  9 10  2  0
 10 11  1  0
 10 23  1  0
 11 12  2  0
 11 13  2  0
 11 14  1  1
 15 14  1  6
 15 16  1  0
 15 19  1  0
 16 17  1  6
 16 18  1  0
 19 20  1  0
 19 21  1  0
 19 22  1  0
 23 24  2  0
 25 26  2  0
M  END
