
     RDKit          3D

  9  9  0  0  0  0  0  0  0  0999 V2000
    1.9020   -0.9720   -1.4020 O   0  0  0  0  0  0  0  0  0  0  0  0
    2.1130   -0.7240   -0.1790 C   0  0  0  0  0  0  0  0  0  0  0  0
    3.2270   -1.3080    0.4250 O   0  0  0  0  0  0  0  0  0  0  0  0
    1.2470    0.1070    0.5200 O   0  0  0  0  0  0  0  0  0  0  0  0
    0.2120    0.6210   -0.1290 O   0  0  0  0  0  0  0  0  0  0  0  0
   -0.9440    0.6950    0.6380 C   0  0  2  0  0  0  0  0  0  0  0  0
   -2.1370    0.1550   -0.1140 C   0  0  0  0  0  0  0  0  0  0  0  0
   -2.7680    1.2190    0.4930 O   0  0  0  0  0  0  0  0  0  0  0  0
   -1.6410    1.8950    0.5170 O   0  0  0  0  0  0  0  0  0  0  0  0
  1  2  2  0
  2  3  1  0
  2  4  1  0
  4  5  1  0
  6  5  1  6
  6  7  1  0
  6  9  1  0
  7  8  1  0
  8  9  1  0
M  END
