
     RDKit          3D

 10 10  0  0  0  0  0  0  0  0999 V2000
    2.9170    1.1410   -1.4400 O   0  0  0  0  0  0  0  0  0  0  0  0
    2.1630    0.0630   -1.2500 O   0  0  0  0  0  0  0  0  0  0  0  0
    1.8990   -0.0710    0.1280 C   0  0  0  0  0  0  0  0  0  0  0  0
    1.0510   -1.2850    0.3370 C   0  0  0  0  0  0  0  0  0  0  0  0
   -0.1580   -1.2450   -0.3150 O   0  0  0  0  0  0  0  0  0  0  0  0
   -0.9780   -0.2060    0.0430 C   0  0  2  0  0  0  0  0  0  0  0  0
   -2.2440   -0.6470    0.4680 O   0  0  0  0  0  0  0  0  0  0  0  0
   -3.0700    0.4380    0.1490 C   0  0  0  0  0  0  0  0  0  0  0  0
   -2.3690    1.1810   -0.7980 O   0  0  0  0  0  0  0  0  0  0  0  0
   -1.3260    0.4820   -1.1310 O   0  0  0  0  0  0  0  0  0  0  0  0
  1  2  1  0
  2  3  1  0
  3  4  1  0
  4  5  1  0
  6  5  1  6
  6  7  1  0
  6 10  1  0
  7  8  1  0
  8  9  1  0
  9 10  1  0
M  END
