
     RDKit          3D

 11 11  0  0  0  0  0  0  0  0999 V2000
    4.8800    0.5910    0.2970 O   0  0  0  0  0  0  0  0  0  0  0  0
    3.7910    0.2760   -0.2900 O   0  0  0  0  0  0  0  0  0  0  0  0
    3.1640   -0.8270    0.2660 O   0  0  0  0  0  0  0  0  0  0  0  0
    2.0440   -0.7210   -0.4010 O   0  0  0  0  0  0  0  0  0  0  0  0
    0.9280   -1.1540    0.2590 C   0  0  0  0  0  0  0  0  0  0  0  0
   -0.0750    0.0480    0.1530 C   0  0  0  0  0  0  0  0  0  0  0  0
   -1.2440   -0.3660   -0.3030 O   0  0  0  0  0  0  0  0  0  0  0  0
   -2.2540    0.5350   -0.3050 C   0  0  2  0  0  0  0  0  0  0  0  0
   -3.0070    0.2160    1.1510 C   0  0  0  0  0  0  0  0  0  0  0  0
   -4.0520   -0.1730    0.4300 O   0  0  0  0  0  0  0  0  0  0  0  0
   -3.4370    0.0140   -0.6900 O   0  0  0  0  0  0  0  0  0  0  0  0
  1  2  1  0
  2  3  1  0
  3  4  1  0
  4  5  1  0
  5  6  1  0
  6  7  1  0
  8  7  1  1
  8  9  1  0
  8 11  1  0
  9 10  1  0
 10 11  1  0
M  END
