
     RDKit          3D

 10 10  0  0  0  0  0  0  0  0999 V2000
   -2.8000   -1.3380    0.0360 O   0  0  0  0  0  0  0  0  0  0  0  0
   -2.5230   -0.4600   -0.7480 O   0  0  0  0  0  0  0  0  0  0  0  0
   -2.1600    0.8430   -0.6490 C   0  0  0  0  0  0  0  0  0  0  0  0
   -0.7520    0.7920    0.0720 C   0  0  0  0  0  0  0  0  0  0  0  0
    0.0660   -0.1810   -0.4850 O   0  0  0  0  0  0  0  0  0  0  0  0
    1.1980   -0.1960    0.2590 C   0  0  2  0  0  0  0  0  0  0  0  0
    2.4630   -0.2240   -0.5360 C   0  0  0  0  0  0  0  0  0  0  0  0
    3.3530   -0.7090    0.4550 O   0  0  0  0  0  0  0  0  0  0  0  0
    2.6180   -1.0300    1.4850 O   0  0  0  0  0  0  0  0  0  0  0  0
    1.4070   -1.4000    1.0220 O   0  0  0  0  0  0  0  0  0  0  0  0
  1  2  1  0
  2  3  1  0
  3  4  1  0
  4  5  1  0
  6  5  1  6
  6  7  1  0
  6 10  1  0
  7  8  1  0
  8  9  1  0
  9 10  1  0
M  END
