
     RDKit          3D

 37 41  0  0  0  0  0  0  0  0999 V2000
   -2.2670    0.1870   -3.0290 O   0  0  0  0  0  0  0  0  0  0  0  0
   -1.9500    0.1500   -1.8200 C   0  0  0  0  0  0  0  0  0  0  0  0
   -2.9520    0.5730   -0.9000 N   0  0  0  0  0  0  0  0  0  0  0  0
   -4.2530    1.0230   -1.3110 C   0  0  0  0  0  0  0  0  0  0  0  0
   -5.2030    1.3750   -0.2340 C   0  0  1  0  0  0  0  0  0  0  0  0
   -5.5890    0.2770    0.6430 C   0  0  2  0  0  0  0  0  0  0  0  0
   -4.5850   -0.5440    1.3590 C   0  0  0  0  0  0  0  0  0  0  0  0
   -5.5800   -1.5470    2.0430 C   0  0  0  0  0  0  0  0  0  0  0  0
   -6.7130   -1.5420    1.0360 C   0  0  0  0  0  0  0  0  0  0  0  0
   -6.3450   -0.7130   -0.0350 O   0  0  0  0  0  0  0  0  0  0  0  0
   -4.7430    2.5910    0.5600 C   0  0  0  0  0  0  0  0  0  0  0  0
   -5.7960    2.9590    1.5490 C   0  0  0  0  0  0  0  0  0  0  0  0
   -7.1000    3.1780    1.0050 N   0  0  0  0  0  0  0  0  0  0  0  0
   -7.5430    2.1910    0.0640 C   0  0  0  0  0  0  0  0  0  0  0  0
   -6.4940    1.8550   -0.9430 C   0  0  0  0  0  0  0  0  0  0  0  0
   -0.6780   -0.2880   -1.4320 N   0  0  0  0  0  0  0  0  0  0  0  0
    0.3710   -0.7350   -2.2720 C   0  0  0  0  0  0  0  0  0  0  0  0
    0.1830   -1.0890   -3.5840 C   0  0  0  0  0  0  0  0  0  0  0  0
    1.2400   -1.5060   -4.4060 C   0  0  0  0  0  0  0  0  0  0  0  0
    2.4920   -1.5540   -3.8550 C   0  0  0  0  0  0  0  0  0  0  0  0
    2.7610   -1.2070   -2.5210 C   0  0  0  0  0  0  0  0  0  0  0  0
    4.0860   -1.2950   -2.0410 N   0  0  0  0  0  0  0  0  0  0  0  0
    4.5570   -0.8250   -0.8010 C   0  0  0  0  0  0  0  0  0  0  0  0
    3.7930   -0.2600    0.0120 O   0  0  0  0  0  0  0  0  0  0  0  0
    5.9750   -0.9870   -0.4240 C   0  0  0  0  0  0  0  0  0  0  0  0
    6.9080   -1.5710   -1.1840 N   0  0  0  0  0  0  0  0  0  0  0  0
    8.0710   -1.5620   -0.5760 N   0  0  0  0  0  0  0  0  0  0  0  0
    7.9100   -0.9610    0.6100 C   0  0  0  0  0  0  0  0  0  0  0  0
    8.9480   -0.7320    1.6240 C   0  0  0  0  0  0  0  0  0  0  0  0
   10.2410   -1.1450    1.4220 C   0  0  0  0  0  0  0  0  0  0  0  0
   11.1770   -0.9190    2.3820 C   0  0  0  0  0  0  0  0  0  0  0  0
   10.8650   -0.2800    3.5690 C   0  0  0  0  0  0  0  0  0  0  0  0
   11.7990   -0.0520    4.5340 F   0  0  0  0  0  0  0  0  0  0  0  0
    9.5610    0.1210    3.7410 C   0  0  0  0  0  0  0  0  0  0  0  0
    8.6000   -0.0980    2.7820 C   0  0  0  0  0  0  0  0  0  0  0  0
    6.6050   -0.6080    0.6950 N   0  0  0  0  0  0  0  0  0  0  0  0
    1.6800   -0.8080   -1.7770 C   0  0  0  0  0  0  0  0  0  0  0  0
  1  2  2  0
  2  3  1  0
  2 16  1  0
  3  4  1  0
  5  4  1  6
  5  6  1  0
  5 11  1  0
  5 15  1  0
  6  7  1  6
  6 10  1  0
  7  8  1  0
  8  9  1  0
  9 10  1  0
 11 12  1  0
 12 13  1  0
 13 14  1  0
 14 15  1  0
 16 17  1  0
 17 18  2  0
 17 37  1  0
 18 19  1  0
 19 20  2  0
 20 21  1  0
 21 22  1  0
 21 37  2  0
 22 23  1  0
 23 24  2  0
 23 25  1  0
 25 26  2  0
 25 36  1  0
 26 27  1  0
 27 28  1  0
 28 29  1  0
 28 36  2  0
 29 30  2  0
 29 35  1  0
 30 31  1  0
 31 32  2  0
 32 33  1  0
 32 34  1  0
 34 35  2  0
M  END
