
     RDKit          3D

 37 41  0  0  0  0  0  0  0  0999 V2000
   -4.7590   -3.3980   -1.2610 C   0  0  0  0  0  0  0  0  0  0  0  0
   -4.1690   -2.0660   -1.0090 C   0  0  0  0  0  0  0  0  0  0  0  0
   -4.7280   -0.8800   -0.8320 N   0  0  0  0  0  0  0  0  0  0  0  0
   -3.8090    0.0230   -0.6390 N   0  0  0  0  0  0  0  0  0  0  0  0
   -2.5480   -0.5130   -0.6780 C   0  0  0  0  0  0  0  0  0  0  0  0
   -1.3230    0.2360   -0.4560 C   0  0  0  0  0  0  0  0  0  0  0  0
   -1.3380    1.4490   -0.0200 C   0  0  0  0  0  0  0  0  0  0  0  0
   -2.5300    2.2070    0.3050 C   0  0  0  0  0  0  0  0  0  0  0  0
   -2.4030    3.4810    0.7590 C   0  0  0  0  0  0  0  0  0  0  0  0
   -1.1850    4.0310    0.9040 F   0  0  0  0  0  0  0  0  0  0  0  0
   -3.6170    4.2000    1.0750 C   0  0  0  0  0  0  0  0  0  0  0  0
   -3.6220    5.5040    1.5730 C   0  0  0  0  0  0  0  0  0  0  0  0
   -4.9370    5.8860    1.7650 C   0  0  0  0  0  0  0  0  0  0  0  0
   -5.6730    4.7960    1.3740 C   0  0  0  0  0  0  0  0  0  0  0  0
   -4.8600    3.8250    0.9750 O   0  0  0  0  0  0  0  0  0  0  0  0
   -0.0990   -0.4050   -0.7110 N   0  0  0  0  0  0  0  0  0  0  0  0
    1.1730    0.0500   -0.2750 C   0  0  0  0  0  0  0  0  0  0  0  0
    1.3300    1.0760    0.4030 O   0  0  0  0  0  0  0  0  0  0  0  0
    2.3710   -0.6690   -0.6020 N   0  0  0  0  0  0  0  0  0  0  0  0
    3.6770   -0.3330   -0.2140 C   0  0  0  0  0  0  0  0  0  0  0  0
    4.7240   -0.9300   -0.9390 C   0  0  0  0  0  0  0  0  0  0  0  0
    6.0430   -0.7180   -0.6750 C   0  0  0  0  0  0  0  0  0  0  0  0
    6.3570    0.1370    0.3710 C   0  0  0  0  0  0  0  0  0  0  0  0
    7.6380    0.3660    0.6540 N   0  0  0  0  0  0  0  0  0  0  0  0
    7.9670    1.1920    1.6640 C   0  0  0  0  0  0  0  0  0  0  0  0
    6.9810    1.7840    2.3850 N   0  0  0  0  0  0  0  0  0  0  0  0
    5.6840    1.5870    2.1410 C   0  0  0  0  0  0  0  0  0  0  0  0
    4.7660    2.1340    2.8060 O   0  0  0  0  0  0  0  0  0  0  0  0
    5.3670    0.7320    1.0950 C   0  0  0  0  0  0  0  0  0  0  0  0
    4.0270    0.5020    0.8100 C   0  0  0  0  0  0  0  0  0  0  0  0
   -2.7740   -1.8470   -0.9130 C   0  0  0  0  0  0  0  0  0  0  0  0
   -1.7960   -2.9130   -1.0080 C   0  0  0  0  0  0  0  0  0  0  0  0
   -1.4270   -3.5050   -2.1960 C   0  0  0  0  0  0  0  0  0  0  0  0
   -0.4980   -4.5480   -2.2330 C   0  0  0  0  0  0  0  0  0  0  0  0
    0.0550   -4.9950   -1.1050 N   0  0  0  0  0  0  0  0  0  0  0  0
   -0.2800   -4.4440    0.0620 C   0  0  0  0  0  0  0  0  0  0  0  0
   -1.1960   -3.4080    0.1530 C   0  0  0  0  0  0  0  0  0  0  0  0
  1  2  1  0
  2  3  1  0
  2 31  2  0
  3  4  1  0
  4  5  2  0
  5  6  1  0
  5 31  1  0
  6  7  2  3
  6 16  1  0
  7  8  1  0
  8  9  2  3
  9 10  1  0
  9 11  1  0
 11 12  2  0
 11 15  1  0
 12 13  1  0
 13 14  2  0
 14 15  1  0
 16 17  1  0
 17 18  2  0
 17 19  1  0
 19 20  1  0
 20 21  2  0
 20 30  1  0
 21 22  1  0
 22 23  2  0
 23 24  1  0
 23 29  1  0
 24 25  1  0
 25 26  2  0
 26 27  1  0
 27 28  2  0
 27 29  1  0
 29 30  2  0
 31 32  1  0
 32 33  2  0
 32 37  1  0
 33 34  1  0
 34 35  2  0
 35 36  1  0
 36 37  2  0
M  END
