
     RDKit          3D

 37 41  0  0  0  0  0  0  0  0999 V2000
    6.7020    0.7550    3.5710 C   0  0  0  0  0  0  0  0  0  0  0  0
    6.1480    0.0540    2.3620 C   0  0  0  0  0  0  0  0  0  0  0  0
    5.4310    0.7900    1.4470 C   0  0  0  0  0  0  0  0  0  0  0  0
    4.9260    0.1470    0.3440 C   0  0  0  0  0  0  0  0  0  0  0  0
    4.1460    0.9460   -0.6720 C   0  0  1  0  0  0  0  0  0  0  0  0
    4.5730    0.4560   -1.9530 N   0  0  0  0  0  0  0  0  0  0  0  0
    3.6280   -0.0370   -2.8780 C   0  0  0  0  0  0  0  0  0  0  0  0
    3.9740   -0.4410   -4.0300 O   0  0  0  0  0  0  0  0  0  0  0  0
    2.2120   -0.1090   -2.5660 C   0  0  0  0  0  0  0  0  0  0  0  0
    1.2670   -0.5820   -3.4380 C   0  0  0  0  0  0  0  0  0  0  0  0
   -0.0850   -0.6660   -3.1760 C   0  0  0  0  0  0  0  0  0  0  0  0
   -1.1670   -1.0730   -3.8350 N   0  0  0  0  0  0  0  0  0  0  0  0
   -2.2760   -0.9250   -3.0680 N   0  0  0  0  0  0  0  0  0  0  0  0
   -3.6110   -1.2820   -3.4750 C   0  0  0  0  0  0  0  0  0  0  0  0
   -1.8960   -0.4150   -1.9010 C   0  0  0  0  0  0  0  0  0  0  0  0
   -2.6830   -0.0410   -0.7240 C   0  0  0  0  0  0  0  0  0  0  0  0
   -2.0600    0.3180    0.3460 O   0  0  0  0  0  0  0  0  0  0  0  0
   -4.0770   -0.0210   -0.6120 N   0  0  0  0  0  0  0  0  0  0  0  0
   -4.8630    0.3450    0.5270 C   0  0  0  0  0  0  0  0  0  0  0  0
   -4.3970    0.7750    1.7300 C   0  0  0  0  0  0  0  0  0  0  0  0
   -5.2030    1.1320    2.8110 C   0  0  0  0  0  0  0  0  0  0  0  0
   -4.6400    1.5810    4.0400 C   0  0  0  0  0  0  0  0  0  0  0  0
   -4.1620    1.9760    5.0610 N   0  0  0  0  0  0  0  0  0  0  0  0
   -6.5640    1.0450    2.6560 C   0  0  0  0  0  0  0  0  0  0  0  0
   -7.0880    0.6160    1.4600 C   0  0  0  0  0  0  0  0  0  0  0  0
   -6.2640    0.2750    0.4210 C   0  0  0  0  0  0  0  0  0  0  0  0
   -6.8520   -0.1510   -0.7590 O   0  0  0  0  0  0  0  0  0  0  0  0
   -8.2560   -0.2340   -0.9150 C   0  0  0  0  0  0  0  0  0  0  0  0
   -8.8310    1.0010   -0.7410 F   0  0  0  0  0  0  0  0  0  0  0  0
   -0.4990   -0.2290   -1.9180 C   0  0  0  0  0  0  0  0  0  0  0  0
    0.4170    0.2520   -1.0150 C   0  0  0  0  0  0  0  0  0  0  0  0
    1.7750    0.3170   -1.3250 C   0  0  0  0  0  0  0  0  0  0  0  0
    2.7420    0.8120   -0.4000 N   0  0  0  0  0  0  0  0  0  0  0  0
    5.1580   -1.1990    0.2050 C   0  0  0  0  0  0  0  0  0  0  0  0
    5.8620   -1.9510    1.0940 C   0  0  0  0  0  0  0  0  0  0  0  0
    6.3840   -1.3140    2.2230 C   0  0  0  0  0  0  0  0  0  0  0  0
    7.1250   -2.0280    3.1920 N   0  0  0  0  0  0  0  0  0  0  0  0
  1  2  1  0
  2  3  2  0
  2 36  1  0
  3  4  1  0
  5  4  1  1
  4 34  2  0
  5  6  1  0
  5 33  1  0
  6  7  1  0
  7  8  2  0
  7  9  1  0
  9 10  2  0
  9 32  1  0
 10 11  1  0
 11 12  2  0
 11 30  1  0
 12 13  1  0
 13 14  1  0
 13 15  1  0
 15 16  1  0
 15 30  2  0
 16 17  2  0
 16 18  1  0
 18 19  1  0
 19 20  2  0
 19 26  1  0
 20 21  1  0
 21 22  1  0
 21 24  2  0
 22 23  3  0
 24 25  1  0
 25 26  2  0
 26 27  1  0
 27 28  1  0
 28 29  1  0
 30 31  1  0
 31 32  2  0
 32 33  1  0
 34 35  1  0
 35 36  2  0
 36 37  1  0
M  END
