
     RDKit          3D

 37 38  0  0  0  0  0  0  0  0999 V2000
    8.6380   -2.7600    1.8710 C   0  0  0  0  0  0  0  0  0  0  0  0
    7.6900   -2.8610    0.7310 C   0  0  0  0  0  0  0  0  0  0  0  0
    6.8940   -1.8550    0.3840 C   0  0  0  0  0  0  0  0  0  0  0  0
    6.9890   -0.6180    1.1860 C   0  0  0  0  0  0  0  0  0  0  0  0
    5.9660   -1.9380   -0.7240 C   0  0  0  0  0  0  0  0  0  0  0  0
    5.2060   -0.8590   -0.9880 C   0  0  0  0  0  0  0  0  0  0  0  0
    4.2540   -0.8540   -2.0740 C   0  0  0  0  0  0  0  0  0  0  0  0
    3.4820    0.1570   -2.3810 C   0  0  0  0  0  0  0  0  0  0  0  0
    3.5190    1.4160   -1.6140 C   0  0  2  0  0  0  0  0  0  0  0  0
    4.8170    1.8540   -1.5810 O   0  0  0  0  0  0  0  0  0  0  0  0
    5.0800    2.9220   -2.4080 C   0  0  0  0  0  0  0  0  0  0  0  0
    2.8150    1.3660   -0.2780 C   0  0  1  0  0  0  0  0  0  0  0  0
    3.0930    2.7730    0.3160 C   0  0  0  0  0  0  0  0  0  0  0  0
    1.3100    1.2820   -0.4220 C   0  0  1  0  0  0  0  0  0  0  0  0
    1.0280    0.1320   -1.2060 O   0  0  0  0  0  0  0  0  0  0  0  0
    0.2850    0.4910   -2.3310 C   0  0  0  0  0  0  0  0  0  0  0  0
    0.6130    0.9660    0.8980 C   0  0  1  0  0  0  0  0  0  0  0  0
    0.7910    1.9340    1.9900 C   0  0  0  0  0  0  0  0  0  0  0  0
   -0.7900    0.5590    0.6070 C   0  0  0  0  0  0  0  0  0  0  0  0
   -1.6410    0.1990    1.7730 C   0  0  0  0  0  0  0  0  0  0  0  0
   -3.0020   -0.2170    1.2620 C   0  0  0  0  0  0  0  0  0  0  0  0
   -4.0360    0.5940    1.3610 O   0  0  0  0  0  0  0  0  0  0  0  0
   -5.2290    0.2740    0.9330 C   0  0  0  0  0  0  0  0  0  0  0  0
   -6.3080    1.1560    1.0520 C   0  0  0  0  0  0  0  0  0  0  0  0
   -6.1310    2.4120    1.6390 O   0  0  0  0  0  0  0  0  0  0  0  0
   -7.5650    0.8140    0.5980 C   0  0  0  0  0  0  0  0  0  0  0  0
   -8.6480    1.6870    0.7130 O   0  0  0  0  0  0  0  0  0  0  0  0
   -9.9090    1.2730    0.2270 C   0  0  0  0  0  0  0  0  0  0  0  0
   -7.7150   -0.4310    0.0230 C   0  0  0  0  0  0  0  0  0  0  0  0
   -6.6470   -1.2970   -0.0920 C   0  0  0  0  0  0  0  0  0  0  0  0
   -6.7960   -2.5640   -0.6770 O   0  0  0  0  0  0  0  0  0  0  0  0
   -8.1010   -2.9260   -1.1520 C   0  0  0  0  0  0  0  0  0  0  0  0
   -5.3880   -0.9670    0.3570 C   0  0  0  0  0  0  0  0  0  0  0  0
   -4.3530   -1.8600    0.2210 C   0  0  0  0  0  0  0  0  0  0  0  0
   -4.4800   -2.9950   -0.3010 O   0  0  0  0  0  0  0  0  0  0  0  0
   -3.0950   -1.4660    0.6980 C   0  0  0  0  0  0  0  0  0  0  0  0
   -1.9590   -2.4030    0.5660 C   0  0  0  0  0  0  0  0  0  0  0  0
  1  2  1  0
  2  3  2  3
  3  4  1  0
  3  5  1  0
  5  6  2  3
  6  7  1  0
  7  8  2  3
  8  9  1  0
  9 10  1  1
  9 12  1  0
 10 11  1  0
 12 13  1  1
 12 14  1  0
 14 15  1  6
 14 17  1  0
 15 16  1  0
 17 18  1  1
 17 19  1  0
 19 20  1  0
 20 21  1  0
 21 22  1  0
 21 36  2  0
 22 23  1  0
 23 24  2  0
 23 33  1  0
 24 25  1  0
 24 26  1  0
 26 27  1  0
 26 29  2  0
 27 28  1  0
 29 30  1  0
 30 31  1  0
 30 33  2  0
 31 32  1  0
 33 34  1  0
 34 35  2  0
 34 36  1  0
 36 37  1  0
M  END
