
     RDKit          3D

 37 41  0  0  0  0  0  0  0  0999 V2000
    8.0420   -0.3750   -1.6290 C   0  0  0  0  0  0  0  0  0  0  0  0
    6.6080   -0.6530   -1.4040 C   0  0  0  0  0  0  0  0  0  0  0  0
    5.8150    0.1590   -0.6680 N   0  0  0  0  0  0  0  0  0  0  0  0
    4.5260   -0.0360   -0.4330 C   0  0  0  0  0  0  0  0  0  0  0  0
    3.6730    0.7800    0.3400 N   0  0  0  0  0  0  0  0  0  0  0  0
    4.0600    1.9680    1.0110 C   0  0  0  0  0  0  0  0  0  0  0  0
    5.3810    2.3470    1.0990 C   0  0  0  0  0  0  0  0  0  0  0  0
    5.7220    3.4690    1.8130 C   0  0  0  0  0  0  0  0  0  0  0  0
    4.7730    4.2190    2.4420 C   0  0  0  0  0  0  0  0  0  0  0  0
    5.1080    5.3280    3.1520 F   0  0  0  0  0  0  0  0  0  0  0  0
    3.4400    3.8390    2.3530 C   0  0  0  0  0  0  0  0  0  0  0  0
    3.0580    2.7420    1.6600 C   0  0  0  0  0  0  0  0  0  0  0  0
    1.6850    2.3610    1.4820 N   0  0  0  0  0  0  0  0  0  0  0  0
    0.6070    2.7870    2.2780 C   0  0  0  0  0  0  0  0  0  0  0  0
    0.8530    3.5810    3.2590 O   0  0  0  0  0  0  0  0  0  0  0  0
   -0.8130    2.3850    2.0730 C   0  0  0  0  0  0  0  0  0  0  0  0
   -1.0460    1.5190    0.9580 N   0  0  0  0  0  0  0  0  0  0  0  0
   -2.4030    1.0550    0.7170 C   0  0  0  0  0  0  0  0  0  0  0  0
   -3.3280    1.4120    1.4810 O   0  0  0  0  0  0  0  0  0  0  0  0
   -2.6700    0.2120   -0.3660 N   0  0  0  0  0  0  0  0  0  0  0  0
   -3.9180   -0.3450   -0.7120 C   0  0  0  0  0  0  0  0  0  0  0  0
   -4.1190   -0.8840   -1.9970 C   0  0  0  0  0  0  0  0  0  0  0  0
   -5.3010   -1.4660   -2.3720 C   0  0  0  0  0  0  0  0  0  0  0  0
   -6.3730   -1.5620   -1.5130 C   0  0  0  0  0  0  0  0  0  0  0  0
   -7.6160   -2.0620   -1.5750 N   0  0  0  0  0  0  0  0  0  0  0  0
   -8.2770   -1.8990   -0.4170 C   0  0  0  0  0  0  0  0  0  0  0  0
   -9.6900   -2.3430   -0.1270 C   0  0  0  0  0  0  0  0  0  0  0  0
   -7.3960   -1.2610    0.4200 C   0  0  0  0  0  0  0  0  0  0  0  0
   -7.6690   -0.8670    1.8230 C   0  0  0  0  0  0  0  0  0  0  0  0
   -6.2090   -1.0460   -0.2490 C   0  0  0  0  0  0  0  0  0  0  0  0
   -4.9950   -0.4490    0.1310 C   0  0  0  0  0  0  0  0  0  0  0  0
    3.9510   -1.1620   -0.9880 N   0  0  0  0  0  0  0  0  0  0  0  0
    4.6980   -1.9990   -1.7270 C   0  0  0  0  0  0  0  0  0  0  0  0
    6.0330   -1.7560   -1.9430 C   0  0  0  0  0  0  0  0  0  0  0  0
    6.5580   -2.8680   -2.7780 C   0  0  0  0  0  0  0  0  0  0  0  0
    5.6220   -3.8860   -2.5920 O   0  0  0  0  0  0  0  0  0  0  0  0
    4.3980   -3.2800   -2.4560 C   0  0  0  0  0  0  0  0  0  0  0  0
  1  2  1  0
  2  3  2  0
  2 34  1  0
  3  4  1  0
  4  5  1  0
  4 32  2  0
  5  6  1  0
  6  7  2  0
  6 12  1  0
  7  8  1  0
  8  9  2  0
  9 10  1  0
  9 11  1  0
 11 12  2  0
 12 13  1  0
 13 14  1  0
 14 15  2  0
 14 16  1  0
 16 17  1  0
 17 18  1  0
 18 19  2  0
 18 20  1  0
 20 21  1  0
 21 22  2  0
 21 31  1  0
 22 23  1  0
 23 24  2  0
 24 25  1  0
 24 30  1  0
 25 26  1  0
 26 27  1  0
 26 28  2  0
 28 29  1  0
 28 30  1  0
 30 31  2  0
 32 33  1  0
 33 34  2  0
 33 37  1  0
 34 35  1  0
 35 36  1  0
 36 37  1  0
M  END
