
     RDKit          3D

 37 41  0  0  0  0  0  0  0  0999 V2000
   10.3610    0.0690   -1.2580 C   0  0  0  0  0  0  0  0  0  0  0  0
    9.4590    1.0440   -0.4890 C   0  0  2  0  0  0  0  0  0  0  0  0
    9.7210    0.9770    0.9970 C   0  0  0  0  0  0  0  0  0  0  0  0
    8.3820    1.3040    1.5760 C   0  0  0  0  0  0  0  0  0  0  0  0
    7.7540    1.6660    2.7520 N   0  0  0  0  0  0  0  0  0  0  0  0
    6.4370    1.6840    2.4300 N   0  0  0  0  0  0  0  0  0  0  0  0
    6.1330    1.3910    1.2180 C   0  0  0  0  0  0  0  0  0  0  0  0
    4.9860    1.1540    0.3840 C   0  0  0  0  0  0  0  0  0  0  0  0
    4.7860    1.2590   -0.7720 O   0  0  0  0  0  0  0  0  0  0  0  0
    3.6300    0.5600    1.2640 N   0  0  0  0  0  0  0  0  0  0  0  0
    2.7860    0.3150    0.1400 C   0  0  0  0  0  0  0  0  0  0  0  0
    2.6910    0.8850   -0.9460 O   0  0  0  0  0  0  0  0  0  0  0  0
    1.8830   -0.8370    0.3500 N   0  0  0  0  0  0  0  0  0  0  0  0
    1.0730   -1.2080   -0.6820 N   0  0  0  0  0  0  0  0  0  0  0  0
   -0.3330   -1.2980   -0.6410 C   0  0  0  0  0  0  0  0  0  0  0  0
   -0.8360   -2.6230   -0.7230 C   0  0  0  0  0  0  0  0  0  0  0  0
   -2.2260   -2.7740   -0.6880 C   0  0  0  0  0  0  0  0  0  0  0  0
   -3.0670   -1.7050   -0.5860 C   0  0  0  0  0  0  0  0  0  0  0  0
   -4.5190   -2.0200   -0.4150 C   0  0  0  0  0  0  0  0  0  0  0  0
   -4.9290   -2.9780   -1.0650 O   0  0  0  0  0  0  0  0  0  0  0  0
   -5.2900   -1.2330    0.4470 N   0  0  0  0  0  0  0  0  0  0  0  0
   -6.6630   -1.3850    0.7310 C   0  0  1  0  0  0  0  0  0  0  0  0
   -7.4880   -0.1400    0.6500 C   0  0  0  0  0  0  0  0  0  0  0  0
   -8.2340   -0.2420   -0.6870 C   0  0  0  0  0  0  0  0  0  0  0  0
   -8.3440   -1.7190   -1.0110 C   0  0  0  0  0  0  0  0  0  0  0  0
   -7.4380   -2.4290   -0.0250 C   0  0  0  0  0  0  0  0  0  0  0  0
   -2.5690   -0.4560   -0.5070 C   0  0  0  0  0  0  0  0  0  0  0  0
   -3.3300    0.7510   -0.4180 C   0  0  0  0  0  0  0  0  0  0  0  0
   -4.4950    0.9520   -1.2020 C   0  0  0  0  0  0  0  0  0  0  0  0
   -5.1910    2.1040   -1.0490 C   0  0  0  0  0  0  0  0  0  0  0  0
   -4.8510    3.0980   -0.1920 C   0  0  0  0  0  0  0  0  0  0  0  0
   -5.5670    4.2480   -0.0640 F   0  0  0  0  0  0  0  0  0  0  0  0
   -3.6910    2.9360    0.6010 C   0  0  0  0  0  0  0  0  0  0  0  0
   -2.9930    1.7620    0.4440 C   0  0  0  0  0  0  0  0  0  0  0  0
   -1.1940   -0.2970   -0.5370 N   0  0  0  0  0  0  0  0  0  0  0  0
    7.4330    1.1340    0.6330 C   0  0  0  0  0  0  0  0  0  0  0  0
    7.9950    0.7500   -0.6870 C   0  0  0  0  0  0  0  0  0  0  0  0
  2  1  1  6
  2  3  1  0
  2 37  1  0
  3  4  1  0
  4  5  1  0
  4 36  2  0
  5  6  1  0
  6  7  2  0
  7  8  1  0
  7 36  1  0
  8  9  2  0
  8 10  1  0
 10 11  1  0
 11 12  2  0
 11 13  1  0
 13 14  1  0
 14 15  1  0
 15 16  2  0
 15 35  1  0
 16 17  1  0
 17 18  2  0
 18 19  1  0
 18 27  1  0
 19 20  2  0
 19 21  1  0
 22 21  1  6
 22 23  1  0
 22 26  1  0
 23 24  1  0
 24 25  1  0
 25 26  1  0
 27 28  1  0
 27 35  2  0
 28 29  2  0
 28 34  1  0
 29 30  1  0
 30 31  2  0
 31 32  1  0
 31 33  1  0
 33 34  2  0
 36 37  1  0
M  END
