
     RDKit          3D

 37 41  0  0  0  0  0  0  0  0999 V2000
   -5.0510    4.4450   -0.7020 C   0  0  0  0  0  0  0  0  0  0  0  0
   -5.8040    3.2430   -0.4670 C   0  0  0  0  0  0  0  0  0  0  0  0
   -5.4990    1.9940   -0.2660 C   0  0  0  0  0  0  0  0  0  0  0  0
   -6.5550    1.0620   -0.0640 C   0  0  0  0  0  0  0  0  0  0  0  0
   -7.8010    1.4620   -0.0810 C   0  0  0  0  0  0  0  0  0  0  0  0
   -8.7270    0.4320    0.1320 F   0  0  0  0  0  0  0  0  0  0  0  0
   -6.2490   -0.2170    0.1410 N   0  0  0  0  0  0  0  0  0  0  0  0
   -5.0450   -0.7480    0.1820 C   0  0  0  0  0  0  0  0  0  0  0  0
   -4.8110   -2.1260    0.4070 N   0  0  0  0  0  0  0  0  0  0  0  0
   -6.0430   -2.9350    0.5950 C   0  0  0  0  0  0  0  0  0  0  0  0
   -5.7130   -4.3740    0.8270 C   0  0  0  0  0  0  0  0  0  0  0  0
   -3.9930    0.1290   -0.0100 C   0  0  0  0  0  0  0  0  0  0  0  0
   -2.7070   -0.3670    0.0210 C   0  0  0  0  0  0  0  0  0  0  0  0
   -1.6310    0.4660   -0.1660 C   0  0  0  0  0  0  0  0  0  0  0  0
   -0.2720    0.2310   -0.1820 C   0  0  0  0  0  0  0  0  0  0  0  0
    0.3240    1.4560   -0.4160 C   0  0  0  0  0  0  0  0  0  0  0  0
    1.7810    1.7150   -0.5210 C   0  0  0  0  0  0  0  0  0  0  0  0
    2.1140    2.8960   -0.7360 O   0  0  0  0  0  0  0  0  0  0  0  0
    2.6940    0.6580   -0.3790 N   0  0  0  0  0  0  0  0  0  0  0  0
    4.0700    0.7850   -0.4620 C   0  0  0  0  0  0  0  0  0  0  0  0
    4.7290    1.9190   -0.8230 C   0  0  0  0  0  0  0  0  0  0  0  0
    6.0990    1.9580   -0.8690 N   0  0  0  0  0  0  0  0  0  0  0  0
    6.8390    0.8950   -0.5640 C   0  0  0  0  0  0  0  0  0  0  0  0
    6.2180   -0.2630   -0.1970 C   0  0  0  0  0  0  0  0  0  0  0  0
    6.9910   -1.4740    0.1510 C   0  0  2  0  0  0  0  0  0  0  0  0
    7.0490   -1.5880    1.6610 C   0  0  0  0  0  0  0  0  0  0  0  0
    8.3320   -1.3590   -0.3670 N   0  0  0  0  0  0  0  0  0  0  0  0
    8.5420   -2.2870   -1.4090 C   0  0  0  0  0  0  0  0  0  0  0  0
    9.5820   -2.3660   -2.1410 O   0  0  0  0  0  0  0  0  0  0  0  0
    7.3760   -3.1010   -1.4720 N   0  0  0  0  0  0  0  0  0  0  0  0
    6.4400   -2.6860   -0.4750 C   0  0  0  0  0  0  0  0  0  0  0  0
    5.3740   -3.3110   -0.2540 O   0  0  0  0  0  0  0  0  0  0  0  0
    4.8480   -0.3260   -0.1440 C   0  0  0  0  0  0  0  0  0  0  0  0
   -0.6410    2.3660   -0.5310 N   0  0  0  0  0  0  0  0  0  0  0  0
   -1.8550    1.7950   -0.3830 C   0  0  0  0  0  0  0  0  0  0  0  0
   -3.1540    2.3180   -0.4180 C   0  0  0  0  0  0  0  0  0  0  0  0
   -4.2210    1.5010   -0.2350 C   0  0  0  0  0  0  0  0  0  0  0  0
  1  2  1  0
  2  3  2  3
  3  4  1  0
  3 37  1  0
  4  5  2  3
  4  7  1  0
  5  6  1  0
  7  8  2  0
  8  9  1  0
  8 12  1  0
  9 10  1  0
 10 11  1  0
 12 13  2  0
 12 37  1  0
 13 14  1  0
 14 15  1  0
 14 35  2  0
 15 16  2  0
 16 17  1  0
 16 34  1  0
 17 18  2  0
 17 19  1  0
 19 20  1  0
 20 21  2  0
 20 33  1  0
 21 22  1  0
 22 23  2  0
 23 24  1  0
 24 25  1  0
 24 33  2  0
 25 26  1  1
 25 27  1  0
 25 31  1  0
 27 28  1  0
 28 29  2  0
 28 30  1  0
 30 31  1  0
 31 32  2  0
 34 35  1  0
 35 36  1  0
 36 37  2  0
M  END
