
     RDKit          3D

 19 20  0  0  0  0  0  0  0  0999 V2000
   -2.8290    0.8150    1.8770 C   0  0  0  0  0  0  0  0  0  0  0  0
   -3.0550   -0.5170    1.1990 C   0  0  1  0  0  0  0  0  0  0  0  0
   -4.4930   -0.8490    1.4170 N   0  0  0  0  0  0  0  0  0  0  0  0
   -4.7350   -1.9190    0.4790 C   0  0  0  0  0  0  0  0  0  0  0  0
   -3.8380   -1.6820   -0.7000 C   0  0  0  0  0  0  0  0  0  0  0  0
   -3.0390   -0.4570   -0.2870 C   0  0  2  0  0  0  0  0  0  0  0  0
   -1.8210   -0.2350   -0.9890 C   0  0  0  0  0  0  0  0  0  0  0  0
   -1.5940    0.1130   -2.0790 O   0  0  0  0  0  0  0  0  0  0  0  0
   -0.4320   -0.5520   -0.0130 N   0  0  0  0  0  0  0  0  0  0  0  0
    0.5450   -0.2360   -0.9910 C   0  0  0  0  0  0  0  0  0  0  0  0
    0.5000    0.0900   -2.1340 O   0  0  0  0  0  0  0  0  0  0  0  0
    1.8910   -0.3770   -0.3350 N   0  0  0  0  0  0  0  0  0  0  0  0
    2.9920   -0.1210   -1.0960 N   0  0  0  0  0  0  0  0  0  0  0  0
    4.0970    0.6100   -0.6210 C   0  0  0  0  0  0  0  0  0  0  0  0
    4.9950    1.0490   -1.4570 C   0  0  0  0  0  0  0  0  0  0  0  0
    6.1900    1.8260   -1.0180 C   0  0  0  0  0  0  0  0  0  0  0  0
    6.2400    2.1180    0.3350 O   0  0  0  0  0  0  0  0  0  0  0  0
    5.2850    1.6490    1.2080 C   0  0  0  0  0  0  0  0  0  0  0  0
    4.2360    0.9190    0.7940 C   0  0  0  0  0  0  0  0  0  0  0  0
  2  1  1  1
  2  3  1  0
  2  6  1  0
  3  4  1  0
  4  5  1  0
  5  6  1  0
  6  7  1  6
  7  8  2  0
  7  9  1  0
  9 10  1  0
 10 11  2  0
 10 12  1  0
 12 13  1  0
 13 14  1  0
 14 15  2  0
 14 19  1  0
 15 16  1  0
 16 17  1  0
 17 18  1  0
 18 19  2  0
M  CHG  1   3   1
M  END
