
     RDKit          3D

 19 20  0  0  0  0  0  0  0  0999 V2000
   -0.6800   -1.0520    1.7060 C   0  0  0  0  0  0  0  0  0  0  0  0
   -0.2490    0.2860    1.1680 C   0  0  1  0  0  0  0  0  0  0  0  0
    0.4780    0.1110   -0.0430 N   0  0  0  0  0  0  0  0  0  0  0  0
    1.7090   -0.5980    0.0380 C   0  0  2  0  0  0  0  0  0  0  0  0
    2.7400    0.0890    0.9040 C   0  0  0  0  0  0  0  0  0  0  0  0
    4.1020   -0.5010    0.6050 C   0  0  0  0  0  0  0  0  0  0  0  0
    4.4930    0.0510   -0.7690 C   0  0  0  0  0  0  0  0  0  0  0  0
    3.4640   -0.4460   -1.6780 N   0  0  0  0  0  0  0  0  0  0  0  0
    2.2770   -0.7230   -1.3340 C   0  0  0  0  0  0  0  0  0  0  0  0
    1.4150   -1.1920   -2.3360 O   0  0  0  0  0  0  0  0  0  0  0  0
   -1.4100    1.2510    1.0240 C   0  0  1  0  0  0  0  0  0  0  0  0
   -0.9640    2.5130    0.6240 O   0  0  0  0  0  0  0  0  0  0  0  0
   -2.5090    0.7370    0.1890 C   0  0  0  0  0  0  0  0  0  0  0  0
   -2.4360    0.7970   -1.1860 C   0  0  0  0  0  0  0  0  0  0  0  0
   -3.4680    0.3190   -2.0020 C   0  0  0  0  0  0  0  0  0  0  0  0
   -3.3740    0.3870   -3.2500 O   0  0  0  0  0  0  0  0  0  0  0  0
   -4.5700   -0.2170   -1.4500 N   0  0  0  0  0  0  0  0  0  0  0  0
   -4.6240   -0.2670   -0.1100 C   0  0  0  0  0  0  0  0  0  0  0  0
   -3.6380    0.1890    0.6890 N   0  0  0  0  0  0  0  0  0  0  0  0
  2  1  1  6
  2  3  1  0
  2 11  1  0
  4  3  1  6
  4  5  1  0
  4  9  1  0
  5  6  1  0
  6  7  1  0
  7  8  1  0
  8  9  2  0
  9 10  1  0
 11 12  1  6
 11 13  1  0
 13 14  2  0
 13 19  1  0
 14 15  1  0
 15 16  2  0
 15 17  1  0
 17 18  1  0
 18 19  2  0
M  CHG  1  19   1
M  END
