
     RDKit          3D

 19 21  0  0  0  0  0  0  0  0999 V2000
    5.7120    1.6650   -0.3810 O   0  0  0  0  0  0  0  0  0  0  0  0
    4.8960    0.7610   -0.0130 C   0  0  0  0  0  0  0  0  0  0  0  0
    5.3200   -0.2960    0.6900 N   0  0  0  0  0  0  0  0  0  0  0  0
    4.4690   -1.2570    1.0840 C   0  0  0  0  0  0  0  0  0  0  0  0
    3.1560   -1.2130    0.7970 N   0  0  0  0  0  0  0  0  0  0  0  0
    2.7010   -0.1550    0.0860 C   0  0  0  0  0  0  0  0  0  0  0  0
    1.4160    0.1370   -0.3410 C   0  0  0  0  0  0  0  0  0  0  0  0
    0.1870   -0.6740   -0.1110 C   0  0  0  0  0  0  0  0  0  0  0  0
   -0.9380   -0.0240   -0.7160 N   0  0  2  0  0  0  0  0  0  0  0  0
   -1.4690    1.0680    0.0420 C   0  0  0  0  0  0  0  0  0  0  0  0
   -2.5370    0.5070    0.9270 C   0  0  2  0  0  0  0  0  0  0  0  0
   -2.0660    0.1780    2.2010 O   0  0  0  0  0  0  0  0  0  0  0  0
   -3.0350   -0.6810    0.1660 C   0  0  1  0  0  0  0  0  0  0  0  0
   -4.3780   -0.3960   -0.4860 C   0  0  0  0  0  0  0  0  0  0  0  0
   -4.7460   -1.5630   -1.1640 O   0  0  0  0  0  0  0  0  0  0  0  0
   -2.0350   -0.9420   -0.9170 C   0  0  0  0  0  0  0  0  0  0  0  0
    1.5170    1.3330   -1.0220 C   0  0  0  0  0  0  0  0  0  0  0  0
    2.8090    1.7300   -0.9970 N   0  0  0  0  0  0  0  0  0  0  0  0
    3.5520    0.8470   -0.3320 C   0  0  0  0  0  0  0  0  0  0  0  0
  1  2  2  0
  2  3  1  0
  2 19  1  0
  3  4  1  0
  4  5  2  0
  5  6  1  0
  6  7  1  0
  6 19  2  0
  7  8  1  0
  7 17  2  0
  9  8  1  1
  9 10  1  0
  9 16  1  0
 10 11  1  0
 11 12  1  1
 11 13  1  0
 13 14  1  6
 13 16  1  0
 14 15  1  0
 17 18  1  0
 18 19  1  0
M  CHG  1   9   1
M  END
