
     RDKit          3D

 19 20  0  0  0  0  0  0  0  0999 V2000
    4.0600    1.7810   -0.8460 N   0  0  0  0  0  0  0  0  0  0  0  0
    3.6880    0.7360    0.0940 C   0  0  0  0  0  0  0  0  0  0  0  0
    2.3410    0.3050    0.1270 C   0  0  0  0  0  0  0  0  0  0  0  0
    1.8160   -0.5930    0.8720 C   0  0  0  0  0  0  0  0  0  0  0  0
    2.5660   -1.3710    1.8700 C   0  0  0  0  0  0  0  0  0  0  0  0
    2.0640   -1.1870    3.1640 O   0  0  0  0  0  0  0  0  0  0  0  0
    0.3530   -0.9760    0.8240 C   0  0  0  0  0  0  0  0  0  0  0  0
   -0.4180   -0.2550   -0.1240 N   0  0  1  0  0  0  0  0  0  0  0  0
   -0.0850   -0.6960   -1.4440 C   0  0  0  0  0  0  0  0  0  0  0  0
   -1.1580   -1.6790   -1.8730 C   0  0  0  0  0  0  0  0  0  0  0  0
   -2.2900   -0.9070   -2.1320 O   0  0  0  0  0  0  0  0  0  0  0  0
   -2.7450   -0.3620   -0.9470 C   0  0  2  0  0  0  0  0  0  0  0  0
   -3.1060    1.0710   -1.1460 C   0  0  1  0  0  0  0  0  0  0  0  0
   -4.5200    1.1760   -1.4820 N   0  0  0  0  0  0  0  0  0  0  0  0
   -2.7990    1.7420    0.1720 C   0  0  0  0  0  0  0  0  0  0  0  0
   -2.3340    0.6320    1.1230 C   0  0  0  0  0  0  0  0  0  0  0  0
   -1.8170   -0.4680    0.1990 C   0  0  2  0  0  0  0  0  0  0  0  0
    4.6610    0.3190    0.8040 N   0  0  0  0  0  0  0  0  0  0  0  0
    5.9490    0.7770    0.7290 O   0  0  0  0  0  0  0  0  0  0  0  0
  1  2  1  0
  2  3  1  0
  2 18  2  3
  3  4  2  3
  4  5  1  0
  4  7  1  0
  5  6  1  0
  8  7  1  1
  8  9  1  0
  8 17  1  0
  9 10  1  0
 10 11  1  0
 12 11  1  6
 12 13  1  0
 12 17  1  0
 13 14  1  1
 13 15  1  0
 15 16  1  0
 17 16  1  1
 18 19  1  0
M  CHG  1   8   1
M  END
