
     RDKit          3D

 19 20  0  0  0  0  0  0  0  0999 V2000
    5.4260    0.4590   -0.4190 C   0  0  0  0  0  0  0  0  0  0  0  0
    4.0210    0.1250   -0.7710 C   0  0  0  0  0  0  0  0  0  0  0  0
    3.6650   -0.9380   -1.5740 C   0  0  0  0  0  0  0  0  0  0  0  0
    2.3040   -0.9010   -1.6530 C   0  0  0  0  0  0  0  0  0  0  0  0
    1.8830    0.1780   -0.9000 C   0  0  0  0  0  0  0  0  0  0  0  0
    0.4900    0.6410   -0.6720 C   0  0  0  0  0  0  0  0  0  0  0  0
   -0.0870    0.0840    0.5200 N   0  0  0  0  0  0  0  0  0  0  0  0
   -0.1240   -1.3290    0.4410 C   0  0  0  0  0  0  0  0  0  0  0  0
   -0.9930   -1.8180   -0.6720 C   0  0  0  0  0  0  0  0  0  0  0  0
   -0.5840   -2.8510   -1.2580 O   0  0  0  0  0  0  0  0  0  0  0  0
   -2.2180   -1.3770   -1.2480 N   0  0  0  0  0  0  0  0  0  0  0  0
   -2.9970   -0.1610   -1.2000 C   0  0  0  0  0  0  0  0  0  0  0  0
   -3.4560    0.0930    0.1230 N   0  0  0  0  0  0  0  0  0  0  0  0
   -2.4660   -0.0790    1.1560 C   0  0  0  0  0  0  0  0  0  0  0  0
   -1.2420    0.7450    0.9850 C   0  0  1  0  0  0  0  0  0  0  0  0
   -0.8710    1.4340    2.2760 C   0  0  0  0  0  0  0  0  0  0  0  0
   -1.8530    2.1830    2.9700 N   0  0  0  0  0  0  0  0  0  0  0  0
    0.2730    1.3740    2.7640 O   0  0  0  0  0  0  0  0  0  0  0  0
    2.9520    0.7560   -0.3960 O   0  0  0  0  0  0  0  0  0  0  0  0
  1  2  1  0
  2  3  2  0
  2 19  1  0
  3  4  1  0
  4  5  2  0
  5  6  1  0
  5 19  1  0
  6  7  1  0
  7  8  1  0
  7 15  1  0
  8  9  1  0
  9 10  2  0
  9 11  1  0
 11 12  1  0
 12 13  1  0
 13 14  1  0
 14 15  1  0
 15 16  1  1
 16 17  1  0
 16 18  2  0
M  CHG  1  13   1
M  END
