
     RDKit          3D

 19 20  0  0  0  0  0  0  0  0999 V2000
   -4.9060    1.5610   -0.3010 C   0  0  0  0  0  0  0  0  0  0  0  0
   -4.2490    0.2480   -0.7270 C   0  0  0  0  0  0  0  0  0  0  0  0
   -3.3760   -0.2310    0.3530 N   0  0  0  0  0  0  0  0  0  0  0  0
   -2.1020    0.4060    0.3140 C   0  0  0  0  0  0  0  0  0  0  0  0
   -0.9420   -0.5270    0.1290 C   0  0  1  0  0  0  0  0  0  0  0  0
   -0.9830   -1.3220   -1.1240 C   0  0  0  0  0  0  0  0  0  0  0  0
    0.3400   -1.6760   -1.7020 C   0  0  0  0  0  0  0  0  0  0  0  0
    1.4630   -1.7400   -0.7250 C   0  0  0  0  0  0  0  0  0  0  0  0
    1.4830   -0.6460    0.2860 C   0  0  1  0  0  0  0  0  0  0  0  0
    2.7460    0.0300    0.4070 N   0  0  0  0  0  0  0  0  0  0  0  0
    3.4640    0.0830    1.5430 C   0  0  0  0  0  0  0  0  0  0  0  0
    3.0320   -0.4790    2.5640 O   0  0  0  0  0  0  0  0  0  0  0  0
    4.6550    0.7390    1.5940 N   0  0  0  0  0  0  0  0  0  0  0  0
    5.1360    1.3520    0.4950 C   0  0  0  0  0  0  0  0  0  0  0  0
    6.2400    1.9740    0.5010 O   0  0  0  0  0  0  0  0  0  0  0  0
    4.4260    1.3090   -0.6550 N   0  0  0  0  0  0  0  0  0  0  0  0
    3.2550    0.6500   -0.6650 C   0  0  0  0  0  0  0  0  0  0  0  0
    2.6080    0.6150   -1.7300 O   0  0  0  0  0  0  0  0  0  0  0  0
    0.3240    0.3290    0.1050 C   0  0  0  0  0  0  0  0  0  0  0  0
  1  2  1  0
  2  3  1  0
  3  4  1  0
  5  4  1  6
  5  6  1  0
  5 19  1  0
  6  7  1  0
  7  8  1  0
  8  9  1  0
  9 10  1  6
  9 19  1  0
 10 11  1  0
 10 17  1  0
 11 12  2  0
 11 13  1  0
 13 14  1  0
 14 15  2  0
 14 16  1  0
 16 17  1  0
 17 18  2  0
M  CHG  1   3   1
M  END
