
     RDKit          3D

 26 27  0  0  0  0  0  0  0  0999 V2000
    5.1450   -1.3010    0.7210 C   0  0  0  0  0  0  0  0  0  0  0  0
    3.9520   -0.8000   -0.1060 C   0  0  1  0  0  0  0  0  0  0  0  0
    4.5400   -0.5360   -1.4690 C   0  0  0  0  0  0  0  0  0  0  0  0
    4.5570    0.7730   -2.0300 N   0  0  0  0  0  0  0  0  0  0  0  0
    5.0330   -1.4960   -2.1400 O   0  0  0  0  0  0  0  0  0  0  0  0
    3.0000   -1.9220   -0.2460 C   0  0  0  0  0  0  0  0  0  0  0  0
    1.8090   -1.8670    0.6790 C   0  0  0  0  0  0  0  0  0  0  0  0
    1.2850   -0.4500    0.6130 C   0  0  1  0  0  0  0  0  0  0  0  0
   -0.0090   -0.2840    1.1740 N   0  0  0  0  0  0  0  0  0  0  0  0
   -1.1270    0.1820    0.4180 C   0  0  0  0  0  0  0  0  0  0  0  0
   -0.8900    0.4440   -0.8080 O   0  0  0  0  0  0  0  0  0  0  0  0
   -2.3800    0.3280    1.0190 N   0  0  0  0  0  0  0  0  0  0  0  0
   -3.5290    0.8040    0.1910 C   0  0  0  0  0  0  0  0  0  0  0  0
   -3.9440    1.9360    0.5870 C   0  0  0  0  0  0  0  0  0  0  0  0
   -4.9550    2.8670    0.2320 C   0  0  0  0  0  0  0  0  0  0  0  0
   -5.0370    4.1080    1.0330 N   0  0  0  0  0  0  0  0  0  0  0  0
   -5.8020    2.8350   -0.6420 O   0  0  0  0  0  0  0  0  0  0  0  0
   -3.9100   -0.1090   -0.9060 C   0  0  0  0  0  0  0  0  0  0  0  0
   -3.2540   -1.2780   -1.0220 C   0  0  0  0  0  0  0  0  0  0  0  0
   -3.9420   -2.1210   -2.4170 S   0  0  0  0  0  0  0  0  0  0  0  0
   -4.5820   -3.4310   -2.0230 O   0  0  0  0  0  0  0  0  0  0  0  0
   -5.0940   -0.8760   -2.8440 C   0  0  0  0  0  0  0  0  0  0  0  0
   -5.8930   -0.9050   -3.8020 O   0  0  0  0  0  0  0  0  0  0  0  0
   -4.8820    0.1230   -1.8550 N   0  0  0  0  0  0  0  0  0  0  0  0
    2.3570    0.3870    1.2690 C   0  0  0  0  0  0  0  0  0  0  0  0
    3.4850    0.4190    0.4060 N   0  0  0  0  0  0  0  0  0  0  0  0
  2  1  1  1
  2  3  1  0
  2  6  1  0
  2 26  1  0
  3  4  1  0
  3  5  2  0
  6  7  1  0
  7  8  1  0
  8  9  1  1
  8 25  1  0
  9 10  1  0
 10 11  2  0
 10 12  1  0
 12 13  1  0
 13 14  2  3
 13 18  1  0
 14 15  1  0
 15 16  1  0
 15 17  2  0
 18 19  2  0
 18 24  1  0
 20 19  1  1
 20 21  2  0
 20 22  1  0
 22 23  2  0
 22 24  1  0
 25 26  1  0
M  CHG  1  26   1
M  END
