
     RDKit          3D

 26 27  0  0  0  0  0  0  0  0999 V2000
   -4.4910    0.0590   -1.7190 C   0  0  0  0  0  0  0  0  0  0  0  0
   -3.1040    0.4490   -1.2680 C   0  0  2  0  0  0  0  0  0  0  0  0
   -3.1380    1.5540   -0.2620 C   0  0  0  0  0  0  0  0  0  0  0  0
   -2.4580    0.9710   -2.4120 O   0  0  0  0  0  0  0  0  0  0  0  0
   -1.8830   -0.0970   -3.0460 C   0  0  0  0  0  0  0  0  0  0  0  0
   -1.8360   -1.1650   -2.1940 O   0  0  0  0  0  0  0  0  0  0  0  0
   -2.2690   -0.7230   -0.9330 C   0  0  2  0  0  0  0  0  0  0  0  0
   -3.0400   -1.8830   -0.3460 C   0  0  0  0  0  0  0  0  0  0  0  0
   -3.5740   -1.6360    0.9530 N   0  0  0  0  0  0  0  0  0  0  0  0
   -1.0680   -0.4140   -0.1550 C   0  0  0  0  0  0  0  0  0  0  0  0
    0.2070   -0.1680   -0.5270 N   0  0  0  0  0  0  0  0  0  0  0  0
    0.9880    0.0670    0.5380 C   0  0  0  0  0  0  0  0  0  0  0  0
    2.4080    0.3620    0.6650 C   0  0  2  0  0  0  0  0  0  0  0  0
    2.5850    1.4310    1.5350 O   0  0  0  0  0  0  0  0  0  0  0  0
    3.0990    0.6530   -0.6340 C   0  0  0  0  0  0  0  0  0  0  0  0
    4.8430    0.9970   -0.2710 S   0  0  0  0  0  0  0  0  0  0  0  0
    5.6940   -0.4430    0.3770 C   0  0  0  0  0  0  0  0  0  0  0  0
    5.8280   -1.5580   -0.5750 C   0  0  0  0  0  0  0  0  0  0  0  0
    5.2990   -1.4500   -1.8810 N   0  0  0  0  0  0  0  0  0  0  0  0
    6.4120   -2.6070   -0.2240 O   0  0  0  0  0  0  0  0  0  0  0  0
    0.1610   -0.0360    1.6170 N   0  0  0  0  0  0  0  0  0  0  0  0
    0.4880    0.1330    3.0100 C   0  0  0  0  0  0  0  0  0  0  0  0
    0.2720    1.5470    3.3810 C   0  0  0  0  0  0  0  0  0  0  0  0
   -0.2000    2.5180    2.4730 N   0  0  0  0  0  0  0  0  0  0  0  0
    0.5270    1.8940    4.5800 O   0  0  0  0  0  0  0  0  0  0  0  0
   -1.0490   -0.3210    1.1860 N   0  0  0  0  0  0  0  0  0  0  0  0
  2  1  1  6
  2  3  1  0
  2  4  1  0
  2  7  1  0
  4  5  1  0
  5  6  1  0
  6  7  1  0
  7  8  1  1
  7 10  1  0
  8  9  1  0
 10 11  1  0
 10 26  2  0
 11 12  2  0
 12 13  1  0
 12 21  1  0
 13 14  1  1
 13 15  1  0
 15 16  1  0
 16 17  1  0
 17 18  1  0
 18 19  1  0
 18 20  2  0
 21 22  1  0
 21 26  1  0
 22 23  1  0
 23 24  1  0
 23 25  2  0
M  CHG  1   9   1
M  END
