
     RDKit          3D

 26 27  0  0  0  0  0  0  0  0999 V2000
    5.4330   -2.3490    1.8930 N   0  0  0  0  0  0  0  0  0  0  0  0
    4.4700   -1.9580    0.9540 C   0  0  0  0  0  0  0  0  0  0  0  0
    3.9760   -2.8900    0.2250 O   0  0  0  0  0  0  0  0  0  0  0  0
    3.9810   -0.5690    0.7440 C   0  0  2  0  0  0  0  0  0  0  0  0
    2.7820   -0.6390    0.0160 N   0  0  0  0  0  0  0  0  0  0  0  0
    1.4550   -0.3690    0.6670 C   0  0  0  0  0  0  0  0  0  0  0  0
    1.4970   -0.1420    1.8310 O   0  0  0  0  0  0  0  0  0  0  0  0
    0.4600   -0.4540   -0.3180 N   0  0  0  0  0  0  0  0  0  0  0  0
   -0.8880   -0.1330    0.7280 C   0  0  0  0  0  0  0  0  0  0  0  0
   -0.5760    0.0800    1.8290 O   0  0  0  0  0  0  0  0  0  0  0  0
   -2.1040   -0.1810    0.0880 N   0  0  0  0  0  0  0  0  0  0  0  0
   -2.3390   -0.5390   -1.2850 C   0  0  0  0  0  0  0  0  0  0  0  0
   -3.4000   -1.6680   -1.2190 C   0  0  0  0  0  0  0  0  0  0  0  0
   -4.6600   -1.1650   -1.2570 O   0  0  0  0  0  0  0  0  0  0  0  0
   -5.2500   -0.9440   -0.0350 C   0  0  2  0  0  0  0  0  0  0  0  0
   -6.1060    0.3080   -0.1050 C   0  0  0  0  0  0  0  0  0  0  0  0
   -7.1000    0.0690   -1.1350 N   0  0  0  0  0  0  0  0  0  0  0  0
   -4.2680   -0.8530    1.1050 C   0  0  0  0  0  0  0  0  0  0  0  0
   -3.2600    0.2220    0.9360 C   0  0  0  0  0  0  0  0  0  0  0  0
    5.0020    0.2050   -0.1250 C   0  0  2  0  0  0  0  0  0  0  0  0
    6.2340    0.2120    0.6290 N   0  0  0  0  0  0  0  0  0  0  0  0
    4.5350    1.5390   -0.4900 C   0  0  0  0  0  0  0  0  0  0  0  0
    3.6030    2.3420   -0.0270 C   0  0  0  0  0  0  0  0  0  0  0  0
    3.4320    3.5390   -0.6210 O   0  0  0  0  0  0  0  0  0  0  0  0
    4.6600    4.1180   -1.1070 C   0  0  0  0  0  0  0  0  0  0  0  0
    5.2990    2.5210   -1.8210 S   0  0  0  0  0  0  0  0  0  0  0  0
  1  2  1  0
  2  3  2  0
  2  4  1  0
  4  5  1  6
  4 20  1  0
  5  6  1  0
  6  7  2  0
  6  8  1  0
  8  9  1  0
  9 10  2  0
  9 11  1  0
 11 12  1  0
 11 19  1  0
 12 13  1  0
 13 14  1  0
 14 15  1  0
 15 16  1  6
 15 18  1  0
 16 17  1  0
 18 19  1  0
 20 21  1  1
 20 22  1  0
 22 23  2  0
 22 26  1  0
 23 24  1  0
 24 25  1  0
 25 26  1  0
M  CHG  1  17   1
M  END
