
     RDKit          3D

 26 27  0  0  0  0  0  0  0  0999 V2000
   -7.5690    1.5010    0.1220 C   0  0  0  0  0  0  0  0  0  0  0  0
   -7.3000    1.3270   -1.2020 O   0  0  0  0  0  0  0  0  0  0  0  0
   -5.9870    1.3520   -1.5690 C   0  0  0  0  0  0  0  0  0  0  0  0
   -5.1500    0.2660   -1.0130 C   0  0  0  0  0  0  0  0  0  0  0  0
   -5.6840   -0.6000   -0.3380 O   0  0  0  0  0  0  0  0  0  0  0  0
   -3.7750    0.2470   -1.2650 N   0  0  0  0  0  0  0  0  0  0  0  0
   -2.7520   -0.6290   -0.8820 C   0  0  0  0  0  0  0  0  0  0  0  0
   -2.5950   -1.7050   -0.2000 C   0  0  0  0  0  0  0  0  0  0  0  0
   -3.6920   -2.3780    0.4550 N   0  0  0  0  0  0  0  0  0  0  0  0
   -1.2550   -2.2850   -0.0660 C   0  0  0  0  0  0  0  0  0  0  0  0
   -0.2300   -1.2310   -0.2450 C   0  0  2  0  0  0  0  0  0  0  0  0
    1.0530   -1.7070   -0.6620 N   0  0  0  0  0  0  0  0  0  0  0  0
    2.2730   -1.1670   -0.1550 C   0  0  0  0  0  0  0  0  0  0  0  0
    3.3120   -1.9020   -0.0370 O   0  0  0  0  0  0  0  0  0  0  0  0
    2.2630    0.2750    0.2220 C   0  0  2  0  0  0  0  0  0  0  0  0
    2.1510    1.0570   -1.0750 C   0  0  0  0  0  0  0  0  0  0  0  0
    3.4490    0.6950    1.0200 C   0  0  0  0  0  0  0  0  0  0  0  0
    4.7430    0.5000    0.3200 C   0  0  0  0  0  0  0  0  0  0  0  0
    4.8630    0.0450   -0.8450 O   0  0  0  0  0  0  0  0  0  0  0  0
    5.9350    0.8560    1.0250 N   0  0  0  0  0  0  0  0  0  0  0  0
    7.2080    0.6790    0.3760 C   0  0  0  0  0  0  0  0  0  0  0  0
    8.2630    1.0980    1.2660 N   0  0  0  0  0  0  0  0  0  0  0  0
    1.0700    0.4630    1.0420 N   0  0  0  0  0  0  0  0  0  0  0  0
   -0.0450   -0.3970    0.9560 C   0  0  0  0  0  0  0  0  0  0  0  0
   -0.8630   -0.4470    1.8900 O   0  0  0  0  0  0  0  0  0  0  0  0
   -1.0510   -0.2240   -1.5040 S   0  0  0  0  0  0  0  0  0  0  0  0
  1  2  1  0
  2  3  1  0
  3  4  1  0
  4  5  2  0
  4  6  1  0
  6  7  1  0
  7  8  2  0
  7 26  1  0
  8  9  1  0
  8 10  1  0
 11 10  1  1
 11 12  1  0
 11 24  1  0
 11 26  1  0
 12 13  1  0
 13 14  2  0
 13 15  1  0
 15 16  1  6
 15 17  1  0
 15 23  1  0
 17 18  1  0
 18 19  2  0
 18 20  1  0
 20 21  1  0
 21 22  1  0
 23 24  1  0
 24 25  2  0
M  CHG  1   9   1
M  END
