
     RDKit          3D

 26 28  0  0  0  0  0  0  0  0999 V2000
   -0.3640   -0.8190   -1.4290 C   0  0  0  0  0  0  0  0  0  0  0  0
    0.1500   -0.5980    0.0260 C   0  0  2  0  0  0  0  0  0  0  0  0
    1.5110   -1.0840    0.0440 C   0  0  0  0  0  0  0  0  0  0  0  0
    2.3840   -1.0310    1.2310 C   0  0  1  0  0  0  0  0  0  0  0  0
    3.7150   -1.7620    0.7870 C   0  0  0  0  0  0  0  0  0  0  0  0
    3.4070   -3.0680    0.4220 O   0  0  0  0  0  0  0  0  0  0  0  0
    2.9350    0.3710    1.5060 C   0  0  0  0  0  0  0  0  0  0  0  0
    3.7080    0.8090    0.3750 O   0  0  0  0  0  0  0  0  0  0  0  0
    4.2790    2.0600    0.4600 C   0  0  0  0  0  0  0  0  0  0  0  0
    4.1140    2.8440    1.4760 N   0  0  0  0  0  0  0  0  0  0  0  0
    5.0930    2.5390   -0.6030 N   0  0  0  0  0  0  0  0  0  0  0  0
   -0.7200   -1.5570    0.7940 N   0  0  0  0  0  0  0  0  0  0  0  0
   -1.9720   -1.4980    0.2280 N   0  0  0  0  0  0  0  0  0  0  0  0
   -2.5440   -0.2030   -0.1500 C   0  0  0  0  0  0  0  0  0  0  0  0
   -1.6950    0.8500   -0.0670 C   0  0  0  0  0  0  0  0  0  0  0  0
   -2.6320    2.2320   -0.5820 S   0  0  0  0  0  0  0  0  0  0  0  0
   -4.1600    1.3320   -0.8960 C   0  0  0  0  0  0  0  0  0  0  0  0
   -5.4020    1.7380   -1.3400 C   0  0  0  0  0  0  0  0  0  0  0  0
   -5.5580    2.9460   -1.5880 O   0  0  0  0  0  0  0  0  0  0  0  0
   -6.3970    0.8110   -1.4860 N   0  0  0  0  0  0  0  0  0  0  0  0
   -6.0700   -0.4520   -1.1760 C   0  0  0  0  0  0  0  0  0  0  0  0
   -7.0040   -1.3300   -1.3120 O   0  0  0  0  0  0  0  0  0  0  0  0
   -4.8670   -0.8280   -0.7490 N   0  0  0  0  0  0  0  0  0  0  0  0
   -3.8160    0.0490   -0.5780 C   0  0  0  0  0  0  0  0  0  0  0  0
   -0.2600    0.7590    0.3970 C   0  0  1  0  0  0  0  0  0  0  0  0
   -0.3130    1.0390    1.7660 O   0  0  0  0  0  0  0  0  0  0  0  0
  2  1  1  6
  2  3  1  0
  2 12  1  0
  2 25  1  0
  4  3  1  6
  4  5  1  0
  4  7  1  0
  5  6  1  0
  7  8  1  0
  8  9  1  0
  9 10  2  0
  9 11  1  0
 12 13  1  0
 13 14  1  0
 14 15  2  0
 14 24  1  0
 15 16  1  0
 15 25  1  0
 16 17  1  0
 17 18  1  0
 17 24  2  0
 18 19  2  0
 18 20  1  0
 20 21  1  0
 21 22  2  0
 21 23  1  0
 23 24  1  0
 25 26  1  1
M  CHG  1  12   1
M  END
