
     RDKit          3D

 26 28  0  0  0  0  0  0  0  0999 V2000
   -7.2470    1.1050   -1.3050 N   0  0  0  0  0  0  0  0  0  0  0  0
   -6.2910    0.2170   -0.7620 C   0  0  0  0  0  0  0  0  0  0  0  0
   -6.6000   -1.0520   -0.4420 N   0  0  0  0  0  0  0  0  0  0  0  0
   -5.7140   -1.9220    0.0760 C   0  0  0  0  0  0  0  0  0  0  0  0
   -4.4490   -1.5220    0.2940 N   0  0  0  0  0  0  0  0  0  0  0  0
   -4.0530   -0.2810    0.0060 C   0  0  0  0  0  0  0  0  0  0  0  0
   -4.9750    0.5960   -0.5250 C   0  0  0  0  0  0  0  0  0  0  0  0
   -4.3180    1.7440   -0.7120 N   0  0  0  0  0  0  0  0  0  0  0  0
   -3.0260    1.5760   -0.3070 C   0  0  0  0  0  0  0  0  0  0  0  0
   -2.8440    0.3220    0.1420 N   0  0  0  0  0  0  0  0  0  0  0  0
   -1.6360   -0.2680    0.6590 C   0  0  2  0  0  0  0  0  0  0  0  0
   -0.7710    0.6640    1.1350 O   0  0  0  0  0  0  0  0  0  0  0  0
    0.4950    0.4810    0.5740 C   0  0  2  0  0  0  0  0  0  0  0  0
    0.7410    1.5370   -0.4510 C   0  0  0  0  0  0  0  0  0  0  0  0
    2.3000    1.4870   -1.2790 S   0  0  0  0  0  0  0  0  0  0  0  0
    3.7250    1.9460   -0.3160 C   0  0  0  0  0  0  0  0  0  0  0  0
    4.0770    0.9630    0.7600 C   0  0  0  0  0  0  0  0  0  0  0  0
    4.3300   -0.4040    0.1940 C   0  0  2  0  0  0  0  0  0  0  0  0
    4.6640   -1.3400    1.2810 N   0  0  0  0  0  0  0  0  0  0  0  0
    5.4390   -0.3620   -0.7830 C   0  0  0  0  0  0  0  0  0  0  0  0
    6.5710   -0.8930   -0.5290 O   0  0  0  0  0  0  0  0  0  0  0  0
    5.2880    0.2490   -2.0020 O   0  0  0  0  0  0  0  0  0  0  0  0
    0.4940   -0.9090   -0.0080 C   0  0  1  0  0  0  0  0  0  0  0  0
    0.7920   -1.8050    1.0030 O   0  0  0  0  0  0  0  0  0  0  0  0
   -0.9600   -1.0820   -0.3870 C   0  0  1  0  0  0  0  0  0  0  0  0
   -1.2890   -2.4260   -0.2530 O   0  0  0  0  0  0  0  0  0  0  0  0
  1  2  1  0
  2  3  2  0
  2  7  1  0
  3  4  1  0
  4  5  2  0
  5  6  1  0
  6  7  2  0
  6 10  1  0
  7  8  1  0
  8  9  2  0
  9 10  1  0
 11 10  1  6
 11 12  1  0
 11 25  1  0
 12 13  1  0
 13 14  1  6
 13 23  1  0
 14 15  1  0
 15 16  1  0
 16 17  1  0
 17 18  1  0
 18 19  1  1
 18 20  1  0
 20 21  2  0
 20 22  1  0
 23 24  1  1
 23 25  1  0
 25 26  1  1
M  CHG  1  19   1
M  END
