
     RDKit          3D

 26 27  0  0  0  0  0  0  0  0999 V2000
   -7.9520   -2.1480    0.9670 C   0  0  0  0  0  0  0  0  0  0  0  0
   -8.0940   -0.8690    0.1700 C   0  0  1  0  0  0  0  0  0  0  0  0
   -9.1250   -0.0640    0.6400 O   0  0  0  0  0  0  0  0  0  0  0  0
   -6.7920   -0.1350    0.1660 C   0  0  0  0  0  0  0  0  0  0  0  0
   -5.6150   -0.6860    0.6290 C   0  0  0  0  0  0  0  0  0  0  0  0
   -4.4210    0.0020    0.6200 C   0  0  0  0  0  0  0  0  0  0  0  0
   -4.4020    1.3030    0.1240 C   0  0  0  0  0  0  0  0  0  0  0  0
   -3.2050    2.0630    0.0830 N   0  0  0  0  0  0  0  0  0  0  0  0
   -1.9740    1.5540    0.5080 N   0  0  0  0  0  0  0  0  0  0  0  0
   -0.8320    1.5050   -0.3230 C   0  0  0  0  0  0  0  0  0  0  0  0
   -0.9380    1.9440   -1.5040 O   0  0  0  0  0  0  0  0  0  0  0  0
    0.4600    0.9800    0.0990 C   0  0  0  0  0  0  0  0  0  0  0  0
    0.5890    0.5250    1.2810 O   0  0  0  0  0  0  0  0  0  0  0  0
    1.5770    0.9540   -0.7440 N   0  0  0  0  0  0  0  0  0  0  0  0
    2.8690    0.4360   -0.3260 C   0  0  1  0  0  0  0  0  0  0  0  0
    3.7740    0.0250   -1.4670 C   0  0  0  0  0  0  0  0  0  0  0  0
    4.0830    1.2220   -0.6960 C   0  0  2  0  0  0  0  0  0  0  0  0
    5.4890    1.4090    0.3150 S   0  0  0  0  0  0  0  0  0  0  0  0
    5.3180    2.4370    1.4340 O   0  0  0  0  0  0  0  0  0  0  0  0
    6.3990    0.0050    0.7500 C   0  0  2  0  0  0  0  0  0  0  0  0
    6.9980   -0.6950   -0.4470 C   0  0  0  0  0  0  0  0  0  0  0  0
    7.7610   -1.8790   -0.0410 N   0  0  0  0  0  0  0  0  0  0  0  0
    5.6110   -1.0360    1.5260 C   0  0  0  0  0  0  0  0  0  0  0  0
    6.4230   -2.1270    1.8510 O   0  0  0  0  0  0  0  0  0  0  0  0
   -5.5680    1.7950   -0.3140 N   0  0  0  0  0  0  0  0  0  0  0  0
   -6.7110    1.1300   -0.3030 N   0  0  0  0  0  0  0  0  0  0  0  0
  2  1  1  1
  2  3  1  0
  2  4  1  0
  4  5  2  0
  4 26  1  0
  5  6  1  0
  6  7  2  0
  7  8  1  0
  7 25  1  0
  8  9  1  0
  9 10  1  0
 10 11  2  0
 10 12  1  0
 12 13  2  0
 12 14  1  0
 15 14  1  6
 15 16  1  0
 15 17  1  0
 17 16  1  6
 17 18  1  0
 18 19  2  0
 18 20  1  1
 20 21  1  6
 20 23  1  0
 21 22  1  0
 23 24  1  0
 25 26  2  0
M  CHG  1  25   1
M  END
