
     RDKit          3D

 25 28  0  0  0  0  0  0  0  0999 V2000
    6.9980   -2.7940   -1.3120 C   0  0  0  0  0  0  0  0  0  0  0  0
    5.8040   -2.8990    0.0450 S   0  0  0  0  0  0  0  0  0  0  0  0
    4.4330   -1.7870   -0.3070 C   0  0  0  0  0  0  0  0  0  0  0  0
    4.4030   -1.0470   -1.4230 N   0  0  0  0  0  0  0  0  0  0  0  0
    3.3990   -0.2050   -1.7230 C   0  0  0  0  0  0  0  0  0  0  0  0
    3.3930    0.5680   -2.9130 N   0  0  0  0  0  0  0  0  0  0  0  0
    2.3650   -0.1210   -0.8160 C   0  0  0  0  0  0  0  0  0  0  0  0
    1.2060    0.6130   -0.7930 N   0  0  0  0  0  0  0  0  0  0  0  0
    0.5430    0.3180    0.3280 C   0  0  0  0  0  0  0  0  0  0  0  0
   -0.6780    0.8020    0.8020 C   0  0  0  0  0  0  0  0  0  0  0  0
   -1.4200    1.8230    0.0250 C   0  0  0  0  0  0  0  0  0  0  0  0
   -2.6650    2.1310    0.6750 N   0  0  0  0  0  0  0  0  0  0  0  0
   -3.7690    1.2320    0.7510 C   0  0  0  0  0  0  0  0  0  0  0  0
   -3.6160    0.0060    0.0980 C   0  0  0  0  0  0  0  0  0  0  0  0
   -4.5240   -0.9920    0.0230 C   0  0  0  0  0  0  0  0  0  0  0  0
   -5.7860   -1.0080    0.5740 C   0  0  0  0  0  0  0  0  0  0  0  0
   -6.1950    0.3980    1.4260 S   0  0  0  0  0  0  0  0  0  0  0  0
   -4.9110    1.5760    1.4210 C   0  0  0  0  0  0  0  0  0  0  0  0
   -5.0340    2.6950    2.0140 N   0  0  0  0  0  0  0  0  0  0  0  0
   -1.1760    0.3480    2.0050 C   0  0  0  0  0  0  0  0  0  0  0  0
   -0.4700   -0.5720    2.7230 N   0  0  0  0  0  0  0  0  0  0  0  0
    0.7180   -1.0400    2.2560 C   0  0  0  0  0  0  0  0  0  0  0  0
    1.2320   -0.6050    1.0680 C   0  0  0  0  0  0  0  0  0  0  0  0
    2.3700   -0.8840    0.3600 C   0  0  0  0  0  0  0  0  0  0  0  0
    3.4220   -1.7000    0.5700 N   0  0  0  0  0  0  0  0  0  0  0  0
  1  2  1  0
  2  3  1  0
  3  4  2  0
  3 25  1  0
  4  5  1  0
  5  6  1  0
  5  7  2  0
  7  8  1  0
  7 24  1  0
  8  9  1  0
  9 10  2  0
  9 23  1  0
 10 11  1  0
 10 20  1  0
 11 12  1  0
 12 13  1  0
 13 14  2  0
 13 18  1  0
 14 15  1  0
 15 16  2  0
 16 17  1  0
 17 18  1  0
 18 19  2  0
 20 21  2  0
 21 22  1  0
 22 23  2  0
 23 24  1  0
 24 25  2  0
M  CHG  1  19   1
M  END
