
     RDKit          3D

 25 27  0  0  0  0  0  0  0  0999 V2000
   -3.9070    0.2580    0.9400 N   0  0  0  0  0  0  0  0  0  0  0  0
   -2.8790    0.6900    0.4790 C   0  0  0  0  0  0  0  0  0  0  0  0
   -2.5440    0.7070   -0.9830 N   0  0  0  0  0  0  0  0  0  0  0  0
   -1.3020    1.2660   -1.1270 C   0  0  0  0  0  0  0  0  0  0  0  0
   -0.4690    1.4730   -2.3530 C   0  0  0  0  0  0  0  0  0  0  0  0
    0.1360    2.6210   -2.6760 N   0  0  0  0  0  0  0  0  0  0  0  0
    0.9450    2.4280   -3.7480 C   0  0  0  0  0  0  0  0  0  0  0  0
    0.8120    1.1080   -4.0790 N   0  0  0  0  0  0  0  0  0  0  0  0
   -0.0710    0.5060   -3.2150 C   0  0  0  0  0  0  0  0  0  0  0  0
   -0.7220   -1.1530   -3.2240 S   0  0  0  0  0  0  0  0  0  0  0  0
   -0.2320   -1.9690   -1.7140 C   0  0  0  0  0  0  0  0  0  0  0  0
    1.1620   -2.2230   -1.4340 C   0  0  0  0  0  0  0  0  0  0  0  0
    1.7690   -1.5870   -0.3640 C   0  0  0  0  0  0  0  0  0  0  0  0
    3.1470   -1.7720   -0.0060 C   0  0  0  0  0  0  0  0  0  0  0  0
    3.9000   -0.7690    1.0830 S   0  0  0  0  0  0  0  0  0  0  0  0
    3.9510   -2.8580   -0.5820 C   0  0  0  0  0  0  0  0  0  0  0  0
    3.2380   -3.4860   -1.7280 C   0  0  0  0  0  0  0  0  0  0  0  0
    2.0020   -3.1960   -2.0960 C   0  0  0  0  0  0  0  0  0  0  0  0
   -0.8360    1.5940    0.0170 N   0  0  0  0  0  0  0  0  0  0  0  0
   -1.7090    1.2920    1.1010 C   0  0  0  0  0  0  0  0  0  0  0  0
   -1.3390    1.5140    2.3220 C   0  0  0  0  0  0  0  0  0  0  0  0
   -1.8170    1.3140    3.6510 C   0  0  0  0  0  0  0  0  0  0  0  0
   -3.0320    0.7430    4.0170 N   0  0  0  0  0  0  0  0  0  0  0  0
   -0.9980    1.7350    4.6650 C   0  0  0  0  0  0  0  0  0  0  0  0
    0.2550    2.3330    4.3630 N   0  0  0  0  0  0  0  0  0  0  0  0
  1  2  2  0
  2  3  1  0
  2 20  1  0
  3  4  1  0
  4  5  1  0
  4 19  2  0
  5  6  1  0
  5  9  2  0
  6  7  1  0
  7  8  2  0
  8  9  1  0
  9 10  1  0
 10 11  1  0
 11 12  1  0
 12 13  2  0
 12 18  1  0
 13 14  1  0
 14 15  2  0
 14 16  1  0
 16 17  1  0
 17 18  2  0
 19 20  1  0
 20 21  2  3
 21 22  1  0
 22 23  1  0
 22 24  2  3
 24 25  1  0
M  END
