
     RDKit          3D

 25 27  0  0  0  0  0  0  0  0999 V2000
   -4.1480    0.3190    0.3780 N   0  0  0  0  0  0  0  0  0  0  0  0
   -4.7480    0.0470   -0.8610 C   0  0  0  0  0  0  0  0  0  0  0  0
   -6.0580    0.0920   -0.9780 C   0  0  0  0  0  0  0  0  0  0  0  0
   -6.8530    0.4170    0.1510 N   0  0  2  0  0  0  0  0  0  0  0  0
   -7.9840   -0.3470    0.0630 F   0  0  0  0  0  0  0  0  0  0  0  0
   -7.3010    2.1360    0.0940 S   0  0  0  0  0  0  0  0  0  0  0  0
   -3.9210   -0.2850   -2.0300 C   0  0  0  0  0  0  0  0  0  0  0  0
   -2.9480   -1.7620   -1.7360 S   0  0  0  0  0  0  0  0  0  0  0  0
   -1.7110   -1.5450   -0.4670 C   0  0  0  0  0  0  0  0  0  0  0  0
   -1.9740   -1.8120    0.8590 C   0  0  0  0  0  0  0  0  0  0  0  0
   -1.0050   -1.6370    1.8200 C   0  0  0  0  0  0  0  0  0  0  0  0
    0.2630   -1.1800    1.4290 C   0  0  0  0  0  0  0  0  0  0  0  0
    0.5000   -0.9230    0.1110 C   0  0  0  0  0  0  0  0  0  0  0  0
    1.7930   -0.4500   -0.3330 C   0  0  0  0  0  0  0  0  0  0  0  0
    1.9720   -0.2030   -1.6990 C   0  0  0  0  0  0  0  0  0  0  0  0
    3.1610    0.2330   -2.1110 N   0  0  0  0  0  0  0  0  0  0  0  0
    4.1880    0.4430   -1.2710 C   0  0  0  0  0  0  0  0  0  0  0  0
    4.0280    0.2060    0.0710 C   0  0  0  0  0  0  0  0  0  0  0  0
    2.8030   -0.2510    0.5520 C   0  0  0  0  0  0  0  0  0  0  0  0
    5.1010    0.4210    0.9830 N   0  0  0  0  0  0  0  0  0  0  0  0
    6.3400    0.8820    0.5060 C   0  0  0  0  0  0  0  0  0  0  0  0
    7.4340    1.1030    1.4160 N   0  0  0  0  0  0  0  0  0  0  0  0
    6.5010    1.1110   -0.7770 C   0  0  0  0  0  0  0  0  0  0  0  0
    5.4570    0.9090   -1.7190 N   0  0  0  0  0  0  0  0  0  0  0  0
   -0.4810   -1.1110   -0.7790 N   0  0  0  0  0  0  0  0  0  0  0  0
  1  2  1  0
  2  3  2  3
  2  7  1  0
  3  4  1  0
  4  5  1  6
  4  6  1  0
  7  8  1  0
  8  9  1  0
  9 10  2  0
  9 25  1  0
 10 11  1  0
 11 12  2  0
 12 13  1  0
 13 14  1  0
 13 25  2  0
 14 15  2  0
 14 19  1  0
 15 16  1  0
 16 17  2  0
 17 18  1  0
 17 24  1  0
 18 19  2  0
 18 20  1  0
 20 21  1  0
 21 22  1  0
 21 23  2  0
 23 24  1  0
M  CHG  1   4   1
M  END
