
     RDKit          3D

 18 19  0  0  0  0  0  0  0  0999 V2000
   -4.6530    1.8340   -1.0210 C   0  0  0  0  0  0  0  0  0  0  0  0
   -3.7180    0.9130   -0.3120 C   0  0  0  0  0  0  0  0  0  0  0  0
   -4.0660    0.2930    0.8710 C   0  0  0  0  0  0  0  0  0  0  0  0
   -3.2140   -0.5570    1.5320 C   0  0  0  0  0  0  0  0  0  0  0  0
   -1.9430   -0.8260    1.0150 C   0  0  0  0  0  0  0  0  0  0  0  0
   -1.1360   -1.6940    1.7220 O   0  0  0  0  0  0  0  0  0  0  0  0
   -1.5850   -0.2130   -0.1620 C   0  0  0  0  0  0  0  0  0  0  0  0
   -0.3260   -0.4760   -0.6790 O   0  0  0  0  0  0  0  0  0  0  0  0
    0.8150   -0.0860    0.0070 C   0  0  0  0  0  0  0  0  0  0  0  0
    0.7780    0.6180    1.1970 C   0  0  0  0  0  0  0  0  0  0  0  0
    1.9480    0.9740    1.8280 C   0  0  0  0  0  0  0  0  0  0  0  0
    3.1690    0.6410    1.2930 C   0  0  0  0  0  0  0  0  0  0  0  0
    3.2470   -0.0750    0.0810 C   0  0  0  0  0  0  0  0  0  0  0  0
    4.5670   -0.4250   -0.4810 C   0  0  0  0  0  0  0  0  0  0  0  0
    2.0760   -0.4200   -0.5290 C   0  0  0  0  0  0  0  0  0  0  0  0
    2.0330   -1.1660   -1.7940 C   0  0  0  0  0  0  0  0  0  0  0  0
    3.2860   -1.4660   -2.2730 O   0  0  0  0  0  0  0  0  0  0  0  0
   -2.4680    0.6400   -0.8070 C   0  0  0  0  0  0  0  0  0  0  0  0
  1  2  1  0
  2  3  2  0
  2 18  1  0
  3  4  1  0
  4  5  2  0
  5  6  1  0
  5  7  1  0
  7  8  1  0
  7 18  2  0
  8  9  1  0
  9 10  2  0
  9 15  1  0
 10 11  1  0
 11 12  2  0
 12 13  1  0
 13 14  1  0
 13 15  2  0
 15 16  1  0
 16 17  1  0
M  END
