
     RDKit          3D

 20 22  0  0  0  0  0  0  0  0999 V2000
    4.0770    2.3180    0.7180 N   0  0  0  0  0  0  0  0  0  0  0  0
    3.5420    1.0430    0.3710 C   0  0  0  0  0  0  0  0  0  0  0  0
    2.2210    0.8610    0.5470 N   0  0  0  0  0  0  0  0  0  0  0  0
    1.6440   -0.3030    0.2470 C   0  0  0  0  0  0  0  0  0  0  0  0
    2.4430   -1.3130   -0.2480 C   0  0  0  0  0  0  0  0  0  0  0  0
    1.6250   -2.3540   -0.4620 N   0  0  0  0  0  0  0  0  0  0  0  0
    0.3750   -2.0030   -0.1150 C   0  0  0  0  0  0  0  0  0  0  0  0
   -0.6700   -2.6990   -0.1680 O   0  0  0  0  0  0  0  0  0  0  0  0
    0.3840   -0.7160    0.3310 N   0  0  0  0  0  0  0  0  0  0  0  0
   -0.7400    0.0550    0.8020 C   0  0  1  0  0  0  0  0  0  0  0  0
   -1.0490    1.1400   -0.2020 C   0  0  0  0  0  0  0  0  0  0  0  0
   -2.5410    1.3120   -0.0230 C   0  0  2  0  0  0  0  0  0  0  0  0
   -2.7040    2.4540    0.7940 O   0  0  0  0  0  0  0  0  0  0  0  0
   -2.9730    0.0700    0.6650 C   0  0  1  0  0  0  0  0  0  0  0  0
   -3.9440   -0.7470   -0.1940 C   0  0  0  0  0  0  0  0  0  0  0  0
   -4.3350   -1.9000    0.4810 O   0  0  0  0  0  0  0  0  0  0  0  0
   -1.8830   -0.7190    0.9170 O   0  0  0  0  0  0  0  0  0  0  0  0
    3.7920   -1.1070   -0.4210 C   0  0  0  0  0  0  0  0  0  0  0  0
    4.4900   -2.0660   -0.8800 O   0  0  0  0  0  0  0  0  0  0  0  0
    4.3260    0.0750   -0.1060 N   0  0  0  0  0  0  0  0  0  0  0  0
  1  2  1  0
  2  3  2  0
  2 20  1  0
  3  4  1  0
  4  5  2  0
  4  9  1  0
  5  6  1  0
  5 18  1  0
  6  7  1  0
  7  8  2  0
  7  9  1  0
 10  9  1  6
 10 11  1  0
 10 17  1  0
 11 12  1  0
 12 13  1  1
 12 14  1  0
 14 15  1  6
 14 17  1  0
 15 16  1  0
 18 19  2  0
 18 20  1  0
M  END
