
     RDKit          3D

 25 27  0  0  0  0  0  0  0  0999 V2000
   -2.8700    3.5620    1.2970 N   0  0  0  0  0  0  0  0  0  0  0  0
   -2.9520    2.2830    0.6910 C   0  0  0  0  0  0  0  0  0  0  0  0
   -4.1170    1.8550    0.4050 N   0  0  0  0  0  0  0  0  0  0  0  0
   -4.5530    0.6290   -0.2030 C   0  0  0  0  0  0  0  0  0  0  0  0
   -3.8250   -0.3920   -0.3850 N   0  0  0  0  0  0  0  0  0  0  0  0
   -2.4670   -0.6800   -0.0960 C   0  0  0  0  0  0  0  0  0  0  0  0
   -2.0250   -1.9020   -0.0100 C   0  0  0  0  0  0  0  0  0  0  0  0
   -2.7650   -3.1060   -0.1780 C   0  0  0  0  0  0  0  0  0  0  0  0
   -3.9950   -3.2250   -0.4430 N   0  0  0  0  0  0  0  0  0  0  0  0
   -1.8620   -4.6840    0.0050 S   0  0  0  0  0  0  0  0  0  0  0  0
   -1.4020    0.3690    0.1370 C   0  0  0  0  0  0  0  0  0  0  0  0
    0.2320   -0.2220   -0.0770 S   0  0  0  0  0  0  0  0  0  0  0  0
    1.5070    0.9300    0.1790 C   0  0  0  0  0  0  0  0  0  0  0  0
    1.3260    2.2130    0.5220 N   0  0  0  0  0  0  0  0  0  0  0  0
    2.3110    3.1030    0.7190 C   0  0  0  0  0  0  0  0  0  0  0  0
    2.0170    4.4620    1.0860 N   0  0  0  0  0  0  0  0  0  0  0  0
    3.5790    2.6810    0.5620 N   0  0  0  0  0  0  0  0  0  0  0  0
    3.8260    1.4010    0.2170 C   0  0  0  0  0  0  0  0  0  0  0  0
    2.8380    0.4770    0.0110 C   0  0  0  0  0  0  0  0  0  0  0  0
    3.1350   -0.8880   -0.3580 C   0  0  0  0  0  0  0  0  0  0  0  0
    2.5420   -2.0200    0.2010 C   0  0  0  0  0  0  0  0  0  0  0  0
    3.1220   -3.0840   -0.4460 C   0  0  0  0  0  0  0  0  0  0  0  0
    4.0230   -2.6720   -1.3550 N   0  0  0  0  0  0  0  0  0  0  0  0
    4.0490   -1.3310   -1.3200 C   0  0  0  0  0  0  0  0  0  0  0  0
   -1.6590    1.5980    0.4660 C   0  0  0  0  0  0  0  0  0  0  0  0
  1  2  1  0
  2  3  2  0
  2 25  1  0
  3  4  1  0
  4  5  2  0
  5  6  1  0
  6  7  2  3
  6 11  1  0
  7  8  1  0
  8  9  2  0
  8 10  1  0
 11 12  1  0
 11 25  2  0
 12 13  1  0
 13 14  2  0
 13 19  1  0
 14 15  1  0
 15 16  1  0
 15 17  2  0
 17 18  1  0
 18 19  2  0
 19 20  1  0
 20 21  1  0
 20 24  2  0
 21 22  2  0
 22 23  1  0
 23 24  1  0
M  CHG  1   9   1
M  END
