
     RDKit          3D

 24 26  0  0  0  0  0  0  0  0999 V2000
   -2.6220    4.7170    1.3400 N   0  0  0  0  0  0  0  0  0  0  0  0
   -3.5930    3.8830    1.2340 C   0  0  0  0  0  0  0  0  0  0  0  0
   -3.3950    2.5260    0.8770 N   0  0  0  0  0  0  0  0  0  0  0  0
   -4.3170    1.9150    0.2280 C   0  0  0  0  0  0  0  0  0  0  0  0
   -4.1310    0.5700   -0.1310 N   0  0  0  0  0  0  0  0  0  0  0  0
   -2.7910    0.0240   -0.1970 C   0  0  0  0  0  0  0  0  0  0  0  0
   -1.3980    1.0690    0.1790 S   0  0  0  0  0  0  0  0  0  0  0  0
   -0.1790   -0.2610   -0.1090 C   0  0  0  0  0  0  0  0  0  0  0  0
    1.1950    0.0780    0.0640 N   0  0  0  0  0  0  0  0  0  0  0  0
    2.2770   -0.7920   -0.0500 C   0  0  0  0  0  0  0  0  0  0  0  0
    3.6490   -0.3990    0.2570 C   0  0  0  0  0  0  0  0  0  0  0  0
    4.6790   -1.4430   -0.0280 N   0  0  0  0  0  0  0  0  0  0  0  0
    4.1630    0.6740    0.7280 C   0  0  0  0  0  0  0  0  0  0  0  0
    3.7000    1.9690    1.1810 C   0  0  0  0  0  0  0  0  0  0  0  0
    4.2580    3.0360    0.3430 N   0  0  0  0  0  0  0  0  0  0  0  0
   -0.9320   -1.2890   -0.4410 C   0  0  0  0  0  0  0  0  0  0  0  0
   -0.3820   -2.5600   -0.7650 C   0  0  0  0  0  0  0  0  0  0  0  0
   -1.1390   -3.6320   -1.1150 C   0  0  0  0  0  0  0  0  0  0  0  0
   -2.5540   -3.4900   -1.1640 C   0  0  0  0  0  0  0  0  0  0  0  0
   -3.3900   -4.5660   -1.5200 C   0  0  0  0  0  0  0  0  0  0  0  0
   -4.9870   -3.8620   -1.4230 S   0  0  0  0  0  0  0  0  0  0  0  0
   -4.5070   -2.2510   -0.9390 N   0  0  0  0  0  0  0  0  0  0  0  0
   -3.0390   -2.3260   -0.8670 C   0  0  0  0  0  0  0  0  0  0  0  0
   -2.2740   -1.1830   -0.4970 C   0  0  0  0  0  0  0  0  0  0  0  0
  1  2  2  0
  2  3  1  0
  3  4  2  3
  4  5  1  0
  5  6  1  0
  6  7  1  0
  6 24  2  0
  7  8  1  0
  8  9  1  0
  8 16  2  0
  9 10  1  0
 10 11  1  0
 11 12  1  0
 11 13  2  3
 13 14  1  0
 14 15  1  0
 16 17  1  0
 16 24  1  0
 17 18  2  0
 18 19  1  0
 19 20  2  0
 19 23  1  0
 20 21  1  0
 21 22  1  0
 22 23  2  0
 23 24  1  0
M  CHG  1  15   1
M  END
