
     RDKit          3D

 25 25  0  0  0  0  0  0  0  0999 V2000
    5.1140    1.2540    3.1130 C   0  0  0  0  0  0  0  0  0  0  0  0
    4.4940    1.3930    1.8540 O   0  0  0  0  0  0  0  0  0  0  0  0
    3.9020    0.3160    1.2410 C   0  0  0  0  0  0  0  0  0  0  0  0
    3.9220   -0.8050    1.8190 O   0  0  0  0  0  0  0  0  0  0  0  0
    3.2400    0.5000   -0.1030 C   0  0  0  0  0  0  0  0  0  0  0  0
    1.8660   -0.0840   -0.0480 C   0  0  2  0  0  0  0  0  0  0  0  0
    1.9080   -1.4450    0.2910 O   0  0  0  0  0  0  0  0  0  0  0  0
    1.1260    0.0540   -1.3740 C   0  0  1  0  0  0  0  0  0  0  0  0
    1.7950   -0.8190   -2.4000 C   0  0  0  0  0  0  0  0  0  0  0  0
   -0.2010   -0.4570   -1.1610 O   0  0  0  0  0  0  0  0  0  0  0  0
   -1.1710   -0.5120   -2.1280 C   0  0  0  0  0  0  0  0  0  0  0  0
   -0.8390   -0.0760   -3.2720 O   0  0  0  0  0  0  0  0  0  0  0  0
   -2.5350   -1.0430   -1.8930 C   0  0  2  0  0  0  0  0  0  0  0  0
   -3.1680   -1.1590   -3.2250 N   0  0  0  0  0  0  0  0  0  0  0  0
   -3.4290   -0.1190   -1.1060 C   0  0  0  0  0  0  0  0  0  0  0  0
   -2.8970    0.1930    0.2430 C   0  0  0  0  0  0  0  0  0  0  0  0
   -3.4870   -0.1080    1.3960 C   0  0  0  0  0  0  0  0  0  0  0  0
   -4.7110   -0.7700    1.4770 O   0  0  0  0  0  0  0  0  0  0  0  0
   -2.6440    0.3650    2.4980 C   0  0  2  0  0  0  0  0  0  0  0  0
   -3.2260    1.5660    2.9580 O   0  0  0  0  0  0  0  0  0  0  0  0
   -1.3150    0.6340    1.8410 C   0  0  0  0  0  0  0  0  0  0  0  0
   -1.6960    0.8530    0.5080 O   0  0  0  0  0  0  0  0  0  0  0  0
    1.0820    1.4610   -1.7930 C   0  0  0  0  0  0  0  0  0  0  0  0
   -0.0620    2.0280   -1.8410 O   0  0  0  0  0  0  0  0  0  0  0  0
    2.1560    2.2400   -2.1470 O   0  0  0  0  0  0  0  0  0  0  0  0
  1  2  1  0
  2  3  1  0
  3  4  2  0
  3  5  1  0
  5  6  1  0
  6  7  1  6
  6  8  1  0
  8  9  1  6
  8 10  1  0
  8 23  1  0
 10 11  1  0
 11 12  2  0
 11 13  1  0
 13 14  1  6
 13 15  1  0
 15 16  1  0
 16 17  2  0
 16 22  1  0
 17 18  1  0
 17 19  1  0
 19 20  1  6
 19 21  1  0
 21 22  1  0
 23 24  2  0
 23 25  1  0
M  CHG  1  25  -1
M  END
