
     RDKit          3D

 11 12  0  0  0  0  0  0  0  0999 V2000
    3.6210   -0.1730   -0.1900 N   0  0  0  0  0  0  0  0  0  0  0  0
    2.3390   -0.6000    0.2920 C   0  0  0  0  0  0  0  0  0  0  0  0
    1.3210    0.4640   -0.0850 C   0  0  0  0  0  0  0  0  0  0  0  0
    1.7030    1.5480   -0.7470 N   0  0  0  0  0  0  0  0  0  0  0  0
    0.1380    2.5310   -0.9730 S   0  0  0  0  0  0  0  0  0  0  0  0
   -0.8250    1.3650   -0.1520 C   0  0  0  0  0  0  0  0  0  0  0  0
    0.0290    0.3300    0.2410 C   0  0  0  0  0  0  0  0  0  0  0  0
   -0.7470   -0.7610    0.9840 C   0  0  0  0  0  0  0  0  0  0  0  0
   -1.8150   -1.1910   -0.0220 C   0  0  0  0  0  0  0  0  0  0  0  0
   -2.8230   -0.0830   -0.2250 C   0  0  0  0  0  0  0  0  0  0  0  0
   -2.2890    1.2510    0.1970 C   0  0  0  0  0  0  0  0  0  0  0  0
  1  2  1  0
  2  3  1  0
  3  4  2  0
  3  7  1  0
  4  5  1  0
  5  6  1  0
  6  7  2  0
  6 11  1  0
  7  8  1  0
  8  9  1  0
  9 10  1  0
 10 11  1  0
M  CHG  1   1   1
M  END
