
     RDKit          3D

 25 26  0  0  0  0  0  0  0  0999 V2000
   -3.3050    1.0800   -1.6010 C   0  0  0  0  0  0  0  0  0  0  0  0
   -3.0710    0.1230   -0.4900 C   0  0  2  0  0  0  0  0  0  0  0  0
   -3.3150   -1.3330   -0.8500 C   0  0  0  0  0  0  0  0  0  0  0  0
   -4.6720   -1.4020   -1.2450 O   0  0  0  0  0  0  0  0  0  0  0  0
   -3.7480    0.4160    0.8190 C   0  0  2  0  0  0  0  0  0  0  0  0
   -4.1900    1.6950    1.0210 O   0  0  0  0  0  0  0  0  0  0  0  0
   -2.4460    0.0560    1.5070 C   0  0  0  0  0  0  0  0  0  0  0  0
   -1.7540    0.3420    0.1890 C   0  0  2  0  0  0  0  0  0  0  0  0
   -1.2380    1.7520    0.1790 C   0  0  0  0  0  0  0  0  0  0  0  0
   -0.3050    1.8520    1.2820 N   0  0  0  0  0  0  0  0  0  0  0  0
    0.5200    0.7090    1.5040 C   0  0  0  0  0  0  0  0  0  0  0  0
    1.0530    0.4700    2.6040 O   0  0  0  0  0  0  0  0  0  0  0  0
    0.6850   -0.1770    0.2900 C   0  0  1  0  0  0  0  0  0  0  0  0
    1.3330    0.6030   -0.6520 O   0  0  0  0  0  0  0  0  0  0  0  0
    1.4730   -1.3930    0.6080 C   0  0  0  0  0  0  0  0  0  0  0  0
    2.7330   -1.2420    1.1420 O   0  0  0  0  0  0  0  0  0  0  0  0
    3.7730   -0.6560    0.4860 C   0  0  0  0  0  0  0  0  0  0  0  0
    3.7120   -0.2000   -0.6620 O   0  0  0  0  0  0  0  0  0  0  0  0
    5.0890   -0.5520    1.1980 C   0  0  0  0  0  0  0  0  0  0  0  0
    6.0240    0.0590    0.3700 O   0  0  0  0  0  0  0  0  0  0  0  0
    6.3860   -0.4810   -0.8360 C   0  0  0  0  0  0  0  0  0  0  0  0
    5.8860   -1.5470   -1.2330 O   0  0  0  0  0  0  0  0  0  0  0  0
    7.3410    0.2130   -1.6040 O   0  0  0  0  0  0  0  0  0  0  0  0
    7.6760   -0.3340   -2.7740 O   0  0  0  0  0  0  0  0  0  0  0  0
   -0.6870   -0.6110   -0.2090 C   0  0  0  0  0  0  0  0  0  0  0  0
  2  1  1  6
  2  3  1  0
  2  5  1  0
  2  8  1  0
  3  4  1  0
  5  6  1  6
  5  7  1  0
  8  7  1  1
  8  9  1  0
  8 25  1  0
  9 10  1  0
 10 11  1  0
 11 12  2  0
 11 13  1  0
 13 14  1  6
 13 15  1  0
 13 25  1  0
 15 16  1  0
 16 17  1  0
 17 18  2  0
 17 19  1  0
 19 20  1  0
 20 21  1  0
 21 22  2  0
 21 23  1  0
 23 24  1  0
M  CHG  1  24  -1
M  END
