
     RDKit          3D

 11 12  0  0  0  0  0  0  0  0999 V2000
    3.0700    0.0220   -0.4460 C   0  0  0  0  0  0  0  0  0  0  0  0
    2.1580    0.8030    0.3680 N   0  0  0  0  0  0  0  0  0  0  0  0
    0.8720    0.1460    0.3600 C   0  0  0  0  0  0  0  0  0  0  0  0
   -0.2140    0.7500   -0.1800 C   0  0  0  0  0  0  0  0  0  0  0  0
   -1.5050    0.1560   -0.2190 C   0  0  0  0  0  0  0  0  0  0  0  0
   -2.6420    0.6370   -0.7150 C   0  0  0  0  0  0  0  0  0  0  0  0
   -3.8210   -0.0410   -0.6870 C   0  0  0  0  0  0  0  0  0  0  0  0
   -3.2170   -1.5830    0.1690 S   0  0  0  0  0  0  0  0  0  0  0  0
   -1.4920   -1.0960    0.3610 C   0  0  0  0  0  0  0  0  0  0  0  0
   -0.3990   -1.7090    0.9080 C   0  0  0  0  0  0  0  0  0  0  0  0
    0.8070   -1.0720    0.9060 N   0  0  0  0  0  0  0  0  0  0  0  0
  1  2  1  0
  2  3  1  0
  3  4  2  0
  3 11  1  0
  4  5  1  0
  5  6  1  0
  5  9  2  0
  6  7  2  0
  7  8  1  0
  8  9  1  0
  9 10  1  0
 10 11  2  0
M  CHG  1   2   1
M  END
