
     RDKit          3D

 25 25  0  0  0  0  0  0  0  0999 V2000
   -4.2700   -0.0160    2.1440 C   0  0  0  0  0  0  0  0  0  0  0  0
   -2.9920   -0.3870    1.3400 C   0  0  2  0  0  0  0  0  0  0  0  0
   -3.3400   -1.6580    0.6240 C   0  0  0  0  0  0  0  0  0  0  0  0
   -1.9680   -0.6850    2.4090 C   0  0  0  0  0  0  0  0  0  0  0  0
   -2.7120    0.7760    0.4850 C   0  0  1  0  0  0  0  0  0  0  0  0
   -2.4900    1.8710    1.3690 O   0  0  0  0  0  0  0  0  0  0  0  0
   -1.9060    0.7430   -0.6970 C   0  0  1  0  0  0  0  0  0  0  0  0
   -1.9270    2.2090   -1.2630 C   0  0  0  0  0  0  0  0  0  0  0  0
   -0.5860    2.6830   -0.7940 C   0  0  0  0  0  0  0  0  0  0  0  0
    0.0940    1.6000   -0.3020 O   0  0  0  0  0  0  0  0  0  0  0  0
   -0.5160    0.4370   -0.8540 C   0  0  2  0  0  0  0  0  0  0  0  0
   -0.1150    0.5660   -2.2350 O   0  0  0  0  0  0  0  0  0  0  0  0
    0.1660   -0.7270   -0.3030 C   0  0  1  0  0  0  0  0  0  0  0  0
   -0.4420   -1.9040   -0.8040 O   0  0  0  0  0  0  0  0  0  0  0  0
    1.5000   -0.8510   -0.7900 O   0  0  0  0  0  0  0  0  0  0  0  0
    2.4240   -1.0730    0.1890 C   0  0  1  0  0  0  0  0  0  0  0  0
    3.0250   -2.4250   -0.0610 C   0  0  0  0  0  0  0  0  0  0  0  0
    2.8460   -3.0350   -1.1470 O   0  0  0  0  0  0  0  0  0  0  0  0
    3.8050   -3.0590    0.8960 O   0  0  0  0  0  0  0  0  0  0  0  0
    3.5520   -0.0900    0.2160 C   0  0  2  0  0  0  0  0  0  0  0  0
    4.3810   -0.1450   -1.0720 C   0  0  0  0  0  0  0  0  0  0  0  0
    3.5340    0.1700   -2.1540 O   0  0  0  0  0  0  0  0  0  0  0  0
    4.2330    0.1300   -3.3080 N   0  0  0  0  0  0  0  0  0  0  0  0
    4.4340   -0.4070    1.2490 O   0  0  0  0  0  0  0  0  0  0  0  0
    4.6490    0.5800    2.0580 O   0  0  0  0  0  0  0  0  0  0  0  0
  2  1  1  1
  2  3  1  0
  2  4  1  0
  2  5  1  0
  5  6  1  1
  5  7  1  0
  7  8  1  1
  7 11  1  0
  8  9  1  0
  9 10  1  0
 10 11  1  0
 11 12  1  6
 11 13  1  0
 13 14  1  6
 13 15  1  0
 16 15  1  6
 16 17  1  0
 16 20  1  0
 17 18  2  0
 17 19  1  0
 20 21  1  6
 20 24  1  0
 21 22  1  0
 22 23  1  0
 24 25  1  0
M  CHG  1  19  -1
M  END
