
     RDKit          3D

 19 21  0  0  0  0  0  0  0  0999 V2000
    5.0040    0.3710    0.2730 N   0  0  0  0  0  0  0  0  0  0  0  0
    3.6400    0.7210    0.4340 C   0  0  0  0  0  0  0  0  0  0  0  0
    3.2220    1.7820    1.1150 N   0  0  0  0  0  0  0  0  0  0  0  0
    1.9060    2.0340    1.2140 C   0  0  0  0  0  0  0  0  0  0  0  0
    0.9880    1.2460    0.6440 N   0  0  0  0  0  0  0  0  0  0  0  0
    1.3440    0.1730   -0.0490 C   0  0  0  0  0  0  0  0  0  0  0  0
    2.6890   -0.1080   -0.1660 C   0  0  0  0  0  0  0  0  0  0  0  0
    2.7510   -1.2310   -0.9070 N   0  0  0  0  0  0  0  0  0  0  0  0
    1.5180   -1.6360   -1.2400 C   0  0  0  0  0  0  0  0  0  0  0  0
    1.2190   -2.6520   -1.9290 O   0  0  0  0  0  0  0  0  0  0  0  0
    0.6220   -0.7640   -0.7080 N   0  0  0  0  0  0  0  0  0  0  0  0
   -0.8100   -0.8660   -0.8500 C   0  0  2  0  0  0  0  0  0  0  0  0
   -1.4520    0.4960   -1.1200 C   0  0  0  0  0  0  0  0  0  0  0  0
   -2.9010    0.1200   -0.7760 C   0  0  1  0  0  0  0  0  0  0  0  0
   -3.3940   -0.6230   -1.8290 O   0  0  0  0  0  0  0  0  0  0  0  0
   -2.6460   -0.7650    0.4250 C   0  0  2  0  0  0  0  0  0  0  0  0
   -2.5900    0.1260    1.6720 C   0  0  0  0  0  0  0  0  0  0  0  0
   -3.8140    0.7630    1.8630 O   0  0  0  0  0  0  0  0  0  0  0  0
   -1.4400   -1.3820    0.2490 O   0  0  0  0  0  0  0  0  0  0  0  0
  1  2  1  0
  2  3  2  0
  2  7  1  0
  3  4  1  0
  4  5  2  0
  5  6  1  0
  6  7  2  0
  6 11  1  0
  7  8  1  0
  8  9  1  0
  9 10  2  0
  9 11  1  0
 12 11  1  1
 12 13  1  0
 12 19  1  0
 13 14  1  0
 14 15  1  6
 14 16  1  0
 16 17  1  1
 16 19  1  0
 17 18  1  0
M  END
