
     RDKit          3D

 11 11  0  0  0  0  0  0  0  0999 V2000
    4.1580   -0.4710   -0.2170 C   0  0  0  0  0  0  0  0  0  0  0  0
    3.0670    0.1130   -0.6330 C   0  0  0  0  0  0  0  0  0  0  0  0
    1.8470    0.1230    0.1110 C   0  0  0  0  0  0  0  0  0  0  0  0
    1.6780   -0.4260    1.2480 N   0  0  0  0  0  0  0  0  0  0  0  0
    0.6620    0.7900   -0.4040 N   0  0  0  0  0  0  0  0  0  0  0  0
   -0.6550    0.3750    0.0010 C   0  0  2  0  0  0  0  0  0  0  0  0
   -0.9200   -1.0810   -0.3640 C   0  0  0  0  0  0  0  0  0  0  0  0
   -2.1340   -1.5070    0.4340 C   0  0  0  0  0  0  0  0  0  0  0  0
   -3.5690   -0.4650   -0.0110 S   0  0  0  0  0  0  0  0  0  0  0  0
   -3.0000    1.2540   -0.0390 C   0  0  0  0  0  0  0  0  0  0  0  0
   -1.6490    1.2850   -0.7130 C   0  0  0  0  0  0  0  0  0  0  0  0
  1  2  2  0
  2  3  1  0
  3  4  2  0
  3  5  1  0
  6  5  1  6
  6  7  1  0
  6 11  1  0
  7  8  1  0
  8  9  1  0
  9 10  1  0
 10 11  1  0
M  CHG  1   4   1
M  END
