
     RDKit          3D

 25 26  0  0  0  0  0  0  0  0999 V2000
   -0.0740    1.0600   -0.8180 O   0  0  0  0  0  0  0  0  0  0  0  0
   -0.2760   -0.1730   -0.9150 C   0  0  0  0  0  0  0  0  0  0  0  0
    0.8210   -1.1750   -1.0570 C   0  0  0  0  0  0  0  0  0  0  0  0
    2.0890   -0.5250   -1.0250 O   0  0  0  0  0  0  0  0  0  0  0  0
    2.4370    0.1910    0.0900 C   0  0  0  0  0  0  0  0  0  0  0  0
    1.6380    0.2700    1.0840 O   0  0  0  0  0  0  0  0  0  0  0  0
    3.7330    0.8990    0.1990 C   0  0  0  0  0  0  0  0  0  0  0  0
    4.6010    0.1200    1.1630 C   0  0  2  0  0  0  0  0  0  0  0  0
    3.9570    0.0540    2.4030 O   0  0  0  0  0  0  0  0  0  0  0  0
    5.9800    0.7340    1.3070 C   0  0  1  0  0  0  0  0  0  0  0  0
    6.6820   -0.1070    2.1830 O   0  0  0  0  0  0  0  0  0  0  0  0
    6.6480    0.7070   -0.0480 C   0  0  0  0  0  0  0  0  0  0  0  0
    6.6060   -0.6140   -0.5090 O   0  0  0  0  0  0  0  0  0  0  0  0
    7.1960   -0.6420   -1.7040 O   0  0  0  0  0  0  0  0  0  0  0  0
   -1.6090   -0.6590   -0.8880 N   0  0  0  0  0  0  0  0  0  0  0  0
   -2.7350    0.2530   -0.7520 C   0  0  1  0  0  0  0  0  0  0  0  0
   -3.8360   -0.0820   -1.7160 C   0  0  0  0  0  0  0  0  0  0  0  0
   -4.5460   -0.8030   -0.5620 C   0  0  2  0  0  0  0  0  0  0  0  0
   -4.2550   -2.1750   -0.6470 O   0  0  0  0  0  0  0  0  0  0  0  0
   -5.9810   -0.5100   -0.5310 C   0  0  0  0  0  0  0  0  0  0  0  0
   -6.4570    0.5440    0.3820 C   0  0  0  0  0  0  0  0  0  0  0  0
   -5.5200    0.9540    1.4410 C   0  0  0  0  0  0  0  0  0  0  0  0
   -5.9570    1.3160    2.5890 O   0  0  0  0  0  0  0  0  0  0  0  0
   -4.1730    0.9240    1.1190 O   0  0  0  0  0  0  0  0  0  0  0  0
   -3.6630   -0.1390    0.3930 C   0  0  2  0  0  0  0  0  0  0  0  0
  1  2  2  0
  2  3  1  0
  2 15  1  0
  3  4  1  0
  4  5  1  0
  5  6  2  0
  5  7  1  0
  7  8  1  0
  8  9  1  1
  8 10  1  0
 10 11  1  1
 10 12  1  0
 12 13  1  0
 13 14  1  0
 16 15  1  6
 16 17  1  0
 16 25  1  0
 17 18  1  0
 18 19  1  6
 18 20  1  0
 18 25  1  0
 20 21  1  0
 21 22  1  0
 22 23  2  0
 22 24  1  0
 25 24  1  6
M  CHG  1  14  -1
M  END
