
     RDKit          3D

 20 21  0  0  0  0  0  0  0  0999 V2000
   -5.8040   -0.7680   -0.0700 C   0  0  0  0  0  0  0  0  0  0  0  0
   -4.3150   -0.6930   -0.0500 C   0  0  0  0  0  0  0  0  0  0  0  0
   -3.6040   -1.8580   -0.0470 C   0  0  0  0  0  0  0  0  0  0  0  0
   -2.2060   -1.8080   -0.0280 C   0  0  0  0  0  0  0  0  0  0  0  0
   -1.5880   -3.0360   -0.0270 O   0  0  0  0  0  0  0  0  0  0  0  0
   -1.5100   -0.5990   -0.0120 C   0  0  0  0  0  0  0  0  0  0  0  0
   -0.1080   -0.6270    0.0060 N   0  0  0  0  0  0  0  0  0  0  0  0
    0.7470    0.4920    0.0240 C   0  0  0  0  0  0  0  0  0  0  0  0
    0.2720    1.6420    0.0240 O   0  0  0  0  0  0  0  0  0  0  0  0
    2.1950    0.3040    0.0420 N   0  0  0  0  0  0  0  0  0  0  0  0
    3.0390    1.4800    0.0600 C   0  0  0  0  0  0  0  0  0  0  0  0
    4.4350    1.0060    0.0760 N   0  0  0  0  0  0  0  0  0  0  0  0
    4.9600    0.1700    1.1370 C   0  0  0  0  0  0  0  0  0  0  0  0
    5.6710   -1.0130    0.4810 C   0  0  0  0  0  0  0  0  0  0  0  0
    6.5630   -0.0780   -0.8400 S   0  0  0  0  0  0  0  0  0  0  0  0
    5.4170    1.2860   -0.8970 C   0  0  0  0  0  0  0  0  0  0  0  0
    5.5020    2.5600   -1.8660 S   0  0  0  0  0  0  0  0  0  0  0  0
   -2.2950    0.5280   -0.0160 C   0  0  0  0  0  0  0  0  0  0  0  0
   -3.6780    0.5230   -0.0340 C   0  0  0  0  0  0  0  0  0  0  0  0
   -4.4610    1.7910   -0.0370 C   0  0  0  0  0  0  0  0  0  0  0  0
  1  2  1  0
  2  3  2  0
  2 19  1  0
  3  4  1  0
  4  5  1  0
  4  6  2  0
  6  7  1  0
  6 18  1  0
  7  8  1  0
  8  9  2  0
  8 10  1  0
 10 11  1  0
 11 12  1  0
 12 13  1  0
 12 16  1  0
 13 14  1  0
 14 15  1  0
 15 16  1  0
 16 17  2  0
 18 19  2  0
 19 20  1  0
M  END
