
     RDKit          3D

 21 22  0  0  0  0  0  0  0  0999 V2000
   -5.3400    1.1880   -0.0390 C   0  0  0  0  0  0  0  0  0  0  0  0
   -3.9590    1.2980    0.4410 N   0  0  0  0  0  0  0  0  0  0  0  0
   -3.0960    0.1850    0.3280 C   0  0  0  0  0  0  0  0  0  0  0  0
   -1.7600    0.1330    0.1250 C   0  0  0  0  0  0  0  0  0  0  0  0
   -1.0560    1.4460   -0.0030 C   0  0  0  0  0  0  0  0  0  0  0  0
   -0.0170    1.7020    0.9330 N   0  0  0  0  0  0  0  0  0  0  0  0
    1.2960    1.1940    0.8220 C   0  0  0  0  0  0  0  0  0  0  0  0
    2.2790    1.5400    2.1180 S   0  0  0  0  0  0  0  0  0  0  0  0
    1.7430    0.4310   -0.2580 N   0  0  0  0  0  0  0  0  0  0  0  0
    3.0370   -0.1040   -0.4310 C   0  0  0  0  0  0  0  0  0  0  0  0
    3.1660   -1.3050   -1.1580 C   0  0  0  0  0  0  0  0  0  0  0  0
    4.4160   -1.8070   -1.3580 C   0  0  0  0  0  0  0  0  0  0  0  0
    5.5570   -1.2020   -0.8890 C   0  0  0  0  0  0  0  0  0  0  0  0
    5.4050   -0.0390   -0.1880 C   0  0  0  0  0  0  0  0  0  0  0  0
    6.4700    0.6530    0.3280 F   0  0  0  0  0  0  0  0  0  0  0  0
    4.1500    0.5260    0.0500 C   0  0  0  0  0  0  0  0  0  0  0  0
   -1.2160   -1.1630    0.0710 C   0  0  0  0  0  0  0  0  0  0  0  0
   -2.0460   -2.1680    0.2180 C   0  0  0  0  0  0  0  0  0  0  0  0
   -3.6150   -1.4700    0.4390 S   0  0  2  0  0  0  0  0  0  0  0  0
   -4.5700   -1.8350   -0.6560 O   0  0  0  0  0  0  0  0  0  0  0  0
   -4.1900   -1.7530    1.7960 O   0  0  0  0  0  0  0  0  0  0  0  0
  1  2  1  0
  2  3  1  0
  3  4  2  0
  3 19  1  0
  4  5  1  0
  4 17  1  0
  5  6  1  0
  6  7  1  0
  7  8  2  0
  7  9  1  0
  9 10  1  0
 10 11  2  0
 10 16  1  0
 11 12  1  0
 12 13  2  0
 13 14  1  0
 14 15  1  0
 14 16  2  0
 17 18  2  0
 19 18  1  6
 19 20  2  0
 19 21  2  0
M  END
