
     RDKit          3D

 21 22  0  0  0  0  0  0  0  0999 V2000
    6.1930    0.9550   -0.4780 O   0  0  0  0  0  0  0  0  0  0  0  0
    5.9770   -0.4490   -0.9610 S   0  0  1  0  0  0  0  0  0  0  0  0
    7.0350   -1.3130   -0.3250 O   0  0  0  0  0  0  0  0  0  0  0  0
    4.4400   -1.0600   -0.4940 N   0  0  0  0  0  0  0  0  0  0  0  0
    3.2810   -0.2400   -0.4060 C   0  0  0  0  0  0  0  0  0  0  0  0
    2.9410    0.6810   -1.3820 C   0  0  0  0  0  0  0  0  0  0  0  0
    1.8130    1.4670   -1.2790 C   0  0  0  0  0  0  0  0  0  0  0  0
    0.9600    1.3700   -0.1810 C   0  0  0  0  0  0  0  0  0  0  0  0
    1.2820    0.4630    0.7920 C   0  0  0  0  0  0  0  0  0  0  0  0
    0.4170    0.3250    1.9080 N   0  0  0  0  0  0  0  0  0  0  0  0
   -0.9940    0.1320    1.8430 C   0  0  0  0  0  0  0  0  0  0  0  0
   -1.7580    0.0440    3.2710 S   0  0  0  0  0  0  0  0  0  0  0  0
   -1.6740    0.0230    0.6210 N   0  0  0  0  0  0  0  0  0  0  0  0
   -3.0290   -0.1490    0.3250 C   0  0  0  0  0  0  0  0  0  0  0  0
   -4.0090   -0.2430    1.2640 C   0  0  0  0  0  0  0  0  0  0  0  0
   -5.3710   -0.4160    0.9180 C   0  0  0  0  0  0  0  0  0  0  0  0
   -5.7200   -0.4900   -0.3890 C   0  0  0  0  0  0  0  0  0  0  0  0
   -4.7610   -0.3990   -1.3620 C   0  0  0  0  0  0  0  0  0  0  0  0
   -3.4500   -0.2320   -1.0060 C   0  0  0  0  0  0  0  0  0  0  0  0
   -2.5180   -0.1450   -2.0140 F   0  0  0  0  0  0  0  0  0  0  0  0
    2.4310   -0.3290    0.6740 C   0  0  0  0  0  0  0  0  0  0  0  0
  1  2  2  0
  2  3  2  0
  2  4  1  1
  4  5  1  0
  5  6  2  0
  5 21  1  0
  6  7  1  0
  7  8  2  0
  8  9  1  0
  9 10  1  0
  9 21  2  0
 10 11  1  0
 11 12  2  0
 11 13  1  0
 13 14  1  0
 14 15  2  0
 14 19  1  0
 15 16  1  0
 16 17  2  0
 17 18  1  0
 18 19  2  0
 19 20  1  0
M  END
