
     RDKit          3D

 21 22  0  0  0  0  0  0  0  0999 V2000
   -3.5580   -0.9300    1.5650 O   0  0  0  0  0  0  0  0  0  0  0  0
   -3.0760    0.0440    0.8500 C   0  0  0  0  0  0  0  0  0  0  0  0
   -4.0390    0.9500    0.3900 N   0  0  0  0  0  0  0  0  0  0  0  0
   -5.4740    0.8300    0.6660 C   0  0  0  0  0  0  0  0  0  0  0  0
   -6.0020   -0.4430    0.0810 C   0  0  0  0  0  0  0  0  0  0  0  0
   -5.7700   -0.3890   -1.2960 O   0  0  0  0  0  0  0  0  0  0  0  0
   -1.3690    0.0900    0.5730 S   0  0  0  0  0  0  0  0  0  0  0  0
   -0.7320    1.3910   -0.4070 C   0  0  0  0  0  0  0  0  0  0  0  0
   -1.7260    2.5560   -1.0770 S   0  0  0  0  0  0  0  0  0  0  0  0
    0.6470    1.5290   -0.6860 N   0  0  0  0  0  0  0  0  0  0  0  0
    1.6760    0.6810   -0.2220 C   0  0  0  0  0  0  0  0  0  0  0  0
    1.6390   -0.0940    0.8940 C   0  0  0  0  0  0  0  0  0  0  0  0
    2.6660   -0.9170    1.2680 C   0  0  0  0  0  0  0  0  0  0  0  0
    3.8050   -0.9630    0.4680 C   0  0  0  0  0  0  0  0  0  0  0  0
    4.8330   -1.7560    0.8010 N   0  0  0  0  0  0  0  0  0  0  0  0
    5.9170   -1.7980    0.0380 C   0  0  0  0  0  0  0  0  0  0  0  0
    6.0350   -1.0380   -1.1180 C   0  0  0  0  0  0  0  0  0  0  0  0
    7.1420   -1.0760   -1.9030 F   0  0  0  0  0  0  0  0  0  0  0  0
    4.9990   -0.2090   -1.4940 C   0  0  0  0  0  0  0  0  0  0  0  0
    3.8830   -0.1890   -0.6750 C   0  0  0  0  0  0  0  0  0  0  0  0
    2.8460    0.6120   -1.0120 C   0  0  0  0  0  0  0  0  0  0  0  0
  1  2  2  0
  2  3  1  0
  2  7  1  0
  3  4  1  0
  4  5  1  0
  5  6  1  0
  7  8  1  0
  8  9  2  0
  8 10  1  0
 10 11  1  0
 11 12  2  0
 11 21  1  0
 12 13  1  0
 13 14  2  0
 14 15  1  0
 14 20  1  0
 15 16  2  0
 16 17  1  0
 17 18  1  0
 17 19  2  0
 19 20  1  0
 20 21  2  0
M  END
