
     RDKit          3D

 19 21  0  0  0  0  0  0  0  0999 V2000
    4.2640    0.3370    1.5190 N   0  0  0  0  0  0  0  0  0  0  0  0
    3.4460    0.1410    0.3700 C   0  0  0  0  0  0  0  0  0  0  0  0
    2.1830   -0.2850    0.5160 N   0  0  0  0  0  0  0  0  0  0  0  0
    1.4260   -0.4650   -0.5710 C   0  0  0  0  0  0  0  0  0  0  0  0
    1.9530   -0.2100   -1.8160 C   0  0  0  0  0  0  0  0  0  0  0  0
    0.9600   -0.4800   -2.7160 N   0  0  0  0  0  0  0  0  0  0  0  0
   -0.1140   -0.8800   -2.0130 C   0  0  0  0  0  0  0  0  0  0  0  0
    0.1400   -0.8820   -0.6940 N   0  0  0  0  0  0  0  0  0  0  0  0
   -0.7440   -1.2450    0.3880 C   0  0  1  0  0  0  0  0  0  0  0  0
   -0.7510   -0.2450    1.5040 C   0  0  0  0  0  0  0  0  0  0  0  0
   -1.8550    0.6850    0.9770 C   0  0  2  0  0  0  0  0  0  0  0  0
   -2.3700    1.4800    1.9850 O   0  0  0  0  0  0  0  0  0  0  0  0
   -2.8070   -0.3870    0.5260 C   0  0  1  0  0  0  0  0  0  0  0  0
   -3.9660    0.1370   -0.2640 C   0  0  0  0  0  0  0  0  0  0  0  0
   -3.6080    0.7750   -1.4250 O   0  0  0  0  0  0  0  0  0  0  0  0
   -2.0320   -1.2990   -0.1300 O   0  0  0  0  0  0  0  0  0  0  0  0
    3.2590    0.2320   -1.9740 C   0  0  0  0  0  0  0  0  0  0  0  0
    3.7140    0.4560   -3.1130 O   0  0  0  0  0  0  0  0  0  0  0  0
    3.9790    0.3970   -0.8520 N   0  0  0  0  0  0  0  0  0  0  0  0
  1  2  1  0
  2  3  2  0
  2 19  1  0
  3  4  1  0
  4  5  2  0
  4  8  1  0
  5  6  1  0
  5 17  1  0
  6  7  2  0
  7  8  1  0
  9  8  1  6
  9 10  1  0
  9 16  1  0
 10 11  1  0
 11 12  1  1
 11 13  1  0
 13 14  1  6
 13 16  1  0
 14 15  1  0
 17 18  2  0
 17 19  1  0
M  END
