
     RDKit          3D

 21 22  0  0  0  0  0  0  0  0999 V2000
    2.7160   -2.6080   -1.1560 C   0  0  0  0  0  0  0  0  0  0  0  0
    2.2580   -1.2220   -1.5630 C   0  0  0  0  0  0  0  0  0  0  0  0
    2.0420   -0.3420   -0.4050 C   0  0  0  0  0  0  0  0  0  0  0  0
    1.0510   -0.7950    0.5510 N   0  0  0  0  0  0  0  0  0  0  0  0
   -0.3250   -0.6660    0.3190 N   0  0  0  0  0  0  0  0  0  0  0  0
   -1.1610    0.0610    1.1900 C   0  0  0  0  0  0  0  0  0  0  0  0
   -0.5410    0.5770    2.1910 O   0  0  0  0  0  0  0  0  0  0  0  0
   -2.5990    0.2590    1.0460 C   0  0  0  0  0  0  0  0  0  0  0  0
   -3.3230    0.9690    1.9270 C   0  0  0  0  0  0  0  0  0  0  0  0
   -4.7340    0.9830    1.5020 C   0  0  0  0  0  0  0  0  0  0  0  0
   -4.7530    0.2010    0.2740 C   0  0  0  0  0  0  0  0  0  0  0  0
   -5.8830   -0.0400   -0.4610 F   0  0  0  0  0  0  0  0  0  0  0  0
   -3.5110   -0.2140    0.0170 C   0  0  0  0  0  0  0  0  0  0  0  0
   -3.1790   -1.0450   -1.1780 C   0  0  0  0  0  0  0  0  0  0  0  0
    2.6770    0.7860   -0.2060 C   0  0  0  0  0  0  0  0  0  0  0  0
    2.3990    1.8650    1.2320 S   0  0  0  0  0  0  0  0  0  0  0  0
    4.0330    2.6470    1.1300 C   0  0  0  0  0  0  0  0  0  0  0  0
    4.8210    3.3520    2.3580 S   0  0  0  0  0  0  0  0  0  0  0  0
    4.3920    2.4770   -0.2270 N   0  0  0  0  0  0  0  0  0  0  0  0
    3.6880    1.5050   -0.9360 C   0  0  0  0  0  0  0  0  0  0  0  0
    3.9040    1.2380   -2.1800 O   0  0  0  0  0  0  0  0  0  0  0  0
  1  2  1  0
  2  3  1  0
  3  4  1  0
  3 15  2  3
  4  5  1  0
  5  6  1  0
  6  7  2  0
  6  8  1  0
  8  9  2  0
  8 13  1  0
  9 10  1  0
 10 11  1  0
 11 12  1  0
 11 13  2  0
 13 14  1  0
 15 16  1  0
 15 20  1  0
 16 17  1  0
 17 18  2  0
 17 19  1  0
 19 20  1  0
 20 21  2  0
M  END
