
     RDKit          3D

 10 10  0  0  0  0  0  0  0  0999 V2000
    1.6560    0.0100   -1.1930 O   0  0  0  0  0  0  0  0  0  0  0  0
    1.5640   -0.9350   -0.1740 C   0  0  0  0  0  0  0  0  0  0  0  0
    0.5680   -0.4720    0.8570 C   0  0  1  0  0  0  0  0  0  0  0  0
    1.0300    0.8520    1.4310 C   0  0  0  0  0  0  0  0  0  0  0  0
    0.8900    1.6850    0.3220 O   0  0  0  0  0  0  0  0  0  0  0  0
   -0.3040    1.3500   -0.2870 C   0  0  0  0  0  0  0  0  0  0  0  0
   -0.7220   -0.0030    0.2180 C   0  0  2  0  0  0  0  0  0  0  0  0
   -1.6770    0.1920    1.2040 O   0  0  0  0  0  0  0  0  0  0  0  0
   -1.1990   -0.9230   -0.8680 C   0  0  0  0  0  0  0  0  0  0  0  0
   -2.3400   -0.3230   -1.4310 O   0  0  0  0  0  0  0  0  0  0  0  0
  1  2  1  0
  3  2  1  6
  3  4  1  0
  3  7  1  0
  4  5  1  0
  5  6  1  0
  6  7  1  0
  7  8  1  1
  7  9  1  0
  9 10  1  0
M  END
