
     RDKit          3D

 10 10  0  0  0  0  0  0  0  0999 V2000
   -2.6730    1.2130    0.2040 O   0  0  0  0  0  0  0  0  0  0  0  0
   -2.3980   -0.1190   -0.0270 C   0  0  0  0  0  0  0  0  0  0  0  0
   -1.2370   -0.6240    0.7900 C   0  0  0  0  0  0  0  0  0  0  0  0
    0.0280    0.1260    0.4970 C   0  0  1  0  0  0  0  0  0  0  0  0
   -0.0510    1.4690    0.7540 O   0  0  0  0  0  0  0  0  0  0  0  0
    1.2310   -0.4660    1.1900 C   0  0  0  0  0  0  0  0  0  0  0  0
    2.2960    0.0620    0.5090 O   0  0  0  0  0  0  0  0  0  0  0  0
    1.9420    0.3000   -0.7880 C   0  0  1  0  0  0  0  0  0  0  0  0
    2.7420   -0.2960   -1.7360 O   0  0  0  0  0  0  0  0  0  0  0  0
    0.4780   -0.0550   -0.9490 C   0  0  0  0  0  0  0  0  0  0  0  0
  1  2  1  0
  2  3  1  0
  3  4  1  0
  4  5  1  1
  4  6  1  0
  4 10  1  0
  6  7  1  0
  7  8  1  0
  8  9  1  6
  8 10  1  0
M  END
