
     RDKit          3D

 10 10  0  0  0  0  0  0  0  0999 V2000
    2.1430    1.6600    0.5550 O   0  0  0  0  0  0  0  0  0  0  0  0
    2.0190    0.3260    0.1710 C   0  0  0  0  0  0  0  0  0  0  0  0
    0.7200    0.0620   -0.5400 C   0  0  1  0  0  0  0  0  0  0  0  0
    0.6760   -1.4020   -0.9160 C   0  0  0  0  0  0  0  0  0  0  0  0
   -0.6620   -1.7550   -0.9120 O   0  0  0  0  0  0  0  0  0  0  0  0
   -1.2870   -1.0290    0.0930 C   0  0  1  0  0  0  0  0  0  0  0  0
   -1.4270   -1.7900    1.2680 O   0  0  0  0  0  0  0  0  0  0  0  0
   -0.4810    0.2060    0.3360 C   0  0  2  0  0  0  0  0  0  0  0  0
   -1.2740    1.4710   -0.0000 C   0  0  0  0  0  0  0  0  0  0  0  0
   -2.3770    1.6010    0.8070 O   0  0  0  0  0  0  0  0  0  0  0  0
  1  2  1  0
  3  2  1  1
  3  4  1  0
  3  8  1  0
  4  5  1  0
  5  6  1  0
  6  7  1  1
  6  8  1  0
  8  9  1  6
  9 10  1  0
M  END
