
     RDKit          3D

 11 11  0  0  0  0  0  0  0  0999 V2000
   -2.6280   -0.5830   -0.2690 C   0  0  0  0  0  0  0  0  0  0  0  0
   -1.1970   -0.4300    0.1690 C   0  0  1  0  0  0  0  0  0  0  0  0
   -0.4100   -1.4760   -0.3140 O   0  0  0  0  0  0  0  0  0  0  0  0
    0.8430   -1.3390    0.3000 C   0  0  1  0  0  0  0  0  0  0  0  0
    1.5990   -2.4770    0.2580 O   0  0  0  0  0  0  0  0  0  0  0  0
    1.5030   -0.1370   -0.3350 C   0  0  2  0  0  0  0  0  0  0  0  0
    2.8590   -0.0750   -0.1170 O   0  0  0  0  0  0  0  0  0  0  0  0
    0.7600    1.0810    0.1930 C   0  0  1  0  0  0  0  0  0  0  0  0
    1.3000    2.2670   -0.2470 O   0  0  0  0  0  0  0  0  0  0  0  0
   -0.6870    0.9200   -0.2430 C   0  0  1  0  0  0  0  0  0  0  0  0
   -0.8010    1.0800   -1.6140 O   0  0  0  0  0  0  0  0  0  0  0  0
  2  1  1  6
  2  3  1  0
  2 10  1  0
  3  4  1  0
  4  5  1  6
  4  6  1  0
  6  7  1  1
  6  8  1  0
  8  9  1  6
  8 10  1  0
 10 11  1  6
M  END
