
     RDKit          3D

 26 25  0  0  0  0  0  0  0  0999 V2000
    7.9370    0.2620   -1.4040 C   0  0  0  0  0  0  0  0  0  0  0  0
    7.2770   -0.1750   -0.1130 C   0  0  0  0  0  0  0  0  0  0  0  0
    5.8240    0.2510   -0.1690 C   0  0  0  0  0  0  0  0  0  0  0  0
    5.0820   -0.1400    1.0840 C   0  0  0  0  0  0  0  0  0  0  0  0
    3.6400    0.3320    0.9250 C   0  0  0  0  0  0  0  0  0  0  0  0
    2.8160   -0.0100    2.1360 C   0  0  0  0  0  0  0  0  0  0  0  0
    1.1300    0.5860    1.8650 S   0  0  0  0  0  0  0  0  0  0  0  0
    0.3640   -0.3410    0.5340 C   0  0  0  0  0  0  0  0  0  0  0  0
   -1.0710    0.1850    0.3340 C   0  0  2  0  0  0  0  0  0  0  0  0
   -1.6760   -0.6030   -0.7480 N   0  0  0  0  0  0  0  0  0  0  0  0
   -2.7550   -1.5120   -0.4570 C   0  0  0  0  0  0  0  0  0  0  0  0
   -3.1010   -1.5640    0.7310 O   0  0  0  0  0  0  0  0  0  0  0  0
   -3.3950   -2.3160   -1.4920 C   0  0  0  0  0  0  0  0  0  0  0  0
   -4.5360   -3.1530   -1.0960 C   0  0  0  0  0  0  0  0  0  0  0  0
   -5.7570   -2.5270   -0.5560 C   0  0  2  0  0  0  0  0  0  0  0  0
   -6.3540   -1.5530   -1.4580 N   0  0  0  0  0  0  0  0  0  0  0  0
   -5.7710   -2.0550    0.8250 C   0  0  0  0  0  0  0  0  0  0  0  0
   -6.0670   -0.8540    1.0660 O   0  0  0  0  0  0  0  0  0  0  0  0
   -5.4780   -2.8570    1.9420 O   0  0  0  0  0  0  0  0  0  0  0  0
   -0.9910    1.5970   -0.0430 C   0  0  0  0  0  0  0  0  0  0  0  0
   -1.2190    1.9780   -1.2430 O   0  0  0  0  0  0  0  0  0  0  0  0
   -0.6650    2.6090    0.8860 N   0  0  0  0  0  0  0  0  0  0  0  0
   -0.5880    4.0240    0.4700 C   0  0  0  0  0  0  0  0  0  0  0  0
   -1.9120    4.4030   -0.0370 C   0  0  0  0  0  0  0  0  0  0  0  0
   -2.8790    3.6000   -0.0540 O   0  0  0  0  0  0  0  0  0  0  0  0
   -2.0710    5.7160   -0.5110 O   0  0  0  0  0  0  0  0  0  0  0  0
  1  2  1  0
  2  3  1  0
  3  4  1  0
  4  5  1  0
  5  6  1  0
  6  7  1  0
  7  8  1  0
  9  8  1  6
  9 10  1  0
  9 20  1  0
 10 11  1  0
 11 12  2  0
 11 13  1  0
 13 14  1  0
 14 15  1  0
 15 16  1  6
 15 17  1  0
 17 18  2  0
 17 19  1  0
 20 21  2  0
 20 22  1  0
 22 23  1  0
 23 24  1  0
 24 25  2  0
 24 26  1  0
M  CHG  1  16   1
M  END
