
     RDKit          3D

 26 25  0  0  0  0  0  0  0  0999 V2000
    8.0170    1.1840   -2.1180 C   0  0  0  0  0  0  0  0  0  0  0  0
    6.6670    0.1240   -1.4890 S   0  0  0  0  0  0  0  0  0  0  0  0
    6.2530    0.6900    0.1770 C   0  0  0  0  0  0  0  0  0  0  0  0
    5.1270   -0.1870    0.7110 C   0  0  2  0  0  0  0  0  0  0  0  0
    5.6650   -1.5940    0.7170 C   0  0  0  0  0  0  0  0  0  0  0  0
    4.0120   -0.1260   -0.0910 O   0  0  0  0  0  0  0  0  0  0  0  0
    2.8610    0.2910    0.5430 C   0  0  0  0  0  0  0  0  0  0  0  0
    2.3730   -0.5690    1.6530 C   0  0  0  0  0  0  0  0  0  0  0  0
    2.0260   -1.9330    1.1900 C   0  0  0  0  0  0  0  0  0  0  0  0
    1.0290   -2.0530    0.2610 O   0  0  0  0  0  0  0  0  0  0  0  0
   -0.1590   -1.5810    0.7700 C   0  0  2  0  0  0  0  0  0  0  0  0
   -1.1440   -2.7760    0.9490 C   0  0  0  0  0  0  0  0  0  0  0  0
   -0.7930   -0.5860   -0.1230 C   0  0  0  0  0  0  0  0  0  0  0  0
   -0.3590   -0.2220   -1.2350 O   0  0  0  0  0  0  0  0  0  0  0  0
   -2.0180   -0.0120    0.3770 N   0  0  0  0  0  0  0  0  0  0  0  0
   -2.7210    0.9870   -0.4390 C   0  0  2  0  0  0  0  0  0  0  0  0
   -2.7210    2.2680    0.2500 C   0  0  0  0  0  0  0  0  0  0  0  0
   -3.2890    3.4650   -0.2480 N   0  0  0  0  0  0  0  0  0  0  0  0
   -2.1720    2.3700    1.4000 O   0  0  0  0  0  0  0  0  0  0  0  0
   -4.0460    0.4540   -0.8740 C   0  0  2  0  0  0  0  0  0  0  0  0
   -4.9870    0.0890    0.2230 C   0  0  0  0  0  0  0  0  0  0  0  0
   -5.3660    1.1360    1.1100 N   0  0  0  0  0  0  0  0  0  0  0  0
   -3.7220   -0.8840   -1.5850 C   0  0  0  0  0  0  0  0  0  0  0  0
   -4.9520   -1.3860   -1.9930 O   0  0  0  0  0  0  0  0  0  0  0  0
   -4.6640    1.3140   -1.9350 C   0  0  0  0  0  0  0  0  0  0  0  0
   -5.8920    0.7290   -2.2730 O   0  0  0  0  0  0  0  0  0  0  0  0
  1  2  1  0
  2  3  1  0
  3  4  1  0
  4  5  1  6
  4  6  1  0
  6  7  1  0
  7  8  1  0
  8  9  1  0
  9 10  1  0
 10 11  1  0
 11 12  1  6
 11 13  1  0
 13 14  2  0
 13 15  1  0
 16 15  1  1
 16 17  1  0
 16 20  1  0
 17 18  1  0
 17 19  2  0
 20 21  1  1
 20 23  1  0
 20 25  1  0
 21 22  1  0
 23 24  1  0
 25 26  1  0
M  CHG  1  22   1
M  END
