
     RDKit          3D

 26 26  0  0  0  0  0  0  0  0999 V2000
    7.3020    1.0730   -0.2520 C   0  0  0  0  0  0  0  0  0  0  0  0
    6.5770   -0.2190   -0.2420 C   0  0  0  0  0  0  0  0  0  0  0  0
    6.8880   -1.3190    0.4380 C   0  0  0  0  0  0  0  0  0  0  0  0
    5.8930   -2.3170    0.1310 C   0  0  0  0  0  0  0  0  0  0  0  0
    5.8820   -3.4860    0.6070 O   0  0  0  0  0  0  0  0  0  0  0  0
    4.9620   -1.7100   -0.7930 C   0  0  0  0  0  0  0  0  0  0  0  0
    5.3630   -0.4680   -1.0170 C   0  0  0  0  0  0  0  0  0  0  0  0
    4.6920    0.4230   -1.8710 O   0  0  0  0  0  0  0  0  0  0  0  0
    3.4140    0.9560   -1.4890 C   0  0  0  0  0  0  0  0  0  0  0  0
    3.6210    1.7000   -0.2130 C   0  0  0  0  0  0  0  0  0  0  0  0
    2.4830    2.2940    0.3200 O   0  0  0  0  0  0  0  0  0  0  0  0
    1.3600    1.5620    0.6830 C   0  0  0  0  0  0  0  0  0  0  0  0
    1.4050    0.3380    0.5140 O   0  0  0  0  0  0  0  0  0  0  0  0
    0.1960    2.1620    1.2280 N   0  0  0  0  0  0  0  0  0  0  0  0
   -0.9910    1.4310    1.6160 C   0  0  0  0  0  0  0  0  0  0  0  0
   -1.5710    0.7200    0.4390 C   0  0  0  0  0  0  0  0  0  0  0  0
   -2.8180   -0.0230    0.9200 C   0  0  2  0  0  0  0  0  0  0  0  0
   -2.3890   -0.9850    1.9800 C   0  0  0  0  0  0  0  0  0  0  0  0
   -3.4680   -0.6290   -0.2030 N   0  0  0  0  0  0  0  0  0  0  0  0
   -4.8080   -1.0540    0.0600 C   0  0  1  0  0  0  0  0  0  0  0  0
   -5.7870    0.0900    0.1460 C   0  0  0  0  0  0  0  0  0  0  0  0
   -5.8710    1.0430   -1.3490 S   0  0  0  0  0  0  0  0  0  0  0  0
   -4.8530    2.2030   -1.3510 O   0  0  0  0  0  0  0  0  0  0  0  0
   -5.2660   -2.1110   -0.8730 C   0  0  0  0  0  0  0  0  0  0  0  0
   -6.5610   -2.6810   -0.7980 N   0  0  0  0  0  0  0  0  0  0  0  0
   -4.4890   -2.5240   -1.7660 O   0  0  0  0  0  0  0  0  0  0  0  0
  1  2  1  0
  2  3  2  0
  2  7  1  0
  3  4  1  0
  4  5  2  0
  4  6  1  0
  6  7  2  0
  7  8  1  0
  8  9  1  0
  9 10  1  0
 10 11  1  0
 11 12  1  0
 12 13  2  0
 12 14  1  0
 14 15  1  0
 15 16  1  0
 16 17  1  0
 17 18  1  1
 17 19  1  0
 19 20  1  0
 20 21  1  6
 20 24  1  0
 21 22  1  0
 22 23  2  0
 24 25  1  0
 24 26  2  0
M  CHG  1  19   1
M  END
