
     RDKit          3D

 26 25  0  0  0  0  0  0  0  0999 V2000
    6.0330    0.2830   -1.5680 C   0  0  0  0  0  0  0  0  0  0  0  0
    4.8420   -0.3600   -2.2070 C   0  0  1  0  0  0  0  0  0  0  0  0
    5.0940   -1.8290   -2.5300 C   0  0  0  0  0  0  0  0  0  0  0  0
    3.4100   -0.1800   -1.1530 S   0  0  0  0  0  0  0  0  0  0  0  0
    3.5010   -1.0800    0.3940 C   0  0  1  0  0  0  0  0  0  0  0  0
    4.5840   -0.4910    1.2590 C   0  0  0  0  0  0  0  0  0  0  0  0
    2.2080   -0.8450    1.1140 C   0  0  0  0  0  0  0  0  0  0  0  0
    2.1430   -0.3140    2.2490 O   0  0  0  0  0  0  0  0  0  0  0  0
    0.9490   -1.2090    0.5560 N   0  0  0  0  0  0  0  0  0  0  0  0
   -0.2720   -1.0020    1.2000 C   0  0  0  0  0  0  0  0  0  0  0  0
   -0.6590    0.3970    1.5490 C   0  0  1  0  0  0  0  0  0  0  0  0
   -0.7190    1.1570    0.2730 C   0  0  0  0  0  0  0  0  0  0  0  0
   -1.6060    0.6870   -0.8010 C   0  0  0  0  0  0  0  0  0  0  0  0
   -3.0460    0.6830   -0.5420 C   0  0  0  0  0  0  0  0  0  0  0  0
   -3.5500    1.5920    0.1850 O   0  0  0  0  0  0  0  0  0  0  0  0
   -3.9480   -0.2970   -1.0740 N   0  0  0  0  0  0  0  0  0  0  0  0
   -3.5160   -1.3890   -1.9070 C   0  0  0  0  0  0  0  0  0  0  0  0
   -3.5510   -0.9340   -3.3640 C   0  0  0  0  0  0  0  0  0  0  0  0
   -4.8390   -0.5580   -3.7300 O   0  0  0  0  0  0  0  0  0  0  0  0
   -5.3240   -0.1790   -0.7620 C   0  0  0  0  0  0  0  0  0  0  0  0
   -5.6960    0.7780   -0.0350 O   0  0  0  0  0  0  0  0  0  0  0  0
   -6.2070   -1.1180   -1.2680 O   0  0  0  0  0  0  0  0  0  0  0  0
   -1.8430    0.3870    2.4410 C   0  0  1  0  0  0  0  0  0  0  0  0
   -1.4620   -0.3990    3.5920 O   0  0  0  0  0  0  0  0  0  0  0  0
   -2.0710    1.7670    3.0600 C   0  0  0  0  0  0  0  0  0  0  0  0
   -0.8580    2.2340    3.7160 N   0  0  0  0  0  0  0  0  0  0  0  0
  2  1  1  1
  2  3  1  0
  2  4  1  0
  4  5  1  0
  5  6  1  1
  5  7  1  0
  7  8  2  0
  7  9  1  0
  9 10  1  0
 11 10  1  6
 11 12  1  0
 11 23  1  0
 12 13  1  0
 13 14  1  0
 14 15  2  0
 14 16  1  0
 16 17  1  0
 16 20  1  0
 17 18  1  0
 18 19  1  0
 20 21  2  0
 20 22  1  0
 23 24  1  1
 23 25  1  0
 25 26  1  0
M  CHG  1  26   1
M  END
