
     RDKit          3D

 16 16  0  0  0  0  0  0  0  0999 V2000
    5.6130    1.4600   -2.1110 N   0  0  0  0  0  0  0  0  0  0  0  0
    5.4230    1.4910   -0.8380 C   0  0  0  0  0  0  0  0  0  0  0  0
    6.5930    2.1530    0.2570 Cl  0  0  0  0  0  0  0  0  0  0  0  0
    4.2390    0.9740   -0.3430 O   0  0  0  0  0  0  0  0  0  0  0  0
    3.3740    0.3020   -1.2060 C   0  0  0  0  0  0  0  0  0  0  0  0
    2.1540   -0.1570   -0.3970 C   0  0  0  0  0  0  0  0  0  0  0  0
    1.3400   -0.8110   -1.3000 O   0  0  0  0  0  0  0  0  0  0  0  0
    0.2230   -1.3180   -0.6830 C   0  0  0  0  0  0  0  0  0  0  0  0
   -0.5910   -0.2430   -0.0570 C   0  0  0  0  0  0  0  0  0  0  0  0
   -1.8360   -0.8490    0.5810 C   0  0  1  0  0  0  0  0  0  0  0  0
   -1.4700   -1.8110    1.6020 N   0  0  0  0  0  0  0  0  0  0  0  0
   -2.6160    0.2500    1.2690 C   0  0  2  0  0  0  0  0  0  0  0  0
   -3.7330   -0.3250    1.8460 O   0  0  0  0  0  0  0  0  0  0  0  0
   -4.7340   -0.0580    0.9240 C   0  0  0  0  0  0  0  0  0  0  0  0
   -4.4020    1.3800    0.5640 C   0  0  0  0  0  0  0  0  0  0  0  0
   -2.9990    1.2650    0.4310 O   0  0  0  0  0  0  0  0  0  0  0  0
  1  2  2  0
  2  3  1  0
  2  4  1  0
  4  5  1  0
  5  6  1  0
  6  7  1  0
  7  8  1  0
  8  9  1  0
  9 10  1  0
 10 11  1  1
 10 12  1  0
 12 13  1  6
 12 16  1  0
 13 14  1  0
 14 15  1  0
 15 16  1  0
M  CHG  2   1   1  11   1
M  END
