
     RDKit          3D

 26 26  0  0  0  0  0  0  0  0999 V2000
    4.0840   -2.9780   -1.2710 C   0  0  0  0  0  0  0  0  0  0  0  0
    3.6670   -1.9850   -2.1470 O   0  0  0  0  0  0  0  0  0  0  0  0
    2.6350   -1.2140   -1.6710 C   0  0  0  0  0  0  0  0  0  0  0  0
    3.0070   -0.4990   -0.3920 C   0  0  0  0  0  0  0  0  0  0  0  0
    4.0930    0.3360   -0.5830 O   0  0  0  0  0  0  0  0  0  0  0  0
    4.4540    0.9950    0.5610 C   0  0  0  0  0  0  0  0  0  0  0  0
    3.3950    1.9390    1.1000 C   0  0  0  0  0  0  0  0  0  0  0  0
    3.0760    3.2240   -0.0930 S   0  0  0  0  0  0  0  0  0  0  0  0
    2.3350    2.6940   -1.6230 C   0  0  0  0  0  0  0  0  0  0  0  0
    0.9320    2.2380   -1.4760 C   0  0  0  0  0  0  0  0  0  0  0  0
    0.2940    1.7790   -2.4690 O   0  0  0  0  0  0  0  0  0  0  0  0
    0.2750    2.3020   -0.2420 N   0  0  0  0  0  0  0  0  0  0  0  0
   -1.1490    1.8430   -0.0760 C   0  0  1  0  0  0  0  0  0  0  0  0
   -1.0180    0.6200    0.7440 C   0  0  0  0  0  0  0  0  0  0  0  0
   -2.1900   -0.1730    1.1390 C   0  0  1  0  0  0  0  0  0  0  0  0
   -3.1890    0.4340    1.9510 N   0  0  0  0  0  0  0  0  0  0  0  0
   -2.8510   -0.7190   -0.1490 C   0  0  0  0  0  0  0  0  0  0  0  0
   -2.7290   -2.2040   -0.1390 C   0  0  2  0  0  0  0  0  0  0  0  0
   -3.2240   -2.8580   -1.3930 C   0  0  0  0  0  0  0  0  0  0  0  0
   -3.4710   -2.7060    1.0970 C   0  0  0  0  0  0  0  0  0  0  0  0
   -2.6010   -2.3550    2.1880 O   0  0  0  0  0  0  0  0  0  0  0  0
   -1.6530   -1.3570    1.9260 C   0  0  0  0  0  0  0  0  0  0  0  0
   -0.4550   -1.4170    2.3030 O   0  0  0  0  0  0  0  0  0  0  0  0
   -1.8650    2.9890    0.4440 C   0  0  0  0  0  0  0  0  0  0  0  0
   -3.2660    3.0140    0.5910 N   0  0  0  0  0  0  0  0  0  0  0  0
   -1.2570    4.0460    0.7950 O   0  0  0  0  0  0  0  0  0  0  0  0
  1  2  1  0
  2  3  1  0
  3  4  1  0
  4  5  1  0
  5  6  1  0
  6  7  1  0
  7  8  1  0
  8  9  1  0
  9 10  1  0
 10 11  2  0
 10 12  1  0
 12 13  1  0
 13 14  1  1
 13 24  1  0
 14 15  1  0
 15 16  1  1
 15 17  1  0
 15 22  1  0
 17 18  1  0
 18 19  1  6
 18 20  1  0
 20 21  1  0
 21 22  1  0
 22 23  2  0
 24 25  1  0
 24 26  2  0
M  CHG  1  16   1
M  END
