
     RDKit          3D

 26 26  0  0  0  0  0  0  0  0999 V2000
   -4.7660    0.8350   -2.5850 C   0  0  0  0  0  0  0  0  0  0  0  0
   -4.5570   -0.6440   -2.6180 C   0  0  0  0  0  0  0  0  0  0  0  0
   -3.4260   -1.2070   -1.8540 C   0  0  0  0  0  0  0  0  0  0  0  0
   -3.3330   -1.1250   -0.5360 O   0  0  0  0  0  0  0  0  0  0  0  0
   -3.2540   -0.0000    0.1840 C   0  0  1  0  0  0  0  0  0  0  0  0
   -4.4450    0.1750    1.0550 C   0  0  0  0  0  0  0  0  0  0  0  0
   -4.7510   -0.8930    1.9590 N   0  0  0  0  0  0  0  0  0  0  0  0
   -3.9550   -1.3800    3.0160 C   0  0  0  0  0  0  0  0  0  0  0  0
   -2.8400   -0.8610    3.2530 O   0  0  0  0  0  0  0  0  0  0  0  0
   -1.9330    0.2590    0.8430 C   0  0  0  0  0  0  0  0  0  0  0  0
   -1.7360    1.2860    1.5360 O   0  0  0  0  0  0  0  0  0  0  0  0
   -0.8550   -0.6570    0.6910 N   0  0  0  0  0  0  0  0  0  0  0  0
    0.4450   -0.5210    1.2430 C   0  0  1  0  0  0  0  0  0  0  0  0
    0.5730   -0.4960    2.7210 C   0  0  0  0  0  0  0  0  0  0  0  0
    0.1080   -1.6910    3.3700 N   0  0  0  0  0  0  0  0  0  0  0  0
    1.3190   -1.6850    0.7510 C   0  0  0  0  0  0  0  0  0  0  0  0
    2.9600   -0.9920    1.2080 S   0  0  0  0  0  0  0  0  0  0  0  0
    2.4910    0.7820    1.1290 C   0  0  1  0  0  0  0  0  0  0  0  0
    3.3740    1.3840    0.0580 C   0  0  0  0  0  0  0  0  0  0  0  0
    4.1610    2.3200    0.3420 O   0  0  0  0  0  0  0  0  0  0  0  0
    3.3440    0.9390   -1.2260 O   0  0  0  0  0  0  0  0  0  0  0  0
    4.0720    1.3500   -2.3380 C   0  0  0  0  0  0  0  0  0  0  0  0
    5.5570    1.1270   -2.2390 C   0  0  0  0  0  0  0  0  0  0  0  0
    6.0940    1.8060   -1.1850 O   0  0  0  0  0  0  0  0  0  0  0  0
    7.4760    1.5640   -1.1390 C   0  0  0  0  0  0  0  0  0  0  0  0
    1.0770    0.7200    0.6520 C   0  0  0  0  0  0  0  0  0  0  0  0
  1  2  1  0
  2  3  1  0
  3  4  1  0
  4  5  1  0
  5  6  1  1
  5 10  1  0
  6  7  1  0
  7  8  1  0
  8  9  2  0
 10 11  2  0
 10 12  1  0
 12 13  1  0
 13 14  1  1
 13 16  1  0
 13 26  1  0
 14 15  1  0
 16 17  1  0
 17 18  1  0
 18 19  1  6
 18 26  1  0
 19 20  2  0
 19 21  1  0
 21 22  1  0
 22 23  1  0
 23 24  1  0
 24 25  1  0
M  CHG  1  15   1
M  END
