
     RDKit          3D

 26 26  0  0  0  0  0  0  0  0999 V2000
   -5.9100   -0.9460    2.5190 C   0  0  0  0  0  0  0  0  0  0  0  0
   -6.1860   -1.9470    1.4340 C   0  0  0  0  0  0  0  0  0  0  0  0
   -4.7890   -2.6410    0.6590 S   0  0  0  0  0  0  0  0  0  0  0  0
   -3.8130   -1.7630   -0.5120 C   0  0  0  0  0  0  0  0  0  0  0  0
   -3.0700   -0.6210   -0.0360 C   0  0  1  0  0  0  0  0  0  0  0  0
   -2.2280   -1.0490    1.0260 O   0  0  0  0  0  0  0  0  0  0  0  0
   -1.9850   -0.1950   -1.0930 C   0  0  0  0  0  0  0  0  0  0  0  0
   -1.1960    0.7300   -0.1930 C   0  0  2  0  0  0  0  0  0  0  0  0
   -0.5240    1.7960   -0.9870 C   0  0  0  0  0  0  0  0  0  0  0  0
   -0.4210    0.0270    0.7010 O   0  0  0  0  0  0  0  0  0  0  0  0
    0.4890   -0.8330    0.2330 C   0  0  0  0  0  0  0  0  0  0  0  0
    1.7070   -0.3280   -0.4970 C   0  0  0  0  0  0  0  0  0  0  0  0
    2.4100   -1.4610   -0.8730 O   0  0  0  0  0  0  0  0  0  0  0  0
    3.6180   -1.2140   -1.4490 C   0  0  0  0  0  0  0  0  0  0  0  0
    4.5790   -0.6490   -0.4590 C   0  0  0  0  0  0  0  0  0  0  0  0
    5.8760   -0.3860   -1.0380 O   0  0  0  0  0  0  0  0  0  0  0  0
    6.8920    0.0880   -0.2260 C   0  0  0  0  0  0  0  0  0  0  0  0
    6.6060    0.2630    0.9940 O   0  0  0  0  0  0  0  0  0  0  0  0
    8.1930    0.3780   -0.6750 N   0  0  0  0  0  0  0  0  0  0  0  0
    9.2700    0.8430    0.0420 N   0  0  0  0  0  0  0  0  0  0  0  0
    9.0730    0.6320    1.4500 C   0  0  0  0  0  0  0  0  0  0  0  0
   -2.2820    1.4250    0.6490 C   0  0  2  0  0  0  0  0  0  0  0  0
   -2.1250    1.1980    1.9930 O   0  0  0  0  0  0  0  0  0  0  0  0
   -3.6100    0.6930    0.2580 C   0  0  1  0  0  0  0  0  0  0  0  0
   -4.1360    1.5120   -0.9010 C   0  0  0  0  0  0  0  0  0  0  0  0
   -5.2020    0.8860   -1.6310 N   0  0  0  0  0  0  0  0  0  0  0  0
  1  2  1  0
  2  3  1  0
  3  4  1  0
  4  5  1  0
  5  6  1  1
  5  7  1  0
  5 24  1  0
  7  8  1  0
  8  9  1  6
  8 10  1  0
  8 22  1  0
 10 11  1  0
 11 12  1  0
 12 13  1  0
 13 14  1  0
 14 15  1  0
 15 16  1  0
 16 17  1  0
 17 18  2  0
 17 19  1  0
 19 20  1  0
 20 21  1  0
 22 23  1  1
 22 24  1  0
 24 25  1  6
 25 26  1  0
M  CHG  1  26   1
M  END
