
     RDKit          3D

 27 29  0  0  0  0  0  0  0  0999 V2000
   -0.2580    1.1240    0.1990 O   0  0  0  0  0  0  0  0  0  0  0  0
   -0.4900   -0.0380   -0.1560 C   0  0  0  0  0  0  0  0  0  0  0  0
   -1.8120   -0.5970   -0.1890 C   0  0  0  0  0  0  0  0  0  0  0  0
   -2.9530   -0.0430    0.1230 C   0  0  0  0  0  0  0  0  0  0  0  0
   -3.1110    1.2980    0.5820 C   0  0  0  0  0  0  0  0  0  0  0  0
   -2.1080    2.0820    0.7250 O   0  0  0  0  0  0  0  0  0  0  0  0
   -4.3540    1.9880    0.9500 C   0  0  0  0  0  0  0  0  0  0  0  0
   -4.4170    3.1930    1.3530 N   0  0  0  0  0  0  0  0  0  0  0  0
   -3.0670    4.2470    1.5470 Cl  0  0  0  0  0  0  0  0  0  0  0  0
   -5.8640    1.0730    0.8200 S   0  0  0  0  0  0  0  0  0  0  0  0
   -5.3820   -0.5420    0.2340 C   0  0  0  0  0  0  0  0  0  0  0  0
   -4.1640   -0.9180   -0.0280 C   0  0  0  0  0  0  0  0  0  0  0  0
   -4.0160   -2.3410   -0.5090 C   0  0  1  0  0  0  0  0  0  0  0  0
   -3.2460   -3.0720    0.3420 F   0  0  0  0  0  0  0  0  0  0  0  0
   -5.2860   -2.9300   -0.6510 F   0  0  0  0  0  0  0  0  0  0  0  0
   -3.4870   -2.3570   -1.7850 F   0  0  0  0  0  0  0  0  0  0  0  0
    0.6530   -0.8260   -0.5450 N   0  0  0  0  0  0  0  0  0  0  0  0
    1.9890   -0.3960   -0.5560 C   0  0  0  0  0  0  0  0  0  0  0  0
    2.4240    0.8540   -0.1950 C   0  0  0  0  0  0  0  0  0  0  0  0
    3.7820    1.2300   -0.2260 C   0  0  0  0  0  0  0  0  0  0  0  0
    4.3940    2.3430    0.0700 O   0  0  0  0  0  0  0  0  0  0  0  0
    5.6810    2.2370   -0.1120 C   0  0  0  0  0  0  0  0  0  0  0  0
    5.9420    0.9660   -0.5590 C   0  0  0  0  0  0  0  0  0  0  0  0
    4.7230    0.3310   -0.6290 C   0  0  0  0  0  0  0  0  0  0  0  0
    4.3180   -0.9150   -0.9920 C   0  0  0  0  0  0  0  0  0  0  0  0
    3.0020   -1.2790   -0.9610 C   0  0  0  0  0  0  0  0  0  0  0  0
    2.6810   -2.5460   -1.3410 O   0  0  0  0  0  0  0  0  0  0  0  0
  1  2  2  0
  2  3  1  0
  2 17  1  0
  3  4  2  3
  4  5  1  0
  4 12  1  0
  5  6  2  0
  5  7  1  0
  7  8  2  3
  7 10  1  0
  8  9  1  0
 10 11  1  0
 11 12  2  0
 12 13  1  0
 13 14  1  1
 13 15  1  0
 13 16  1  0
 17 18  1  0
 18 19  2  0
 18 26  1  0
 19 20  1  0
 20 21  1  0
 20 24  2  0
 21 22  1  0
 22 23  2  0
 23 24  1  0
 24 25  1  0
 25 26  2  0
 26 27  1  0
M  END
