
     RDKit          3D

 27 29  0  0  0  0  0  0  0  0999 V2000
   -6.2520   -0.5990   -0.6420 C   0  0  0  0  0  0  0  0  0  0  0  0
   -4.9570    0.0050   -0.2470 C   0  0  0  0  0  0  0  0  0  0  0  0
   -4.9370    1.1410    0.5310 C   0  0  0  0  0  0  0  0  0  0  0  0
   -6.1430    1.7040    0.9330 O   0  0  0  0  0  0  0  0  0  0  0  0
   -3.7450    1.7080    0.9030 C   0  0  0  0  0  0  0  0  0  0  0  0
   -2.5780    1.0940    0.4670 C   0  0  0  0  0  0  0  0  0  0  0  0
   -2.5320   -0.0280   -0.3020 C   0  0  0  0  0  0  0  0  0  0  0  0
   -1.3960   -0.7050   -0.7810 N   0  0  0  0  0  0  0  0  0  0  0  0
   -0.0430   -0.3470   -0.5540 C   0  0  0  0  0  0  0  0  0  0  0  0
    0.2370    0.6440    0.1210 O   0  0  0  0  0  0  0  0  0  0  0  0
    1.0460   -1.2010   -1.1540 C   0  0  0  0  0  0  0  0  0  0  0  0
    2.3390   -0.6660   -0.8050 N   0  0  0  0  0  0  0  0  0  0  0  0
    3.0420    0.2930   -1.5760 C   0  0  0  0  0  0  0  0  0  0  0  0
    2.6450    0.8060   -2.6580 O   0  0  0  0  0  0  0  0  0  0  0  0
    4.3460    0.6030   -0.8950 C   0  0  0  0  0  0  0  0  0  0  0  0
    5.3890    1.4530   -1.2150 C   0  0  0  0  0  0  0  0  0  0  0  0
    6.5250    1.2000    0.1320 S   0  0  0  0  0  0  0  0  0  0  0  0
    5.5270   -0.0150    1.0170 C   0  0  0  0  0  0  0  0  0  0  0  0
    5.9060   -0.6620    2.2760 C   0  0  2  0  0  0  0  0  0  0  0  0
    5.0080   -0.4130    3.3000 F   0  0  0  0  0  0  0  0  0  0  0  0
    7.1220   -0.1530    2.6810 F   0  0  0  0  0  0  0  0  0  0  0  0
    6.0950   -2.4010    1.9690 Cl  0  0  0  0  0  0  0  0  0  0  0  0
    4.4150   -0.1190    0.2040 C   0  0  0  0  0  0  0  0  0  0  0  0
    3.1710   -0.9340    0.3000 C   0  0  0  0  0  0  0  0  0  0  0  0
    2.8620   -1.7460    1.2010 O   0  0  0  0  0  0  0  0  0  0  0  0
   -3.7700   -0.5680   -0.6550 C   0  0  0  0  0  0  0  0  0  0  0  0
   -3.8550   -1.6820   -1.4170 F   0  0  0  0  0  0  0  0  0  0  0  0
  1  2  1  0
  2  3  2  0
  2 26  1  0
  3  4  1  0
  3  5  1  0
  5  6  2  0
  6  7  1  0
  7  8  1  0
  7 26  2  0
  8  9  1  0
  9 10  2  0
  9 11  1  0
 11 12  1  0
 12 13  1  0
 12 24  1  0
 13 14  2  0
 13 15  1  0
 15 16  2  0
 15 23  1  0
 16 17  1  0
 17 18  1  0
 18 19  1  0
 18 23  2  0
 19 20  1  1
 19 21  1  0
 19 22  1  0
 23 24  1  0
 24 25  2  0
 26 27  1  0
M  END
