
     RDKit          3D

 26 28  0  0  0  0  0  0  0  0999 V2000
   -0.8490    0.6320   -0.6480 O   0  0  0  0  0  0  0  0  0  0  0  0
   -0.6880   -0.3860    0.0550 C   0  0  0  0  0  0  0  0  0  0  0  0
   -1.7400   -1.2530    0.5150 C   0  0  0  0  0  0  0  0  0  0  0  0
   -3.0110   -1.1970    0.3300 C   0  0  0  0  0  0  0  0  0  0  0  0
   -3.8750   -0.2870   -0.3810 C   0  0  0  0  0  0  0  0  0  0  0  0
   -3.2740    1.1000   -1.2430 Cl  0  0  0  0  0  0  0  0  0  0  0  0
   -5.1730   -0.5450   -0.3580 C   0  0  0  0  0  0  0  0  0  0  0  0
   -5.9650   -1.8960    0.4580 S   0  0  0  0  0  0  0  0  0  0  0  0
   -7.6490   -1.4680   -0.0250 C   0  0  0  0  0  0  0  0  0  0  0  0
   -8.6890   -2.1080    0.2840 O   0  0  0  0  0  0  0  0  0  0  0  0
   -7.5150   -0.2930   -0.7990 N   0  0  0  0  0  0  0  0  0  0  0  0
   -6.2280    0.1960   -0.9780 C   0  0  0  0  0  0  0  0  0  0  0  0
   -5.9810    1.2550   -1.6610 O   0  0  0  0  0  0  0  0  0  0  0  0
    0.6820   -0.6810    0.4110 N   0  0  0  0  0  0  0  0  0  0  0  0
    1.8120    0.0650    0.0350 C   0  0  0  0  0  0  0  0  0  0  0  0
    1.8810    1.0500   -0.9040 C   0  0  0  0  0  0  0  0  0  0  0  0
    3.0690    1.7350   -1.1780 C   0  0  0  0  0  0  0  0  0  0  0  0
    4.2310    1.4430   -0.5080 C   0  0  0  0  0  0  0  0  0  0  0  0
    4.1770    0.4480    0.4450 C   0  0  0  0  0  0  0  0  0  0  0  0
    3.0030   -0.2170    0.7040 C   0  0  0  0  0  0  0  0  0  0  0  0
    5.5320    0.3580    0.9810 C   0  0  0  0  0  0  0  0  0  0  0  0
    5.9400   -0.4810    1.9340 C   0  0  0  0  0  0  0  0  0  0  0  0
    5.0520   -1.3460    2.4840 F   0  0  0  0  0  0  0  0  0  0  0  0
    7.1970   -0.5110    2.3800 F   0  0  0  0  0  0  0  0  0  0  0  0
    6.3390    1.2790    0.3510 O   0  0  0  0  0  0  0  0  0  0  0  0
    5.6050    2.0010   -0.5970 C   0  0  0  0  0  0  0  0  0  0  0  0
  1  2  2  0
  2  3  1  0
  2 14  1  0
  3  4  2  3
  4  5  1  0
  5  6  1  0
  5  7  2  3
  7  8  1  0
  7 12  1  0
  8  9  1  0
  9 10  2  0
  9 11  1  0
 11 12  1  0
 12 13  2  0
 14 15  1  0
 15 16  2  0
 15 20  1  0
 16 17  1  0
 17 18  2  0
 18 19  1  0
 18 26  1  0
 19 20  2  0
 19 21  1  0
 21 22  2  3
 21 25  1  0
 22 23  1  0
 22 24  1  0
 25 26  1  0
M  END
