
     RDKit          3D

 27 28  0  0  0  0  0  0  0  0999 V2000
   -5.1770    2.1690    0.0820 C   0  0  0  0  0  0  0  0  0  0  0  0
   -3.9170    1.4450   -0.0720 C   0  0  0  0  0  0  0  0  0  0  0  0
   -3.9250    0.0650    0.5550 C   0  0  0  0  0  0  0  0  0  0  0  0
   -4.5210    0.2620    1.8410 F   0  0  0  0  0  0  0  0  0  0  0  0
   -2.7650    1.9710   -0.5650 C   0  0  0  0  0  0  0  0  0  0  0  0
   -1.7450    0.9960   -0.6050 N   0  0  0  0  0  0  0  0  0  0  0  0
   -0.4130    0.9920   -0.9720 C   0  0  0  0  0  0  0  0  0  0  0  0
    0.1170    2.0070   -1.3640 O   0  0  0  0  0  0  0  0  0  0  0  0
    0.4450   -0.2110   -0.9210 C   0  0  0  0  0  0  0  0  0  0  0  0
   -0.0730   -1.2770   -0.5250 O   0  0  0  0  0  0  0  0  0  0  0  0
    1.8180   -0.1740   -1.3050 N   0  0  0  0  0  0  0  0  0  0  0  0
    2.5580   -1.3630   -1.2280 C   0  0  0  0  0  0  0  0  0  0  0  0
    2.9380   -1.8750    0.1390 C   0  0  0  0  0  0  0  0  0  0  0  0
    3.5480   -3.1340    0.1250 C   0  0  0  0  0  0  0  0  0  0  0  0
    3.8440   -4.0410   -1.0010 C   0  0  0  0  0  0  0  0  0  0  0  0
    3.9070   -3.4310    1.7830 S   0  0  0  0  0  0  0  0  0  0  0  0
    3.2610   -1.9240    2.4440 C   0  0  0  0  0  0  0  0  0  0  0  0
    2.8130   -1.2880    1.3560 C   0  0  0  0  0  0  0  0  0  0  0  0
    2.3390    0.0170    1.9000 C   0  0  0  0  0  0  0  0  0  0  0  0
    1.8330    1.0120    1.3640 O   0  0  0  0  0  0  0  0  0  0  0  0
    2.5540    0.0240    3.2920 O   0  0  0  0  0  0  0  0  0  0  0  0
    3.0620   -1.1820    3.7230 C   0  0  0  0  0  0  0  0  0  0  0  0
   -2.7450    3.3500   -0.9160 C   0  0  0  0  0  0  0  0  0  0  0  0
   -4.2830    4.2830   -0.5320 Cl  0  0  0  0  0  0  0  0  0  0  0  0
   -1.8950    4.1730   -1.4170 C   0  0  0  0  0  0  0  0  0  0  0  0
   -0.6500    4.1140   -1.8360 F   0  0  0  0  0  0  0  0  0  0  0  0
   -2.3820    5.5230   -1.5910 F   0  0  0  0  0  0  0  0  0  0  0  0
  1  2  1  0
  2  3  1  0
  2  5  2  3
  3  4  1  0
  5  6  1  0
  5 23  1  0
  6  7  1  0
  7  8  2  0
  7  9  1  0
  9 10  2  0
  9 11  1  0
 11 12  1  0
 12 13  1  0
 13 14  2  0
 13 18  1  0
 14 15  1  0
 14 16  1  0
 16 17  1  0
 17 18  2  0
 17 22  1  0
 18 19  1  0
 19 20  2  0
 19 21  1  0
 21 22  1  0
 23 24  1  0
 23 25  2  3
 25 26  1  0
 25 27  1  0
M  END
