
     RDKit          3D

 27 29  0  0  0  0  0  0  0  0999 V2000
    6.5770   -3.1430    0.7590 O   0  0  0  0  0  0  0  0  0  0  0  0
    6.9760   -1.9540    0.8010 C   0  0  0  0  0  0  0  0  0  0  0  0
    6.0580   -0.8860    0.6460 N   0  0  0  0  0  0  0  0  0  0  0  0
    4.6710   -1.0830    0.4480 C   0  0  0  0  0  0  0  0  0  0  0  0
    4.2040   -2.2400    0.4130 O   0  0  0  0  0  0  0  0  0  0  0  0
    3.7830    0.0820    0.2850 C   0  0  0  0  0  0  0  0  0  0  0  0
    2.4220   -0.0990    0.1300 C   0  0  0  0  0  0  0  0  0  0  0  0
    1.6030    0.9970   -0.0420 C   0  0  0  0  0  0  0  0  0  0  0  0
    0.1400    0.7860   -0.1910 C   0  0  0  0  0  0  0  0  0  0  0  0
   -0.5480    1.3830   -1.1470 C   0  0  0  0  0  0  0  0  0  0  0  0
    0.3210    2.4500   -2.2630 Cl  0  0  0  0  0  0  0  0  0  0  0  0
   -1.9180    1.2070   -1.3100 O   0  0  0  0  0  0  0  0  0  0  0  0
   -2.6290    0.3780   -0.4540 C   0  0  0  0  0  0  0  0  0  0  0  0
   -3.9980    0.1900   -0.6060 C   0  0  0  0  0  0  0  0  0  0  0  0
   -4.6330   -0.6400    0.2710 C   0  0  0  0  0  0  0  0  0  0  0  0
   -6.4030   -0.9590    0.1090 S   0  0  0  0  0  0  0  0  0  0  0  0
   -7.0030   -0.0600   -1.3290 C   0  0  2  0  0  0  0  0  0  0  0  0
   -6.9220    1.2900   -1.1000 F   0  0  0  0  0  0  0  0  0  0  0  0
   -8.2710   -0.4580   -1.7020 F   0  0  0  0  0  0  0  0  0  0  0  0
   -6.2010   -0.3600   -2.4410 F   0  0  0  0  0  0  0  0  0  0  0  0
   -3.9590   -1.2880    1.2910 C   0  0  0  0  0  0  0  0  0  0  0  0
   -2.5980   -1.0920    1.4290 C   0  0  0  0  0  0  0  0  0  0  0  0
   -1.9320   -0.2530    0.5480 C   0  0  0  0  0  0  0  0  0  0  0  0
   -0.5440   -0.0480    0.6790 O   0  0  0  0  0  0  0  0  0  0  0  0
    2.1570    2.2570   -0.0550 C   0  0  0  0  0  0  0  0  0  0  0  0
    3.5210    2.3920    0.1040 C   0  0  0  0  0  0  0  0  0  0  0  0
    4.2940    1.3240    0.2680 N   0  0  0  0  0  0  0  0  0  0  0  0
  1  2  2  0
  2  3  1  0
  3  4  1  0
  4  5  2  0
  4  6  1  0
  6  7  2  0
  6 27  1  0
  7  8  1  0
  8  9  1  0
  8 25  2  0
  9 10  2  0
  9 24  1  0
 10 11  1  0
 10 12  1  0
 12 13  1  0
 13 14  2  0
 13 23  1  0
 14 15  1  0
 15 16  1  0
 15 21  2  0
 16 17  1  0
 17 18  1  1
 17 19  1  0
 17 20  1  0
 21 22  1  0
 22 23  2  0
 23 24  1  0
 25 26  1  0
 26 27  2  0
M  END
