
     RDKit          3D

 20 20  0  0  0  0  0  0  0  0999 V2000
   -6.0940   -1.9850    1.0450 C   0  0  0  0  0  0  0  0  0  0  0  0
   -4.9670   -1.0360    0.6600 C   0  0  0  0  0  0  0  0  0  0  0  0
   -3.7300   -1.5000    1.4110 C   0  0  0  0  0  0  0  0  0  0  0  0
   -2.5410   -0.6280    1.1060 C   0  0  0  0  0  0  0  0  0  0  0  0
   -2.1670   -0.6080   -0.3430 C   0  0  0  0  0  0  0  0  0  0  0  0
   -0.9890    0.2840   -0.4960 C   0  0  0  0  0  0  0  0  0  0  0  0
   -1.2090    1.6280   -0.7420 C   0  0  0  0  0  0  0  0  0  0  0  0
   -0.1660    2.5120   -0.8950 C   0  0  0  0  0  0  0  0  0  0  0  0
   -0.4410    3.9170   -1.1520 C   0  0  0  0  0  0  0  0  0  0  0  0
   -1.9350    4.1450   -1.2040 C   0  0  0  0  0  0  0  0  0  0  0  0
    1.1260    2.0180   -0.7960 C   0  0  0  0  0  0  0  0  0  0  0  0
    2.2350    2.9650   -0.9590 C   0  0  0  0  0  0  0  0  0  0  0  0
    1.3770    0.6840   -0.5520 C   0  0  0  0  0  0  0  0  0  0  0  0
    2.6830    0.2330   -0.4600 O   0  0  0  0  0  0  0  0  0  0  0  0
    3.0500   -1.0890   -0.2170 C   0  0  0  0  0  0  0  0  0  0  0  0
    4.5680   -1.1820   -0.1890 C   0  0  0  0  0  0  0  0  0  0  0  0
    5.0030   -2.6280    0.0770 C   0  0  2  0  0  0  0  0  0  0  0  0
    4.4910   -3.1400    1.3850 C   0  0  0  0  0  0  0  0  0  0  0  0
    6.3960   -2.6210    0.0660 O   0  0  0  0  0  0  0  0  0  0  0  0
    0.3070   -0.1720   -0.4040 C   0  0  0  0  0  0  0  0  0  0  0  0
  1  2  1  0
  2  3  1  0
  3  4  1  0
  4  5  1  0
  5  6  1  0
  6  7  2  0
  6 20  1  0
  7  8  1  0
  8  9  1  0
  8 11  2  0
  9 10  1  0
 11 12  1  0
 11 13  1  0
 13 14  1  0
 13 20  2  0
 14 15  1  0
 15 16  1  0
 16 17  1  0
 17 18  1  1
 17 19  1  0
M  END
