
     RDKit          3D

 20 20  0  0  0  0  0  0  0  0999 V2000
   -2.4940    3.3730   -0.8780 C   0  0  0  0  0  0  0  0  0  0  0  0
   -1.1780    2.7470   -1.2560 C   0  0  0  0  0  0  0  0  0  0  0  0
   -0.8660    1.6260   -0.2880 C   0  0  2  0  0  0  0  0  0  0  0  0
   -0.7760    2.1650    1.1150 C   0  0  0  0  0  0  0  0  0  0  0  0
    0.4040    0.8970   -0.6740 C   0  0  0  0  0  0  0  0  0  0  0  0
    1.5980    1.7790   -0.6990 C   0  0  0  0  0  0  0  0  0  0  0  0
    2.7320    1.0930   -1.0570 O   0  0  0  0  0  0  0  0  0  0  0  0
    3.1160    0.0750   -0.2160 C   0  0  1  0  0  0  0  0  0  0  0  0
    3.0390   -1.2360   -0.9800 C   0  0  0  0  0  0  0  0  0  0  0  0
    3.3940   -2.3290    0.0140 C   0  0  0  0  0  0  0  0  0  0  0  0
    4.8530   -2.1640    0.3450 C   0  0  0  0  0  0  0  0  0  0  0  0
    5.1840   -0.8080    0.9050 C   0  0  0  0  0  0  0  0  0  0  0  0
    4.5540    0.3220    0.1700 C   0  0  0  0  0  0  0  0  0  0  0  0
   -2.0170    0.6530   -0.3810 C   0  0  0  0  0  0  0  0  0  0  0  0
   -1.9040   -0.5370    0.5030 C   0  0  1  0  0  0  0  0  0  0  0  0
   -1.8270   -0.2590    1.8490 O   0  0  0  0  0  0  0  0  0  0  0  0
   -3.1140   -1.4100    0.2790 C   0  0  2  0  0  0  0  0  0  0  0  0
   -2.9830   -2.6160    1.1860 C   0  0  0  0  0  0  0  0  0  0  0  0
   -3.1780   -1.9340   -1.1400 C   0  0  0  0  0  0  0  0  0  0  0  0
   -4.4110   -0.7420    0.5840 C   0  0  0  0  0  0  0  0  0  0  0  0
  1  2  1  0
  2  3  1  0
  3  4  1  1
  3  5  1  0
  3 14  1  0
  5  6  1  0
  6  7  1  0
  8  7  1  6
  8  9  1  0
  8 13  1  0
  9 10  1  0
 10 11  1  0
 11 12  1  0
 12 13  1  0
 14 15  1  0
 15 16  1  1
 15 17  1  0
 17 18  1  1
 17 19  1  0
 17 20  1  0
M  END
