
     RDKit          3D

 20 20  0  0  0  0  0  0  0  0999 V2000
    5.2360   -0.9750    1.0670 C   0  0  0  0  0  0  0  0  0  0  0  0
    4.2690   -0.1590    0.6130 C   0  0  0  0  0  0  0  0  0  0  0  0
    4.5930    0.8560   -0.4000 C   0  0  0  0  0  0  0  0  0  0  0  0
    2.8650   -0.2900    1.1450 C   0  0  0  0  0  0  0  0  0  0  0  0
    2.0520   -0.5810    0.0640 O   0  0  0  0  0  0  0  0  0  0  0  0
    0.7270   -0.8110   -0.0330 C   0  0  0  0  0  0  0  0  0  0  0  0
    0.2780   -2.1330    0.0940 C   0  0  0  0  0  0  0  0  0  0  0  0
    1.2680   -3.2130    0.3100 C   0  0  0  0  0  0  0  0  0  0  0  0
    0.5370   -4.4210    0.4060 O   0  0  0  0  0  0  0  0  0  0  0  0
   -1.0840   -2.4330    0.0010 C   0  0  0  0  0  0  0  0  0  0  0  0
   -2.0290   -1.4580   -0.2160 C   0  0  0  0  0  0  0  0  0  0  0  0
   -3.4340   -1.8430   -0.3070 C   0  0  2  0  0  0  0  0  0  0  0  0
   -3.8160   -1.7740   -1.7790 C   0  0  0  0  0  0  0  0  0  0  0  0
   -4.3780   -1.0420    0.5500 C   0  0  0  0  0  0  0  0  0  0  0  0
   -1.5720   -0.1630   -0.3380 C   0  0  0  0  0  0  0  0  0  0  0  0
   -0.2220    0.1590   -0.2490 C   0  0  0  0  0  0  0  0  0  0  0  0
    0.2380    1.5730   -0.3670 C   0  0  0  0  0  0  0  0  0  0  0  0
   -0.8720    2.5320    0.0060 C   0  0  0  0  0  0  0  0  0  0  0  0
   -0.2980    3.9490   -0.1370 C   0  0  0  0  0  0  0  0  0  0  0  0
   -1.3650    4.9740    0.1990 C   0  0  0  0  0  0  0  0  0  0  0  0
  1  2  2  0
  2  3  1  0
  2  4  1  0
  4  5  1  0
  5  6  1  0
  6  7  2  0
  6 16  1  0
  7  8  1  0
  7 10  1  0
  8  9  1  0
 10 11  2  0
 11 12  1  0
 11 15  1  0
 12 13  1  6
 12 14  1  0
 15 16  2  0
 16 17  1  0
 17 18  1  0
 18 19  1  0
 19 20  1  0
M  END
