
     RDKit          3D

 20 20  0  0  0  0  0  0  0  0999 V2000
    6.0530   -1.7510    0.3310 C   0  0  0  0  0  0  0  0  0  0  0  0
    5.1320   -0.9980   -0.6020 C   0  0  0  0  0  0  0  0  0  0  0  0
    3.7980   -1.2380   -0.3180 O   0  0  0  0  0  0  0  0  0  0  0  0
    3.4470   -0.8600    0.9690 C   0  0  0  0  0  0  0  0  0  0  0  0
    3.6690    0.6060    1.2230 C   0  0  0  0  0  0  0  0  0  0  0  0
    2.8770    1.4810    0.2880 C   0  0  0  0  0  0  0  0  0  0  0  0
    1.4240    1.2440    0.4240 C   0  0  0  0  0  0  0  0  0  0  0  0
    0.5690    2.0990   -0.4760 C   0  0  2  0  0  0  0  0  0  0  0  0
    0.7460    3.5710   -0.2330 C   0  0  0  0  0  0  0  0  0  0  0  0
   -0.8780    1.7500   -0.1970 C   0  0  0  0  0  0  0  0  0  0  0  0
   -1.1340    0.3740   -0.4600 O   0  0  0  0  0  0  0  0  0  0  0  0
   -2.4250   -0.0870   -0.2460 C   0  0  0  0  0  0  0  0  0  0  0  0
   -3.4480    0.7260    0.2030 C   0  0  0  0  0  0  0  0  0  0  0  0
   -4.7270    0.2760    0.4160 C   0  0  0  0  0  0  0  0  0  0  0  0
   -5.7920    1.2220    0.9070 C   0  0  0  0  0  0  0  0  0  0  0  0
   -4.9980   -1.0530    0.1690 C   0  0  0  0  0  0  0  0  0  0  0  0
   -3.9890   -1.9050   -0.2860 C   0  0  0  0  0  0  0  0  0  0  0  0
   -4.2940   -3.3320   -0.5490 C   0  0  0  0  0  0  0  0  0  0  0  0
   -2.7100   -1.4100   -0.4890 C   0  0  0  0  0  0  0  0  0  0  0  0
   -1.6690   -2.3390   -0.9700 C   0  0  0  0  0  0  0  0  0  0  0  0
  1  2  1  0
  2  3  1  0
  3  4  1  0
  4  5  1  0
  5  6  1  0
  6  7  1  0
  7  8  1  0
  8  9  1  1
  8 10  1  0
 10 11  1  0
 11 12  1  0
 12 13  2  0
 12 19  1  0
 13 14  1  0
 14 15  1  0
 14 16  2  0
 16 17  1  0
 17 18  1  0
 17 19  2  0
 19 20  1  0
M  END
