
     RDKit          3D

 20 20  0  0  0  0  0  0  0  0999 V2000
    6.4650    0.8970   -0.8020 C   0  0  0  0  0  0  0  0  0  0  0  0
    5.0100    0.4620   -0.6360 C   0  0  0  0  0  0  0  0  0  0  0  0
    4.4000    1.3890    0.3730 C   0  0  0  0  0  0  0  0  0  0  0  0
    3.0770    1.1020    0.5750 O   0  0  0  0  0  0  0  0  0  0  0  0
    2.8960   -0.1750    1.0410 C   0  0  0  0  0  0  0  0  0  0  0  0
    1.3690   -0.3150    1.2740 C   0  0  0  0  0  0  0  0  0  0  0  0
    0.7730   -0.0990    0.0520 O   0  0  0  0  0  0  0  0  0  0  0  0
   -0.5340   -0.1060   -0.3280 C   0  0  0  0  0  0  0  0  0  0  0  0
   -1.1410   -1.2090   -0.8510 C   0  0  0  0  0  0  0  0  0  0  0  0
   -0.5170   -2.5130   -1.0940 C   0  0  0  0  0  0  0  0  0  0  0  0
   -0.3920   -3.4400    0.0510 C   0  0  0  0  0  0  0  0  0  0  0  0
   -1.7390   -3.7910    0.6730 C   0  0  0  0  0  0  0  0  0  0  0  0
   -2.4950   -1.0690   -1.1980 C   0  0  0  0  0  0  0  0  0  0  0  0
   -3.2080    0.0770   -1.0420 C   0  0  0  0  0  0  0  0  0  0  0  0
   -4.6500    0.2060   -1.4180 C   0  0  0  0  0  0  0  0  0  0  0  0
   -2.5390    1.1680   -0.5050 C   0  0  0  0  0  0  0  0  0  0  0  0
   -3.3170    2.4470   -0.3210 C   0  0  0  0  0  0  0  0  0  0  0  0
   -4.2240    2.3400    0.8780 C   0  0  0  0  0  0  0  0  0  0  0  0
   -1.2180    1.0990   -0.1460 C   0  0  0  0  0  0  0  0  0  0  0  0
   -0.5390    2.3060    0.4210 C   0  0  0  0  0  0  0  0  0  0  0  0
  1  2  1  0
  2  3  1  0
  3  4  1  0
  4  5  1  0
  5  6  1  0
  6  7  1  0
  7  8  1  0
  8  9  2  0
  8 19  1  0
  9 10  1  0
  9 13  1  0
 10 11  1  0
 11 12  1  0
 13 14  2  0
 14 15  1  0
 14 16  1  0
 16 17  1  0
 16 19  2  0
 17 18  1  0
 19 20  1  0
M  END
