
     RDKit          3D

 20 20  0  0  0  0  0  0  0  0999 V2000
    1.3880   -2.5360    2.9940 C   0  0  0  0  0  0  0  0  0  0  0  0
    2.5690   -1.6280    2.7630 C   0  0  0  0  0  0  0  0  0  0  0  0
    2.2280   -0.6150    1.6120 C   0  0  2  0  0  0  0  0  0  0  0  0
    3.4450    0.2490    1.4420 C   0  0  0  0  0  0  0  0  0  0  0  0
    3.3820    1.2800    0.3690 C   0  0  0  0  0  0  0  0  0  0  0  0
    3.2930    0.7880   -1.0280 C   0  0  0  0  0  0  0  0  0  0  0  0
    3.2260    1.9970   -1.9620 C   0  0  0  0  0  0  0  0  0  0  0  0
    2.0950    2.7330   -1.6280 O   0  0  0  0  0  0  0  0  0  0  0  0
    1.0960    0.0350    1.9290 O   0  0  0  0  0  0  0  0  0  0  0  0
   -0.1000   -0.1690    1.3960 C   0  0  0  0  0  0  0  0  0  0  0  0
   -0.0980   -0.0000   -0.1010 C   0  0  0  0  0  0  0  0  0  0  0  0
   -1.4610   -0.1860   -0.6750 C   0  0  0  0  0  0  0  0  0  0  0  0
   -1.7950   -1.3680   -1.3080 C   0  0  0  0  0  0  0  0  0  0  0  0
   -3.0500   -1.5600   -1.8360 C   0  0  0  0  0  0  0  0  0  0  0  0
   -3.3850   -2.8530   -2.5180 C   0  0  0  0  0  0  0  0  0  0  0  0
   -3.9640   -0.5430   -1.7170 C   0  0  0  0  0  0  0  0  0  0  0  0
   -3.6710    0.6360   -1.1000 C   0  0  0  0  0  0  0  0  0  0  0  0
   -4.6870    1.7120   -0.9900 C   0  0  0  0  0  0  0  0  0  0  0  0
   -2.3990    0.8120   -0.5720 C   0  0  0  0  0  0  0  0  0  0  0  0
   -2.1430    2.1120    0.0810 C   0  0  0  0  0  0  0  0  0  0  0  0
  1  2  1  0
  3  2  1  1
  3  4  1  0
  3  9  1  0
  4  5  1  0
  5  6  1  0
  6  7  1  0
  7  8  1  0
  9 10  1  0
 10 11  1  0
 11 12  1  0
 12 13  2  0
 12 19  1  0
 13 14  1  0
 14 15  1  0
 14 16  2  0
 16 17  1  0
 17 18  1  0
 17 19  2  0
 19 20  1  0
M  END
