
     RDKit          3D

 20 19  0  0  0  0  0  0  0  0999 V2000
    5.3020    1.2280    1.4700 C   0  0  0  0  0  0  0  0  0  0  0  0
    4.5470    0.0340    1.2590 O   0  0  0  0  0  0  0  0  0  0  0  0
    3.6950   -0.1170    0.1780 C   0  0  0  0  0  0  0  0  0  0  0  0
    3.6060    0.8440   -0.6230 O   0  0  0  0  0  0  0  0  0  0  0  0
    2.8960   -1.3620   -0.0570 C   0  0  0  0  0  0  0  0  0  0  0  0
    2.1260   -1.3210   -1.1550 O   0  0  0  0  0  0  0  0  0  0  0  0
    1.1270   -0.4680   -1.3420 C   0  0  0  0  0  0  0  0  0  0  0  0
   -0.0880   -0.5720   -0.4100 C   0  0  1  0  0  0  0  0  0  0  0  0
    0.2450   -0.2960    1.0310 C   0  0  0  0  0  0  0  0  0  0  0  0
   -0.9500    0.4170   -0.9080 O   0  0  0  0  0  0  0  0  0  0  0  0
   -2.1430    0.5540   -0.2880 C   0  0  1  0  0  0  0  0  0  0  0  0
   -2.3770    1.9770    0.0930 C   0  0  0  0  0  0  0  0  0  0  0  0
   -3.5450    2.4230    0.7580 N   0  0  0  0  0  0  0  0  0  0  0  0
   -1.4900    2.8090   -0.1930 O   0  0  0  0  0  0  0  0  0  0  0  0
   -3.2410    0.2470   -1.2790 C   0  0  0  0  0  0  0  0  0  0  0  0
   -4.5910    0.3260   -0.8500 N   0  0  0  0  0  0  0  0  0  0  0  0
   -2.9360   -0.0690   -2.4490 O   0  0  0  0  0  0  0  0  0  0  0  0
   -0.6690   -1.9360   -0.4960 C   0  0  0  0  0  0  0  0  0  0  0  0
   -1.7730   -2.3710    0.2740 N   0  0  0  0  0  0  0  0  0  0  0  0
   -0.0140   -3.0180   -1.5330 S   0  0  0  0  0  0  0  0  0  0  0  0
  1  2  1  0
  2  3  1  0
  3  4  2  0
  3  5  1  0
  5  6  1  0
  6  7  1  0
  7  8  1  0
  8  9  1  1
  8 10  1  0
  8 18  1  0
 11 10  1  6
 11 12  1  0
 11 15  1  0
 12 13  1  0
 12 14  2  0
 15 16  1  0
 15 17  2  0
 18 19  1  0
 18 20  2  0
M  END
