
     RDKit          3D

 20 19  0  0  0  0  0  0  0  0999 V2000
    3.3150    0.1970    2.4140 C   0  0  0  0  0  0  0  0  0  0  0  0
    3.4680    0.7120    1.0220 C   0  0  1  0  0  0  0  0  0  0  0  0
    4.4960   -0.0550    0.2330 C   0  0  0  0  0  0  0  0  0  0  0  0
    4.6860    0.5310   -1.0050 O   0  0  0  0  0  0  0  0  0  0  0  0
    2.1850    0.7600    0.3690 N   0  0  0  0  0  0  0  0  0  0  0  0
    1.5700    1.9390   -0.0740 C   0  0  0  0  0  0  0  0  0  0  0  0
    2.1490    3.0320    0.0950 O   0  0  0  0  0  0  0  0  0  0  0  0
    0.2510    1.9210   -0.7380 C   0  0  0  0  0  0  0  0  0  0  0  0
   -0.2510    0.6280   -0.8460 O   0  0  0  0  0  0  0  0  0  0  0  0
   -1.4740    0.6750   -1.4680 C   0  0  2  0  0  0  0  0  0  0  0  0
   -2.4900    0.0750   -0.5710 C   0  0  0  0  0  0  0  0  0  0  0  0
   -3.7030   -0.0190   -0.8760 O   0  0  0  0  0  0  0  0  0  0  0  0
   -2.0870   -0.4030    0.6580 O   0  0  0  0  0  0  0  0  0  0  0  0
   -2.9560   -0.9910    1.5910 C   0  0  0  0  0  0  0  0  0  0  0  0
   -3.6150   -2.1930    1.0380 C   0  0  0  0  0  0  0  0  0  0  0  0
   -4.5220   -2.9060    1.8460 N   0  0  0  0  0  0  0  0  0  0  0  0
   -3.3790   -2.5830   -0.1310 O   0  0  0  0  0  0  0  0  0  0  0  0
   -1.5010   -0.1580   -2.7110 C   0  0  0  0  0  0  0  0  0  0  0  0
   -2.6930   -0.2020   -3.4490 N   0  0  0  0  0  0  0  0  0  0  0  0
   -0.2000   -0.9890   -3.1980 S   0  0  0  0  0  0  0  0  0  0  0  0
  2  1  1  1
  2  3  1  0
  2  5  1  0
  3  4  1  0
  5  6  1  0
  6  7  2  0
  6  8  1  0
  8  9  1  0
 10  9  1  1
 10 11  1  0
 10 18  1  0
 11 12  2  0
 11 13  1  0
 13 14  1  0
 14 15  1  0
 15 16  1  0
 15 17  2  0
 18 19  1  0
 18 20  2  0
M  END
