
     RDKit          3D

 20 19  0  0  0  0  0  0  0  0999 V2000
   -1.6400    2.9870   -0.6720 C   0  0  0  0  0  0  0  0  0  0  0  0
   -1.5850    2.2250    0.4330 O   0  0  0  0  0  0  0  0  0  0  0  0
   -0.6240    1.3210    0.6490 C   0  0  0  0  0  0  0  0  0  0  0  0
   -0.4370    0.1360   -0.2050 C   0  0  2  0  0  0  0  0  0  0  0  0
   -1.6380   -0.7970   -0.2040 C   0  0  0  0  0  0  0  0  0  0  0  0
   -1.9890   -1.4190    1.4590 S   0  0  0  0  0  0  0  0  0  0  0  0
   -3.4160   -2.5170    1.4070 C   0  0  0  0  0  0  0  0  0  0  0  0
   -4.6640   -1.8110    1.0540 C   0  0  0  0  0  0  0  0  0  0  0  0
   -5.6940   -2.4490    0.9870 O   0  0  0  0  0  0  0  0  0  0  0  0
    0.6870   -0.6290    0.3650 N   0  0  0  0  0  0  0  0  0  0  0  0
    1.9870   -0.1480    0.5080 C   0  0  0  0  0  0  0  0  0  0  0  0
    2.3170    0.9890    0.1580 O   0  0  0  0  0  0  0  0  0  0  0  0
    3.0220   -0.9230    1.0630 O   0  0  0  0  0  0  0  0  0  0  0  0
    4.3340   -0.4080    1.1950 C   0  0  0  0  0  0  0  0  0  0  0  0
    4.9160   -0.0270   -0.1060 C   0  0  0  0  0  0  0  0  0  0  0  0
    4.2360   -0.1620   -1.3330 N   0  0  0  0  0  0  0  0  0  0  0  0
    6.0970    0.4440   -0.0780 O   0  0  0  0  0  0  0  0  0  0  0  0
   -0.1120    0.3930   -1.6120 C   0  0  0  0  0  0  0  0  0  0  0  0
   -1.0690    0.3000   -2.6890 N   0  0  0  0  0  0  0  0  0  0  0  0
    1.0550    0.7200   -2.0240 O   0  0  0  0  0  0  0  0  0  0  0  0
  1  2  1  0
  2  3  1  0
  4  3  1  1
  4  5  1  0
  4 10  1  0
  4 18  1  0
  5  6  1  0
  6  7  1  0
  7  8  1  0
  8  9  2  0
 10 11  1  0
 11 12  2  0
 11 13  1  0
 13 14  1  0
 14 15  1  0
 15 16  1  0
 15 17  2  0
 18 19  1  0
 18 20  2  0
M  END
