
     RDKit          3D

 20 19  0  0  0  0  0  0  0  0999 V2000
    5.6020   -0.8500    0.2710 C   0  0  0  0  0  0  0  0  0  0  0  0
    4.5610    0.2460    0.4480 C   0  0  1  0  0  0  0  0  0  0  0  0
    5.2660    1.3520    1.1740 C   0  0  0  0  0  0  0  0  0  0  0  0
    6.3980    1.1140    2.0110 S   0  0  0  0  0  0  0  0  0  0  0  0
    4.0650    0.6750   -0.7500 O   0  0  0  0  0  0  0  0  0  0  0  0
    2.7120    0.5860   -0.9330 C   0  0  0  0  0  0  0  0  0  0  0  0
    2.1670   -0.8230   -0.8660 C   0  0  0  0  0  0  0  0  0  0  0  0
    0.7470   -0.8730   -1.0640 N   0  0  0  0  0  0  0  0  0  0  0  0
   -0.1690   -0.2090   -0.2060 C   0  0  0  0  0  0  0  0  0  0  0  0
    0.2730    0.4440    0.7620 O   0  0  0  0  0  0  0  0  0  0  0  0
   -1.5570   -0.2810   -0.4360 O   0  0  0  0  0  0  0  0  0  0  0  0
   -2.4450    0.3780    0.4180 C   0  0  0  0  0  0  0  0  0  0  0  0
   -3.8630    0.1040   -0.1020 C   0  0  2  0  0  0  0  0  0  0  0  0
   -3.9820    0.5950   -1.4150 O   0  0  0  0  0  0  0  0  0  0  0  0
   -4.8020    0.8220    0.7540 C   0  0  0  0  0  0  0  0  0  0  0  0
   -5.6340    1.8250    0.2100 N   0  0  0  0  0  0  0  0  0  0  0  0
   -4.8810    0.5610    1.9710 O   0  0  0  0  0  0  0  0  0  0  0  0
   -4.0290   -1.3430   -0.1110 C   0  0  0  0  0  0  0  0  0  0  0  0
   -4.2680   -2.0290   -1.3220 N   0  0  0  0  0  0  0  0  0  0  0  0
   -3.9620   -1.9980    0.9510 O   0  0  0  0  0  0  0  0  0  0  0  0
  2  1  1  6
  2  3  1  0
  2  5  1  0
  3  4  2  0
  5  6  1  0
  6  7  1  0
  7  8  1  0
  8  9  1  0
  9 10  2  0
  9 11  1  0
 11 12  1  0
 12 13  1  0
 13 14  1  6
 13 15  1  0
 13 18  1  0
 15 16  1  0
 15 17  2  0
 18 19  1  0
 18 20  2  0
M  END
