
     RDKit          3D

 18 19  0  0  0  0  0  0  0  0999 V2000
    0.2820   -0.6460   -0.9800 O   0  0  0  0  0  0  0  0  0  0  0  0
    0.2420    0.5210   -0.5810 C   0  0  0  0  0  0  0  0  0  0  0  0
   -0.9700    1.2450   -0.6050 N   0  0  0  0  0  0  0  0  0  0  0  0
   -2.2380    0.7580   -1.0530 C   0  0  0  0  0  0  0  0  0  0  0  0
   -2.7760   -0.3970   -0.2910 C   0  0  1  0  0  0  0  0  0  0  0  0
   -2.0160   -1.5400   -0.2900 O   0  0  0  0  0  0  0  0  0  0  0  0
   -3.0570    0.0080    1.1670 C   0  0  0  0  0  0  0  0  0  0  0  0
   -4.1760   -0.9650    1.4780 C   0  0  0  0  0  0  0  0  0  0  0  0
   -4.8910   -1.1620    0.3290 O   0  0  0  0  0  0  0  0  0  0  0  0
   -4.1960   -0.6810   -0.7430 C   0  0  0  0  0  0  0  0  0  0  0  0
    1.4590    1.0950   -0.1030 N   0  0  0  0  0  0  0  0  0  0  0  0
    2.7030    0.3910   -0.0660 C   0  0  1  0  0  0  0  0  0  0  0  0
    3.7750    0.9990   -0.9290 C   0  0  0  0  0  0  0  0  0  0  0  0
    4.8200   -0.0270   -1.0710 N   0  0  0  0  0  0  0  0  0  0  0  0
    5.2590   -0.6120    0.1650 C   0  0  0  0  0  0  0  0  0  0  0  0
    6.4280   -1.1140    0.2130 O   0  0  0  0  0  0  0  0  0  0  0  0
    4.3980   -0.6020    1.2350 O   0  0  0  0  0  0  0  0  0  0  0  0
    3.2480    0.2170    1.3290 C   0  0  0  0  0  0  0  0  0  0  0  0
  1  2  2  0
  2  3  1  0
  2 11  1  0
  3  4  1  0
  4  5  1  0
  5  6  1  1
  5  7  1  0
  5 10  1  0
  7  8  1  0
  8  9  1  0
  9 10  1  0
 12 11  1  1
 12 13  1  0
 12 18  1  0
 13 14  1  0
 14 15  1  0
 15 16  2  0
 15 17  1  0
 17 18  1  0
M  END
