
     RDKit          3D

 20 19  0  0  0  0  0  0  0  0999 V2000
   -3.7820    0.7450   -1.7580 C   0  0  0  0  0  0  0  0  0  0  0  0
   -2.9130    0.7600   -0.5010 C   0  0  1  0  0  0  0  0  0  0  0  0
   -1.8260    1.6380   -0.8330 O   0  0  0  0  0  0  0  0  0  0  0  0
   -3.6730    1.4610    0.5620 C   0  0  0  0  0  0  0  0  0  0  0  0
   -5.2660    0.7130    0.9780 S   0  0  0  0  0  0  0  0  0  0  0  0
   -2.3040   -0.5470   -0.1920 C   0  0  2  0  0  0  0  0  0  0  0  0
   -3.2030   -1.7110    0.0210 C   0  0  0  0  0  0  0  0  0  0  0  0
   -3.9380   -1.7190    1.1750 O   0  0  0  0  0  0  0  0  0  0  0  0
   -1.3650   -0.4940    0.9290 N   0  0  0  0  0  0  0  0  0  0  0  0
    0.0100   -0.7430    0.8110 C   0  0  0  0  0  0  0  0  0  0  0  0
    0.4860   -1.0300   -0.3170 O   0  0  0  0  0  0  0  0  0  0  0  0
    0.9520   -0.6830    1.9760 C   0  0  0  0  0  0  0  0  0  0  0  0
    2.2640   -0.9670    1.6100 O   0  0  0  0  0  0  0  0  0  0  0  0
    3.0170   -0.2730    0.7000 C   0  0  0  0  0  0  0  0  0  0  0  0
    2.4960    0.7190    0.1300 O   0  0  0  0  0  0  0  0  0  0  0  0
    4.4190   -0.6250    0.3480 C   0  0  0  0  0  0  0  0  0  0  0  0
    4.9820    0.2560   -0.6260 N   0  0  0  0  0  0  0  0  0  0  0  0
    6.3100    0.0370   -1.0530 C   0  0  0  0  0  0  0  0  0  0  0  0
    6.9700    0.8490   -2.0160 N   0  0  0  0  0  0  0  0  0  0  0  0
    6.9680   -0.9230   -0.5720 O   0  0  0  0  0  0  0  0  0  0  0  0
  2  1  1  6
  2  3  1  0
  2  4  1  0
  2  6  1  0
  4  5  1  0
  6  7  1  1
  6  9  1  0
  7  8  1  0
  9 10  1  0
 10 11  2  0
 10 12  1  0
 12 13  1  0
 13 14  1  0
 14 15  2  0
 14 16  1  0
 16 17  1  0
 17 18  1  0
 18 19  1  0
 18 20  2  0
M  END
