
     RDKit          3D

 15 15  0  0  0  0  0  0  0  0999 V2000
    0.4610   -2.3340    0.9790 C   0  0  0  0  0  0  0  0  0  0  0  0
   -0.0480   -1.3210    0.2080 C   0  0  0  0  0  0  0  0  0  0  0  0
   -1.3740   -0.9160    0.5350 C   0  0  0  0  0  0  0  0  0  0  0  0
   -2.2130   -0.0530    0.0620 C   0  0  0  0  0  0  0  0  0  0  0  0
   -1.9780    0.8290   -1.0740 C   0  0  0  0  0  0  0  0  0  0  0  0
   -3.5270    0.0630    0.7370 C   0  0  0  0  0  0  0  0  0  0  0  0
   -4.4620    0.8840    0.3870 C   0  0  0  0  0  0  0  0  0  0  0  0
   -5.7470    0.8610    1.1990 C   0  0  0  0  0  0  0  0  0  0  0  0
    0.7780   -0.7300   -0.8290 C   0  0  2  0  0  0  0  0  0  0  0  0
    2.2220   -1.3100   -0.7940 C   0  0  0  0  0  0  0  0  0  0  0  0
    2.8900   -0.1190   -1.5160 C   0  0  0  0  0  0  0  0  0  0  0  0
    2.5140    0.9160   -0.5850 N   0  0  2  0  0  0  0  0  0  0  0  0
    2.9760    0.7870    0.7430 C   0  0  0  0  0  0  0  0  0  0  0  0
    4.3220    0.2020    0.9570 C   0  0  0  0  0  0  0  0  0  0  0  0
    1.0430    0.7440   -0.6370 C   0  0  0  0  0  0  0  0  0  0  0  0
  1  2  2  0
  2  3  1  0
  9  2  1  1
  3  4  2  3
  4  5  1  0
  4  6  1  0
  6  7  2  3
  7  8  1  0
  9 10  1  0
  9 15  1  0
 10 11  1  0
 11 12  1  0
 12 13  1  1
 12 15  1  0
 13 14  1  0
M  CHG  1  12   1
M  END
