
     RDKit          3D

 15 15  0  0  0  0  0  0  0  0999 V2000
    4.3710    0.2030    0.2540 C   0  0  0  0  0  0  0  0  0  0  0  0
    3.4130    1.3200    0.3300 C   0  0  0  0  0  0  0  0  0  0  0  0
    3.8960    2.7090    0.1060 C   0  0  0  0  0  0  0  0  0  0  0  0
    2.1250    1.1290    0.5940 C   0  0  0  0  0  0  0  0  0  0  0  0
    1.5600   -0.2270    0.8320 C   0  0  0  0  0  0  0  0  0  0  0  0
    0.5150   -0.5500   -0.1510 N   0  0  1  0  0  0  0  0  0  0  0  0
    0.8250   -1.8360   -0.6840 C   0  0  0  0  0  0  0  0  0  0  0  0
   -0.3320   -2.5440   -1.3160 C   0  0  0  0  0  0  0  0  0  0  0  0
   -1.3950   -2.7670   -0.2910 C   0  0  0  0  0  0  0  0  0  0  0  0
   -1.4270   -1.7270    0.7890 C   0  0  0  0  0  0  0  0  0  0  0  0
   -0.7960   -0.4340    0.4190 C   0  0  2  0  0  0  0  0  0  0  0  0
   -1.6320    0.4290   -0.4840 C   0  0  0  0  0  0  0  0  0  0  0  0
   -3.0360    0.6320    0.0010 C   0  0  2  0  0  0  0  0  0  0  0  0
   -3.7310    1.5210   -1.0240 C   0  0  0  0  0  0  0  0  0  0  0  0
   -3.1110    1.3330    1.3210 C   0  0  0  0  0  0  0  0  0  0  0  0
  1  2  1  0
  2  3  1  0
  2  4  2  3
  4  5  1  0
  6  5  1  1
  6  7  1  0
  6 11  1  0
  7  8  1  0
  8  9  1  0
  9 10  1  0
 10 11  1  0
 11 12  1  6
 12 13  1  0
 13 14  1  6
 13 15  1  0
M  CHG  1   6   1
M  END
