
     RDKit          3D

 13 14  0  0  0  0  0  0  0  0999 V2000
   -2.8180   -1.9350   -0.5530 N   0  0  0  0  0  0  0  0  0  0  0  0
   -2.0140   -0.8120   -0.2160 C   0  0  0  0  0  0  0  0  0  0  0  0
   -0.6250   -0.8790   -0.2620 C   0  0  0  0  0  0  0  0  0  0  0  0
    0.1630    0.2030    0.0620 C   0  0  0  0  0  0  0  0  0  0  0  0
    1.6240    0.1470    0.0190 C   0  0  0  0  0  0  0  0  0  0  0  0
    2.3880   -0.9410   -0.3340 C   0  0  0  0  0  0  0  0  0  0  0  0
    3.7340   -0.5960   -0.2500 C   0  0  0  0  0  0  0  0  0  0  0  0
    3.7740    0.7030    0.1550 C   0  0  0  0  0  0  0  0  0  0  0  0
    2.5060    1.1190    0.3070 N   0  0  0  0  0  0  0  0  0  0  0  0
   -0.4870    1.3600    0.4350 C   0  0  0  0  0  0  0  0  0  0  0  0
   -1.8690    1.4470    0.4860 C   0  0  0  0  0  0  0  0  0  0  0  0
   -2.6500    0.3550    0.1590 C   0  0  0  0  0  0  0  0  0  0  0  0
   -4.0400    0.3820    0.1920 O   0  0  0  0  0  0  0  0  0  0  0  0
  1  2  1  0
  2  3  2  0
  2 12  1  0
  3  4  1  0
  4  5  1  0
  4 10  2  0
  5  6  2  0
  5  9  1  0
  6  7  1  0
  7  8  2  0
  8  9  1  0
 10 11  1  0
 11 12  2  0
 12 13  1  0
M  END
