
     RDKit          3D

 15 15  0  0  0  0  0  0  0  0999 V2000
    4.7610    0.8030    1.9440 C   0  0  0  0  0  0  0  0  0  0  0  0
    4.8550    0.8500    0.4630 C   0  0  0  0  0  0  0  0  0  0  0  0
    3.8160    0.4830   -0.3070 C   0  0  0  0  0  0  0  0  0  0  0  0
    2.5920    0.0360    0.3170 C   0  0  0  0  0  0  0  0  0  0  0  0
    1.4910   -0.3540   -0.2590 C   0  0  0  0  0  0  0  0  0  0  0  0
    1.4000   -0.3720   -1.7260 C   0  0  0  0  0  0  0  0  0  0  0  0
    1.1260   -1.7360   -2.2950 C   0  0  0  0  0  0  0  0  0  0  0  0
    0.3550   -0.7730    0.6170 C   0  0  0  0  0  0  0  0  0  0  0  0
   -0.8120    0.0240    0.4130 N   0  0  2  0  0  0  0  0  0  0  0  0
   -1.4930    0.1700    1.6860 C   0  0  0  0  0  0  0  0  0  0  0  0
   -2.8070    0.7660    1.3060 C   0  0  0  0  0  0  0  0  0  0  0  0
   -3.0290    0.2570   -0.1010 C   0  0  1  0  0  0  0  0  0  0  0  0
   -4.3270   -0.5140   -0.1700 C   0  0  0  0  0  0  0  0  0  0  0  0
   -3.0730    1.4200   -1.0400 C   0  0  0  0  0  0  0  0  0  0  0  0
   -1.8340   -0.6480   -0.3720 C   0  0  0  0  0  0  0  0  0  0  0  0
  1  2  1  0
  2  3  2  3
  3  4  1  0
  4  5  2  3
  5  6  1  0
  5  8  1  0
  6  7  1  0
  9  8  1  1
  9 10  1  0
  9 15  1  0
 10 11  1  0
 11 12  1  0
 12 13  1  1
 12 14  1  0
 12 15  1  0
M  CHG  1   9   1
M  END
