
     RDKit          3D

 15 15  0  0  0  0  0  0  0  0999 V2000
   -4.5270   -0.6650   -0.6850 C   0  0  0  0  0  0  0  0  0  0  0  0
   -4.2230   -1.8450    0.2130 C   0  0  0  0  0  0  0  0  0  0  0  0
   -2.7270   -2.0800    0.3360 C   0  0  0  0  0  0  0  0  0  0  0  0
   -2.0490   -0.9260    0.8960 N   0  0  1  0  0  0  0  0  0  0  0  0
   -1.7970   -1.1280    2.3010 C   0  0  0  0  0  0  0  0  0  0  0  0
   -0.3890   -1.5990    2.4960 C   0  0  0  0  0  0  0  0  0  0  0  0
    0.5100   -0.3850    2.2850 C   0  0  0  0  0  0  0  0  0  0  0  0
    0.1980    0.1120    0.8830 C   0  0  1  0  0  0  0  0  0  0  0  0
    1.4550    0.0370    0.1080 C   0  0  0  0  0  0  0  0  0  0  0  0
    2.0060    1.1100   -0.4110 C   0  0  0  0  0  0  0  0  0  0  0  0
    3.2550    0.9990   -1.1750 C   0  0  0  0  0  0  0  0  0  0  0  0
    3.8140    2.0620   -1.6970 C   0  0  0  0  0  0  0  0  0  0  0  0
    3.1760    3.3840   -1.5110 C   0  0  0  0  0  0  0  0  0  0  0  0
    5.0720    1.9300   -2.4630 C   0  0  0  0  0  0  0  0  0  0  0  0
   -0.8200   -0.7370    0.1880 C   0  0  0  0  0  0  0  0  0  0  0  0
  1  2  1  0
  2  3  1  0
  4  3  1  6
  4  5  1  0
  4 15  1  0
  5  6  1  0
  6  7  1  0
  7  8  1  0
  8  9  1  6
  8 15  1  0
  9 10  2  3
 10 11  1  0
 11 12  2  3
 12 13  1  0
 12 14  1  0
M  CHG  1   4   1
M  END
