
     RDKit          3D

 15 15  0  0  0  0  0  0  0  0999 V2000
    0.5140   -2.1960   -1.4950 C   0  0  0  0  0  0  0  0  0  0  0  0
    0.8180   -0.9460   -0.7190 C   0  0  0  0  0  0  0  0  0  0  0  0
    1.9390   -0.9400   -0.0210 C   0  0  0  0  0  0  0  0  0  0  0  0
    2.4790    0.1350    0.8210 C   0  0  0  0  0  0  0  0  0  0  0  0
    3.8390    0.5300    0.2420 C   0  0  1  0  0  0  0  0  0  0  0  0
    4.4560    1.6530    1.0810 C   0  0  0  0  0  0  0  0  0  0  0  0
    4.8020   -0.6090    0.2510 C   0  0  0  0  0  0  0  0  0  0  0  0
   -0.0650    0.2210   -0.7240 C   0  0  0  0  0  0  0  0  0  0  0  0
   -1.3870   -0.0420   -0.2240 N   0  0  1  0  0  0  0  0  0  0  0  0
   -1.7490    0.7890    0.8890 C   0  0  0  0  0  0  0  0  0  0  0  0
   -2.8510    1.7610    0.5920 C   0  0  0  0  0  0  0  0  0  0  0  0
   -4.0890    1.1020    0.0410 C   0  0  0  0  0  0  0  0  0  0  0  0
   -3.7570   -0.1200   -0.7910 C   0  0  2  0  0  0  0  0  0  0  0  0
   -3.9540   -1.3720   -0.0030 C   0  0  0  0  0  0  0  0  0  0  0  0
   -2.3360    0.0620   -1.2790 C   0  0  0  0  0  0  0  0  0  0  0  0
  1  2  1  0
  2  3  2  3
  2  8  1  0
  3  4  1  0
  4  5  1  0
  5  6  1  1
  5  7  1  0
  9  8  1  6
  9 10  1  0
  9 15  1  0
 10 11  1  0
 11 12  1  0
 12 13  1  0
 13 14  1  1
 13 15  1  0
M  CHG  1   9   1
M  END
