
     RDKit          3D

 15 15  0  0  0  0  0  0  0  0999 V2000
   -3.3730   -1.9340    0.1220 C   0  0  0  0  0  0  0  0  0  0  0  0
   -1.9050   -1.5380   -0.0390 C   0  0  0  0  0  0  0  0  0  0  0  0
   -1.7880   -0.0760   -0.4280 C   0  0  1  0  0  0  0  0  0  0  0  0
   -2.5290    0.0720   -1.7480 C   0  0  0  0  0  0  0  0  0  0  0  0
   -2.4150    0.7470    0.6560 C   0  0  0  0  0  0  0  0  0  0  0  0
   -2.3810    2.2170    0.4190 C   0  0  0  0  0  0  0  0  0  0  0  0
   -0.3620    0.2380   -0.7040 C   0  0  0  0  0  0  0  0  0  0  0  0
    0.5280    0.0170    0.4280 N   0  0  2  0  0  0  0  0  0  0  0  0
    1.2380    1.2540    0.6430 C   0  0  0  0  0  0  0  0  0  0  0  0
    2.0380    1.6990   -0.5350 C   0  0  0  0  0  0  0  0  0  0  0  0
    3.4930    1.4030   -0.2520 C   0  0  0  0  0  0  0  0  0  0  0  0
    3.5680    0.0200    0.3370 C   0  0  0  0  0  0  0  0  0  0  0  0
    2.6750   -0.8770   -0.4320 C   0  0  0  0  0  0  0  0  0  0  0  0
    1.3270   -1.1080    0.1450 C   0  0  1  0  0  0  0  0  0  0  0  0
    1.5080   -1.9120    1.4230 C   0  0  0  0  0  0  0  0  0  0  0  0
  1  2  1  0
  2  3  1  0
  3  4  1  6
  3  5  1  0
  3  7  1  0
  5  6  1  0
  8  7  1  6
  8  9  1  0
  8 14  1  0
  9 10  1  0
 10 11  1  0
 11 12  1  0
 12 13  1  0
 13 14  1  0
 14 15  1  1
M  CHG  1   8   1
M  END
