
     RDKit          3D

 11 11  0  0  0  0  0  0  0  0999 V2000
   -2.0010    1.7520    0.1060 C   0  0  0  0  0  0  0  0  0  0  0  0
   -2.0220    0.4330    0.0250 C   0  0  0  0  0  0  0  0  0  0  0  0
   -3.1280   -0.5110    0.2980 C   0  0  0  0  0  0  0  0  0  0  0  0
   -2.5520   -1.8010    0.0380 N   0  0  0  0  0  0  0  0  0  0  0  0
   -1.3280   -1.7180   -0.3290 C   0  0  0  0  0  0  0  0  0  0  0  0
   -0.9100   -0.3610   -0.3660 N   0  0  0  0  0  0  0  0  0  0  0  0
    0.4090    0.1220   -0.7370 C   0  0  0  0  0  0  0  0  0  0  0  0
    1.4650   -0.2520    0.2620 C   0  0  0  0  0  0  0  0  0  0  0  0
    2.7630    0.2880   -0.2140 C   0  0  0  0  0  0  0  0  0  0  0  0
    3.9310    0.0580    0.5610 N   0  0  0  0  0  0  0  0  0  0  0  0
    2.8550    0.9310   -1.2650 O   0  0  0  0  0  0  0  0  0  0  0  0
  1  2  2  0
  2  3  1  0
  2  6  1  0
  3  4  1  0
  4  5  2  0
  5  6  1  0
  6  7  1  0
  7  8  1  0
  8  9  1  0
  9 10  1  0
  9 11  2  0
M  END
