
     RDKit          3D

 11 11  0  0  0  0  0  0  0  0999 V2000
   -3.7430    0.2150    0.1000 C   0  0  0  0  0  0  0  0  0  0  0  0
   -2.4860   -0.4970    0.4820 C   0  0  0  0  0  0  0  0  0  0  0  0
   -1.3540    0.2330   -0.0460 N   0  0  0  0  0  0  0  0  0  0  0  0
   -0.0090   -0.1940    0.1490 C   0  0  0  0  0  0  0  0  0  0  0  0
    0.1710   -1.2270    0.7960 O   0  0  0  0  0  0  0  0  0  0  0  0
    1.1040    0.5100   -0.3610 N   0  0  0  0  0  0  0  0  0  0  0  0
    2.4400    0.1100   -0.1820 C   0  0  0  0  0  0  0  0  0  0  0  0
    2.9350   -0.9260    0.4480 C   0  0  0  0  0  0  0  0  0  0  0  0
    4.3760   -0.9230    0.3650 N   0  0  0  0  0  0  0  0  0  0  0  0
    4.6200    0.0090   -0.4940 C   0  0  0  0  0  0  0  0  0  0  0  0
    3.6280    0.8210   -0.7010 C   0  0  0  0  0  0  0  0  0  0  0  0
  1  2  1  0
  2  3  1  0
  3  4  1  0
  4  5  2  0
  4  6  1  0
  6  7  1  0
  7  8  2  0
  7 11  1  0
  8  9  1  0
  9 10  2  0
 10 11  2  0
M  END
