
     RDKit          3D

 11 11  0  0  0  0  0  0  0  0999 V2000
    3.0080   -0.5570    1.1220 C   0  0  0  0  0  0  0  0  0  0  0  0
    1.8420   -0.0230    0.3820 N   0  0  0  0  0  0  0  0  0  0  0  0
    0.5810   -0.6380    0.4860 C   0  0  0  0  0  0  0  0  0  0  0  0
   -0.4860   -0.1910   -0.1600 C   0  0  0  0  0  0  0  0  0  0  0  0
   -1.7810   -0.8700   -0.0170 C   0  0  0  0  0  0  0  0  0  0  0  0
   -2.8020    0.0550    0.5360 C   0  0  0  0  0  0  0  0  0  0  0  0
   -4.1350   -0.3750    0.7630 N   0  0  0  0  0  0  0  0  0  0  0  0
   -2.4640    1.2460    0.8040 O   0  0  0  0  0  0  0  0  0  0  0  0
   -0.2740    0.9550   -0.9680 N   0  0  0  0  0  0  0  0  0  0  0  0
    0.8310    1.5620   -1.1120 C   0  0  0  0  0  0  0  0  0  0  0  0
    2.0460    1.1280   -0.4330 C   0  0  0  0  0  0  0  0  0  0  0  0
  1  2  1  0
  2  3  1  0
  2 11  1  0
  3  4  2  0
  4  5  1  0
  4  9  1  0
  5  6  1  0
  6  7  1  0
  6  8  2  0
  9 10  2  0
 10 11  1  0
M  END
