
     RDKit          3D

 19 20  0  0  0  0  0  0  0  0999 V2000
   -2.4710   -1.9710   -0.5640 N   0  0  0  0  0  0  0  0  0  0  0  0
   -3.0580   -0.7060   -0.2930 C   0  0  0  0  0  0  0  0  0  0  0  0
   -4.1730   -0.2810   -0.9090 N   0  0  0  0  0  0  0  0  0  0  0  0
   -4.7450    0.9100   -0.6680 C   0  0  0  0  0  0  0  0  0  0  0  0
   -4.1650    1.7120    0.2360 N   0  0  0  0  0  0  0  0  0  0  0  0
   -3.0360    1.3170    0.8800 C   0  0  0  0  0  0  0  0  0  0  0  0
   -2.4330    0.1080    0.6520 C   0  0  0  0  0  0  0  0  0  0  0  0
   -1.2760   -0.3870    1.2830 N   0  0  0  0  0  0  0  0  0  0  0  0
    0.0470    0.6580    1.5870 S   0  0  1  0  0  0  0  0  0  0  0  0
   -0.3420    2.0700    1.4050 O   0  0  0  0  0  0  0  0  0  0  0  0
    0.4410    0.4680    3.0450 O   0  0  0  0  0  0  0  0  0  0  0  0
    1.3830    0.1700    0.6200 C   0  0  0  0  0  0  0  0  0  0  0  0
    1.5850   -0.8150   -0.2790 C   0  0  0  0  0  0  0  0  0  0  0  0
    2.8070   -0.8980   -0.8640 C   0  0  0  0  0  0  0  0  0  0  0  0
    3.7520   -0.0180   -0.5370 C   0  0  0  0  0  0  0  0  0  0  0  0
    5.4050    0.1840   -1.0690 S   0  0  2  0  0  0  0  0  0  0  0  0
    6.2950    0.5880    0.0500 O   0  0  0  0  0  0  0  0  0  0  0  0
    5.4590    1.2940   -2.1090 O   0  0  0  0  0  0  0  0  0  0  0  0
    2.9510    1.0190    0.6570 S   0  0  0  0  0  0  0  0  0  0  0  0
  1  2  1  0
  2  3  2  0
  2  7  1  0
  3  4  1  0
  4  5  2  0
  5  6  1  0
  6  7  2  0
  7  8  1  0
  9  8  1  6
  9 10  2  0
  9 11  2  0
  9 12  1  0
 12 13  2  0
 12 19  1  0
 13 14  1  0
 14 15  2  0
 16 15  1  1
 15 19  1  0
 16 17  2  0
 16 18  2  0
M  END
