
     RDKit          3D

 11 11  0  0  0  0  0  0  0  0999 V2000
   -1.7110    1.7780    0.2480 C   0  0  0  0  0  0  0  0  0  0  0  0
   -2.0440    0.3790   -0.0840 C   0  0  0  0  0  0  0  0  0  0  0  0
   -1.2050   -0.5620   -0.4560 C   0  0  0  0  0  0  0  0  0  0  0  0
   -1.7070   -1.9530   -0.7620 C   0  0  0  0  0  0  0  0  0  0  0  0
   -0.5430   -2.6740   -1.1110 N   0  0  0  0  0  0  0  0  0  0  0  0
    0.5060   -1.9440   -1.0590 C   0  0  0  0  0  0  0  0  0  0  0  0
    0.1740   -0.6090   -0.6580 N   0  0  0  0  0  0  0  0  0  0  0  0
    1.1560    0.4300   -0.5130 C   0  0  0  0  0  0  0  0  0  0  0  0
    2.0590    0.1600    0.6610 C   0  0  0  0  0  0  0  0  0  0  0  0
    3.1010    1.0760    0.9720 N   0  0  0  0  0  0  0  0  0  0  0  0
    1.8320   -0.8880    1.3150 O   0  0  0  0  0  0  0  0  0  0  0  0
  1  2  1  0
  2  3  2  3
  3  4  1  0
  3  7  1  0
  4  5  1  0
  5  6  2  0
  6  7  1  0
  7  8  1  0
  8  9  1  0
  9 10  1  0
  9 11  2  0
M  END
