
     RDKit          3D

 11 11  0  0  0  0  0  0  0  0999 V2000
   -3.2200    1.1440    0.0450 C   0  0  0  0  0  0  0  0  0  0  0  0
   -2.3570    0.0040   -0.4530 C   0  0  2  0  0  0  0  0  0  0  0  0
   -2.8820   -1.3450   -0.0080 C   0  0  0  0  0  0  0  0  0  0  0  0
   -0.9330    0.1730    0.0100 C   0  0  0  0  0  0  0  0  0  0  0  0
   -0.5190    0.1960    1.2860 N   0  0  0  0  0  0  0  0  0  0  0  0
    0.7960    0.3610    1.3380 N   0  0  0  0  0  0  0  0  0  0  0  0
    1.2530    0.4470    0.0710 C   0  0  0  0  0  0  0  0  0  0  0  0
    2.6740    0.6360   -0.3500 C   0  0  0  0  0  0  0  0  0  0  0  0
    3.3550   -0.7180   -0.5310 C   0  0  0  0  0  0  0  0  0  0  0  0
    4.6770   -0.4420   -0.9240 O   0  0  0  0  0  0  0  0  0  0  0  0
    0.1660    0.3290   -0.7330 N   0  0  0  0  0  0  0  0  0  0  0  0
  2  1  1  1
  2  3  1  0
  2  4  1  0
  4  5  2  0
  4 11  1  0
  5  6  1  0
  6  7  1  0
  7  8  1  0
  7 11  2  0
  8  9  1  0
  9 10  1  0
M  END
