
     RDKit          3D

 11 11  0  0  0  0  0  0  0  0999 V2000
    3.1210   -0.8800    0.4480 C   0  0  0  0  0  0  0  0  0  0  0  0
    2.6000    0.0860   -0.6240 C   0  0  0  0  0  0  0  0  0  0  0  0
    1.3910    0.6580   -0.1320 N   0  0  0  0  0  0  0  0  0  0  0  0
    0.2000   -0.0960    0.0440 C   0  0  0  0  0  0  0  0  0  0  0  0
   -0.9880    0.4560   -0.0510 C   0  0  0  0  0  0  0  0  0  0  0  0
   -1.3010    1.8470   -0.3350 C   0  0  0  0  0  0  0  0  0  0  0  0
   -0.5260    2.8100   -0.5490 O   0  0  0  0  0  0  0  0  0  0  0  0
   -2.7270    1.9300   -0.3260 N   0  0  0  0  0  0  0  0  0  0  0  0
   -3.2270    0.6560   -0.0520 N   0  0  0  0  0  0  0  0  0  0  0  0
   -2.2830   -0.1980    0.1080 C   0  0  0  0  0  0  0  0  0  0  0  0
   -2.4870   -1.6340    0.4110 C   0  0  0  0  0  0  0  0  0  0  0  0
  1  2  1  0
  2  3  1  0
  3  4  1  0
  4  5  2  3
  5  6  1  0
  5 10  1  0
  6  7  2  0
  6  8  1  0
  8  9  1  0
  9 10  2  0
 10 11  1  0
M  END
