
     RDKit          3D

 11 11  0  0  0  0  0  0  0  0999 V2000
   -3.3620    0.6440    0.7940 C   0  0  0  0  0  0  0  0  0  0  0  0
   -2.5370   -0.0930   -0.1950 C   0  0  0  0  0  0  0  0  0  0  0  0
   -3.0370   -0.4140   -1.3040 O   0  0  0  0  0  0  0  0  0  0  0  0
   -1.1850   -0.4630    0.0440 N   0  0  0  0  0  0  0  0  0  0  0  0
   -0.4540   -1.1780   -0.9730 C   0  0  0  0  0  0  0  0  0  0  0  0
    0.9610   -1.4960   -0.5670 C   0  0  0  0  0  0  0  0  0  0  0  0
    1.7610   -0.2950   -0.2730 C   0  0  0  0  0  0  0  0  0  0  0  0
    1.9130    0.3510    0.9380 C   0  0  0  0  0  0  0  0  0  0  0  0
    2.7230    1.4140    0.8110 N   0  0  0  0  0  0  0  0  0  0  0  0
    3.0850    1.4390   -0.4930 C   0  0  0  0  0  0  0  0  0  0  0  0
    2.5130    0.4180   -1.1500 N   0  0  0  0  0  0  0  0  0  0  0  0
  1  2  1  0
  2  3  2  0
  2  4  1  0
  4  5  1  0
  5  6  1  0
  6  7  1  0
  7  8  2  0
  7 11  1  0
  8  9  1  0
  9 10  1  0
 10 11  2  0
M  END
