
     RDKit          3D

 18 19  0  0  0  0  0  0  0  0999 V2000
   -4.3480    1.8860   -0.0990 C   0  0  0  0  0  0  0  0  0  0  0  0
   -3.9150    0.5180    0.3240 C   0  0  0  0  0  0  0  0  0  0  0  0
   -4.7700   -0.3900    0.7310 C   0  0  0  0  0  0  0  0  0  0  0  0
   -4.0050   -1.5920    1.0600 C   0  0  0  0  0  0  0  0  0  0  0  0
   -2.5880   -1.2280    0.7790 C   0  0  0  0  0  0  0  0  0  0  0  0
   -2.5290   -0.0030    0.3510 C   0  0  0  0  0  0  0  0  0  0  0  0
   -1.4460    0.8110   -0.0480 N   0  0  0  0  0  0  0  0  0  0  0  0
   -0.1110    0.3270   -0.0280 C   0  0  0  0  0  0  0  0  0  0  0  0
    0.1020   -0.8380    0.3490 O   0  0  0  0  0  0  0  0  0  0  0  0
    0.9890    1.1320   -0.4260 N   0  0  0  0  0  0  0  0  0  0  0  0
    2.3430    0.7670   -0.4490 C   0  0  0  0  0  0  0  0  0  0  0  0
    2.8740   -0.4450   -0.0910 C   0  0  0  0  0  0  0  0  0  0  0  0
    4.2430   -0.7360   -0.1410 C   0  0  0  0  0  0  0  0  0  0  0  0
    4.7400   -2.0750    0.2650 C   0  0  0  0  0  0  0  0  0  0  0  0
    5.0730    0.2690   -0.5780 C   0  0  0  0  0  0  0  0  0  0  0  0
    4.5790    1.4220   -0.9200 O   0  0  0  0  0  0  0  0  0  0  0  0
    3.2980    1.7010   -0.8750 C   0  0  0  0  0  0  0  0  0  0  0  0
    2.8550    2.8370   -1.2170 O   0  0  0  0  0  0  0  0  0  0  0  0
  1  2  1  0
  2  3  2  0
  2  6  1  0
  3  4  1  0
  4  5  1  0
  5  6  2  0
  6  7  1  0
  7  8  1  0
  8  9  2  0
  8 10  1  0
 10 11  1  0
 11 12  2  0
 11 17  1  0
 12 13  1  0
 13 14  1  0
 13 15  2  0
 15 16  1  0
 16 17  1  0
 17 18  2  0
M  END
