
     RDKit          3D

 18 19  0  0  0  0  0  0  0  0999 V2000
   -2.8940    2.4570   -1.4140 C   0  0  0  0  0  0  0  0  0  0  0  0
   -2.4590    1.2410   -0.6950 C   0  0  0  0  0  0  0  0  0  0  0  0
   -3.4060    0.3510   -0.2650 C   0  0  0  0  0  0  0  0  0  0  0  0
   -2.9740   -0.7750    0.4030 C   0  0  0  0  0  0  0  0  0  0  0  0
   -1.6330   -0.9880    0.6250 C   0  0  0  0  0  0  0  0  0  0  0  0
   -0.6370   -0.1020    0.2010 C   0  0  0  0  0  0  0  0  0  0  0  0
    0.7190   -0.3920    0.4680 N   0  0  0  0  0  0  0  0  0  0  0  0
    1.8400    0.3690    0.1250 C   0  0  0  0  0  0  0  0  0  0  0  0
    1.7030    1.4340   -0.4870 O   0  0  0  0  0  0  0  0  0  0  0  0
    3.1370   -0.1290    0.5040 N   0  0  0  0  0  0  0  0  0  0  0  0
    4.2750    0.6430    0.1560 C   0  0  0  0  0  0  0  0  0  0  0  0
    5.2460    0.2000   -0.6120 C   0  0  0  0  0  0  0  0  0  0  0  0
    6.3740    1.0530   -0.9200 C   0  0  0  0  0  0  0  0  0  0  0  0
    7.2920    0.6210   -1.6510 O   0  0  0  0  0  0  0  0  0  0  0  0
   -1.0900    1.0080   -0.4600 C   0  0  0  0  0  0  0  0  0  0  0  0
   -1.4850   -2.2020    1.3210 O   0  0  0  0  0  0  0  0  0  0  0  0
   -2.6550   -2.9870    1.0680 C   0  0  0  0  0  0  0  0  0  0  0  0
   -3.7240   -1.9190    0.9910 C   0  0  0  0  0  0  0  0  0  0  0  0
  1  2  1  0
  2  3  2  0
  2 15  1  0
  3  4  1  0
  4  5  2  0
  4 18  1  0
  5  6  1  0
  5 16  1  0
  6  7  1  0
  6 15  2  0
  7  8  1  0
  8  9  2  0
  8 10  1  0
 10 11  1  0
 11 12  2  3
 12 13  1  0
 13 14  2  0
 16 17  1  0
 17 18  1  0
M  END
