
     RDKit          3D

 18 18  0  0  0  0  0  0  0  0999 V2000
    4.5710   -0.6340   -0.5640 C   0  0  0  0  0  0  0  0  0  0  0  0
    3.9860    0.7030   -0.3760 C   0  0  0  0  0  0  0  0  0  0  0  0
    2.6990    0.9400   -0.7270 C   0  0  0  0  0  0  0  0  0  0  0  0
    2.1250    2.2950   -0.5310 C   0  0  0  0  0  0  0  0  0  0  0  0
    1.9210   -0.1460   -1.3100 C   0  0  0  0  0  0  0  0  0  0  0  0
    0.7830   -0.5840   -0.6910 O   0  0  0  0  0  0  0  0  0  0  0  0
   -0.4140   -0.0280   -0.4170 C   0  0  0  0  0  0  0  0  0  0  0  0
   -0.6130    1.1440   -0.7830 O   0  0  0  0  0  0  0  0  0  0  0  0
   -1.5040   -0.7270    0.2910 C   0  0  0  0  0  0  0  0  0  0  0  0
   -1.3670   -1.9960    0.7190 C   0  0  0  0  0  0  0  0  0  0  0  0
   -0.1880   -2.7880    0.5400 C   0  0  0  0  0  0  0  0  0  0  0  0
    0.7870   -3.4320    0.4120 N   0  0  0  0  0  0  0  0  0  0  0  0
   -2.6090   -2.4070    1.3790 C   0  0  0  0  0  0  0  0  0  0  0  0
   -2.7590   -3.5470    1.8740 O   0  0  0  0  0  0  0  0  0  0  0  0
   -3.4810   -1.3000    1.3120 N   0  0  0  0  0  0  0  0  0  0  0  0
   -2.8150   -0.2120    0.6280 C   0  0  0  0  0  0  0  0  0  0  0  0
   -3.3050    0.9750    0.3780 C   0  0  0  0  0  0  0  0  0  0  0  0
   -4.6830    1.3640    0.7900 C   0  0  0  0  0  0  0  0  0  0  0  0
  1  2  1  0
  2  3  2  3
  3  4  1  0
  3  5  1  0
  5  6  1  0
  6  7  1  0
  7  8  2  0
  7  9  1  0
  9 10  2  0
  9 16  1  0
 10 11  1  0
 10 13  1  0
 11 12  3  0
 13 14  2  0
 13 15  1  0
 15 16  1  0
 16 17  2  3
 17 18  1  0
M  END
