
     RDKit          3D

 18 19  0  0  0  0  0  0  0  0999 V2000
   -2.2530   -2.6030   -3.0370 O   0  0  0  0  0  0  0  0  0  0  0  0
   -2.1300   -2.0810   -1.9000 C   0  0  0  0  0  0  0  0  0  0  0  0
   -3.2310   -2.4010   -0.9740 C   0  0  0  0  0  0  0  0  0  0  0  0
   -3.5570   -1.3050   -0.0550 C   0  0  0  0  0  0  0  0  0  0  0  0
   -2.8220   -0.3620    0.5070 C   0  0  0  0  0  0  0  0  0  0  0  0
   -3.5310    0.5980    1.4090 C   0  0  0  0  0  0  0  0  0  0  0  0
   -3.3980    1.8970    0.9350 O   0  0  0  0  0  0  0  0  0  0  0  0
   -1.3610   -0.1270    0.3590 C   0  0  0  0  0  0  0  0  0  0  0  0
   -0.5320   -0.5090   -0.5840 C   0  0  0  0  0  0  0  0  0  0  0  0
    0.8600   -0.1720   -0.5370 C   0  0  0  0  0  0  0  0  0  0  0  0
    1.5970   -0.5760   -1.4830 O   0  0  0  0  0  0  0  0  0  0  0  0
    1.4790    0.5730    0.4770 N   0  0  0  0  0  0  0  0  0  0  0  0
    2.8940    0.8700    0.4510 C   0  0  0  0  0  0  0  0  0  0  0  0
    3.3930    2.0830    0.4310 C   0  0  0  0  0  0  0  0  0  0  0  0
    4.8710    2.0260    0.4070 C   0  0  0  0  0  0  0  0  0  0  0  0
    5.1590    0.5840    0.4170 C   0  0  0  0  0  0  0  0  0  0  0  0
    4.0030   -0.0540    0.4420 C   0  0  0  0  0  0  0  0  0  0  0  0
   -0.9640   -1.2910   -1.7300 N   0  0  0  0  0  0  0  0  0  0  0  0
  1  2  2  0
  2  3  1  0
  2 18  1  0
  3  4  1  0
  4  5  2  0
  5  6  1  0
  5  8  1  0
  6  7  1  0
  8  9  2  0
  9 10  1  0
  9 18  1  0
 10 11  2  0
 10 12  1  0
 12 13  1  0
 13 14  2  0
 13 17  1  0
 14 15  1  0
 15 16  1  0
 16 17  2  0
M  END
