
     RDKit          3D

 18 19  0  0  0  0  0  0  0  0999 V2000
    4.1430    1.0300    0.2690 C   0  0  0  0  0  0  0  0  0  0  0  0
    3.6340   -0.3250   -0.2680 C   0  0  1  0  0  0  0  0  0  0  0  0
    4.1730   -1.4210    0.5830 C   0  0  0  0  0  0  0  0  0  0  0  0
    2.1570   -0.2360   -0.2390 C   0  0  0  0  0  0  0  0  0  0  0  0
    1.4540   -0.5630    0.8510 N   0  0  0  0  0  0  0  0  0  0  0  0
    0.1120   -0.4630    0.8760 C   0  0  0  0  0  0  0  0  0  0  0  0
   -0.5840   -0.0160   -0.2290 C   0  0  0  0  0  0  0  0  0  0  0  0
   -2.0260    0.1010   -0.1850 C   0  0  0  0  0  0  0  0  0  0  0  0
   -2.8220   -1.0470   -0.2510 C   0  0  0  0  0  0  0  0  0  0  0  0
   -4.1840   -1.0130   -0.2080 C   0  0  0  0  0  0  0  0  0  0  0  0
   -4.9080   -2.1910   -0.2780 O   0  0  0  0  0  0  0  0  0  0  0  0
   -4.8110    0.2040   -0.0960 C   0  0  0  0  0  0  0  0  0  0  0  0
   -4.0530    1.3490   -0.0300 C   0  0  0  0  0  0  0  0  0  0  0  0
   -2.6760    1.3080   -0.0730 C   0  0  0  0  0  0  0  0  0  0  0  0
   -1.9420    2.4590   -0.0060 O   0  0  0  0  0  0  0  0  0  0  0  0
    0.1470    0.3160   -1.3430 C   0  0  0  0  0  0  0  0  0  0  0  0
   -0.4310    0.7230   -2.3630 O   0  0  0  0  0  0  0  0  0  0  0  0
    1.5170    0.2010   -1.3360 N   0  0  0  0  0  0  0  0  0  0  0  0
  2  1  1  1
  2  3  1  0
  2  4  1  0
  4  5  2  0
  4 18  1  0
  5  6  1  0
  6  7  2  0
  7  8  1  0
  7 16  1  0
  8  9  2  0
  8 14  1  0
  9 10  1  0
 10 11  1  0
 10 12  2  0
 12 13  1  0
 13 14  2  0
 14 15  1  0
 16 17  2  0
 16 18  1  0
M  END
