
     RDKit          3D

 18 19  0  0  0  0  0  0  0  0999 V2000
    4.0620   -1.8430   -1.2240 C   0  0  0  0  0  0  0  0  0  0  0  0
    4.0270   -0.5110   -0.5650 C   0  0  0  0  0  0  0  0  0  0  0  0
    5.1340    0.2010   -0.4580 C   0  0  0  0  0  0  0  0  0  0  0  0
    5.1350    1.4230    0.1390 O   0  0  0  0  0  0  0  0  0  0  0  0
    3.9670    1.9760    0.6580 C   0  0  0  0  0  0  0  0  0  0  0  0
    2.7560    1.1570    0.5210 C   0  0  0  0  0  0  0  0  0  0  0  0
    2.7270   -0.0240   -0.0480 C   0  0  0  0  0  0  0  0  0  0  0  0
    1.5890   -0.8440   -0.2250 N   0  0  0  0  0  0  0  0  0  0  0  0
    0.2550   -0.5380    0.0880 C   0  0  0  0  0  0  0  0  0  0  0  0
   -0.0350    0.5630    0.5750 O   0  0  0  0  0  0  0  0  0  0  0  0
   -0.8710   -1.5030   -0.1460 C   0  0  0  0  0  0  0  0  0  0  0  0
   -2.1320   -0.9960    0.2060 N   0  0  0  0  0  0  0  0  0  0  0  0
   -2.4390   -0.7480    1.5560 C   0  0  0  0  0  0  0  0  0  0  0  0
   -3.1400    0.5750    1.7910 C   0  0  0  0  0  0  0  0  0  0  0  0
   -2.9750    1.4910    0.7910 O   0  0  0  0  0  0  0  0  0  0  0  0
   -3.2600    1.0810   -0.4780 C   0  0  2  0  0  0  0  0  0  0  0  0
   -4.6940    1.3290   -0.8970 C   0  0  0  0  0  0  0  0  0  0  0  0
   -2.9070   -0.3430   -0.7780 C   0  0  0  0  0  0  0  0  0  0  0  0
  1  2  1  0
  2  3  2  0
  2  7  1  0
  3  4  1  0
  4  5  1  0
  5  6  1  0
  6  7  2  0
  7  8  1  0
  8  9  1  0
  9 10  2  0
  9 11  1  0
 11 12  1  0
 12 13  1  0
 12 18  1  0
 13 14  1  0
 14 15  1  0
 15 16  1  0
 16 17  1  1
 16 18  1  0
M  END
