
     RDKit          3D

 18 19  0  0  0  0  0  0  0  0999 V2000
    6.0050    0.9680    0.4150 C   0  0  0  0  0  0  0  0  0  0  0  0
    4.8550    1.0860   -0.5300 C   0  0  0  0  0  0  0  0  0  0  0  0
    3.6590    0.4210    0.1060 C   0  0  0  0  0  0  0  0  0  0  0  0
    3.7960   -0.0860    1.2310 O   0  0  0  0  0  0  0  0  0  0  0  0
    2.4520    0.4080   -0.6050 N   0  0  0  0  0  0  0  0  0  0  0  0
    1.2760   -0.1860   -0.1160 C   0  0  0  0  0  0  0  0  0  0  0  0
    1.2110   -1.0420    0.9520 C   0  0  0  0  0  0  0  0  0  0  0  0
   -0.0570   -1.5200    1.3040 C   0  0  0  0  0  0  0  0  0  0  0  0
   -1.2050   -1.1860    0.6530 C   0  0  0  0  0  0  0  0  0  0  0  0
   -1.1410   -0.3280   -0.4200 C   0  0  0  0  0  0  0  0  0  0  0  0
    0.0870    0.1580   -0.7890 C   0  0  0  0  0  0  0  0  0  0  0  0
   -2.3120    0.0170   -1.0910 O   0  0  0  0  0  0  0  0  0  0  0  0
   -3.5950   -0.0660   -0.5020 C   0  0  1  0  0  0  0  0  0  0  0  0
   -3.7800    1.1710    0.3630 C   0  0  0  0  0  0  0  0  0  0  0  0
   -4.6710   -0.1320   -1.5380 C   0  0  0  0  0  0  0  0  0  0  0  0
   -3.6740   -1.3060    0.3210 C   0  0  0  0  0  0  0  0  0  0  0  0
   -4.7370   -1.9640    0.3700 O   0  0  0  0  0  0  0  0  0  0  0  0
   -2.4910   -1.6830    1.0300 N   0  0  0  0  0  0  0  0  0  0  0  0
  1  2  1  0
  2  3  1  0
  3  4  2  0
  3  5  1  0
  5  6  1  0
  6  7  2  0
  6 11  1  0
  7  8  1  0
  8  9  2  0
  9 10  1  0
  9 18  1  0
 10 11  2  0
 10 12  1  0
 12 13  1  0
 13 14  1  1
 13 15  1  0
 13 16  1  0
 16 17  2  0
 16 18  1  0
M  END
