
     RDKit          3D

 26 28  0  0  0  0  0  0  0  0999 V2000
    6.3080    0.9450    2.3120 C   0  0  0  0  0  0  0  0  0  0  0  0
    6.1090    2.0350    1.4800 O   0  0  0  0  0  0  0  0  0  0  0  0
    6.1190    1.6020    0.1700 C   0  0  0  0  0  0  0  0  0  0  0  0
    4.9200    0.7830   -0.0940 C   0  0  0  0  0  0  0  0  0  0  0  0
    4.9310    0.0800   -1.1530 O   0  0  0  0  0  0  0  0  0  0  0  0
    3.8240    0.7890    0.7800 N   0  0  0  0  0  0  0  0  0  0  0  0
    2.6500   -0.0530    0.4770 C   0  0  1  0  0  0  0  0  0  0  0  0
    2.6050   -1.0980    1.5390 C   0  0  0  0  0  0  0  0  0  0  0  0
    1.2540   -1.7910    1.5630 C   0  0  0  0  0  0  0  0  0  0  0  0
    0.2660   -0.7060    1.9730 C   0  0  0  0  0  0  0  0  0  0  0  0
    0.1650    0.2730    0.8440 C   0  0  2  0  0  0  0  0  0  0  0  0
   -0.6670   -0.2610   -0.1920 O   0  0  0  0  0  0  0  0  0  0  0  0
   -1.9050    0.2590   -0.5150 C   0  0  0  0  0  0  0  0  0  0  0  0
   -2.3190    1.2600    0.1430 O   0  0  0  0  0  0  0  0  0  0  0  0
   -2.7610   -0.2800   -1.5680 C   0  0  0  0  0  0  0  0  0  0  0  0
   -2.4020   -1.3210   -2.3000 C   0  0  0  0  0  0  0  0  0  0  0  0
   -1.1250   -2.1010   -2.1970 C   0  0  0  0  0  0  0  0  0  0  0  0
   -3.4420   -1.6330   -3.2480 N   0  0  0  0  0  0  0  0  0  0  0  0
   -4.6680   -1.0800   -2.6490 C   0  0  0  0  0  0  0  0  0  0  0  0
   -4.0820    0.1640   -2.0200 C   0  0  1  0  0  0  0  0  0  0  0  0
   -4.9200    0.7700   -0.9950 C   0  0  0  0  0  0  0  0  0  0  0  0
   -5.3430    0.3500    0.2240 C   0  0  0  0  0  0  0  0  0  0  0  0
   -6.1180    1.1160    0.9750 C   0  0  0  0  0  0  0  0  0  0  0  0
   -6.4780    2.3710    0.4510 C   0  0  0  0  0  0  0  0  0  0  0  0
   -5.6380    2.3410   -1.1340 S   0  0  0  0  0  0  0  0  0  0  0  0
    1.4540    0.8120    0.3420 C   0  0  0  0  0  0  0  0  0  0  0  0
  1  2  1  0
  2  3  1  0
  3  4  1  0
  4  5  2  0
  4  6  1  0
  7  6  1  1
  7  8  1  0
  7 26  1  0
  8  9  1  0
  9 10  1  0
 10 11  1  0
 11 12  1  6
 11 26  1  0
 12 13  1  0
 13 14  2  0
 13 15  1  0
 15 16  2  0
 15 20  1  0
 16 17  1  0
 16 18  1  0
 18 19  1  0
 19 20  1  0
 20 21  1  1
 21 22  2  0
 21 25  1  0
 22 23  1  0
 23 24  2  0
 24 25  1  0
M  END
