
     RDKit          3D

 26 28  0  0  0  0  0  0  0  0999 V2000
   -6.2460    1.7400    1.2510 C   0  0  0  0  0  0  0  0  0  0  0  0
   -5.0050    2.0720    0.4950 C   0  0  0  0  0  0  0  0  0  0  0  0
   -3.8860    1.0350    0.8050 C   0  0  0  0  0  0  0  0  0  0  0  0
   -2.7310    1.4660    0.0100 C   0  0  0  0  0  0  0  0  0  0  0  0
   -1.4500    0.6980    0.0640 C   0  0  0  0  0  0  0  0  0  0  0  0
   -1.5230   -0.6550   -0.4810 C   0  0  2  0  0  0  0  0  0  0  0  0
   -2.4890   -1.6010    0.1260 C   0  0  0  0  0  0  0  0  0  0  0  0
   -1.8700   -2.9330   -0.1690 C   0  0  0  0  0  0  0  0  0  0  0  0
   -2.4990   -4.0090   -0.2000 O   0  0  0  0  0  0  0  0  0  0  0  0
   -0.4280   -2.6880   -0.4000 C   0  0  0  0  0  0  0  0  0  0  0  0
   -0.2100   -1.3860   -0.5620 C   0  0  0  0  0  0  0  0  0  0  0  0
    1.1130   -0.8170   -0.6540 C   0  0  0  0  0  0  0  0  0  0  0  0
    1.5290    0.3070   -0.1870 C   0  0  0  0  0  0  0  0  0  0  0  0
    2.9980    0.6730   -0.4340 C   0  0  1  0  0  0  0  0  0  0  0  0
    3.0010    2.0480   -0.9730 C   0  0  0  0  0  0  0  0  0  0  0  0
    3.7360    3.0790   -0.6100 C   0  0  0  0  0  0  0  0  0  0  0  0
    4.7720    3.1120    0.4620 C   0  0  0  0  0  0  0  0  0  0  0  0
    5.8580    2.1890    0.1990 N   0  0  0  0  0  0  0  0  0  0  0  0
    5.4000    0.5520    0.4750 S   0  0  2  0  0  0  0  0  0  0  0  0
    6.1670   -0.0450    1.6180 O   0  0  0  0  0  0  0  0  0  0  0  0
    5.6120   -0.2600   -0.7930 O   0  0  0  0  0  0  0  0  0  0  0  0
    3.6890    0.5490    0.8210 N   0  0  0  0  0  0  0  0  0  0  0  0
    2.3870   -1.8560   -1.4290 S   0  0  0  0  0  0  0  0  0  0  0  0
    1.7860   -3.4930   -1.0670 C   0  0  0  0  0  0  0  0  0  0  0  0
    0.5670   -3.7190   -0.6410 C   0  0  0  0  0  0  0  0  0  0  0  0
    0.2320   -5.1800   -0.3960 C   0  0  0  0  0  0  0  0  0  0  0  0
  1  2  1  0
  2  3  1  0
  3  4  1  0
  4  5  1  0
  6  5  1  1
  6  7  1  0
  6 11  1  0
  7  8  1  0
  8  9  2  0
  8 10  1  0
 10 11  2  0
 10 25  1  0
 11 12  1  0
 12 13  2  3
 12 23  1  0
 14 13  1  1
 14 15  1  0
 14 22  1  0
 15 16  2  0
 16 17  1  0
 17 18  1  0
 19 18  1  6
 19 20  2  0
 19 21  2  0
 19 22  1  0
 23 24  1  0
 24 25  2  0
 25 26  1  0
M  END
