
     RDKit          3D

 27 29  0  0  0  0  0  0  0  0999 V2000
   -3.2980    2.2290    2.2470 C   0  0  0  0  0  0  0  0  0  0  0  0
   -3.6380    1.4450    0.9720 C   0  0  2  0  0  0  0  0  0  0  0  0
   -4.1510    2.3560    0.0770 O   0  0  0  0  0  0  0  0  0  0  0  0
   -4.6660    0.4110    1.3880 C   0  0  0  0  0  0  0  0  0  0  0  0
   -5.3120   -0.1690    0.3200 O   0  0  0  0  0  0  0  0  0  0  0  0
   -4.3470   -0.9140   -0.3850 C   0  0  0  0  0  0  0  0  0  0  0  0
   -3.7580    0.0220   -1.4170 C   0  0  0  0  0  0  0  0  0  0  0  0
   -2.3800    0.5210   -0.9970 C   0  0  2  0  0  0  0  0  0  0  0  0
   -1.4020   -0.5740   -1.3120 C   0  0  0  0  0  0  0  0  0  0  0  0
    0.0170   -0.2560   -0.9620 C   0  0  2  0  0  0  0  0  0  0  0  0
    0.5990    0.9210   -1.6370 C   0  0  0  0  0  0  0  0  0  0  0  0
    1.1800    0.6220   -3.3240 S   0  0  0  0  0  0  0  0  0  0  0  0
    0.8070   -1.1120   -3.7270 C   0  0  0  0  0  0  0  0  0  0  0  0
    0.8830   -1.9670   -2.5240 C   0  0  0  0  0  0  0  0  0  0  0  0
    1.0020   -3.2210   -2.6740 O   0  0  0  0  0  0  0  0  0  0  0  0
    0.8280   -1.4250   -1.1950 N   0  0  0  0  0  0  0  0  0  0  0  0
    1.5730   -2.0910   -0.1430 C   0  0  0  0  0  0  0  0  0  0  0  0
    2.9620   -1.6090    0.0010 C   0  0  0  0  0  0  0  0  0  0  0  0
    3.3700   -0.7080   -0.7680 O   0  0  0  0  0  0  0  0  0  0  0  0
    3.8350   -2.1330    0.9770 N   0  0  0  0  0  0  0  0  0  0  0  0
    5.1820   -1.6480    1.0990 C   0  0  0  0  0  0  0  0  0  0  0  0
    5.1530   -0.2140    1.4110 C   0  0  0  0  0  0  0  0  0  0  0  0
    5.0100    0.4590    2.5720 C   0  0  0  0  0  0  0  0  0  0  0  0
    5.0230    1.7960    2.5890 C   0  0  0  0  0  0  0  0  0  0  0  0
    5.1870    2.4650    1.3840 C   0  0  0  0  0  0  0  0  0  0  0  0
    5.3220    1.0850    0.2210 S   0  0  0  0  0  0  0  0  0  0  0  0
   -2.3690    0.8340    0.4840 C   0  0  0  0  0  0  0  0  0  0  0  0
  2  1  1  1
  2  3  1  0
  2  4  1  0
  2 27  1  0
  4  5  1  0
  5  6  1  0
  6  7  1  0
  7  8  1  0
  8  9  1  1
  8 27  1  0
 10  9  1  6
 10 11  1  0
 10 16  1  0
 11 12  1  0
 12 13  1  0
 13 14  1  0
 14 15  2  0
 14 16  1  0
 16 17  1  0
 17 18  1  0
 18 19  2  0
 18 20  1  0
 20 21  1  0
 21 22  1  0
 22 23  2  0
 22 26  1  0
 23 24  1  0
 24 25  2  0
 25 26  1  0
M  END
