
     RDKit          3D

 26 28  0  0  0  0  0  0  0  0999 V2000
    7.7640   -0.3360   -0.9500 N   0  0  0  0  0  0  0  0  0  0  0  0
    7.1750   -0.6070    0.3150 C   0  0  0  0  0  0  0  0  0  0  0  0
    7.3210   -1.7610    0.7940 O   0  0  0  0  0  0  0  0  0  0  0  0
    6.4060    0.4080    1.0630 C   0  0  0  0  0  0  0  0  0  0  0  0
    5.0740   -0.2010    1.5390 C   0  0  2  0  0  0  0  0  0  0  0  0
    4.3720   -0.6060    0.2530 C   0  0  0  0  0  0  0  0  0  0  0  0
    2.8940   -0.3390    0.4200 C   0  0  0  0  0  0  0  0  0  0  0  0
    2.4310    0.8210   -0.4180 C   0  0  1  0  0  0  0  0  0  0  0  0
    1.0980    0.5040   -0.9940 C   0  0  0  0  0  0  0  0  0  0  0  0
   -0.1620    0.1760    0.1750 S   0  0  2  0  0  0  0  0  0  0  0  0
   -0.4380    1.4110    0.9790 O   0  0  0  0  0  0  0  0  0  0  0  0
    0.1490   -0.9330    1.1010 O   0  0  0  0  0  0  0  0  0  0  0  0
   -1.6760   -0.1900   -0.6310 N   0  0  0  0  0  0  0  0  0  0  0  0
   -1.5510   -1.3510   -1.4410 C   0  0  0  0  0  0  0  0  0  0  0  0
   -1.9860   -2.5110   -0.5930 C   0  0  0  0  0  0  0  0  0  0  0  0
   -2.8430   -1.9180    0.4800 C   0  0  0  0  0  0  0  0  0  0  0  0
   -2.6740   -0.4390    0.3580 C   0  0  2  0  0  0  0  0  0  0  0  0
   -3.9590    0.3200    0.1220 C   0  0  2  0  0  0  0  0  0  0  0  0
   -4.8750   -0.0060    1.3130 C   0  0  0  0  0  0  0  0  0  0  0  0
   -6.1870    0.7450    1.2160 C   0  0  0  0  0  0  0  0  0  0  0  0
   -6.8620    0.3030   -0.0620 C   0  0  0  0  0  0  0  0  0  0  0  0
   -5.9690    0.7390   -1.2060 C   0  0  0  0  0  0  0  0  0  0  0  0
   -4.7020   -0.1110   -1.1020 C   0  0  0  0  0  0  0  0  0  0  0  0
    2.4560    2.1340    0.3070 C   0  0  0  0  0  0  0  0  0  0  0  0
    3.7740    2.3620    1.0220 C   0  0  0  0  0  0  0  0  0  0  0  0
    4.1080    1.1410    2.2890 S   0  0  0  0  0  0  0  0  0  0  0  0
  1  2  1  0
  2  3  2  0
  2  4  1  0
  5  4  1  6
  5  6  1  0
  5 26  1  0
  6  7  1  0
  7  8  1  0
  8  9  1  1
  8 24  1  0
 10  9  1  6
 10 11  2  0
 10 12  2  0
 10 13  1  0
 13 14  1  0
 13 17  1  0
 14 15  1  0
 15 16  1  0
 17 16  1  6
 17 18  1  0
 18 19  1  1
 18 23  1  0
 19 20  1  0
 20 21  1  0
 21 22  1  0
 22 23  1  0
 24 25  1  0
 25 26  1  0
M  END
