
     RDKit          3D

 14 14  0  0  0  0  0  0  0  0999 V2000
    2.7130   -0.9770    0.2150 C   0  0  0  0  0  0  0  0  0  0  0  0
    1.5710   -0.5640   -0.5720 N   0  0  0  0  0  0  0  0  0  0  0  0
    0.7550    0.4150    0.0850 C   0  0  1  0  0  0  0  0  0  0  0  0
    0.6590    1.6360   -0.7720 C   0  0  0  0  0  0  0  0  0  0  0  0
    1.2740    1.7410   -1.8710 O   0  0  0  0  0  0  0  0  0  0  0  0
   -0.1660    2.7000   -0.2990 N   0  0  0  0  0  0  0  0  0  0  0  0
   -1.1480    2.3850    0.6170 O   0  0  0  0  0  0  0  0  0  0  0  0
   -1.3310    1.1000    1.0620 C   0  0  0  0  0  0  0  0  0  0  0  0
   -2.0650    0.8970    2.0580 O   0  0  0  0  0  0  0  0  0  0  0  0
   -0.6520   -0.0320    0.3520 C   0  0  2  0  0  0  0  0  0  0  0  0
   -0.7640   -1.2440    1.2200 C   0  0  0  0  0  0  0  0  0  0  0  0
   -1.4260   -0.2760   -0.8850 C   0  0  0  0  0  0  0  0  0  0  0  0
   -2.7690   -0.7020   -0.7280 N   0  0  0  0  0  0  0  0  0  0  0  0
   -1.0010   -0.1400   -2.0540 O   0  0  0  0  0  0  0  0  0  0  0  0
  1  2  1  0
  3  2  1  6
  3  4  1  0
  3 10  1  0
  4  5  2  0
  4  6  1  0
  6  7  1  0
  7  8  1  0
  8  9  2  0
  8 10  1  0
 10 11  1  1
 10 12  1  0
 12 13  1  0
 12 14  2  0
M  CHG  1   2   1
M  END
