
     RDKit          3D

 14 14  0  0  0  0  0  0  0  0999 V2000
   -2.1950    2.1320   -0.5180 N   0  0  0  0  0  0  0  0  0  0  0  0
   -1.9030    1.1450    0.5190 C   0  0  1  0  0  0  0  0  0  0  0  0
   -2.7690   -0.0580    0.3340 C   0  0  0  0  0  0  0  0  0  0  0  0
   -2.4700   -0.8210   -0.7650 O   0  0  0  0  0  0  0  0  0  0  0  0
   -1.6640   -1.9210   -0.4890 C   0  0  0  0  0  0  0  0  0  0  0  0
   -0.2630   -1.5560   -0.2450 C   0  0  0  0  0  0  0  0  0  0  0  0
    0.6030   -2.4180   -0.5330 O   0  0  0  0  0  0  0  0  0  0  0  0
    0.2710   -0.3470    0.2800 N   0  0  0  0  0  0  0  0  0  0  0  0
    1.6690   -0.3120    0.6590 C   0  0  0  0  0  0  0  0  0  0  0  0
    2.4930    0.1060   -0.4840 C   0  0  0  0  0  0  0  0  0  0  0  0
    3.9130    0.2030   -0.3090 N   0  0  0  0  0  0  0  0  0  0  0  0
    1.9900    0.3660   -1.5570 O   0  0  0  0  0  0  0  0  0  0  0  0
   -0.4640    0.8590    0.4710 C   0  0  0  0  0  0  0  0  0  0  0  0
    0.2640    1.8670    0.6260 O   0  0  0  0  0  0  0  0  0  0  0  0
  2  1  1  6
  2  3  1  0
  2 13  1  0
  3  4  1  0
  4  5  1  0
  5  6  1  0
  6  7  2  0
  6  8  1  0
  8  9  1  0
  8 13  1  0
  9 10  1  0
 10 11  1  0
 10 12  2  0
 13 14  2  0
M  CHG  1  11   1
M  END
