
     RDKit          3D

 14 14  0  0  0  0  0  0  0  0999 V2000
    5.1840   -0.2760    0.1260 N   0  0  0  0  0  0  0  0  0  0  0  0
    3.8250   -0.0870    0.4660 C   0  0  0  0  0  0  0  0  0  0  0  0
    3.4830   -0.1810    1.6600 O   0  0  0  0  0  0  0  0  0  0  0  0
    2.8570    0.2070   -0.5350 N   0  0  0  0  0  0  0  0  0  0  0  0
    1.4730    0.4030   -0.2180 C   0  0  0  0  0  0  0  0  0  0  0  0
    1.1000    0.3150    0.9670 O   0  0  0  0  0  0  0  0  0  0  0  0
    0.5040    0.7050   -1.2800 C   0  0  0  0  0  0  0  0  0  0  0  0
   -0.7810    0.8750   -0.8670 O   0  0  0  0  0  0  0  0  0  0  0  0
   -1.3270   -0.2110   -0.2340 C   0  0  1  0  0  0  0  0  0  0  0  0
   -1.9300    0.0770    1.0890 C   0  0  0  0  0  0  0  0  0  0  0  0
   -3.2930    0.5040    0.7210 N   0  0  0  0  0  0  0  0  0  0  0  0
   -3.6550   -0.5620   -0.1310 C   0  0  0  0  0  0  0  0  0  0  0  0
   -4.6850   -1.1720   -0.0950 O   0  0  0  0  0  0  0  0  0  0  0  0
   -2.5230   -0.7580   -1.0520 C   0  0  0  0  0  0  0  0  0  0  0  0
  1  2  1  0
  2  3  2  0
  2  4  1  0
  4  5  1  0
  5  6  2  0
  5  7  1  0
  7  8  1  0
  9  8  1  6
  9 10  1  0
  9 14  1  0
 10 11  1  0
 11 12  1  0
 12 13  2  0
 12 14  1  0
M  CHG  1  11   1
M  END
