
     RDKit          3D

 14 14  0  0  0  0  0  0  0  0999 V2000
   -1.5020    2.0720   -0.4220 C   0  0  0  0  0  0  0  0  0  0  0  0
   -1.1480    1.1640    0.4150 N   0  0  0  0  0  0  0  0  0  0  0  0
   -0.6180   -0.0780    0.0160 C   0  0  0  0  0  0  0  0  0  0  0  0
   -1.4550   -0.9940   -0.4420 C   0  0  0  0  0  0  0  0  0  0  0  0
   -2.9110   -0.7430   -0.5410 C   0  0  0  0  0  0  0  0  0  0  0  0
   -3.6230   -1.6680    0.2420 O   0  0  0  0  0  0  0  0  0  0  0  0
    0.8230   -0.4160    0.0880 C   0  0  2  0  0  0  0  0  0  0  0  0
    1.3230   -0.3400    1.4080 O   0  0  0  0  0  0  0  0  0  0  0  0
    2.6740   -0.5920    1.5900 C   0  0  0  0  0  0  0  0  0  0  0  0
    3.1410   -1.0700    2.6600 O   0  0  0  0  0  0  0  0  0  0  0  0
    3.5910   -0.3060    0.5360 N   0  0  0  0  0  0  0  0  0  0  0  0
    3.0920    0.2240   -0.6580 N   0  0  0  0  0  0  0  0  0  0  0  0
    1.6760    0.4540   -0.7620 C   0  0  0  0  0  0  0  0  0  0  0  0
    1.2600    1.3390   -1.5330 O   0  0  0  0  0  0  0  0  0  0  0  0
  1  2  2  0
  2  3  1  0
  3  4  2  3
  7  3  1  1
  4  5  1  0
  5  6  1  0
  7  8  1  0
  7 13  1  0
  8  9  1  0
  9 10  2  0
  9 11  1  0
 11 12  1  0
 12 13  1  0
 13 14  2  0
M  CHG  1   2   1
M  END
