
     RDKit          3D

 14 14  0  0  0  0  0  0  0  0999 V2000
   -2.4530    2.2160   -0.6320 C   0  0  0  0  0  0  0  0  0  0  0  0
   -1.4660    1.1990   -0.6070 O   0  0  0  0  0  0  0  0  0  0  0  0
   -0.7250    0.9060    0.5440 C   0  0  0  0  0  0  0  0  0  0  0  0
   -0.9620    1.5750    1.5590 O   0  0  0  0  0  0  0  0  0  0  0  0
    0.3040   -0.1460    0.5900 C   0  0  1  0  0  0  0  0  0  0  0  0
   -0.3610   -1.4290    1.0550 C   0  0  0  0  0  0  0  0  0  0  0  0
   -1.4520   -1.8870    0.1830 C   0  0  0  0  0  0  0  0  0  0  0  0
   -2.5070   -1.0240    0.0520 O   0  0  0  0  0  0  0  0  0  0  0  0
    0.9830   -0.3920   -0.7150 C   0  0  0  0  0  0  0  0  0  0  0  0
    2.4170   -0.5990   -0.5530 N   0  0  0  0  0  0  0  0  0  0  0  0
    2.9310    0.6360   -0.1050 N   0  0  0  0  0  0  0  0  0  0  0  0
    2.4030    1.0120    1.1860 C   0  0  0  0  0  0  0  0  0  0  0  0
    2.9430    1.9170    1.8620 O   0  0  0  0  0  0  0  0  0  0  0  0
    1.2630    0.2900    1.6030 N   0  0  0  0  0  0  0  0  0  0  0  0
  1  2  1  0
  2  3  1  0
  3  4  2  0
  3  5  1  0
  5  6  1  1
  5  9  1  0
  5 14  1  0
  6  7  1  0
  7  8  1  0
  9 10  1  0
 10 11  1  0
 11 12  1  0
 12 13  2  0
 12 14  1  0
M  CHG  1  10   1
M  END
