
     RDKit          3D

 36 38  0  0  0  0  0  0  0  0999 V2000
    9.9310    1.3690   -1.6600 O   0  0  0  0  0  0  0  0  0  0  0  0
    8.8470    0.9950   -1.1510 C   0  0  0  0  0  0  0  0  0  0  0  0
    8.3120   -0.2630   -1.3690 C   0  0  0  0  0  0  0  0  0  0  0  0
    7.1160   -0.6150   -0.7790 C   0  0  0  0  0  0  0  0  0  0  0  0
    6.4330    0.2420    0.0210 N   0  0  0  0  0  0  0  0  0  0  0  0
    5.2160   -0.2130    0.5780 C   0  0  2  0  0  0  0  0  0  0  0  0
    4.2660   -0.5860   -0.4020 O   0  0  0  0  0  0  0  0  0  0  0  0
    3.1780   -0.9390    0.3540 C   0  0  2  0  0  0  0  0  0  0  0  0
    1.8690   -0.7800   -0.3860 C   0  0  0  0  0  0  0  0  0  0  0  0
    1.7470    0.5320   -0.7400 O   0  0  0  0  0  0  0  0  0  0  0  0
    0.3370    0.7790   -1.5530 P   0  0  0  0  0  0  0  0  0  0  0  0
   -0.2670   -0.3470   -2.5820 O   0  0  0  0  0  0  0  0  0  0  0  0
   -0.4260    2.2540   -1.4690 O   0  0  0  0  0  0  0  0  0  0  0  0
   -0.5000    0.2930   -0.3780 O   0  0  0  0  0  0  0  0  0  0  0  0
   -1.9070   -0.3350   -0.4450 P   0  0  0  0  0  0  0  0  0  0  0  0
   -2.4050    1.0090   -1.2810 O   0  0  0  0  0  0  0  0  0  0  0  0
   -2.0990   -0.3330    1.1750 O   0  0  0  0  0  0  0  0  0  0  0  0
   -3.2950   -0.9630   -0.7050 O   0  0  0  0  0  0  0  0  0  0  0  0
   -4.3690   -0.2750   -0.1300 C   0  0  1  0  0  0  0  0  0  0  0  0
   -5.2160    0.0840   -1.1680 O   0  0  0  0  0  0  0  0  0  0  0  0
   -6.5020    0.3680   -0.7390 C   0  0  2  0  0  0  0  0  0  0  0  0
   -6.5620    1.6000    0.1450 C   0  0  0  0  0  0  0  0  0  0  0  0
   -6.0890    2.6910   -0.5870 O   0  0  0  0  0  0  0  0  0  0  0  0
   -7.1880   -0.7910   -0.0810 C   0  0  1  0  0  0  0  0  0  0  0  0
   -8.2780   -1.2480   -0.8130 O   0  0  0  0  0  0  0  0  0  0  0  0
   -6.1680   -1.8820    0.1600 C   0  0  2  0  0  0  0  0  0  0  0  0
   -6.6620   -2.8890    0.9670 O   0  0  0  0  0  0  0  0  0  0  0  0
   -4.9800   -1.2020    0.8550 C   0  0  1  0  0  0  0  0  0  0  0  0
   -4.1110   -2.2130    1.2570 F   0  0  0  0  0  0  0  0  0  0  0  0
    3.1290   -0.0230    1.5550 C   0  0  1  0  0  0  0  0  0  0  0  0
    3.2180   -0.7760    2.7260 O   0  0  0  0  0  0  0  0  0  0  0  0
    4.4390    0.7640    1.3760 C   0  0  1  0  0  0  0  0  0  0  0  0
    4.9230    0.9730    2.6630 O   0  0  0  0  0  0  0  0  0  0  0  0
    6.9950    1.4500    0.1990 C   0  0  0  0  0  0  0  0  0  0  0  0
    6.4100    2.2650    0.9190 O   0  0  0  0  0  0  0  0  0  0  0  0
    8.1590    1.8200   -0.3620 N   0  0  0  0  0  0  0  0  0  0  0  0
  1  2  2  0
  2  3  1  0
  2 36  1  0
  3  4  2  0
  4  5  1  0
  6  5  1  6
  5 34  1  0
  6  7  1  0
  6 32  1  0
  7  8  1  0
  8  9  1  6
  8 30  1  0
  9 10  1  0
 10 11  1  0
 11 12  1  0
 11 13  1  0
 11 14  1  0
 14 15  1  0
 15 16  1  0
 15 17  1  0
 15 18  1  0
 19 18  1  6
 19 20  1  0
 19 28  1  0
 20 21  1  0
 21 22  1  1
 21 24  1  0
 22 23  1  0
 24 25  1  6
 24 26  1  0
 26 27  1  1
 26 28  1  0
 28 29  1  6
 30 31  1  1
 30 32  1  0
 32 33  1  1
 34 35  2  0
 34 36  1  0
M  END
