
     RDKit          3D

 35 36  0  0  0  0  0  0  0  0999 V2000
   -1.0790    3.4710   -4.5480 O   0  0  0  0  0  0  0  0  0  0  0  0
   -1.9130    3.1230   -3.2790 P   0  0  0  0  0  0  0  0  0  0  0  0
   -1.6790    1.7020   -2.3650 O   0  0  0  0  0  0  0  0  0  0  0  0
   -0.5680    1.7320   -1.5190 C   0  0  2  0  0  0  0  0  0  0  0  0
    0.5060    0.7480   -1.9150 C   0  0  0  0  0  0  0  0  0  0  0  0
    1.0910    0.0260   -0.6800 C   0  0  1  0  0  0  0  0  0  0  0  0
    2.0340   -0.8630   -1.1670 F   0  0  0  0  0  0  0  0  0  0  0  0
    1.5100    0.9820    0.1580 O   0  0  0  0  0  0  0  0  0  0  0  0
    2.4670    1.8640   -0.0930 C   0  0  0  0  0  0  0  0  0  0  0  0
    3.8580    1.4980   -0.2340 C   0  0  0  0  0  0  0  0  0  0  0  0
    4.6700    2.3150   -0.7350 O   0  0  0  0  0  0  0  0  0  0  0  0
    4.3590    0.2500    0.1770 N   0  0  0  0  0  0  0  0  0  0  0  0
    5.7850   -0.0100   -0.0250 C   0  0  0  0  0  0  0  0  0  0  0  0
    6.1000   -1.3870    0.4790 C   0  0  0  0  0  0  0  0  0  0  0  0
    5.7190   -1.5740    2.2700 P   0  0  0  0  0  0  0  0  0  0  0  0
    4.7750   -0.2630    2.8540 O   0  0  0  0  0  0  0  0  0  0  0  0
    7.1790   -1.6930    3.2020 O   0  0  0  0  0  0  0  0  0  0  0  0
    0.0700   -0.8350   -0.0190 C   0  0  0  0  0  0  0  0  0  0  0  0
   -0.1090   -0.5770    1.2030 O   0  0  0  0  0  0  0  0  0  0  0  0
   -0.6490   -1.8240   -0.5880 O   0  0  0  0  0  0  0  0  0  0  0  0
   -1.5560   -1.9270   -1.6060 C   0  0  0  0  0  0  0  0  0  0  0  0
   -2.8100   -2.6590   -1.2420 C   0  0  0  0  0  0  0  0  0  0  0  0
   -2.7350   -3.9060   -1.1500 O   0  0  0  0  0  0  0  0  0  0  0  0
   -4.0150   -2.0340   -1.0090 O   0  0  0  0  0  0  0  0  0  0  0  0
   -4.2030   -0.6460   -0.8980 C   0  0  0  0  0  0  0  0  0  0  0  0
   -3.5970   -0.0510    0.3520 C   0  0  2  0  0  0  0  0  0  0  0  0
   -4.6480   -0.0300    1.4690 C   0  0  2  0  0  0  0  0  0  0  0  0
   -5.2820   -1.3540    1.7150 C   0  0  0  0  0  0  0  0  0  0  0  0
   -6.5500   -0.9720    2.1880 O   0  0  0  0  0  0  0  0  0  0  0  0
   -6.6510    0.3500    2.0540 N   0  0  0  0  0  0  0  0  0  0  0  0
   -5.7470    0.7570    1.1220 O   0  0  0  0  0  0  0  0  0  0  0  0
   -3.2190    1.2940    0.1920 O   0  0  0  0  0  0  0  0  0  0  0  0
   -2.0510    1.9180    0.4880 C   0  0  0  0  0  0  0  0  0  0  0  0
   -2.0700    2.8440    1.3880 O   0  0  0  0  0  0  0  0  0  0  0  0
   -0.8990    1.5450   -0.1750 O   0  0  0  0  0  0  0  0  0  0  0  0
  1  2  2  0
  2  3  1  0
  4  3  1  6
  4  5  1  0
  4 35  1  0
  5  6  1  0
  6  7  1  6
  6  8  1  0
  6 18  1  0
  8  9  1  0
  9 10  1  0
 10 11  2  0
 10 12  1  0
 12 13  1  0
 13 14  1  0
 14 15  1  0
 15 16  1  0
 15 17  1  0
 18 19  2  0
 18 20  1  0
 20 21  1  0
 21 22  1  0
 22 23  2  0
 22 24  1  0
 24 25  1  0
 26 25  1  6
 26 27  1  0
 26 32  1  0
 27 28  1  6
 27 31  1  0
 28 29  1  0
 29 30  1  0
 30 31  1  0
 32 33  1  0
 33 34  2  0
 33 35  1  0
M  END
