
     RDKit          3D

 35 36  0  0  0  0  0  0  0  0999 V2000
   -7.3180   -2.9560    3.1810 C   0  0  0  0  0  0  0  0  0  0  0  0
   -6.1060   -2.2300    3.1990 O   0  0  0  0  0  0  0  0  0  0  0  0
   -5.6560   -1.4710    2.1590 C   0  0  0  0  0  0  0  0  0  0  0  0
   -6.3370   -1.3930    1.1090 O   0  0  0  0  0  0  0  0  0  0  0  0
   -4.3770   -0.7250    2.2180 C   0  0  0  0  0  0  0  0  0  0  0  0
   -4.1170   -0.0030    1.0080 N   0  0  0  0  0  0  0  0  0  0  0  0
   -3.3920   -0.4980   -0.1620 C   0  0  0  0  0  0  0  0  0  0  0  0
   -3.4170    0.6220   -1.1450 C   0  0  2  0  0  0  0  0  0  0  0  0
   -2.1670    1.3690   -1.2880 C   0  0  0  0  0  0  0  0  0  0  0  0
   -2.2010    2.6350   -1.0060 O   0  0  0  0  0  0  0  0  0  0  0  0
   -0.9110    0.9010   -1.6950 N   0  0  0  0  0  0  0  0  0  0  0  0
   -0.6600   -0.4570   -2.0540 C   0  0  1  0  0  0  0  0  0  0  0  0
   -2.0050   -1.3470   -2.9080 P   0  0  0  0  0  0  0  0  0  0  0  0
   -2.1140   -2.8890   -2.7880 O   0  0  0  0  0  0  0  0  0  0  0  0
    0.6340   -0.4750   -2.8740 C   0  0  0  0  0  0  0  0  0  0  0  0
    0.5600    0.5930   -3.7530 O   0  0  0  0  0  0  0  0  0  0  0  0
    0.7860    1.7990   -3.1260 C   0  0  0  0  0  0  0  0  0  0  0  0
    0.2240    1.8000   -1.7490 C   0  0  1  0  0  0  0  0  0  0  0  0
   -0.1900    3.1180   -1.4980 F   0  0  0  0  0  0  0  0  0  0  0  0
    1.1310    1.3860   -0.7470 O   0  0  0  0  0  0  0  0  0  0  0  0
    2.3320    1.9790   -0.4730 C   0  0  0  0  0  0  0  0  0  0  0  0
    2.6820    2.9720   -1.1500 O   0  0  0  0  0  0  0  0  0  0  0  0
    3.1880    1.4520    0.5980 C   0  0  1  0  0  0  0  0  0  0  0  0
    2.6550    0.3590    1.2420 O   0  0  0  0  0  0  0  0  0  0  0  0
    4.5340    1.1270   -0.0030 C   0  0  0  0  0  0  0  0  0  0  0  0
    5.4450    0.7270    0.9730 O   0  0  0  0  0  0  0  0  0  0  0  0
    6.9840    0.3490    0.3260 P   0  0  0  0  0  0  0  0  0  0  0  0
    6.7760   -0.1520   -1.3320 O   0  0  0  0  0  0  0  0  0  0  0  0
    7.6450   -1.0410    1.2010 O   0  0  0  0  0  0  0  0  0  0  0  0
    7.9120   -0.9610    2.5530 C   0  0  0  0  0  0  0  0  0  0  0  0
    7.6700    0.1270    3.1320 O   0  0  0  0  0  0  0  0  0  0  0  0
    8.4270   -2.0160    3.2820 O   0  0  0  0  0  0  0  0  0  0  0  0
   -4.4230    1.5390   -0.6480 O   0  0  0  0  0  0  0  0  0  0  0  0
   -4.5090    1.3160    0.7190 C   0  0  0  0  0  0  0  0  0  0  0  0
   -4.8780    2.1460    1.6030 O   0  0  0  0  0  0  0  0  0  0  0  0
  1  2  1  0
  2  3  1  0
  3  4  2  0
  3  5  1  0
  5  6  1  0
  6  7  1  0
  6 34  1  0
  7  8  1  0
  8  9  1  1
  8 33  1  0
  9 10  2  0
  9 11  1  0
 11 12  1  0
 11 18  1  0
 12 13  1  6
 12 15  1  0
 13 14  2  0
 15 16  1  0
 16 17  1  0
 17 18  1  0
 18 19  1  1
 18 20  1  0
 20 21  1  0
 21 22  2  0
 21 23  1  0
 23 24  1  6
 23 25  1  0
 25 26  1  0
 26 27  1  0
 27 28  1  0
 27 29  1  0
 29 30  1  0
 30 31  2  0
 30 32  1  0
 33 34  1  0
 34 35  2  0
M  END
