
     RDKit          3D

 35 36  0  0  0  0  0  0  0  0999 V2000
   -0.3140   -3.3640   -1.3350 C   0  0  0  0  0  0  0  0  0  0  0  0
   -0.0040   -2.1690   -2.0530 N   0  0  0  0  0  0  0  0  0  0  0  0
    0.7070   -1.2290   -1.2500 C   0  0  0  0  0  0  0  0  0  0  0  0
   -0.2030   -0.1170   -0.7260 C   0  0  2  0  0  0  0  0  0  0  0  0
    0.4000    0.3390    0.5540 C   0  0  0  0  0  0  0  0  0  0  0  0
   -0.1930    0.3160    1.6540 O   0  0  0  0  0  0  0  0  0  0  0  0
    1.7260    0.8280    0.5250 N   0  0  0  0  0  0  0  0  0  0  0  0
    2.4330    1.2940    1.6490 C   0  0  0  0  0  0  0  0  0  0  0  0
    1.8530    1.2790    2.7670 O   0  0  0  0  0  0  0  0  0  0  0  0
    3.8530    1.8080    1.5660 C   0  0  0  0  0  0  0  0  0  0  0  0
    4.2210    1.7070    0.2450 O   0  0  0  0  0  0  0  0  0  0  0  0
    5.4750    2.1340   -0.0790 C   0  0  0  0  0  0  0  0  0  0  0  0
    6.5070    1.3470    0.6720 C   0  0  0  0  0  0  0  0  0  0  0  0
    7.7820    1.8320    0.2920 O   0  0  0  0  0  0  0  0  0  0  0  0
    8.9880    0.9350    1.1490 P   0  0  0  0  0  0  0  0  0  0  0  0
    9.4710    1.8100    2.5730 O   0  0  0  0  0  0  0  0  0  0  0  0
    8.3270   -0.5810    1.6170 O   0  0  0  0  0  0  0  0  0  0  0  0
   -1.5010   -0.5690   -0.5550 O   0  0  0  0  0  0  0  0  0  0  0  0
   -2.0620   -0.8430   -1.7880 C   0  0  2  0  0  0  0  0  0  0  0  0
   -1.1110   -1.5650   -2.7150 C   0  0  0  0  0  0  0  0  0  0  0  0
   -2.5010    0.3890   -2.4950 C   0  0  0  0  0  0  0  0  0  0  0  0
   -1.8840    1.4320   -2.7770 O   0  0  0  0  0  0  0  0  0  0  0  0
   -3.8320    0.1780   -2.8240 O   0  0  0  0  0  0  0  0  0  0  0  0
   -4.1940   -1.0680   -2.6070 O   0  0  0  0  0  0  0  0  0  0  0  0
   -3.3290   -1.6300   -1.7060 C   0  0  1  0  0  0  0  0  0  0  0  0
   -3.0900   -2.9390   -2.1230 F   0  0  0  0  0  0  0  0  0  0  0  0
   -3.8560   -1.7250   -0.4010 O   0  0  0  0  0  0  0  0  0  0  0  0
   -4.2300   -0.5990    0.3510 C   0  0  0  0  0  0  0  0  0  0  0  0
   -4.0620    0.5090   -0.2210 O   0  0  0  0  0  0  0  0  0  0  0  0
   -4.7450   -0.7320    1.6330 O   0  0  0  0  0  0  0  0  0  0  0  0
   -5.1070    0.4050    2.3530 C   0  0  0  0  0  0  0  0  0  0  0  0
   -6.1800    1.2370    1.6880 C   0  0  0  0  0  0  0  0  0  0  0  0
   -7.7470    0.3330    1.4200 P   0  0  0  0  0  0  0  0  0  0  0  0
   -7.6610   -1.3380    1.8170 O   0  0  0  0  0  0  0  0  0  0  0  0
   -8.4650    0.6380   -0.1090 O   0  0  0  0  0  0  0  0  0  0  0  0
  1  2  1  0
  2  3  1  0
  2 20  1  0
  3  4  1  0
  4  5  1  1
  4 18  1  0
  5  6  2  0
  5  7  1  0
  7  8  1  0
  8  9  2  0
  8 10  1  0
 10 11  1  0
 11 12  1  0
 12 13  1  0
 13 14  1  0
 14 15  1  0
 15 16  1  0
 15 17  1  0
 18 19  1  0
 19 20  1  6
 19 21  1  0
 19 25  1  0
 21 22  2  0
 21 23  1  0
 23 24  1  0
 24 25  1  0
 25 26  1  6
 25 27  1  0
 27 28  1  0
 28 29  2  0
 28 30  1  0
 30 31  1  0
 31 32  1  0
 32 33  1  0
 33 34  1  0
 33 35  1  0
M  END
