
     RDKit          3D

 36 37  0  0  0  0  0  0  0  0999 V2000
    8.1430    1.8950    0.4580 C   0  0  0  0  0  0  0  0  0  0  0  0
    7.3810    0.9740    1.2130 O   0  0  0  0  0  0  0  0  0  0  0  0
    6.2160    0.3990    0.6530 C   0  0  0  0  0  0  0  0  0  0  0  0
    5.9420    0.7630   -0.5060 O   0  0  0  0  0  0  0  0  0  0  0  0
    5.4420   -0.4820    1.3070 O   0  0  0  0  0  0  0  0  0  0  0  0
    4.2860   -1.1550    0.9990 C   0  0  0  0  0  0  0  0  0  0  0  0
    3.0380   -0.3650    0.8360 C   0  0  1  0  0  0  0  0  0  0  0  0
    2.9920    0.5740   -0.3110 C   0  0  0  0  0  0  0  0  0  0  0  0
    1.6560    0.9400   -0.6200 O   0  0  0  0  0  0  0  0  0  0  0  0
    1.0250   -0.0560   -1.3290 C   0  0  2  0  0  0  0  0  0  0  0  0
   -0.4830    0.1470   -1.1200 C   0  0  2  0  0  0  0  0  0  0  0  0
   -0.7740    1.3840   -1.6150 F   0  0  0  0  0  0  0  0  0  0  0  0
   -0.7290    0.0420    0.3050 N   0  0  0  0  0  0  0  0  0  0  0  0
   -1.3900    1.0520    1.0590 C   0  0  0  0  0  0  0  0  0  0  0  0
   -1.2170    0.9770    2.3260 O   0  0  0  0  0  0  0  0  0  0  0  0
   -2.1660    2.0500    0.5100 O   0  0  0  0  0  0  0  0  0  0  0  0
   -3.1860    1.8760   -0.4370 C   0  0  0  0  0  0  0  0  0  0  0  0
   -4.5060    2.1930    0.2800 C   0  0  2  0  0  0  0  0  0  0  0  0
   -4.4040    1.7310    2.0790 P   0  0  0  0  0  0  0  0  0  0  0  0
   -4.7520    2.6960    3.2160 O   0  0  0  0  0  0  0  0  0  0  0  0
   -5.9010    1.2230   -0.4650 P   0  0  0  0  0  0  0  0  0  0  0  0
   -6.4700    1.9510   -1.9300 O   0  0  0  0  0  0  0  0  0  0  0  0
   -5.4380   -0.4300   -0.7130 O   0  0  0  0  0  0  0  0  0  0  0  0
   -5.0220   -0.8860    0.4940 O   0  0  0  0  0  0  0  0  0  0  0  0
   -5.1540   -2.2160    0.8740 C   0  0  0  0  0  0  0  0  0  0  0  0
   -5.7090   -2.5500    1.9760 O   0  0  0  0  0  0  0  0  0  0  0  0
   -4.6620   -3.1720    0.0160 O   0  0  0  0  0  0  0  0  0  0  0  0
   -3.4150   -3.1860   -0.5590 C   0  0  0  0  0  0  0  0  0  0  0  0
   -3.2060   -4.0210   -1.4750 O   0  0  0  0  0  0  0  0  0  0  0  0
   -2.2950   -2.2880   -0.1780 C   0  0  0  0  0  0  0  0  0  0  0  0
   -1.5160   -2.0710   -1.3330 O   0  0  0  0  0  0  0  0  0  0  0  0
   -1.2090   -0.8750   -1.9140 C   0  0  0  0  0  0  0  0  0  0  0  0
   -1.5050   -0.5610   -3.1180 O   0  0  0  0  0  0  0  0  0  0  0  0
    1.3600   -1.3500   -0.6930 C   0  0  0  0  0  0  0  0  0  0  0  0
    1.1110   -2.4800   -1.2390 O   0  0  0  0  0  0  0  0  0  0  0  0
    1.9790   -1.3650    0.5700 N   0  0  0  0  0  0  0  0  0  0  0  0
  1  2  1  0
  2  3  1  0
  3  4  2  0
  3  5  1  0
  5  6  1  0
  7  6  1  6
  7  8  1  0
  7 36  1  0
  8  9  1  0
 10  9  1  1
 10 11  1  0
 10 34  1  0
 11 12  1  6
 11 13  1  0
 11 32  1  0
 13 14  1  0
 14 15  2  0
 14 16  1  0
 16 17  1  0
 17 18  1  0
 18 19  1  1
 18 21  1  0
 19 20  2  0
 21 22  1  0
 21 23  1  0
 23 24  1  0
 24 25  1  0
 25 26  2  0
 25 27  1  0
 27 28  1  0
 28 29  2  0
 28 30  1  0
 30 31  1  0
 31 32  1  0
 32 33  2  0
 34 35  2  0
 34 36  1  0
M  END
