
     RDKit          3D

 39 40  0  0  0  0  0  0  0  0999 V2000
   -2.5640   -0.0360   -3.4960 C   0  0  0  0  0  0  0  0  0  0  0  0
   -1.3110    0.2010   -3.0600 O   0  0  0  0  0  0  0  0  0  0  0  0
   -1.1960    0.7940   -1.7690 C   0  0  1  0  0  0  0  0  0  0  0  0
   -1.8530    2.0130   -1.8200 O   0  0  0  0  0  0  0  0  0  0  0  0
   -3.1940    2.1970   -1.6080 C   0  0  0  0  0  0  0  0  0  0  0  0
   -3.7780    3.2640   -2.0360 O   0  0  0  0  0  0  0  0  0  0  0  0
   -4.0000    1.2030   -0.9000 C   0  0  2  0  0  0  0  0  0  0  0  0
   -5.0720    0.7370   -1.6860 O   0  0  0  0  0  0  0  0  0  0  0  0
   -4.6650    1.9470    0.1230 O   0  0  0  0  0  0  0  0  0  0  0  0
   -5.3770    2.8460   -0.5190 O   0  0  0  0  0  0  0  0  0  0  0  0
   -5.7070    3.9250    0.3040 C   0  0  0  0  0  0  0  0  0  0  0  0
   -4.4860    4.4880    0.7280 O   0  0  0  0  0  0  0  0  0  0  0  0
   -3.2470    0.0720   -0.3570 C   0  0  0  0  0  0  0  0  0  0  0  0
   -1.8220   -0.0910   -0.7410 C   0  0  0  0  0  0  0  0  0  0  0  0
   -1.1310   -0.9990   -0.0870 C   0  0  0  0  0  0  0  0  0  0  0  0
   -1.7190   -1.9040    0.9140 C   0  0  0  0  0  0  0  0  0  0  0  0
   -2.9150   -1.9340    1.2600 O   0  0  0  0  0  0  0  0  0  0  0  0
   -0.9250   -2.8540    1.5890 O   0  0  0  0  0  0  0  0  0  0  0  0
   -1.4630   -3.7350    2.5540 C   0  0  1  0  0  0  0  0  0  0  0  0
   -1.2500   -5.0370    2.0510 O   0  0  0  0  0  0  0  0  0  0  0  0
   -0.8350   -3.6620    3.7750 O   0  0  0  0  0  0  0  0  0  0  0  0
   -1.6710   -3.4440    4.7700 O   0  0  0  0  0  0  0  0  0  0  0  0
    0.3540   -1.0390   -0.1690 C   0  0  0  0  0  0  0  0  0  0  0  0
    1.0600   -2.0170    0.5110 O   0  0  0  0  0  0  0  0  0  0  0  0
    2.3610   -1.8610    0.9390 C   0  0  0  0  0  0  0  0  0  0  0  0
    3.3630   -2.4110    0.2150 F   0  0  0  0  0  0  0  0  0  0  0  0
    2.7670   -1.0230    2.3120 P   0  0  0  0  0  0  0  0  0  0  0  0
    4.4150   -0.8450    2.8220 O   0  0  0  0  0  0  0  0  0  0  0  0
    4.9300    0.3510    2.5330 N   0  0  0  0  0  0  0  0  0  0  0  0
    5.5920    0.3770    1.3010 N   0  0  0  0  0  0  0  0  0  0  0  0
    6.3660    1.5660    1.1130 C   0  0  0  0  0  0  0  0  0  0  0  0
    6.4030   -0.8180    1.1590 C   0  0  0  0  0  0  0  0  0  0  0  0
    7.0430   -0.7570   -0.0730 O   0  0  0  0  0  0  0  0  0  0  0  0
    0.9390   -0.1130   -0.9060 C   0  0  0  0  0  0  0  0  0  0  0  0
    2.3450   -0.1890   -0.9690 O   0  0  0  0  0  0  0  0  0  0  0  0
    3.0860   -0.1730   -2.5620 P   0  0  0  0  0  0  0  0  0  0  0  0
    2.3900   -0.9810   -3.7870 N   0  0  0  0  0  0  0  0  0  0  0  0
    0.2150    0.8910   -1.5760 N   0  0  0  0  0  0  0  0  0  0  0  0
    0.9640    2.0470   -2.0730 C   0  0  0  0  0  0  0  0  0  0  0  0
  1  2  1  0
  3  2  1  6
  3  4  1  0
  3 14  1  0
  3 38  1  0
  4  5  1  0
  5  6  2  0
  5  7  1  0
  7  8  1  6
  7  9  1  0
  7 13  1  0
  9 10  1  0
 10 11  1  0
 11 12  1  0
 13 14  1  0
 14 15  2  0
 15 16  1  0
 15 23  1  0
 16 17  2  0
 16 18  1  0
 18 19  1  0
 19 20  1  6
 19 21  1  0
 21 22  1  0
 23 24  1  0
 23 34  2  0
 24 25  1  0
 25 26  1  0
 25 27  2  3
 27 28  1  0
 28 29  1  0
 29 30  1  0
 30 31  1  0
 30 32  1  0
 32 33  1  0
 34 35  1  0
 34 38  1  0
 35 36  1  0
 36 37  2  0
 38 39  1  0
M  END
