
     RDKit          3D

 37 40  0  0  0  0  0  0  0  0999 V2000
   -1.9270    0.2940   -1.6470 N   0  0  0  0  0  0  0  0  0  0  0  0
   -1.6940   -1.0800   -1.2780 C   0  0  0  0  0  0  0  0  0  0  0  0
   -2.0530   -2.1410   -1.9390 N   0  0  0  0  0  0  0  0  0  0  0  0
   -1.6070   -3.2300   -1.2690 C   0  0  0  0  0  0  0  0  0  0  0  0
   -0.9670   -2.8130   -0.1570 C   0  0  0  0  0  0  0  0  0  0  0  0
   -1.0030   -1.4950   -0.1410 N   0  0  0  0  0  0  0  0  0  0  0  0
   -0.4990   -0.4650    0.7460 C   0  0  2  0  0  0  0  0  0  0  0  0
    0.5030   -0.9800    1.7600 C   0  0  0  0  0  0  0  0  0  0  0  0
    1.4840   -1.6840    1.1560 O   0  0  0  0  0  0  0  0  0  0  0  0
    2.0690   -1.3740    0.0300 C   0  0  0  0  0  0  0  0  0  0  0  0
    2.9780   -0.3890   -0.3800 C   0  0  0  0  0  0  0  0  0  0  0  0
    3.0000    0.3600   -1.2960 O   0  0  0  0  0  0  0  0  0  0  0  0
    4.3950   -0.2040    0.5850 N   0  0  0  0  0  0  0  0  0  0  0  0
    5.0600    0.6490   -0.2460 C   0  0  0  0  0  0  0  0  0  0  0  0
    4.9630    1.4080   -1.1040 O   0  0  0  0  0  0  0  0  0  0  0  0
    6.5680    0.5390    0.2090 N   0  0  0  0  0  0  0  0  0  0  0  0
    7.4170    1.4470   -0.4220 C   0  0  0  0  0  0  0  0  0  0  0  0
    8.7920    1.3210    0.0860 C   0  0  0  0  0  0  0  0  0  0  0  0
    9.7490    2.7830   -0.6390 P   0  0  0  0  0  0  0  0  0  0  0  0
   10.9900    3.1790    0.5000 O   0  0  0  0  0  0  0  0  0  0  0  0
    8.5540    4.0860   -0.6200 O   0  0  0  0  0  0  0  0  0  0  0  0
   -1.7850   -0.0840    1.5010 C   0  0  0  0  0  0  0  0  0  0  0  0
   -2.0240    0.1240    2.7560 N   0  0  0  0  0  0  0  0  0  0  0  0
   -3.2690    0.2140    3.0110 O   0  0  0  0  0  0  0  0  0  0  0  0
   -3.9300    0.0510    1.8400 C   0  0  0  0  0  0  0  0  0  0  0  0
   -5.7100    0.0660    1.6690 S   0  0  0  0  0  0  0  0  0  0  0  0
   -6.2690   -0.0920   -0.0100 C   0  0  0  0  0  0  0  0  0  0  0  0
   -6.8450    1.1690   -0.5950 C   0  0  2  0  0  0  0  0  0  0  0  0
   -5.8870    2.2870   -0.5670 C   0  0  0  0  0  0  0  0  0  0  0  0
   -6.8080    3.4970   -0.3460 C   0  0  0  0  0  0  0  0  0  0  0  0
   -8.0180    2.8840    0.3310 C   0  0  0  0  0  0  0  0  0  0  0  0
   -7.9820    1.5290    0.1740 O   0  0  0  0  0  0  0  0  0  0  0  0
   -3.0290   -0.1290    0.9040 N   0  0  0  0  0  0  0  0  0  0  0  0
   -0.4560   -4.0050    0.5730 C   0  0  0  0  0  0  0  0  0  0  0  0
   -1.1480   -5.1950   -0.0700 C   0  0  0  0  0  0  0  0  0  0  0  0
   -1.6140   -4.6850   -1.3890 C   0  0  0  0  0  0  0  0  0  0  0  0
   -1.9140   -5.4520   -2.3560 O   0  0  0  0  0  0  0  0  0  0  0  0
  1  2  1  0
  2  3  2  0
  2  6  1  0
  3  4  1  0
  4  5  2  0
  4 36  1  0
  5  6  1  0
  5 34  1  0
  6  7  1  0
  7  8  1  1
  7 22  1  0
  8  9  1  0
  9 10  1  0
 10 11  1  0
 11 12  2  0
 11 13  1  0
 13 14  1  0
 14 15  2  0
 14 16  1  0
 16 17  1  0
 17 18  1  0
 18 19  1  0
 19 20  1  0
 19 21  1  0
 22 23  2  0
 22 33  1  0
 23 24  1  0
 24 25  1  0
 25 26  1  0
 25 33  2  0
 26 27  1  0
 28 27  1  1
 28 29  1  0
 28 32  1  0
 29 30  1  0
 30 31  1  0
 31 32  1  0
 34 35  1  0
 35 36  1  0
 36 37  2  0
M  END
