
     RDKit          3D

 36 38  0  0  0  0  0  0  0  0999 V2000
   -0.0670    2.7940    0.1240 C   0  0  0  0  0  0  0  0  0  0  0  0
    0.3150    1.6910   -0.8320 C   0  0  2  0  0  0  0  0  0  0  0  0
   -0.9020    1.2900   -1.6080 C   0  0  0  0  0  0  0  0  0  0  0  0
   -1.0730   -0.1720   -1.7580 C   0  0  0  0  0  0  0  0  0  0  0  0
   -0.9430   -0.8890   -0.5420 N   0  0  0  0  0  0  0  0  0  0  0  0
   -1.6480   -2.1070   -0.2090 C   0  0  0  0  0  0  0  0  0  0  0  0
   -1.0090   -3.3190   -0.4110 N   0  0  0  0  0  0  0  0  0  0  0  0
   -1.8500   -4.2730   -0.0590 C   0  0  0  0  0  0  0  0  0  0  0  0
   -3.0220   -3.6820    0.3680 N   0  0  0  0  0  0  0  0  0  0  0  0
   -4.1590   -4.4670    0.7930 C   0  0  0  0  0  0  0  0  0  0  0  0
   -2.9020   -2.3420    0.2780 C   0  0  0  0  0  0  0  0  0  0  0  0
   -3.9000   -1.3240    0.6090 C   0  0  0  0  0  0  0  0  0  0  0  0
   -5.0020   -1.6000    1.2760 C   0  0  0  0  0  0  0  0  0  0  0  0
   -6.0180   -0.5790    1.6150 C   0  0  0  0  0  0  0  0  0  0  0  0
   -7.2410   -0.8710    1.7580 N   0  0  0  0  0  0  0  0  0  0  0  0
   -5.5220    0.7900    1.7730 C   0  0  0  0  0  0  0  0  0  0  0  0
   -4.6820    1.0880    0.5670 C   0  0  2  0  0  0  0  0  0  0  0  0
   -5.5810    1.4420   -0.5200 N   0  0  0  0  0  0  0  0  0  0  0  0
   -5.4710    3.0880   -0.9640 S   0  0  2  0  0  0  0  0  0  0  0  0
   -5.8850    3.1950   -2.4060 O   0  0  0  0  0  0  0  0  0  0  0  0
   -4.0960    3.6570   -0.8150 O   0  0  0  0  0  0  0  0  0  0  0  0
   -6.5540    4.0260   -0.0720 O   0  0  0  0  0  0  0  0  0  0  0  0
   -3.7050    0.0610    0.1620 C   0  0  0  0  0  0  0  0  0  0  0  0
   -0.0120   -0.4310    0.4500 C   0  0  0  0  0  0  0  0  0  0  0  0
    0.9650    0.5350   -0.1240 C   0  0  1  0  0  0  0  0  0  0  0  0
    2.0150   -0.0480   -0.8470 O   0  0  0  0  0  0  0  0  0  0  0  0
    3.3470   -0.0390   -0.4920 C   0  0  0  0  0  0  0  0  0  0  0  0
    3.6720    0.5290    0.5610 O   0  0  0  0  0  0  0  0  0  0  0  0
    4.3650   -0.6480   -1.2720 N   0  0  0  0  0  0  0  0  0  0  0  0
    5.7080   -0.6570   -0.9430 N   0  0  0  0  0  0  0  0  0  0  0  0
    6.3120    0.6410   -0.8590 C   0  0  0  0  0  0  0  0  0  0  0  0
    7.7800    0.5650   -0.4940 C   0  0  0  0  0  0  0  0  0  0  0  0
    7.9900   -0.1070    0.8400 C   0  0  0  0  0  0  0  0  0  0  0  0
    9.8080   -0.1540    1.1980 P   0  0  0  0  0  0  0  0  0  0  0  0
   10.2340    1.1650    2.2080 O   0  0  0  0  0  0  0  0  0  0  0  0
   10.6550   -0.0100   -0.3070 O   0  0  0  0  0  0  0  0  0  0  0  0
  2  1  1  1
  2  3  1  0
  2 25  1  0
  3  4  1  0
  4  5  1  0
  5  6  1  0
  5 24  1  0
  6  7  1  0
  6 11  2  0
  7  8  2  0
  8  9  1  0
  9 10  1  0
  9 11  1  0
 11 12  1  0
 12 13  2  0
 12 23  1  0
 13 14  1  0
 14 15  2  0
 14 16  1  0
 16 17  1  0
 17 18  1  6
 17 23  1  0
 18 19  1  0
 19 20  2  0
 19 21  2  0
 19 22  1  1
 24 25  1  0
 25 26  1  6
 26 27  1  0
 27 28  2  0
 27 29  1  0
 29 30  1  0
 30 31  1  0
 31 32  1  0
 32 33  1  0
 33 34  1  0
 34 35  1  0
 34 36  1  0
M  END
