
     RDKit          3D

 36 37  0  0  0  0  0  0  0  0999 V2000
   -4.9210   -2.1710   -1.0620 C   0  0  0  0  0  0  0  0  0  0  0  0
   -3.7710   -2.7260   -0.4170 N   0  0  0  0  0  0  0  0  0  0  0  0
   -2.7210   -1.8510   -0.2420 N   0  0  0  0  0  0  0  0  0  0  0  0
   -2.0180   -1.5030   -1.4340 C   0  0  0  0  0  0  0  0  0  0  0  0
   -2.9910   -0.7700    0.6430 C   0  0  1  0  0  0  0  0  0  0  0  0
   -4.0770   -0.0730    0.0290 O   0  0  0  0  0  0  0  0  0  0  0  0
   -3.4440   -1.1060    1.8990 O   0  0  0  0  0  0  0  0  0  0  0  0
   -2.8100   -1.8980    2.8190 C   0  0  0  0  0  0  0  0  0  0  0  0
   -1.7020   -2.3760    2.4870 O   0  0  0  0  0  0  0  0  0  0  0  0
   -3.3340   -2.1840    4.0770 O   0  0  0  0  0  0  0  0  0  0  0  0
   -1.8890    0.1490    0.6980 N   0  0  0  0  0  0  0  0  0  0  0  0
   -0.5010   -0.0990    1.1140 C   0  0  0  0  0  0  0  0  0  0  0  0
    0.2540    1.0410    0.4960 C   0  0  2  0  0  0  0  0  0  0  0  0
    0.9260    0.6870   -0.8080 C   0  0  0  0  0  0  0  0  0  0  0  0
    2.1170   -0.6910   -0.4710 P   0  0  0  0  0  0  0  0  0  0  0  0
    3.7670   -0.4750   -0.5960 C   0  0  0  0  0  0  0  0  0  0  0  0
    4.2830    0.7440   -0.9550 O   0  0  0  0  0  0  0  0  0  0  0  0
    4.6570   -1.6070   -0.3160 C   0  0  2  0  0  0  0  0  0  0  0  0
    3.8690   -2.8280    0.0530 C   0  0  0  0  0  0  0  0  0  0  0  0
    4.1000   -3.5160    1.0100 O   0  0  0  0  0  0  0  0  0  0  0  0
    5.7810   -1.2690    1.1530 P   0  0  0  0  0  0  0  0  0  0  0  0
    7.5210   -1.3740    0.4480 C   0  0  0  0  0  0  0  0  0  0  0  0
    7.5910   -0.7570   -0.7810 O   0  0  0  0  0  0  0  0  0  0  0  0
    6.6530   -1.0760   -1.6400 O   0  0  0  0  0  0  0  0  0  0  0  0
    5.5800   -1.9240   -1.4380 C   0  0  0  0  0  0  0  0  0  0  0  0
    5.3260   -2.9420   -2.1320 O   0  0  0  0  0  0  0  0  0  0  0  0
    1.1880    1.5750    1.4070 O   0  0  0  0  0  0  0  0  0  0  0  0
    0.5720    2.0140    2.4710 O   0  0  0  0  0  0  0  0  0  0  0  0
   -0.7770    2.0710    0.2140 C   0  0  0  0  0  0  0  0  0  0  0  0
   -0.4950    3.4880   -0.1500 C   0  0  0  0  0  0  0  0  0  0  0  0
    0.2710    3.6210   -1.3520 N   0  0  0  0  0  0  0  0  0  0  0  0
    0.4630    4.9350   -1.5780 F   0  0  0  0  0  0  0  0  0  0  0  0
   -1.9760    1.5400    0.3350 C   0  0  0  0  0  0  0  0  0  0  0  0
   -3.1620    2.2600    0.1320 O   0  0  0  0  0  0  0  0  0  0  0  0
   -3.7330    2.4110   -1.0490 O   0  0  0  0  0  0  0  0  0  0  0  0
   -4.2960    3.6780   -1.2140 C   0  0  0  0  0  0  0  0  0  0  0  0
  1  2  1  0
  2  3  1  0
  3  4  1  0
  3  5  1  0
  5  6  1  6
  5  7  1  0
  5 11  1  0
  7  8  1  0
  8  9  2  0
  8 10  1  0
 11 12  1  0
 11 33  1  0
 12 13  1  0
 13 14  1  6
 13 27  1  0
 13 29  1  0
 14 15  1  0
 15 16  2  3
 16 17  1  0
 16 18  1  0
 18 19  1  1
 18 21  1  0
 18 25  1  0
 19 20  2  0
 21 22  1  0
 22 23  1  0
 23 24  1  0
 24 25  1  0
 25 26  2  0
 27 28  1  0
 29 30  1  0
 29 33  2  0
 30 31  1  0
 31 32  1  0
 33 34  1  0
 34 35  1  0
 35 36  1  0
M  END
