
     RDKit          3D

 37 39  0  0  0  0  0  0  0  0999 V2000
   -3.8550   -5.1930   -0.3580 C   0  0  0  0  0  0  0  0  0  0  0  0
   -3.1410   -4.7760    0.8860 C   0  0  1  0  0  0  0  0  0  0  0  0
   -3.8000   -5.5180    2.0600 C   0  0  0  0  0  0  0  0  0  0  0  0
   -1.6960   -5.2370    0.8320 C   0  0  0  0  0  0  0  0  0  0  0  0
   -3.2610   -3.0370    1.2600 S   0  0  0  0  0  0  0  0  0  0  0  0
   -2.4490   -1.9720    0.0960 C   0  0  0  0  0  0  0  0  0  0  0  0
   -1.8660   -2.5940   -0.8690 O   0  0  0  0  0  0  0  0  0  0  0  0
   -2.3970   -0.5710    0.1460 N   0  0  0  0  0  0  0  0  0  0  0  0
   -1.6660    0.1180   -0.9280 C   0  0  0  0  0  0  0  0  0  0  0  0
   -0.2510    0.2790   -0.5530 C   0  0  0  0  0  0  0  0  0  0  0  0
    0.1100   -0.0800    0.5530 O   0  0  0  0  0  0  0  0  0  0  0  0
    0.7690    0.8720   -1.4880 C   0  0  2  0  0  0  0  0  0  0  0  0
    0.4390    2.2020   -1.9010 C   0  0  0  0  0  0  0  0  0  0  0  0
    0.3350    3.3560   -1.1330 O   0  0  0  0  0  0  0  0  0  0  0  0
    0.2350    2.1740   -3.1950 N   0  0  0  0  0  0  0  0  0  0  0  0
    0.4200    0.8770   -3.6920 N   0  0  0  0  0  0  0  0  0  0  0  0
    0.7340    0.0670   -2.7920 C   0  0  0  0  0  0  0  0  0  0  0  0
    1.1290   -1.2230   -2.3130 N   0  0  0  0  0  0  0  0  0  0  0  0
    2.0850   -1.0270   -1.2170 C   0  0  0  0  0  0  0  0  0  0  0  0
    2.1320    0.5010   -1.0520 C   0  0  1  0  0  0  0  0  0  0  0  0
    3.1220    0.9920   -1.9830 N   0  0  0  0  0  0  0  0  0  0  0  0
    4.3010    1.6340   -1.4830 C   0  0  0  0  0  0  0  0  0  0  0  0
    4.4090    1.7340   -0.2290 O   0  0  0  0  0  0  0  0  0  0  0  0
    5.3340    2.1530   -2.3090 N   0  0  0  0  0  0  0  0  0  0  0  0
    6.5100    2.7890   -1.7260 C   0  0  0  0  0  0  0  0  0  0  0  0
    7.4060    3.2330   -2.8550 C   0  0  0  0  0  0  0  0  0  0  0  0
    8.5880    3.8650   -2.2690 N   0  0  0  0  0  0  0  0  0  0  0  0
   -3.0070    0.1570    1.2350 C   0  0  1  0  0  0  0  0  0  0  0  0
   -2.9510    1.6580    1.0800 C   0  0  0  0  0  0  0  0  0  0  0  0
   -3.4720    2.4440    2.0000 O   0  0  0  0  0  0  0  0  0  0  0  0
   -3.0810    2.6930    3.2310 C   0  0  0  0  0  0  0  0  0  0  0  0
   -1.3810    3.4370    3.4120 P   0  0  0  0  0  0  0  0  0  0  0  0
   -0.2570    2.1660    3.7430 O   0  0  0  0  0  0  0  0  0  0  0  0
   -1.4120    4.4370    4.8460 O   0  0  0  0  0  0  0  0  0  0  0  0
   -4.3720   -0.3550    1.6220 C   0  0  0  0  0  0  0  0  0  0  0  0
   -3.8430   -0.7870    2.8250 O   0  0  0  0  0  0  0  0  0  0  0  0
   -2.5300   -0.4220    2.5320 C   0  0  0  0  0  0  0  0  0  0  0  0
  2  1  1  6
  2  3  1  0
  2  4  1  0
  2  5  1  0
  5  6  1  0
  6  7  2  0
  6  8  1  0
  8  9  1  0
  8 28  1  0
  9 10  1  0
 10 11  2  0
 12 10  1  1
 12 13  1  0
 12 17  1  0
 12 20  1  0
 13 14  1  0
 13 15  2  0
 15 16  1  0
 16 17  2  0
 17 18  1  0
 18 19  1  0
 19 20  1  0
 20 21  1  6
 21 22  1  0
 22 23  2  0
 22 24  1  0
 24 25  1  0
 25 26  1  0
 26 27  1  0
 28 29  1  1
 28 35  1  0
 28 37  1  0
 29 30  1  0
 30 31  1  0
 31 32  1  0
 32 33  1  0
 32 34  1  0
 35 36  1  0
 36 37  1  0
M  END
