
     RDKit          3D

 27 29  0  0  0  0  0  0  0  0999 V2000
   -7.7420   -0.4040   -2.1150 C   0  0  0  0  0  0  0  0  0  0  0  0
   -6.4920   -0.0810   -2.0870 O   0  0  0  0  0  0  0  0  0  0  0  0
   -5.2160    0.1590   -2.0730 C   0  0  0  0  0  0  0  0  0  0  0  0
   -4.3170   -0.8980   -2.2570 C   0  0  0  0  0  0  0  0  0  0  0  0
   -2.9460   -0.7240   -2.2460 C   0  0  0  0  0  0  0  0  0  0  0  0
   -2.0440   -1.7500   -2.4210 O   0  0  0  0  0  0  0  0  0  0  0  0
   -2.4070   -3.0840   -2.5880 C   0  0  0  0  0  0  0  0  0  0  0  0
   -2.4920    0.5450   -2.0470 C   0  0  0  0  0  0  0  0  0  0  0  0
   -1.1320    0.8930   -2.0020 O   0  0  0  0  0  0  0  0  0  0  0  0
   -0.3890    0.6310   -0.8850 C   0  0  0  0  0  0  0  0  0  0  0  0
   -1.0180    0.0250    0.0660 O   0  0  0  0  0  0  0  0  0  0  0  0
    1.0200    0.9670   -0.6580 C   0  0  1  0  0  0  0  0  0  0  0  0
    1.0530    2.5080   -0.4010 C   0  0  0  0  0  0  0  0  0  0  0  0
    1.4900    0.3270    0.4850 O   0  0  0  0  0  0  0  0  0  0  0  0
    2.7080    0.3090    1.0680 C   0  0  0  0  0  0  0  0  0  0  0  0
    3.7570    1.0610    0.6140 C   0  0  0  0  0  0  0  0  0  0  0  0
    4.9680    0.9730    1.2910 C   0  0  0  0  0  0  0  0  0  0  0  0
    6.3270    1.9710    0.7230 Cl  0  0  0  0  0  0  0  0  0  0  0  0
    5.1060    0.1500    2.3810 C   0  0  0  0  0  0  0  0  0  0  0  0
    4.0510   -0.6310    2.8600 C   0  0  0  0  0  0  0  0  0  0  0  0
    2.8690   -0.5310    2.1910 C   0  0  0  0  0  0  0  0  0  0  0  0
    4.5240   -1.4490    4.0280 C   0  0  0  0  0  0  0  0  0  0  0  0
    5.9550   -1.4340    3.7980 N   0  0  0  0  0  0  0  0  0  0  0  0
    6.2380   -0.1120    3.3030 C   0  0  0  0  0  0  0  0  0  0  0  0
   -3.3530    1.6160   -1.8640 C   0  0  0  0  0  0  0  0  0  0  0  0
   -4.6940    1.4380   -1.8750 C   0  0  0  0  0  0  0  0  0  0  0  0
   -5.6310    2.4580   -1.6990 O   0  0  0  0  0  0  0  0  0  0  0  0
  1  2  1  0
  2  3  1  0
  3  4  2  0
  3 26  1  0
  4  5  1  0
  5  6  1  0
  5  8  2  0
  6  7  1  0
  8  9  1  0
  8 25  1  0
  9 10  1  0
 10 11  2  0
 10 12  1  0
 12 13  1  1
 12 14  1  0
 14 15  1  0
 15 16  2  0
 15 21  1  0
 16 17  1  0
 17 18  1  0
 17 19  2  0
 19 20  1  0
 19 24  1  0
 20 21  2  0
 20 22  1  0
 22 23  1  0
 23 24  1  0
 25 26  2  0
 26 27  1  0
M  CHG  1  23   1
M  END
