
     RDKit          3D

 28 29  0  0  0  0  0  0  0  0999 V2000
    7.8700   -1.6140    0.4990 C   0  0  0  0  0  0  0  0  0  0  0  0
    7.6500   -0.2640    0.1550 O   0  0  0  0  0  0  0  0  0  0  0  0
    6.3640    0.0890   -0.2990 C   0  0  0  0  0  0  0  0  0  0  0  0
    5.3670   -0.8550   -0.3990 C   0  0  0  0  0  0  0  0  0  0  0  0
    4.1150   -0.4900   -0.8460 C   0  0  0  0  0  0  0  0  0  0  0  0
    3.8290    0.8110   -1.1980 C   0  0  0  0  0  0  0  0  0  0  0  0
    2.5750    1.1640   -1.6430 O   0  0  0  0  0  0  0  0  0  0  0  0
    2.3140    2.4960   -1.9930 C   0  0  0  0  0  0  0  0  0  0  0  0
    0.9370    2.7910   -2.4670 C   0  0  0  0  0  0  0  0  0  0  0  0
   -0.1060    2.5290   -1.5820 O   0  0  0  0  0  0  0  0  0  0  0  0
   -0.4570    1.3010   -1.0830 C   0  0  0  0  0  0  0  0  0  0  0  0
    0.1950    0.2930   -1.4380 O   0  0  0  0  0  0  0  0  0  0  0  0
   -1.5910    1.1570   -0.1360 C   0  0  0  0  0  0  0  0  0  0  0  0
   -1.8810   -0.0360    0.3060 C   0  0  0  0  0  0  0  0  0  0  0  0
   -2.9250   -0.2400    1.1890 O   0  0  0  0  0  0  0  0  0  0  0  0
   -3.8640   -1.2520    1.0190 C   0  0  0  0  0  0  0  0  0  0  0  0
   -3.8310   -2.1410   -0.0540 C   0  0  0  0  0  0  0  0  0  0  0  0
   -4.7630   -3.1310   -0.2070 C   0  0  0  0  0  0  0  0  0  0  0  0
   -5.7760   -3.2770    0.7130 C   0  0  0  0  0  0  0  0  0  0  0  0
   -5.8330   -2.4100    1.7860 C   0  0  0  0  0  0  0  0  0  0  0  0
   -6.8740   -2.5510    2.7430 N   0  0  0  0  0  0  0  0  0  0  0  0
   -4.8830   -1.4090    1.9310 C   0  0  0  0  0  0  0  0  0  0  0  0
   -2.3580    2.3010    0.2910 C   0  0  0  0  0  0  0  0  0  0  0  0
   -3.5000    2.2650    1.2270 C   0  0  0  0  0  0  0  0  0  0  0  0
   -2.0240    3.4390   -0.1780 O   0  0  0  0  0  0  0  0  0  0  0  0
    4.8320    1.7450   -1.0940 C   0  0  0  0  0  0  0  0  0  0  0  0
    6.0880    1.3970   -0.6500 C   0  0  0  0  0  0  0  0  0  0  0  0
    7.3680    2.5820   -0.5160 Cl  0  0  0  0  0  0  0  0  0  0  0  0
  1  2  1  0
  2  3  1  0
  3  4  2  0
  3 27  1  0
  4  5  1  0
  5  6  2  0
  6  7  1  0
  6 26  1  0
  7  8  1  0
  8  9  1  0
  9 10  1  0
 10 11  1  0
 11 12  2  0
 11 13  1  0
 13 14  2  3
 13 23  1  0
 14 15  1  0
 15 16  1  0
 16 17  2  0
 16 22  1  0
 17 18  1  0
 18 19  2  0
 19 20  1  0
 20 21  1  0
 20 22  2  0
 23 24  1  0
 23 25  2  0
 26 27  2  0
 27 28  1  0
M  CHG  1  21   1
M  END
