
     RDKit          3D

 22 24  0  0  0  0  0  0  0  0999 V2000
    5.0570   -2.8570   -1.4240 C   0  0  0  0  0  0  0  0  0  0  0  0
    3.7640   -2.3000   -1.6070 O   0  0  0  0  0  0  0  0  0  0  0  0
    3.5310   -1.0130   -1.1030 C   0  0  0  0  0  0  0  0  0  0  0  0
    2.3400   -0.4790   -1.2400 C   0  0  0  0  0  0  0  0  0  0  0  0
    1.9980    0.8550   -0.7500 N   0  0  0  0  0  0  0  0  0  0  0  0
    2.9770    1.5930   -0.1070 C   0  0  0  0  0  0  0  0  0  0  0  0
    2.6620    2.7910    0.3310 C   0  0  0  0  0  0  0  0  0  0  0  0
    0.9610    3.0560   -0.0900 S   0  0  0  0  0  0  0  0  0  0  0  0
    0.6900    1.4650   -0.8910 C   0  0  2  0  0  0  0  0  0  0  0  0
   -0.3620    0.6720   -0.2050 C   0  0  0  0  0  0  0  0  0  0  0  0
   -0.0620   -0.3930    0.4040 O   0  0  0  0  0  0  0  0  0  0  0  0
   -1.7230    1.1310   -0.2410 C   0  0  0  0  0  0  0  0  0  0  0  0
   -2.1650    2.2430   -0.8540 C   0  0  0  0  0  0  0  0  0  0  0  0
   -3.5720    2.3680   -0.6740 N   0  0  0  0  0  0  0  0  0  0  0  0
   -4.1080    1.0560   -0.2760 C   0  0  1  0  0  0  0  0  0  0  0  0
   -4.5110    0.0930   -1.6930 Cl  0  0  0  0  0  0  0  0  0  0  0  0
   -2.8740    0.4850    0.3740 C   0  0  0  0  0  0  0  0  0  0  0  0
   -2.8910   -0.4300    1.3250 C   0  0  0  0  0  0  0  0  0  0  0  0
   -4.1320   -1.0190    1.8760 C   0  0  0  0  0  0  0  0  0  0  0  0
   -4.1780   -2.4590    1.6850 N   0  0  0  0  0  0  0  0  0  0  0  0
    4.3220    0.9450    0.0280 C   0  0  0  0  0  0  0  0  0  0  0  0
    4.5730   -0.2560   -0.4320 C   0  0  0  0  0  0  0  0  0  0  0  0
  1  2  1  0
  2  3  1  0
  3  4  2  0
  3 22  1  0
  4  5  1  0
  5  6  1  0
  5  9  1  0
  6  7  2  0
  6 21  1  0
  7  8  1  0
  8  9  1  0
  9 10  1  1
 10 11  2  0
 10 12  1  0
 12 13  2  0
 12 17  1  0
 13 14  1  0
 14 15  1  0
 15 16  1  6
 15 17  1  0
 17 18  2  3
 18 19  1  0
 19 20  1  0
 21 22  2  0
M  CHG  1  20   1
M  END
