
     RDKit          3D

 28 29  0  0  0  0  0  0  0  0999 V2000
    6.2660   -2.2480   -0.8960 C   0  0  0  0  0  0  0  0  0  0  0  0
    5.0100   -1.4570   -1.1790 C   0  0  0  0  0  0  0  0  0  0  0  0
    4.9190   -0.8720   -2.2750 O   0  0  0  0  0  0  0  0  0  0  0  0
    4.0120   -1.4020   -0.2350 O   0  0  0  0  0  0  0  0  0  0  0  0
    2.8000   -0.6630   -0.4460 C   0  0  0  0  0  0  0  0  0  0  0  0
    3.1080    0.7750   -0.6060 C   0  0  0  0  0  0  0  0  0  0  0  0
    1.9330    1.7110   -0.7660 C   0  0  0  0  0  0  0  0  0  0  0  0
    0.9960    1.7050    0.3000 N   0  0  0  0  0  0  0  0  0  0  0  0
    1.3120    2.6170    1.3990 C   0  0  0  0  0  0  0  0  0  0  0  0
    0.5300    2.6580    2.4060 O   0  0  0  0  0  0  0  0  0  0  0  0
    2.4720    3.4890    1.4080 C   0  0  0  0  0  0  0  0  0  0  0  0
    2.4400    4.2950    2.5740 O   0  0  0  0  0  0  0  0  0  0  0  0
   -0.2260    1.0170    0.4100 C   0  0  0  0  0  0  0  0  0  0  0  0
   -0.7790    1.1940    1.5700 O   0  0  0  0  0  0  0  0  0  0  0  0
   -0.8760    0.1970   -0.5900 C   0  0  0  0  0  0  0  0  0  0  0  0
   -2.1090   -0.3170   -0.3560 C   0  0  0  0  0  0  0  0  0  0  0  0
   -3.0040   -0.1920    0.7890 C   0  0  0  0  0  0  0  0  0  0  0  0
   -3.4520    0.9670    1.1650 C   0  0  0  0  0  0  0  0  0  0  0  0
   -3.2490    2.3140    0.6350 C   0  0  0  0  0  0  0  0  0  0  0  0
   -4.8730    2.9850    0.1950 Cl  0  0  0  0  0  0  0  0  0  0  0  0
   -3.4480   -1.4680    1.3980 C   0  0  0  0  0  0  0  0  0  0  0  0
   -3.9810   -1.5030    2.5850 C   0  0  0  0  0  0  0  0  0  0  0  0
   -4.3600   -2.7570    3.0550 O   0  0  0  0  0  0  0  0  0  0  0  0
   -3.2270   -2.6590    0.5320 C   0  0  0  0  0  0  0  0  0  0  0  0
   -3.3730   -2.3670   -0.9420 C   0  0  0  0  0  0  0  0  0  0  0  0
   -2.5450   -1.2150   -1.4400 C   0  0  2  0  0  0  0  0  0  0  0  0
   -1.1970   -1.6410   -1.9900 C   0  0  0  0  0  0  0  0  0  0  0  0
   -0.5330   -0.2380   -1.9470 C   0  0  0  0  0  0  0  0  0  0  0  0
  1  2  1  0
  2  3  2  0
  2  4  1  0
  4  5  1  0
  5  6  1  0
  6  7  1  0
  7  8  1  0
  8  9  1  0
  8 13  1  0
  9 10  2  0
  9 11  1  0
 11 12  1  0
 13 14  2  0
 13 15  1  0
 15 16  2  0
 15 28  1  0
 16 17  1  0
 16 26  1  0
 17 18  2  3
 17 21  1  0
 18 19  1  0
 19 20  1  0
 21 22  2  3
 21 24  1  0
 22 23  1  0
 24 25  1  0
 26 25  1  1
 26 27  1  0
 27 28  1  0
M  END
