
     RDKit          3D

 28 29  0  0  0  0  0  0  0  0999 V2000
   -1.5340   -4.1350   -1.1400 C   0  0  0  0  0  0  0  0  0  0  0  0
   -1.6140   -3.3850    0.1350 C   0  0  0  0  0  0  0  0  0  0  0  0
   -1.4070   -1.9440    0.0000 N   0  0  0  0  0  0  0  0  0  0  0  0
   -0.1560   -1.4250    0.1360 C   0  0  0  0  0  0  0  0  0  0  0  0
    0.9920   -2.3500    0.3100 C   0  0  0  0  0  0  0  0  0  0  0  0
    0.1280   -0.0790    0.0750 C   0  0  0  0  0  0  0  0  0  0  0  0
    1.4630    0.4900    0.2510 C   0  0  0  0  0  0  0  0  0  0  0  0
    1.6480    1.7520    0.1690 O   0  0  0  0  0  0  0  0  0  0  0  0
    2.5610   -0.2620    0.5070 O   0  0  0  0  0  0  0  0  0  0  0  0
    3.8580    0.2830    0.6800 C   0  0  1  0  0  0  0  0  0  0  0  0
    4.4340   -0.0330    2.0300 C   0  0  0  0  0  0  0  0  0  0  0  0
    4.8210   -0.2200   -0.3720 C   0  0  0  0  0  0  0  0  0  0  0  0
   -0.9670    0.7530   -0.1420 C   0  0  0  0  0  0  0  0  0  0  0  0
   -0.7030    2.1720   -0.2110 C   0  0  0  0  0  0  0  0  0  0  0  0
   -0.4090    2.7790   -1.4100 C   0  0  0  0  0  0  0  0  0  0  0  0
   -0.1670    4.1340   -1.4090 C   0  0  0  0  0  0  0  0  0  0  0  0
   -0.2130    4.8920   -0.2450 C   0  0  0  0  0  0  0  0  0  0  0  0
   -0.5100    4.2730    0.9560 C   0  0  0  0  0  0  0  0  0  0  0  0
   -0.7510    2.9150    0.9480 C   0  0  0  0  0  0  0  0  0  0  0  0
   -1.1240    2.1930    2.5240 Cl  0  0  0  0  0  0  0  0  0  0  0  0
   -2.2460    0.2930   -0.2890 C   0  0  0  0  0  0  0  0  0  0  0  0
   -3.3690    1.2070   -0.5180 C   0  0  0  0  0  0  0  0  0  0  0  0
   -3.7650    1.5710   -1.6530 O   0  0  0  0  0  0  0  0  0  0  0  0
   -4.0600    1.7210    0.5700 O   0  0  0  0  0  0  0  0  0  0  0  0
   -2.4300   -1.1000   -0.2110 C   0  0  0  0  0  0  0  0  0  0  0  0
   -3.7860   -1.5370   -0.4420 C   0  0  0  0  0  0  0  0  0  0  0  0
   -4.7400   -0.6920   -0.5950 O   0  0  0  0  0  0  0  0  0  0  0  0
   -4.1660   -2.8510   -0.5210 O   0  0  0  0  0  0  0  0  0  0  0  0
  1  2  1  0
  2  3  1  0
  3  4  2  0
  3 25  1  0
  4  5  1  0
  4  6  1  0
  6  7  1  0
  6 13  2  0
  7  8  2  0
  7  9  1  0
  9 10  1  0
 10 11  1  1
 10 12  1  0
 13 14  1  0
 13 21  1  0
 14 15  2  0
 14 19  1  0
 15 16  1  0
 16 17  2  0
 17 18  1  0
 18 19  2  0
 19 20  1  0
 21 22  1  0
 21 25  2  0
 22 23  2  0
 22 24  1  0
 25 26  1  0
 26 27  2  0
 26 28  1  0
M  CHG  1   3   1
M  END
