
     RDKit          3D

 28 29  0  0  0  0  0  0  0  0999 V2000
   -3.6320   -3.2380   -2.3660 C   0  0  0  0  0  0  0  0  0  0  0  0
   -4.4790   -2.0670   -2.3570 C   0  0  0  0  0  0  0  0  0  0  0  0
   -4.7760   -0.9730   -1.8470 C   0  0  0  0  0  0  0  0  0  0  0  0
   -4.6740    0.0990   -0.9550 C   0  0  0  0  0  0  0  0  0  0  0  0
   -5.6720    1.0560   -1.0830 C   0  0  0  0  0  0  0  0  0  0  0  0
   -6.9630    0.8990   -2.2820 Cl  0  0  0  0  0  0  0  0  0  0  0  0
   -5.6630    2.1480   -0.2720 O   0  0  0  0  0  0  0  0  0  0  0  0
   -4.9540    2.3110    0.8670 C   0  0  0  0  0  0  0  0  0  0  0  0
   -3.8790    1.3230    1.0010 C   0  0  0  0  0  0  0  0  0  0  0  0
   -3.0770    1.4830    2.2720 C   0  0  0  0  0  0  0  0  0  0  0  0
   -2.2720    2.6600    2.1300 N   0  0  0  0  0  0  0  0  0  0  0  0
   -3.7400    0.2920    0.1480 C   0  0  0  0  0  0  0  0  0  0  0  0
   -2.4720   -0.3730    0.2480 C   0  0  0  0  0  0  0  0  0  0  0  0
   -1.6390    0.1440    1.1170 O   0  0  0  0  0  0  0  0  0  0  0  0
   -1.8820   -1.5320   -0.4300 C   0  0  0  0  0  0  0  0  0  0  0  0
   -0.4190   -1.7680    0.0500 C   0  0  0  0  0  0  0  0  0  0  0  0
    0.4210   -0.6120   -0.2780 C   0  0  0  0  0  0  0  0  0  0  0  0
   -0.0720    0.3500   -0.9180 O   0  0  0  0  0  0  0  0  0  0  0  0
    1.7540   -0.4980    0.0760 O   0  0  0  0  0  0  0  0  0  0  0  0
    2.5610    0.6010   -0.2330 C   0  0  0  0  0  0  0  0  0  0  0  0
    3.9330    0.3710    0.3080 C   0  0  0  0  0  0  0  0  0  0  0  0
    4.3430   -0.7370    1.0210 C   0  0  0  0  0  0  0  0  0  0  0  0
    5.6540   -0.5450    1.3190 C   0  0  0  0  0  0  0  0  0  0  0  0
    6.0270    0.6600    0.7950 C   0  0  0  0  0  0  0  0  0  0  0  0
    7.3740    1.2820    0.8760 C   0  0  0  0  0  0  0  0  0  0  0  0
    8.3930    0.3590    1.0300 O   0  0  0  0  0  0  0  0  0  0  0  0
    8.4790   -0.5230   -0.0230 C   0  0  0  0  0  0  0  0  0  0  0  0
    4.9620    1.1550    0.2070 O   0  0  0  0  0  0  0  0  0  0  0  0
  1  2  1  0
  2  3  2  3
  3  4  1  0
  4  5  2  0
  4 12  1  0
  5  6  1  0
  5  7  1  0
  7  8  1  0
  8  9  1  0
  9 10  1  0
  9 12  2  0
 10 11  1  0
 12 13  1  0
 13 14  2  0
 13 15  1  0
 15 16  1  0
 16 17  1  0
 17 18  2  0
 17 19  1  0
 19 20  1  0
 20 21  1  0
 21 22  2  0
 21 28  1  0
 22 23  1  0
 23 24  2  0
 24 25  1  0
 24 28  1  0
 25 26  1  0
 26 27  1  0
M  CHG  1  11   1
M  END
