
     RDKit          3D

 28 29  0  0  0  0  0  0  0  0999 V2000
    8.2920    1.6390   -1.6890 C   0  0  0  0  0  0  0  0  0  0  0  0
    8.0570    1.9430   -0.2460 C   0  0  0  0  0  0  0  0  0  0  0  0
    6.6910    1.7190    0.1300 O   0  0  0  0  0  0  0  0  0  0  0  0
    6.0870    0.4940    0.0230 C   0  0  0  0  0  0  0  0  0  0  0  0
    6.7720   -0.4630   -0.4230 O   0  0  0  0  0  0  0  0  0  0  0  0
    4.6980    0.2590    0.4030 C   0  0  0  0  0  0  0  0  0  0  0  0
    4.1410   -1.0000    0.2780 C   0  0  0  0  0  0  0  0  0  0  0  0
    2.8330   -1.2660    0.6240 C   0  0  0  0  0  0  0  0  0  0  0  0
    2.2970   -2.6400    0.4650 C   0  0  0  0  0  0  0  0  0  0  0  0
    2.0750   -0.2340    1.1080 C   0  0  0  0  0  0  0  0  0  0  0  0
    0.6800   -0.4430    1.4950 C   0  0  0  0  0  0  0  0  0  0  0  0
    0.0240    0.5350    1.9320 O   0  0  0  0  0  0  0  0  0  0  0  0
    0.0490   -1.6530    1.4070 O   0  0  0  0  0  0  0  0  0  0  0  0
   -1.2810   -1.9340    1.7560 C   0  0  0  0  0  0  0  0  0  0  0  0
   -2.2840   -1.1510    0.9910 C   0  0  0  0  0  0  0  0  0  0  0  0
   -2.6170   -1.5490   -0.2900 C   0  0  0  0  0  0  0  0  0  0  0  0
   -3.5500   -0.8310   -1.0030 C   0  0  0  0  0  0  0  0  0  0  0  0
   -4.1880    0.3010   -0.4860 C   0  0  0  0  0  0  0  0  0  0  0  0
   -5.1340    0.9670   -1.3500 C   0  0  0  0  0  0  0  0  0  0  0  0
   -6.5800    0.7080   -1.1920 C   0  0  0  0  0  0  0  0  0  0  0  0
   -6.9380   -0.6900   -1.3550 N   0  0  0  0  0  0  0  0  0  0  0  0
   -3.8650    0.6980    0.7730 C   0  0  0  0  0  0  0  0  0  0  0  0
   -4.4400    1.8400    1.4860 C   0  0  0  0  0  0  0  0  0  0  0  0
   -5.9730    1.4060    2.2650 Cl  0  0  0  0  0  0  0  0  0  0  0  0
   -2.9110   -0.0380    1.5000 C   0  0  0  0  0  0  0  0  0  0  0  0
    2.6660    0.9990    1.2170 C   0  0  0  0  0  0  0  0  0  0  0  0
    1.9480    1.9470    1.6670 O   0  0  0  0  0  0  0  0  0  0  0  0
    3.9240    1.2070    0.8720 O   0  0  0  0  0  0  0  0  0  0  0  0
  1  2  1  0
  2  3  1  0
  3  4  1  0
  4  5  2  0
  4  6  1  0
  6  7  2  0
  6 28  1  0
  7  8  1  0
  8  9  1  0
  8 10  2  0
 10 11  1  0
 10 26  1  0
 11 12  2  0
 11 13  1  0
 13 14  1  0
 14 15  1  0
 15 16  2  0
 15 25  1  0
 16 17  1  0
 17 18  2  0
 18 19  1  0
 18 22  1  0
 19 20  1  0
 20 21  1  0
 22 23  1  0
 22 25  2  0
 23 24  1  0
 26 27  2  0
 26 28  1  0
M  CHG  1  21   1
M  END
