
     RDKit          3D

 28 29  0  0  0  0  0  0  0  0999 V2000
   -4.5350    0.9830   -2.8690 C   0  0  0  0  0  0  0  0  0  0  0  0
   -3.8320    1.4860   -1.8740 C   0  0  0  0  0  0  0  0  0  0  0  0
   -2.9550    2.5850   -1.9540 O   0  0  0  0  0  0  0  0  0  0  0  0
   -2.1220    2.6400   -0.8380 C   0  0  0  0  0  0  0  0  0  0  0  0
   -2.3810    1.3870   -0.0680 C   0  0  2  0  0  0  0  0  0  0  0  0
   -1.4670    0.3110   -0.4440 N   0  0  0  0  0  0  0  0  0  0  0  0
   -0.6400    0.0310    0.7030 C   0  0  0  0  0  0  0  0  0  0  0  0
    0.5090   -0.9150    0.3360 C   0  0  2  0  0  0  0  0  0  0  0  0
    1.3210   -0.3990   -0.6250 O   0  0  0  0  0  0  0  0  0  0  0  0
    2.5970   -0.0210   -0.7490 C   0  0  0  0  0  0  0  0  0  0  0  0
    3.0380    0.4820   -1.9880 C   0  0  0  0  0  0  0  0  0  0  0  0
    4.3260    0.8930   -2.2090 C   0  0  0  0  0  0  0  0  0  0  0  0
    5.2540    0.8180   -1.1740 C   0  0  0  0  0  0  0  0  0  0  0  0
    6.5560    1.2360   -1.4050 O   0  0  0  0  0  0  0  0  0  0  0  0
    7.4780    1.1490   -0.3360 C   0  0  0  0  0  0  0  0  0  0  0  0
    4.8550    0.3350    0.0360 C   0  0  0  0  0  0  0  0  0  0  0  0
    3.5460   -0.0740    0.2330 C   0  0  0  0  0  0  0  0  0  0  0  0
    3.2040   -0.5530    1.4800 O   0  0  0  0  0  0  0  0  0  0  0  0
    4.1720   -0.6130    2.5010 C   0  0  0  0  0  0  0  0  0  0  0  0
   -0.0560   -2.2630   -0.0220 C   0  0  0  0  0  0  0  0  0  0  0  0
    0.2390   -2.7990   -1.1210 O   0  0  0  0  0  0  0  0  0  0  0  0
   -0.9010   -2.9490    0.8230 O   0  0  0  0  0  0  0  0  0  0  0  0
   -1.4520   -4.2220    0.5180 C   0  0  0  0  0  0  0  0  0  0  0  0
   -3.7890    1.0460   -0.4850 C   0  0  0  0  0  0  0  0  0  0  0  0
   -4.7610    0.5050    0.2060 C   0  0  0  0  0  0  0  0  0  0  0  0
   -6.1270    0.2310   -0.3000 C   0  0  0  0  0  0  0  0  0  0  0  0
   -4.5160    0.1030    1.6370 C   0  0  0  0  0  0  0  0  0  0  0  0
   -4.8310   -1.6650    1.6800 Cl  0  0  0  0  0  0  0  0  0  0  0  0
  1  2  2  0
  2  3  1  0
  2 24  1  0
  3  4  1  0
  4  5  1  0
  5  6  1  6
  5 24  1  0
  6  7  1  0
  8  7  1  6
  8  9  1  0
  8 20  1  0
  9 10  1  0
 10 11  2  0
 10 17  1  0
 11 12  1  0
 12 13  2  0
 13 14  1  0
 13 16  1  0
 14 15  1  0
 16 17  2  0
 17 18  1  0
 18 19  1  0
 20 21  2  0
 20 22  1  0
 22 23  1  0
 24 25  2  3
 25 26  1  0
 25 27  1  0
 27 28  1  0
M  CHG  1   6   1
M  END
