
     RDKit          3D

 21 22  0  0  0  0  0  0  0  0999 V2000
    3.3610    3.4470    1.9380 C   0  0  0  0  0  0  0  0  0  0  0  0
    3.6780    2.9110    0.5610 C   0  0  0  0  0  0  0  0  0  0  0  0
    2.9860    1.7430    0.2490 O   0  0  0  0  0  0  0  0  0  0  0  0
    1.6610    1.5520    0.1860 C   0  0  0  0  0  0  0  0  0  0  0  0
    0.9930    2.6530    0.4650 O   0  0  0  0  0  0  0  0  0  0  0  0
    0.8360    0.4140   -0.1190 C   0  0  0  0  0  0  0  0  0  0  0  0
    1.1260   -0.7940   -0.4300 C   0  0  0  0  0  0  0  0  0  0  0  0
    2.3340   -1.5440   -0.6110 C   0  0  0  0  0  0  0  0  0  0  0  0
    2.3900   -2.8570   -0.9520 C   0  0  0  0  0  0  0  0  0  0  0  0
    3.7750   -3.3190   -1.0560 C   0  0  0  0  0  0  0  0  0  0  0  0
    4.5620   -2.1470   -0.7410 C   0  0  0  0  0  0  0  0  0  0  0  0
    3.6990   -1.1370   -0.4890 C   0  0  0  0  0  0  0  0  0  0  0  0
   -0.6880    0.7710   -0.0490 C   0  0  1  0  0  0  0  0  0  0  0  0
   -0.9690    1.8050   -1.0880 C   0  0  0  0  0  0  0  0  0  0  0  0
   -1.5170   -0.3790   -0.0570 N   0  0  0  0  0  0  0  0  0  0  0  0
   -2.8460    0.0570    0.3530 C   0  0  2  0  0  0  0  0  0  0  0  0
   -3.3660   -0.7430    1.5210 C   0  0  0  0  0  0  0  0  0  0  0  0
   -4.8600   -0.6720    1.2880 C   0  0  0  0  0  0  0  0  0  0  0  0
   -5.0710   -0.0840    0.0720 O   0  0  0  0  0  0  0  0  0  0  0  0
   -3.8970   -0.2020   -0.6780 C   0  0  2  0  0  0  0  0  0  0  0  0
   -3.8630   -1.5950   -1.2420 C   0  0  0  0  0  0  0  0  0  0  0  0
  1  2  1  0
  2  3  1  0
  3  4  1  0
  4  5  2  0
  4  6  1  0
  6  7  2  3
  6 13  1  0
  7  8  1  0
  8  9  2  0
  8 12  1  0
  9 10  1  0
 10 11  1  0
 11 12  2  0
 13 14  1  6
 13 15  1  0
 16 15  1  6
 16 17  1  0
 16 20  1  0
 17 18  1  0
 18 19  1  0
 19 20  1  0
 20 21  1  1
M  CHG  1  15   1
M  END
