
     RDKit          3D

 21 22  0  0  0  0  0  0  0  0999 V2000
    2.6730    1.9960    0.1640 C   0  0  0  0  0  0  0  0  0  0  0  0
    3.8420    1.5200    0.5160 C   0  0  0  0  0  0  0  0  0  0  0  0
    4.7650    2.3310    1.1940 O   0  0  0  0  0  0  0  0  0  0  0  0
    6.0060    1.8750    1.5840 C   0  0  0  0  0  0  0  0  0  0  0  0
    6.3410    0.6340    1.3120 C   0  0  0  0  0  0  0  0  0  0  0  0
    5.4380   -0.2580    0.6160 C   0  0  0  0  0  0  0  0  0  0  0  0
    4.2220    0.1600    0.2240 C   0  0  0  0  0  0  0  0  0  0  0  0
    3.3100   -0.7720   -0.4900 C   0  0  0  0  0  0  0  0  0  0  0  0
    2.1610   -0.9180    0.2370 O   0  0  0  0  0  0  0  0  0  0  0  0
    1.2370   -1.7940   -0.3110 C   0  0  1  0  0  0  0  0  0  0  0  0
    0.9590   -2.9760    0.5790 C   0  0  0  0  0  0  0  0  0  0  0  0
   -0.5000   -2.9230    1.0000 C   0  0  0  0  0  0  0  0  0  0  0  0
   -0.7240   -1.6590    1.5380 O   0  0  0  0  0  0  0  0  0  0  0  0
   -0.8550   -0.6960    0.5330 C   0  0  2  0  0  0  0  0  0  0  0  0
   -2.3020   -0.5530    0.2040 C   0  0  0  0  0  0  0  0  0  0  0  0
   -2.5810    0.4100   -0.8200 N   0  0  0  0  0  0  0  0  0  0  0  0
   -3.8130    1.1020   -0.6870 C   0  0  2  0  0  0  0  0  0  0  0  0
   -4.7690    0.8120   -1.8510 C   0  0  0  0  0  0  0  0  0  0  0  0
   -3.5710    2.6080   -0.7160 C   0  0  0  0  0  0  0  0  0  0  0  0
   -4.5760    0.8000    0.5720 C   0  0  0  0  0  0  0  0  0  0  0  0
    0.0110   -1.0160   -0.6530 C   0  0  0  0  0  0  0  0  0  0  0  0
  1  2  2  0
  2  3  1  0
  2  7  1  0
  3  4  1  0
  4  5  2  0
  5  6  1  0
  6  7  2  0
  7  8  1  0
  8  9  1  0
 10  9  1  1
 10 11  1  0
 10 21  1  0
 11 12  1  0
 12 13  1  0
 13 14  1  0
 14 15  1  6
 14 21  1  0
 15 16  1  0
 16 17  1  0
 17 18  1  6
 17 19  1  0
 17 20  1  0
M  CHG  1  16   1
M  END
