
     RDKit          3D

 21 23  0  0  0  0  0  0  0  0999 V2000
   -3.4400    2.6600   -0.4930 C   0  0  0  0  0  0  0  0  0  0  0  0
   -2.2440    1.8100   -0.9540 C   0  0  1  0  0  0  0  0  0  0  0  0
   -1.1680    1.7890    0.0580 C   0  0  0  0  0  0  0  0  0  0  0  0
   -0.9190    0.4870    0.7370 C   0  0  2  0  0  0  0  0  0  0  0  0
   -1.4890    0.4840    2.0360 O   0  0  0  0  0  0  0  0  0  0  0  0
    0.5750    0.3450    1.0120 C   0  0  0  0  0  0  0  0  0  0  0  0
    1.3650    0.0270   -0.2120 C   0  0  1  0  0  0  0  0  0  0  0  0
    2.7500    0.0910    0.0570 N   0  0  1  0  0  0  0  0  0  0  0  0
    3.4420   -1.1750    0.0040 C   0  0  0  0  0  0  0  0  0  0  0  0
    4.9000   -0.8850    0.3350 C   0  0  0  0  0  0  0  0  0  0  0  0
    5.1100    0.4210    0.7150 O   0  0  0  0  0  0  0  0  0  0  0  0
    4.7590    1.3480   -0.2340 C   0  0  0  0  0  0  0  0  0  0  0  0
    3.4500    0.9790   -0.8840 C   0  0  0  0  0  0  0  0  0  0  0  0
    0.8820   -1.3070   -0.7330 C   0  0  0  0  0  0  0  0  0  0  0  0
   -0.5490   -1.0810   -1.1770 C   0  0  0  0  0  0  0  0  0  0  0  0
   -1.4450   -0.7010    0.0070 C   0  0  1  0  0  0  0  0  0  0  0  0
   -1.4670   -1.9080    0.9190 C   0  0  0  0  0  0  0  0  0  0  0  0
   -2.8070   -0.4190   -0.5850 C   0  0  2  0  0  0  0  0  0  0  0  0
   -3.9020   -0.3550    0.4290 C   0  0  0  0  0  0  0  0  0  0  0  0
   -3.1310   -1.6470   -1.4580 C   0  0  0  0  0  0  0  0  0  0  0  0
   -2.7170    0.6420   -1.4180 O   0  0  0  0  0  0  0  0  0  0  0  0
  2  1  1  1
  2  3  1  0
  2 21  1  0
  3  4  1  0
  4  5  1  1
  4  6  1  0
  4 16  1  0
  7  6  1  1
  7  8  1  0
  7 14  1  0
  8  9  1  6
  8 13  1  0
  9 10  1  0
 10 11  1  0
 11 12  1  0
 12 13  1  0
 14 15  1  0
 15 16  1  0
 16 17  1  1
 16 18  1  0
 18 19  1  1
 18 20  1  0
 18 21  1  0
M  CHG  1   8   1
M  END
