
     RDKit          3D

 21 22  0  0  0  0  0  0  0  0999 V2000
   -5.2700   -0.6950   -1.9580 C   0  0  0  0  0  0  0  0  0  0  0  0
   -3.8650   -0.9570   -1.5830 C   0  0  0  0  0  0  0  0  0  0  0  0
   -3.4910   -0.8170   -0.3120 C   0  0  0  0  0  0  0  0  0  0  0  0
   -4.5530   -0.3970    0.6420 C   0  0  0  0  0  0  0  0  0  0  0  0
   -4.3100    1.0160    1.1520 C   0  0  0  0  0  0  0  0  0  0  0  0
   -2.7930    1.1310    1.3530 C   0  0  0  0  0  0  0  0  0  0  0  0
   -2.1620    1.2260    0.0010 C   0  0  0  0  0  0  0  0  0  0  0  0
   -1.3030    0.0670   -0.2980 N   0  0  1  0  0  0  0  0  0  0  0  0
   -0.0000    0.1840    0.2560 C   0  0  2  0  0  0  0  0  0  0  0  0
    1.0860    0.0560   -0.8050 C   0  0  0  0  0  0  0  0  0  0  0  0
    2.1220    1.1060   -0.5990 C   0  0  0  0  0  0  0  0  0  0  0  0
    3.2140    0.7100    0.3430 C   0  0  2  0  0  0  0  0  0  0  0  0
    3.8850    1.8460    0.8570 O   0  0  0  0  0  0  0  0  0  0  0  0
    4.2690    0.0030   -0.5180 C   0  0  0  0  0  0  0  0  0  0  0  0
    5.4390   -0.4610    0.2770 C   0  0  0  0  0  0  0  0  0  0  0  0
    6.3920   -1.1370   -0.7190 C   0  0  0  0  0  0  0  0  0  0  0  0
    2.8360   -0.1090    1.4740 C   0  0  0  0  0  0  0  0  0  0  0  0
    3.6840   -0.1690    2.3970 O   0  0  0  0  0  0  0  0  0  0  0  0
    1.7000   -0.8180    1.6800 O   0  0  0  0  0  0  0  0  0  0  0  0
    0.3510   -0.7100    1.3680 C   0  0  0  0  0  0  0  0  0  0  0  0
   -2.0450   -1.0990   -0.0000 C   0  0  0  0  0  0  0  0  0  0  0  0
  1  2  1  0
  2  3  2  3
  3  4  1  0
  3 21  1  0
  4  5  1  0
  5  6  1  0
  6  7  1  0
  8  7  1  1
  8  9  1  0
  8 21  1  0
  9 10  1  6
  9 20  1  0
 10 11  1  0
 11 12  1  0
 12 13  1  1
 12 14  1  0
 12 17  1  0
 14 15  1  0
 15 16  1  0
 17 18  2  0
 17 19  1  0
 19 20  1  0
M  CHG  1   8   1
M  END
