
     RDKit          3D

 39 40  0  0  0  0  0  0  0  0999 V2000
  -10.3630    0.8380   -2.8810 C   0  0  0  0  0  0  0  0  0  0  0  0
   -9.9510   -0.1750   -1.9860 O   0  0  0  0  0  0  0  0  0  0  0  0
   -8.6460   -0.2010   -1.4580 C   0  0  0  0  0  0  0  0  0  0  0  0
   -8.3820   -1.2760   -0.5470 C   0  0  0  0  0  0  0  0  0  0  0  0
   -7.1190   -1.3220   -0.0170 C   0  0  0  0  0  0  0  0  0  0  0  0
   -6.1360   -0.3280   -0.3760 C   0  0  0  0  0  0  0  0  0  0  0  0
   -4.8480   -0.5400    0.3220 C   0  0  0  0  0  0  0  0  0  0  0  0
   -3.8610   -1.3600   -0.3530 C   0  0  0  0  0  0  0  0  0  0  0  0
   -3.1730   -1.0330   -1.6180 C   0  0  0  0  0  0  0  0  0  0  0  0
   -2.4700    0.0920   -1.7330 O   0  0  0  0  0  0  0  0  0  0  0  0
   -1.5190    0.4190   -0.8730 C   0  0  0  0  0  0  0  0  0  0  0  0
   -0.3510   -0.3700   -0.5320 C   0  0  1  0  0  0  0  0  0  0  0  0
   -0.6560   -1.6110    0.0520 O   0  0  0  0  0  0  0  0  0  0  0  0
    0.6790   -0.7130   -1.6170 C   0  0  0  0  0  0  0  0  0  0  0  0
    1.7020   -1.4650   -1.1110 C   0  0  0  0  0  0  0  0  0  0  0  0
    2.8900   -1.7680   -1.2350 O   0  0  0  0  0  0  0  0  0  0  0  0
    1.2640   -2.2630    0.1320 O   0  0  0  0  0  0  0  0  0  0  0  0
    2.1610   -3.0870    0.7650 C   0  0  0  0  0  0  0  0  0  0  0  0
    3.4700   -2.4660    1.1370 C   0  0  0  0  0  0  0  0  0  0  0  0
    4.5680   -3.3270    1.3060 C   0  0  0  0  0  0  0  0  0  0  0  0
    5.8330   -2.7690    1.5960 C   0  0  0  0  0  0  0  0  0  0  0  0
    6.9450   -3.6350    1.7770 N   0  0  0  0  0  0  0  0  0  0  0  0
    5.8970   -1.4470    1.6900 C   0  0  0  0  0  0  0  0  0  0  0  0
    7.2450   -0.7960    1.8860 C   0  0  0  0  0  0  0  0  0  0  0  0
    4.8600   -0.4990    1.5450 C   0  0  0  0  0  0  0  0  0  0  0  0
    5.0050    0.8810    1.6830 C   0  0  0  0  0  0  0  0  0  0  0  0
    6.0620    1.4500    2.0360 O   0  0  0  0  0  0  0  0  0  0  0  0
    3.9360    1.8160    1.4250 O   0  0  0  0  0  0  0  0  0  0  0  0
    4.1990    3.2140    1.5910 C   0  0  2  0  0  0  0  0  0  0  0  0
    3.1600    4.0060    1.9650 C   0  0  0  0  0  0  0  0  0  0  0  0
    2.1950    4.7170    2.3160 N   0  0  0  0  0  0  0  0  0  0  0  0
    4.7410    3.5980    0.1390 C   0  0  0  0  0  0  0  0  0  0  0  0
    5.1090    4.9960    0.0700 C   0  0  0  0  0  0  0  0  0  0  0  0
    6.4180    5.4230   -0.3370 N   0  0  0  0  0  0  0  0  0  0  0  0
    4.2850    5.9350    0.3640 O   0  0  0  0  0  0  0  0  0  0  0  0
    3.6320   -1.1470    1.2560 C   0  0  0  0  0  0  0  0  0  0  0  0
   -6.4150    0.6290   -1.1990 C   0  0  0  0  0  0  0  0  0  0  0  0
   -5.5480    1.6400   -1.6300 O   0  0  0  0  0  0  0  0  0  0  0  0
   -7.7220    0.6840   -1.7510 C   0  0  0  0  0  0  0  0  0  0  0  0
  1  2  1  0
  2  3  1  0
  3  4  2  0
  3 39  1  0
  4  5  1  0
  5  6  2  0
  6  7  1  0
  6 37  1  0
  7  8  1  0
  8  9  1  0
  9 10  1  0
 10 11  1  0
 11 12  1  0
 12 13  1  6
 12 14  1  0
 14 15  1  0
 15 16  2  0
 15 17  1  0
 17 18  1  0
 18 19  1  0
 19 20  2  0
 19 36  1  0
 20 21  1  0
 21 22  1  0
 21 23  2  0
 23 24  1  0
 23 25  1  0
 25 26  1  0
 25 36  2  0
 26 27  2  0
 26 28  1  0
 28 29  1  0
 29 30  1  6
 29 32  1  0
 30 31  3  0
 32 33  1  0
 33 34  1  0
 33 35  2  0
 37 38  1  0
 37 39  2  0
M  END
