
     RDKit          3D

 39 40  0  0  0  0  0  0  0  0999 V2000
    2.6590    3.1520   -2.5340 C   0  0  0  0  0  0  0  0  0  0  0  0
    1.9530    2.0110   -3.1910 C   0  0  0  0  0  0  0  0  0  0  0  0
    1.1960    1.2010   -2.3410 O   0  0  0  0  0  0  0  0  0  0  0  0
    1.7680    0.4880   -1.2960 C   0  0  0  0  0  0  0  0  0  0  0  0
    3.1030    0.5200   -1.0470 C   0  0  0  0  0  0  0  0  0  0  0  0
    3.7180   -0.1980    0.0180 C   0  0  0  0  0  0  0  0  0  0  0  0
    5.1550   -0.0390    0.1540 C   0  0  0  0  0  0  0  0  0  0  0  0
    5.8240    0.1390   -0.9550 O   0  0  0  0  0  0  0  0  0  0  0  0
    5.9630   -0.0360    1.2860 N   0  0  0  0  0  0  0  0  0  0  0  0
    7.4100    0.1330    1.1850 C   0  0  1  0  0  0  0  0  0  0  0  0
    7.7430    1.3860    1.9960 C   0  0  0  0  0  0  0  0  0  0  0  0
    8.1580   -1.0070    1.8070 C   0  0  0  0  0  0  0  0  0  0  0  0
    7.8670   -2.2300    1.2180 O   0  0  0  0  0  0  0  0  0  0  0  0
    2.9310   -0.9550    0.8280 C   0  0  0  0  0  0  0  0  0  0  0  0
    3.4390   -1.7520    1.9560 C   0  0  0  0  0  0  0  0  0  0  0  0
    4.2610   -2.9430    1.4400 C   0  0  0  0  0  0  0  0  0  0  0  0
    3.4110   -3.7370    0.6360 O   0  0  0  0  0  0  0  0  0  0  0  0
    1.5520   -0.9720    0.5490 C   0  0  0  0  0  0  0  0  0  0  0  0
    0.9570   -0.2920   -0.4610 C   0  0  0  0  0  0  0  0  0  0  0  0
   -0.3950   -0.2910   -0.7570 O   0  0  0  0  0  0  0  0  0  0  0  0
   -1.2930   -1.0450    0.0240 C   0  0  0  0  0  0  0  0  0  0  0  0
   -2.7190   -0.8840   -0.5050 C   0  0  0  0  0  0  0  0  0  0  0  0
   -3.1020    0.5970   -0.4770 C   0  0  2  0  0  0  0  0  0  0  0  0
   -2.9820    1.0410    0.8930 C   0  0  0  0  0  0  0  0  0  0  0  0
   -3.5410    1.5190    1.9160 C   0  0  0  0  0  0  0  0  0  0  0  0
   -4.8210    1.9630    2.3910 C   0  0  0  0  0  0  0  0  0  0  0  0
   -4.9420    2.4750    3.6440 C   0  0  0  0  0  0  0  0  0  0  0  0
   -6.2050    2.9490    4.1830 C   0  0  0  0  0  0  0  0  0  0  0  0
   -7.2890    2.4430    3.5190 O   0  0  0  0  0  0  0  0  0  0  0  0
   -7.0590    1.4930    2.7020 O   0  0  0  0  0  0  0  0  0  0  0  0
   -6.1190    1.8620    1.6980 C   0  0  0  0  0  0  0  0  0  0  0  0
   -4.4110    0.7640   -1.1680 C   0  0  1  0  0  0  0  0  0  0  0  0
   -4.7310    2.1700   -1.0870 O   0  0  0  0  0  0  0  0  0  0  0  0
   -4.3630    0.5510   -2.6780 C   0  0  0  0  0  0  0  0  0  0  0  0
   -4.1710   -0.7770   -3.1340 N   0  0  0  0  0  0  0  0  0  0  0  0
   -5.1240   -1.8090   -2.8000 C   0  0  0  0  0  0  0  0  0  0  0  0
   -6.1200   -1.5310   -2.1100 O   0  0  0  0  0  0  0  0  0  0  0  0
   -4.9490   -3.1500   -3.2480 N   0  0  0  0  0  0  0  0  0  0  0  0
   -5.9420   -4.1490   -2.8830 C   0  0  0  0  0  0  0  0  0  0  0  0
  1  2  1  0
  2  3  1  0
  3  4  1  0
  4  5  2  0
  4 19  1  0
  5  6  1  0
  6  7  1  0
  6 14  2  0
  7  8  2  0
  7  9  1  0
  9 10  1  0
 10 11  1  1
 10 12  1  0
 12 13  1  0
 14 15  1  0
 14 18  1  0
 15 16  1  0
 16 17  1  0
 18 19  2  0
 19 20  1  0
 20 21  1  0
 21 22  1  0
 23 22  1  1
 23 24  1  0
 23 32  1  0
 24 25  2  3
 25 26  1  0
 26 27  2  0
 26 31  1  0
 27 28  1  0
 28 29  1  0
 29 30  1  0
 30 31  1  0
 32 33  1  6
 32 34  1  0
 34 35  1  0
 35 36  1  0
 36 37  2  0
 36 38  1  0
 38 39  1  0
M  END
