
     RDKit          3D

 39 40  0  0  0  0  0  0  0  0999 V2000
   12.0040   -0.4920    1.1980 C   0  0  0  0  0  0  0  0  0  0  0  0
   10.5940    0.0310    1.3620 C   0  0  0  0  0  0  0  0  0  0  0  0
    9.7750   -0.3880    0.3150 O   0  0  0  0  0  0  0  0  0  0  0  0
   10.2020    0.0310   -0.9100 C   0  0  0  0  0  0  0  0  0  0  0  0
    9.3040   -0.4360   -1.9960 C   0  0  0  0  0  0  0  0  0  0  0  0
    7.9470   -0.0160   -1.9490 N   0  0  0  0  0  0  0  0  0  0  0  0
    6.9970   -0.2920   -0.9420 C   0  0  0  0  0  0  0  0  0  0  0  0
    7.3140   -0.9750    0.0330 O   0  0  0  0  0  0  0  0  0  0  0  0
    5.6110    0.2370   -1.0480 C   0  0  0  0  0  0  0  0  0  0  0  0
    5.3080    0.9170   -2.0250 O   0  0  0  0  0  0  0  0  0  0  0  0
    4.6530   -0.0350   -0.0460 N   0  0  0  0  0  0  0  0  0  0  0  0
    3.3160    0.3830    0.0110 C   0  0  0  0  0  0  0  0  0  0  0  0
    2.7550    1.1500   -0.9570 C   0  0  0  0  0  0  0  0  0  0  0  0
    1.4110    1.5280   -0.8240 C   0  0  0  0  0  0  0  0  0  0  0  0
    0.6500    1.1420    0.2570 C   0  0  0  0  0  0  0  0  0  0  0  0
   -0.6480    1.4450    0.4860 O   0  0  0  0  0  0  0  0  0  0  0  0
   -1.6060    2.1560   -0.1970 C   0  0  0  0  0  0  0  0  0  0  0  0
   -2.0020    1.6450   -1.5440 C   0  0  0  0  0  0  0  0  0  0  0  0
   -2.5220    0.3870   -1.6320 O   0  0  0  0  0  0  0  0  0  0  0  0
   -3.6760   -0.1220   -1.1060 C   0  0  0  0  0  0  0  0  0  0  0  0
   -4.6110    0.5700   -0.3690 C   0  0  0  0  0  0  0  0  0  0  0  0
   -5.7690    0.0280    0.1560 C   0  0  0  0  0  0  0  0  0  0  0  0
   -6.7340    0.8330    0.9600 C   0  0  2  0  0  0  0  0  0  0  0  0
   -7.1780    0.1410    2.2130 C   0  0  0  0  0  0  0  0  0  0  0  0
   -7.8350    1.4460    0.1600 C   0  0  0  0  0  0  0  0  0  0  0  0
   -8.7210    0.5280   -0.5900 C   0  0  1  0  0  0  0  0  0  0  0  0
   -8.0880   -0.2580   -1.5430 O   0  0  0  0  0  0  0  0  0  0  0  0
   -9.6320   -0.2930    0.3020 C   0  0  0  0  0  0  0  0  0  0  0  0
  -10.6330   -0.9170   -0.5430 N   0  0  0  0  0  0  0  0  0  0  0  0
   -5.9920   -1.3100   -0.0860 C   0  0  0  0  0  0  0  0  0  0  0  0
   -5.0750   -2.0290   -0.8210 C   0  0  0  0  0  0  0  0  0  0  0  0
   -3.9440   -1.4760   -1.3270 C   0  0  0  0  0  0  0  0  0  0  0  0
   -3.0080   -2.2070   -2.0760 O   0  0  0  0  0  0  0  0  0  0  0  0
   -3.1820   -3.5640   -2.3530 C   0  0  0  0  0  0  0  0  0  0  0  0
    1.2750    0.3460    1.2360 C   0  0  0  0  0  0  0  0  0  0  0  0
    0.5630   -0.0840    2.3630 O   0  0  0  0  0  0  0  0  0  0  0  0
    2.5730   -0.0260    1.1210 C   0  0  0  0  0  0  0  0  0  0  0  0
    3.1770   -0.8280    2.1220 O   0  0  0  0  0  0  0  0  0  0  0  0
    3.7970   -0.1020    3.1820 C   0  0  0  0  0  0  0  0  0  0  0  0
  1  2  1  0
  2  3  1  0
  3  4  1  0
  4  5  1  0
  5  6  1  0
  6  7  1  0
  7  8  2  0
  7  9  1  0
  9 10  2  0
  9 11  1  0
 11 12  1  0
 12 13  2  0
 12 37  1  0
 13 14  1  0
 14 15  2  0
 15 16  1  0
 15 35  1  0
 16 17  1  0
 17 18  1  0
 18 19  1  0
 19 20  1  0
 20 21  2  0
 20 32  1  0
 21 22  1  0
 22 23  1  0
 22 30  2  0
 23 24  1  1
 23 25  1  0
 25 26  1  0
 26 27  1  1
 26 28  1  0
 28 29  1  0
 30 31  1  0
 31 32  2  0
 32 33  1  0
 33 34  1  0
 35 36  1  0
 35 37  2  0
 37 38  1  0
 38 39  1  0
M  END
