
     RDKit          3D

 39 40  0  0  0  0  0  0  0  0999 V2000
    7.5000    4.3540    0.1990 C   0  0  0  0  0  0  0  0  0  0  0  0
    7.5340    4.7020   -1.2770 C   0  0  0  0  0  0  0  0  0  0  0  0
    7.7040    3.5960   -2.0970 O   0  0  0  0  0  0  0  0  0  0  0  0
    6.7490    2.6100   -1.9450 C   0  0  0  0  0  0  0  0  0  0  0  0
    7.0330    1.3610   -2.7880 C   0  0  0  0  0  0  0  0  0  0  0  0
    6.0120    0.3910   -2.5760 N   0  0  0  0  0  0  0  0  0  0  0  0
    4.6860    0.3350   -3.0590 C   0  0  0  0  0  0  0  0  0  0  0  0
    4.2930    1.2160   -3.8630 O   0  0  0  0  0  0  0  0  0  0  0  0
    3.8100   -0.7460   -2.6130 C   0  0  0  0  0  0  0  0  0  0  0  0
    4.0370   -1.4250   -1.6290 O   0  0  0  0  0  0  0  0  0  0  0  0
    2.5790   -1.0480   -3.3830 N   0  0  0  0  0  0  0  0  0  0  0  0
    1.8240   -2.1020   -2.7330 C   0  0  0  0  0  0  0  0  0  0  0  0
    1.5790   -1.8210   -1.3900 C   0  0  0  0  0  0  0  0  0  0  0  0
    0.8490   -2.6800   -0.6190 C   0  0  0  0  0  0  0  0  0  0  0  0
    0.3500   -3.8370   -1.1650 C   0  0  0  0  0  0  0  0  0  0  0  0
   -0.4110   -4.7100   -0.3400 O   0  0  0  0  0  0  0  0  0  0  0  0
   -0.8640   -4.0940    0.8730 C   0  0  0  0  0  0  0  0  0  0  0  0
   -1.9420   -3.1030    0.4400 C   0  0  0  0  0  0  0  0  0  0  0  0
   -2.5810   -2.3320    1.1150 O   0  0  0  0  0  0  0  0  0  0  0  0
   -3.2690   -1.4640    1.8690 C   0  0  0  0  0  0  0  0  0  0  0  0
   -2.6720   -0.3430    2.4480 C   0  0  0  0  0  0  0  0  0  0  0  0
   -3.3940    0.5790    3.2290 C   0  0  0  0  0  0  0  0  0  0  0  0
   -2.7400    1.7500    3.7850 C   0  0  2  0  0  0  0  0  0  0  0  0
   -3.1650    2.0320    5.2210 C   0  0  0  0  0  0  0  0  0  0  0  0
   -2.5730    2.9790    2.9860 C   0  0  0  0  0  0  0  0  0  0  0  0
   -3.7110    3.6710    2.3740 C   0  0  1  0  0  0  0  0  0  0  0  0
   -3.1160    4.9310    1.8690 O   0  0  0  0  0  0  0  0  0  0  0  0
   -4.0530    3.1060    0.9830 C   0  0  0  0  0  0  0  0  0  0  0  0
   -4.6090    1.8310    0.9530 N   0  0  0  0  0  0  0  0  0  0  0  0
   -4.7350    0.3120    3.4050 C   0  0  0  0  0  0  0  0  0  0  0  0
   -5.3250   -0.8180    2.8220 C   0  0  0  0  0  0  0  0  0  0  0  0
   -4.6260   -1.7070    2.0590 C   0  0  0  0  0  0  0  0  0  0  0  0
   -5.2450   -2.8020    1.4960 O   0  0  0  0  0  0  0  0  0  0  0  0
   -6.6290   -3.0290    1.6580 C   0  0  0  0  0  0  0  0  0  0  0  0
    0.5770   -4.1360   -2.5050 C   0  0  0  0  0  0  0  0  0  0  0  0
    0.0810   -5.2780   -3.0580 O   0  0  0  0  0  0  0  0  0  0  0  0
    1.3240   -3.2220   -3.2480 C   0  0  0  0  0  0  0  0  0  0  0  0
    1.5300   -3.5330   -4.6400 O   0  0  0  0  0  0  0  0  0  0  0  0
    0.5100   -3.0180   -5.5210 C   0  0  0  0  0  0  0  0  0  0  0  0
  1  2  1  0
  2  3  1  0
  3  4  1  0
  4  5  1  0
  5  6  1  0
  6  7  1  0
  7  8  2  0
  7  9  1  0
  9 10  2  0
  9 11  1  0
 11 12  1  0
 12 13  2  0
 12 37  1  0
 13 14  1  0
 14 15  2  0
 15 16  1  0
 15 35  1  0
 16 17  1  0
 17 18  1  0
 18 19  1  0
 19 20  1  0
 20 21  2  0
 20 32  1  0
 21 22  1  0
 22 23  1  0
 22 30  2  0
 23 24  1  1
 23 25  1  0
 25 26  1  0
 26 27  1  6
 26 28  1  0
 28 29  1  0
 30 31  1  0
 31 32  2  0
 32 33  1  0
 33 34  1  0
 35 36  1  0
 35 37  2  0
 37 38  1  0
 38 39  1  0
M  END
