
     RDKit          3D

 39 40  0  0  0  0  0  0  0  0999 V2000
  -10.2350   -2.5100    1.2850 C   0  0  0  0  0  0  0  0  0  0  0  0
  -10.2210   -1.0880    1.2390 O   0  0  0  0  0  0  0  0  0  0  0  0
   -9.1420   -0.4070    0.6610 C   0  0  0  0  0  0  0  0  0  0  0  0
   -8.0970   -1.1020    0.1350 C   0  0  0  0  0  0  0  0  0  0  0  0
   -7.0280   -0.4210   -0.4370 C   0  0  0  0  0  0  0  0  0  0  0  0
   -6.9950    0.9550   -0.4900 C   0  0  0  0  0  0  0  0  0  0  0  0
   -5.8350    1.6220   -1.1030 C   0  0  0  0  0  0  0  0  0  0  0  0
   -4.8950    2.2030   -0.0680 C   0  0  0  0  0  0  0  0  0  0  0  0
   -4.3680    1.1460    0.8540 C   0  0  0  0  0  0  0  0  0  0  0  0
   -3.6690    0.1280    0.2450 O   0  0  0  0  0  0  0  0  0  0  0  0
   -2.5310    0.5160   -0.4350 C   0  0  0  0  0  0  0  0  0  0  0  0
   -1.8240   -0.6510   -1.0700 C   0  0  1  0  0  0  0  0  0  0  0  0
   -2.6630   -1.3020   -2.0030 O   0  0  0  0  0  0  0  0  0  0  0  0
   -0.6180   -0.1800   -1.8290 C   0  0  0  0  0  0  0  0  0  0  0  0
    0.4000    0.4960   -1.0080 C   0  0  0  0  0  0  0  0  0  0  0  0
    1.3940    0.9770   -1.6090 O   0  0  0  0  0  0  0  0  0  0  0  0
    0.3690    0.6520    0.3610 O   0  0  0  0  0  0  0  0  0  0  0  0
    1.4230    1.3260    1.0660 C   0  0  0  0  0  0  0  0  0  0  0  0
    2.6480    0.5030    0.7600 C   0  0  0  0  0  0  0  0  0  0  0  0
    2.5740   -0.8680    0.8910 C   0  0  0  0  0  0  0  0  0  0  0  0
    3.6690   -1.6540    0.6260 C   0  0  0  0  0  0  0  0  0  0  0  0
    3.5630   -3.0560    0.7680 N   0  0  0  0  0  0  0  0  0  0  0  0
    4.8400   -1.0320    0.2270 C   0  0  0  0  0  0  0  0  0  0  0  0
    6.0230   -1.8750   -0.0580 C   0  0  0  0  0  0  0  0  0  0  0  0
    4.9700    0.3330    0.0800 C   0  0  0  0  0  0  0  0  0  0  0  0
    6.1970    0.9980   -0.3360 C   0  0  0  0  0  0  0  0  0  0  0  0
    6.1900    2.2610   -0.4470 O   0  0  0  0  0  0  0  0  0  0  0  0
    7.3750    0.3720   -0.6220 O   0  0  0  0  0  0  0  0  0  0  0  0
    8.5550    1.0440   -1.0250 C   0  0  2  0  0  0  0  0  0  0  0  0
    9.0070    0.5970   -2.3440 C   0  0  0  0  0  0  0  0  0  0  0  0
    9.3600    0.2330   -3.3830 N   0  0  0  0  0  0  0  0  0  0  0  0
    9.6040    0.7910    0.0330 C   0  0  0  0  0  0  0  0  0  0  0  0
    9.8490   -0.6590    0.1380 C   0  0  0  0  0  0  0  0  0  0  0  0
   10.7870   -1.2140    1.0610 N   0  0  0  0  0  0  0  0  0  0  0  0
    9.2360   -1.4750   -0.5880 O   0  0  0  0  0  0  0  0  0  0  0  0
    3.8260    1.0920    0.3610 C   0  0  0  0  0  0  0  0  0  0  0  0
   -8.0640    1.6440    0.0480 C   0  0  0  0  0  0  0  0  0  0  0  0
   -8.0910    3.0380    0.0260 O   0  0  0  0  0  0  0  0  0  0  0  0
   -9.1320    0.9750    0.6200 C   0  0  0  0  0  0  0  0  0  0  0  0
  1  2  1  0
  2  3  1  0
  3  4  2  0
  3 39  1  0
  4  5  1  0
  5  6  2  0
  6  7  1  0
  6 37  1  0
  7  8  1  0
  8  9  1  0
  9 10  1  0
 10 11  1  0
 11 12  1  0
 12 13  1  6
 12 14  1  0
 14 15  1  0
 15 16  2  0
 15 17  1  0
 17 18  1  0
 18 19  1  0
 19 20  2  0
 19 36  1  0
 20 21  1  0
 21 22  1  0
 21 23  2  0
 23 24  1  0
 23 25  1  0
 25 26  1  0
 25 36  2  0
 26 27  2  0
 26 28  1  0
 28 29  1  0
 29 30  1  6
 29 32  1  0
 30 31  3  0
 32 33  1  0
 33 34  1  0
 33 35  2  0
 37 38  1  0
 37 39  2  0
M  END
