
     RDKit          3D

 45 49  0  0  0  0  0  0  0  0999 V2000
   -4.4660   -1.3770    4.0120 C   0  0  0  0  0  0  0  0  0  0  0  0
   -3.2240   -1.3730    3.1020 C   0  0  1  0  0  0  0  0  0  0  0  0
   -2.0430   -1.4170    4.0480 C   0  0  0  0  0  0  0  0  0  0  0  0
   -3.2570   -2.6380    2.3090 C   0  0  0  0  0  0  0  0  0  0  0  0
   -3.2650   -0.1740    2.3300 N   0  0  0  0  0  0  0  0  0  0  0  0
   -2.2530    0.1590    1.3550 C   0  0  0  0  0  0  0  0  0  0  0  0
   -1.3470   -0.6850    1.2340 O   0  0  0  0  0  0  0  0  0  0  0  0
   -2.3210    1.4140    0.5810 C   0  0  2  0  0  0  0  0  0  0  0  0
   -3.5210    1.1840   -0.3790 C   0  0  0  0  0  0  0  0  0  0  0  0
   -3.9420    2.4830   -0.8070 N   0  0  2  0  0  0  0  0  0  0  0  0
   -4.7130    2.3160   -2.0280 C   0  0  0  0  0  0  0  0  0  0  0  0
   -5.5590    1.1090   -2.0350 C   0  0  0  0  0  0  0  0  0  0  0  0
   -5.1450   -0.0200   -2.6900 C   0  0  0  0  0  0  0  0  0  0  0  0
   -5.9670   -1.1200   -2.6600 C   0  0  0  0  0  0  0  0  0  0  0  0
   -7.1760   -1.1190   -2.0040 C   0  0  0  0  0  0  0  0  0  0  0  0
   -7.5250    0.0200   -1.3830 N   0  0  0  0  0  0  0  0  0  0  0  0
   -6.7670    1.1270   -1.3740 C   0  0  0  0  0  0  0  0  0  0  0  0
   -2.8650    3.4130   -0.9950 C   0  0  0  0  0  0  0  0  0  0  0  0
   -1.5100    2.8200   -1.1070 C   0  0  0  0  0  0  0  0  0  0  0  0
   -1.2240    1.6660   -0.2940 N   0  0  1  0  0  0  0  0  0  0  0  0
    0.0290    1.7510    0.3760 C   0  0  0  0  0  0  0  0  0  0  0  0
    1.2330    1.9740   -0.4900 C   0  0  1  0  0  0  0  0  0  0  0  0
    2.3580    1.9940    0.3240 O   0  0  0  0  0  0  0  0  0  0  0  0
    1.4130    1.0070   -1.5930 C   0  0  0  0  0  0  0  0  0  0  0  0
    1.5680   -0.4250   -1.2460 C   0  0  1  0  0  0  0  0  0  0  0  0
    1.7180   -1.2690   -2.4840 C   0  0  0  0  0  0  0  0  0  0  0  0
    2.8550   -0.9690   -3.3470 C   0  0  0  0  0  0  0  0  0  0  0  0
    4.0220   -1.6750   -3.2370 C   0  0  0  0  0  0  0  0  0  0  0  0
    5.1110   -1.3900   -4.0260 C   0  0  0  0  0  0  0  0  0  0  0  0
    5.0310   -0.3690   -4.9550 C   0  0  0  0  0  0  0  0  0  0  0  0
    3.8610    0.3410   -5.0700 C   0  0  0  0  0  0  0  0  0  0  0  0
    2.7810    0.0460   -4.2740 C   0  0  0  0  0  0  0  0  0  0  0  0
    2.6710   -0.7450   -0.3160 C   0  0  0  0  0  0  0  0  0  0  0  0
    3.8390   -0.6580   -0.7060 O   0  0  0  0  0  0  0  0  0  0  0  0
    2.3770   -1.1450    0.9940 N   0  0  0  0  0  0  0  0  0  0  0  0
    3.2890   -1.5470    2.0360 C   0  0  1  0  0  0  0  0  0  0  0  0
    4.7110   -1.5540    1.6860 C   0  0  0  0  0  0  0  0  0  0  0  0
    5.4880   -2.2130    0.7190 C   0  0  0  0  0  0  0  0  0  0  0  0
    6.8400   -2.0160    0.6190 C   0  0  0  0  0  0  0  0  0  0  0  0
    7.4970   -1.1460    1.4840 C   0  0  0  0  0  0  0  0  0  0  0  0
    6.7570   -0.5000    2.4280 C   0  0  0  0  0  0  0  0  0  0  0  0
    5.3920   -0.7090    2.5190 C   0  0  0  0  0  0  0  0  0  0  0  0
    4.4610   -0.1320    3.5170 C   0  0  0  0  0  0  0  0  0  0  0  0
    3.1350   -0.8300    3.3010 C   0  0  1  0  0  0  0  0  0  0  0  0
    2.1570    0.1910    3.2780 O   0  0  0  0  0  0  0  0  0  0  0  0
  2  1  1  1
  2  3  1  0
  2  4  1  0
  2  5  1  0
  5  6  1  0
  6  7  2  0
  8  6  1  6
  8  9  1  0
  8 20  1  0
  9 10  1  0
 10 11  1  6
 10 18  1  0
 11 12  1  0
 12 13  2  0
 12 17  1  0
 13 14  1  0
 14 15  2  0
 15 16  1  0
 16 17  2  0
 18 19  1  0
 19 20  1  0
 20 21  1  1
 21 22  1  0
 22 23  1  1
 22 24  1  0
 25 24  1  6
 25 26  1  0
 25 33  1  0
 26 27  1  0
 27 28  2  0
 27 32  1  0
 28 29  1  0
 29 30  2  0
 30 31  1  0
 31 32  2  0
 33 34  2  0
 33 35  1  0
 36 35  1  6
 36 37  1  0
 36 44  1  0
 37 38  2  0
 37 42  1  0
 38 39  1  0
 39 40  2  0
 40 41  1  0
 41 42  2  0
 42 43  1  0
 43 44  1  0
 44 45  1  6
M  CHG  2  10   1  20   1
M  END
