
     RDKit          3D

 39 40  0  0  0  0  0  0  0  0999 V2000
    5.3410   -5.1630    0.9610 C   0  0  0  0  0  0  0  0  0  0  0  0
    4.6600   -3.8820    0.6210 C   0  0  0  0  0  0  0  0  0  0  0  0
    5.3950   -2.6780    0.5650 C   0  0  0  0  0  0  0  0  0  0  0  0
    4.8040   -1.4820    0.2590 C   0  0  0  0  0  0  0  0  0  0  0  0
    5.4510   -0.2450    0.1710 N   0  0  0  0  0  0  0  0  0  0  0  0
    6.7870    0.0420    0.5050 C   0  0  0  0  0  0  0  0  0  0  0  0
    7.5220   -0.8720    0.9410 O   0  0  0  0  0  0  0  0  0  0  0  0
    7.3770    1.4060    0.3560 C   0  0  1  0  0  0  0  0  0  0  0  0
    6.5830    2.3320    1.2640 C   0  0  0  0  0  0  0  0  0  0  0  0
    8.6890    1.3570    0.7870 O   0  0  0  0  0  0  0  0  0  0  0  0
    9.6420    1.6770   -0.1430 C   0  0  0  0  0  0  0  0  0  0  0  0
    9.4700    3.0890   -0.6330 C   0  0  0  0  0  0  0  0  0  0  0  0
   10.4900    3.3090   -1.5710 O   0  0  0  0  0  0  0  0  0  0  0  0
    3.4420   -1.5280    0.0090 C   0  0  0  0  0  0  0  0  0  0  0  0
    2.6740   -2.6570    0.0450 C   0  0  0  0  0  0  0  0  0  0  0  0
    1.2370   -2.6490   -0.2190 C   0  0  0  0  0  0  0  0  0  0  0  0
    0.7390   -3.6910   -0.6890 O   0  0  0  0  0  0  0  0  0  0  0  0
    0.4210   -1.5320    0.0340 N   0  0  0  0  0  0  0  0  0  0  0  0
   -0.9720   -1.4260   -0.2030 C   0  0  0  0  0  0  0  0  0  0  0  0
   -1.6890   -2.2050   -1.0770 C   0  0  0  0  0  0  0  0  0  0  0  0
   -3.0470   -2.0520   -1.2320 C   0  0  0  0  0  0  0  0  0  0  0  0
   -3.7930   -1.1060   -0.5230 C   0  0  0  0  0  0  0  0  0  0  0  0
   -5.0850   -1.0480   -0.7540 O   0  0  0  0  0  0  0  0  0  0  0  0
   -6.1830   -0.2950   -0.2400 C   0  0  2  0  0  0  0  0  0  0  0  0
   -7.1430   -1.3550    0.1330 C   0  0  0  0  0  0  0  0  0  0  0  0
   -8.4250   -1.1410    0.7750 C   0  0  0  0  0  0  0  0  0  0  0  0
   -9.3940   -0.4260    0.1340 O   0  0  0  0  0  0  0  0  0  0  0  0
   -6.4560    0.6760   -1.3320 C   0  0  0  0  0  0  0  0  0  0  0  0
   -7.5230    1.6830   -1.2040 C   0  0  0  0  0  0  0  0  0  0  0  0
   -7.5060    2.6380   -2.3990 C   0  0  0  0  0  0  0  0  0  0  0  0
   -8.4860    3.6440   -2.4400 N   0  0  0  0  0  0  0  0  0  0  0  0
   -6.6360    2.4640   -3.2470 O   0  0  0  0  0  0  0  0  0  0  0  0
   -3.0640   -0.3080    0.3700 C   0  0  0  0  0  0  0  0  0  0  0  0
   -3.7990    0.6020    1.0420 O   0  0  0  0  0  0  0  0  0  0  0  0
   -3.3490    1.5410    1.9450 C   0  0  0  0  0  0  0  0  0  0  0  0
   -2.4380    2.6080    1.4340 C   0  0  0  0  0  0  0  0  0  0  0  0
   -3.0940    3.3560    0.4200 O   0  0  0  0  0  0  0  0  0  0  0  0
   -1.7060   -0.4720    0.5160 C   0  0  0  0  0  0  0  0  0  0  0  0
    3.3080   -3.8350    0.3570 C   0  0  0  0  0  0  0  0  0  0  0  0
  1  2  1  0
  2  3  2  0
  2 39  1  0
  3  4  1  0
  4  5  1  0
  4 14  2  0
  5  6  1  0
  6  7  2  0
  6  8  1  0
  8  9  1  1
  8 10  1  0
 10 11  1  0
 11 12  1  0
 12 13  1  0
 14 15  1  0
 15 16  1  0
 15 39  2  0
 16 17  2  0
 16 18  1  0
 18 19  1  0
 19 20  2  0
 19 38  1  0
 20 21  1  0
 21 22  2  0
 22 23  1  0
 22 33  1  0
 23 24  1  0
 24 25  1  6
 24 28  1  0
 25 26  1  0
 26 27  1  0
 28 29  1  0
 29 30  1  0
 30 31  1  0
 30 32  2  0
 33 34  1  0
 33 38  2  0
 34 35  1  0
 35 36  1  0
 36 37  1  0
M  END
