
     RDKit          3D

 39 40  0  0  0  0  0  0  0  0999 V2000
    5.4660    1.8610   -2.6240 C   0  0  0  0  0  0  0  0  0  0  0  0
    6.2320    0.7660   -2.9030 O   0  0  0  0  0  0  0  0  0  0  0  0
    6.4300   -0.1380   -1.9150 C   0  0  0  0  0  0  0  0  0  0  0  0
    5.3110   -0.9700   -1.4620 C   0  0  0  0  0  0  0  0  0  0  0  0
    4.0830   -1.0070   -1.8800 C   0  0  0  0  0  0  0  0  0  0  0  0
    3.0990   -1.9440   -1.2620 C   0  0  2  0  0  0  0  0  0  0  0  0
    3.2680   -3.2620   -2.0330 C   0  0  0  0  0  0  0  0  0  0  0  0
    2.9670   -2.9850   -3.4860 C   0  0  0  0  0  0  0  0  0  0  0  0
    3.1210   -4.1470   -4.2550 O   0  0  0  0  0  0  0  0  0  0  0  0
    1.7470   -1.4920   -1.4850 N   0  0  0  0  0  0  0  0  0  0  0  0
    0.7860   -1.5020   -0.4130 C   0  0  0  0  0  0  0  0  0  0  0  0
    1.1490   -1.9110    0.7060 O   0  0  0  0  0  0  0  0  0  0  0  0
   -0.5340   -1.0660   -0.6080 N   0  0  0  0  0  0  0  0  0  0  0  0
   -1.5640   -1.0460    0.3580 C   0  0  0  0  0  0  0  0  0  0  0  0
   -1.5090   -1.6780    1.5710 C   0  0  0  0  0  0  0  0  0  0  0  0
   -2.5650   -1.6000    2.4730 C   0  0  0  0  0  0  0  0  0  0  0  0
   -2.4690   -2.2630    3.7070 O   0  0  0  0  0  0  0  0  0  0  0  0
   -3.7260   -0.8890    2.2100 C   0  0  0  0  0  0  0  0  0  0  0  0
   -4.7540   -0.8390    3.1390 O   0  0  0  0  0  0  0  0  0  0  0  0
   -5.7920   -1.8330    3.1110 C   0  0  0  0  0  0  0  0  0  0  0  0
   -3.7860   -0.2530    0.9940 C   0  0  0  0  0  0  0  0  0  0  0  0
   -4.9190    0.4760    0.6680 O   0  0  0  0  0  0  0  0  0  0  0  0
   -5.0330    1.1590   -0.5740 C   0  0  0  0  0  0  0  0  0  0  0  0
   -6.3530    1.8250   -0.6090 C   0  0  0  0  0  0  0  0  0  0  0  0
   -7.4910    1.1440   -0.2340 C   0  0  0  0  0  0  0  0  0  0  0  0
   -8.7400    1.7210   -0.2590 C   0  0  0  0  0  0  0  0  0  0  0  0
   -8.8690    3.0270   -0.6720 C   0  0  0  0  0  0  0  0  0  0  0  0
  -10.2210    3.6380   -0.6980 C   0  0  0  0  0  0  0  0  0  0  0  0
   -7.7550    3.7660   -1.0620 C   0  0  0  0  0  0  0  0  0  0  0  0
   -7.8710    5.1160   -1.4910 N   0  0  0  0  0  0  0  0  0  0  0  0
   -6.5390    3.1390   -1.0160 C   0  0  0  0  0  0  0  0  0  0  0  0
   -2.7420   -0.3330    0.1090 C   0  0  0  0  0  0  0  0  0  0  0  0
    5.6220   -1.8690   -0.4070 O   0  0  0  0  0  0  0  0  0  0  0  0
    6.3130   -1.3960    0.7640 C   0  0  0  0  0  0  0  0  0  0  0  0
    5.5110   -0.3290    1.4530 C   0  0  0  0  0  0  0  0  0  0  0  0
    5.9980    0.1810    2.5310 O   0  0  0  0  0  0  0  0  0  0  0  0
    6.9720    0.8670    2.9860 C   0  0  0  0  0  0  0  0  0  0  0  0
    8.4120    0.4830    2.9360 C   0  0  0  0  0  0  0  0  0  0  0  0
    8.9680    0.3160    1.6950 O   0  0  0  0  0  0  0  0  0  0  0  0
  1  2  1  0
  2  3  1  0
  3  4  1  0
  4  5  2  3
  4 33  1  0
  5  6  1  0
  6  7  1  6
  6 10  1  0
  7  8  1  0
  8  9  1  0
 10 11  1  0
 11 12  2  0
 11 13  1  0
 13 14  1  0
 14 15  2  0
 14 32  1  0
 15 16  1  0
 16 17  1  0
 16 18  2  0
 18 19  1  0
 18 21  1  0
 19 20  1  0
 21 22  1  0
 21 32  2  0
 22 23  1  0
 23 24  1  0
 24 25  2  0
 24 31  1  0
 25 26  1  0
 26 27  2  0
 27 28  1  0
 27 29  1  0
 29 30  1  0
 29 31  2  0
 33 34  1  0
 34 35  1  0
 35 36  1  0
 36 37  1  0
 37 38  1  0
 38 39  1  0
M  END
