
     RDKit          3D

 39 40  0  0  0  0  0  0  0  0999 V2000
   -0.9380    4.5310   -0.4560 C   0  0  0  0  0  0  0  0  0  0  0  0
   -0.9170    4.1820    1.0050 C   0  0  0  0  0  0  0  0  0  0  0  0
   -0.5290    2.8680    1.2250 O   0  0  0  0  0  0  0  0  0  0  0  0
   -1.2270    1.7780    0.7780 C   0  0  0  0  0  0  0  0  0  0  0  0
   -2.3620    1.7780    0.0690 C   0  0  0  0  0  0  0  0  0  0  0  0
   -3.0620    0.6280   -0.3630 C   0  0  0  0  0  0  0  0  0  0  0  0
   -4.2700    0.8290   -1.1520 C   0  0  0  0  0  0  0  0  0  0  0  0
   -4.2610    1.5780   -2.1850 O   0  0  0  0  0  0  0  0  0  0  0  0
   -5.5110    0.2490   -0.8640 N   0  0  0  0  0  0  0  0  0  0  0  0
   -6.6990    0.4770   -1.7230 C   0  0  1  0  0  0  0  0  0  0  0  0
   -7.3010   -0.8310   -2.1320 C   0  0  0  0  0  0  0  0  0  0  0  0
   -7.6810    1.4030   -1.0510 C   0  0  0  0  0  0  0  0  0  0  0  0
   -8.7490    1.5550   -1.9270 O   0  0  0  0  0  0  0  0  0  0  0  0
   -2.5140   -0.5790   -0.0120 C   0  0  0  0  0  0  0  0  0  0  0  0
   -3.1190   -1.8890   -0.3310 C   0  0  0  0  0  0  0  0  0  0  0  0
   -3.9730   -2.5130    0.7010 C   0  0  0  0  0  0  0  0  0  0  0  0
   -3.1930   -2.7760    1.8740 O   0  0  0  0  0  0  0  0  0  0  0  0
   -1.3160   -0.6040    0.7330 C   0  0  0  0  0  0  0  0  0  0  0  0
   -0.6850    0.5400    1.1190 C   0  0  0  0  0  0  0  0  0  0  0  0
    0.4940    0.4420    1.8530 O   0  0  0  0  0  0  0  0  0  0  0  0
    1.0340   -0.8040    2.2880 C   0  0  0  0  0  0  0  0  0  0  0  0
    2.3490   -0.4480    2.9340 C   0  0  0  0  0  0  0  0  0  0  0  0
    3.4190   -0.0180    1.9950 C   0  0  2  0  0  0  0  0  0  0  0  0
    3.0990    1.0540    1.0640 C   0  0  0  0  0  0  0  0  0  0  0  0
    3.5810    1.0690   -0.1940 C   0  0  0  0  0  0  0  0  0  0  0  0
    3.2710    2.1230   -1.1350 C   0  0  0  0  0  0  0  0  0  0  0  0
    3.7580    2.1120   -2.3400 C   0  0  0  0  0  0  0  0  0  0  0  0
    3.3990    3.2320   -3.2730 C   0  0  0  0  0  0  0  0  0  0  0  0
    2.1260    3.6900   -2.8590 O   0  0  0  0  0  0  0  0  0  0  0  0
    2.3520    4.2320   -1.6680 O   0  0  0  0  0  0  0  0  0  0  0  0
    2.3510    3.2390   -0.7230 C   0  0  0  0  0  0  0  0  0  0  0  0
    4.2860   -1.1210    1.5370 C   0  0  1  0  0  0  0  0  0  0  0  0
    4.9120   -1.6800    2.6770 O   0  0  0  0  0  0  0  0  0  0  0  0
    3.6020   -2.1970    0.7380 C   0  0  0  0  0  0  0  0  0  0  0  0
    4.4840   -3.1890    0.1770 N   0  0  0  0  0  0  0  0  0  0  0  0
    5.2980   -4.0820    0.9010 C   0  0  0  0  0  0  0  0  0  0  0  0
    5.3020   -4.0790    2.1460 O   0  0  0  0  0  0  0  0  0  0  0  0
    6.1520   -5.0310    0.2260 N   0  0  0  0  0  0  0  0  0  0  0  0
    6.9530   -5.9120    1.0460 C   0  0  0  0  0  0  0  0  0  0  0  0
  1  2  1  0
  2  3  1  0
  3  4  1  0
  4  5  2  0
  4 19  1  0
  5  6  1  0
  6  7  1  0
  6 14  2  0
  7  8  2  0
  7  9  1  0
  9 10  1  0
 10 11  1  1
 10 12  1  0
 12 13  1  0
 14 15  1  0
 14 18  1  0
 15 16  1  0
 16 17  1  0
 18 19  2  0
 19 20  1  0
 20 21  1  0
 21 22  1  0
 23 22  1  6
 23 24  1  0
 23 32  1  0
 24 25  2  3
 25 26  1  0
 26 27  2  0
 26 31  1  0
 27 28  1  0
 28 29  1  0
 29 30  1  0
 30 31  1  0
 32 33  1  1
 32 34  1  0
 34 35  1  0
 35 36  1  0
 36 37  2  0
 36 38  1  0
 38 39  1  0
M  END
