
     RDKit          3D

 39 40  0  0  0  0  0  0  0  0999 V2000
   -9.6350   -1.3750   -0.1250 C   0  0  0  0  0  0  0  0  0  0  0  0
   -8.7850   -1.9390   -1.2370 C   0  0  0  0  0  0  0  0  0  0  0  0
   -7.4720   -1.3810   -1.0960 O   0  0  0  0  0  0  0  0  0  0  0  0
   -7.2480   -0.0210   -1.1520 C   0  0  0  0  0  0  0  0  0  0  0  0
   -8.2210    0.7270   -1.3280 O   0  0  0  0  0  0  0  0  0  0  0  0
   -5.8760    0.4670   -0.9990 C   0  0  0  0  0  0  0  0  0  0  0  0
   -4.8280   -0.4060   -0.8060 C   0  0  0  0  0  0  0  0  0  0  0  0
   -3.5250    0.0180   -0.6600 C   0  0  0  0  0  0  0  0  0  0  0  0
   -2.3980   -0.9390   -0.4510 C   0  0  2  0  0  0  0  0  0  0  0  0
   -2.4940   -2.0240   -1.3270 O   0  0  0  0  0  0  0  0  0  0  0  0
   -2.4210   -1.4170    0.9600 C   0  0  0  0  0  0  0  0  0  0  0  0
   -1.3520   -2.3210    1.3110 N   0  0  0  0  0  0  0  0  0  0  0  0
    0.0420   -1.9520    1.2310 C   0  0  0  0  0  0  0  0  0  0  0  0
    0.2650   -0.8030    0.8420 O   0  0  0  0  0  0  0  0  0  0  0  0
    1.0750   -2.8260    1.5670 N   0  0  0  0  0  0  0  0  0  0  0  0
    2.4970   -2.5310    1.5330 C   0  0  0  0  0  0  0  0  0  0  0  0
    2.8180   -1.4480    2.4920 C   0  0  2  0  0  0  0  0  0  0  0  0
    2.1410   -1.9060    3.8340 C   0  0  0  0  0  0  0  0  0  0  0  0
    2.2440   -0.2190    2.2590 O   0  0  0  0  0  0  0  0  0  0  0  0
    4.2570   -1.2330    2.8410 C   0  0  0  0  0  0  0  0  0  0  0  0
    5.0560   -0.6410    1.9720 O   0  0  0  0  0  0  0  0  0  0  0  0
    5.6780   -0.6500    0.7930 C   0  0  0  0  0  0  0  0  0  0  0  0
    5.5780   -1.7360   -0.0500 C   0  0  0  0  0  0  0  0  0  0  0  0
    6.2190   -1.7400   -1.2730 C   0  0  0  0  0  0  0  0  0  0  0  0
    6.9750   -0.6680   -1.6880 C   0  0  0  0  0  0  0  0  0  0  0  0
    7.6370   -0.6990   -2.9780 C   0  0  0  0  0  0  0  0  0  0  0  0
    8.4650    0.3680   -3.3850 N   0  0  0  0  0  0  0  0  0  0  0  0
    7.4750   -1.6770   -3.7370 O   0  0  0  0  0  0  0  0  0  0  0  0
    7.0690    0.4180   -0.8320 C   0  0  0  0  0  0  0  0  0  0  0  0
    6.4480    0.4380    0.3670 C   0  0  0  0  0  0  0  0  0  0  0  0
    6.5330    1.5030    1.2210 O   0  0  0  0  0  0  0  0  0  0  0  0
    7.2350    2.6910    1.0170 C   0  0  0  0  0  0  0  0  0  0  0  0
    6.7500    3.4400   -0.2100 C   0  0  0  0  0  0  0  0  0  0  0  0
   -3.2990    1.3780   -0.7150 C   0  0  0  0  0  0  0  0  0  0  0  0
   -4.3450    2.2710   -0.9090 C   0  0  0  0  0  0  0  0  0  0  0  0
   -5.6480    1.8440   -1.0550 C   0  0  0  0  0  0  0  0  0  0  0  0
   -6.7200    2.7030   -1.2510 O   0  0  0  0  0  0  0  0  0  0  0  0
   -6.6510    4.0950   -1.3270 C   0  0  0  0  0  0  0  0  0  0  0  0
   -6.0920    4.6380   -0.0350 C   0  0  0  0  0  0  0  0  0  0  0  0
  1  2  1  0
  2  3  1  0
  3  4  1  0
  4  5  2  0
  4  6  1  0
  6  7  2  0
  6 36  1  0
  7  8  1  0
  8  9  1  0
  8 34  2  0
  9 10  1  6
  9 11  1  0
 11 12  1  0
 12 13  1  0
 13 14  2  0
 13 15  1  0
 15 16  1  0
 16 17  1  0
 17 18  1  1
 17 19  1  0
 17 20  1  0
 20 21  1  0
 21 22  1  0
 22 23  2  0
 22 30  1  0
 23 24  1  0
 24 25  2  0
 25 26  1  0
 25 29  1  0
 26 27  1  0
 26 28  2  0
 29 30  2  0
 30 31  1  0
 31 32  1  0
 32 33  1  0
 34 35  1  0
 35 36  2  0
 36 37  1  0
 37 38  1  0
 38 39  1  0
M  END
