
     RDKit          3D

 39 40  0  0  0  0  0  0  0  0999 V2000
   -8.3470    1.7940    0.6740 C   0  0  0  0  0  0  0  0  0  0  0  0
   -8.8220    0.5580    1.3210 C   0  0  0  0  0  0  0  0  0  0  0  0
   -7.9250   -0.2160    2.2460 C   0  0  2  0  0  0  0  0  0  0  0  0
   -8.7320   -1.3770    2.8040 C   0  0  0  0  0  0  0  0  0  0  0  0
   -7.5010    0.6520    3.4310 C   0  0  0  0  0  0  0  0  0  0  0  0
   -6.7510   -0.7500    1.5920 N   0  0  0  0  0  0  0  0  0  0  0  0
   -5.6900    0.0440    1.0370 C   0  0  0  0  0  0  0  0  0  0  0  0
   -5.7420    1.2690    1.1650 O   0  0  0  0  0  0  0  0  0  0  0  0
   -4.5830   -0.5660    0.3200 N   0  0  0  0  0  0  0  0  0  0  0  0
   -3.7290    0.3640   -0.3970 C   0  0  0  0  0  0  0  0  0  0  0  0
   -2.5370   -0.2480   -1.0030 C   0  0  0  0  0  0  0  0  0  0  0  0
   -1.4240   -0.6720   -0.3430 C   0  0  0  0  0  0  0  0  0  0  0  0
   -0.2530   -1.1150   -1.0230 C   0  0  0  0  0  0  0  0  0  0  0  0
    0.8600   -1.5140   -0.4760 O   0  0  0  0  0  0  0  0  0  0  0  0
    1.6880   -1.7890    0.4710 C   0  0  0  0  0  0  0  0  0  0  0  0
    2.1440   -0.6960    1.4290 C   0  0  2  0  0  0  0  0  0  0  0  0
    0.9790   -0.2740    2.1230 O   0  0  0  0  0  0  0  0  0  0  0  0
    2.8480    0.4680    0.8450 C   0  0  0  0  0  0  0  0  0  0  0  0
    4.0590    0.1280    0.0920 C   0  0  0  0  0  0  0  0  0  0  0  0
    4.1270   -0.7780   -0.7560 O   0  0  0  0  0  0  0  0  0  0  0  0
    5.2630    0.8830    0.3480 N   0  0  0  0  0  0  0  0  0  0  0  0
    6.4890    0.7120   -0.3100 C   0  0  0  0  0  0  0  0  0  0  0  0
    6.6300    0.3520   -1.6310 C   0  0  0  0  0  0  0  0  0  0  0  0
    7.8700    0.2550   -2.2450 C   0  0  0  0  0  0  0  0  0  0  0  0
    8.0370   -0.0860   -3.5440 O   0  0  0  0  0  0  0  0  0  0  0  0
    9.0240    0.5280   -1.5060 C   0  0  0  0  0  0  0  0  0  0  0  0
    8.9280    0.9000   -0.1670 C   0  0  0  0  0  0  0  0  0  0  0  0
    7.6640    0.9940    0.4340 C   0  0  0  0  0  0  0  0  0  0  0  0
    7.4570    1.3610    1.7140 O   0  0  0  0  0  0  0  0  0  0  0  0
    8.1920    1.6880    2.7770 C   0  0  0  0  0  0  0  0  0  0  0  0
    9.0600    0.6940    3.4850 C   0  0  0  0  0  0  0  0  0  0  0  0
   10.0570    0.1200    2.7890 O   0  0  0  0  0  0  0  0  0  0  0  0
   -0.3170   -1.1060   -2.4510 C   0  0  0  0  0  0  0  0  0  0  0  0
    0.8070   -1.5610   -3.1530 O   0  0  0  0  0  0  0  0  0  0  0  0
    0.8580   -1.6650   -4.5620 C   0  0  0  0  0  0  0  0  0  0  0  0
   -1.4330   -0.6850   -3.1170 C   0  0  0  0  0  0  0  0  0  0  0  0
   -2.5010   -0.2670   -2.4290 C   0  0  0  0  0  0  0  0  0  0  0  0
   -3.7040    0.1940   -3.0230 O   0  0  0  0  0  0  0  0  0  0  0  0
   -3.9930    0.2700   -4.3550 C   0  0  0  0  0  0  0  0  0  0  0  0
  1  2  1  0
  2  3  1  0
  3  4  1  1
  3  5  1  0
  3  6  1  0
  6  7  1  0
  7  8  2  0
  7  9  1  0
  9 10  1  0
 10 11  1  0
 11 12  2  0
 11 37  1  0
 12 13  1  0
 13 14  1  0
 13 33  2  0
 14 15  1  0
 15 16  1  0
 16 17  1  6
 16 18  1  0
 18 19  1  0
 19 20  2  0
 19 21  1  0
 21 22  1  0
 22 23  2  0
 22 28  1  0
 23 24  1  0
 24 25  1  0
 24 26  2  0
 26 27  1  0
 27 28  2  0
 28 29  1  0
 29 30  1  0
 30 31  1  0
 31 32  1  0
 33 34  1  0
 33 36  1  0
 34 35  1  0
 36 37  2  0
 37 38  1  0
 38 39  1  0
M  END
