
     RDKit          3D

 39 40  0  0  0  0  0  0  0  0999 V2000
    6.9500   -0.5450    1.9510 C   0  0  0  0  0  0  0  0  0  0  0  0
    7.5010    0.1610    0.9050 O   0  0  0  0  0  0  0  0  0  0  0  0
    6.8470    0.7770   -0.1050 C   0  0  0  0  0  0  0  0  0  0  0  0
    5.4310    0.7210   -0.1150 C   0  0  0  0  0  0  0  0  0  0  0  0
    4.7250    1.3280   -1.1060 C   0  0  0  0  0  0  0  0  0  0  0  0
    3.3750    1.3810   -1.2540 O   0  0  0  0  0  0  0  0  0  0  0  0
    2.2940    0.9620   -0.6860 C   0  0  0  0  0  0  0  0  0  0  0  0
    1.6280   -0.3580   -0.6720 C   0  0  0  0  0  0  0  0  0  0  0  0
    0.4670   -0.1710    0.1060 O   0  0  0  0  0  0  0  0  0  0  0  0
   -0.7020   -0.7500    0.2640 C   0  0  0  0  0  0  0  0  0  0  0  0
   -1.1110   -1.8450   -0.4580 C   0  0  0  0  0  0  0  0  0  0  0  0
   -2.3470   -2.4250   -0.3380 C   0  0  0  0  0  0  0  0  0  0  0  0
   -2.7370   -3.6180   -1.1660 C   0  0  0  0  0  0  0  0  0  0  0  0
   -3.2560   -1.9070    0.5530 C   0  0  0  0  0  0  0  0  0  0  0  0
   -4.6130   -2.1870    0.4290 N   0  0  0  0  0  0  0  0  0  0  0  0
   -5.6760   -1.9160    1.3830 C   0  0  0  0  0  0  0  0  0  0  0  0
   -5.3520   -1.5840    2.5120 O   0  0  0  0  0  0  0  0  0  0  0  0
   -7.0150   -2.0160    0.9870 N   0  0  0  0  0  0  0  0  0  0  0  0
   -8.1980   -1.8180    1.7570 C   0  0  0  0  0  0  0  0  0  0  0  0
   -8.3500   -0.6090    2.5680 C   0  0  1  0  0  0  0  0  0  0  0  0
   -7.3710   -0.6090    3.6410 O   0  0  0  0  0  0  0  0  0  0  0  0
   -8.4330    0.7450    2.0480 C   0  0  0  0  0  0  0  0  0  0  0  0
   -9.5100    1.1430    1.1280 C   0  0  1  0  0  0  0  0  0  0  0  0
   -9.4790    0.4610   -0.1970 C   0  0  0  0  0  0  0  0  0  0  0  0
  -10.7280    0.8150    1.8100 O   0  0  0  0  0  0  0  0  0  0  0  0
   -2.8660   -0.8100    1.3180 C   0  0  0  0  0  0  0  0  0  0  0  0
   -1.6170   -0.2160    1.2000 C   0  0  0  0  0  0  0  0  0  0  0  0
   -1.2270    0.8540    1.9390 O   0  0  0  0  0  0  0  0  0  0  0  0
   -2.0550    1.5030    2.8740 C   0  0  0  0  0  0  0  0  0  0  0  0
    5.4180    2.0260   -2.1540 C   0  0  0  0  0  0  0  0  0  0  0  0
    4.6740    2.6070   -3.1060 O   0  0  0  0  0  0  0  0  0  0  0  0
    4.8800    3.3510   -4.2440 C   0  0  0  0  0  0  0  0  0  0  0  0
    6.7780    2.0490   -2.1070 C   0  0  0  0  0  0  0  0  0  0  0  0
    7.5390    1.4300   -1.0790 C   0  0  0  0  0  0  0  0  0  0  0  0
    8.9780    1.6300   -1.1650 C   0  0  0  0  0  0  0  0  0  0  0  0
    9.9360    0.6030   -1.6050 C   0  0  0  0  0  0  0  0  0  0  0  0
   10.2600   -0.5170   -0.7580 C   0  0  0  0  0  0  0  0  0  0  0  0
   10.6830   -1.7460   -1.3110 N   0  0  0  0  0  0  0  0  0  0  0  0
   10.1840   -0.4400    0.5090 O   0  0  0  0  0  0  0  0  0  0  0  0
  1  2  1  0
  2  3  1  0
  3  4  2  0
  3 34  1  0
  4  5  1  0
  5  6  1  0
  5 30  2  0
  6  7  1  0
  7  8  1  0
  8  9  1  0
  9 10  1  0
 10 11  2  0
 10 27  1  0
 11 12  1  0
 12 13  1  0
 12 14  2  0
 14 15  1  0
 14 26  1  0
 15 16  1  0
 16 17  2  0
 16 18  1  0
 18 19  1  0
 19 20  1  0
 20 21  1  1
 20 22  1  0
 22 23  1  0
 23 24  1  6
 23 25  1  0
 26 27  2  0
 27 28  1  0
 28 29  1  0
 30 31  1  0
 30 33  1  0
 31 32  1  0
 33 34  2  0
 34 35  1  0
 35 36  1  0
 36 37  1  0
 37 38  1  0
 37 39  2  0
M  END
