
     RDKit          3D

 39 40  0  0  0  0  0  0  0  0999 V2000
   -4.7460   -0.0170   -3.1330 C   0  0  0  0  0  0  0  0  0  0  0  0
   -3.9530   -0.3650   -1.8990 C   0  0  0  0  0  0  0  0  0  0  0  0
   -4.7960   -0.0810   -0.6730 C   0  0  2  0  0  0  0  0  0  0  0  0
   -4.1090   -0.3670    0.5080 O   0  0  0  0  0  0  0  0  0  0  0  0
   -4.0710    0.5640    1.5290 C   0  0  0  0  0  0  0  0  0  0  0  0
   -3.1580    1.6120    1.3720 C   0  0  0  0  0  0  0  0  0  0  0  0
   -2.3980    1.6080    0.2440 O   0  0  0  0  0  0  0  0  0  0  0  0
   -1.4060    2.4780   -0.1570 C   0  0  0  0  0  0  0  0  0  0  0  0
   -0.1600    2.5480    0.6570 C   0  0  0  0  0  0  0  0  0  0  0  0
    0.5490    1.2750    0.7040 N   0  0  0  0  0  0  0  0  0  0  0  0
    0.4290    0.3020    1.6160 C   0  0  0  0  0  0  0  0  0  0  0  0
   -0.4230    0.2410    2.8290 C   0  0  0  0  0  0  0  0  0  0  0  0
    1.2740   -0.7680    1.3010 C   0  0  0  0  0  0  0  0  0  0  0  0
    1.9170   -0.3880    0.1430 C   0  0  0  0  0  0  0  0  0  0  0  0
    2.9200   -1.1780   -0.5960 C   0  0  0  0  0  0  0  0  0  0  0  0
    3.4530   -0.7410   -1.6450 O   0  0  0  0  0  0  0  0  0  0  0  0
    3.2870   -2.4220   -0.1360 O   0  0  0  0  0  0  0  0  0  0  0  0
    4.2300   -3.2700   -0.7400 C   0  0  0  0  0  0  0  0  0  0  0  0
    5.6160   -2.7260   -0.7700 C   0  0  0  0  0  0  0  0  0  0  0  0
    6.4550   -3.3800   -1.4120 O   0  0  0  0  0  0  0  0  0  0  0  0
    5.9180   -1.5340   -0.0920 N   0  0  0  0  0  0  0  0  0  0  0  0
    7.1690   -0.8650   -0.0330 C   0  0  0  0  0  0  0  0  0  0  0  0
    7.6850   -0.3120   -1.3010 C   0  0  1  0  0  0  0  0  0  0  0  0
    8.8720    0.6660   -0.9010 C   0  0  0  0  0  0  0  0  0  0  0  0
    8.2150   -1.2780   -2.2620 C   0  0  0  0  0  0  0  0  0  0  0  0
    6.7710    0.5680   -1.8990 O   0  0  0  0  0  0  0  0  0  0  0  0
    1.4660    0.8620   -0.2120 C   0  0  0  0  0  0  0  0  0  0  0  0
    1.9380    1.6140   -1.4290 C   0  0  0  0  0  0  0  0  0  0  0  0
   -3.0830    2.5700    2.3580 C   0  0  0  0  0  0  0  0  0  0  0  0
   -3.9100    2.4790    3.4850 C   0  0  0  0  0  0  0  0  0  0  0  0
   -3.7940    3.4720    4.4470 O   0  0  0  0  0  0  0  0  0  0  0  0
   -4.7930    1.4400    3.6150 C   0  0  0  0  0  0  0  0  0  0  0  0
   -4.8940    0.4390    2.6220 C   0  0  0  0  0  0  0  0  0  0  0  0
   -5.7580   -0.7070    2.8790 C   0  0  0  0  0  0  0  0  0  0  0  0
   -5.6250   -1.9030    2.1760 N   0  0  0  0  0  0  0  0  0  0  0  0
   -6.6360   -0.5910    3.7680 O   0  0  0  0  0  0  0  0  0  0  0  0
   -6.1220   -0.7160   -0.8860 C   0  0  1  0  0  0  0  0  0  0  0  0
   -6.0650   -2.2330   -1.0180 C   0  0  0  0  0  0  0  0  0  0  0  0
   -7.1060   -0.3970    0.0230 O   0  0  0  0  0  0  0  0  0  0  0  0
  1  2  1  0
  3  2  1  6
  3  4  1  0
  3 37  1  0
  4  5  1  0
  5  6  2  0
  5 33  1  0
  6  7  1  0
  6 29  1  0
  7  8  1  0
  8  9  1  0
  9 10  1  0
 10 11  1  0
 10 27  1  0
 11 12  1  0
 11 13  2  0
 13 14  1  0
 14 15  1  0
 14 27  2  0
 15 16  2  0
 15 17  1  0
 17 18  1  0
 18 19  1  0
 19 20  2  0
 19 21  1  0
 21 22  1  0
 22 23  1  0
 23 24  1  1
 23 25  1  0
 23 26  1  0
 27 28  1  0
 29 30  2  0
 30 31  1  0
 30 32  1  0
 32 33  2  0
 33 34  1  0
 34 35  1  0
 34 36  2  0
 37 38  1  1
 37 39  1  0
M  END
