
     RDKit          3D

  8  8  0  0  0  0  0  0  0  0999 V2000
    3.3690   -0.4320   -0.2110 N   0  0  0  0  0  0  0  0  0  0  0  0
    1.9770   -0.2880   -0.3720 C   0  0  0  0  0  0  0  0  0  0  0  0
    1.2080    0.0550    0.6650 C   0  0  0  0  0  0  0  0  0  0  0  0
   -0.2370    0.2000    0.4760 C   0  0  0  0  0  0  0  0  0  0  0  0
   -1.0900    0.5340    1.4270 C   0  0  0  0  0  0  0  0  0  0  0  0
   -2.4700    0.5880    0.8860 C   0  0  0  0  0  0  0  0  0  0  0  0
   -2.3760   -0.3080   -0.3290 C   0  0  0  0  0  0  0  0  0  0  0  0
   -0.9710   -0.0050   -0.8020 C   0  0  0  0  0  0  0  0  0  0  0  0
  1  2  1  0
  2  3  2  3
  3  4  1  0
  4  5  2  0
  4  8  1  0
  5  6  1  0
  6  7  1  0
  7  8  1  0
M  CHG  1   1   1
M  END
