
     RDKit          3D

  9  9  0  0  0  0  0  0  0  0999 V2000
    2.6270   -1.0020   -0.1330 N   0  0  0  0  0  0  0  0  0  0  0  0
    1.7360    0.0580   -0.3410 C   0  0  0  0  0  0  0  0  0  0  0  0
    0.4440   -0.0110   -0.0730 C   0  0  0  0  0  0  0  0  0  0  0  0
   -0.0750   -1.2800    0.4760 C   0  0  0  0  0  0  0  0  0  0  0  0
   -1.5320   -1.2560    0.7420 C   0  0  0  0  0  0  0  0  0  0  0  0
   -2.2970   -0.2200    0.5190 C   0  0  0  0  0  0  0  0  0  0  0  0
   -1.7700    1.0050   -0.0150 C   0  0  0  0  0  0  0  0  0  0  0  0
   -0.4870    1.0860   -0.2860 C   0  0  0  0  0  0  0  0  0  0  0  0
    0.0170    2.3020   -0.8130 N   0  0  0  0  0  0  0  0  0  0  0  0
  1  2  1  0
  2  3  2  3
  3  4  1  0
  3  8  1  0
  4  5  1  0
  5  6  2  0
  6  7  1  0
  7  8  2  0
  8  9  1  0
M  END
