
     RDKit          3D

  8  8  0  0  0  0  0  0  0  0999 V2000
    2.5380   -0.3270   -0.6540 C   0  0  0  0  0  0  0  0  0  0  0  0
    1.2940   -0.3890   -1.1150 C   0  0  0  0  0  0  0  0  0  0  0  0
    0.2330    0.1760   -0.2590 C   0  0  2  0  0  0  0  0  0  0  0  0
    0.6070    1.5370    0.0640 N   0  0  0  0  0  0  0  0  0  0  0  0
    0.1060   -0.6700    0.9970 C   0  0  0  0  0  0  0  0  0  0  0  0
   -1.3540   -1.1300    1.0290 C   0  0  0  0  0  0  0  0  0  0  0  0
   -2.0240    0.0370    0.3140 C   0  0  0  0  0  0  0  0  0  0  0  0
   -1.1230    0.1800   -0.8990 C   0  0  0  0  0  0  0  0  0  0  0  0
  1  2  2  0
  2  3  1  0
  3  4  1  1
  3  5  1  0
  3  8  1  0
  5  6  1  0
  6  7  1  0
  7  8  1  0
M  CHG  1   4   1
M  END
