
     RDKit          3D

  8  8  0  0  0  0  0  0  0  0999 V2000
    2.9270    0.1350    0.0650 C   0  0  0  0  0  0  0  0  0  0  0  0
    1.9130   -0.6750   -0.1020 C   0  0  0  0  0  0  0  0  0  0  0  0
    0.5040   -0.2650   -0.0490 C   0  0  0  0  0  0  0  0  0  0  0  0
   -0.4780   -1.1340   -0.2260 C   0  0  0  0  0  0  0  0  0  0  0  0
   -1.9110   -0.8430   -0.1950 C   0  0  0  0  0  0  0  0  0  0  0  0
   -2.1950    0.5340    0.0570 N   0  0  0  0  0  0  0  0  0  0  0  0
   -1.1350    1.4540    0.2450 C   0  0  0  0  0  0  0  0  0  0  0  0
    0.1290    1.1240    0.2040 C   0  0  0  0  0  0  0  0  0  0  0  0
  1  2  2  0
  2  3  1  0
  3  4  2  0
  3  8  1  0
  4  5  1  0
  5  6  1  0
  6  7  1  0
  7  8  2  0
M  END
