
     RDKit          3D

  8  8  0  0  0  0  0  0  0  0999 V2000
   -0.9350    2.0680   -0.0780 C   0  0  0  0  0  0  0  0  0  0  0  0
   -0.9660    0.7560   -0.0360 C   0  0  0  0  0  0  0  0  0  0  0  0
   -2.1610   -0.1090    0.0090 C   0  0  0  0  0  0  0  0  0  0  0  0
   -1.7000   -1.3440    0.0420 C   0  0  0  0  0  0  0  0  0  0  0  0
   -0.2430   -1.3480    0.0200 C   0  0  0  0  0  0  0  0  0  0  0  0
    0.1960   -0.1040   -0.0260 C   0  0  0  0  0  0  0  0  0  0  0  0
    1.6270    0.3590   -0.0620 C   0  0  0  0  0  0  0  0  0  0  0  0
    2.5260   -0.7580   -0.0390 N   0  0  0  0  0  0  0  0  0  0  0  0
  1  2  2  0
  2  3  1  0
  2  6  1  0
  3  4  2  0
  4  5  1  0
  5  6  2  0
  6  7  1  0
  7  8  1  0
M  END
