
     RDKit          3D

  9  9  0  0  0  0  0  0  0  0999 V2000
    3.8980   -0.1650   -0.4200 N   0  0  0  0  0  0  0  0  0  0  0  0
    2.7740    0.0710    0.4270 C   0  0  0  0  0  0  0  0  0  0  0  0
    1.4830   -0.3470   -0.2690 C   0  0  0  0  0  0  0  0  0  0  0  0
    0.3130   -0.0940    0.6450 C   0  0  0  0  0  0  0  0  0  0  0  0
   -0.9480   -0.4560    0.0820 N   0  0  0  0  0  0  0  0  0  0  0  0
   -1.4050    0.3410   -1.0100 C   0  0  0  0  0  0  0  0  0  0  0  0
   -2.8690    0.6590   -0.7920 C   0  0  0  0  0  0  0  0  0  0  0  0
   -3.2520   -0.2810    0.3270 C   0  0  0  0  0  0  0  0  0  0  0  0
   -1.9660   -0.3080    1.1390 C   0  0  0  0  0  0  0  0  0  0  0  0
  1  2  1  0
  2  3  1  0
  3  4  1  0
  4  5  1  0
  5  6  1  0
  5  9  1  0
  6  7  1  0
  7  8  1  0
  8  9  1  0
M  CHG  1   1   1
M  END
