
     RDKit          3D

  8  8  0  0  0  0  0  0  0  0999 V2000
    3.0320    0.4820    0.2620 N   0  0  0  0  0  0  0  0  0  0  0  0
    2.1100   -0.5930    0.4290 C   0  0  0  0  0  0  0  0  0  0  0  0
    0.9400   -0.5120   -0.4830 C   0  0  0  0  0  0  0  0  0  0  0  0
   -0.3050   -0.4300   -0.0960 C   0  0  0  0  0  0  0  0  0  0  0  0
   -1.4760   -0.3490   -0.9910 C   0  0  0  0  0  0  0  0  0  0  0  0
   -2.3190    0.7050   -0.3010 C   0  0  0  0  0  0  0  0  0  0  0  0
   -1.9960    0.5630    1.1590 C   0  0  0  0  0  0  0  0  0  0  0  0
   -0.8460   -0.3980    1.2800 C   0  0  0  0  0  0  0  0  0  0  0  0
  1  2  1  0
  2  3  1  0
  3  4  2  3
  4  5  1  0
  4  8  1  0
  5  6  1  0
  6  7  1  0
  7  8  1  0
M  CHG  1   1   1
M  END
