
     RDKit          3D

  8  8  0  0  0  0  0  0  0  0999 V2000
    1.1890    1.8430   -0.3880 C   0  0  0  0  0  0  0  0  0  0  0  0
    0.3980    0.8510   -0.0060 C   0  0  0  0  0  0  0  0  0  0  0  0
   -0.9710    1.1730    0.4440 C   0  0  0  0  0  0  0  0  0  0  0  0
   -1.9570    0.0870    0.2520 C   0  0  0  0  0  0  0  0  0  0  0  0
   -1.4700   -1.1580   -0.3920 C   0  0  0  0  0  0  0  0  0  0  0  0
   -0.0590   -1.4710   -0.1910 C   0  0  0  0  0  0  0  0  0  0  0  0
    0.8220   -0.5340   -0.0100 C   0  0  0  0  0  0  0  0  0  0  0  0
    2.2080   -0.8190    0.1860 N   0  0  0  0  0  0  0  0  0  0  0  0
  1  2  2  0
  2  3  1  0
  2  7  1  0
  3  4  1  0
  4  5  1  0
  5  6  1  0
  6  7  2  0
  7  8  1  0
M  CHG  1   8   1
M  END
