
     RDKit          3D

 23 23  0  0  0  0  0  0  0  0999 V2000
   -1.6750   -0.0220    1.4600 C   0  0  0  0  0  0  0  0  0  0  0  0
   -2.0230    0.2580   -0.0120 C   0  0  2  0  0  0  0  0  0  0  0  0
   -1.3110   -0.6190   -0.9740 C   0  0  0  0  0  0  0  0  0  0  0  0
   -0.2460   -1.5130   -0.4800 C   0  0  0  0  0  0  0  0  0  0  0  0
   -0.6670   -2.5870    0.1900 C   0  0  0  0  0  0  0  0  0  0  0  0
   -2.0530   -2.9380    0.4570 C   0  0  0  0  0  0  0  0  0  0  0  0
   -2.2710   -4.2150   -0.1410 O   0  0  0  0  0  0  0  0  0  0  0  0
    1.1840   -1.4210   -0.7500 C   0  0  0  0  0  0  0  0  0  0  0  0
    2.1610   -0.6220   -0.4810 C   0  0  0  0  0  0  0  0  0  0  0  0
    3.7480   -1.2110   -1.2130 Cl  0  0  0  0  0  0  0  0  0  0  0  0
    2.3510    0.6000    0.2740 C   0  0  2  0  0  0  0  0  0  0  0  0
    3.5560    1.2240   -0.2430 O   0  0  0  0  0  0  0  0  0  0  0  0
    2.6450    0.4420    1.7060 C   0  0  0  0  0  0  0  0  0  0  0  0
    1.7100   -0.1690    2.5600 N   0  0  0  0  0  0  0  0  0  0  0  0
    3.7210    0.8420    2.1870 O   0  0  0  0  0  0  0  0  0  0  0  0
    1.3260    1.6990    0.0330 C   0  0  0  0  0  0  0  0  0  0  0  0
    0.9850    1.6980   -1.3440 N   0  0  0  0  0  0  0  0  0  0  0  0
    0.2280    2.6180   -2.0850 C   0  0  0  0  0  0  0  0  0  0  0  0
    0.7150    2.9400   -3.2450 O   0  0  0  0  0  0  0  0  0  0  0  0
   -0.9760    3.2330   -1.7450 N   0  0  0  0  0  0  0  0  0  0  0  0
   -2.0180    2.6640   -0.9150 C   0  0  0  0  0  0  0  0  0  0  0  0
   -3.1050    3.3720   -0.9580 O   0  0  0  0  0  0  0  0  0  0  0  0
   -1.8080    1.5720   -0.2380 O   0  0  0  0  0  0  0  0  0  0  0  0
  2  1  1  1
  2  3  1  0
  2 23  1  0
  3  4  1  0
  4  5  2  3
  4  8  1  0
  5  6  1  0
  6  7  1  0
  8  9  2  0
  9 10  1  0
  9 11  1  0
 11 12  1  6
 11 13  1  0
 11 16  1  0
 13 14  1  0
 13 15  2  0
 16 17  1  0
 17 18  1  0
 18 19  2  0
 18 20  1  0
 20 21  1  0
 21 22  2  0
 21 23  1  0
M  END
