
     RDKit          3D

 15 15  0  0  0  0  0  0  0  0999 V2000
   -3.7930   -2.4930    0.4240 C   0  0  0  0  0  0  0  0  0  0  0  0
   -3.3370   -1.1850    0.1410 O   0  0  0  0  0  0  0  0  0  0  0  0
   -1.9890   -0.9150   -0.0050 C   0  0  0  0  0  0  0  0  0  0  0  0
   -1.0540   -1.9370    0.1280 C   0  0  0  0  0  0  0  0  0  0  0  0
    0.3080   -1.6550   -0.0260 C   0  0  0  0  0  0  0  0  0  0  0  0
    0.7190   -0.3860   -0.3040 C   0  0  0  0  0  0  0  0  0  0  0  0
    2.1600   -0.0260   -0.4780 C   0  0  0  0  0  0  0  0  0  0  0  0
    2.6720    0.4160    0.8640 C   0  0  0  0  0  0  0  0  0  0  0  0
    4.0960    0.8060    0.7720 C   0  0  0  0  0  0  0  0  0  0  0  0
    4.9650   -0.0860    0.7860 O   0  0  0  0  0  0  0  0  0  0  0  0
    4.4570    2.1530    0.6700 O   0  0  0  0  0  0  0  0  0  0  0  0
   -0.2550    0.6150   -0.4290 C   0  0  0  0  0  0  0  0  0  0  0  0
   -1.5990    0.3760   -0.2850 C   0  0  0  0  0  0  0  0  0  0  0  0
   -2.4960    1.4280   -0.4180 O   0  0  0  0  0  0  0  0  0  0  0  0
   -2.0470    2.7470   -0.7070 C   0  0  0  0  0  0  0  0  0  0  0  0
  1  2  1  0
  2  3  1  0
  3  4  2  0
  3 13  1  0
  4  5  1  0
  5  6  2  0
  6  7  1  0
  6 12  1  0
  7  8  1  0
  8  9  1  0
  9 10  2  0
  9 11  1  0
 12 13  2  0
 13 14  1  0
 14 15  1  0
M  END
