
     RDKit          3D

 23 23  0  0  0  0  0  0  0  0999 V2000
   -3.4910   -0.0750   -2.7610 C   0  0  0  0  0  0  0  0  0  0  0  0
   -3.3170   -0.5200   -1.5500 C   0  0  0  0  0  0  0  0  0  0  0  0
   -4.2300   -1.4500   -1.0760 O   0  0  0  0  0  0  0  0  0  0  0  0
   -2.1670   -0.0290   -0.7300 C   0  0  0  0  0  0  0  0  0  0  0  0
   -2.1000   -0.5610    0.4670 C   0  0  0  0  0  0  0  0  0  0  0  0
   -1.2120   -0.4320    1.6070 C   0  0  2  0  0  0  0  0  0  0  0  0
   -1.7340   -1.2230    2.7690 N   0  0  0  0  0  0  0  0  0  0  0  0
   -1.0240    1.1990    2.2680 Cl  0  0  0  0  0  0  0  0  0  0  0  0
    0.1880   -1.0160    1.4260 C   0  0  0  0  0  0  0  0  0  0  0  0
    1.0180   -0.0800    0.6420 C   0  0  0  0  0  0  0  0  0  0  0  0
    2.4680   -0.0020    0.8170 C   0  0  1  0  0  0  0  0  0  0  0  0
    3.0600   -0.8420    1.8890 C   0  0  0  0  0  0  0  0  0  0  0  0
    2.6590   -0.8250    3.2340 N   0  0  0  0  0  0  0  0  0  0  0  0
    4.0040   -1.6380    1.5770 O   0  0  0  0  0  0  0  0  0  0  0  0
    3.1620   -0.2130   -0.4470 N   0  0  0  0  0  0  0  0  0  0  0  0
    2.6900   -0.4000   -1.7400 C   0  0  0  0  0  0  0  0  0  0  0  0
    3.0370   -1.5660   -2.2400 O   0  0  0  0  0  0  0  0  0  0  0  0
    1.9140    0.3770   -2.6660 C   0  0  0  0  0  0  0  0  0  0  0  0
    2.2100    0.2610   -3.9470 O   0  0  0  0  0  0  0  0  0  0  0  0
    0.8920    1.2460   -2.5040 O   0  0  0  0  0  0  0  0  0  0  0  0
    0.5820    2.3020   -1.6980 C   0  0  0  0  0  0  0  0  0  0  0  0
   -0.8530    2.1320   -1.1610 C   0  0  0  0  0  0  0  0  0  0  0  0
   -1.3670    0.8830   -1.3340 O   0  0  0  0  0  0  0  0  0  0  0  0
  1  2  2  0
  2  3  1  0
  2  4  1  0
  4  5  2  0
  4 23  1  0
  5  6  1  0
  6  7  1  1
  6  8  1  0
  6  9  1  0
  9 10  1  0
 10 11  1  0
 11 12  1  1
 11 15  1  0
 12 13  1  0
 12 14  2  0
 15 16  1  0
 16 17  2  0
 16 18  1  0
 18 19  2  0
 18 20  1  0
 20 21  1  0
 21 22  1  0
 22 23  1  0
M  END
