
     RDKit          3D

 23 24  0  0  0  0  0  0  0  0999 V2000
    5.8270   -0.5960    0.6260 O   0  0  0  0  0  0  0  0  0  0  0  0
    5.5450   -1.7150    0.1240 C   0  0  0  0  0  0  0  0  0  0  0  0
    6.5340   -2.7070   -0.0340 O   0  0  0  0  0  0  0  0  0  0  0  0
    4.2080   -1.9750   -0.2880 N   0  0  0  0  0  0  0  0  0  0  0  0
    3.1770   -0.9810   -0.1310 C   0  0  0  0  0  0  0  0  0  0  0  0
    3.5420    0.0950    0.3850 O   0  0  0  0  0  0  0  0  0  0  0  0
    1.8280   -1.3320   -0.5860 C   0  0  0  0  0  0  0  0  0  0  0  0
    0.9020   -0.1830   -0.3850 C   0  0  1  0  0  0  0  0  0  0  0  0
    0.8630    0.1490    0.9680 O   0  0  0  0  0  0  0  0  0  0  0  0
    1.2390    1.0570   -1.1640 C   0  0  0  0  0  0  0  0  0  0  0  0
    0.1840    2.0990   -0.7830 C   0  0  0  0  0  0  0  0  0  0  0  0
   -0.6860    1.6370    0.1810 O   0  0  0  0  0  0  0  0  0  0  0  0
   -1.4100    0.5500   -0.2500 C   0  0  2  0  0  0  0  0  0  0  0  0
   -2.4780    0.9750   -1.2530 C   0  0  0  0  0  0  0  0  0  0  0  0
   -3.3830    1.9570   -0.5390 C   0  0  0  0  0  0  0  0  0  0  0  0
   -4.3990    2.3920   -1.4210 O   0  0  0  0  0  0  0  0  0  0  0  0
   -2.1350   -0.0920    0.8850 C   0  0  0  0  0  0  0  0  0  0  0  0
   -3.0820   -1.0230    0.6680 N   0  0  0  0  0  0  0  0  0  0  0  0
   -3.5780   -1.4450    1.8400 C   0  0  0  0  0  0  0  0  0  0  0  0
   -2.9150   -0.7490    2.8150 C   0  0  0  0  0  0  0  0  0  0  0  0
   -3.0900   -0.8310    4.5580 Cl  0  0  0  0  0  0  0  0  0  0  0  0
   -2.0370    0.0730    2.1970 N   0  0  0  0  0  0  0  0  0  0  0  0
   -0.5280   -0.5420   -0.8310 C   0  0  0  0  0  0  0  0  0  0  0  0
  1  2  2  0
  2  3  1  0
  2  4  1  0
  4  5  1  0
  5  6  2  0
  5  7  1  0
  7  8  1  0
  8  9  1  1
  8 10  1  0
  8 23  1  0
 10 11  1  0
 11 12  1  0
 12 13  1  0
 13 14  1  6
 13 17  1  0
 13 23  1  0
 14 15  1  0
 15 16  1  0
 17 18  2  0
 17 22  1  0
 18 19  1  0
 19 20  2  0
 20 21  1  0
 20 22  1  0
M  END
