
     RDKit          3D

 37 39  0  0  0  0  0  0  0  0999 V2000
   -5.4290   -0.7410    3.6720 C   0  0  0  0  0  0  0  0  0  0  0  0
   -5.9690   -1.2610    2.5700 C   0  0  0  0  0  0  0  0  0  0  0  0
   -7.3250   -1.8940    2.7580 C   0  0  0  0  0  0  0  0  0  0  0  0
   -5.2660   -1.2170    1.3160 C   0  0  0  0  0  0  0  0  0  0  0  0
   -3.9440   -0.5630    1.2510 C   0  0  0  0  0  0  0  0  0  0  0  0
   -3.3280   -0.0560    2.1940 O   0  0  0  0  0  0  0  0  0  0  0  0
   -3.2530   -0.4540    0.0020 O   0  0  0  0  0  0  0  0  0  0  0  0
   -1.9920    0.2250    0.0130 C   0  0  1  0  0  0  0  0  0  0  0  0
   -0.9300   -0.4370   -0.7550 C   0  0  0  0  0  0  0  0  0  0  0  0
   -1.1440   -1.3640   -1.5820 O   0  0  0  0  0  0  0  0  0  0  0  0
    0.3960    0.0190   -0.5210 N   0  0  0  0  0  0  0  0  0  0  0  0
    0.7510    1.0190    0.4740 C   0  0  0  0  0  0  0  0  0  0  0  0
    2.0520    1.5960   -0.0080 C   0  0  0  0  0  0  0  0  0  0  0  0
    2.6460    0.6010   -0.9890 C   0  0  1  0  0  0  0  0  0  0  0  0
    3.9150    0.0590   -0.4930 C   0  0  0  0  0  0  0  0  0  0  0  0
    4.2690    0.4280    0.6550 O   0  0  0  0  0  0  0  0  0  0  0  0
    4.7580   -0.8500   -1.2320 C   0  0  0  0  0  0  0  0  0  0  0  0
    5.9100   -1.3740   -0.8520 C   0  0  0  0  0  0  0  0  0  0  0  0
    6.8540   -1.2060    0.6450 S   0  0  0  0  0  0  0  0  0  0  0  0
    5.9620   -0.9650    2.1210 C   0  0  0  0  0  0  0  0  0  0  0  0
    6.3420   -0.0280    3.0010 C   0  0  0  0  0  0  0  0  0  0  0  0
    7.5250    0.8170    2.7310 C   0  0  0  0  0  0  0  0  0  0  0  0
    6.5120   -2.1510   -2.0130 C   0  0  0  0  0  0  0  0  0  0  0  0
    5.7440   -1.6430   -3.2060 C   0  0  0  0  0  0  0  0  0  0  0  0
    4.3920   -1.3820   -2.5980 C   0  0  0  0  0  0  0  0  0  0  0  0
    1.5690   -0.4130   -1.2280 C   0  0  0  0  0  0  0  0  0  0  0  0
   -2.3410    1.5490   -0.6480 C   0  0  0  0  0  0  0  0  0  0  0  0
   -3.4380    2.2530   -0.2650 C   0  0  0  0  0  0  0  0  0  0  0  0
   -3.7640    3.4770   -0.8670 C   0  0  0  0  0  0  0  0  0  0  0  0
   -4.8760    4.2150   -0.4940 O   0  0  0  0  0  0  0  0  0  0  0  0
   -2.9540    3.9720   -1.8670 C   0  0  0  0  0  0  0  0  0  0  0  0
   -1.8520    3.2540   -2.2450 C   0  0  0  0  0  0  0  0  0  0  0  0
   -0.8290    3.8920   -3.5100 Cl  0  0  0  0  0  0  0  0  0  0  0  0
   -1.5480    2.0440   -1.6350 C   0  0  0  0  0  0  0  0  0  0  0  0
   -5.7750   -1.7170    0.1970 C   0  0  0  0  0  0  0  0  0  0  0  0
   -7.0570   -2.3500    0.0250 C   0  0  0  0  0  0  0  0  0  0  0  0
   -4.7570   -1.5740   -1.2580 Cl  0  0  0  0  0  0  0  0  0  0  0  0
  1  2  2  0
  2  3  1  0
  2  4  1  0
  4  5  1  0
  4 35  2  3
  5  6  2  0
  5  7  1  0
  8  7  1  6
  8  9  1  0
  8 27  1  0
  9 10  2  0
  9 11  1  0
 11 12  1  0
 11 26  1  0
 12 13  1  0
 13 14  1  0
 14 15  1  1
 14 26  1  0
 15 16  2  0
 15 17  1  0
 17 18  2  0
 17 25  1  0
 18 19  1  0
 18 23  1  0
 19 20  1  0
 20 21  2  3
 21 22  1  0
 23 24  1  0
 24 25  1  0
 27 28  2  0
 27 34  1  0
 28 29  1  0
 29 30  1  0
 29 31  2  0
 31 32  1  0
 32 33  1  0
 32 34  2  0
 35 36  1  0
 35 37  1  0
M  END
