
     RDKit          3D

 37 39  0  0  0  0  0  0  0  0999 V2000
    1.2670    0.7420   -2.3750 C   0  0  0  0  0  0  0  0  0  0  0  0
    1.7480   -0.0840   -1.3390 O   0  0  0  0  0  0  0  0  0  0  0  0
    2.6130   -1.1510   -1.5400 C   0  0  0  0  0  0  0  0  0  0  0  0
    2.0750   -2.3900   -1.7700 C   0  0  0  0  0  0  0  0  0  0  0  0
    0.6060   -2.6380   -1.7960 C   0  0  0  0  0  0  0  0  0  0  0  0
    0.1510   -2.5950   -0.4010 C   0  0  0  0  0  0  0  0  0  0  0  0
    0.9590   -2.3620    0.5370 O   0  0  0  0  0  0  0  0  0  0  0  0
   -1.2060   -2.8060   -0.0070 N   0  0  0  0  0  0  0  0  0  0  0  0
   -1.6210   -2.7500    1.3430 C   0  0  2  0  0  0  0  0  0  0  0  0
   -2.2140   -3.9770    1.9460 C   0  0  0  0  0  0  0  0  0  0  0  0
   -2.1580   -3.6560    3.4270 C   0  0  0  0  0  0  0  0  0  0  0  0
   -1.8140   -4.3770    4.2990 O   0  0  0  0  0  0  0  0  0  0  0  0
   -2.7470   -1.9330    3.4560 S   0  0  0  0  0  0  0  0  0  0  0  0
   -2.6300   -1.6440    1.6660 C   0  0  1  0  0  0  0  0  0  0  0  0
   -2.1230   -0.3010    1.2840 C   0  0  0  0  0  0  0  0  0  0  0  0
   -3.0350    0.7970    1.5830 C   0  0  0  0  0  0  0  0  0  0  0  0
   -3.6110    1.5350    0.6630 C   0  0  0  0  0  0  0  0  0  0  0  0
   -3.3290    1.2430   -0.7540 C   0  0  0  0  0  0  0  0  0  0  0  0
   -4.4020    1.1490   -1.5720 C   0  0  0  0  0  0  0  0  0  0  0  0
   -4.2440    0.8140   -3.2580 Cl  0  0  0  0  0  0  0  0  0  0  0  0
   -5.6990    1.3300   -0.8590 C   0  0  0  0  0  0  0  0  0  0  0  0
   -5.6910    2.5930   -0.0380 C   0  0  0  0  0  0  0  0  0  0  0  0
   -4.5460    2.6670    0.9420 C   0  0  1  0  0  0  0  0  0  0  0  0
   -5.1030    2.6890    2.3220 C   0  0  0  0  0  0  0  0  0  0  0  0
   -3.8260    3.9870    0.6130 C   0  0  0  0  0  0  0  0  0  0  0  0
    2.9170   -3.4570   -1.9720 C   0  0  0  0  0  0  0  0  0  0  0  0
    4.2930   -3.2590   -1.9370 C   0  0  0  0  0  0  0  0  0  0  0  0
    5.4060   -4.5910   -2.1880 Cl  0  0  0  0  0  0  0  0  0  0  0  0
    4.8450   -2.0140   -1.7050 C   0  0  0  0  0  0  0  0  0  0  0  0
    6.3250   -1.7780   -1.6640 C   0  0  0  0  0  0  0  0  0  0  0  0
    3.9660   -0.9680   -1.5080 C   0  0  0  0  0  0  0  0  0  0  0  0
    4.4920    0.3730   -1.2560 C   0  0  0  0  0  0  0  0  0  0  0  0
    4.7490    1.1900   -2.1540 O   0  0  0  0  0  0  0  0  0  0  0  0
    4.7130    0.7540    0.0730 O   0  0  0  0  0  0  0  0  0  0  0  0
    5.2180    2.0450    0.3490 C   0  0  1  0  0  0  0  0  0  0  0  0
    4.2030    2.8980    1.0710 C   0  0  0  0  0  0  0  0  0  0  0  0
    6.5330    1.9890    1.0770 C   0  0  0  0  0  0  0  0  0  0  0  0
  1  2  1  0
  2  3  1  0
  3  4  2  0
  3 31  1  0
  4  5  1  0
  4 26  1  0
  5  6  1  0
  6  7  2  0
  6  8  1  0
  9  8  1  6
  9 10  1  0
  9 14  1  0
 10 11  1  0
 11 12  2  0
 11 13  1  0
 13 14  1  0
 14 15  1  1
 15 16  1  0
 16 17  2  3
 17 18  1  0
 17 23  1  0
 18 19  2  0
 19 20  1  0
 19 21  1  0
 21 22  1  0
 22 23  1  0
 23 24  1  1
 23 25  1  0
 26 27  2  0
 27 28  1  0
 27 29  1  0
 29 30  1  0
 29 31  2  0
 31 32  1  0
 32 33  2  0
 32 34  1  0
 34 35  1  0
 35 36  1  1
 35 37  1  0
M  END
