
     RDKit          3D

 37 39  0  0  0  0  0  0  0  0999 V2000
   10.7120   -0.3140    2.6680 C   0  0  0  0  0  0  0  0  0  0  0  0
    9.5670   -0.0380    1.8990 O   0  0  0  0  0  0  0  0  0  0  0  0
    8.3010    0.0650    2.4510 C   0  0  0  0  0  0  0  0  0  0  0  0
    8.2850   -0.1180    3.7350 O   0  0  0  0  0  0  0  0  0  0  0  0
    7.0600    0.3350    1.8530 C   0  0  0  0  0  0  0  0  0  0  0  0
    6.8930    0.5280    0.4970 C   0  0  0  0  0  0  0  0  0  0  0  0
    8.1410    0.4130   -0.2490 C   0  0  0  0  0  0  0  0  0  0  0  0
    5.5400    0.7120    0.1110 C   0  0  0  0  0  0  0  0  0  0  0  0
    4.9150    0.9780   -0.9830 C   0  0  0  0  0  0  0  0  0  0  0  0
    3.4090    1.0590   -0.9260 C   0  0  0  0  0  0  0  0  0  0  0  0
    2.5720    1.2740   -1.8870 C   0  0  0  0  0  0  0  0  0  0  0  0
    2.8010    1.5020   -3.3320 C   0  0  0  0  0  0  0  0  0  0  0  0
    1.1750    1.2800   -1.3410 C   0  0  0  0  0  0  0  0  0  0  0  0
   -0.2580    1.6280   -2.3240 Cl  0  0  0  0  0  0  0  0  0  0  0  0
    1.1600    1.0620   -0.0600 C   0  0  0  0  0  0  0  0  0  0  0  0
   -0.1310    0.9550    1.1310 S   0  0  0  0  0  0  0  0  0  0  0  0
   -1.6350    0.2070    0.6760 C   0  0  0  0  0  0  0  0  0  0  0  0
   -2.5490    0.2540    1.5270 O   0  0  0  0  0  0  0  0  0  0  0  0
   -1.9770   -0.4760   -0.5650 C   0  0  0  0  0  0  0  0  0  0  0  0
   -2.9220   -1.6290   -0.4450 C   0  0  0  0  0  0  0  0  0  0  0  0
   -4.2160   -1.3960    0.0880 N   0  0  0  0  0  0  0  0  0  0  0  0
   -5.2580   -0.9490   -0.8260 C   0  0  0  0  0  0  0  0  0  0  0  0
   -6.5480   -0.5970   -0.1930 C   0  0  2  0  0  0  0  0  0  0  0  0
   -7.6710   -1.2070   -1.0540 C   0  0  0  0  0  0  0  0  0  0  0  0
   -8.8860   -0.5380   -0.5010 C   0  0  0  0  0  0  0  0  0  0  0  0
   -8.4390    0.8730   -0.1980 C   0  0  0  0  0  0  0  0  0  0  0  0
   -6.9120    0.8740   -0.3140 C   0  0  0  0  0  0  0  0  0  0  0  0
   -6.7830   -1.0450    1.1980 C   0  0  0  0  0  0  0  0  0  0  0  0
   -5.5630   -0.8000    2.0700 C   0  0  1  0  0  0  0  0  0  0  0  0
   -5.8020   -1.2030    3.5040 C   0  0  0  0  0  0  0  0  0  0  0  0
   -4.4760   -1.5920    1.4660 C   0  0  0  0  0  0  0  0  0  0  0  0
   -3.8320   -2.3960    2.1670 O   0  0  0  0  0  0  0  0  0  0  0  0
    2.6210    0.9110    0.2820 C   0  0  0  0  0  0  0  0  0  0  0  0
    2.9630    0.6970    1.4520 O   0  0  0  0  0  0  0  0  0  0  0  0
    5.6720    1.3050   -2.1960 C   0  0  2  0  0  0  0  0  0  0  0  0
    5.9560    0.2410   -3.1680 C   0  0  0  0  0  0  0  0  0  0  0  0
    7.0000    2.4900   -1.9320 Cl  0  0  0  0  0  0  0  0  0  0  0  0
  1  2  1  0
  2  3  1  0
  3  4  2  0
  3  5  1  0
  5  6  2  3
  6  7  1  0
  6  8  1  0
  8  9  2  3
  9 10  1  0
  9 35  1  0
 10 11  2  0
 10 33  1  0
 11 12  1  0
 11 13  1  0
 13 14  1  0
 13 15  2  0
 15 16  1  0
 15 33  1  0
 16 17  1  0
 17 18  2  0
 17 19  1  0
 19 20  1  0
 20 21  1  0
 21 22  1  0
 21 31  1  0
 23 22  1  6
 23 24  1  0
 23 27  1  0
 23 28  1  0
 24 25  1  0
 25 26  1  0
 26 27  1  0
 28 29  1  0
 29 30  1  1
 29 31  1  0
 31 32  2  0
 33 34  2  0
 35 36  1  1
 35 37  1  0
M  END
