
     RDKit          3D

 37 40  0  0  0  0  0  0  0  0999 V2000
    9.7530    3.7270   -0.4650 C   0  0  0  0  0  0  0  0  0  0  0  0
    9.1230    2.5130   -0.1750 O   0  0  0  0  0  0  0  0  0  0  0  0
    9.6940    1.3840    0.3450 C   0  0  0  0  0  0  0  0  0  0  0  0
   10.9500    1.4560    0.5890 O   0  0  0  0  0  0  0  0  0  0  0  0
    8.9670    0.1520    0.6210 C   0  0  0  0  0  0  0  0  0  0  0  0
    7.6850    0.0810    0.3690 C   0  0  0  0  0  0  0  0  0  0  0  0
    6.9550    1.2170   -0.1890 C   0  0  0  0  0  0  0  0  0  0  0  0
    5.4940    0.9070   -0.3910 C   0  0  0  0  0  0  0  0  0  0  0  0
    4.9340   -0.2320   -0.1060 C   0  0  0  0  0  0  0  0  0  0  0  0
    3.1940   -0.4360   -0.4060 S   0  0  0  0  0  0  0  0  0  0  0  0
    2.6960   -2.0910    0.0770 C   0  0  0  0  0  0  0  0  0  0  0  0
    1.2260   -2.2480   -0.2220 C   0  0  1  0  0  0  0  0  0  0  0  0
    0.4490   -1.2390    0.5490 C   0  0  0  0  0  0  0  0  0  0  0  0
   -0.9230   -1.0290    0.0380 N   0  0  0  0  0  0  0  0  0  0  0  0
   -1.8810   -0.7650    1.0180 C   0  0  0  0  0  0  0  0  0  0  0  0
   -1.4390   -0.7100    2.2620 O   0  0  0  0  0  0  0  0  0  0  0  0
   -3.2890   -0.5470    0.8300 C   0  0  0  0  0  0  0  0  0  0  0  0
   -4.0490   -0.1750    1.9690 C   0  0  0  0  0  0  0  0  0  0  0  0
   -5.4070    0.0440    1.9360 C   0  0  0  0  0  0  0  0  0  0  0  0
   -6.1690    0.3920    3.1780 C   0  0  0  0  0  0  0  0  0  0  0  0
   -6.0710   -0.1010    0.7390 C   0  0  0  0  0  0  0  0  0  0  0  0
   -7.4890    0.1220    0.6370 C   0  0  0  0  0  0  0  0  0  0  0  0
   -8.2140   -0.9190    0.8410 O   0  0  0  0  0  0  0  0  0  0  0  0
   -8.1040    1.3930    0.3280 C   0  0  1  0  0  0  0  0  0  0  0  0
   -7.7590    2.5750    1.1850 C   0  0  0  0  0  0  0  0  0  0  0  0
   -7.5200    2.5690   -0.2900 C   0  0  1  0  0  0  0  0  0  0  0  0
   -5.8590    2.5970   -0.8470 Cl  0  0  0  0  0  0  0  0  0  0  0  0
   -5.3960   -0.4630   -0.4060 C   0  0  0  0  0  0  0  0  0  0  0  0
   -6.1240   -0.6610   -1.6800 C   0  0  0  0  0  0  0  0  0  0  0  0
   -4.0080   -0.6770   -0.3240 C   0  0  0  0  0  0  0  0  0  0  0  0
   -1.0310   -1.1100   -1.3750 C   0  0  2  0  0  0  0  0  0  0  0  0
   -1.3790   -2.5290   -1.8210 C   0  0  0  0  0  0  0  0  0  0  0  0
    0.4230   -0.9270   -1.9070 C   0  0  0  0  0  0  0  0  0  0  0  0
    1.0560   -2.1280   -1.5950 O   0  0  0  0  0  0  0  0  0  0  0  0
    5.6880   -1.3440    0.4490 C   0  0  0  0  0  0  0  0  0  0  0  0
    6.9800   -1.1750    0.6650 C   0  0  0  0  0  0  0  0  0  0  0  0
    7.8860   -2.5280    1.3390 Cl  0  0  0  0  0  0  0  0  0  0  0  0
  1  2  1  0
  2  3  1  0
  3  4  2  0
  3  5  1  0
  5  6  2  3
  6  7  1  0
  6 36  1  0
  7  8  1  0
  8  9  2  0
  9 10  1  0
  9 35  1  0
 10 11  1  0
 12 11  1  6
 12 13  1  0
 12 34  1  0
 13 14  1  0
 14 15  1  0
 14 31  1  0
 15 16  2  0
 15 17  1  0
 17 18  2  0
 17 30  1  0
 18 19  1  0
 19 20  1  0
 19 21  2  0
 21 22  1  0
 21 28  1  0
 22 23  2  0
 24 22  1  1
 24 25  1  0
 24 26  1  0
 25 26  1  0
 26 27  1  1
 28 29  1  0
 28 30  2  0
 31 32  1  1
 31 33  1  0
 33 34  1  0
 35 36  2  0
 36 37  1  0
M  END
