
     RDKit          3D

 37 39  0  0  0  0  0  0  0  0999 V2000
   11.1770    1.7430   -0.1620 C   0  0  0  0  0  0  0  0  0  0  0  0
    9.6930    1.5840    0.0300 C   0  0  0  0  0  0  0  0  0  0  0  0
    9.1470    0.3590    0.1600 C   0  0  0  0  0  0  0  0  0  0  0  0
   10.0120   -0.7570    0.1060 C   0  0  0  0  0  0  0  0  0  0  0  0
    9.9100   -2.0380    0.2350 C   0  0  0  0  0  0  0  0  0  0  0  0
    8.4480   -2.8990    0.5740 Cl  0  0  0  0  0  0  0  0  0  0  0  0
    7.7270    0.3230    0.4100 C   0  0  0  0  0  0  0  0  0  0  0  0
    6.8390   -0.5530   -0.1780 C   0  0  0  0  0  0  0  0  0  0  0  0
    5.5070   -0.6730    0.1410 C   0  0  0  0  0  0  0  0  0  0  0  0
    4.9800    0.1310    1.1190 C   0  0  0  0  0  0  0  0  0  0  0  0
    3.5720    0.0170    1.4680 C   0  0  0  0  0  0  0  0  0  0  0  0
    3.1250    0.7690    2.3660 O   0  0  0  0  0  0  0  0  0  0  0  0
    2.7020   -0.8730    0.8640 O   0  0  0  0  0  0  0  0  0  0  0  0
    1.3350   -0.9760    1.2110 C   0  0  2  0  0  0  0  0  0  0  0  0
    1.1400   -2.3480    1.8320 C   0  0  0  0  0  0  0  0  0  0  0  0
    0.4700   -0.7730    0.0270 C   0  0  0  0  0  0  0  0  0  0  0  0
    1.0200   -0.5480   -1.0770 O   0  0  0  0  0  0  0  0  0  0  0  0
   -0.8990   -0.8150    0.0590 O   0  0  0  0  0  0  0  0  0  0  0  0
   -1.7400   -0.6240   -1.0620 C   0  0  1  0  0  0  0  0  0  0  0  0
   -2.4350   -1.9460   -1.3200 C   0  0  0  0  0  0  0  0  0  0  0  0
   -2.7450    0.4900   -0.8410 C   0  0  0  0  0  0  0  0  0  0  0  0
   -3.5820    0.0930    0.3560 C   0  0  0  0  0  0  0  0  0  0  0  0
   -4.6270    1.1140    0.6910 C   0  0  2  0  0  0  0  0  0  0  0  0
   -4.0210    2.4650    1.0190 C   0  0  0  0  0  0  0  0  0  0  0  0
   -5.4350    0.5810    1.8540 C   0  0  0  0  0  0  0  0  0  0  0  0
   -7.1250    1.2100    1.8660 S   0  0  0  0  0  0  0  0  0  0  0  0
   -8.2200    0.2140    0.8150 C   0  0  0  0  0  0  0  0  0  0  0  0
   -7.3750   -0.3950   -0.2860 C   0  0  1  0  0  0  0  0  0  0  0  0
   -8.2180   -1.0440   -1.3340 C   0  0  0  0  0  0  0  0  0  0  0  0
   -8.0280   -0.2480   -2.5970 C   0  0  0  0  0  0  0  0  0  0  0  0
   -7.4840    1.0670   -2.1070 C   0  0  0  0  0  0  0  0  0  0  0  0
   -6.6840    0.7100   -0.9470 N   0  0  0  0  0  0  0  0  0  0  0  0
   -5.4750    1.2970   -0.5210 C   0  0  0  0  0  0  0  0  0  0  0  0
   -5.0100    2.1500   -1.3200 O   0  0  0  0  0  0  0  0  0  0  0  0
    5.8100    1.0290    1.7430 C   0  0  0  0  0  0  0  0  0  0  0  0
    7.1440    1.1260    1.4050 C   0  0  0  0  0  0  0  0  0  0  0  0
    8.2070    2.2440    2.2530 Cl  0  0  0  0  0  0  0  0  0  0  0  0
  1  2  1  0
  2  3  2  3
  3  4  1  0
  3  7  1  0
  4  5  2  3
  5  6  1  0
  7  8  2  0
  7 36  1  0
  8  9  1  0
  9 10  2  0
 10 11  1  0
 10 35  1  0
 11 12  2  0
 11 13  1  0
 13 14  1  0
 14 15  1  6
 14 16  1  0
 16 17  2  0
 16 18  1  0
 18 19  1  0
 19 20  1  1
 19 21  1  0
 21 22  1  0
 22 23  1  0
 23 24  1  1
 23 25  1  0
 23 33  1  0
 25 26  1  0
 26 27  1  0
 28 27  1  1
 28 29  1  0
 28 32  1  0
 29 30  1  0
 30 31  1  0
 31 32  1  0
 32 33  1  0
 33 34  2  0
 35 36  2  0
 36 37  1  0
M  END
