
     RDKit          3D

 40 44  0  0  0  0  0  0  0  0999 V2000
    9.4520    1.8890   -0.3180 C   0  0  0  0  0  0  0  0  0  0  0  0
    8.2380    0.9860   -0.5020 C   0  0  0  0  0  0  0  0  0  0  0  0
    6.9940    1.5640   -0.6240 C   0  0  0  0  0  0  0  0  0  0  0  0
    5.8310    0.7750   -0.5120 C   0  0  0  0  0  0  0  0  0  0  0  0
    4.6190    1.1930   -0.5440 O   0  0  0  0  0  0  0  0  0  0  0  0
    3.5080    0.4590   -0.3480 C   0  0  0  0  0  0  0  0  0  0  0  0
    3.6960   -0.8570   -0.0900 C   0  0  0  0  0  0  0  0  0  0  0  0
    2.7410   -1.7780    0.5910 C   0  0  0  0  0  0  0  0  0  0  0  0
    1.7290   -2.3330   -0.2040 N   0  0  0  0  0  0  0  0  0  0  0  0
    1.2530   -3.5660    0.4740 C   0  0  0  0  0  0  0  0  0  0  0  0
    0.6590   -1.5120   -0.5900 C   0  0  0  0  0  0  0  0  0  0  0  0
   -0.2320   -1.1430    0.5960 C   0  0  0  0  0  0  0  0  0  0  0  0
   -1.2770   -0.3850    0.0310 N   0  0  0  0  0  0  0  0  0  0  0  0
   -2.0880   -1.1040   -0.8480 C   0  0  0  0  0  0  0  0  0  0  0  0
   -1.2440    1.0100    0.0690 C   0  0  0  0  0  0  0  0  0  0  0  0
   -2.6340    1.4830   -0.1640 C   0  0  0  0  0  0  0  0  0  0  0  0
   -3.5680    1.1540   -1.1620 C   0  0  0  0  0  0  0  0  0  0  0  0
   -4.7570    1.5710   -0.8280 N   0  0  0  0  0  0  0  0  0  0  0  0
   -6.0520    1.1640   -1.2730 C   0  0  0  0  0  0  0  0  0  0  0  0
   -7.1240    1.9180   -1.5740 C   0  0  0  0  0  0  0  0  0  0  0  0
   -8.4130    1.3110   -1.6750 C   0  0  0  0  0  0  0  0  0  0  0  0
   -8.5490   -0.0480   -1.4330 C   0  0  0  0  0  0  0  0  0  0  0  0
   -7.4420   -0.8510   -1.1210 C   0  0  0  0  0  0  0  0  0  0  0  0
   -7.5260   -2.2960   -0.7590 C   0  0  1  0  0  0  0  0  0  0  0  0
   -7.1070   -3.0620   -1.8000 F   0  0  0  0  0  0  0  0  0  0  0  0
   -6.4550   -2.4330    0.2140 F   0  0  0  0  0  0  0  0  0  0  0  0
   -8.6270   -2.6250   -0.1010 F   0  0  0  0  0  0  0  0  0  0  0  0
   -6.2990   -0.1830   -1.0810 C   0  0  0  0  0  0  0  0  0  0  0  0
   -4.6550    2.1930    0.3910 C   0  0  0  0  0  0  0  0  0  0  0  0
   -5.5380    2.7710    1.2610 C   0  0  0  0  0  0  0  0  0  0  0  0
   -5.2800    3.2560    2.4710 C   0  0  0  0  0  0  0  0  0  0  0  0
   -3.9220    3.1950    2.9050 C   0  0  0  0  0  0  0  0  0  0  0  0
   -2.9880    2.6270    2.0800 C   0  0  0  0  0  0  0  0  0  0  0  0
   -3.3750    2.1270    0.8250 C   0  0  0  0  0  0  0  0  0  0  0  0
    4.9560   -1.3630   -0.0600 C   0  0  0  0  0  0  0  0  0  0  0  0
    5.1340   -2.6010    0.1650 O   0  0  0  0  0  0  0  0  0  0  0  0
    6.0670   -0.5900   -0.2740 C   0  0  0  0  0  0  0  0  0  0  0  0
    7.3090   -1.1360   -0.1790 C   0  0  0  0  0  0  0  0  0  0  0  0
    8.4670   -0.3580   -0.3030 C   0  0  0  0  0  0  0  0  0  0  0  0
    9.7480   -1.0460   -0.2600 C   0  0  0  0  0  0  0  0  0  0  0  0
  1  2  1  0
  2  3  2  0
  2 39  1  0
  3  4  1  0
  4  5  1  0
  4 37  2  0
  5  6  1  0
  6  7  2  0
  7  8  1  0
  7 35  1  0
  8  9  1  0
  9 10  1  0
  9 11  1  0
 11 12  1  0
 12 13  1  0
 13 14  1  0
 13 15  1  0
 15 16  1  0
 16 17  2  0
 16 34  1  0
 17 18  1  0
 18 19  1  0
 18 29  1  0
 19 20  2  0
 19 28  1  0
 20 21  1  0
 21 22  2  0
 22 23  1  0
 23 24  1  0
 23 28  2  0
 24 25  1  6
 24 26  1  0
 24 27  1  0
 29 30  2  0
 29 34  1  0
 30 31  1  0
 31 32  2  0
 32 33  1  0
 33 34  2  0
 35 36  2  0
 35 37  1  0
 37 38  1  0
 38 39  2  0
 39 40  1  0
M  END
