
     RDKit          3D

 40 43  0  0  0  0  0  0  0  0999 V2000
   -2.5900   -5.6330    1.8860 C   0  0  0  0  0  0  0  0  0  0  0  0
   -2.2600   -5.9280    0.4650 C   0  0  0  0  0  0  0  0  0  0  0  0
   -2.2670   -7.0970    0.1160 O   0  0  0  0  0  0  0  0  0  0  0  0
   -1.9270   -4.9180   -0.5460 C   0  0  0  0  0  0  0  0  0  0  0  0
   -1.9350   -3.5640   -0.0680 N   0  0  0  0  0  0  0  0  0  0  0  0
   -0.7260   -2.9990    0.4610 C   0  0  0  0  0  0  0  0  0  0  0  0
    0.0430   -2.3820   -0.6900 C   0  0  0  0  0  0  0  0  0  0  0  0
    1.3200   -1.7670   -0.1990 C   0  0  0  0  0  0  0  0  0  0  0  0
    2.5040   -2.4640   -0.1250 C   0  0  0  0  0  0  0  0  0  0  0  0
    3.6770   -1.8770    0.3320 C   0  0  0  0  0  0  0  0  0  0  0  0
    3.6770   -0.5670    0.7260 C   0  0  0  0  0  0  0  0  0  0  0  0
    5.1670    0.1320    1.2940 Cl  0  0  0  0  0  0  0  0  0  0  0  0
    2.4920    0.1770    0.6660 C   0  0  0  0  0  0  0  0  0  0  0  0
    2.5000    1.5860    1.0910 C   0  0  0  0  0  0  0  0  0  0  0  0
    3.0810    2.4250    0.0200 C   0  0  0  0  0  0  0  0  0  0  0  0
    3.4050    1.8430   -1.1140 C   0  0  0  0  0  0  0  0  0  0  0  0
    3.9990    2.3710   -2.3740 C   0  0  2  0  0  0  0  0  0  0  0  0
    2.9410    2.8710   -3.1430 F   0  0  0  0  0  0  0  0  0  0  0  0
    4.6010    1.3290   -3.0520 F   0  0  0  0  0  0  0  0  0  0  0  0
    5.0050    3.4280   -2.1480 C   0  0  0  0  0  0  0  0  0  0  0  0
    5.0940    4.4210   -1.2670 C   0  0  0  0  0  0  0  0  0  0  0  0
    4.0970    4.7000   -0.2210 C   0  0  0  0  0  0  0  0  0  0  0  0
    3.2470    3.8620    0.3240 C   0  0  0  0  0  0  0  0  0  0  0  0
    2.1760    4.4730    1.5500 Cl  0  0  0  0  0  0  0  0  0  0  0  0
    1.3310   -0.4490    0.2000 C   0  0  0  0  0  0  0  0  0  0  0  0
   -3.1050   -2.7920   -0.1190 C   0  0  0  0  0  0  0  0  0  0  0  0
   -4.1570   -3.3410   -0.6090 O   0  0  0  0  0  0  0  0  0  0  0  0
   -3.1840   -1.4230    0.3490 C   0  0  0  0  0  0  0  0  0  0  0  0
   -2.9510   -0.3660   -0.4840 C   0  0  0  0  0  0  0  0  0  0  0  0
   -3.0300    0.9670   -0.0530 C   0  0  0  0  0  0  0  0  0  0  0  0
   -2.7840    1.9840   -0.9420 C   0  0  0  0  0  0  0  0  0  0  0  0
   -2.4910    1.6320   -2.1380 O   0  0  0  0  0  0  0  0  0  0  0  0
   -2.8190    3.3200   -0.6850 C   0  0  0  0  0  0  0  0  0  0  0  0
   -3.1130    3.9000    0.5380 C   0  0  0  0  0  0  0  0  0  0  0  0
   -3.1280    5.3740    0.7290 C   0  0  0  0  0  0  0  0  0  0  0  0
   -3.4510    2.7950    1.7850 S   0  0  0  0  0  0  0  0  0  0  0  0
   -3.3590    1.1520    1.2730 C   0  0  0  0  0  0  0  0  0  0  0  0
   -3.5880    0.1090    2.0950 N   0  0  0  0  0  0  0  0  0  0  0  0
   -3.5070   -1.1730    1.6570 C   0  0  0  0  0  0  0  0  0  0  0  0
   -3.7210   -2.1160    2.4270 O   0  0  0  0  0  0  0  0  0  0  0  0
  1  2  1  0
  2  3  2  0
  2  4  1  0
  4  5  1  0
  5  6  1  0
  5 26  1  0
  6  7  1  0
  7  8  1  0
  8  9  2  0
  8 25  1  0
  9 10  1  0
 10 11  2  0
 11 12  1  0
 11 13  1  0
 13 14  1  0
 13 25  2  0
 14 15  1  0
 15 16  2  0
 15 23  1  0
 16 17  1  0
 17 18  1  6
 17 19  1  0
 17 20  1  0
 20 21  2  0
 21 22  1  0
 22 23  2  0
 23 24  1  0
 26 27  2  0
 26 28  1  0
 28 29  2  0
 28 39  1  0
 29 30  1  0
 30 31  1  0
 30 37  2  0
 31 32  2  0
 31 33  1  0
 33 34  2  0
 34 35  1  0
 34 36  1  0
 36 37  1  0
 37 38  1  0
 38 39  1  0
 39 40  2  0
M  END
