
     RDKit          3D

 40 43  0  0  0  0  0  0  0  0999 V2000
   -0.0340    1.7300    2.4870 C   0  0  0  0  0  0  0  0  0  0  0  0
   -1.0490    1.8400    1.4570 N   0  0  0  0  0  0  0  0  0  0  0  0
   -1.6730    0.6450    1.0330 C   0  0  0  0  0  0  0  0  0  0  0  0
   -1.1830    0.0720   -0.0210 C   0  0  0  0  0  0  0  0  0  0  0  0
   -0.0450    0.6560   -0.7150 C   0  0  1  0  0  0  0  0  0  0  0  0
    0.1130    2.0690   -0.5270 N   0  0  0  0  0  0  0  0  0  0  0  0
   -0.1620    2.9500   -1.9890 S   0  0  2  0  0  0  0  0  0  0  0  0
   -0.4570    1.9580   -3.0700 O   0  0  0  0  0  0  0  0  0  0  0  0
    1.0640    3.7310   -2.3670 O   0  0  0  0  0  0  0  0  0  0  0  0
   -1.5250    3.9860   -1.7180 C   0  0  0  0  0  0  0  0  0  0  0  0
   -2.7630    3.4700   -1.4400 C   0  0  0  0  0  0  0  0  0  0  0  0
   -3.8810    4.2890   -1.2500 C   0  0  0  0  0  0  0  0  0  0  0  0
   -3.6870    5.6490   -1.3560 C   0  0  0  0  0  0  0  0  0  0  0  0
   -4.7670    6.4600   -1.1810 F   0  0  0  0  0  0  0  0  0  0  0  0
   -2.4620    6.1640   -1.6300 C   0  0  0  0  0  0  0  0  0  0  0  0
   -2.2550    7.5210   -1.7420 F   0  0  0  0  0  0  0  0  0  0  0  0
   -1.3780    5.3520   -1.8130 C   0  0  0  0  0  0  0  0  0  0  0  0
    1.2540    0.0310   -0.3960 C   0  0  0  0  0  0  0  0  0  0  0  0
    1.4460   -0.9720    0.5290 C   0  0  0  0  0  0  0  0  0  0  0  0
    2.7110   -1.4550    0.7640 C   0  0  0  0  0  0  0  0  0  0  0  0
    3.8310   -0.9760    0.1080 C   0  0  0  0  0  0  0  0  0  0  0  0
    5.2120   -1.4430    0.3640 C   0  0  2  0  0  0  0  0  0  0  0  0
    5.2940   -2.3300    1.6000 C   0  0  0  0  0  0  0  0  0  0  0  0
    6.1360   -0.2680    0.6660 C   0  0  0  0  0  0  0  0  0  0  0  0
    5.7430   -2.1770   -0.8290 C   0  0  0  0  0  0  0  0  0  0  0  0
    3.6300    0.0240   -0.8170 C   0  0  0  0  0  0  0  0  0  0  0  0
    2.3640    0.5140   -1.0610 C   0  0  0  0  0  0  0  0  0  0  0  0
   -1.6780   -1.1450   -0.5850 O   0  0  0  0  0  0  0  0  0  0  0  0
   -2.6250   -2.0400   -0.1150 C   0  0  0  0  0  0  0  0  0  0  0  0
   -2.5070   -3.3210   -0.6720 C   0  0  0  0  0  0  0  0  0  0  0  0
   -3.3680   -4.3290   -0.3080 C   0  0  0  0  0  0  0  0  0  0  0  0
   -3.2960   -5.7140   -0.8530 C   0  0  0  0  0  0  0  0  0  0  0  0
   -2.1390   -5.8580   -2.1760 Cl  0  0  0  0  0  0  0  0  0  0  0  0
   -4.3580   -4.0800    0.6110 C   0  0  0  0  0  0  0  0  0  0  0  0
   -5.4750   -5.3670    1.1070 Cl  0  0  0  0  0  0  0  0  0  0  0  0
   -4.4480   -2.8150    1.1340 C   0  0  0  0  0  0  0  0  0  0  0  0
   -3.6160   -1.7710    0.8090 C   0  0  0  0  0  0  0  0  0  0  0  0
   -3.9910   -0.5280    1.5400 C   0  0  0  0  0  0  0  0  0  0  0  0
   -2.8010    0.2340    1.9010 C   0  0  0  0  0  0  0  0  0  0  0  0
   -2.6980    0.5940    3.0870 O   0  0  0  0  0  0  0  0  0  0  0  0
  1  2  1  0
  2  3  1  0
  3  4  2  0
  3 39  1  0
  4  5  1  0
  4 28  1  0
  5  6  1  1
  5 18  1  0
  7  6  1  1
  7  8  2  0
  7  9  2  0
  7 10  1  0
 10 11  2  0
 10 17  1  0
 11 12  1  0
 12 13  2  0
 13 14  1  0
 13 15  1  0
 15 16  1  0
 15 17  2  0
 18 19  2  0
 18 27  1  0
 19 20  1  0
 20 21  2  0
 21 22  1  0
 21 26  1  0
 22 23  1  1
 22 24  1  0
 22 25  1  0
 26 27  2  0
 28 29  1  0
 29 30  2  0
 29 37  1  0
 30 31  1  0
 31 32  1  0
 31 34  2  0
 32 33  1  0
 34 35  1  0
 34 36  1  0
 36 37  2  0
 37 38  1  0
 38 39  1  0
 39 40  2  0
M  END
