
     RDKit          3D

 40 43  0  0  0  0  0  0  0  0999 V2000
    7.7150   -1.3920    0.1510 C   0  0  0  0  0  0  0  0  0  0  0  0
    6.3640   -1.3040   -0.5510 C   0  0  0  0  0  0  0  0  0  0  0  0
    5.5530   -0.2200    0.0490 C   0  0  0  0  0  0  0  0  0  0  0  0
    4.3910   -0.5090    0.5980 C   0  0  0  0  0  0  0  0  0  0  0  0
    3.9490   -1.8260    0.6020 O   0  0  0  0  0  0  0  0  0  0  0  0
    3.5960    0.5700    1.1890 C   0  0  0  0  0  0  0  0  0  0  0  0
    2.3570    0.6960    0.5810 O   0  0  0  0  0  0  0  0  0  0  0  0
    1.3340   -0.1940    0.5090 C   0  0  0  0  0  0  0  0  0  0  0  0
    1.4720   -1.3110    1.0600 O   0  0  0  0  0  0  0  0  0  0  0  0
    0.0970    0.1970   -0.2210 C   0  0  0  0  0  0  0  0  0  0  0  0
    0.0740    1.3930   -0.7550 C   0  0  0  0  0  0  0  0  0  0  0  0
   -0.7840    2.0900   -1.4530 N   0  0  0  0  0  0  0  0  0  0  0  0
   -0.4840    3.3120   -1.8160 C   0  0  0  0  0  0  0  0  0  0  0  0
   -1.3490    4.0220   -2.5210 O   0  0  0  0  0  0  0  0  0  0  0  0
    0.6670    3.8920   -1.5080 C   0  0  0  0  0  0  0  0  0  0  0  0
    1.2370    5.0340   -1.7090 C   0  0  0  0  0  0  0  0  0  0  0  0
    0.6010    6.1340   -2.4670 C   0  0  1  0  0  0  0  0  0  0  0  0
    1.3930    7.2420   -2.5330 F   0  0  0  0  0  0  0  0  0  0  0  0
    0.2080    5.7090   -3.7390 F   0  0  0  0  0  0  0  0  0  0  0  0
    1.4870    2.5300   -0.5530 S   0  0  0  0  0  0  0  0  0  0  0  0
   -0.9220   -0.8360   -0.2170 C   0  0  1  0  0  0  0  0  0  0  0  0
   -1.0590   -1.0830    1.3000 C   0  0  0  0  0  0  0  0  0  0  0  0
   -1.0220   -0.0230    2.1730 C   0  0  0  0  0  0  0  0  0  0  0  0
   -1.1190   -0.2160    3.5450 C   0  0  0  0  0  0  0  0  0  0  0  0
   -1.2520   -1.4800    4.0420 C   0  0  0  0  0  0  0  0  0  0  0  0
   -1.3550   -1.6700    5.5340 C   0  0  0  0  0  0  0  0  0  0  0  0
   -1.2900   -2.5460    3.1950 C   0  0  0  0  0  0  0  0  0  0  0  0
   -1.1930   -2.3330    1.8310 C   0  0  0  0  0  0  0  0  0  0  0  0
   -1.2450   -3.7180    0.7770 Cl  0  0  0  0  0  0  0  0  0  0  0  0
   -2.2700   -0.5550   -0.5430 N   0  0  0  0  0  0  0  0  0  0  0  0
   -3.1320    0.3070    0.2580 C   0  0  0  0  0  0  0  0  0  0  0  0
   -4.4950    0.4800   -0.3100 C   0  0  0  0  0  0  0  0  0  0  0  0
   -5.0600   -0.9260   -0.5830 C   0  0  0  0  0  0  0  0  0  0  0  0
   -4.2360   -1.3780   -1.7620 C   0  0  0  0  0  0  0  0  0  0  0  0
   -4.8530   -1.9590   -2.8300 C   0  0  0  0  0  0  0  0  0  0  0  0
   -4.0610   -2.3390   -3.8850 C   0  0  0  0  0  0  0  0  0  0  0  0
   -2.7090   -2.1340   -3.8510 C   0  0  0  0  0  0  0  0  0  0  0  0
   -2.1150   -1.5400   -2.7480 C   0  0  0  0  0  0  0  0  0  0  0  0
   -0.3920   -1.2820   -2.7190 Cl  0  0  0  0  0  0  0  0  0  0  0  0
   -2.8640   -1.1520   -1.6870 C   0  0  0  0  0  0  0  0  0  0  0  0
  1  2  1  0
  2  3  1  0
  3  4  2  3
  4  5  1  0
  4  6  1  0
  6  7  1  0
  7  8  1  0
  8  9  2  0
  8 10  1  0
 10 11  2  3
 10 21  1  0
 11 12  1  0
 11 20  1  0
 12 13  1  0
 13 14  2  0
 13 15  1  0
 15 16  2  3
 15 20  1  0
 16 17  1  0
 17 18  1  6
 17 19  1  0
 21 22  1  0
 21 30  1  1
 22 23  2  0
 22 28  1  0
 23 24  1  0
 24 25  2  0
 25 26  1  0
 25 27  1  0
 27 28  2  0
 28 29  1  0
 30 31  1  0
 30 40  1  0
 31 32  1  0
 32 33  1  0
 33 34  1  0
 34 35  2  0
 34 40  1  0
 35 36  1  0
 36 37  2  0
 37 38  1  0
 38 39  1  0
 38 40  2  0
M  END
