
     RDKit          3D

 40 42  0  0  0  0  0  0  0  0999 V2000
   -6.5090   -1.3210   -1.4960 C   0  0  0  0  0  0  0  0  0  0  0  0
   -5.3990   -1.1510   -2.4630 C   0  0  0  0  0  0  0  0  0  0  0  0
   -4.0310   -1.5080   -2.0210 C   0  0  0  0  0  0  0  0  0  0  0  0
   -3.3960   -0.6730   -0.9570 C   0  0  0  0  0  0  0  0  0  0  0  0
   -4.0200    0.3770   -0.4950 C   0  0  0  0  0  0  0  0  0  0  0  0
   -3.6870    1.3910    0.5140 C   0  0  0  0  0  0  0  0  0  0  0  0
   -4.5900    1.6210    1.4550 C   0  0  0  0  0  0  0  0  0  0  0  0
   -5.8980    0.9440    1.5640 C   0  0  0  0  0  0  0  0  0  0  0  0
   -6.0180    0.0810    3.1010 Cl  0  0  0  0  0  0  0  0  0  0  0  0
   -2.5200    2.2410    0.5290 N   0  0  0  0  0  0  0  0  0  0  0  0
   -2.7750    3.6400    1.0460 C   0  0  0  0  0  0  0  0  0  0  0  0
   -2.2840    3.8940    2.4100 C   0  0  0  0  0  0  0  0  0  0  0  0
   -0.8950    3.6970    2.5100 O   0  0  0  0  0  0  0  0  0  0  0  0
   -1.2380    2.1100    0.0410 C   0  0  0  0  0  0  0  0  0  0  0  0
   -1.0980    2.8640   -1.0800 O   0  0  0  0  0  0  0  0  0  0  0  0
    0.0160    1.4160    0.3680 C   0  0  0  0  0  0  0  0  0  0  0  0
    0.7760    1.1200   -0.7090 C   0  0  0  0  0  0  0  0  0  0  0  0
    2.0670    0.4880   -0.7090 C   0  0  0  0  0  0  0  0  0  0  0  0
    2.7450    0.1260    0.3390 C   0  0  0  0  0  0  0  0  0  0  0  0
    3.9870   -0.5110    0.2680 C   0  0  0  0  0  0  0  0  0  0  0  0
    4.6930   -0.8860    1.2520 O   0  0  0  0  0  0  0  0  0  0  0  0
    4.5430   -0.7810   -0.9750 O   0  0  0  0  0  0  0  0  0  0  0  0
    5.7720   -1.4070   -1.1720 C   0  0  0  0  0  0  0  0  0  0  0  0
    6.9300   -0.6460   -0.5770 C   0  0  0  0  0  0  0  0  0  0  0  0
    8.1550   -1.3960   -0.8490 N   0  0  0  0  0  0  0  0  0  0  0  0
    8.6690   -2.3320   -0.0510 C   0  0  0  0  0  0  0  0  0  0  0  0
    9.8080   -2.8110   -0.6240 C   0  0  0  0  0  0  0  0  0  0  0  0
    9.9930   -2.1430   -1.8140 C   0  0  0  0  0  0  0  0  0  0  0  0
    8.9510   -1.2710   -1.9260 C   0  0  0  0  0  0  0  0  0  0  0  0
    2.2180    0.7560    1.9210 S   0  0  0  0  0  0  0  0  0  0  0  0
    0.3910    0.8850    1.6720 C   0  0  0  0  0  0  0  0  0  0  0  0
   -0.3210    0.3590    2.6240 C   0  0  0  0  0  0  0  0  0  0  0  0
   -1.7120    0.0700    2.8060 C   0  0  0  0  0  0  0  0  0  0  0  0
   -2.6660    0.6750    4.1390 Cl  0  0  0  0  0  0  0  0  0  0  0  0
   -2.3690   -0.7850    1.9700 C   0  0  0  0  0  0  0  0  0  0  0  0
   -1.6560   -1.4350    0.8660 C   0  0  0  0  0  0  0  0  0  0  0  0
   -2.0880   -1.1870   -0.5040 C   0  0  0  0  0  0  0  0  0  0  0  0
   -1.1830   -1.4610   -1.4340 C   0  0  0  0  0  0  0  0  0  0  0  0
    0.0300   -1.9420   -1.0110 F   0  0  0  0  0  0  0  0  0  0  0  0
   -1.3260   -1.2950   -2.7580 F   0  0  0  0  0  0  0  0  0  0  0  0
  1  2  1  0
  2  3  1  0
  3  4  1  0
  4  5  2  0
  4 37  1  0
  5  6  1  0
  6  7  2  3
  6 10  1  0
  7  8  1  0
  8  9  1  0
 10 11  1  0
 10 14  1  0
 11 12  1  0
 12 13  1  0
 14 15  2  0
 14 16  1  0
 16 17  2  0
 16 31  1  0
 17 18  1  0
 18 19  2  0
 19 20  1  0
 19 30  1  0
 20 21  2  0
 20 22  1  0
 22 23  1  0
 23 24  1  0
 24 25  1  0
 25 26  1  0
 25 29  1  0
 26 27  2  0
 27 28  1  0
 28 29  2  0
 30 31  1  0
 31 32  2  0
 32 33  1  0
 33 34  1  0
 33 35  2  0
 35 36  1  0
 36 37  1  0
 37 38  2  3
 38 39  1  0
 38 40  1  0
M  END
