
     RDKit          3D

 40 43  0  0  0  0  0  0  0  0999 V2000
   -1.9260    3.5540   -2.1740 C   0  0  0  0  0  0  0  0  0  0  0  0
   -2.8170    2.9260   -1.4490 C   0  0  0  0  0  0  0  0  0  0  0  0
   -2.9270    1.4420   -1.3720 C   0  0  0  0  0  0  0  0  0  0  0  0
   -2.7300    1.0790    0.0180 N   0  0  0  0  0  0  0  0  0  0  0  0
   -1.4070    0.8070    0.4590 C   0  0  0  0  0  0  0  0  0  0  0  0
   -0.5820    1.7970    0.9630 C   0  0  0  0  0  0  0  0  0  0  0  0
    0.7050    1.5610    1.3980 C   0  0  0  0  0  0  0  0  0  0  0  0
    1.2140    0.2820    1.3350 C   0  0  0  0  0  0  0  0  0  0  0  0
    2.5010   -0.0120    1.7570 O   0  0  0  0  0  0  0  0  0  0  0  0
    3.6000    0.0390    0.9300 C   0  0  0  0  0  0  0  0  0  0  0  0
    3.5480    0.3840   -0.3940 C   0  0  0  0  0  0  0  0  0  0  0  0
    4.6730    0.4300   -1.1740 C   0  0  0  0  0  0  0  0  0  0  0  0
    4.6000    0.8610   -2.8640 Cl  0  0  0  0  0  0  0  0  0  0  0  0
    5.9580    0.1170   -0.6290 C   0  0  0  0  0  0  0  0  0  0  0  0
    6.9990    0.3300   -1.3560 C   0  0  0  0  0  0  0  0  0  0  0  0
    8.3960    0.1990   -1.1860 C   0  0  0  0  0  0  0  0  0  0  0  0
    9.2600    0.4190   -2.2080 C   0  0  0  0  0  0  0  0  0  0  0  0
   10.5760    0.2910   -2.0250 F   0  0  0  0  0  0  0  0  0  0  0  0
    8.7410    0.7670   -3.3910 F   0  0  0  0  0  0  0  0  0  0  0  0
    6.0160   -0.2510    0.6870 C   0  0  0  0  0  0  0  0  0  0  0  0
    4.8280   -0.2750    1.4610 C   0  0  0  0  0  0  0  0  0  0  0  0
    4.9450   -0.6000    2.8670 C   0  0  0  0  0  0  0  0  0  0  0  0
    3.9180   -0.6360    3.5970 O   0  0  0  0  0  0  0  0  0  0  0  0
    6.2390   -0.8720    3.3780 N   0  0  0  0  0  0  0  0  0  0  0  0
    7.1740   -1.4960    2.4930 C   0  0  0  0  0  0  0  0  0  0  0  0
    6.9850   -1.0660    1.1150 C   0  0  0  0  0  0  0  0  0  0  0  0
    7.8270   -2.0180   -0.1660 Cl  0  0  0  0  0  0  0  0  0  0  0  0
    0.4150   -0.7130    0.8400 C   0  0  0  0  0  0  0  0  0  0  0  0
   -0.8750   -0.4820    0.4030 C   0  0  0  0  0  0  0  0  0  0  0  0
   -4.1180    1.0020    1.0350 S   0  0  1  0  0  0  0  0  0  0  0  0
   -3.6560    0.7610    2.4440 O   0  0  0  0  0  0  0  0  0  0  0  0
   -4.7430    2.3890    1.0230 O   0  0  0  0  0  0  0  0  0  0  0  0
   -5.2570   -0.1910    0.4960 C   0  0  0  0  0  0  0  0  0  0  0  0
   -5.1690   -1.4800    0.9640 C   0  0  0  0  0  0  0  0  0  0  0  0
   -6.0700   -2.4670    0.5500 C   0  0  0  0  0  0  0  0  0  0  0  0
   -7.0450   -2.0720   -0.3480 C   0  0  0  0  0  0  0  0  0  0  0  0
   -8.0350   -3.0680   -0.8290 C   0  0  0  0  0  0  0  0  0  0  0  0
   -7.1660   -0.7980   -0.8370 C   0  0  0  0  0  0  0  0  0  0  0  0
   -8.2240   -0.4040   -1.8000 C   0  0  0  0  0  0  0  0  0  0  0  0
   -6.2480    0.1460   -0.3960 C   0  0  0  0  0  0  0  0  0  0  0  0
  1  2  2  0
  2  3  1  0
  3  4  1  0
  4  5  1  0
 30  4  1  6
  5  6  2  0
  5 29  1  0
  6  7  1  0
  7  8  2  0
  8  9  1  0
  8 28  1  0
  9 10  1  0
 10 11  1  0
 10 21  2  0
 11 12  2  0
 12 13  1  0
 12 14  1  0
 14 15  2  3
 14 20  1  0
 15 16  1  0
 16 17  2  3
 17 18  1  0
 17 19  1  0
 20 21  1  0
 20 26  2  0
 21 22  1  0
 22 23  2  0
 22 24  1  0
 24 25  1  0
 25 26  1  0
 26 27  1  0
 28 29  2  0
 30 31  2  0
 30 32  2  0
 30 33  1  0
 33 34  2  0
 33 40  1  0
 34 35  1  0
 35 36  2  0
 36 37  1  0
 36 38  1  0
 38 39  1  0
 38 40  2  0
M  END
