
     RDKit          3D

 17 18  0  0  0  0  0  0  0  0999 V2000
    1.4570   -1.5030   -1.0910 O   0  0  0  0  0  0  0  0  0  0  0  0
    0.7300   -0.6390   -0.5520 C   0  0  0  0  0  0  0  0  0  0  0  0
    1.3450    0.3510    0.2480 N   0  0  0  0  0  0  0  0  0  0  0  0
    2.7460    0.4270    0.4810 C   0  0  0  0  0  0  0  0  0  0  0  0
    3.3310    0.3550    1.6870 C   0  0  0  0  0  0  0  0  0  0  0  0
    4.7780    0.4720    1.5200 C   0  0  0  0  0  0  0  0  0  0  0  0
    4.9520    0.5250    0.2170 C   0  0  0  0  0  0  0  0  0  0  0  0
    3.8290    0.5940   -0.4790 C   0  0  0  0  0  0  0  0  0  0  0  0
   -0.7220   -0.6580   -0.7500 C   0  0  0  0  0  0  0  0  0  0  0  0
   -1.4210   -1.5560   -1.4930 C   0  0  0  0  0  0  0  0  0  0  0  0
   -2.7530   -1.1680   -1.3800 C   0  0  0  0  0  0  0  0  0  0  0  0
   -2.7900   -0.0490   -0.5680 C   0  0  0  0  0  0  0  0  0  0  0  0
   -4.2020    0.8590   -0.0850 S   0  0  2  0  0  0  0  0  0  0  0  0
   -5.4340    0.1760   -0.6210 O   0  0  0  0  0  0  0  0  0  0  0  0
   -4.1350    2.2890   -0.5680 O   0  0  0  0  0  0  0  0  0  0  0  0
   -4.3600    0.8530    1.6030 O   0  0  0  0  0  0  0  0  0  0  0  0
   -1.5670    0.1990   -0.2320 O   0  0  0  0  0  0  0  0  0  0  0  0
  1  2  2  0
  2  3  1  0
  2  9  1  0
  3  4  1  0
  4  5  2  0
  4  8  1  0
  5  6  1  0
  6  7  2  0
  7  8  2  0
  9 10  2  0
  9 17  1  0
 10 11  1  0
 11 12  2  0
 12 13  1  0
 12 17  1  0
 13 14  2  0
 13 15  2  0
 13 16  1  1
M  END
