
     RDKit          3D

 17 18  0  0  0  0  0  0  0  0999 V2000
    3.6220   -1.0690   -0.2020 O   0  0  0  0  0  0  0  0  0  0  0  0
    3.1340   -0.7130    0.9190 C   0  0  0  0  0  0  0  0  0  0  0  0
    3.9200   -0.8740    2.0310 O   0  0  0  0  0  0  0  0  0  0  0  0
    1.7610   -0.1520    0.9490 C   0  0  0  0  0  0  0  0  0  0  0  0
    1.2040   -0.1110   -0.3520 O   0  0  0  0  0  0  0  0  0  0  0  0
   -0.1340    0.4090   -0.5070 C   0  0  0  0  0  0  0  0  0  0  0  0
   -0.2560    1.7230   -0.7280 C   0  0  0  0  0  0  0  0  0  0  0  0
    0.7130    2.7890   -0.8510 C   0  0  0  0  0  0  0  0  0  0  0  0
    1.9180    2.5390   -0.7470 O   0  0  0  0  0  0  0  0  0  0  0  0
    0.2890    4.0680   -1.0820 O   0  0  0  0  0  0  0  0  0  0  0  0
   -2.0500    1.9800   -0.8640 S   0  0  0  0  0  0  0  0  0  0  0  0
   -2.4460    0.2390   -0.6010 C   0  0  0  0  0  0  0  0  0  0  0  0
   -3.6530   -0.3710   -0.5640 N   0  0  0  0  0  0  0  0  0  0  0  0
   -3.7490   -1.7010   -0.3530 C   0  0  0  0  0  0  0  0  0  0  0  0
   -2.5590   -2.3610   -0.1830 C   0  0  0  0  0  0  0  0  0  0  0  0
   -1.3250   -1.7650   -0.2150 C   0  0  0  0  0  0  0  0  0  0  0  0
   -1.2410   -0.3690   -0.4380 C   0  0  0  0  0  0  0  0  0  0  0  0
  1  2  2  0
  2  3  1  0
  2  4  1  0
  4  5  1  0
  5  6  1  0
  6  7  2  0
  6 17  1  0
  7  8  1  0
  7 11  1  0
  8  9  2  0
  8 10  1  0
 11 12  1  0
 12 13  2  0
 12 17  1  0
 13 14  1  0
 14 15  2  0
 15 16  1  0
 16 17  2  0
M  END
