
     RDKit          3D

 17 17  0  0  0  0  0  0  0  0999 V2000
    4.8280    0.1770    0.2430 C   0  0  0  0  0  0  0  0  0  0  0  0
    4.0690    1.3280   -0.3810 C   0  0  0  0  0  0  0  0  0  0  0  0
    2.3960    1.4910    0.2410 S   0  0  0  0  0  0  0  0  0  0  0  0
    1.3270    0.1410   -0.2350 C   0  0  0  0  0  0  0  0  0  0  0  0
    0.0910    0.1460    0.3160 C   0  0  0  0  0  0  0  0  0  0  0  0
   -0.3130    1.1460    1.2090 N   0  0  0  0  0  0  0  0  0  0  0  0
   -0.7950   -0.9370   -0.0880 C   0  0  0  0  0  0  0  0  0  0  0  0
   -2.0750   -0.8380   -0.2540 C   0  0  0  0  0  0  0  0  0  0  0  0
   -2.7200   -2.0520   -0.6470 O   0  0  0  0  0  0  0  0  0  0  0  0
   -2.9350    0.3000   -0.1090 C   0  0  0  0  0  0  0  0  0  0  0  0
   -2.6070    1.4520    0.2000 O   0  0  0  0  0  0  0  0  0  0  0  0
   -4.3240    0.1440   -0.3330 O   0  0  0  0  0  0  0  0  0  0  0  0
   -5.2210    1.2480   -0.2010 C   0  0  0  0  0  0  0  0  0  0  0  0
   -0.1530   -2.2790   -0.3910 C   0  0  0  0  0  0  0  0  0  0  0  0
    0.8780   -2.0180   -1.3660 O   0  0  0  0  0  0  0  0  0  0  0  0
    1.7550   -0.9410   -1.0940 C   0  0  0  0  0  0  0  0  0  0  0  0
    2.8940   -0.9280   -1.5990 O   0  0  0  0  0  0  0  0  0  0  0  0
  1  2  1  0
  2  3  1  0
  3  4  1  0
  4  5  2  0
  4 16  1  0
  5  6  1  0
  5  7  1  0
  7  8  2  3
  7 14  1  0
  8  9  1  0
  8 10  1  0
 10 11  2  0
 10 12  1  0
 12 13  1  0
 14 15  1  0
 15 16  1  0
 16 17  2  0
M  END
