
     RDKit          3D

 16 16  0  0  0  0  0  0  0  0999 V2000
    4.8280    1.6260    0.3640 C   0  0  0  0  0  0  0  0  0  0  0  0
    4.0760    0.5550    0.8300 O   0  0  0  0  0  0  0  0  0  0  0  0
    3.9930   -0.3850   -0.2080 C   0  0  0  0  0  0  0  0  0  0  0  0
    3.1890   -1.5620    0.2510 C   0  0  0  0  0  0  0  0  0  0  0  0
    1.8810   -1.2700    0.6310 O   0  0  0  0  0  0  0  0  0  0  0  0
    0.9130   -0.7140   -0.1680 C   0  0  0  0  0  0  0  0  0  0  0  0
    1.1940   -0.4350   -1.3400 O   0  0  0  0  0  0  0  0  0  0  0  0
   -0.4330   -0.4660    0.3890 C   0  0  0  0  0  0  0  0  0  0  0  0
   -1.2590    0.1070   -0.6110 O   0  0  0  0  0  0  0  0  0  0  0  0
   -2.5840    0.3970   -0.2050 C   0  0  0  0  0  0  0  0  0  0  0  0
   -2.9370    1.6310   -0.0310 C   0  0  0  0  0  0  0  0  0  0  0  0
   -4.2270    2.1900    0.3800 C   0  0  0  0  0  0  0  0  0  0  0  0
   -5.4630    0.9260    0.6700 S   0  0  0  0  0  0  0  0  0  0  0  0
   -4.6560   -0.6410    0.3430 C   0  0  0  0  0  0  0  0  0  0  0  0
   -3.4200   -0.7810   -0.0270 C   0  0  0  0  0  0  0  0  0  0  0  0
   -2.9260   -2.1100   -0.2490 N   0  0  0  0  0  0  0  0  0  0  0  0
  1  2  1  0
  2  3  1  0
  3  4  1  0
  4  5  1  0
  5  6  1  0
  6  7  2  0
  6  8  1  0
  8  9  1  0
  9 10  1  0
 10 11  2  0
 10 15  1  0
 11 12  1  0
 12 13  1  0
 13 14  1  0
 14 15  2  0
 15 16  1  0
M  END
