
     RDKit          3D

 25 27  0  0  0  0  0  0  0  0999 V2000
   -5.2250    2.5850   -0.2330 C   0  0  0  0  0  0  0  0  0  0  0  0
   -3.8900    2.8580   -0.0150 O   0  0  0  0  0  0  0  0  0  0  0  0
   -3.2090    1.9360    0.7620 C   0  0  0  0  0  0  0  0  0  0  0  0
   -3.1560    0.5730    0.2370 C   0  0  0  0  0  0  0  0  0  0  0  0
   -2.0220   -0.0770   -0.0680 C   0  0  0  0  0  0  0  0  0  0  0  0
   -0.7380    0.5600    0.1070 C   0  0  0  0  0  0  0  0  0  0  0  0
   -0.6430    1.7130    0.5230 O   0  0  0  0  0  0  0  0  0  0  0  0
    0.5090   -0.1690   -0.2170 C   0  0  0  0  0  0  0  0  0  0  0  0
    1.8060    0.5050   -0.0280 C   0  0  0  0  0  0  0  0  0  0  0  0
    1.7730    1.6800    0.4050 O   0  0  0  0  0  0  0  0  0  0  0  0
    3.0580   -0.0730   -0.2980 N   0  0  0  0  0  0  0  0  0  0  0  0
    4.3350    0.5070   -0.1460 C   0  0  0  0  0  0  0  0  0  0  0  0
    5.4710   -0.2950   -0.3230 C   0  0  0  0  0  0  0  0  0  0  0  0
    6.7430    0.1750   -0.2060 C   0  0  0  0  0  0  0  0  0  0  0  0
    6.9730    1.4830    0.0980 C   0  0  0  0  0  0  0  0  0  0  0  0
    8.6220    2.0950    0.2500 Cl  0  0  0  0  0  0  0  0  0  0  0  0
    5.8830    2.2970    0.2780 C   0  0  0  0  0  0  0  0  0  0  0  0
    4.5660    1.8070    0.1560 C   0  0  0  0  0  0  0  0  0  0  0  0
    0.3700   -1.3950   -0.6620 C   0  0  0  0  0  0  0  0  0  0  0  0
   -0.8790   -2.0690   -0.8530 C   0  0  0  0  0  0  0  0  0  0  0  0
   -0.9410   -3.4840   -1.3710 C   0  0  0  0  0  0  0  0  0  0  0  0
   -2.0200   -1.4330   -0.5680 C   0  0  0  0  0  0  0  0  0  0  0  0
   -3.2820   -2.1830   -0.7940 C   0  0  0  0  0  0  0  0  0  0  0  0
   -4.3880   -1.5780   -0.0090 C   0  0  0  0  0  0  0  0  0  0  0  0
   -4.3340   -0.1710    0.0140 O   0  0  0  0  0  0  0  0  0  0  0  0
  1  2  1  0
  2  3  1  0
  3  4  1  0
  4  5  2  0
  4 25  1  0
  5  6  1  0
  5 22  1  0
  6  7  2  0
  6  8  1  0
  8  9  1  0
  8 19  2  0
  9 10  2  0
  9 11  1  0
 11 12  1  0
 12 13  2  0
 12 18  1  0
 13 14  1  0
 14 15  2  0
 15 16  1  0
 15 17  1  0
 17 18  2  0
 19 20  1  0
 20 21  1  0
 20 22  2  0
 22 23  1  0
 23 24  1  0
 24 25  1  0
M  END
