
     RDKit          3D

 17 18  0  0  0  0  0  0  0  0999 V2000
   -1.4720   -4.0850    0.1450 O   0  0  0  0  0  0  0  0  0  0  0  0
   -1.3100   -2.8220    0.1250 C   0  0  0  0  0  0  0  0  0  0  0  0
   -2.2380   -1.9920    0.4780 O   0  0  0  0  0  0  0  0  0  0  0  0
   -2.0040   -0.6980    0.4330 C   0  0  0  0  0  0  0  0  0  0  0  0
   -3.0660    0.0970    0.8330 C   0  0  0  0  0  0  0  0  0  0  0  0
   -2.9480    1.4660    0.8330 C   0  0  0  0  0  0  0  0  0  0  0  0
   -1.7440    2.0070    0.4230 C   0  0  0  0  0  0  0  0  0  0  0  0
   -0.6920    1.1930    0.0250 C   0  0  0  0  0  0  0  0  0  0  0  0
    0.4530    1.8180   -0.3600 O   0  0  0  0  0  0  0  0  0  0  0  0
   -0.7800   -0.1600    0.0150 C   0  0  0  0  0  0  0  0  0  0  0  0
    0.1870   -0.9930   -0.3520 N   0  0  0  0  0  0  0  0  0  0  0  0
    1.4520   -0.5170   -0.7960 C   0  0  0  0  0  0  0  0  0  0  0  0
    2.4850   -0.3150    0.2930 C   0  0  0  0  0  0  0  0  0  0  0  0
    3.9980    0.3100   -0.5510 S   0  0  0  0  0  0  0  0  0  0  0  0
    3.7250    1.8640   -1.2100 O   0  0  0  0  0  0  0  0  0  0  0  0
   -0.1110   -2.3160   -0.2850 C   0  0  0  0  0  0  0  0  0  0  0  0
    0.7890   -3.1130   -0.6280 O   0  0  0  0  0  0  0  0  0  0  0  0
  1  2  2  0
  2  3  1  0
  2 16  1  0
  3  4  1  0
  4  5  2  0
  4 10  1  0
  5  6  1  0
  6  7  2  0
  7  8  1  0
  8  9  1  0
  8 10  2  0
 10 11  1  0
 11 12  1  0
 11 16  1  0
 12 13  1  0
 13 14  1  0
 14 15  1  0
 16 17  2  0
M  END
