
     RDKit          3D

 17 17  0  0  0  0  0  0  0  0999 V2000
   -3.4960   -0.6170   -2.4410 C   0  0  0  0  0  0  0  0  0  0  0  0
   -2.9970   -0.4700   -1.2310 C   0  0  0  0  0  0  0  0  0  0  0  0
   -1.6620    0.0810   -1.0260 C   0  0  0  0  0  0  0  0  0  0  0  0
   -1.1820    0.2210    0.1720 C   0  0  0  0  0  0  0  0  0  0  0  0
    0.1690    0.7760    0.4150 C   0  0  0  0  0  0  0  0  0  0  0  0
    0.6400    0.9140    1.5710 O   0  0  0  0  0  0  0  0  0  0  0  0
    0.9800    1.1720   -0.6380 O   0  0  0  0  0  0  0  0  0  0  0  0
    2.2600    1.7020   -0.4980 C   0  0  0  0  0  0  0  0  0  0  0  0
    3.2130    0.8150    0.1710 C   0  0  0  0  0  0  0  0  0  0  0  0
    4.3980    1.1830    0.3550 O   0  0  0  0  0  0  0  0  0  0  0  0
    2.8430   -0.4430    0.6150 O   0  0  0  0  0  0  0  0  0  0  0  0
    3.7700   -1.2910    1.2580 C   0  0  0  0  0  0  0  0  0  0  0  0
   -1.9450   -0.1610    1.3520 C   0  0  0  0  0  0  0  0  0  0  0  0
   -1.4310   -0.0130    2.6530 O   0  0  0  0  0  0  0  0  0  0  0  0
   -3.1290   -0.6520    1.2210 N   0  0  0  0  0  0  0  0  0  0  0  0
   -3.7490   -0.8480   -0.0290 C   0  0  0  0  0  0  0  0  0  0  0  0
   -5.2350   -1.4620   -0.2260 S   0  0  0  0  0  0  0  0  0  0  0  0
  1  2  2  0
  2  3  1  0
  2 16  1  0
  3  4  2  0
  4  5  1  0
  4 13  1  0
  5  6  2  0
  5  7  1  0
  7  8  1  0
  8  9  1  0
  9 10  2  0
  9 11  1  0
 11 12  1  0
 13 14  1  0
 13 15  2  0
 15 16  1  0
 16 17  2  0
M  END
