
     RDKit          3D

 17 17  0  0  0  0  0  0  0  0999 V2000
    4.5150    1.3670    0.7090 C   0  0  0  0  0  0  0  0  0  0  0  0
    3.7050    0.2640    0.3750 O   0  0  0  0  0  0  0  0  0  0  0  0
    4.2450   -0.8100   -0.3180 C   0  0  0  0  0  0  0  0  0  0  0  0
    5.4630   -0.7510   -0.6250 O   0  0  0  0  0  0  0  0  0  0  0  0
    3.4380   -1.9980   -0.6960 C   0  0  0  0  0  0  0  0  0  0  0  0
    2.1020   -1.8430   -0.2530 O   0  0  0  0  0  0  0  0  0  0  0  0
    1.3410   -0.7610   -0.7230 C   0  0  0  0  0  0  0  0  0  0  0  0
    1.9020    0.0190   -1.5250 O   0  0  0  0  0  0  0  0  0  0  0  0
   -0.0210   -0.5290   -0.3250 C   0  0  0  0  0  0  0  0  0  0  0  0
   -0.7710   -1.2230    0.4930 C   0  0  0  0  0  0  0  0  0  0  0  0
   -0.2330   -2.3840    1.1140 O   0  0  0  0  0  0  0  0  0  0  0  0
   -2.0630   -0.7870    0.7140 N   0  0  0  0  0  0  0  0  0  0  0  0
   -2.4760    0.3790    0.0380 C   0  0  0  0  0  0  0  0  0  0  0  0
   -3.6390    1.0130    0.0610 C   0  0  0  0  0  0  0  0  0  0  0  0
   -3.8810    2.2410   -0.7310 C   0  0  0  0  0  0  0  0  0  0  0  0
   -4.7540    0.5040    0.8970 C   0  0  0  0  0  0  0  0  0  0  0  0
   -1.0110    0.8350   -0.9040 S   0  0  0  0  0  0  0  0  0  0  0  0
  1  2  1  0
  2  3  1  0
  3  4  2  0
  3  5  1  0
  5  6  1  0
  6  7  1  0
  7  8  2  0
  7  9  1  0
  9 10  2  0
  9 17  1  0
 10 11  1  0
 10 12  1  0
 12 13  1  0
 13 14  2  3
 13 17  1  0
 14 15  1  0
 14 16  1  0
M  END
