
     RDKit          3D

 17 18  0  0  0  0  0  0  0  0999 V2000
    5.1360    0.9270    0.7990 C   0  0  0  0  0  0  0  0  0  0  0  0
    4.4700    0.1780   -0.1910 O   0  0  0  0  0  0  0  0  0  0  0  0
    3.0880    0.2480   -0.2750 C   0  0  0  0  0  0  0  0  0  0  0  0
    2.4800    0.9820    0.5410 O   0  0  0  0  0  0  0  0  0  0  0  0
    2.3740   -0.5420   -1.3190 C   0  0  0  0  0  0  0  0  0  0  0  0
    0.9440   -0.3080   -1.2110 N   0  0  0  0  0  0  0  0  0  0  0  0
    0.2120   -0.6140   -0.0360 C   0  0  0  0  0  0  0  0  0  0  0  0
    0.7680   -1.0920    0.9430 O   0  0  0  0  0  0  0  0  0  0  0  0
   -1.2120   -0.3470   -0.0190 C   0  0  0  0  0  0  0  0  0  0  0  0
   -2.1330    0.3420   -1.3690 S   0  0  0  0  0  0  0  0  0  0  0  0
   -3.6890    0.3500   -0.6010 C   0  0  0  0  0  0  0  0  0  0  0  0
   -5.0550    0.6660   -0.7440 C   0  0  0  0  0  0  0  0  0  0  0  0
   -5.5970    0.3450    0.3770 O   0  0  0  0  0  0  0  0  0  0  0  0
   -4.7290   -0.1460    1.2300 C   0  0  0  0  0  0  0  0  0  0  0  0
   -3.4470   -0.1670    0.6360 C   0  0  0  0  0  0  0  0  0  0  0  0
   -2.1800   -0.5230    0.9350 C   0  0  0  0  0  0  0  0  0  0  0  0
   -1.8330   -1.0750    2.2130 O   0  0  0  0  0  0  0  0  0  0  0  0
  1  2  1  0
  2  3  1  0
  3  4  2  0
  3  5  1  0
  5  6  1  0
  6  7  1  0
  7  8  2  0
  7  9  1  0
  9 10  1  0
  9 16  2  0
 10 11  1  0
 11 12  2  0
 11 15  1  0
 12 13  1  0
 13 14  1  0
 14 15  2  0
 15 16  1  0
 16 17  1  0
M  END
