
     RDKit          3D

 36 39  0  0  0  0  0  0  0  0999 V2000
   -5.7030    1.0020   -1.7340 C   0  0  0  0  0  0  0  0  0  0  0  0
   -6.5500    0.9860   -0.5310 N   0  0  1  0  0  0  0  0  0  0  0  0
   -7.7430    0.2460   -0.8910 C   0  0  0  0  0  0  0  0  0  0  0  0
   -8.7160    0.1510    0.2540 C   0  0  1  0  0  0  0  0  0  0  0  0
   -9.8330   -0.7940   -0.1350 C   0  0  0  0  0  0  0  0  0  0  0  0
   -9.3920   -2.0680   -0.4240 O   0  0  0  0  0  0  0  0  0  0  0  0
   -8.0950   -0.2700    1.5400 C   0  0  0  0  0  0  0  0  0  0  0  0
   -6.5980   -0.2480    1.5250 C   0  0  0  0  0  0  0  0  0  0  0  0
   -5.9240   -0.8620    2.5590 C   0  0  0  0  0  0  0  0  0  0  0  0
   -4.5530   -0.8580    2.5740 C   0  0  0  0  0  0  0  0  0  0  0  0
   -3.7950   -0.2570    1.5850 C   0  0  0  0  0  0  0  0  0  0  0  0
   -2.3510   -0.3070    1.6950 C   0  0  0  0  0  0  0  0  0  0  0  0
   -1.7930   -0.9810    2.8310 N   0  0  0  0  0  0  0  0  0  0  0  0
   -1.5230    0.2420    0.7920 C   0  0  0  0  0  0  0  0  0  0  0  0
   -0.0860    0.1380    0.9910 C   0  0  0  0  0  0  0  0  0  0  0  0
    0.3260   -0.4800    2.0310 O   0  0  0  0  0  0  0  0  0  0  0  0
    0.8850    0.6720    0.1160 N   0  0  0  0  0  0  0  0  0  0  0  0
    0.4960    1.3790   -1.0780 C   0  0  0  0  0  0  0  0  0  0  0  0
    1.1610    2.7610   -0.9640 C   0  0  0  0  0  0  0  0  0  0  0  0
    2.6190    2.4690   -0.9810 C   0  0  0  0  0  0  0  0  0  0  0  0
    3.1620    1.4410   -0.3590 C   0  0  0  0  0  0  0  0  0  0  0  0
    4.5790    1.2130   -0.4140 N   0  0  0  0  0  0  0  0  0  0  0  0
    5.1690    0.0470   -0.9370 C   0  0  0  0  0  0  0  0  0  0  0  0
    4.3750   -0.8400   -1.3780 O   0  0  0  0  0  0  0  0  0  0  0  0
    6.5970   -0.1920   -0.9980 C   0  0  0  0  0  0  0  0  0  0  0  0
    7.0940   -1.3690   -1.5100 C   0  0  0  0  0  0  0  0  0  0  0  0
    8.4300   -1.6040   -1.5730 C   0  0  0  0  0  0  0  0  0  0  0  0
    9.3640   -0.6900   -1.1330 C   0  0  0  0  0  0  0  0  0  0  0  0
   10.8260   -0.9460   -1.2020 C   0  0  0  0  0  0  0  0  0  0  0  0
   11.2340   -1.6180    0.1010 C   0  0  0  0  0  0  0  0  0  0  0  0
   10.5390   -2.8160    0.2480 O   0  0  0  0  0  0  0  0  0  0  0  0
    8.8640    0.4900   -0.6200 C   0  0  0  0  0  0  0  0  0  0  0  0
    7.5040    0.7430   -0.5500 C   0  0  0  0  0  0  0  0  0  0  0  0
    2.2860    0.5220    0.4020 C   0  0  0  0  0  0  0  0  0  0  0  0
   -4.4910    0.3480    0.5650 C   0  0  0  0  0  0  0  0  0  0  0  0
   -5.8810    0.3550    0.5310 C   0  0  0  0  0  0  0  0  0  0  0  0
  2  1  1  6
  2  3  1  0
  2 36  1  0
  3  4  1  0
  4  5  1  6
  4  7  1  0
  5  6  1  0
  7  8  1  0
  8  9  2  0
  8 36  1  0
  9 10  1  0
 10 11  2  0
 11 12  1  0
 11 35  1  0
 12 13  1  0
 12 14  2  3
 14 15  1  0
 15 16  2  0
 15 17  1  0
 17 18  1  0
 17 34  1  0
 18 19  1  0
 19 20  1  0
 20 21  2  0
 21 22  1  0
 21 34  1  0
 22 23  1  0
 23 24  2  0
 23 25  1  0
 25 26  2  0
 25 33  1  0
 26 27  1  0
 27 28  2  0
 28 29  1  0
 28 32  1  0
 29 30  1  0
 30 31  1  0
 32 33  2  0
 35 36  2  0
M  CHG  1   2   1
M  END
