
     RDKit          3D

 37 41  0  0  0  0  0  0  0  0999 V2000
   -5.5950   -1.7580    2.9330 C   0  0  0  0  0  0  0  0  0  0  0  0
   -6.5920   -0.7000    2.6350 C   0  0  0  0  0  0  0  0  0  0  0  0
   -6.1380    0.4760    1.8590 C   0  0  0  0  0  0  0  0  0  0  0  0
   -5.6240    0.2320    0.5430 N   0  0  0  0  0  0  0  0  0  0  0  0
   -4.3150   -0.3110    0.3610 C   0  0  0  0  0  0  0  0  0  0  0  0
   -3.9060   -0.6190   -0.9120 N   0  0  0  0  0  0  0  0  0  0  0  0
   -2.6780   -1.1010   -1.1590 C   0  0  0  0  0  0  0  0  0  0  0  0
   -1.7860   -1.3020   -0.1270 C   0  0  0  0  0  0  0  0  0  0  0  0
   -0.5060   -1.7590   -0.0450 N   0  0  0  0  0  0  0  0  0  0  0  0
   -0.0930   -1.7540    1.2150 C   0  0  0  0  0  0  0  0  0  0  0  0
    1.2190   -2.1290    1.7940 C   0  0  0  0  0  0  0  0  0  0  0  0
    2.2830   -2.3350    0.7810 C   0  0  0  0  0  0  0  0  0  0  0  0
    2.6320   -1.1690    0.0240 N   0  0  0  0  0  0  0  0  0  0  0  0
    3.2950   -0.1580    0.7840 C   0  0  0  0  0  0  0  0  0  0  0  0
    4.6810   -0.4790    1.2460 C   0  0  0  0  0  0  0  0  0  0  0  0
    5.5980   -0.7180    0.1770 N   0  0  0  0  0  0  0  0  0  0  0  0
    5.4710   -1.8980   -0.6420 C   0  0  0  0  0  0  0  0  0  0  0  0
    6.4660   -1.9000   -1.8040 C   0  0  0  0  0  0  0  0  0  0  0  0
    7.8490   -1.6350   -1.1930 C   0  0  0  0  0  0  0  0  0  0  0  0
    7.8000   -0.2010   -0.7730 C   0  0  0  0  0  0  0  0  0  0  0  0
    8.8220    0.6760   -1.0390 C   0  0  0  0  0  0  0  0  0  0  0  0
    8.7360    2.0060   -0.6400 C   0  0  0  0  0  0  0  0  0  0  0  0
    9.8560    2.9300   -0.9390 C   0  0  0  0  0  0  0  0  0  0  0  0
    7.5900    2.3870    0.0260 C   0  0  0  0  0  0  0  0  0  0  0  0
    6.5650    1.4920    0.2880 C   0  0  0  0  0  0  0  0  0  0  0  0
    6.6510    0.1880   -0.1040 C   0  0  0  0  0  0  0  0  0  0  0  0
   -1.1420   -1.2800    1.9480 N   0  0  0  0  0  0  0  0  0  0  0  0
   -2.1810   -0.9990    1.1520 C   0  0  0  0  0  0  0  0  0  0  0  0
   -3.4260   -0.5190    1.3320 N   0  0  0  0  0  0  0  0  0  0  0  0
   -6.4450    0.5480   -0.5730 C   0  0  0  0  0  0  0  0  0  0  0  0
   -6.9070   -0.4270   -1.4370 C   0  0  0  0  0  0  0  0  0  0  0  0
   -7.7100   -0.1090   -2.5180 C   0  0  0  0  0  0  0  0  0  0  0  0
   -8.0700    1.1960   -2.7600 C   0  0  0  0  0  0  0  0  0  0  0  0
   -7.6160    2.1890   -1.9030 C   0  0  0  0  0  0  0  0  0  0  0  0
   -8.0120    3.5750   -2.1810 C   0  0  0  0  0  0  0  0  0  0  0  0
   -6.8040    1.8510   -0.8140 C   0  0  0  0  0  0  0  0  0  0  0  0
   -6.3040    2.9030    0.1090 C   0  0  0  0  0  0  0  0  0  0  0  0
  1  2  1  0
  2  3  1  0
  3  4  1  0
  4  5  1  0
  4 30  1  0
  5  6  2  0
  5 29  1  0
  6  7  1  0
  7  8  2  0
  8  9  1  0
  8 28  1  0
  9 10  1  0
 10 11  1  0
 10 27  2  0
 11 12  1  0
 12 13  1  0
 13 14  1  0
 14 15  1  0
 15 16  1  0
 16 17  1  0
 16 26  1  0
 17 18  1  0
 18 19  1  0
 19 20  1  0
 20 21  2  0
 20 26  1  0
 21 22  1  0
 22 23  1  0
 22 24  2  0
 24 25  1  0
 25 26  2  0
 27 28  1  0
 28 29  2  0
 30 31  2  0
 30 36  1  0
 31 32  1  0
 32 33  2  0
 33 34  1  0
 34 35  1  0
 34 36  2  0
 36 37  1  0
M  END
