
     RDKit          3D

 37 40  0  0  0  0  0  0  0  0999 V2000
   -7.8960    2.1450   -2.0470 C   0  0  0  0  0  0  0  0  0  0  0  0
   -7.0970    1.1040   -1.3300 C   0  0  0  0  0  0  0  0  0  0  0  0
   -7.4500   -0.2320   -1.4440 C   0  0  0  0  0  0  0  0  0  0  0  0
   -6.7520   -1.2170   -0.8100 C   0  0  0  0  0  0  0  0  0  0  0  0
   -5.6740   -0.8660   -0.0400 C   0  0  0  0  0  0  0  0  0  0  0  0
   -4.8650   -1.9030    0.6840 C   0  0  0  0  0  0  0  0  0  0  0  0
   -5.4070   -3.2170    0.4240 N   0  0  0  0  0  0  0  0  0  0  0  0
   -5.2840    0.4470    0.1050 C   0  0  0  0  0  0  0  0  0  0  0  0
   -4.1680    0.8200    0.9010 N   0  0  0  0  0  0  0  0  0  0  0  0
   -2.8370    0.9260    0.4210 C   0  0  0  0  0  0  0  0  0  0  0  0
   -2.6370    0.6730   -0.7890 O   0  0  0  0  0  0  0  0  0  0  0  0
   -1.7370    1.2970    1.2190 N   0  0  0  0  0  0  0  0  0  0  0  0
   -0.3860    1.3970    0.7000 C   0  0  1  0  0  0  0  0  0  0  0  0
    0.0890    2.8360    0.8010 C   0  0  0  0  0  0  0  0  0  0  0  0
    0.5250    0.4680    1.3900 C   0  0  0  0  0  0  0  0  0  0  0  0
    0.5110    0.3350    2.7610 C   0  0  0  0  0  0  0  0  0  0  0  0
    1.3770   -0.5450    3.3900 C   0  0  0  0  0  0  0  0  0  0  0  0
    2.2720   -1.3060    2.6510 C   0  0  0  0  0  0  0  0  0  0  0  0
    2.2860   -1.1740    1.2860 C   0  0  0  0  0  0  0  0  0  0  0  0
    1.4280   -0.3030    0.6730 C   0  0  0  0  0  0  0  0  0  0  0  0
    3.1880   -1.9310    0.4470 N   0  0  0  0  0  0  0  0  0  0  0  0
    3.1790   -1.8360   -0.9540 C   0  0  0  0  0  0  0  0  0  0  0  0
    4.0270   -0.9140   -1.6810 C   0  0  0  0  0  0  0  0  0  0  0  0
    3.8580   -0.9880   -2.9720 O   0  0  0  0  0  0  0  0  0  0  0  0
    4.9550   -0.0020   -1.2480 N   0  0  0  0  0  0  0  0  0  0  0  0
    5.3660    0.2850    0.1360 C   0  0  0  0  0  0  0  0  0  0  0  0
    6.8380   -0.0330    0.3170 C   0  0  0  0  0  0  0  0  0  0  0  0
    7.6120   -0.0470   -0.9350 C   0  0  0  0  0  0  0  0  0  0  0  0
    7.1450    0.3510   -2.1140 C   0  0  0  0  0  0  0  0  0  0  0  0
    5.7250    0.8530   -2.1820 C   0  0  1  0  0  0  0  0  0  0  0  0
    5.1720    0.9740   -3.5290 C   0  0  0  0  0  0  0  0  0  0  0  0
    4.0650   -2.8300    1.1530 C   0  0  0  0  0  0  0  0  0  0  0  0
    4.6430   -3.7580    0.5440 O   0  0  0  0  0  0  0  0  0  0  0  0
    4.2910   -2.6650    2.6030 C   0  0  0  0  0  0  0  0  0  0  0  0
    3.1380   -2.1850    3.2640 O   0  0  0  0  0  0  0  0  0  0  0  0
   -6.0100    1.4420   -0.5520 C   0  0  0  0  0  0  0  0  0  0  0  0
   -5.6300    2.8830   -0.4280 C   0  0  0  0  0  0  0  0  0  0  0  0
  1  2  1  0
  2  3  2  0
  2 36  1  0
  3  4  1  0
  4  5  2  0
  5  6  1  0
  5  8  1  0
  6  7  1  0
  8  9  1  0
  8 36  2  0
  9 10  1  0
 10 11  2  0
 10 12  1  0
 12 13  1  0
 13 14  1  1
 13 15  1  0
 15 16  2  0
 15 20  1  0
 16 17  1  0
 17 18  2  0
 18 19  1  0
 18 35  1  0
 19 20  2  0
 19 21  1  0
 21 22  1  0
 21 32  1  0
 22 23  1  0
 23 24  2  0
 23 25  1  0
 25 26  1  0
 25 30  1  0
 26 27  1  0
 27 28  1  0
 28 29  2  0
 29 30  1  0
 30 31  1  6
 32 33  2  0
 32 34  1  0
 34 35  1  0
 36 37  1  0
M  CHG  1   7   1
M  END
