
     RDKit          3D

 37 41  0  0  0  0  0  0  0  0999 V2000
   -7.2330    3.7960    0.1640 C   0  0  0  0  0  0  0  0  0  0  0  0
   -5.9810    3.9680   -0.6760 C   0  0  2  0  0  0  0  0  0  0  0  0
   -6.3270    3.7340   -2.1140 C   0  0  0  0  0  0  0  0  0  0  0  0
   -4.9870    2.9560   -0.1810 C   0  0  0  0  0  0  0  0  0  0  0  0
   -3.8380    3.2330    0.4430 N   0  0  0  0  0  0  0  0  0  0  0  0
   -3.1860    2.0520    0.7420 C   0  0  0  0  0  0  0  0  0  0  0  0
   -1.9580    1.9890    1.4150 N   0  0  0  0  0  0  0  0  0  0  0  0
   -1.2040    0.8580    1.7670 C   0  0  0  0  0  0  0  0  0  0  0  0
   -1.2090    0.3190    3.0540 C   0  0  0  0  0  0  0  0  0  0  0  0
   -0.4160   -0.7670    3.3370 C   0  0  0  0  0  0  0  0  0  0  0  0
    0.3950   -1.3310    2.3390 C   0  0  0  0  0  0  0  0  0  0  0  0
    1.1480   -2.4930    2.7510 C   0  0  0  0  0  0  0  0  0  0  0  0
    1.9510   -2.3780    3.8840 C   0  0  0  0  0  0  0  0  0  0  0  0
    2.6960   -3.4340    4.3710 C   0  0  0  0  0  0  0  0  0  0  0  0
    2.6510   -4.6500    3.7240 C   0  0  0  0  0  0  0  0  0  0  0  0
    1.8590   -4.7710    2.6050 C   0  0  0  0  0  0  0  0  0  0  0  0
    1.1150   -3.7040    2.1240 C   0  0  0  0  0  0  0  0  0  0  0  0
    0.4130   -0.8100    1.0720 C   0  0  0  0  0  0  0  0  0  0  0  0
    1.2490   -1.3390    0.0940 N   0  0  0  0  0  0  0  0  0  0  0  0
    1.3980   -0.8780   -1.2630 C   0  0  2  0  0  0  0  0  0  0  0  0
    2.3910   -1.8270   -1.9580 C   0  0  0  0  0  0  0  0  0  0  0  0
    3.7150   -1.1740   -1.6820 C   0  0  0  0  0  0  0  0  0  0  0  0
    3.4490    0.1950   -1.5560 N   0  0  0  0  0  0  0  0  0  0  0  0
    4.2850    0.9590   -0.6890 C   0  0  0  0  0  0  0  0  0  0  0  0
    5.6690    1.0540   -1.2510 C   0  0  0  0  0  0  0  0  0  0  0  0
    6.2810    2.1730   -1.5840 C   0  0  0  0  0  0  0  0  0  0  0  0
    7.6400    1.8970   -2.1030 C   0  0  0  0  0  0  0  0  0  0  0  0
    7.7310    0.4210   -2.0180 C   0  0  0  0  0  0  0  0  0  0  0  0
    6.5930   -0.0310   -1.5280 C   0  0  0  0  0  0  0  0  0  0  0  0
    2.0550    0.4450   -1.3890 C   0  0  0  0  0  0  0  0  0  0  0  0
   -0.3850    0.2700    0.8070 C   0  0  0  0  0  0  0  0  0  0  0  0
   -3.9670    1.0710    0.2840 N   0  0  0  0  0  0  0  0  0  0  0  0
   -3.7210   -0.3530    0.3380 C   0  0  0  0  0  0  0  0  0  0  0  0
   -3.0280   -0.7760   -0.8770 N   0  0  0  0  0  0  0  0  0  0  0  0
   -3.8550   -0.4680   -2.0560 C   0  0  0  0  0  0  0  0  0  0  0  0
   -2.9650   -2.2420   -0.8190 C   0  0  0  0  0  0  0  0  0  0  0  0
   -5.0470    1.6390   -0.2680 N   0  0  0  0  0  0  0  0  0  0  0  0
  2  1  1  1
  2  3  1  0
  2  4  1  0
  4  5  1  0
  4 37  2  0
  5  6  2  0
  6  7  1  0
  6 32  1  0
  7  8  1  0
  8  9  2  0
  8 31  1  0
  9 10  1  0
 10 11  2  0
 11 12  1  0
 11 18  1  0
 12 13  2  0
 12 17  1  0
 13 14  1  0
 14 15  2  0
 15 16  1  0
 16 17  2  0
 18 19  1  0
 18 31  2  0
 20 19  1  1
 20 21  1  0
 20 30  1  0
 21 22  1  0
 22 23  1  0
 23 24  1  0
 23 30  1  0
 24 25  1  0
 25 26  2  0
 25 29  1  0
 26 27  1  0
 27 28  1  0
 28 29  2  0
 32 33  1  0
 32 37  1  0
 33 34  1  0
 34 35  1  0
 34 36  1  0
M  END
