
     RDKit          3D

 37 41  0  0  0  0  0  0  0  0999 V2000
    7.2690   -3.8700    0.0950 C   0  0  0  0  0  0  0  0  0  0  0  0
    6.0000   -4.1200    0.1480 C   0  0  0  0  0  0  0  0  0  0  0  0
    5.0460   -3.1910    0.8470 C   0  0  0  0  0  0  0  0  0  0  0  0
    4.2810   -2.4220   -0.2000 C   0  0  0  0  0  0  0  0  0  0  0  0
    3.1410   -1.5900    0.2760 C   0  0  0  0  0  0  0  0  0  0  0  0
    2.6110   -0.7710   -0.9230 C   0  0  0  0  0  0  0  0  0  0  0  0
    3.3810    0.4720   -0.9740 N   0  0  0  0  0  0  0  0  0  0  0  0
    4.6110    0.8020   -1.2830 C   0  0  0  0  0  0  0  0  0  0  0  0
    4.8380    2.1300   -1.0940 N   0  0  0  0  0  0  0  0  0  0  0  0
    3.6880    2.6560   -0.6460 C   0  0  0  0  0  0  0  0  0  0  0  0
    2.8020    1.6660   -0.5690 C   0  0  0  0  0  0  0  0  0  0  0  0
    1.5750    2.2150   -0.1790 C   0  0  0  0  0  0  0  0  0  0  0  0
    0.4430    1.4070    0.1930 C   0  0  0  0  0  0  0  0  0  0  0  0
   -0.7580    1.3910   -0.6240 N   0  0  0  0  0  0  0  0  0  0  0  0
   -1.4650    0.0810   -0.5960 C   0  0  0  0  0  0  0  0  0  0  0  0
   -1.1530   -0.6340    0.3480 N   0  0  0  0  0  0  0  0  0  0  0  0
   -1.1610   -1.7170    1.1370 C   0  0  0  0  0  0  0  0  0  0  0  0
   -0.4020   -2.8910    0.9270 C   0  0  0  0  0  0  0  0  0  0  0  0
   -0.6800   -3.7300    1.8920 N   0  0  0  0  0  0  0  0  0  0  0  0
   -1.5750   -3.2160    2.7520 C   0  0  0  0  0  0  0  0  0  0  0  0
   -2.0450   -3.8290    3.8420 C   0  0  0  0  0  0  0  0  0  0  0  0
   -1.8760   -1.9610    2.2840 C   0  0  0  0  0  0  0  0  0  0  0  0
   -2.7250   -1.1350    2.8760 C   0  0  0  0  0  0  0  0  0  0  0  0
   -2.2690   -0.3520   -1.6540 N   0  0  0  0  0  0  0  0  0  0  0  0
   -3.3330   -1.2750   -1.6180 C   0  0  0  0  0  0  0  0  0  0  0  0
   -4.6600   -0.8860   -1.0900 C   0  0  2  0  0  0  0  0  0  0  0  0
   -5.5950   -2.1100   -1.1270 C   0  0  0  0  0  0  0  0  0  0  0  0
   -5.3730    0.1350   -2.0020 C   0  0  0  0  0  0  0  0  0  0  0  0
   -6.5490    0.5370   -1.1460 C   0  0  0  0  0  0  0  0  0  0  0  0
   -6.1040    0.4470    0.2870 C   0  0  0  0  0  0  0  0  0  0  0  0
   -4.7550   -0.2720    0.2390 C   0  0  0  0  0  0  0  0  0  0  0  0
    1.8030    3.5580   -0.0390 C   0  0  0  0  0  0  0  0  0  0  0  0
    3.0980    3.8410   -0.3140 N   0  0  0  0  0  0  0  0  0  0  0  0
    3.6750    5.1600   -0.1530 C   0  0  0  0  0  0  0  0  0  0  0  0
    2.7790    6.2880   -0.4210 C   0  0  0  0  0  0  0  0  0  0  0  0
    1.3290    5.9980   -0.3000 C   0  0  0  0  0  0  0  0  0  0  0  0
    0.9420    4.7210    0.3550 C   0  0  0  0  0  0  0  0  0  0  0  0
  1  2  2  0
  2  3  1  0
  3  4  1  0
  4  5  1  0
  5  6  1  0
  6  7  1  0
  7  8  1  0
  7 11  1  0
  8  9  2  0
  9 10  1  0
 10 11  2  0
 10 33  1  0
 11 12  1  0
 12 13  1  0
 12 32  2  0
 13 14  1  0
 14 15  1  0
 15 16  2  3
 15 24  1  0
 16 17  1  0
 17 18  2  0
 17 22  1  0
 18 19  1  0
 19 20  1  0
 20 21  2  0
 20 22  1  0
 22 23  2  0
 24 25  1  0
 25 26  1  0
 26 27  1  1
 26 28  1  0
 26 31  1  0
 28 29  1  0
 29 30  1  0
 30 31  1  0
 32 33  1  0
 32 37  1  0
 33 34  1  0
 34 35  1  0
 35 36  1  0
 36 37  1  0
M  END
