
     RDKit          3D

 37 40  0  0  0  0  0  0  0  0999 V2000
   -2.9220   -0.6270    3.8330 C   0  0  0  0  0  0  0  0  0  0  0  0
   -2.4600   -1.2230    2.5580 C   0  0  0  0  0  0  0  0  0  0  0  0
   -2.9140   -0.3850    1.3120 C   0  0  2  0  0  0  0  0  0  0  0  0
   -2.2950    0.9120    1.5290 C   0  0  0  0  0  0  0  0  0  0  0  0
   -4.3600   -0.4060    1.4640 N   0  0  0  0  0  0  0  0  0  0  0  0
   -5.1500   -0.2520    0.3000 C   0  0  1  0  0  0  0  0  0  0  0  0
   -6.6090   -0.0710    0.7840 C   0  0  0  0  0  0  0  0  0  0  0  0
   -4.8260    0.8240   -0.6290 C   0  0  0  0  0  0  0  0  0  0  0  0
   -4.1500    0.4990   -1.9020 C   0  0  0  0  0  0  0  0  0  0  0  0
   -4.3830   -0.6500   -2.3480 O   0  0  0  0  0  0  0  0  0  0  0  0
   -3.2930    1.3910   -2.6050 N   0  0  0  0  0  0  0  0  0  0  0  0
   -2.1850    2.1770   -2.1870 C   0  0  0  0  0  0  0  0  0  0  0  0
   -2.4700    3.5720   -2.1860 C   0  0  0  0  0  0  0  0  0  0  0  0
   -1.6030    4.5380   -1.7870 C   0  0  0  0  0  0  0  0  0  0  0  0
   -0.3650    4.1460   -1.3570 C   0  0  0  0  0  0  0  0  0  0  0  0
   -0.0670    2.8080   -1.3550 C   0  0  0  0  0  0  0  0  0  0  0  0
   -0.9520    1.7790   -1.7670 C   0  0  0  0  0  0  0  0  0  0  0  0
   -0.3350    0.4590   -1.7680 C   0  0  0  0  0  0  0  0  0  0  0  0
   -0.6140   -0.7510   -1.4380 C   0  0  0  0  0  0  0  0  0  0  0  0
    0.5040   -1.7390   -1.6990 C   0  0  0  0  0  0  0  0  0  0  0  0
    0.3270   -2.9650   -1.4180 O   0  0  0  0  0  0  0  0  0  0  0  0
    1.7590   -1.4510   -2.2330 N   0  0  0  0  0  0  0  0  0  0  0  0
    2.7580   -2.5060   -2.4190 C   0  0  0  0  0  0  0  0  0  0  0  0
    3.2590   -3.1450   -1.1770 C   0  0  0  0  0  0  0  0  0  0  0  0
    3.9870   -2.2040   -0.3110 C   0  0  0  0  0  0  0  0  0  0  0  0
    5.3500   -2.0910   -0.3510 N   0  0  0  0  0  0  0  0  0  0  0  0
    5.6840   -1.1240    0.5160 C   0  0  0  0  0  0  0  0  0  0  0  0
    7.0650   -0.6290    0.8320 C   0  0  2  0  0  0  0  0  0  0  0  0
    7.1020    0.4540    1.8630 C   0  0  0  0  0  0  0  0  0  0  0  0
    7.1460    1.5110    0.7720 C   0  0  0  0  0  0  0  0  0  0  0  0
    7.5230    0.4190   -0.1920 C   0  0  0  0  0  0  0  0  0  0  0  0
    4.6020   -0.6620    1.0660 O   0  0  0  0  0  0  0  0  0  0  0  0
    3.5290   -1.3010    0.5850 C   0  0  0  0  0  0  0  0  0  0  0  0
    2.1290   -1.0120    1.0180 C   0  0  0  0  0  0  0  0  0  0  0  0
   -1.7660   -1.3560   -0.8770 N   0  0  0  0  0  0  0  0  0  0  0  0
   -2.5720   -1.2640    0.2270 C   0  0  0  0  0  0  0  0  0  0  0  0
   -3.3370   -2.3640    0.4050 O   0  0  0  0  0  0  0  0  0  0  0  0
  1  2  1  0
  2  3  1  0
  3  4  1  6
  3  5  1  0
  3 36  1  0
  5  6  1  0
  6  7  1  1
  6  8  1  0
  8  9  1  0
  9 10  2  0
  9 11  1  0
 11 12  1  0
 12 13  2  0
 12 17  1  0
 13 14  1  0
 14 15  2  0
 15 16  1  0
 16 17  2  0
 17 18  1  0
 18 19  2  0
 19 20  1  0
 19 35  1  0
 20 21  2  0
 20 22  1  0
 22 23  1  0
 23 24  1  0
 24 25  1  0
 25 26  1  0
 25 33  2  0
 26 27  2  0
 28 27  1  6
 27 32  1  0
 28 29  1  0
 28 31  1  0
 29 30  1  0
 30 31  1  0
 32 33  1  0
 33 34  1  0
 35 36  1  0
 36 37  2  0
M  CHG  1   5   1
M  END
