
     RDKit          3D

 12 12  0  0  0  0  0  0  0  0999 V2000
    2.7030    1.6430    0.7980 O   0  0  0  0  0  0  0  0  0  0  0  0
    2.4530    0.3070    0.4300 C   0  0  0  0  0  0  0  0  0  0  0  0
    0.9770    0.1830    0.2110 C   0  0  1  0  0  0  0  0  0  0  0  0
    0.5080    1.0290   -0.7910 O   0  0  0  0  0  0  0  0  0  0  0  0
   -0.8140    1.3040   -0.5240 C   0  0  1  0  0  0  0  0  0  0  0  0
   -1.4160    1.7910   -1.6970 O   0  0  0  0  0  0  0  0  0  0  0  0
   -1.5790    0.1830    0.0830 C   0  0  2  0  0  0  0  0  0  0  0  0
   -1.8380    0.4020    1.4560 O   0  0  0  0  0  0  0  0  0  0  0  0
   -1.0060   -1.1750   -0.1610 C   0  0  1  0  0  0  0  0  0  0  0  0
   -1.4910   -1.6900   -1.3640 O   0  0  0  0  0  0  0  0  0  0  0  0
    0.5120   -1.1960   -0.1070 C   0  0  2  0  0  0  0  0  0  0  0  0
    1.0080   -2.0990    0.8020 O   0  0  0  0  0  0  0  0  0  0  0  0
  1  2  1  0
  3  2  1  6
  3  4  1  0
  3 11  1  0
  4  5  1  0
  5  6  1  6
  5  7  1  0
  7  8  1  1
  7  9  1  0
  9 10  1  6
  9 11  1  0
 11 12  1  1
M  END
