
     RDKit          3D

 11 11  0  0  0  0  0  0  0  0999 V2000
   -3.3560   -0.7780    0.5440 O   0  0  0  0  0  0  0  0  0  0  0  0
   -2.2290    0.0220    0.4320 C   0  0  2  0  0  0  0  0  0  0  0  0
   -2.5520    1.1060   -0.3940 O   0  0  0  0  0  0  0  0  0  0  0  0
   -1.1480   -0.8230   -0.2270 C   0  0  0  0  0  0  0  0  0  0  0  0
    0.0760    0.0570   -0.3450 C   0  0  2  0  0  0  0  0  0  0  0  0
   -0.2750    1.1640   -1.1350 O   0  0  0  0  0  0  0  0  0  0  0  0
    1.1980   -0.6760   -1.0630 C   0  0  0  0  0  0  0  0  0  0  0  0
    2.3150    0.1370   -1.1020 O   0  0  0  0  0  0  0  0  0  0  0  0
    2.7330    0.4920    0.1600 C   0  0  0  0  0  0  0  0  0  0  0  0
    1.7470    0.0710    1.2050 C   0  0  0  0  0  0  0  0  0  0  0  0
    0.4630    0.4760    0.9040 O   0  0  0  0  0  0  0  0  0  0  0  0
  2  1  1  6
  2  3  1  0
  2  4  1  0
  4  5  1  0
  5  6  1  6
  5  7  1  0
  5 11  1  0
  7  8  1  0
  8  9  1  0
  9 10  1  0
 10 11  1  0
M  END
