
     RDKit          3D

 12 11  0  0  0  0  0  0  0  0999 V2000
    3.8450   -0.4030    0.1210 C   0  0  0  0  0  0  0  0  0  0  0  0
    2.6160   -0.3470   -0.5440 O   0  0  0  0  0  0  0  0  0  0  0  0
    1.8620    0.7490   -0.0740 C   0  0  0  0  0  0  0  0  0  0  0  0
    0.5360    0.8300   -0.7750 C   0  0  1  0  0  0  0  0  0  0  0  0
    0.7860    0.9840   -2.1340 O   0  0  0  0  0  0  0  0  0  0  0  0
   -0.2240   -0.2960   -0.4920 O   0  0  0  0  0  0  0  0  0  0  0  0
   -1.4030   -0.0200    0.1360 C   0  0  2  0  0  0  0  0  0  0  0  0
   -1.5180   -0.6330    1.5130 C   0  0  0  0  0  0  0  0  0  0  0  0
   -2.7750   -0.2590    2.0180 O   0  0  0  0  0  0  0  0  0  0  0  0
   -2.6200   -0.4450   -0.6550 C   0  0  2  0  0  0  0  0  0  0  0  0
   -2.6350   -1.8050   -0.9070 O   0  0  0  0  0  0  0  0  0  0  0  0
   -2.6830    0.2020   -1.8940 O   0  0  0  0  0  0  0  0  0  0  0  0
  1  2  1  0
  2  3  1  0
  3  4  1  0
  4  5  1  6
  4  6  1  0
  6  7  1  0
  7  8  1  1
  7 10  1  0
  8  9  1  0
 10 11  1  6
 10 12  1  0
M  END
