
     RDKit          3D

 11 10  0  0  0  0  0  0  0  0999 V2000
   -0.7640    0.8870   -1.4690 C   0  0  0  0  0  0  0  0  0  0  0  0
   -0.1860    0.2380   -0.2550 C   0  0  1  0  0  0  0  0  0  0  0  0
   -0.1830    1.2710    0.8500 C   0  0  0  0  0  0  0  0  0  0  0  0
    0.4240    2.4610    0.4630 O   0  0  0  0  0  0  0  0  0  0  0  0
   -0.7790   -0.9000    0.1690 O   0  0  0  0  0  0  0  0  0  0  0  0
   -2.0810   -0.8830    0.5270 C   0  0  0  0  0  0  0  0  0  0  0  0
   -2.4380   -2.1790    0.9220 O   0  0  0  0  0  0  0  0  0  0  0  0
    1.2580   -0.1030   -0.5710 C   0  0  2  0  0  0  0  0  0  0  0  0
    1.2240   -1.0790   -1.5730 O   0  0  0  0  0  0  0  0  0  0  0  0
    1.9340   -0.7350    0.6490 C   0  0  0  0  0  0  0  0  0  0  0  0
    3.2200   -1.1080    0.1960 O   0  0  0  0  0  0  0  0  0  0  0  0
  2  1  1  6
  2  3  1  0
  2  5  1  0
  2  8  1  0
  3  4  1  0
  5  6  1  0
  6  7  1  0
  8  9  1  6
  8 10  1  0
 10 11  1  0
M  END
