
     RDKit          3D

 11 11  0  0  0  0  0  0  0  0999 V2000
   -2.9570   -0.7910   -0.7500 O   0  0  0  0  0  0  0  0  0  0  0  0
   -1.9550    0.0560   -0.2340 C   0  0  2  0  0  0  0  0  0  0  0  0
   -2.0220   -0.0540    1.1420 O   0  0  0  0  0  0  0  0  0  0  0  0
   -2.2580    1.3530   -0.6690 O   0  0  0  0  0  0  0  0  0  0  0  0
   -0.6590   -0.3910   -0.8270 C   0  0  0  0  0  0  0  0  0  0  0  0
    0.5300    0.3980   -0.3910 C   0  0  1  0  0  0  0  0  0  0  0  0
    0.4370    1.7460   -0.7160 O   0  0  0  0  0  0  0  0  0  0  0  0
    0.9360    0.1570    1.0380 C   0  0  0  0  0  0  0  0  0  0  0  0
    2.2370   -0.6400    0.8980 C   0  0  0  0  0  0  0  0  0  0  0  0
    2.0580   -1.2710   -0.3540 O   0  0  0  0  0  0  0  0  0  0  0  0
    1.7400   -0.1680   -1.1450 C   0  0  0  0  0  0  0  0  0  0  0  0
  2  1  1  6
  2  3  1  0
  2  4  1  0
  2  5  1  0
  5  6  1  0
  6  7  1  1
  6  8  1  0
  6 11  1  0
  8  9  1  0
  9 10  1  0
 10 11  1  0
M  END
