
     RDKit          3D

 20 22  0  0  0  0  0  0  0  0999 V2000
   -1.4150    3.7370   -0.4910 N   0  0  0  0  0  0  0  0  0  0  0  0
   -0.7880    2.8950    0.5090 C   0  0  0  0  0  0  0  0  0  0  0  0
   -0.7590    1.4420    0.0780 C   0  0  2  0  0  0  0  0  0  0  0  0
   -2.1080    0.9050   -0.1500 C   0  0  0  0  0  0  0  0  0  0  0  0
   -3.1640    1.5860   -0.2440 O   0  0  0  0  0  0  0  0  0  0  0  0
   -2.2620   -0.5530   -0.2840 C   0  0  0  0  0  0  0  0  0  0  0  0
   -1.4100   -1.3060    0.4340 C   0  0  0  0  0  0  0  0  0  0  0  0
   -1.5410   -2.7130    0.3190 N   0  0  0  0  0  0  0  0  0  0  0  0
   -2.4850   -3.3200   -0.4810 N   0  0  0  0  0  0  0  0  0  0  0  0
   -3.3900   -2.5300   -1.2440 C   0  0  0  0  0  0  0  0  0  0  0  0
   -4.2450   -3.0990   -1.9680 O   0  0  0  0  0  0  0  0  0  0  0  0
   -3.2540   -1.1230   -1.1240 N   0  0  0  0  0  0  0  0  0  0  0  0
   -0.4420   -0.7040    1.2710 N   0  0  0  0  0  0  0  0  0  0  0  0
   -0.0630    0.6590    1.1390 C   0  0  1  0  0  0  0  0  0  0  0  0
    1.4400    0.8660    1.1150 C   0  0  0  0  0  0  0  0  0  0  0  0
    2.0960    0.4800   -0.1630 C   0  0  2  0  0  0  0  0  0  0  0  0
    1.9130   -0.9450   -0.5130 C   0  0  0  0  0  0  0  0  0  0  0  0
    3.1630   -1.4780   -1.1370 C   0  0  0  0  0  0  0  0  0  0  0  0
    4.3380   -1.0690   -0.3240 C   0  0  0  0  0  0  0  0  0  0  0  0
    3.9080    0.6470    0.0970 S   0  0  0  0  0  0  0  0  0  0  0  0
  1  2  1  0
  3  2  1  1
  3  4  1  0
  3 14  1  0
  4  5  2  0
  4  6  1  0
  6  7  2  0
  6 12  1  0
  7  8  1  0
  7 13  1  0
  8  9  1  0
  9 10  1  0
 10 11  2  0
 10 12  1  0
 13 14  1  0
 14 15  1  6
 16 15  1  1
 16 17  1  0
 16 20  1  0
 17 18  1  0
 18 19  1  0
 19 20  1  0
M  CHG  1   1   1
M  END
