
     RDKit          3D

 11 11  0  0  0  0  0  0  0  0999 V2000
    3.5530    0.6770    0.4390 C   0  0  0  0  0  0  0  0  0  0  0  0
    2.2030    0.4060    0.5270 O   0  0  0  0  0  0  0  0  0  0  0  0
    1.8990   -0.6340   -0.3330 C   0  0  0  0  0  0  0  0  0  0  0  0
    0.4400   -0.9920   -0.2970 C   0  0  1  0  0  0  0  0  0  0  0  0
    0.1200   -1.3720    0.9880 O   0  0  0  0  0  0  0  0  0  0  0  0
   -1.1080   -0.8040    1.3030 C   0  0  0  0  0  0  0  0  0  0  0  0
   -1.5900   -0.3720   -0.0850 C   0  0  1  0  0  0  0  0  0  0  0  0
   -2.6120    0.7190    0.0600 C   0  0  2  0  0  0  0  0  0  0  0  0
   -2.8720    1.2500   -1.2050 O   0  0  0  0  0  0  0  0  0  0  0  0
   -2.2800    1.6620    0.9970 O   0  0  0  0  0  0  0  0  0  0  0  0
   -0.3860    0.0800   -0.6270 O   0  0  0  0  0  0  0  0  0  0  0  0
  1  2  1  0
  2  3  1  0
  4  3  1  1
  4  5  1  0
  4 11  1  0
  5  6  1  0
  7  6  1  1
  7  8  1  0
  7 11  1  0
  8  9  1  6
  8 10  1  0
M  END
