
     RDKit          3D

 14 15  0  0  0  0  0  0  0  0999 V2000
    2.0460   -1.5590    0.1540 N   0  0  0  0  0  0  0  0  0  0  0  0
    1.4230   -0.2750    0.0880 C   0  0  0  0  0  0  0  0  0  0  0  0
    0.1260   -0.1840    0.2550 C   0  0  0  0  0  0  0  0  0  0  0  0
   -0.6670   -1.4090    0.5040 C   0  0  0  0  0  0  0  0  0  0  0  0
   -0.1060   -2.4110    0.9870 O   0  0  0  0  0  0  0  0  0  0  0  0
   -2.0540   -1.3760    0.1730 N   0  0  0  0  0  0  0  0  0  0  0  0
   -2.6530   -0.2330   -0.3670 N   0  0  0  0  0  0  0  0  0  0  0  0
   -1.8600    0.9130   -0.5870 C   0  0  0  0  0  0  0  0  0  0  0  0
   -2.2160    1.7350   -1.4540 O   0  0  0  0  0  0  0  0  0  0  0  0
   -0.6280    1.0820    0.2370 C   0  0  2  0  0  0  0  0  0  0  0  0
    0.1400    2.1520   -0.1030 O   0  0  0  0  0  0  0  0  0  0  0  0
    1.4990    2.0910   -0.2770 C   0  0  0  0  0  0  0  0  0  0  0  0
    2.2040    3.1250   -0.5260 O   0  0  0  0  0  0  0  0  0  0  0  0
    2.2270    0.8660   -0.1930 N   0  0  0  0  0  0  0  0  0  0  0  0
  1  2  1  0
  2  3  2  0
  2 14  1  0
  3  4  1  0
  3 10  1  0
  4  5  2  0
  4  6  1  0
  6  7  1  0
  7  8  1  0
  8  9  2  0
  8 10  1  0
 10 11  1  6
 11 12  1  0
 12 13  2  0
 12 14  1  0
M  END
