
     RDKit          3D

 14 15  0  0  0  0  0  0  0  0999 V2000
   -4.4750   -0.4330    1.0520 O   0  0  0  0  0  0  0  0  0  0  0  0
   -3.3330   -0.1090    0.6240 C   0  0  0  0  0  0  0  0  0  0  0  0
   -2.9350    1.1610    0.1050 N   0  0  0  0  0  0  0  0  0  0  0  0
   -1.5500    1.1500   -0.0980 N   0  0  0  0  0  0  0  0  0  0  0  0
   -1.3010   -0.2400   -0.4140 C   0  0  1  0  0  0  0  0  0  0  0  0
    0.1180   -0.5990   -0.2450 C   0  0  0  0  0  0  0  0  0  0  0  0
    1.0500    0.2520    0.1500 C   0  0  0  0  0  0  0  0  0  0  0  0
    0.9010    1.5980    0.4730 O   0  0  0  0  0  0  0  0  0  0  0  0
    2.3100   -0.4830    0.1910 C   0  0  0  0  0  0  0  0  0  0  0  0
    3.4790    0.0500    0.3140 N   0  0  0  0  0  0  0  0  0  0  0  0
    3.6450    1.3910    0.4190 O   0  0  0  0  0  0  0  0  0  0  0  0
    1.9650   -1.9060    0.0670 C   0  0  0  0  0  0  0  0  0  0  0  0
    0.6460   -1.8570   -0.4760 O   0  0  0  0  0  0  0  0  0  0  0  0
   -2.1570   -0.9190    0.5470 N   0  0  0  0  0  0  0  0  0  0  0  0
  1  2  2  0
  2  3  1  0
  2 14  1  0
  3  4  1  0
  4  5  1  0
  5  6  1  1
  5 14  1  0
  6  7  2  0
  6 13  1  0
  7  8  1  0
  7  9  1  0
  9 10  2  3
  9 12  1  0
 10 11  1  0
 12 13  1  0
M  END
