
     RDKit          3D

 14 14  0  0  0  0  0  0  0  0999 V2000
   -2.6390    2.1370   -0.6410 C   0  0  0  0  0  0  0  0  0  0  0  0
   -2.6800    0.7090   -0.4150 N   0  0  0  0  0  0  0  0  0  0  0  0
   -1.3470    0.2670   -0.0510 C   0  0  0  0  0  0  0  0  0  0  0  0
   -1.3150   -1.2270    0.2020 C   0  0  1  0  0  0  0  0  0  0  0  0
   -1.7210   -1.8340   -1.0000 O   0  0  0  0  0  0  0  0  0  0  0  0
   -0.6510   -1.8700   -1.7860 N   0  0  0  0  0  0  0  0  0  0  0  0
    0.4520   -1.8080   -1.0520 O   0  0  0  0  0  0  0  0  0  0  0  0
    0.0880   -1.7550    0.2890 C   0  0  1  0  0  0  0  0  0  0  0  0
    1.0120   -0.9000    1.0240 C   0  0  0  0  0  0  0  0  0  0  0  0
    0.9380   -0.6600    2.2590 O   0  0  0  0  0  0  0  0  0  0  0  0
    2.0910   -0.2720    0.3400 N   0  0  0  0  0  0  0  0  0  0  0  0
    3.0360    0.5730    0.9800 C   0  0  0  0  0  0  0  0  0  0  0  0
    4.1110    1.2050    0.3190 N   0  0  0  0  0  0  0  0  0  0  0  0
    2.8650    0.7470    2.2330 O   0  0  0  0  0  0  0  0  0  0  0  0
  1  2  1  0
  2  3  1  0
  4  3  1  6
  4  5  1  0
  4  8  1  0
  5  6  1  0
  6  7  1  0
  7  8  1  0
  8  9  1  1
  9 10  2  0
  9 11  1  0
 11 12  1  0
 12 13  1  0
 12 14  2  0
M  END
