
     RDKit          3D

 14 14  0  0  0  0  0  0  0  0999 V2000
    4.5340    0.3050   -0.1840 N   0  0  0  0  0  0  0  0  0  0  0  0
    3.3350   -0.0580    0.4810 C   0  0  0  0  0  0  0  0  0  0  0  0
    3.4080   -0.3570    1.6980 O   0  0  0  0  0  0  0  0  0  0  0  0
    2.0510   -0.0910   -0.2040 C   0  0  0  0  0  0  0  0  0  0  0  0
    2.0090    0.2170   -1.4390 O   0  0  0  0  0  0  0  0  0  0  0  0
    0.8450   -0.4490    0.4370 N   0  0  0  0  0  0  0  0  0  0  0  0
   -0.3940   -0.4580   -0.3120 C   0  0  0  0  0  0  0  0  0  0  0  0
   -1.5140   -0.8810    0.6350 C   0  0  2  0  0  0  0  0  0  0  0  0
   -2.7690   -0.8420   -0.0930 N   0  0  0  0  0  0  0  0  0  0  0  0
   -3.2650    0.4740   -0.4180 C   0  0  0  0  0  0  0  0  0  0  0  0
   -4.0520    0.6290   -1.3770 O   0  0  0  0  0  0  0  0  0  0  0  0
   -2.7940    1.5720    0.4290 C   0  0  0  0  0  0  0  0  0  0  0  0
   -1.9870    1.3340    1.3970 N   0  0  0  0  0  0  0  0  0  0  0  0
   -1.5410    0.0730    1.6720 O   0  0  0  0  0  0  0  0  0  0  0  0
  1  2  1  0
  2  3  2  0
  2  4  1  0
  4  5  2  0
  4  6  1  0
  6  7  1  0
  8  7  1  6
  8  9  1  0
  8 14  1  0
  9 10  1  0
 10 11  2  0
 10 12  1  0
 12 13  2  0
 13 14  1  0
M  END
