
     RDKit          3D

 13 14  0  0  0  0  0  0  0  0999 V2000
   -1.8680    0.7500   -1.0950 C   0  0  0  0  0  0  0  0  0  0  0  0
   -0.8370    0.8390    0.0030 C   0  0  1  0  0  0  0  0  0  0  0  0
   -0.3210    2.1030    0.1710 O   0  0  0  0  0  0  0  0  0  0  0  0
   -1.4680    0.3090    1.2470 C   0  0  0  0  0  0  0  0  0  0  0  0
   -1.9110    0.9200    2.1720 O   0  0  0  0  0  0  0  0  0  0  0  0
   -1.4280   -1.1870    1.0870 C   0  0  0  0  0  0  0  0  0  0  0  0
   -0.3750   -1.4600    0.0360 C   0  0  0  0  0  0  0  0  0  0  0  0
    0.2910   -0.1430   -0.1700 C   0  0  1  0  0  0  0  0  0  0  0  0
    1.0260   -0.0020   -1.3680 N   0  0  0  0  0  0  0  0  0  0  0  0
    2.3510    0.2860   -1.0180 N   0  0  0  0  0  0  0  0  0  0  0  0
    2.3970    0.5030    0.3390 N   0  0  0  0  0  0  0  0  0  0  0  0
    3.4200   -0.1760    0.9520 O   0  0  0  0  0  0  0  0  0  0  0  0
    1.2250    0.0700    0.9130 N   0  0  0  0  0  0  0  0  0  0  0  0
  2  1  1  6
  2  3  1  0
  2  4  1  0
  2  8  1  0
  4  5  2  0
  4  6  1  0
  6  7  1  0
  8  7  1  1
  8  9  1  0
  8 13  1  0
  9 10  1  0
 10 11  1  0
 11 12  1  0
 11 13  1  0
M  END
