
     RDKit          3D

  8  7  0  0  0  0  0  0  0  0999 V2000
   -0.2710   -1.4320   -0.4810 C   0  0  0  0  0  0  0  0  0  0  0  0
   -0.4720   -0.0580   -0.0410 N   0  0  1  0  0  0  0  0  0  0  0  0
   -1.8520    0.2760   -0.3500 C   0  0  0  0  0  0  0  0  0  0  0  0
   -0.2250    0.1030    1.3690 C   0  0  0  0  0  0  0  0  0  0  0  0
    0.4540    0.7570   -0.8140 C   0  0  0  0  0  0  0  0  0  0  0  0
    1.8270    0.6150   -0.3180 C   0  0  0  0  0  0  0  0  0  0  0  0
    2.7310    1.2780   -0.9100 O   0  0  0  0  0  0  0  0  0  0  0  0
    2.2230   -0.1760    0.7370 O   0  0  0  0  0  0  0  0  0  0  0  0
  2  1  1  6
  2  3  1  0
  2  4  1  0
  2  5  1  0
  5  6  1  0
  6  7  2  0
  6  8  1  0
M  CHG  1   2   1
M  END
