
     RDKit          3D

 14 14  0  0  0  0  0  0  0  0999 V2000
   -2.2790   -0.8910    0.5900 C   0  0  0  0  0  0  0  0  0  0  0  0
   -1.7630   -0.3900   -0.7230 C   0  0  1  0  0  0  0  0  0  0  0  0
   -2.8680    0.2660   -1.3500 O   0  0  0  0  0  0  0  0  0  0  0  0
   -0.6680    0.6000   -0.6420 C   0  0  1  0  0  0  0  0  0  0  0  0
   -1.1150    1.7430    0.1450 N   0  0  0  0  0  0  0  0  0  0  0  0
    0.6230    0.1530   -0.2600 N   0  0  0  0  0  0  0  0  0  0  0  0
    1.5680    1.0700   -0.1170 N   0  0  0  0  0  0  0  0  0  0  0  0
    2.8340    0.7330    0.2460 C   0  0  0  0  0  0  0  0  0  0  0  0
    3.7300    1.6170    0.3800 O   0  0  0  0  0  0  0  0  0  0  0  0
    3.1750   -0.5480    0.4750 N   0  0  0  0  0  0  0  0  0  0  0  0
    2.2410   -1.4980    0.3390 C   0  0  0  0  0  0  0  0  0  0  0  0
    2.5560   -2.6960    0.5530 O   0  0  0  0  0  0  0  0  0  0  0  0
    0.9420   -1.1200   -0.0380 C   0  0  0  0  0  0  0  0  0  0  0  0
    0.1280   -2.0710   -0.1420 O   0  0  0  0  0  0  0  0  0  0  0  0
  2  1  1  1
  2  3  1  0
  2  4  1  0
  4  5  1  1
  4  6  1  0
  6  7  1  0
  6 13  1  0
  7  8  1  0
  8  9  2  0
  8 10  1  0
 10 11  1  0
 11 12  2  0
 11 13  1  0
 13 14  2  0
M  END
