
     RDKit          3D

 14 14  0  0  0  0  0  0  0  0999 V2000
   -3.3690    0.8880   -0.9350 C   0  0  0  0  0  0  0  0  0  0  0  0
   -2.6420   -0.0160    0.0580 C   0  0  1  0  0  0  0  0  0  0  0  0
   -2.9570   -1.3410   -0.1830 O   0  0  0  0  0  0  0  0  0  0  0  0
   -1.1790    0.2550   -0.0860 C   0  0  2  0  0  0  0  0  0  0  0  0
   -0.8000   -0.0630   -1.3890 O   0  0  0  0  0  0  0  0  0  0  0  0
   -0.3210   -0.5380    0.8540 C   0  0  0  0  0  0  0  0  0  0  0  0
    1.0650   -0.1630    0.5910 N   0  0  0  0  0  0  0  0  0  0  0  0
    1.7730    0.8150    1.1560 N   0  0  0  0  0  0  0  0  0  0  0  0
    3.0040    0.8440    0.6520 C   0  0  0  0  0  0  0  0  0  0  0  0
    3.9210    1.6490    0.9740 O   0  0  0  0  0  0  0  0  0  0  0  0
    3.1020   -0.1350   -0.2610 N   0  0  0  0  0  0  0  0  0  0  0  0
    4.2280   -0.4460   -1.0220 N   0  0  0  0  0  0  0  0  0  0  0  0
    1.8960   -0.7400   -0.2800 C   0  0  0  0  0  0  0  0  0  0  0  0
    1.6320   -1.7220   -1.0400 O   0  0  0  0  0  0  0  0  0  0  0  0
  2  1  1  6
  2  3  1  0
  2  4  1  0
  4  5  1  6
  4  6  1  0
  6  7  1  0
  7  8  1  0
  7 13  1  0
  8  9  1  0
  9 10  2  0
  9 11  1  0
 11 12  1  0
 11 13  1  0
 13 14  2  0
M  END
