
     RDKit          3D

 13 14  0  0  0  0  0  0  0  0999 V2000
   -3.3940   -2.1430   -0.4580 O   0  0  0  0  0  0  0  0  0  0  0  0
   -2.5940   -1.2900   -0.0260 C   0  0  0  0  0  0  0  0  0  0  0  0
   -3.0480    0.0590    0.3660 C   0  0  0  0  0  0  0  0  0  0  0  0
   -2.1520    1.0100   -0.1340 O   0  0  0  0  0  0  0  0  0  0  0  0
   -0.7960    0.7970   -0.0230 C   0  0  0  0  0  0  0  0  0  0  0  0
    0.0810    1.7960   -0.0200 C   0  0  0  0  0  0  0  0  0  0  0  0
    1.4610    1.5840    0.0930 N   0  0  0  0  0  0  0  0  0  0  0  0
    2.0160    0.2420    0.2140 C   0  0  2  0  0  0  0  0  0  0  0  0
    3.0170    0.0940   -0.7910 N   0  0  0  0  0  0  0  0  0  0  0  0
    3.6300   -1.0820   -0.8230 O   0  0  0  0  0  0  0  0  0  0  0  0
    1.0050   -0.7660    0.2020 N   0  0  0  0  0  0  0  0  0  0  0  0
   -0.2530   -0.5470    0.0980 C   0  0  0  0  0  0  0  0  0  0  0  0
   -1.2190   -1.6190    0.0930 N   0  0  0  0  0  0  0  0  0  0  0  0
  1  2  2  0
  2  3  1  0
  2 13  1  0
  3  4  1  0
  4  5  1  0
  5  6  2  0
  5 12  1  0
  6  7  1  0
  7  8  1  0
  8  9  1  6
  8 11  1  0
  9 10  1  0
 11 12  2  0
 12 13  1  0
M  END
