
     RDKit          3D

 39 40  0  0  0  0  0  0  0  0999 V2000
    0.4740    5.4170    0.4010 C   0  0  0  0  0  0  0  0  0  0  0  0
    0.2190    4.8300   -0.9740 C   0  0  0  0  0  0  0  0  0  0  0  0
   -1.1870    4.2740   -1.0260 C   0  0  0  0  0  0  0  0  0  0  0  0
   -1.4030    3.1920    0.0020 C   0  0  0  0  0  0  0  0  0  0  0  0
   -0.4520    2.0170   -0.2060 C   0  0  1  0  0  0  0  0  0  0  0  0
   -0.7590    0.9960    0.8810 C   0  0  0  0  0  0  0  0  0  0  0  0
   -0.8250    1.4150   -1.4230 O   0  0  0  0  0  0  0  0  0  0  0  0
   -0.2660    0.3310   -2.0250 C   0  0  0  0  0  0  0  0  0  0  0  0
   -0.9770   -0.6240   -2.5560 C   0  0  0  0  0  0  0  0  0  0  0  0
   -2.4150   -0.7060   -2.6010 C   0  0  0  0  0  0  0  0  0  0  0  0
   -2.9860   -1.7210   -3.1650 O   0  0  0  0  0  0  0  0  0  0  0  0
   -3.3320    0.2410   -2.0750 N   0  0  0  0  0  0  0  0  0  0  0  0
   -4.7810    0.0430   -2.1820 C   0  0  0  0  0  0  0  0  0  0  0  0
   -5.2330   -0.9560   -1.2080 C   0  0  0  0  0  0  0  0  0  0  0  0
   -5.8140   -2.1240   -1.6040 C   0  0  0  0  0  0  0  0  0  0  0  0
   -6.2300   -3.0600   -0.6520 C   0  0  0  0  0  0  0  0  0  0  0  0
   -6.0610   -2.8210    0.6850 C   0  0  0  0  0  0  0  0  0  0  0  0
   -6.5000   -3.8030    1.6910 C   0  0  0  0  0  0  0  0  0  0  0  0
   -8.1950   -3.5030    2.2240 S   0  0  0  0  0  0  0  0  0  0  0  0
   -9.3660   -3.7760    0.8820 C   0  0  0  0  0  0  0  0  0  0  0  0
   -5.4680   -1.6270    1.0690 C   0  0  0  0  0  0  0  0  0  0  0  0
   -5.0580   -0.7070    0.1470 C   0  0  0  0  0  0  0  0  0  0  0  0
    1.2130    0.2150   -2.0910 C   0  0  0  0  0  0  0  0  0  0  0  0
    1.7130   -0.7920   -2.6640 O   0  0  0  0  0  0  0  0  0  0  0  0
    2.0720    1.1380   -1.5650 O   0  0  0  0  0  0  0  0  0  0  0  0
    3.4790    1.0470   -1.6250 C   0  0  1  0  0  0  0  0  0  0  0  0
    4.0160    2.2100   -2.4170 C   0  0  0  0  0  0  0  0  0  0  0  0
    4.1160    0.9400   -0.2790 C   0  0  0  0  0  0  0  0  0  0  0  0
    5.3590    0.9000   -0.2490 O   0  0  0  0  0  0  0  0  0  0  0  0
    3.3190    0.8870    0.8820 N   0  0  0  0  0  0  0  0  0  0  0  0
    3.8610    0.7770    2.1950 C   0  0  0  0  0  0  0  0  0  0  0  0
    4.6600   -0.4390    2.4970 C   0  0  1  0  0  0  0  0  0  0  0  0
    3.8240   -1.6950    2.2290 C   0  0  0  0  0  0  0  0  0  0  0  0
    4.5550   -2.3260    1.2290 O   0  0  0  0  0  0  0  0  0  0  0  0
    5.8680   -1.9820    1.5700 C   0  0  1  0  0  0  0  0  0  0  0  0
    6.8220   -2.4050    0.4870 C   0  0  0  0  0  0  0  0  0  0  0  0
    8.1120   -2.0700    0.8090 O   0  0  0  0  0  0  0  0  0  0  0  0
    8.5610   -2.6590    1.9740 C   0  0  0  0  0  0  0  0  0  0  0  0
    5.7910   -0.6200    1.7270 O   0  0  0  0  0  0  0  0  0  0  0  0
  1  2  1  0
  2  3  1  0
  3  4  1  0
  4  5  1  0
  5  6  1  1
  5  7  1  0
  7  8  1  0
  8  9  2  3
  8 23  1  0
  9 10  1  0
 10 11  2  0
 10 12  1  0
 12 13  1  0
 13 14  1  0
 14 15  2  0
 14 22  1  0
 15 16  1  0
 16 17  2  0
 17 18  1  0
 17 21  1  0
 18 19  1  0
 19 20  1  0
 21 22  2  0
 23 24  2  0
 23 25  1  0
 25 26  1  0
 26 27  1  1
 26 28  1  0
 28 29  2  0
 28 30  1  0
 30 31  1  0
 32 31  1  6
 32 33  1  0
 32 39  1  0
 33 34  1  0
 34 35  1  0
 35 36  1  6
 35 39  1  0
 36 37  1  0
 37 38  1  0
M  END
