
     RDKit          3D

 39 40  0  0  0  0  0  0  0  0999 V2000
    8.2330    0.9930    0.2840 C   0  0  0  0  0  0  0  0  0  0  0  0
    8.2120   -0.2570    0.6270 C   0  0  0  0  0  0  0  0  0  0  0  0
    7.0970   -1.1400    0.7050 C   0  0  0  0  0  0  0  0  0  0  0  0
    7.3260   -2.4090    1.0960 C   0  0  0  0  0  0  0  0  0  0  0  0
    8.6920   -2.8620    1.4310 C   0  0  0  0  0  0  0  0  0  0  0  0
    5.7140   -0.7630    0.3930 C   0  0  1  0  0  0  0  0  0  0  0  0
    5.2010    0.1550    1.4800 C   0  0  0  0  0  0  0  0  0  0  0  0
    3.7330    0.4990    1.3120 C   0  0  0  0  0  0  0  0  0  0  0  0
    3.4490    0.5580   -0.1040 N   0  0  0  0  0  0  0  0  0  0  0  0
    2.1510    0.2520   -0.5710 C   0  0  0  0  0  0  0  0  0  0  0  0
    1.8590    0.2950   -1.8050 O   0  0  0  0  0  0  0  0  0  0  0  0
    1.1210   -0.1280    0.4270 C   0  0  0  0  0  0  0  0  0  0  0  0
   -0.5010   -0.4070   -0.1960 S   0  0  0  0  0  0  0  0  0  0  0  0
   -1.4590    0.9540   -0.7060 C   0  0  0  0  0  0  0  0  0  0  0  0
   -2.6100    0.7520   -1.2770 N   0  0  0  0  0  0  0  0  0  0  0  0
   -3.0390   -0.6130   -1.4600 C   0  0  0  0  0  0  0  0  0  0  0  0
   -2.4560   -1.3970   -2.4520 C   0  0  0  0  0  0  0  0  0  0  0  0
   -2.8620   -2.7030   -2.6130 C   0  0  0  0  0  0  0  0  0  0  0  0
   -3.8350   -3.2790   -1.8250 C   0  0  0  0  0  0  0  0  0  0  0  0
   -4.4290   -2.5210   -0.8380 C   0  0  0  0  0  0  0  0  0  0  0  0
   -5.4000   -2.9520    0.0040 O   0  0  0  0  0  0  0  0  0  0  0  0
   -6.0910   -4.0940    0.1430 C   0  0  0  0  0  0  0  0  0  0  0  0
   -7.0270   -4.3930   -0.9790 C   0  0  1  0  0  0  0  0  0  0  0  0
   -6.5480   -4.5210   -2.2300 O   0  0  0  0  0  0  0  0  0  0  0  0
   -7.7870   -5.6650   -0.6040 C   0  0  0  0  0  0  0  0  0  0  0  0
   -8.2630   -5.4930    0.6910 O   0  0  0  0  0  0  0  0  0  0  0  0
   -3.9980   -1.1840   -0.6870 C   0  0  0  0  0  0  0  0  0  0  0  0
   -1.0560    2.3540   -0.5390 C   0  0  1  0  0  0  0  0  0  0  0  0
    0.0060    2.8530   -1.4480 C   0  0  0  0  0  0  0  0  0  0  0  0
   -2.1830    3.2250   -0.4890 O   0  0  0  0  0  0  0  0  0  0  0  0
   -2.5880    3.9250    0.6180 C   0  0  0  0  0  0  0  0  0  0  0  0
   -1.9220    3.7950    1.6730 O   0  0  0  0  0  0  0  0  0  0  0  0
   -3.7950    4.8290    0.5940 C   0  0  0  0  0  0  0  0  0  0  0  0
   -3.9210    5.4180    1.9750 C   0  0  0  0  0  0  0  0  0  0  0  0
   -4.9720    6.2590    2.1750 O   0  0  0  0  0  0  0  0  0  0  0  0
   -4.8980    7.3520    1.3280 C   0  0  0  0  0  0  0  0  0  0  0  0
    4.5660    0.9310   -0.9550 C   0  0  0  0  0  0  0  0  0  0  0  0
    5.4570   -0.3080   -0.9990 C   0  0  1  0  0  0  0  0  0  0  0  0
    6.5680   -0.1420   -1.7980 O   0  0  0  0  0  0  0  0  0  0  0  0
  1  2  2  0
  2  3  1  0
  3  4  2  3
  6  3  1  6
  4  5  1  0
  6  7  1  0
  6 38  1  0
  7  8  1  0
  8  9  1  0
  9 10  1  0
  9 37  1  0
 10 11  2  0
 10 12  1  0
 12 13  1  0
 13 14  1  0
 14 15  2  3
 14 28  1  0
 15 16  1  0
 16 17  2  0
 16 27  1  0
 17 18  1  0
 18 19  2  0
 19 20  1  0
 20 21  1  0
 20 27  2  0
 21 22  1  0
 22 23  1  0
 23 24  1  6
 23 25  1  0
 25 26  1  0
 28 29  1  6
 28 30  1  0
 30 31  1  0
 31 32  2  0
 31 33  1  0
 33 34  1  0
 34 35  1  0
 35 36  1  0
 37 38  1  0
 38 39  1  1
M  END
