
     RDKit          3D

 38 39  0  0  0  0  0  0  0  0999 V2000
   -7.5100   -5.3230   -1.0640 C   0  0  0  0  0  0  0  0  0  0  0  0
   -6.5760   -4.1330   -1.0410 C   0  0  0  0  0  0  0  0  0  0  0  0
   -5.5410   -4.3910    0.0180 C   0  0  0  0  0  0  0  0  0  0  0  0
   -4.5650   -3.2170    0.0860 C   0  0  0  0  0  0  0  0  0  0  0  0
   -3.3430   -3.3140   -0.4320 C   0  0  0  0  0  0  0  0  0  0  0  0
   -2.5140   -2.1680   -0.3230 C   0  0  0  0  0  0  0  0  0  0  0  0
   -1.1860   -2.0590   -0.8080 C   0  0  0  0  0  0  0  0  0  0  0  0
   -0.6930   -3.0940   -1.3890 O   0  0  0  0  0  0  0  0  0  0  0  0
   -0.2860   -0.9320   -0.7470 N   0  0  0  0  0  0  0  0  0  0  0  0
   -0.7640    0.2290   -0.1120 C   0  0  0  0  0  0  0  0  0  0  0  0
   -0.5960    0.5180    1.3210 C   0  0  1  0  0  0  0  0  0  0  0  0
    0.7040    0.7490    1.9410 C   0  0  0  0  0  0  0  0  0  0  0  0
    0.8970    2.2420    1.9990 C   0  0  0  0  0  0  0  0  0  0  0  0
   -0.3950    2.8080    1.7830 N   0  0  0  0  0  0  0  0  0  0  0  0
   -0.6700    4.2020    1.6230 C   0  0  0  0  0  0  0  0  0  0  0  0
   -1.8450    4.6210    1.4380 O   0  0  0  0  0  0  0  0  0  0  0  0
    0.4150    5.2130    1.6690 C   0  0  0  0  0  0  0  0  0  0  0  0
   -0.1260    6.6140    1.4700 C   0  0  0  0  0  0  0  0  0  0  0  0
   -0.7660    6.7470    0.2450 O   0  0  0  0  0  0  0  0  0  0  0  0
   -1.3960    1.7640    1.7450 C   0  0  0  0  0  0  0  0  0  0  0  0
    0.9390   -1.1200   -1.4590 C   0  0  2  0  0  0  0  0  0  0  0  0
    2.0300   -1.5870   -0.4910 C   0  0  0  0  0  0  0  0  0  0  0  0
    1.7200   -2.1300    0.6080 O   0  0  0  0  0  0  0  0  0  0  0  0
    3.3440   -1.4300   -0.7880 O   0  0  0  0  0  0  0  0  0  0  0  0
    4.4150   -1.8350    0.0520 C   0  0  1  0  0  0  0  0  0  0  0  0
    5.2270   -2.9390   -0.6010 C   0  0  0  0  0  0  0  0  0  0  0  0
    5.2450   -0.6590    0.3750 C   0  0  0  0  0  0  0  0  0  0  0  0
    6.2670   -0.7550    1.1310 O   0  0  0  0  0  0  0  0  0  0  0  0
    4.9890    0.6370   -0.1100 O   0  0  0  0  0  0  0  0  0  0  0  0
    5.8540    1.7200    0.2590 C   0  0  0  0  0  0  0  0  0  0  0  0
    5.3140    2.9560   -0.4300 C   0  0  0  0  0  0  0  0  0  0  0  0
    5.3510    2.6980   -1.8190 O   0  0  0  0  0  0  0  0  0  0  0  0
    1.4920   -0.1340   -2.3550 C   0  0  1  0  0  0  0  0  0  0  0  0
    1.8790    1.1730   -1.7220 C   0  0  0  0  0  0  0  0  0  0  0  0
    2.7150   -0.6920   -3.0730 C   0  0  0  0  0  0  0  0  0  0  0  0
   -3.5360   -1.0540    0.5040 S   0  0  0  0  0  0  0  0  0  0  0  0
   -4.9780   -2.0760    0.6830 C   0  0  0  0  0  0  0  0  0  0  0  0
   -6.2460   -1.7070    1.3240 C   0  0  0  0  0  0  0  0  0  0  0  0
  1  2  1  0
  2  3  1  0
  3  4  1  0
  4  5  1  0
  4 37  2  0
  5  6  2  0
  6  7  1  0
  6 36  1  0
  7  8  2  0
  7  9  1  0
  9 10  1  0
 21  9  1  1
 11 10  1  6
 11 12  1  0
 11 20  1  0
 12 13  1  0
 13 14  1  0
 14 15  1  0
 14 20  1  0
 15 16  2  0
 15 17  1  0
 17 18  1  0
 18 19  1  0
 21 22  1  0
 21 33  1  0
 22 23  2  0
 22 24  1  0
 24 25  1  0
 25 26  1  6
 25 27  1  0
 27 28  2  0
 27 29  1  0
 29 30  1  0
 30 31  1  0
 31 32  1  0
 33 34  1  1
 33 35  1  0
 36 37  1  0
 37 38  1  0
M  END
