
     RDKit          3D

 39 44  0  0  0  0  0  0  0  0999 V2000
    5.4100    1.3190    0.6950 C   0  0  0  0  0  0  0  0  0  0  0  0
    4.2080    2.1930    0.8720 C   0  0  0  0  0  0  0  0  0  0  0  0
    4.2990    3.4840    1.1390 C   0  0  0  0  0  0  0  0  0  0  0  0
    2.9380    4.0480    1.2530 C   0  0  0  0  0  0  0  0  0  0  0  0
    2.0730    2.8560    1.0050 C   0  0  0  0  0  0  0  0  0  0  0  0
    2.8000    1.8010    0.7890 C   0  0  0  0  0  0  0  0  0  0  0  0
    2.4250    0.4330    0.5080 N   0  0  0  0  0  0  0  0  0  0  0  0
    2.7730   -0.2290   -0.6550 C   0  0  0  0  0  0  0  0  0  0  0  0
    3.4760    0.4520   -1.4920 O   0  0  0  0  0  0  0  0  0  0  0  0
    2.4600   -1.5960   -1.0670 C   0  0  0  0  0  0  0  0  0  0  0  0
    3.3450   -2.2300   -1.9570 C   0  0  0  0  0  0  0  0  0  0  0  0
    3.1610   -3.5140   -2.3570 C   0  0  0  0  0  0  0  0  0  0  0  0
    4.1060   -4.1720   -3.2980 C   0  0  0  0  0  0  0  0  0  0  0  0
    3.9180   -5.3460   -3.6500 O   0  0  0  0  0  0  0  0  0  0  0  0
    5.2030   -3.4890   -3.7950 O   0  0  0  0  0  0  0  0  0  0  0  0
    2.0760   -4.2180   -1.8780 C   0  0  0  0  0  0  0  0  0  0  0  0
    1.1990   -3.6260   -1.0120 C   0  0  0  0  0  0  0  0  0  0  0  0
    1.3820   -2.3000   -0.5950 C   0  0  0  0  0  0  0  0  0  0  0  0
    0.3960   -1.7450    0.2740 N   0  0  0  0  0  0  0  0  0  0  0  0
    0.2030   -2.2160    1.5220 C   0  0  0  0  0  0  0  0  0  0  0  0
    0.9290   -3.1440    1.9340 O   0  0  0  0  0  0  0  0  0  0  0  0
   -0.7400   -1.7250    2.3380 N   0  0  0  0  0  0  0  0  0  0  0  0
   -1.5450   -0.7110    1.9140 C   0  0  0  0  0  0  0  0  0  0  0  0
   -1.4100   -0.1860    0.6700 C   0  0  0  0  0  0  0  0  0  0  0  0
   -0.4000   -0.7490   -0.1340 C   0  0  0  0  0  0  0  0  0  0  0  0
   -0.2500   -0.2860   -1.2900 O   0  0  0  0  0  0  0  0  0  0  0  0
   -2.2410    0.8950    0.1660 C   0  0  1  0  0  0  0  0  0  0  0  0
   -3.0000    0.3930   -1.0490 C   0  0  0  0  0  0  0  0  0  0  0  0
   -2.9330    0.8910   -2.2670 C   0  0  0  0  0  0  0  0  0  0  0  0
   -3.8300    0.1200   -3.1830 C   0  0  0  0  0  0  0  0  0  0  0  0
   -4.4260   -0.9050   -2.2930 C   0  0  0  0  0  0  0  0  0  0  0  0
   -3.9290   -0.7150   -1.0930 C   0  0  0  0  0  0  0  0  0  0  0  0
   -4.3510   -1.6990    0.2930 Cl  0  0  0  0  0  0  0  0  0  0  0  0
   -3.2470    1.3740    1.1220 C   0  0  0  0  0  0  0  0  0  0  0  0
   -3.3850    0.8770    2.3170 C   0  0  0  0  0  0  0  0  0  0  0  0
   -4.5020    1.5700    3.0720 C   0  0  0  0  0  0  0  0  0  0  0  0
   -5.3170    2.1830    1.9520 C   0  0  0  0  0  0  0  0  0  0  0  0
   -4.2660    2.4760    0.9270 C   0  0  0  0  0  0  0  0  0  0  0  0
   -2.5500   -0.1730    2.7570 N   0  0  0  0  0  0  0  0  0  0  0  0
  1  2  1  0
  2  3  2  0
  2  6  1  0
  3  4  1  0
  4  5  1  0
  5  6  2  0
  6  7  1  0
  7  8  1  0
  8  9  2  0
  8 10  1  0
 10 11  2  0
 10 18  1  0
 11 12  1  0
 12 13  1  0
 12 16  2  0
 13 14  2  0
 13 15  1  0
 16 17  1  0
 17 18  2  0
 18 19  1  0
 19 20  1  0
 19 25  1  0
 20 21  2  0
 20 22  1  0
 22 23  1  0
 23 24  2  0
 23 39  1  0
 24 25  1  0
 24 27  1  0
 25 26  2  0
 27 28  1  6
 27 34  1  0
 28 29  2  0
 28 32  1  0
 29 30  1  0
 30 31  1  0
 31 32  2  0
 32 33  1  0
 34 35  2  0
 34 38  1  0
 35 36  1  0
 35 39  1  0
 36 37  1  0
 37 38  1  0
M  END
