
     RDKit          3D

 17 18  0  0  0  0  0  0  0  0999 V2000
    4.6000    1.9170   -0.6650 O   0  0  0  0  0  0  0  0  0  0  0  0
    4.2040    0.7190   -0.5470 C   0  0  0  0  0  0  0  0  0  0  0  0
    5.0700   -0.3500   -0.5400 O   0  0  0  0  0  0  0  0  0  0  0  0
    2.7610    0.4970   -0.4160 C   0  0  0  0  0  0  0  0  0  0  0  0
    2.2730   -0.7890   -0.2860 C   0  0  0  0  0  0  0  0  0  0  0  0
    0.9190   -1.0480   -0.1590 C   0  0  0  0  0  0  0  0  0  0  0  0
    0.0190   -0.0120   -0.1600 C   0  0  0  0  0  0  0  0  0  0  0  0
   -1.4270   -0.2100   -0.0320 C   0  0  0  0  0  0  0  0  0  0  0  0
   -2.0430   -1.3410   -0.5330 C   0  0  0  0  0  0  0  0  0  0  0  0
   -3.4130   -1.5000   -0.3990 C   0  0  0  0  0  0  0  0  0  0  0  0
   -4.0600   -2.5910   -0.8740 F   0  0  0  0  0  0  0  0  0  0  0  0
   -4.1910   -0.5390    0.2360 C   0  0  0  0  0  0  0  0  0  0  0  0
   -3.5780    0.6000    0.7430 C   0  0  0  0  0  0  0  0  0  0  0  0
   -4.3630    1.5120    1.3520 F   0  0  0  0  0  0  0  0  0  0  0  0
   -2.2260    0.7250    0.5930 C   0  0  0  0  0  0  0  0  0  0  0  0
    0.5250    1.2690   -0.2910 C   0  0  0  0  0  0  0  0  0  0  0  0
    1.8660    1.5460   -0.4180 C   0  0  0  0  0  0  0  0  0  0  0  0
  1  2  2  0
  2  3  1  0
  2  4  1  0
  4  5  2  0
  4 17  1  0
  5  6  1  0
  6  7  2  0
  7  8  1  0
  7 16  1  0
  8  9  2  0
  8 15  1  0
  9 10  1  0
 10 11  1  0
 10 12  2  0
 12 13  1  0
 13 14  1  0
 13 15  2  0
 16 17  2  0
M  END
