
     RDKit          3D

 23 25  0  0  0  0  0  0  0  0999 V2000
    3.7150   -1.9440    0.7160 C   0  0  0  0  0  0  0  0  0  0  0  0
    3.0930   -1.4240   -0.5250 C   0  0  0  0  0  0  0  0  0  0  0  0
    3.1160   -2.0410   -1.6210 O   0  0  0  0  0  0  0  0  0  0  0  0
    2.4190   -0.1310   -0.4680 C   0  0  0  0  0  0  0  0  0  0  0  0
    3.0960    1.0410   -0.7200 C   0  0  0  0  0  0  0  0  0  0  0  0
    4.5410    0.9350   -1.0530 C   0  0  0  0  0  0  0  0  0  0  0  0
    2.4630    2.2080   -0.6630 N   0  0  0  0  0  0  0  0  0  0  0  0
    1.1220    2.3260   -0.3560 C   0  0  0  0  0  0  0  0  0  0  0  0
    0.6650    3.4720   -0.3390 O   0  0  0  0  0  0  0  0  0  0  0  0
    0.4030    1.2030   -0.0970 C   0  0  0  0  0  0  0  0  0  0  0  0
    1.0770   -0.0240   -0.1590 C   0  0  0  0  0  0  0  0  0  0  0  0
    0.3690   -1.2700    0.1010 C   0  0  0  0  0  0  0  0  0  0  0  0
    1.0070   -2.3740    0.0350 O   0  0  0  0  0  0  0  0  0  0  0  0
   -1.0300   -1.2130    0.4230 C   0  0  0  0  0  0  0  0  0  0  0  0
   -1.6780   -0.0300    0.4840 C   0  0  0  0  0  0  0  0  0  0  0  0
   -3.0840   -0.1860    0.8380 C   0  0  0  0  0  0  0  0  0  0  0  0
   -3.8030   -1.1390   -0.0970 C   0  0  0  0  0  0  0  0  0  0  0  0
   -3.0030   -2.3910   -0.2920 C   0  0  0  0  0  0  0  0  0  0  0  0
   -1.8240   -2.4350    0.6570 C   0  0  0  0  0  0  0  0  0  0  0  0
   -1.0580    1.2510    0.2390 C   0  0  0  0  0  0  0  0  0  0  0  0
   -1.6550    2.4110    0.3110 C   0  0  0  0  0  0  0  0  0  0  0  0
   -2.9900    2.8780    0.5790 C   0  0  0  0  0  0  0  0  0  0  0  0
   -3.1700    3.8320    2.0670 Cl  0  0  0  0  0  0  0  0  0  0  0  0
  1  2  1  0
  2  3  2  0
  2  4  1  0
  4  5  2  0
  4 11  1  0
  5  6  1  0
  5  7  1  0
  7  8  1  0
  8  9  2  0
  8 10  1  0
 10 11  2  0
 10 20  1  0
 11 12  1  0
 12 13  2  0
 12 14  1  0
 14 15  2  0
 14 19  1  0
 15 16  1  0
 15 20  1  0
 16 17  1  0
 17 18  1  0
 18 19  1  0
 20 21  2  3
 21 22  1  0
 22 23  1  0
M  END
