
     RDKit          3D

 23 25  0  0  0  0  0  0  0  0999 V2000
   -7.4170    0.0580    0.9010 C   0  0  0  0  0  0  0  0  0  0  0  0
   -6.6190   -0.2840   -0.1910 O   0  0  0  0  0  0  0  0  0  0  0  0
   -5.2530   -0.2130   -0.2190 C   0  0  0  0  0  0  0  0  0  0  0  0
   -4.5660    0.2220    0.8880 C   0  0  0  0  0  0  0  0  0  0  0  0
   -3.1790    0.3030    0.8870 C   0  0  0  0  0  0  0  0  0  0  0  0
   -2.4910   -0.0600   -0.2460 C   0  0  0  0  0  0  0  0  0  0  0  0
   -1.0870    0.0170   -0.2650 N   0  0  0  0  0  0  0  0  0  0  0  0
   -0.3510    0.4740    0.8980 C   0  0  0  0  0  0  0  0  0  0  0  0
    1.1070    0.4710    0.6480 C   0  0  0  0  0  0  0  0  0  0  0  0
    1.6920    1.6150    0.1280 C   0  0  0  0  0  0  0  0  0  0  0  0
    3.0490    1.6550   -0.1210 C   0  0  0  0  0  0  0  0  0  0  0  0
    3.6950    2.8730   -0.6780 C   0  0  0  0  0  0  0  0  0  0  0  0
    3.7700    0.5020    0.1770 C   0  0  0  0  0  0  0  0  0  0  0  0
    3.2120   -0.6420    0.6920 C   0  0  0  0  0  0  0  0  0  0  0  0
    1.8440   -0.6430    0.9280 C   0  0  0  0  0  0  0  0  0  0  0  0
    4.2820   -1.6560    0.8820 C   0  0  0  0  0  0  0  0  0  0  0  0
    5.3810   -1.1140   -0.0030 C   0  0  2  0  0  0  0  0  0  0  0  0
    5.2280   -1.6630   -1.4060 C   0  0  0  0  0  0  0  0  0  0  0  0
    6.9940   -1.4290    0.6290 Cl  0  0  0  0  0  0  0  0  0  0  0  0
    5.1510    0.3070    0.0100 O   0  0  0  0  0  0  0  0  0  0  0  0
   -3.1560   -0.5010   -1.3770 C   0  0  0  0  0  0  0  0  0  0  0  0
   -4.5460   -0.5720   -1.3440 C   0  0  0  0  0  0  0  0  0  0  0  0
   -5.2160   -1.0130   -2.4720 O   0  0  0  0  0  0  0  0  0  0  0  0
  1  2  1  0
  2  3  1  0
  3  4  2  0
  3 22  1  0
  4  5  1  0
  5  6  2  0
  6  7  1  0
  6 21  1  0
  7  8  1  0
  8  9  1  0
  9 10  2  0
  9 15  1  0
 10 11  1  0
 11 12  1  0
 11 13  2  0
 13 14  1  0
 13 20  1  0
 14 15  2  0
 14 16  1  0
 16 17  1  0
 17 18  1  6
 17 19  1  0
 17 20  1  0
 21 22  2  0
 22 23  1  0
M  END
