
     RDKit          3D

 23 25  0  0  0  0  0  0  0  0999 V2000
   -2.2350   -2.7340    0.0990 C   0  0  0  0  0  0  0  0  0  0  0  0
   -1.9040   -1.5950   -0.8050 C   0  0  0  0  0  0  0  0  0  0  0  0
   -2.0840   -0.2770   -0.1960 C   0  0  0  0  0  0  0  0  0  0  0  0
   -1.0720    0.4130    0.1890 C   0  0  0  0  0  0  0  0  0  0  0  0
    0.3040    0.2720    0.1890 N   0  0  0  0  0  0  0  0  0  0  0  0
    1.2490   -0.6710   -0.1890 C   0  0  0  0  0  0  0  0  0  0  0  0
    0.8700   -1.7390   -0.6580 O   0  0  0  0  0  0  0  0  0  0  0  0
    2.7160   -0.4170   -0.0380 C   0  0  0  0  0  0  0  0  0  0  0  0
    3.2850    0.7150    0.4650 C   0  0  0  0  0  0  0  0  0  0  0  0
    4.6640    0.5440    0.4310 C   0  0  0  0  0  0  0  0  0  0  0  0
    4.8490   -0.7150   -0.1050 C   0  0  0  0  0  0  0  0  0  0  0  0
    6.1800   -1.2800   -0.3100 C   0  0  0  0  0  0  0  0  0  0  0  0
    7.4220   -0.5820    0.0260 C   0  0  0  0  0  0  0  0  0  0  0  0
    6.2560   -2.4350   -0.8040 O   0  0  0  0  0  0  0  0  0  0  0  0
    3.6830   -1.2280   -0.3590 O   0  0  0  0  0  0  0  0  0  0  0  0
   -1.5310    1.5740    1.1480 C   0  0  0  0  0  0  0  0  0  0  0  0
   -2.3460    2.4890    0.3460 C   0  0  0  0  0  0  0  0  0  0  0  0
   -3.6020    1.7640   -0.0270 C   0  0  0  0  0  0  0  0  0  0  0  0
   -4.8570    2.1400   -0.1460 C   0  0  0  0  0  0  0  0  0  0  0  0
   -5.6100    0.9540   -0.5610 C   0  0  0  0  0  0  0  0  0  0  0  0
   -4.6210   -0.1450   -0.6080 C   0  0  0  0  0  0  0  0  0  0  0  0
   -5.0290   -1.8330   -0.9800 Cl  0  0  0  0  0  0  0  0  0  0  0  0
   -3.4350    0.3410   -0.3150 C   0  0  0  0  0  0  0  0  0  0  0  0
  1  2  1  0
  2  3  1  0
  3  4  2  0
  3 23  1  0
  4  5  1  0
  4 16  1  0
  5  6  1  0
  6  7  2  0
  6  8  1  0
  8  9  2  0
  8 15  1  0
  9 10  1  0
 10 11  2  0
 11 12  1  0
 11 15  1  0
 12 13  1  0
 12 14  2  0
 16 17  1  0
 17 18  1  0
 18 19  2  0
 18 23  1  0
 19 20  1  0
 20 21  1  0
 21 22  1  0
 21 23  2  0
M  END
