
     RDKit          3D

 22 24  0  0  0  0  0  0  0  0999 V2000
   -5.0240    1.0410    1.7860 C   0  0  0  0  0  0  0  0  0  0  0  0
   -4.2710    0.7060    0.5480 C   0  0  0  0  0  0  0  0  0  0  0  0
   -2.9280    0.4330    0.6210 C   0  0  0  0  0  0  0  0  0  0  0  0
   -2.1840    0.1150   -0.5130 C   0  0  0  0  0  0  0  0  0  0  0  0
   -0.7990   -0.1630   -0.4130 N   0  0  0  0  0  0  0  0  0  0  0  0
   -0.1550   -0.1170    0.8750 C   0  0  0  0  0  0  0  0  0  0  0  0
    1.2920   -0.4370    0.7720 C   0  0  0  0  0  0  0  0  0  0  0  0
    1.7120   -1.7460    0.8890 C   0  0  0  0  0  0  0  0  0  0  0  0
    3.0690   -2.0730    0.7950 C   0  0  0  0  0  0  0  0  0  0  0  0
    3.6170   -3.7300    0.9420 Cl  0  0  0  0  0  0  0  0  0  0  0  0
    4.0080   -1.0840    0.5840 C   0  0  0  0  0  0  0  0  0  0  0  0
    3.6070    0.2250    0.4650 C   0  0  0  0  0  0  0  0  0  0  0  0
    2.2640    0.5180    0.5610 C   0  0  0  0  0  0  0  0  0  0  0  0
    4.5710    1.2120    0.2510 O   0  0  0  0  0  0  0  0  0  0  0  0
    5.9160    0.9890    0.6320 C   0  0  0  0  0  0  0  0  0  0  0  0
    6.3610   -0.4110    0.2690 C   0  0  0  0  0  0  0  0  0  0  0  0
    5.3640   -1.3670    0.4850 O   0  0  0  0  0  0  0  0  0  0  0  0
   -2.7820    0.0650   -1.7570 C   0  0  0  0  0  0  0  0  0  0  0  0
   -1.9910   -0.2760   -2.9740 C   0  0  0  0  0  0  0  0  0  0  0  0
   -4.1320    0.3400   -1.8230 C   0  0  0  0  0  0  0  0  0  0  0  0
   -4.8720    0.6570   -0.6910 C   0  0  0  0  0  0  0  0  0  0  0  0
   -6.2310    0.9350   -0.7550 O   0  0  0  0  0  0  0  0  0  0  0  0
  1  2  1  0
  2  3  2  0
  2 21  1  0
  3  4  1  0
  4  5  1  0
  4 18  2  0
  5  6  1  0
  6  7  1  0
  7  8  2  0
  7 13  1  0
  8  9  1  0
  9 10  1  0
  9 11  2  0
 11 12  1  0
 11 17  1  0
 12 13  2  0
 12 14  1  0
 14 15  1  0
 15 16  1  0
 16 17  1  0
 18 19  1  0
 18 20  1  0
 20 21  2  0
 21 22  1  0
M  END
