
     RDKit          3D

 23 25  0  0  0  0  0  0  0  0999 V2000
    2.9030   -3.5020   -1.1830 C   0  0  0  0  0  0  0  0  0  0  0  0
    2.1890   -2.2520   -0.7960 C   0  0  0  0  0  0  0  0  0  0  0  0
    2.2020   -1.1270   -1.4170 O   0  0  0  0  0  0  0  0  0  0  0  0
    1.4650   -0.1930   -0.8270 C   0  0  0  0  0  0  0  0  0  0  0  0
    1.2690    1.1350   -1.2460 N   0  0  0  0  0  0  0  0  0  0  0  0
    2.1310    2.1400   -1.0840 C   0  0  0  0  0  0  0  0  0  0  0  0
    1.6120    3.3050   -1.6260 C   0  0  0  0  0  0  0  0  0  0  0  0
    0.3780    2.9770   -2.1380 C   0  0  0  0  0  0  0  0  0  0  0  0
    0.2080    1.6280   -1.8810 C   0  0  0  0  0  0  0  0  0  0  0  0
    0.9230   -0.7900    0.2900 C   0  0  0  0  0  0  0  0  0  0  0  0
    0.0230   -0.2060    1.3140 C   0  0  1  0  0  0  0  0  0  0  0  0
    0.6560    0.8190    2.0210 O   0  0  0  0  0  0  0  0  0  0  0  0
   -1.3140    0.1380    0.8440 C   0  0  0  0  0  0  0  0  0  0  0  0
   -2.1990   -0.8090    0.3850 C   0  0  0  0  0  0  0  0  0  0  0  0
   -1.8000   -2.1330    0.3520 O   0  0  0  0  0  0  0  0  0  0  0  0
   -3.4760   -0.5060   -0.0490 C   0  0  0  0  0  0  0  0  0  0  0  0
   -3.8960    0.8030   -0.0270 C   0  0  0  0  0  0  0  0  0  0  0  0
   -3.0380    1.7620    0.4230 C   0  0  0  0  0  0  0  0  0  0  0  0
   -3.6240    3.4230    0.4320 Cl  0  0  0  0  0  0  0  0  0  0  0  0
   -1.7410    1.4520    0.8640 C   0  0  0  0  0  0  0  0  0  0  0  0
   -0.9070    2.5590    1.3330 C   0  0  0  0  0  0  0  0  0  0  0  0
    1.3730   -2.0920    0.3220 C   0  0  0  0  0  0  0  0  0  0  0  0
    1.1250   -3.1790    1.2830 C   0  0  0  0  0  0  0  0  0  0  0  0
  1  2  1  0
  2  3  1  0
  2 22  2  0
  3  4  1  0
  4  5  1  0
  4 10  2  0
  5  6  1  0
  5  9  1  0
  6  7  2  0
  7  8  1  0
  8  9  2  0
 10 11  1  0
 10 22  1  0
 11 12  1  6
 11 13  1  0
 13 14  2  0
 13 20  1  0
 14 15  1  0
 14 16  1  0
 16 17  2  0
 17 18  1  0
 18 19  1  0
 18 20  2  0
 20 21  1  0
 22 23  1  0
M  END
