
     RDKit          3D

 17 18  0  0  0  0  0  0  0  0999 V2000
   -3.4320   -0.4670   -1.5340 O   0  0  0  0  0  0  0  0  0  0  0  0
   -2.5120    0.3960   -0.9610 C   0  0  0  0  0  0  0  0  0  0  0  0
   -2.8540    1.7010   -0.6740 C   0  0  0  0  0  0  0  0  0  0  0  0
   -1.9000    2.5340   -0.0990 C   0  0  0  0  0  0  0  0  0  0  0  0
   -0.6400    2.0410    0.1710 C   0  0  0  0  0  0  0  0  0  0  0  0
   -0.2950    0.7320   -0.1160 C   0  0  0  0  0  0  0  0  0  0  0  0
    1.0550    0.2780    0.1960 C   0  0  0  0  0  0  0  0  0  0  0  0
    1.6400    0.5870    1.4110 C   0  0  0  0  0  0  0  0  0  0  0  0
    2.9180    0.1690    1.7310 C   0  0  0  0  0  0  0  0  0  0  0  0
    3.6540   -0.5830    0.8260 C   0  0  0  0  0  0  0  0  0  0  0  0
    3.0910   -0.9030   -0.3910 C   0  0  0  0  0  0  0  0  0  0  0  0
    1.7980   -0.4720   -0.6990 C   0  0  0  0  0  0  0  0  0  0  0  0
   -1.2390   -0.0990   -0.6870 C   0  0  0  0  0  0  0  0  0  0  0  0
   -0.8800   -1.3970   -0.9660 O   0  0  0  0  0  0  0  0  0  0  0  0
   -1.0430   -2.4510   -0.0380 C   0  0  1  0  0  0  0  0  0  0  0  0
   -1.8630   -3.4530   -0.5330 F   0  0  0  0  0  0  0  0  0  0  0  0
    0.1670   -3.0480    0.2760 F   0  0  0  0  0  0  0  0  0  0  0  0
  1  2  1  0
  2  3  2  0
  2 13  1  0
  3  4  1  0
  4  5  2  0
  5  6  1  0
  6  7  1  0
  6 13  2  0
  7  8  2  0
  7 12  1  0
  8  9  1  0
  9 10  2  0
 10 11  1  0
 11 12  2  0
 13 14  1  0
 14 15  1  0
 15 16  1  6
 15 17  1  0
M  END
