
     RDKit          3D

 23 25  0  0  0  0  0  0  0  0999 V2000
   -5.7550    1.7170    0.3460 C   0  0  0  0  0  0  0  0  0  0  0  0
   -4.5040    1.6190    1.0530 C   0  0  0  0  0  0  0  0  0  0  0  0
   -3.3980    1.0050    0.8470 C   0  0  0  0  0  0  0  0  0  0  0  0
   -2.3510    1.1620    1.8150 O   0  0  0  0  0  0  0  0  0  0  0  0
   -1.1340    0.5720    1.7230 C   0  0  0  0  0  0  0  0  0  0  0  0
   -0.7720   -0.2270    0.7110 C   0  0  0  0  0  0  0  0  0  0  0  0
    0.5480   -0.8060    0.7050 C   0  0  0  0  0  0  0  0  0  0  0  0
    0.9850   -1.5500   -0.1680 O   0  0  0  0  0  0  0  0  0  0  0  0
    1.4640   -0.5490    1.7430 O   0  0  0  0  0  0  0  0  0  0  0  0
    2.7460   -1.0400    1.8380 C   0  0  0  0  0  0  0  0  0  0  0  0
    3.6940   -0.6370    0.7800 C   0  0  0  0  0  0  0  0  0  0  0  0
    3.5170    0.1390   -0.2690 C   0  0  0  0  0  0  0  0  0  0  0  0
    4.7790    0.2270   -1.0240 C   0  0  1  0  0  0  0  0  0  0  0  0
    5.2460    1.5950   -1.1600 N   0  0  0  0  0  0  0  0  0  0  0  0
    5.7180   -0.6110   -0.2620 C   0  0  0  0  0  0  0  0  0  0  0  0
    5.0780   -1.1060    0.7800 C   0  0  0  0  0  0  0  0  0  0  0  0
    5.8100   -2.1820    1.9920 Cl  0  0  0  0  0  0  0  0  0  0  0  0
   -1.7690   -0.4440   -0.3180 C   0  0  0  0  0  0  0  0  0  0  0  0
   -1.4620   -1.2590   -1.3930 C   0  0  0  0  0  0  0  0  0  0  0  0
   -2.3940   -1.4820   -2.3860 C   0  0  0  0  0  0  0  0  0  0  0  0
   -3.6150   -0.9200   -2.3410 C   0  0  0  0  0  0  0  0  0  0  0  0
   -3.9220   -0.1050   -1.2650 C   0  0  0  0  0  0  0  0  0  0  0  0
   -3.0450    0.1540   -0.2540 C   0  0  0  0  0  0  0  0  0  0  0  0
  1  2  1  0
  2  3  2  3
  3  4  1  0
  3 23  1  0
  4  5  1  0
  5  6  2  0
  6  7  1  0
  6 18  1  0
  7  8  2  0
  7  9  1  0
  9 10  1  0
 10 11  1  0
 11 12  2  0
 11 16  1  0
 12 13  1  0
 13 14  1  1
 13 15  1  0
 15 16  2  0
 16 17  1  0
 18 19  2  0
 18 23  1  0
 19 20  1  0
 20 21  2  0
 21 22  1  0
 22 23  2  0
M  END
