
     RDKit          3D

  9  9  0  0  0  0  0  0  0  0999 V2000
    2.3140    0.2060    0.2270 N   0  0  0  0  0  0  0  0  0  0  0  0
    1.1930    0.8350   -0.3960 C   0  0  0  0  0  0  0  0  0  0  0  0
    0.0450   -0.1270   -0.5290 C   0  0  1  0  0  0  0  0  0  0  0  0
   -0.4350   -0.6620    0.7980 C   0  0  2  0  0  0  0  0  0  0  0  0
    0.2520   -1.7620    1.2330 O   0  0  0  0  0  0  0  0  0  0  0  0
   -1.8530   -1.0760    0.3790 C   0  0  0  0  0  0  0  0  0  0  0  0
   -2.2800   -0.0330   -0.3990 O   0  0  0  0  0  0  0  0  0  0  0  0
   -1.2120    0.5410   -1.0290 C   0  0  1  0  0  0  0  0  0  0  0  0
   -1.1600    1.9090   -0.6720 O   0  0  0  0  0  0  0  0  0  0  0  0
  1  2  1  0
  3  2  1  1
  3  4  1  0
  3  8  1  0
  4  5  1  6
  4  6  1  0
  6  7  1  0
  7  8  1  0
  8  9  1  1
M  CHG  1   1   1
M  END
