
     RDKit          3D

  9  9  0  0  0  0  0  0  0  0999 V2000
    1.3870   -1.4800    0.1740 N   0  0  0  0  0  0  0  0  0  0  0  0
    0.7550   -0.4520   -0.5990 C   0  0  2  0  0  0  0  0  0  0  0  0
    1.5120    0.8230   -0.4290 C   0  0  0  0  0  0  0  0  0  0  0  0
    1.5700    1.2610    0.8870 O   0  0  0  0  0  0  0  0  0  0  0  0
   -0.7050   -0.3520   -0.3450 C   0  0  1  0  0  0  0  0  0  0  0  0
   -1.1130   -0.0210    1.0330 C   0  0  0  0  0  0  0  0  0  0  0  0
   -2.0200    1.0490    0.8740 O   0  0  0  0  0  0  0  0  0  0  0  0
   -2.4870    0.8320   -0.4440 C   0  0  0  0  0  0  0  0  0  0  0  0
   -1.2740    0.6510   -1.1100 O   0  0  0  0  0  0  0  0  0  0  0  0
  2  1  1  1
  2  3  1  0
  2  5  1  0
  3  4  1  0
  5  6  1  1
  5  9  1  0
  6  7  1  0
  7  8  1  0
  8  9  1  0
M  CHG  1   1   1
M  END
