
     RDKit          3D

 26 28  0  0  0  0  0  0  0  0999 V2000
    5.1710   -2.2300    0.7020 C   0  0  0  0  0  0  0  0  0  0  0  0
    5.6850   -0.9040    0.2350 C   0  0  0  0  0  0  0  0  0  0  0  0
    7.0320   -0.6810    0.1610 C   0  0  0  0  0  0  0  0  0  0  0  0
    7.5180    0.5310   -0.2710 C   0  0  0  0  0  0  0  0  0  0  0  0
    9.2350    0.8430   -0.3790 Cl  0  0  0  0  0  0  0  0  0  0  0  0
    6.6750    1.5510   -0.6410 C   0  0  0  0  0  0  0  0  0  0  0  0
    7.2510    3.1030   -1.1960 Cl  0  0  0  0  0  0  0  0  0  0  0  0
    5.3030    1.3070   -0.5600 C   0  0  0  0  0  0  0  0  0  0  0  0
    4.7990    0.1130   -0.1340 C   0  0  0  0  0  0  0  0  0  0  0  0
    3.4400   -0.1750   -0.0240 N   0  0  0  0  0  0  0  0  0  0  0  0
    2.3770    0.6480   -0.4210 C   0  0  0  0  0  0  0  0  0  0  0  0
    1.0480    0.2330   -0.2190 C   0  0  0  0  0  0  0  0  0  0  0  0
   -0.0420    0.9700   -0.6040 C   0  0  0  0  0  0  0  0  0  0  0  0
   -1.4300    0.5600   -0.4240 C   0  0  0  0  0  0  0  0  0  0  0  0
   -1.8110   -0.5960    0.2140 C   0  0  0  0  0  0  0  0  0  0  0  0
   -3.1510   -0.9130    0.3270 C   0  0  0  0  0  0  0  0  0  0  0  0
   -4.1360   -0.1030   -0.1830 C   0  0  0  0  0  0  0  0  0  0  0  0
   -5.5810   -0.3860   -0.0940 C   0  0  1  0  0  0  0  0  0  0  0  0
   -6.0890   -0.4820    1.3110 C   0  0  0  0  0  0  0  0  0  0  0  0
   -6.3430    0.6330   -0.8920 C   0  0  0  0  0  0  0  0  0  0  0  0
   -5.8020   -1.7330   -0.7940 C   0  0  0  0  0  0  0  0  0  0  0  0
   -3.7320    1.0190   -0.8010 N   0  0  0  0  0  0  0  0  0  0  0  0
   -2.4390    1.3560   -0.9270 C   0  0  0  0  0  0  0  0  0  0  0  0
    0.2190    2.1700   -1.2140 N   0  0  0  0  0  0  0  0  0  0  0  0
    1.4850    2.5660   -1.4060 C   0  0  0  0  0  0  0  0  0  0  0  0
    2.5340    1.8260   -1.0200 N   0  0  0  0  0  0  0  0  0  0  0  0
  1  2  1  0
  2  3  2  0
  2  9  1  0
  3  4  1  0
  4  5  1  0
  4  6  2  0
  6  7  1  0
  6  8  1  0
  8  9  2  0
  9 10  1  0
 10 11  1  0
 11 12  2  0
 11 26  1  0
 12 13  1  0
 13 14  1  0
 13 24  2  0
 14 15  2  0
 14 23  1  0
 15 16  1  0
 16 17  2  0
 17 18  1  0
 17 22  1  0
 18 19  1  1
 18 20  1  0
 18 21  1  0
 22 23  2  0
 24 25  1  0
 25 26  2  0
M  END
