
     RDKit          3D

  9  9  0  0  0  0  0  0  0  0999 V2000
   -0.7190    2.0180   -0.1020 N   0  0  0  0  0  0  0  0  0  0  0  0
   -0.5330    0.7280   -0.6870 C   0  0  0  0  0  0  0  0  0  0  0  0
    0.2370   -0.2570    0.0790 C   0  0  2  0  0  0  0  0  0  0  0  0
    1.6770   -0.0080    0.3020 C   0  0  0  0  0  0  0  0  0  0  0  0
    2.4380    0.2470   -0.8000 O   0  0  0  0  0  0  0  0  0  0  0  0
    0.0760   -1.6220   -0.5710 C   0  0  0  0  0  0  0  0  0  0  0  0
   -1.2500   -1.9130   -0.1990 O   0  0  0  0  0  0  0  0  0  0  0  0
   -1.4540   -1.3370    1.0370 C   0  0  0  0  0  0  0  0  0  0  0  0
   -0.3870   -0.4980    1.3030 O   0  0  0  0  0  0  0  0  0  0  0  0
  1  2  1  0
  3  2  1  6
  3  4  1  0
  3  6  1  0
  3  9  1  0
  4  5  1  0
  6  7  1  0
  7  8  1  0
  8  9  1  0
M  CHG  1   1   1
M  END
