
     RDKit          3D

  9  9  0  0  0  0  0  0  0  0999 V2000
   -2.1190    0.7400    0.6640 N   0  0  0  0  0  0  0  0  0  0  0  0
   -0.8950   -0.0020    0.5240 C   0  0  1  0  0  0  0  0  0  0  0  0
   -1.0020   -1.2230   -0.3040 C   0  0  0  0  0  0  0  0  0  0  0  0
    0.0770   -1.6520   -0.9580 O   0  0  0  0  0  0  0  0  0  0  0  0
    1.3100   -1.2750   -0.6060 C   0  0  0  0  0  0  0  0  0  0  0  0
    1.4800    0.0060    0.1160 C   0  0  1  0  0  0  0  0  0  0  0  0
    2.5660    0.7360   -0.3420 O   0  0  0  0  0  0  0  0  0  0  0  0
    0.2440    0.8770    0.0040 C   0  0  1  0  0  0  0  0  0  0  0  0
    0.0250    1.2910   -1.2960 O   0  0  0  0  0  0  0  0  0  0  0  0
  2  1  1  6
  2  3  1  0
  2  8  1  0
  3  4  1  0
  4  5  1  0
  5  6  1  0
  6  7  1  6
  6  8  1  0
  8  9  1  6
M  CHG  1   1   1
M  END
