
     RDKit          3D

  9  9  0  0  0  0  0  0  0  0999 V2000
   -0.8880    1.5750    0.3750 N   0  0  0  0  0  0  0  0  0  0  0  0
   -0.4050    0.6040   -0.5280 C   0  0  2  0  0  0  0  0  0  0  0  0
   -1.6060   -0.2560   -0.9630 C   0  0  0  0  0  0  0  0  0  0  0  0
   -0.9830   -1.4240   -1.3720 O   0  0  0  0  0  0  0  0  0  0  0  0
   -0.1910   -1.7120   -0.2560 C   0  0  0  0  0  0  0  0  0  0  0  0
    0.5700   -0.3820   -0.1150 C   0  0  1  0  0  0  0  0  0  0  0  0
    1.6110   -0.4850   -1.0430 O   0  0  0  0  0  0  0  0  0  0  0  0
    1.1690   -0.3280    1.2330 C   0  0  0  0  0  0  0  0  0  0  0  0
    2.0250    0.7650    1.3880 O   0  0  0  0  0  0  0  0  0  0  0  0
  2  1  1  1
  2  3  1  0
  2  6  1  0
  3  4  1  0
  4  5  1  0
  5  6  1  0
  6  7  1  6
  6  8  1  0
  8  9  1  0
M  CHG  1   1   1
M  END
