
     RDKit          3D

  9  9  0  0  0  0  0  0  0  0999 V2000
   -2.3430    0.6880   -0.0620 N   0  0  0  0  0  0  0  0  0  0  0  0
   -1.7100   -0.4790    0.4320 C   0  0  0  0  0  0  0  0  0  0  0  0
   -0.4500   -0.8670   -0.2700 C   0  0  1  0  0  0  0  0  0  0  0  0
   -0.7320   -1.1050   -1.6280 O   0  0  0  0  0  0  0  0  0  0  0  0
    0.6380    0.1440   -0.2080 C   0  0  1  0  0  0  0  0  0  0  0  0
    1.1800    0.3960    1.1600 C   0  0  0  0  0  0  0  0  0  0  0  0
    2.5830    0.4020    0.9790 O   0  0  0  0  0  0  0  0  0  0  0  0
    2.7980    0.3860   -0.3840 C   0  0  0  0  0  0  0  0  0  0  0  0
    1.7530   -0.3880   -0.8720 O   0  0  0  0  0  0  0  0  0  0  0  0
  1  2  1  0
  2  3  1  0
  3  4  1  6
  3  5  1  0
  5  6  1  1
  5  9  1  0
  6  7  1  0
  7  8  1  0
  8  9  1  0
M  CHG  1   1   1
M  END
