
     RDKit          3D

 43 46  0  0  0  0  0  0  0  0999 V2000
   -8.9500    3.6480   -1.4760 C   0  0  0  0  0  0  0  0  0  0  0  0
   -8.0480    3.3350   -0.2770 C   0  0  0  0  0  0  0  0  0  0  0  0
   -7.6590    1.9780   -0.3110 O   0  0  0  0  0  0  0  0  0  0  0  0
   -6.8600    1.3880    0.6540 C   0  0  0  0  0  0  0  0  0  0  0  0
   -6.3930    2.1240    1.7260 C   0  0  0  0  0  0  0  0  0  0  0  0
   -5.5920    1.4950    2.6850 C   0  0  0  0  0  0  0  0  0  0  0  0
   -5.2640    0.1760    2.5840 C   0  0  0  0  0  0  0  0  0  0  0  0
   -4.4650   -0.5000    3.6340 C   0  0  0  0  0  0  0  0  0  0  0  0
   -3.8900   -1.7280    3.1890 N   0  0  0  0  0  0  0  0  0  0  0  0
   -2.6670   -1.8390    2.4870 C   0  0  0  0  0  0  0  0  0  0  0  0
   -2.0210   -0.7990    2.2360 O   0  0  0  0  0  0  0  0  0  0  0  0
   -2.1310   -3.1630    2.0430 C   0  0  0  0  0  0  0  0  0  0  0  0
   -0.7740   -3.0380    1.4770 C   0  0  0  0  0  0  0  0  0  0  0  0
   -0.3040   -2.6620    0.2430 C   0  0  0  0  0  0  0  0  0  0  0  0
    1.0370   -2.7180    0.2350 N   0  0  0  0  0  0  0  0  0  0  0  0
    2.0130   -2.4260   -0.7910 C   0  0  0  0  0  0  0  0  0  0  0  0
    2.3670   -0.9630   -0.6330 C   0  0  2  0  0  0  0  0  0  0  0  0
    1.2410   -0.2070   -0.8330 O   0  0  0  0  0  0  0  0  0  0  0  0
    3.5530   -0.6170   -1.3920 C   0  0  0  0  0  0  0  0  0  0  0  0
    4.5130   -1.2740   -2.0400 C   0  0  0  0  0  0  0  0  0  0  0  0
    5.5150   -0.6080   -2.6470 C   0  0  0  0  0  0  0  0  0  0  0  0
    5.5230    0.7360   -2.5830 C   0  0  0  0  0  0  0  0  0  0  0  0
    6.5960    1.9500   -3.2150 S   0  0  1  0  0  0  0  0  0  0  0  0
    7.6190    1.2280   -4.0420 O   0  0  0  0  0  0  0  0  0  0  0  0
    5.8010    2.7920   -4.2050 O   0  0  0  0  0  0  0  0  0  0  0  0
    7.2610    2.9870   -2.0550 N   0  0  0  0  0  0  0  0  0  0  0  0
    8.0890    2.5060   -1.0100 C   0  0  0  0  0  0  0  0  0  0  0  0
    7.7670    1.3690   -0.2840 C   0  0  0  0  0  0  0  0  0  0  0  0
    8.6300    0.9630    0.7410 C   0  0  0  0  0  0  0  0  0  0  0  0
    9.7810    1.6320    1.0670 C   0  0  0  0  0  0  0  0  0  0  0  0
   10.6820    1.1790    2.1670 C   0  0  0  0  0  0  0  0  0  0  0  0
   10.1040    2.7660    0.3450 C   0  0  0  0  0  0  0  0  0  0  0  0
    9.2490    3.1740   -0.6770 C   0  0  0  0  0  0  0  0  0  0  0  0
    4.0370    1.0990   -1.6150 S   0  0  0  0  0  0  0  0  0  0  0  0
    1.3750   -3.1290    1.4740 C   0  0  0  0  0  0  0  0  0  0  0  0
    2.5370   -3.3220    1.9180 O   0  0  0  0  0  0  0  0  0  0  0  0
    0.3070   -3.3180    2.2060 O   0  0  0  0  0  0  0  0  0  0  0  0
   -5.7500   -0.5260    1.4950 C   0  0  0  0  0  0  0  0  0  0  0  0
   -6.5360    0.0380    0.5300 C   0  0  0  0  0  0  0  0  0  0  0  0
   -7.0450   -0.6290   -0.5760 O   0  0  0  0  0  0  0  0  0  0  0  0
   -6.7940   -1.9920   -0.8340 C   0  0  0  0  0  0  0  0  0  0  0  0
   -7.5300   -2.3700   -2.0980 C   0  0  0  0  0  0  0  0  0  0  0  0
   -7.3150   -3.7300   -2.4160 O   0  0  0  0  0  0  0  0  0  0  0  0
  1  2  1  0
  2  3  1  0
  3  4  1  0
  4  5  2  0
  4 39  1  0
  5  6  1  0
  6  7  2  0
  7  8  1  0
  7 38  1  0
  8  9  1  0
  9 10  1  0
 10 11  2  0
 10 12  1  0
 12 13  1  0
 13 14  2  0
 13 37  1  0
 14 15  1  0
 15 16  1  0
 15 35  1  0
 16 17  1  0
 17 18  1  6
 17 19  1  0
 19 20  2  0
 19 34  1  0
 20 21  1  0
 21 22  2  0
 22 23  1  0
 22 34  1  0
 23 24  2  0
 23 25  2  0
 23 26  1  1
 26 27  1  0
 27 28  2  0
 27 33  1  0
 28 29  1  0
 29 30  2  0
 30 31  1  0
 30 32  1  0
 32 33  2  0
 35 36  2  0
 35 37  1  0
 38 39  2  0
 39 40  1  0
 40 41  1  0
 41 42  1  0
 42 43  1  0
M  END
