
     RDKit          3D

 43 46  0  0  0  0  0  0  0  0999 V2000
   -1.7860   -2.8370   -1.3010 C   0  0  0  0  0  0  0  0  0  0  0  0
   -1.7730   -1.2570   -0.4680 S   0  0  0  0  0  0  0  0  0  0  0  0
   -3.2610   -0.9450    0.5260 C   0  0  1  0  0  0  0  0  0  0  0  0
   -3.4020   -1.8250    1.6160 N   0  0  0  0  0  0  0  0  0  0  0  0
   -4.8380   -2.7030    1.7910 S   0  0  1  0  0  0  0  0  0  0  0  0
   -4.6470   -3.5640    3.0510 O   0  0  0  0  0  0  0  0  0  0  0  0
   -6.0060   -1.8020    2.1770 O   0  0  0  0  0  0  0  0  0  0  0  0
   -5.2590   -3.8090    0.5180 C   0  0  0  0  0  0  0  0  0  0  0  0
   -5.5030   -3.2690   -0.8350 C   0  0  0  0  0  0  0  0  0  0  0  0
   -6.6560   -2.2950   -0.9130 C   0  0  0  0  0  0  0  0  0  0  0  0
   -6.7480   -1.8580   -2.2920 N   0  0  0  0  0  0  0  0  0  0  0  0
   -3.2140    0.5050    0.9910 C   0  0  0  0  0  0  0  0  0  0  0  0
   -4.3370    1.3050    0.9250 C   0  0  0  0  0  0  0  0  0  0  0  0
   -4.3020    2.6160    1.3470 C   0  0  0  0  0  0  0  0  0  0  0  0
   -3.1310    3.1710    1.8530 C   0  0  0  0  0  0  0  0  0  0  0  0
   -1.9860    2.3660    1.9250 C   0  0  0  0  0  0  0  0  0  0  0  0
   -2.0680    1.0700    1.4940 C   0  0  0  0  0  0  0  0  0  0  0  0
   -0.9360    0.2690    1.5640 O   0  0  0  0  0  0  0  0  0  0  0  0
    0.3180    0.7000    2.0390 C   0  0  0  0  0  0  0  0  0  0  0  0
    0.8610    1.8110    1.1740 C   0  0  0  0  0  0  0  0  0  0  0  0
    0.2720    2.1980    0.1280 O   0  0  0  0  0  0  0  0  0  0  0  0
    2.0450    2.4570    1.5030 O   0  0  0  0  0  0  0  0  0  0  0  0
    2.5150    3.4710    0.6910 C   0  0  0  0  0  0  0  0  0  0  0  0
    3.4680    3.1770   -0.2620 C   0  0  0  0  0  0  0  0  0  0  0  0
    3.9130    1.8450   -0.3630 N   0  0  0  0  0  0  0  0  0  0  0  0
    4.9130    1.3360   -1.2220 C   0  0  0  0  0  0  0  0  0  0  0  0
    5.5040    2.1180   -1.9990 O   0  0  0  0  0  0  0  0  0  0  0  0
    5.3090   -0.0880   -1.2580 C   0  0  0  0  0  0  0  0  0  0  0  0
    4.5560   -1.0740   -0.6710 C   0  0  0  0  0  0  0  0  0  0  0  0
    4.9690   -2.4080   -0.7240 C   0  0  0  0  0  0  0  0  0  0  0  0
    6.1530   -2.7140   -1.3810 C   0  0  0  0  0  0  0  0  0  0  0  0
    6.6360   -4.0750   -1.4710 C   0  0  0  0  0  0  0  0  0  0  0  0
    5.8730   -5.1780   -0.8640 C   0  0  0  0  0  0  0  0  0  0  0  0
    7.7060   -4.3250   -2.0650 O   0  0  0  0  0  0  0  0  0  0  0  0
    6.8970   -1.7120   -1.9660 C   0  0  0  0  0  0  0  0  0  0  0  0
    6.4680   -0.4220   -1.8970 C   0  0  0  0  0  0  0  0  0  0  0  0
    3.8900    4.2270   -1.0340 C   0  0  0  0  0  0  0  0  0  0  0  0
    3.3660    5.5220   -0.8470 C   0  0  0  0  0  0  0  0  0  0  0  0
    2.4180    5.7840    0.1090 C   0  0  0  0  0  0  0  0  0  0  0  0
    1.9860    4.7380    0.8920 C   0  0  0  0  0  0  0  0  0  0  0  0
    1.0440    5.2710    1.7620 O   0  0  0  0  0  0  0  0  0  0  0  0
    0.5420    6.5030    1.2190 C   0  0  0  0  0  0  0  0  0  0  0  0
    1.7210    6.9340    0.5250 O   0  0  0  0  0  0  0  0  0  0  0  0
  1  2  1  0
  2  3  1  0
  3  4  1  1
  3 12  1  0
  4  5  1  0
  5  6  2  0
  5  7  2  0
  5  8  1  6
  8  9  1  0
  9 10  1  0
 10 11  1  0
 12 13  2  0
 12 17  1  0
 13 14  1  0
 14 15  2  0
 15 16  1  0
 16 17  2  0
 17 18  1  0
 18 19  1  0
 19 20  1  0
 20 21  2  0
 20 22  1  0
 22 23  1  0
 23 24  1  0
 23 40  2  0
 24 25  1  0
 24 37  2  0
 25 26  1  0
 26 27  2  0
 26 28  1  0
 28 29  2  0
 28 36  1  0
 29 30  1  0
 30 31  2  0
 31 32  1  0
 31 35  1  0
 32 33  1  0
 32 34  2  0
 35 36  2  0
 37 38  1  0
 38 39  2  0
 39 40  1  0
 39 43  1  0
 40 41  1  0
 41 42  1  0
 42 43  1  0
M  END
