
     RDKit          3D

 43 46  0  0  0  0  0  0  0  0999 V2000
  -12.2070    0.0240   -1.4230 C   0  0  0  0  0  0  0  0  0  0  0  0
  -10.9010    0.3840   -1.7530 O   0  0  0  0  0  0  0  0  0  0  0  0
   -9.8230    0.0860   -0.9030 C   0  0  0  0  0  0  0  0  0  0  0  0
  -10.0000   -0.5680    0.2830 C   0  0  0  0  0  0  0  0  0  0  0  0
   -8.9040   -0.8380    1.0860 C   0  0  0  0  0  0  0  0  0  0  0  0
   -7.6380   -0.4700    0.7310 C   0  0  0  0  0  0  0  0  0  0  0  0
   -6.5700   -0.7410    1.5260 O   0  0  0  0  0  0  0  0  0  0  0  0
   -6.0440    0.0730    2.5020 C   0  0  0  0  0  0  0  0  0  0  0  0
   -6.5690    1.1760    2.7090 O   0  0  0  0  0  0  0  0  0  0  0  0
   -4.8780   -0.4080    3.2530 C   0  0  0  0  0  0  0  0  0  0  0  0
   -4.4250    0.4920    4.2130 O   0  0  0  0  0  0  0  0  0  0  0  0
   -7.4360    0.2030   -0.4840 C   0  0  0  0  0  0  0  0  0  0  0  0
   -6.1050    0.5710   -0.8010 N   0  0  0  0  0  0  0  0  0  0  0  0
   -5.7170    1.1970   -1.9720 C   0  0  0  0  0  0  0  0  0  0  0  0
   -6.6160    1.5130   -2.8650 O   0  0  0  0  0  0  0  0  0  0  0  0
   -4.3850    1.5570   -2.3550 C   0  0  0  0  0  0  0  0  0  0  0  0
   -3.1760    1.4780   -2.0260 C   0  0  0  0  0  0  0  0  0  0  0  0
   -2.3840    0.8880   -0.9400 C   0  0  0  0  0  0  0  0  0  0  0  0
   -2.7650   -0.1300   -0.1120 C   0  0  0  0  0  0  0  0  0  0  0  0
   -1.3840   -0.3000    1.0700 S   0  0  0  0  0  0  0  0  0  0  0  0
   -0.4480    1.0910    0.2340 C   0  0  0  0  0  0  0  0  0  0  0  0
    0.9140    1.4170    0.8640 C   0  0  0  0  0  0  0  0  0  0  0  0
    1.4500    2.5320    0.0210 C   0  0  1  0  0  0  0  0  0  0  0  0
    2.8110    3.0070    0.4850 C   0  0  0  0  0  0  0  0  0  0  0  0
    3.6950    1.9660   -0.0950 C   0  0  0  0  0  0  0  0  0  0  0  0
    4.9830    1.5230    0.2040 C   0  0  0  0  0  0  0  0  0  0  0  0
    5.6120    0.5350   -0.4690 C   0  0  0  0  0  0  0  0  0  0  0  0
    6.9130    0.0610   -0.1740 N   0  0  0  0  0  0  0  0  0  0  0  0
    7.7270    0.3540    0.9140 C   0  0  0  0  0  0  0  0  0  0  0  0
    7.2520    1.1710    1.7700 O   0  0  0  0  0  0  0  0  0  0  0  0
    9.0700   -0.1340    1.2330 C   0  0  0  0  0  0  0  0  0  0  0  0
    9.4720   -1.2050    0.4950 O   0  0  0  0  0  0  0  0  0  0  0  0
    8.7110   -2.3150    0.7710 C   0  0  1  0  0  0  0  0  0  0  0  0
    8.3470   -3.0580   -0.4590 C   0  0  0  0  0  0  0  0  0  0  0  0
    9.7200   -3.2410    1.5530 C   0  0  0  0  0  0  0  0  0  0  0  0
   11.0690   -3.5310    0.4010 S   0  0  0  0  0  0  0  0  0  0  0  0
   11.2900   -2.2180   -0.3560 O   0  0  0  0  0  0  0  0  0  0  0  0
    4.9100   -0.0720   -1.5330 C   0  0  0  0  0  0  0  0  0  0  0  0
    3.6420    0.3430   -1.8500 C   0  0  0  0  0  0  0  0  0  0  0  0
    3.0280    1.3610   -1.1350 C   0  0  0  0  0  0  0  0  0  0  0  0
    1.7780    1.9530   -1.2530 O   0  0  0  0  0  0  0  0  0  0  0  0
   -1.1640    1.3770   -0.5930 N   0  0  0  0  0  0  0  0  0  0  0  0
   -8.5240    0.4640   -1.2680 C   0  0  0  0  0  0  0  0  0  0  0  0
  1  2  1  0
  2  3  1  0
  3  4  2  0
  3 43  1  0
  4  5  1  0
  5  6  2  0
  6  7  1  0
  6 12  1  0
  7  8  1  0
  8  9  2  0
  8 10  1  0
 10 11  1  0
 12 13  1  0
 12 43  2  0
 13 14  1  0
 14 15  2  0
 14 16  1  0
 16 17  2  3
 17 18  1  0
 18 19  2  0
 18 42  1  0
 19 20  1  0
 20 21  1  0
 21 22  1  0
 21 42  2  0
 23 22  1  1
 23 24  1  0
 23 41  1  0
 24 25  1  0
 25 26  2  0
 25 40  1  0
 26 27  1  0
 27 28  1  0
 27 38  2  0
 28 29  1  0
 29 30  2  0
 29 31  1  0
 31 32  1  0
 32 33  1  0
 33 34  1  6
 33 35  1  0
 35 36  1  0
 36 37  2  0
 38 39  1  0
 39 40  2  0
 40 41  1  0
M  END
