
     RDKit          3D

 43 46  0  0  0  0  0  0  0  0999 V2000
    8.2710   -3.2760    1.9560 C   0  0  0  0  0  0  0  0  0  0  0  0
    6.8030   -3.6420    2.0860 C   0  0  0  0  0  0  0  0  0  0  0  0
    6.2290   -3.0320    3.1940 O   0  0  0  0  0  0  0  0  0  0  0  0
    6.3260   -1.6630    3.0660 C   0  0  0  0  0  0  0  0  0  0  0  0
    5.6170   -1.1400    1.8460 C   0  0  0  0  0  0  0  0  0  0  0  0
    4.3510   -0.6300    1.8130 C   0  0  0  0  0  0  0  0  0  0  0  0
    4.1270   -0.2760    0.4790 C   0  0  0  0  0  0  0  0  0  0  0  0
    5.2520   -0.5840   -0.2320 C   0  0  0  0  0  0  0  0  0  0  0  0
    5.4880   -0.3990   -1.6420 C   0  0  0  0  0  0  0  0  0  0  0  0
    4.7010    0.1040   -2.4650 N   0  0  0  0  0  0  0  0  0  0  0  0
    3.4250    0.6170   -2.3090 C   0  0  0  0  0  0  0  0  0  0  0  0
    2.2740   -0.1470   -2.4750 C   0  0  0  0  0  0  0  0  0  0  0  0
    0.9980    0.3960   -2.3390 C   0  0  0  0  0  0  0  0  0  0  0  0
    0.8180    1.7080   -2.0350 C   0  0  0  0  0  0  0  0  0  0  0  0
   -0.4150    2.3600   -1.8830 N   0  0  0  0  0  0  0  0  0  0  0  0
   -1.7010    1.7770   -2.0020 C   0  0  0  0  0  0  0  0  0  0  0  0
   -1.8120    0.5720   -2.2610 O   0  0  0  0  0  0  0  0  0  0  0  0
   -2.8670    2.5190   -1.8370 O   0  0  0  0  0  0  0  0  0  0  0  0
   -4.1480    2.0320   -1.9370 C   0  0  0  0  0  0  0  0  0  0  0  0
   -4.7710    1.9410   -3.1710 C   0  0  0  0  0  0  0  0  0  0  0  0
   -6.0610    1.4580   -3.3140 C   0  0  0  0  0  0  0  0  0  0  0  0
   -6.7360    1.0550   -2.1610 C   0  0  0  0  0  0  0  0  0  0  0  0
   -6.1150    1.1460   -0.9350 C   0  0  0  0  0  0  0  0  0  0  0  0
   -4.8120    1.6340   -0.7900 C   0  0  0  0  0  0  0  0  0  0  0  0
   -4.1710    1.7320    0.4360 O   0  0  0  0  0  0  0  0  0  0  0  0
   -4.8090    1.3290    1.6240 C   0  0  0  0  0  0  0  0  0  0  0  0
   -5.1520   -0.1130    1.6500 C   0  0  0  0  0  0  0  0  0  0  0  0
   -5.8570   -0.5420    2.6300 O   0  0  0  0  0  0  0  0  0  0  0  0
   -4.7580   -1.0610    0.6710 N   0  0  0  0  0  0  0  0  0  0  0  0
   -5.1820   -2.4310    0.8380 C   0  0  1  0  0  0  0  0  0  0  0  0
   -4.7030   -3.3320   -0.2530 C   0  0  0  0  0  0  0  0  0  0  0  0
   -4.6440   -3.1360    2.4290 S   0  0  0  0  0  0  0  0  0  0  0  0
   -6.2730   -3.8110    2.9530 C   0  0  0  0  0  0  0  0  0  0  0  0
   -7.0080   -3.6430    1.7620 O   0  0  0  0  0  0  0  0  0  0  0  0
   -6.6670   -2.5410    1.0380 C   0  0  0  0  0  0  0  0  0  0  0  0
   -7.5120   -1.6960    0.5800 O   0  0  0  0  0  0  0  0  0  0  0  0
    1.9670    2.4800   -1.8670 C   0  0  0  0  0  0  0  0  0  0  0  0
    1.8270    4.2100   -1.4650 S   0  0  0  0  0  0  0  0  0  0  0  0
    1.8020    4.4050    0.3450 C   0  0  0  0  0  0  0  0  0  0  0  0
    3.1600    3.9880    0.8790 C   0  0  0  0  0  0  0  0  0  0  0  0
    4.1750    4.7670    0.3510 O   0  0  0  0  0  0  0  0  0  0  0  0
    3.2280    1.9600   -1.9980 C   0  0  0  0  0  0  0  0  0  0  0  0
    6.1100   -1.1010    0.6520 O   0  0  0  0  0  0  0  0  0  0  0  0
  1  2  1  0
  2  3  1  0
  3  4  1  0
  4  5  1  0
  5  6  2  0
  5 43  1  0
  6  7  1  0
  7  8  2  0
  8  9  1  0
  8 43  1  0
  9 10  2  3
 10 11  1  0
 11 12  2  0
 11 42  1  0
 12 13  1  0
 13 14  2  0
 14 15  1  0
 14 37  1  0
 15 16  1  0
 16 17  2  0
 16 18  1  0
 18 19  1  0
 19 20  2  0
 19 24  1  0
 20 21  1  0
 21 22  2  0
 22 23  1  0
 23 24  2  0
 24 25  1  0
 25 26  1  0
 26 27  1  0
 27 28  2  0
 27 29  1  0
 29 30  1  0
 30 31  1  6
 30 32  1  0
 30 35  1  0
 32 33  1  0
 33 34  1  0
 34 35  1  0
 35 36  2  0
 37 38  1  0
 37 42  2  0
 38 39  1  0
 39 40  1  0
 40 41  1  0
M  END
