
     RDKit          3D

 43 46  0  0  0  0  0  0  0  0999 V2000
   -5.6520   -3.9480   -0.1070 C   0  0  0  0  0  0  0  0  0  0  0  0
   -5.3290   -4.0410   -1.5390 C   0  0  0  0  0  0  0  0  0  0  0  0
   -4.7090   -2.7400   -2.0560 C   0  0  2  0  0  0  0  0  0  0  0  0
   -4.1940   -2.9950   -3.2690 O   0  0  0  0  0  0  0  0  0  0  0  0
   -3.9460   -2.1510   -0.9340 C   0  0  0  0  0  0  0  0  0  0  0  0
   -3.2190   -0.9380   -1.2950 O   0  0  0  0  0  0  0  0  0  0  0  0
   -2.6570   -0.2740   -0.2510 C   0  0  0  0  0  0  0  0  0  0  0  0
   -1.5220   -0.2380    0.4180 C   0  0  0  0  0  0  0  0  0  0  0  0
   -0.4500   -1.2910    0.2120 C   0  0  0  0  0  0  0  0  0  0  0  0
    0.7510   -0.9520   -0.0250 O   0  0  0  0  0  0  0  0  0  0  0  0
    1.9740   -0.5120   -0.1400 C   0  0  0  0  0  0  0  0  0  0  0  0
    2.1950    0.4940    0.9140 C   0  0  0  0  0  0  0  0  0  0  0  0
    3.2850    1.1120    1.1310 C   0  0  0  0  0  0  0  0  0  0  0  0
    4.4860    0.8510    0.2940 C   0  0  0  0  0  0  0  0  0  0  0  0
    5.4700    1.5870    0.6780 O   0  0  0  0  0  0  0  0  0  0  0  0
    5.8860    2.5370    1.4630 C   0  0  0  0  0  0  0  0  0  0  0  0
    4.3310   -0.0810   -0.6710 C   0  0  0  0  0  0  0  0  0  0  0  0
    5.3810   -0.5140   -1.3760 N   0  0  0  0  0  0  0  0  0  0  0  0
    6.2330   -1.3410   -2.2530 C   0  0  0  0  0  0  0  0  0  0  0  0
    5.5150   -2.1620   -2.6170 O   0  0  0  0  0  0  0  0  0  0  0  0
    7.5790   -0.7720   -2.3370 C   0  0  0  0  0  0  0  0  0  0  0  0
    8.0670    0.0150   -1.2600 N   0  0  0  0  0  0  0  0  0  0  0  0
    8.2690    1.2720   -0.7890 C   0  0  0  0  0  0  0  0  0  0  0  0
    7.8360    2.3780   -1.3450 O   0  0  0  0  0  0  0  0  0  0  0  0
    9.0690    1.2460    0.4310 C   0  0  0  0  0  0  0  0  0  0  0  0
    8.5500   -0.0530    1.0690 C   0  0  0  0  0  0  0  0  0  0  0  0
    8.4590   -0.9770   -0.0590 C   0  0  0  0  0  0  0  0  0  0  0  0
    8.5740   -2.0970   -0.4090 O   0  0  0  0  0  0  0  0  0  0  0  0
    3.0700   -0.7250   -0.8670 C   0  0  0  0  0  0  0  0  0  0  0  0
   -1.4050    0.6210    1.5130 C   0  0  0  0  0  0  0  0  0  0  0  0
   -2.3500    1.4450    1.9990 C   0  0  0  0  0  0  0  0  0  0  0  0
   -3.6650    1.4410    1.3080 C   0  0  0  0  0  0  0  0  0  0  0  0
   -3.6330    0.6250    0.2910 C   0  0  0  0  0  0  0  0  0  0  0  0
   -4.9330    1.0160   -1.0090 S   0  0  0  0  0  0  0  0  0  0  0  0
   -6.4260    1.1560   -0.1160 C   0  0  0  0  0  0  0  0  0  0  0  0
   -7.3220    0.1820    0.2230 C   0  0  0  0  0  0  0  0  0  0  0  0
   -8.2880    0.6680    0.9660 N   0  0  0  0  0  0  0  0  0  0  0  0
   -8.0980    2.0210    1.1660 C   0  0  0  0  0  0  0  0  0  0  0  0
   -9.0650    3.1190    2.1410 S   0  0  0  0  0  0  0  0  0  0  0  0
   -6.9380    2.3750    0.4840 C   0  0  0  0  0  0  0  0  0  0  0  0
   -6.3970    3.6860    0.2570 C   0  0  0  0  0  0  0  0  0  0  0  0
   -5.4210    4.2460    0.7950 O   0  0  0  0  0  0  0  0  0  0  0  0
   -7.0440    4.5390   -0.7180 O   0  0  0  0  0  0  0  0  0  0  0  0
  1  2  1  0
  2  3  1  0
  3  4  1  6
  3  5  1  0
  5  6  1  0
  6  7  1  0
  7  8  2  0
  7 33  1  0
  8  9  1  0
  8 30  1  0
  9 10  1  0
 10 11  1  0
 11 12  2  0
 11 29  1  0
 12 13  1  0
 13 14  2  0
 14 15  1  0
 14 17  1  0
 15 16  1  0
 17 18  1  0
 17 29  2  0
 18 19  1  0
 19 20  2  0
 19 21  1  0
 21 22  1  0
 22 23  1  0
 22 27  1  0
 23 24  2  0
 23 25  1  0
 25 26  1  0
 26 27  1  0
 27 28  2  0
 30 31  2  0
 31 32  1  0
 32 33  2  0
 33 34  1  0
 34 35  1  0
 35 36  2  0
 35 40  1  0
 36 37  1  0
 37 38  1  0
 38 39  1  0
 38 40  2  0
 40 41  1  0
 41 42  2  0
 41 43  1  0
M  END
