
     RDKit          3D

 43 46  0  0  0  0  0  0  0  0999 V2000
   -5.0660   -0.4990   -2.7600 C   0  0  0  0  0  0  0  0  0  0  0  0
   -5.6310   -0.7350   -1.4930 O   0  0  0  0  0  0  0  0  0  0  0  0
   -4.8480   -0.7490   -0.3550 C   0  0  0  0  0  0  0  0  0  0  0  0
   -3.4810   -0.5270   -0.4630 C   0  0  0  0  0  0  0  0  0  0  0  0
   -2.6710   -0.5290    0.6360 C   0  0  0  0  0  0  0  0  0  0  0  0
   -1.3000   -0.2900    0.5640 N   0  0  0  0  0  0  0  0  0  0  0  0
   -0.6880    0.2900   -0.5700 C   0  0  0  0  0  0  0  0  0  0  0  0
   -1.2390    0.6590   -1.6080 O   0  0  0  0  0  0  0  0  0  0  0  0
    0.8130    0.4770   -0.4950 C   0  0  1  0  0  0  0  0  0  0  0  0
    1.0600    1.9560   -0.6140 C   0  0  0  0  0  0  0  0  0  0  0  0
    0.2540    2.8850    0.7180 S   0  0  0  0  0  0  0  0  0  0  0  0
    0.6140    4.6170    0.4730 C   0  0  0  0  0  0  0  0  0  0  0  0
    1.3870    5.0610   -0.5870 C   0  0  0  0  0  0  0  0  0  0  0  0
    1.6580    6.3990   -0.7670 C   0  0  0  0  0  0  0  0  0  0  0  0
    1.1730    7.3740    0.1020 C   0  0  0  0  0  0  0  0  0  0  0  0
    0.4040    6.9410    1.1560 C   0  0  0  0  0  0  0  0  0  0  0  0
    0.1310    5.5780    1.3350 C   0  0  0  0  0  0  0  0  0  0  0  0
    0.0360    8.0680    1.8760 O   0  0  0  0  0  0  0  0  0  0  0  0
    0.2810    9.2090    1.0400 C   0  0  0  0  0  0  0  0  0  0  0  0
    1.2970    8.7580    0.1440 O   0  0  0  0  0  0  0  0  0  0  0  0
    1.3300    0.0230    0.7290 O   0  0  0  0  0  0  0  0  0  0  0  0
    2.3230   -0.9480    0.7670 C   0  0  0  0  0  0  0  0  0  0  0  0
    2.7230   -1.3850   -0.3410 O   0  0  0  0  0  0  0  0  0  0  0  0
    2.8920   -1.4520    2.0400 C   0  0  0  0  0  0  0  0  0  0  0  0
    3.8900   -2.4450    1.7240 N   0  0  0  0  0  0  0  0  0  0  0  0
    5.0080   -2.0690    0.9360 C   0  0  0  0  0  0  0  0  0  0  0  0
    5.1870   -0.9110    0.4880 O   0  0  0  0  0  0  0  0  0  0  0  0
    6.0280   -3.0290    0.5970 N   0  0  0  0  0  0  0  0  0  0  0  0
    7.1820   -2.6970   -0.2000 C   0  0  1  0  0  0  0  0  0  0  0  0
    8.4030   -2.9090    0.6820 C   0  0  0  0  0  0  0  0  0  0  0  0
    9.5670   -2.6040   -0.0290 O   0  0  0  0  0  0  0  0  0  0  0  0
    7.2190   -3.5690   -1.4150 C   0  0  0  0  0  0  0  0  0  0  0  0
    8.6600   -3.1820   -2.4480 S   0  0  0  0  0  0  0  0  0  0  0  0
   -3.2440   -0.7620    1.8820 C   0  0  0  0  0  0  0  0  0  0  0  0
   -4.5930   -0.9840    2.0100 C   0  0  0  0  0  0  0  0  0  0  0  0
   -5.3880   -0.9750    0.8750 C   0  0  0  0  0  0  0  0  0  0  0  0
   -6.7490   -1.1980    1.0090 O   0  0  0  0  0  0  0  0  0  0  0  0
   -7.3110   -2.3030    0.3860 C   0  0  0  0  0  0  0  0  0  0  0  0
   -6.5510   -3.2390   -0.2560 C   0  0  0  0  0  0  0  0  0  0  0  0
   -7.1830   -4.3300   -0.8660 C   0  0  0  0  0  0  0  0  0  0  0  0
   -8.5470   -4.4580   -0.8200 C   0  0  0  0  0  0  0  0  0  0  0  0
   -9.2920   -3.5060   -0.1700 C   0  0  0  0  0  0  0  0  0  0  0  0
   -8.6910   -2.4260    0.4360 C   0  0  0  0  0  0  0  0  0  0  0  0
  1  2  1  0
  2  3  1  0
  3  4  2  0
  3 36  1  0
  4  5  1  0
  5  6  1  0
  5 34  2  0
  6  7  1  0
  7  8  2  0
  7  9  1  0
  9 10  1  1
  9 21  1  0
 10 11  1  0
 11 12  1  0
 12 13  2  0
 12 17  1  0
 13 14  1  0
 14 15  2  0
 15 16  1  0
 15 20  1  0
 16 17  2  0
 16 18  1  0
 18 19  1  0
 19 20  1  0
 21 22  1  0
 22 23  2  0
 22 24  1  0
 24 25  1  0
 25 26  1  0
 26 27  2  0
 26 28  1  0
 28 29  1  0
 29 30  1  1
 29 32  1  0
 30 31  1  0
 32 33  1  0
 34 35  1  0
 35 36  2  0
 36 37  1  0
 37 38  1  0
 38 39  2  0
 38 43  1  0
 39 40  1  0
 40 41  2  0
 41 42  1  0
 42 43  2  0
M  END
