
     RDKit          3D

 43 46  0  0  0  0  0  0  0  0999 V2000
    9.3920   -1.2990   -1.8060 C   0  0  0  0  0  0  0  0  0  0  0  0
    8.9370   -1.4720   -3.1640 N   0  0  0  0  0  0  0  0  0  0  0  0
    7.5680   -1.6950   -3.4080 C   0  0  0  0  0  0  0  0  0  0  0  0
    7.0500   -1.9070   -4.9310 S   0  0  0  0  0  0  0  0  0  0  0  0
    6.5680   -1.7630   -2.3560 C   0  0  0  0  0  0  0  0  0  0  0  0
    6.5240   -2.9080   -1.5460 C   0  0  0  0  0  0  0  0  0  0  0  0
    5.6030   -3.0160   -0.5510 C   0  0  0  0  0  0  0  0  0  0  0  0
    4.6730   -2.0660   -0.2560 C   0  0  0  0  0  0  0  0  0  0  0  0
    3.7580   -2.2360    0.7820 O   0  0  0  0  0  0  0  0  0  0  0  0
    3.8130   -3.3870    1.6150 C   0  0  0  0  0  0  0  0  0  0  0  0
    5.1140   -3.3980    2.3730 C   0  0  0  0  0  0  0  0  0  0  0  0
    5.9360   -2.5500    2.3940 O   0  0  0  0  0  0  0  0  0  0  0  0
    4.6820   -0.8840   -1.0560 C   0  0  0  0  0  0  0  0  0  0  0  0
    3.8250    0.0290   -0.7970 O   0  0  0  0  0  0  0  0  0  0  0  0
    2.9590    0.9880   -0.5590 C   0  0  0  0  0  0  0  0  0  0  0  0
    2.0680    0.5160    0.6050 C   0  0  0  0  0  0  0  0  0  0  0  0
    1.1480    1.4210    0.9800 O   0  0  0  0  0  0  0  0  0  0  0  0
    0.1300    2.0380    0.3040 C   0  0  0  0  0  0  0  0  0  0  0  0
   -0.0520    1.7880   -0.9300 O   0  0  0  0  0  0  0  0  0  0  0  0
   -0.7350    2.9450    0.9440 N   0  0  0  0  0  0  0  0  0  0  0  0
   -1.8370    3.6680    0.4330 C   0  0  0  0  0  0  0  0  0  0  0  0
   -2.8650    2.6850   -0.1470 C   0  0  2  0  0  0  0  0  0  0  0  0
   -3.9060    3.5230   -0.7980 C   0  0  0  0  0  0  0  0  0  0  0  0
   -4.7670    4.1710    0.0510 O   0  0  0  0  0  0  0  0  0  0  0  0
   -5.8100    3.5900    0.7160 C   0  0  0  0  0  0  0  0  0  0  0  0
   -6.1230    2.2480    0.4880 C   0  0  0  0  0  0  0  0  0  0  0  0
   -7.1610    1.6390    1.1500 C   0  0  0  0  0  0  0  0  0  0  0  0
   -7.9520    2.2920    2.0660 C   0  0  0  0  0  0  0  0  0  0  0  0
   -9.0030    1.6430    2.7240 O   0  0  0  0  0  0  0  0  0  0  0  0
   -7.6670    3.6260    2.3110 C   0  0  0  0  0  0  0  0  0  0  0  0
   -6.6060    4.2430    1.6340 C   0  0  0  0  0  0  0  0  0  0  0  0
   -3.1190    1.7360    0.8130 O   0  0  0  0  0  0  0  0  0  0  0  0
   -3.4230    0.4260    0.7750 C   0  0  0  0  0  0  0  0  0  0  0  0
   -3.6450   -0.3340    1.9220 C   0  0  0  0  0  0  0  0  0  0  0  0
   -3.9460   -1.6600    1.9160 C   0  0  0  0  0  0  0  0  0  0  0  0
   -4.0610   -2.3850    0.7140 C   0  0  0  0  0  0  0  0  0  0  0  0
   -4.3380   -3.6510    0.5710 N   0  0  0  0  0  0  0  0  0  0  0  0
   -4.4100   -4.2010   -0.6540 C   0  0  0  0  0  0  0  0  0  0  0  0
   -4.6620   -5.3790   -1.0210 O   0  0  0  0  0  0  0  0  0  0  0  0
   -4.0460   -2.7620   -1.7150 S   0  0  0  0  0  0  0  0  0  0  0  0
   -3.8460   -1.6410   -0.4080 C   0  0  0  0  0  0  0  0  0  0  0  0
   -3.5360   -0.2800   -0.4010 C   0  0  0  0  0  0  0  0  0  0  0  0
    5.6350   -0.8040   -2.0650 C   0  0  0  0  0  0  0  0  0  0  0  0
  1  2  1  0
  2  3  1  0
  3  4  2  0
  3  5  1  0
  5  6  2  0
  5 43  1  0
  6  7  1  0
  7  8  2  0
  8  9  1  0
  8 13  1  0
  9 10  1  0
 10 11  1  0
 11 12  2  0
 13 14  1  0
 13 43  2  0
 14 15  1  0
 15 16  1  0
 16 17  1  0
 17 18  1  0
 18 19  2  0
 18 20  1  0
 20 21  1  0
 22 21  1  1
 22 23  1  0
 22 32  1  0
 23 24  1  0
 24 25  1  0
 25 26  2  0
 25 31  1  0
 26 27  1  0
 27 28  2  0
 28 29  1  0
 28 30  1  0
 30 31  2  0
 32 33  1  0
 33 34  2  0
 33 42  1  0
 34 35  1  0
 35 36  2  0
 36 37  1  0
 36 41  1  0
 37 38  1  0
 38 39  2  0
 38 40  1  0
 40 41  1  0
 41 42  2  0
M  END
