
     RDKit          3D

 17 17  0  0  0  0  0  0  0  0999 V2000
   -5.1260   -0.8180   -1.0310 C   0  0  0  0  0  0  0  0  0  0  0  0
   -4.5610    0.3890    0.1570 S   0  0  0  0  0  0  0  0  0  0  0  0
   -2.9710    0.0610    0.8880 C   0  0  0  0  0  0  0  0  0  0  0  0
   -1.8010    0.1380   -0.0750 C   0  0  2  0  0  0  0  0  0  0  0  0
   -1.8070    1.5370   -0.6230 C   0  0  0  0  0  0  0  0  0  0  0  0
   -0.8370    1.8340   -1.5160 O   0  0  0  0  0  0  0  0  0  0  0  0
   -1.8660   -0.9530   -1.0640 C   0  0  0  0  0  0  0  0  0  0  0  0
   -0.6390   -1.8180   -1.1640 C   0  0  0  0  0  0  0  0  0  0  0  0
    0.6610   -1.1090   -1.0860 C   0  0  0  0  0  0  0  0  0  0  0  0
    0.6310   -0.2240    0.0660 N   0  0  0  0  0  0  0  0  0  0  0  0
    1.7930    0.4990    0.4480 C   0  0  0  0  0  0  0  0  0  0  0  0
    1.7070    1.2490    1.4490 O   0  0  0  0  0  0  0  0  0  0  0  0
    3.0730    0.4230   -0.2530 C   0  0  0  0  0  0  0  0  0  0  0  0
    4.2080    1.1650    0.3350 C   0  0  0  0  0  0  0  0  0  0  0  0
    4.5870    0.7260    1.7250 C   0  0  0  0  0  0  0  0  0  0  0  0
    4.9530   -0.6140    1.7550 O   0  0  0  0  0  0  0  0  0  0  0  0
   -0.5670   -0.0860    0.8150 C   0  0  0  0  0  0  0  0  0  0  0  0
  1  2  1  0
  2  3  1  0
  4  3  1  1
  4  5  1  0
  4  7  1  0
  4 17  1  0
  5  6  1  0
  7  8  1  0
  8  9  1  0
  9 10  1  0
 10 11  1  0
 10 17  1  0
 11 12  2  0
 11 13  1  0
 13 14  1  0
 14 15  1  0
 15 16  1  0
M  END
