
     RDKit          3D

 17 17  0  0  0  0  0  0  0  0999 V2000
    5.7100    0.4800    1.3580 C   0  0  0  0  0  0  0  0  0  0  0  0
    5.6090    1.2600   -0.2820 S   0  0  0  0  0  0  0  0  0  0  0  0
    4.0360    0.8040   -1.1040 C   0  0  0  0  0  0  0  0  0  0  0  0
    3.9840   -0.6350   -1.4180 C   0  0  0  0  0  0  0  0  0  0  0  0
    2.7680   -1.1380   -2.0890 C   0  0  0  0  0  0  0  0  0  0  0  0
    1.5980   -1.1400   -1.4780 O   0  0  0  0  0  0  0  0  0  0  0  0
    0.9370   -0.1250   -0.9440 C   0  0  0  0  0  0  0  0  0  0  0  0
   -0.4700   -0.5690   -0.4960 C   0  0  0  0  0  0  0  0  0  0  0  0
   -0.8020   -1.7420   -0.6690 O   0  0  0  0  0  0  0  0  0  0  0  0
   -1.3250    0.3770    0.0920 N   0  0  0  0  0  0  0  0  0  0  0  0
   -2.6430    0.0310    0.5300 C   0  0  0  0  0  0  0  0  0  0  0  0
   -3.7190    0.6120    0.0390 C   0  0  0  0  0  0  0  0  0  0  0  0
   -4.9040    0.0590    0.6700 C   0  0  0  0  0  0  0  0  0  0  0  0
   -6.3280    0.4620    0.3800 C   0  0  0  0  0  0  0  0  0  0  0  0
   -4.5390   -0.8570    1.5420 C   0  0  0  0  0  0  0  0  0  0  0  0
   -3.0690   -0.9420    1.5160 C   0  0  2  0  0  0  0  0  0  0  0  0
   -2.6440   -0.4800    2.7850 O   0  0  0  0  0  0  0  0  0  0  0  0
  1  2  1  0
  2  3  1  0
  3  4  1  0
  4  5  1  0
  5  6  1  0
  6  7  1  0
  7  8  1  0
  8  9  2  0
  8 10  1  0
 10 11  1  0
 11 12  2  0
 11 16  1  0
 12 13  1  0
 13 14  1  0
 13 15  2  0
 15 16  1  0
 16 17  1  1
M  END
