
     RDKit          3D

 17 17  0  0  0  0  0  0  0  0999 V2000
    3.5840   -1.3500    0.9470 C   0  0  0  0  0  0  0  0  0  0  0  0
    4.0040   -0.1620    0.5480 C   0  0  0  0  0  0  0  0  0  0  0  0
    5.3860    0.3710    0.5630 C   0  0  0  0  0  0  0  0  0  0  0  0
    5.3250    1.5870   -0.2850 C   0  0  0  0  0  0  0  0  0  0  0  0
    3.8880    1.8640   -0.4610 C   0  0  0  0  0  0  0  0  0  0  0  0
    3.1420    0.8770    0.0080 C   0  0  0  0  0  0  0  0  0  0  0  0
    1.7210    0.8920   -0.0260 N   0  0  0  0  0  0  0  0  0  0  0  0
    0.9250   -0.0360   -0.7480 C   0  0  0  0  0  0  0  0  0  0  0  0
    1.4580   -0.9340   -1.4110 O   0  0  0  0  0  0  0  0  0  0  0  0
   -0.5780    0.0660   -0.7120 C   0  0  0  0  0  0  0  0  0  0  0  0
   -1.2030   -1.0030   -1.5500 C   0  0  0  0  0  0  0  0  0  0  0  0
   -3.0030   -0.8250   -1.4630 S   0  0  0  0  0  0  0  0  0  0  0  0
   -3.6220   -1.1670    0.2050 C   0  0  0  0  0  0  0  0  0  0  0  0
   -5.0970   -0.9930    0.2030 C   0  0  0  0  0  0  0  0  0  0  0  0
   -5.8970   -1.9280   -0.0580 O   0  0  0  0  0  0  0  0  0  0  0  0
   -5.6590    0.2500    0.4980 O   0  0  0  0  0  0  0  0  0  0  0  0
   -7.0470    0.4940    0.5160 C   0  0  0  0  0  0  0  0  0  0  0  0
  1  2  2  0
  2  3  1  0
  2  6  1  0
  3  4  1  0
  4  5  1  0
  5  6  2  0
  6  7  1  0
  7  8  1  0
  8  9  2  0
  8 10  1  0
 10 11  1  0
 11 12  1  0
 12 13  1  0
 13 14  1  0
 14 15  2  0
 14 16  1  0
 16 17  1  0
M  END
