
     RDKit          3D

 17 17  0  0  0  0  0  0  0  0999 V2000
   -3.2220    1.5320   -1.2060 C   0  0  0  0  0  0  0  0  0  0  0  0
   -2.2190    0.7100   -1.9520 C   0  0  0  0  0  0  0  0  0  0  0  0
   -0.9300    0.4350   -1.2500 C   0  0  0  0  0  0  0  0  0  0  0  0
   -1.0910   -0.3520   -0.0180 C   0  0  2  0  0  0  0  0  0  0  0  0
   -1.7030   -1.5770   -0.3830 O   0  0  0  0  0  0  0  0  0  0  0  0
   -1.8920    0.2190    1.1000 C   0  0  0  0  0  0  0  0  0  0  0  0
   -1.5070   -0.7470    2.2470 C   0  0  0  0  0  0  0  0  0  0  0  0
   -0.0110   -0.7720    2.0760 C   0  0  0  0  0  0  0  0  0  0  0  0
    0.2580   -0.7010    0.6200 C   0  0  1  0  0  0  0  0  0  0  0  0
    0.8620   -1.9130    0.0190 C   0  0  0  0  0  0  0  0  0  0  0  0
    0.1170   -3.1850    0.1050 C   0  0  0  0  0  0  0  0  0  0  0  0
    1.1780    0.4730    0.3650 C   0  0  0  0  0  0  0  0  0  0  0  0
    2.4960    0.2660    0.9330 N   0  0  0  0  0  0  0  0  0  0  0  0
    3.4190    1.7010    0.5500 S   0  0  1  0  0  0  0  0  0  0  0  0
    3.5740    1.9260   -1.1800 C   0  0  0  0  0  0  0  0  0  0  0  0
    2.7050    2.8950    1.1200 O   0  0  0  0  0  0  0  0  0  0  0  0
    4.7680    1.6360    1.2380 O   0  0  0  0  0  0  0  0  0  0  0  0
  1  2  1  0
  2  3  1  0
  3  4  1  0
  4  5  1  6
  4  6  1  0
  4  9  1  0
  6  7  1  0
  7  8  1  0
  8  9  1  0
  9 10  1  6
  9 12  1  0
 10 11  1  0
 12 13  1  0
 13 14  1  0
 14 15  1  6
 14 16  2  0
 14 17  2  0
M  END
