
     RDKit          3D

 17 17  0  0  0  0  0  0  0  0999 V2000
   -4.5770    2.2600    1.1830 C   0  0  0  0  0  0  0  0  0  0  0  0
   -4.4270    0.9550    0.4670 C   0  0  0  0  0  0  0  0  0  0  0  0
   -3.2100    0.5810    0.0930 C   0  0  0  0  0  0  0  0  0  0  0  0
   -1.9200    1.2740    0.2760 C   0  0  0  0  0  0  0  0  0  0  0  0
   -1.0590    0.6940   -0.8090 C   0  0  1  0  0  0  0  0  0  0  0  0
    0.2760    0.3140   -0.2430 C   0  0  0  0  0  0  0  0  0  0  0  0
    1.0130    1.2000    0.2560 O   0  0  0  0  0  0  0  0  0  0  0  0
    0.6670   -1.0460   -0.2900 N   0  0  0  0  0  0  0  0  0  0  0  0
    1.9360   -1.5070    0.2280 C   0  0  0  0  0  0  0  0  0  0  0  0
    3.0740   -0.8490   -0.4830 C   0  0  0  0  0  0  0  0  0  0  0  0
    4.3970   -1.3590    0.0840 C   0  0  0  0  0  0  0  0  0  0  0  0
    5.7100   -0.5020   -0.8450 S   0  0  0  0  0  0  0  0  0  0  0  0
    5.6340    1.2620   -0.4450 C   0  0  0  0  0  0  0  0  0  0  0  0
   -1.7170   -0.4400   -1.3190 O   0  0  0  0  0  0  0  0  0  0  0  0
   -2.8960   -0.6730   -0.6190 C   0  0  0  0  0  0  0  0  0  0  0  0
   -3.6190   -1.7820   -0.5770 C   0  0  0  0  0  0  0  0  0  0  0  0
   -3.1810   -2.8740   -1.3080 O   0  0  0  0  0  0  0  0  0  0  0  0
  1  2  1  0
  2  3  2  3
  3  4  1  0
  3 15  1  0
  4  5  1  0
  5  6  1  1
  5 14  1  0
  6  7  2  0
  6  8  1  0
  8  9  1  0
  9 10  1  0
 10 11  1  0
 11 12  1  0
 12 13  1  0
 14 15  1  0
 15 16  2  3
 16 17  1  0
M  END
