
     RDKit          3D

 17 17  0  0  0  0  0  0  0  0999 V2000
   -3.6060   -0.5430   -0.8090 C   0  0  0  0  0  0  0  0  0  0  0  0
   -2.6710   -0.8610    0.2670 C   0  0  0  0  0  0  0  0  0  0  0  0
   -1.5910   -0.3390    0.7300 C   0  0  0  0  0  0  0  0  0  0  0  0
   -0.9850   -1.1150    1.9260 C   0  0  0  0  0  0  0  0  0  0  0  0
   -1.7990   -2.2070    2.1860 O   0  0  0  0  0  0  0  0  0  0  0  0
   -0.8600    0.8600    0.3020 C   0  0  2  0  0  0  0  0  0  0  0  0
   -1.5460    1.7190   -0.6600 C   0  0  0  0  0  0  0  0  0  0  0  0
   -1.1860    1.5330   -2.1110 C   0  0  0  0  0  0  0  0  0  0  0  0
   -0.2910    0.4110   -2.2770 N   0  0  0  0  0  0  0  0  0  0  0  0
    0.8290    0.2930   -1.3480 C   0  0  0  0  0  0  0  0  0  0  0  0
    2.4180   -0.1740   -1.9260 S   0  0  0  0  0  0  0  0  0  0  0  0
    3.2800   -1.4400   -1.0200 C   0  0  0  0  0  0  0  0  0  0  0  0
    0.5440    0.5270   -0.1020 C   0  0  0  0  0  0  0  0  0  0  0  0
    1.5780    0.6540    0.9390 C   0  0  0  0  0  0  0  0  0  0  0  0
    1.2410    0.8530    2.1570 O   0  0  0  0  0  0  0  0  0  0  0  0
    2.9330    0.5890    0.7360 O   0  0  0  0  0  0  0  0  0  0  0  0
    3.8930    0.7260    1.7670 C   0  0  0  0  0  0  0  0  0  0  0  0
  1  2  1  0
  2  3  2  3
  3  4  1  0
  6  3  1  6
  4  5  1  0
  6  7  1  0
  6 13  1  0
  7  8  1  0
  8  9  1  0
  9 10  1  0
 10 11  1  0
 10 13  2  0
 11 12  1  0
 13 14  1  0
 14 15  2  0
 14 16  1  0
 16 17  1  0
M  END
