
     RDKit          3D

 17 17  0  0  0  0  0  0  0  0999 V2000
    1.1850   -0.8670   -1.4090 C   0  0  0  0  0  0  0  0  0  0  0  0
    1.8280   -0.0310   -0.4010 N   0  0  0  0  0  0  0  0  0  0  0  0
    1.2240    1.0980    0.1470 C   0  0  0  0  0  0  0  0  0  0  0  0
    1.8960    1.7900    1.0010 O   0  0  0  0  0  0  0  0  0  0  0  0
   -0.1260    1.6010   -0.1450 C   0  0  0  0  0  0  0  0  0  0  0  0
   -1.0490    0.5580   -1.2150 S   0  0  0  0  0  0  0  0  0  0  0  0
   -2.7040    1.1110   -1.5890 C   0  0  0  0  0  0  0  0  0  0  0  0
   -3.6620    1.1240   -0.4590 C   0  0  1  0  0  0  0  0  0  0  0  0
   -4.8950    1.6010   -0.9850 O   0  0  0  0  0  0  0  0  0  0  0  0
   -3.9430   -0.1350    0.2420 C   0  0  0  0  0  0  0  0  0  0  0  0
   -2.8400   -0.8540    0.9040 C   0  0  0  0  0  0  0  0  0  0  0  0
   -3.3190   -2.0350    1.5310 O   0  0  0  0  0  0  0  0  0  0  0  0
    3.1600   -0.4260    0.0300 C   0  0  0  0  0  0  0  0  0  0  0  0
    3.8310   -1.4940   -0.3810 C   0  0  0  0  0  0  0  0  0  0  0  0
    5.1470   -1.5760    0.2670 C   0  0  0  0  0  0  0  0  0  0  0  0
    5.1870   -0.4100    1.1300 C   0  0  0  0  0  0  0  0  0  0  0  0
    4.0290    0.2340    0.9730 C   0  0  0  0  0  0  0  0  0  0  0  0
  1  2  1  0
  2  3  1  0
  2 13  1  0
  3  4  2  0
  3  5  1  0
  5  6  1  0
  6  7  1  0
  7  8  1  0
  8  9  1  6
  8 10  1  0
 10 11  1  0
 11 12  1  0
 13 14  2  0
 13 17  1  0
 14 15  1  0
 15 16  1  0
 16 17  2  0
M  END
