
     RDKit          3D

 18 21  0  0  0  0  0  0  0  0999 V2000
    4.9830    0.8110   -0.9170 C   0  0  0  0  0  0  0  0  0  0  0  0
    3.6890    0.9300   -0.6720 C   0  0  0  0  0  0  0  0  0  0  0  0
    3.1720   -0.2440    0.0280 C   0  0  0  0  0  0  0  0  0  0  0  0
    1.7500   -0.4690    0.4730 C   0  0  1  0  0  0  0  0  0  0  0  0
    1.3640    0.4730    1.5540 C   0  0  0  0  0  0  0  0  0  0  0  0
   -0.0240    0.8300    1.6260 N   0  0  0  0  0  0  0  0  0  0  0  0
   -0.8940    0.4060    0.7830 C   0  0  0  0  0  0  0  0  0  0  0  0
   -2.3380    0.7780    0.8580 C   0  0  1  0  0  0  0  0  0  0  0  0
   -2.8000    1.6220   -0.2810 C   0  0  0  0  0  0  0  0  0  0  0  0
   -4.2420    1.2000   -0.4620 C   0  0  0  0  0  0  0  0  0  0  0  0
   -4.4180   -0.0740    0.3030 C   0  0  0  0  0  0  0  0  0  0  0  0
   -3.1180   -0.4090    0.8480 N   0  0  0  0  0  0  0  0  0  0  0  0
   -2.5390   -1.5690    0.2760 C   0  0  0  0  0  0  0  0  0  0  0  0
   -1.5770   -1.2800   -0.8590 C   0  0  0  0  0  0  0  0  0  0  0  0
   -0.5310   -0.4540   -0.2870 N   0  0  0  0  0  0  0  0  0  0  0  0
    0.8390   -0.4450   -0.7210 C   0  0  0  0  0  0  0  0  0  0  0  0
    4.1960   -1.0610    0.1900 C   0  0  0  0  0  0  0  0  0  0  0  0
    5.4270   -0.4800   -0.3850 C   0  0  0  0  0  0  0  0  0  0  0  0
  1  2  2  0
  1 18  1  0
  2  3  1  0
  4  3  1  6
  3 17  2  0
  4  5  1  0
  4 16  1  0
  5  6  1  0
  6  7  2  0
  7  8  1  0
  7 15  1  0
  8  9  1  6
  8 12  1  0
  9 10  1  0
 10 11  1  0
 11 12  1  0
 12 13  1  0
 13 14  1  0
 14 15  1  0
 15 16  1  0
 17 18  1  0
M  END
