
     RDKit          3D

 17 17  0  0  0  0  0  0  0  0999 V2000
   -4.0990    1.9750   -0.8450 C   0  0  0  0  0  0  0  0  0  0  0  0
   -2.9330    1.4380   -1.6570 C   0  0  0  0  0  0  0  0  0  0  0  0
   -1.8450    1.1530   -0.7940 O   0  0  0  0  0  0  0  0  0  0  0  0
   -0.6640    0.6550   -1.2810 C   0  0  0  0  0  0  0  0  0  0  0  0
   -0.6130    0.4700   -2.5370 O   0  0  0  0  0  0  0  0  0  0  0  0
    0.5130    0.3260   -0.5120 C   0  0  0  0  0  0  0  0  0  0  0  0
    0.4720    0.5320    1.2450 S   0  0  0  0  0  0  0  0  0  0  0  0
   -1.1260    0.9820    1.9040 C   0  0  1  0  0  0  0  0  0  0  0  0
   -2.0920   -0.1660    1.7700 C   0  0  0  0  0  0  0  0  0  0  0  0
   -1.6300   -0.6170    3.0320 O   0  0  0  0  0  0  0  0  0  0  0  0
   -1.3860    0.7140    3.3460 C   0  0  0  0  0  0  0  0  0  0  0  0
    1.5830   -0.1340   -1.0970 C   0  0  0  0  0  0  0  0  0  0  0  0
    1.4550   -0.2710   -2.5450 N   0  0  0  0  0  0  0  0  0  0  0  0
    2.8660   -0.5060   -0.4710 C   0  0  1  0  0  0  0  0  0  0  0  0
    3.1030   -0.0170    0.9130 C   0  0  0  0  0  0  0  0  0  0  0  0
    3.2010   -1.9690   -0.6820 C   0  0  0  0  0  0  0  0  0  0  0  0
    2.1640   -2.8840   -0.1060 C   0  0  0  0  0  0  0  0  0  0  0  0
  1  2  1  0
  2  3  1  0
  3  4  1  0
  4  5  2  0
  4  6  1  0
  6  7  1  0
  6 12  2  3
  8  7  1  1
  8  9  1  0
  8 11  1  0
  9 10  1  0
 10 11  1  0
 12 13  1  0
 12 14  1  0
 14 15  1  1
 14 16  1  0
 16 17  1  0
M  END
