
     RDKit          3D

 20 20  0  0  0  0  0  0  0  0999 V2000
    5.3760    0.0110    0.5120 O   0  0  0  0  0  0  0  0  0  0  0  0
    4.5210    0.4380    1.3240 C   0  0  0  0  0  0  0  0  0  0  0  0
    4.9230    0.9160    2.5930 O   0  0  0  0  0  0  0  0  0  0  0  0
    3.1070    0.4540    0.9900 C   0  0  0  0  0  0  0  0  0  0  0  0
    2.6560    0.0280   -0.1590 C   0  0  0  0  0  0  0  0  0  0  0  0
    3.3180   -0.5390   -1.3560 C   0  0  0  0  0  0  0  0  0  0  0  0
    2.2840   -1.4720   -1.8310 N   0  0  0  0  0  0  0  0  0  0  0  0
    1.0500   -0.8450   -1.5120 C   0  0  0  0  0  0  0  0  0  0  0  0
    1.2220    0.0370   -0.5420 C   0  0  0  0  0  0  0  0  0  0  0  0
    0.2170    0.8410    0.0250 O   0  0  0  0  0  0  0  0  0  0  0  0
   -0.9500    0.2930    0.3440 O   0  0  0  0  0  0  0  0  0  0  0  0
   -2.0240    0.9720   -0.2050 C   0  0  1  0  0  0  0  0  0  0  0  0
   -2.7990    0.1390   -1.1710 C   0  0  0  0  0  0  0  0  0  0  0  0
   -3.2860   -1.0710   -0.7280 O   0  0  0  0  0  0  0  0  0  0  0  0
   -4.1600   -1.3900    0.2670 C   0  0  0  0  0  0  0  0  0  0  0  0
   -4.6500   -0.4660    0.9400 O   0  0  0  0  0  0  0  0  0  0  0  0
   -4.5180   -2.7310    0.5480 O   0  0  0  0  0  0  0  0  0  0  0  0
   -2.8290    1.6150    0.8340 C   0  0  0  0  0  0  0  0  0  0  0  0
   -3.8120    2.3680    0.5280 O   0  0  0  0  0  0  0  0  0  0  0  0
   -2.5470    1.4240    2.1740 O   0  0  0  0  0  0  0  0  0  0  0  0
  1  2  2  0
  2  3  1  0
  2  4  1  0
  4  5  2  3
  5  6  1  0
  5  9  1  0
  6  7  1  0
  7  8  1  0
  8  9  2  0
  9 10  1  0
 10 11  1  0
 11 12  1  0
 12 13  1  1
 12 18  1  0
 13 14  1  0
 14 15  1  0
 15 16  2  0
 15 17  1  0
 18 19  2  0
 18 20  1  0
M  END
