
     RDKit          3D

 20 20  0  0  0  0  0  0  0  0999 V2000
    0.6020    0.3870    0.7320 O   0  0  0  0  0  0  0  0  0  0  0  0
    0.7780   -0.5410   -0.1020 C   0  0  0  0  0  0  0  0  0  0  0  0
   -0.2980   -1.1700   -0.7160 O   0  0  0  0  0  0  0  0  0  0  0  0
   -1.6300   -0.6780   -0.3240 C   0  0  0  0  0  0  0  0  0  0  0  0
   -1.6640    0.6020   -0.6470 O   0  0  0  0  0  0  0  0  0  0  0  0
   -2.6610    1.4290   -0.4620 C   0  0  0  0  0  0  0  0  0  0  0  0
   -3.9470    1.2880   -1.1690 C   0  0  0  0  0  0  0  0  0  0  0  0
   -4.7140    0.0380   -0.9290 C   0  0  0  0  0  0  0  0  0  0  0  0
   -5.0290   -0.1410    0.9030 P   0  0  0  0  0  0  0  0  0  0  0  0
   -5.7910    1.3360    1.4420 O   0  0  0  0  0  0  0  0  0  0  0  0
   -6.2000   -1.4270    1.1040 O   0  0  0  0  0  0  0  0  0  0  0  0
    2.1030   -0.8880   -0.3630 O   0  0  0  0  0  0  0  0  0  0  0  0
    3.1860   -0.2330    0.2740 C   0  0  2  0  0  0  0  0  0  0  0  0
    4.1010    0.4410   -0.6980 C   0  0  0  0  0  0  0  0  0  0  0  0
    5.1750    0.9710    0.0090 O   0  0  0  0  0  0  0  0  0  0  0  0
    6.2610    0.1150    0.0450 C   0  0  0  0  0  0  0  0  0  0  0  0
    6.2640   -0.5340    1.2860 O   0  0  0  0  0  0  0  0  0  0  0  0
    5.2630   -1.4170    1.3710 N   0  0  0  0  0  0  0  0  0  0  0  0
    3.8780   -1.2520    1.1030 C   0  0  0  0  0  0  0  0  0  0  0  0
    3.1520   -2.1110    1.6640 O   0  0  0  0  0  0  0  0  0  0  0  0
  1  2  2  0
  2  3  1  0
  2 12  1  0
  3  4  1  0
  4  5  1  0
  5  6  1  0
  6  7  1  0
  7  8  1  0
  8  9  1  0
  9 10  1  0
  9 11  1  0
 13 12  1  6
 13 14  1  0
 13 19  1  0
 14 15  1  0
 15 16  1  0
 16 17  1  0
 17 18  1  0
 18 19  1  0
 19 20  2  0
M  END
