
     RDKit          3D

 20 19  0  0  0  0  0  0  0  0999 V2000
   -3.8650    1.8420   -0.6030 O   0  0  0  0  0  0  0  0  0  0  0  0
   -2.7300    1.7180   -1.0970 C   0  0  0  0  0  0  0  0  0  0  0  0
   -2.4170    2.3950   -2.2550 O   0  0  0  0  0  0  0  0  0  0  0  0
   -1.7340    0.8470   -0.4360 C   0  0  0  0  0  0  0  0  0  0  0  0
   -2.2510    0.2040    0.8040 C   0  0  2  0  0  0  0  0  0  0  0  0
   -1.3040   -0.6850    1.5320 C   0  0  0  0  0  0  0  0  0  0  0  0
   -0.7620   -1.8520    0.8200 C   0  0  0  0  0  0  0  0  0  0  0  0
    0.0010   -1.5950   -0.3360 O   0  0  0  0  0  0  0  0  0  0  0  0
    1.1870   -0.8470   -0.2620 C   0  0  0  0  0  0  0  0  0  0  0  0
    1.5150   -0.4380    0.8590 O   0  0  0  0  0  0  0  0  0  0  0  0
    1.9690   -0.5640   -1.3440 O   0  0  0  0  0  0  0  0  0  0  0  0
    3.1500    0.1910   -1.2050 C   0  0  0  0  0  0  0  0  0  0  0  0
    4.1820   -0.4070   -0.3110 C   0  0  0  0  0  0  0  0  0  0  0  0
    5.6610    0.7520   -0.2730 P   0  0  0  0  0  0  0  0  0  0  0  0
    6.4500    0.6280   -1.7930 O   0  0  0  0  0  0  0  0  0  0  0  0
    5.1990    2.3520    0.1370 O   0  0  0  0  0  0  0  0  0  0  0  0
   -3.5290   -0.4520    0.5830 N   0  0  0  0  0  0  0  0  0  0  0  0
   -4.7140   -0.1130    1.2890 C   0  0  0  0  0  0  0  0  0  0  0  0
   -4.6880    0.8110    2.1730 O   0  0  0  0  0  0  0  0  0  0  0  0
   -5.8840   -0.7870    1.0120 O   0  0  0  0  0  0  0  0  0  0  0  0
  1  2  2  0
  2  3  1  0
  2  4  1  0
  5  4  1  6
  5  6  1  0
  5 17  1  0
  6  7  1  0
  7  8  1  0
  8  9  1  0
  9 10  2  0
  9 11  1  0
 11 12  1  0
 12 13  1  0
 13 14  1  0
 14 15  1  0
 14 16  1  0
 17 18  1  0
 18 19  2  0
 18 20  1  0
M  END
