
     RDKit          3D

 28 28  0  0  0  0  0  0  0  0999 V2000
   -3.3390   -3.7570    1.5500 C   0  0  0  0  0  0  0  0  0  0  0  0
   -2.3600   -2.8520    0.8690 C   0  0  0  0  0  0  0  0  0  0  0  0
   -1.1320   -3.1710    0.4310 N   0  0  0  0  0  0  0  0  0  0  0  0
   -0.5290   -2.1220   -0.1290 N   0  0  0  0  0  0  0  0  0  0  0  0
    0.8070   -2.0970   -0.7160 C   0  0  0  0  0  0  0  0  0  0  0  0
    1.8650   -1.7510    0.2700 C   0  0  0  0  0  0  0  0  0  0  0  0
    1.7610   -0.4200    0.9190 C   0  0  0  0  0  0  0  0  0  0  0  0
    1.8280    0.7390   -0.0230 C   0  0  0  0  0  0  0  0  0  0  0  0
    3.0700    0.7870   -0.7700 N   0  0  0  0  0  0  0  0  0  0  0  0
    4.3090    0.9030   -0.0890 C   0  0  0  0  0  0  0  0  0  0  0  0
    4.4010    0.9680    1.1430 O   0  0  0  0  0  0  0  0  0  0  0  0
    5.4830    0.9470   -0.8270 O   0  0  0  0  0  0  0  0  0  0  0  0
    6.7640    1.0590   -0.2850 C   0  0  1  0  0  0  0  0  0  0  0  0
    7.7440    1.0690   -1.4650 C   0  0  0  0  0  0  0  0  0  0  0  0
    6.9600    2.3440    0.4670 C   0  0  0  0  0  0  0  0  0  0  0  0
    7.1420   -0.1070    0.5930 C   0  0  0  0  0  0  0  0  0  0  0  0
   -1.4110   -1.1110   -0.0380 C   0  0  0  0  0  0  0  0  0  0  0  0
   -2.5750   -1.5100    0.5770 C   0  0  0  0  0  0  0  0  0  0  0  0
   -3.7490   -0.7560    0.8850 N   0  0  0  0  0  0  0  0  0  0  0  0
   -3.9760    0.6050    0.5140 C   0  0  2  0  0  0  0  0  0  0  0  0
   -5.2530    1.0850    1.1950 C   0  0  0  0  0  0  0  0  0  0  0  0
   -5.5420    2.5140    0.8420 C   0  0  0  0  0  0  0  0  0  0  0  0
   -6.7210    2.8870    1.5050 O   0  0  0  0  0  0  0  0  0  0  0  0
   -4.1460    0.7440   -0.9960 C   0  0  0  0  0  0  0  0  0  0  0  0
   -5.2500   -0.0210   -1.3720 O   0  0  0  0  0  0  0  0  0  0  0  0
   -5.5530    0.0480   -3.0570 P   0  0  0  0  0  0  0  0  0  0  0  0
   -6.3750   -1.3930   -3.5440 O   0  0  0  0  0  0  0  0  0  0  0  0
   -6.5000    1.4110   -3.5280 O   0  0  0  0  0  0  0  0  0  0  0  0
  1  2  1  0
  2  3  2  0
  2 18  1  0
  3  4  1  0
  4  5  1  0
  4 17  1  0
  5  6  1  0
  6  7  1  0
  7  8  1  0
  8  9  1  0
  9 10  1  0
 10 11  2  0
 10 12  1  0
 12 13  1  0
 13 14  1  6
 13 15  1  0
 13 16  1  0
 17 18  2  0
 18 19  1  0
 19 20  1  0
 20 21  1  1
 20 24  1  0
 21 22  1  0
 22 23  1  0
 24 25  1  0
 25 26  1  0
 26 27  1  0
 26 28  1  0
M  END
