
     RDKit          3D

 20 20  0  0  0  0  0  0  0  0999 V2000
   -6.4490    1.0300   -0.2180 O   0  0  0  0  0  0  0  0  0  0  0  0
   -5.3860    1.6990   -0.2260 C   0  0  0  0  0  0  0  0  0  0  0  0
   -5.4360    3.0660   -0.4870 O   0  0  0  0  0  0  0  0  0  0  0  0
   -4.2000    1.0300    0.0280 O   0  0  0  0  0  0  0  0  0  0  0  0
   -4.2460   -0.3550    0.2820 C   0  0  0  0  0  0  0  0  0  0  0  0
   -2.8510   -0.8170    0.5210 C   0  0  0  0  0  0  0  0  0  0  0  0
   -1.9260   -0.2550   -0.1840 N   0  0  0  0  0  0  0  0  0  0  0  0
   -0.5860   -0.6750    0.0220 C   0  0  0  0  0  0  0  0  0  0  0  0
    0.2050    0.1400    0.6920 C   0  0  0  0  0  0  0  0  0  0  0  0
    1.5400    0.0270    1.0550 O   0  0  0  0  0  0  0  0  0  0  0  0
    2.4700   -0.9540    0.6680 C   0  0  2  0  0  0  0  0  0  0  0  0
    3.8600   -0.3340    0.7470 C   0  0  0  0  0  0  0  0  0  0  0  0
    3.8940    0.7730   -0.1330 O   0  0  0  0  0  0  0  0  0  0  0  0
    5.0110    1.5640   -0.3070 C   0  0  0  0  0  0  0  0  0  0  0  0
    6.0510    1.2930    0.3450 O   0  0  0  0  0  0  0  0  0  0  0  0
    5.0030    2.6400   -1.1790 O   0  0  0  0  0  0  0  0  0  0  0  0
    2.2080   -1.5010   -0.6840 C   0  0  0  0  0  0  0  0  0  0  0  0
    3.2420   -1.6820   -1.4120 O   0  0  0  0  0  0  0  0  0  0  0  0
    0.9960   -1.8310   -1.2370 O   0  0  0  0  0  0  0  0  0  0  0  0
   -0.2560   -1.9970   -0.5550 C   0  0  0  0  0  0  0  0  0  0  0  0
  1  2  2  0
  2  3  1  0
  2  4  1  0
  4  5  1  0
  5  6  1  0
  6  7  2  3
  7  8  1  0
  8  9  2  0
  8 20  1  0
  9 10  1  0
 10 11  1  0
 11 12  1  6
 11 17  1  0
 12 13  1  0
 13 14  1  0
 14 15  2  0
 14 16  1  0
 17 18  2  0
 17 19  1  0
 19 20  1  0
M  END
