
     RDKit          3D

 20 20  0  0  0  0  0  0  0  0999 V2000
   -5.6540    1.1070    1.0880 N   0  0  0  0  0  0  0  0  0  0  0  0
   -4.9050    0.4600    0.0440 C   0  0  0  0  0  0  0  0  0  0  0  0
   -5.5160   -0.3260   -0.7210 O   0  0  0  0  0  0  0  0  0  0  0  0
   -3.5450    0.6870   -0.1270 O   0  0  0  0  0  0  0  0  0  0  0  0
   -2.9460    0.0340   -1.1290 O   0  0  0  0  0  0  0  0  0  0  0  0
   -1.3090   -0.3370   -0.8380 P   0  0  0  0  0  0  0  0  0  0  0  0
   -1.0360   -1.9680   -0.0360 C   0  0  0  0  0  0  0  0  0  0  0  0
    0.0270   -2.7310   -0.8140 C   0  0  0  0  0  0  0  0  0  0  0  0
    1.0610   -3.1950   -0.0010 O   0  0  0  0  0  0  0  0  0  0  0  0
    2.2530   -2.5260    0.2330 C   0  0  0  0  0  0  0  0  0  0  0  0
    3.3880   -3.0660    0.1830 O   0  0  0  0  0  0  0  0  0  0  0  0
    2.1780   -1.0800    0.5610 C   0  0  0  0  0  0  0  0  0  0  0  0
    3.4220   -0.5750    1.0060 O   0  0  0  0  0  0  0  0  0  0  0  0
    3.7110    0.7730    0.9510 C   0  0  0  0  0  0  0  0  0  0  0  0
    4.5250    1.2220    1.8280 O   0  0  0  0  0  0  0  0  0  0  0  0
    3.1210    1.6840   -0.0660 C   0  0  0  0  0  0  0  0  0  0  0  0
    1.7860    2.2270    0.4100 C   0  0  0  0  0  0  0  0  0  0  0  0
    1.0040    2.6660   -0.6490 O   0  0  0  0  0  0  0  0  0  0  0  0
    0.1600    1.6830   -1.1150 C   0  0  0  0  0  0  0  0  0  0  0  0
   -0.4300    0.9390   -0.0770 O   0  0  0  0  0  0  0  0  0  0  0  0
  1  2  1  0
  2  3  2  0
  2  4  1  0
  4  5  1  0
  5  6  1  0
  6  7  1  0
  6 20  1  0
  7  8  1  0
  8  9  1  0
  9 10  1  0
 10 11  2  0
 10 12  1  0
 12 13  1  0
 13 14  1  0
 14 15  2  0
 14 16  1  0
 16 17  1  0
 17 18  1  0
 18 19  1  0
 19 20  1  0
M  END
