
     RDKit          3D

 21 21  0  0  0  0  0  0  0  0999 V2000
    5.7650   -0.3220    1.4650 C   0  0  0  0  0  0  0  0  0  0  0  0
    4.7370   -0.9690    0.5450 C   0  0  0  0  0  0  0  0  0  0  0  0
    4.7910   -0.2840   -0.6680 O   0  0  0  0  0  0  0  0  0  0  0  0
    3.6860   -0.8880   -1.8340 P   0  0  0  0  0  0  0  0  0  0  0  0
    4.2450   -2.2850   -2.6580 O   0  0  0  0  0  0  0  0  0  0  0  0
    2.0050   -1.1360   -1.0710 C   0  0  2  0  0  0  0  0  0  0  0  0
    1.1940   -1.8880   -1.9100 O   0  0  0  0  0  0  0  0  0  0  0  0
    1.4320    0.2530   -0.8250 C   0  0  0  0  0  0  0  0  0  0  0  0
    0.1250    0.1290   -0.2070 N   0  0  0  0  0  0  0  0  0  0  0  0
   -0.0430    0.0820    1.2480 C   0  0  0  0  0  0  0  0  0  0  0  0
   -1.4270    0.7300    1.3720 C   0  0  1  0  0  0  0  0  0  0  0  0
   -1.2730    2.1830    0.9850 C   0  0  0  0  0  0  0  0  0  0  0  0
   -0.8070    2.2760   -0.3240 O   0  0  0  0  0  0  0  0  0  0  0  0
   -2.1660    0.0080    0.2930 C   0  0  1  0  0  0  0  0  0  0  0  0
   -3.4060    0.6070   -0.0730 N   0  0  0  0  0  0  0  0  0  0  0  0
   -4.6250   -0.1210   -0.0770 C   0  0  0  0  0  0  0  0  0  0  0  0
   -4.6630   -1.3560    0.2520 O   0  0  0  0  0  0  0  0  0  0  0  0
   -5.8420    0.4460   -0.4310 O   0  0  0  0  0  0  0  0  0  0  0  0
   -7.0240   -0.3100   -0.4200 C   0  0  0  0  0  0  0  0  0  0  0  0
   -1.1580    0.0350   -0.8180 C   0  0  0  0  0  0  0  0  0  0  0  0
   -1.3450   -0.0130   -2.0500 O   0  0  0  0  0  0  0  0  0  0  0  0
  1  2  1  0
  2  3  1  0
  3  4  1  0
  4  5  1  0
  4  6  1  0
  6  7  1  6
  6  8  1  0
  8  9  1  0
  9 10  1  0
  9 20  1  0
 10 11  1  0
 11 12  1  6
 11 14  1  0
 12 13  1  0
 14 15  1  6
 14 20  1  0
 15 16  1  0
 16 17  2  0
 16 18  1  0
 18 19  1  0
 20 21  2  0
M  END
