
     RDKit          3D

 21 21  0  0  0  0  0  0  0  0999 V2000
    6.8200   -0.7020    0.4840 C   0  0  0  0  0  0  0  0  0  0  0  0
    5.4370   -0.2450    0.2900 N   0  0  0  0  0  0  0  0  0  0  0  0
    4.6910   -0.7420   -0.8570 C   0  0  0  0  0  0  0  0  0  0  0  0
    3.6980   -1.7630   -0.3390 C   0  0  0  0  0  0  0  0  0  0  0  0
    2.7440   -0.9920    1.0270 P   0  0  0  0  0  0  0  0  0  0  0  0
    1.1000   -0.7250    0.6750 O   0  0  0  0  0  0  0  0  0  0  0  0
    0.8680    0.2420   -0.2910 C   0  0  0  0  0  0  0  0  0  0  0  0
   -0.6350    0.3420   -0.4690 C   0  0  0  0  0  0  0  0  0  0  0  0
   -1.3010    0.7330    0.8290 C   0  0  0  0  0  0  0  0  0  0  0  0
   -2.7180    0.8490    0.7430 N   0  0  0  0  0  0  0  0  0  0  0  0
   -3.5170   -0.2630    0.3720 C   0  0  0  0  0  0  0  0  0  0  0  0
   -3.0250   -1.3710    0.1080 O   0  0  0  0  0  0  0  0  0  0  0  0
   -4.9930   -0.0540    0.3060 C   0  0  2  0  0  0  0  0  0  0  0  0
   -5.6550   -1.3350   -0.1000 C   0  0  0  0  0  0  0  0  0  0  0  0
   -7.0430   -1.0940   -0.1490 O   0  0  0  0  0  0  0  0  0  0  0  0
   -5.3640    1.0180   -0.6290 C   0  0  0  0  0  0  0  0  0  0  0  0
   -5.9880    2.0370   -0.2510 O   0  0  0  0  0  0  0  0  0  0  0  0
   -5.0320    0.9380   -1.9810 O   0  0  0  0  0  0  0  0  0  0  0  0
    3.4760    0.5720    1.4440 O   0  0  0  0  0  0  0  0  0  0  0  0
    4.8520    0.6670    1.2150 C   0  0  0  0  0  0  0  0  0  0  0  0
    5.5870    1.5070    1.7780 O   0  0  0  0  0  0  0  0  0  0  0  0
  1  2  1  0
  2  3  1  0
  2 20  1  0
  3  4  1  0
  4  5  1  0
  5  6  1  0
  5 19  1  0
  6  7  1  0
  7  8  1  0
  8  9  1  0
  9 10  1  0
 10 11  1  0
 11 12  2  0
 11 13  1  0
 13 14  1  6
 13 16  1  0
 14 15  1  0
 16 17  2  0
 16 18  1  0
 19 20  1  0
 20 21  2  0
M  END
