
     RDKit          3D

 22 23  0  0  0  0  0  0  0  0999 V2000
    5.3230   -1.3950    1.0990 O   0  0  0  0  0  0  0  0  0  0  0  0
    4.1310   -0.9390    1.0360 C   0  0  0  0  0  0  0  0  0  0  0  0
    3.5410   -0.6610    2.2530 O   0  0  0  0  0  0  0  0  0  0  0  0
    4.1250   -0.8360    3.4310 O   0  0  0  0  0  0  0  0  0  0  0  0
    5.2270   -1.5220    3.2370 O   0  0  0  0  0  0  0  0  0  0  0  0
    3.5100   -0.7540   -0.2590 C   0  0  0  0  0  0  0  0  0  0  0  0
    4.1170   -1.0390   -1.4920 C   0  0  0  0  0  0  0  0  0  0  0  0
    3.2320   -0.7390   -2.4590 N   0  0  0  0  0  0  0  0  0  0  0  0
    2.0970   -0.2770   -1.8540 C   0  0  0  0  0  0  0  0  0  0  0  0
    2.2560   -0.2810   -0.4900 C   0  0  0  0  0  0  0  0  0  0  0  0
    1.3030    0.1310    0.4560 N   0  0  0  0  0  0  0  0  0  0  0  0
   -0.0290    0.6030    0.0680 C   0  0  2  0  0  0  0  0  0  0  0  0
   -0.8250    1.0260    1.2850 C   0  0  0  0  0  0  0  0  0  0  0  0
   -1.8480    2.0370    0.7940 C   0  0  0  0  0  0  0  0  0  0  0  0
   -3.0610    2.0900    1.6840 C   0  0  0  0  0  0  0  0  0  0  0  0
   -4.1850    2.2060    0.8490 O   0  0  0  0  0  0  0  0  0  0  0  0
   -4.6970    1.0410    0.5740 O   0  0  0  0  0  0  0  0  0  0  0  0
   -4.3150    0.5650   -0.5940 O   0  0  0  0  0  0  0  0  0  0  0  0
   -4.2590   -0.8260   -0.5540 C   0  0  0  0  0  0  0  0  0  0  0  0
   -2.8940   -1.2970   -1.0400 C   0  0  0  0  0  0  0  0  0  0  0  0
   -1.9540   -0.8030   -0.1440 O   0  0  0  0  0  0  0  0  0  0  0  0
   -0.7780   -0.3910   -0.7740 C   0  0  0  0  0  0  0  0  0  0  0  0
  1  2  2  0
  2  3  1  0
  2  6  1  0
  3  4  1  0
  4  5  1  0
  6  7  2  0
  6 10  1  0
  7  8  1  0
  8  9  1  0
  9 10  2  0
 10 11  1  0
 12 11  1  1
 12 13  1  0
 12 22  1  0
 13 14  1  0
 14 15  1  0
 15 16  1  0
 16 17  1  0
 17 18  1  0
 18 19  1  0
 19 20  1  0
 20 21  1  0
 21 22  1  0
M  END
