
     RDKit          3D

 20 20  0  0  0  0  0  0  0  0999 V2000
    2.5430   -0.9540    1.1810 C   0  0  0  0  0  0  0  0  0  0  0  0
    3.0190   -0.8240   -0.1890 N   0  0  0  0  0  0  0  0  0  0  0  0
    4.3330   -1.3640   -0.4920 C   0  0  0  0  0  0  0  0  0  0  0  0
    5.3780   -0.2940   -0.2660 C   0  0  0  0  0  0  0  0  0  0  0  0
    5.3780    0.1480    1.0370 O   0  0  0  0  0  0  0  0  0  0  0  0
    2.2200   -0.1900   -1.1760 C   0  0  0  0  0  0  0  0  0  0  0  0
    2.6300   -0.0790   -2.3430 O   0  0  0  0  0  0  0  0  0  0  0  0
    0.9150    0.3260   -0.7940 C   0  0  1  0  0  0  0  0  0  0  0  0
    0.2450    0.9350   -1.8830 O   0  0  0  0  0  0  0  0  0  0  0  0
   -0.6410    1.9020   -1.4290 C   0  0  0  0  0  0  0  0  0  0  0  0
   -1.9920    1.3850   -1.0830 C   0  0  0  0  0  0  0  0  0  0  0  0
   -2.0700    0.6930    0.2530 C   0  0  1  0  0  0  0  0  0  0  0  0
   -3.5080    0.4410    0.5780 C   0  0  0  0  0  0  0  0  0  0  0  0
   -4.0380   -0.4610   -0.3490 O   0  0  0  0  0  0  0  0  0  0  0  0
   -5.6980   -0.8090   -0.0470 P   0  0  0  0  0  0  0  0  0  0  0  0
   -6.6120    0.6350    0.2740 O   0  0  0  0  0  0  0  0  0  0  0  0
   -5.8400   -1.8390    1.3280 O   0  0  0  0  0  0  0  0  0  0  0  0
   -1.2800   -0.5160    0.2960 N   0  0  0  0  0  0  0  0  0  0  0  0
   -0.0270   -0.7410   -0.3370 C   0  0  0  0  0  0  0  0  0  0  0  0
    0.2990   -1.9380   -0.5190 O   0  0  0  0  0  0  0  0  0  0  0  0
  1  2  1  0
  2  3  1  0
  2  6  1  0
  3  4  1  0
  4  5  1  0
  6  7  2  0
  8  6  1  6
  8  9  1  0
  8 19  1  0
  9 10  1  0
 10 11  1  0
 11 12  1  0
 12 13  1  6
 12 18  1  0
 13 14  1  0
 14 15  1  0
 15 16  1  0
 15 17  1  0
 18 19  1  0
 19 20  2  0
M  END
