
     RDKit          3D

 21 21  0  0  0  0  0  0  0  0999 V2000
   -6.0470    0.6990    0.7530 C   0  0  0  0  0  0  0  0  0  0  0  0
   -5.2630    0.4190   -0.5070 C   0  0  1  0  0  0  0  0  0  0  0  0
   -5.5450   -0.9700   -1.0050 C   0  0  0  0  0  0  0  0  0  0  0  0
   -5.6850    1.4840   -1.5210 C   0  0  0  0  0  0  0  0  0  0  0  0
   -3.8680    0.5780   -0.3230 O   0  0  0  0  0  0  0  0  0  0  0  0
   -3.1270   -0.1420    0.5740 C   0  0  0  0  0  0  0  0  0  0  0  0
   -3.6940   -1.0090    1.3000 O   0  0  0  0  0  0  0  0  0  0  0  0
   -1.7200    0.0130    0.7650 N   0  0  0  0  0  0  0  0  0  0  0  0
   -1.0000   -0.7850    1.7360 C   0  0  0  0  0  0  0  0  0  0  0  0
    0.4540   -0.3680    1.6770 C   0  0  0  0  0  0  0  0  0  0  0  0
    1.0930   -0.6680   -0.0010 P   0  0  0  0  0  0  0  0  0  0  0  0
   -0.0580   -0.7300   -1.2340 O   0  0  0  0  0  0  0  0  0  0  0  0
    2.5970   -0.0400   -0.3610 O   0  0  0  0  0  0  0  0  0  0  0  0
    3.6800   -0.5770    0.2860 C   0  0  1  0  0  0  0  0  0  0  0  0
    4.5910   -1.1820   -0.7910 C   0  0  0  0  0  0  0  0  0  0  0  0
    5.2960   -0.0960   -1.3310 O   0  0  0  0  0  0  0  0  0  0  0  0
    6.2950    0.2180   -0.4170 C   0  0  2  0  0  0  0  0  0  0  0  0
    6.8450    1.5060   -0.8070 N   0  0  0  0  0  0  0  0  0  0  0  0
    7.2920   -0.7590   -0.5600 O   0  0  0  0  0  0  0  0  0  0  0  0
    5.8770    0.1920    0.8890 O   0  0  0  0  0  0  0  0  0  0  0  0
    4.5080    0.4130    1.0450 C   0  0  0  0  0  0  0  0  0  0  0  0
  2  1  1  1
  2  3  1  0
  2  4  1  0
  2  5  1  0
  5  6  1  0
  6  7  2  0
  6  8  1  0
  8  9  1  0
  9 10  1  0
 10 11  1  0
 11 12  1  0
 11 13  1  0
 14 13  1  6
 14 15  1  0
 14 21  1  0
 15 16  1  0
 16 17  1  0
 17 18  1  6
 17 19  1  0
 17 20  1  0
 20 21  1  0
M  END
