
     RDKit          3D

 13 12  0  0  0  0  0  0  0  0999 V2000
    4.0740   -1.2900   -1.0370 O   0  0  0  0  0  0  0  0  0  0  0  0
    3.3770   -0.4320   -0.4420 C   0  0  0  0  0  0  0  0  0  0  0  0
    3.8980    0.8430   -0.2980 O   0  0  0  0  0  0  0  0  0  0  0  0
    2.0360   -0.7920    0.0850 C   0  0  2  0  0  0  0  0  0  0  0  0
    1.7210   -2.1150   -0.1710 O   0  0  0  0  0  0  0  0  0  0  0  0
    1.0040    0.1570   -0.5200 C   0  0  2  0  0  0  0  0  0  0  0  0
    1.3760    1.4600   -0.2290 O   0  0  0  0  0  0  0  0  0  0  0  0
   -0.3320   -0.1220    0.1360 C   0  0  0  0  0  0  0  0  0  0  0  0
   -1.3130    0.7110   -0.3010 O   0  0  0  0  0  0  0  0  0  0  0  0
   -2.7470    0.3810    0.4240 P   0  0  0  0  0  0  0  0  0  0  0  0
   -4.1520    0.5280   -0.4860 O   0  0  0  0  0  0  0  0  0  0  0  0
   -2.9360    1.8570    0.7870 O   0  0  0  0  0  0  0  0  0  0  0  0
   -2.7410   -1.0990    0.0220 O   0  0  0  0  0  0  0  0  0  0  0  0
  1  2  2  0
  2  3  1  0
  2  4  1  0
  4  5  1  6
  4  6  1  0
  6  7  1  1
  6  8  1  0
  8  9  1  0
  9 10  1  0
 10 11  1  0
 10 12  1  0
 10 13  1  0
M  END
