
     RDKit          3D

 18 18  0  0  0  0  0  0  0  0999 V2000
   -5.1710   -0.1280   -0.0110 C   0  0  0  0  0  0  0  0  0  0  0  0
   -3.8510    0.4800    0.4890 C   0  0  1  0  0  0  0  0  0  0  0  0
   -3.8560    1.9570    0.1400 C   0  0  0  0  0  0  0  0  0  0  0  0
   -3.8740    0.3700    1.9970 C   0  0  0  0  0  0  0  0  0  0  0  0
   -2.5230   -0.4170   -0.2980 S   0  0  0  0  0  0  0  0  0  0  0  0
   -0.9100    0.0650    0.2360 C   0  0  0  0  0  0  0  0  0  0  0  0
   -0.7950    0.9230    1.0920 O   0  0  0  0  0  0  0  0  0  0  0  0
    0.3020   -0.5510   -0.3290 C   0  0  1  0  0  0  0  0  0  0  0  0
    0.0690   -1.8770   -0.9770 C   0  0  0  0  0  0  0  0  0  0  0  0
    0.9990    0.3440   -1.3540 C   0  0  0  0  0  0  0  0  0  0  0  0
    2.2710   -0.2280   -1.4100 O   0  0  0  0  0  0  0  0  0  0  0  0
    2.4680   -0.9790   -0.2890 C   0  0  1  0  0  0  0  0  0  0  0  0
    3.8150   -0.7830    0.3160 C   0  0  0  0  0  0  0  0  0  0  0  0
    4.1220    0.5040    0.6960 O   0  0  0  0  0  0  0  0  0  0  0  0
    5.6880    0.4970    1.4030 P   0  0  0  0  0  0  0  0  0  0  0  0
    6.7470   -0.6830    0.7180 O   0  0  0  0  0  0  0  0  0  0  0  0
    6.4500    2.0450    1.2990 O   0  0  0  0  0  0  0  0  0  0  0  0
    1.3980   -0.5860    0.6540 N   0  0  0  0  0  0  0  0  0  0  0  0
  2  1  1  6
  2  3  1  0
  2  4  1  0
  2  5  1  0
  5  6  1  0
  6  7  2  0
  6  8  1  0
  8  9  1  6
  8 10  1  0
  8 18  1  0
 10 11  1  0
 11 12  1  0
 12 13  1  1
 12 18  1  0
 13 14  1  0
 14 15  1  0
 15 16  1  0
 15 17  1  0
M  END
