
     RDKit          3D

 35 38  0  0  0  0  0  0  0  0999 V2000
   -3.0010    2.4150    1.8910 O   0  0  0  0  0  0  0  0  0  0  0  0
   -2.3760    2.1630    0.7980 C   0  0  0  0  0  0  0  0  0  0  0  0
   -2.4460    3.0990   -0.2330 N   0  0  0  0  0  0  0  0  0  0  0  0
   -3.1680    4.3730   -0.1630 C   0  0  0  0  0  0  0  0  0  0  0  0
   -4.6290    4.0820    0.0600 C   0  0  0  0  0  0  0  0  0  0  0  0
   -5.3710    5.3550    0.1230 N   0  0  0  0  0  0  0  0  0  0  0  0
   -6.6700    4.9920    0.3250 O   0  0  0  0  0  0  0  0  0  0  0  0
   -1.6550    0.9130    0.7360 C   0  0  0  0  0  0  0  0  0  0  0  0
   -2.1080   -0.2790    1.2420 N   0  0  0  0  0  0  0  0  0  0  0  0
   -1.1920   -1.2070    1.0540 C   0  0  0  0  0  0  0  0  0  0  0  0
   -1.2280   -2.6430    1.4290 C   0  0  1  0  0  0  0  0  0  0  0  0
   -1.7160   -2.8240    2.7430 O   0  0  0  0  0  0  0  0  0  0  0  0
   -2.1800   -4.0270    2.7510 O   0  0  0  0  0  0  0  0  0  0  0  0
   -2.6820   -4.3390    1.6090 O   0  0  0  0  0  0  0  0  0  0  0  0
   -2.2660   -3.4250    0.6600 C   0  0  2  0  0  0  0  0  0  0  0  0
   -1.7060   -4.0630   -0.5910 C   0  0  0  0  0  0  0  0  0  0  0  0
   -2.1330   -3.2910   -1.6550 O   0  0  0  0  0  0  0  0  0  0  0  0
   -3.2930   -2.6960   -1.2790 N   0  0  0  0  0  0  0  0  0  0  0  0
   -3.3570   -2.5880    0.1270 C   0  0  0  0  0  0  0  0  0  0  0  0
   -4.1720   -1.9190    0.7850 O   0  0  0  0  0  0  0  0  0  0  0  0
   -0.1830   -0.6420    0.4530 O   0  0  0  0  0  0  0  0  0  0  0  0
   -0.4100    0.6460    0.2370 C   0  0  0  0  0  0  0  0  0  0  0  0
    0.5590    1.5010   -0.4020 C   0  0  0  0  0  0  0  0  0  0  0  0
    0.4100    2.7310   -0.5520 O   0  0  0  0  0  0  0  0  0  0  0  0
    1.7670    0.9190   -0.8970 N   0  0  0  0  0  0  0  0  0  0  0  0
    2.7320    1.8220   -1.5320 C   0  0  0  0  0  0  0  0  0  0  0  0
    4.0820    1.5170   -0.8900 C   0  0  0  0  0  0  0  0  0  0  0  0
    4.6490    0.5130   -1.6540 O   0  0  0  0  0  0  0  0  0  0  0  0
    3.6280   -0.8690   -1.6470 P   0  0  0  0  0  0  0  0  0  0  0  0
    4.4030   -2.2580   -0.9660 O   0  0  0  0  0  0  0  0  0  0  0  0
    5.6310   -1.9270   -0.3660 C   0  0  0  0  0  0  0  0  0  0  0  0
    6.3860   -3.4530    0.3300 P   0  0  0  0  0  0  0  0  0  0  0  0
    8.1120   -3.4460    0.2610 O   0  0  0  0  0  0  0  0  0  0  0  0
    5.8720   -3.8000    1.9330 O   0  0  0  0  0  0  0  0  0  0  0  0
    2.0420   -0.4810   -0.7870 C   0  0  0  0  0  0  0  0  0  0  0  0
  1  2  2  0
  2  3  1  0
  2  8  1  0
  3  4  1  0
  4  5  1  0
  5  6  1  0
  6  7  1  0
  8  9  1  0
  8 22  2  0
  9 10  2  0
 11 10  1  6
 10 21  1  0
 11 12  1  0
 11 15  1  0
 12 13  1  0
 13 14  1  0
 14 15  1  0
 15 16  1  6
 15 19  1  0
 16 17  1  0
 17 18  1  0
 18 19  1  0
 19 20  2  0
 21 22  1  0
 22 23  1  0
 23 24  2  0
 23 25  1  0
 25 26  1  0
 25 35  1  0
 26 27  1  0
 27 28  1  0
 28 29  1  0
 29 30  1  0
 29 35  1  0
 30 31  1  0
 31 32  1  0
 32 33  1  0
 32 34  1  0
M  END
