
     RDKit          3D

 35 37  0  0  0  0  0  0  0  0999 V2000
    2.8690    2.2040   -0.8250 O   0  0  0  0  0  0  0  0  0  0  0  0
    2.0630    1.2330   -0.7790 C   0  0  0  0  0  0  0  0  0  0  0  0
    2.5660   -0.0390   -1.1720 N   0  0  0  0  0  0  0  0  0  0  0  0
    3.9340   -0.2200   -1.6010 C   0  0  0  0  0  0  0  0  0  0  0  0
    4.9450    0.1510   -0.5260 C   0  0  0  0  0  0  0  0  0  0  0  0
    6.2060   -0.0680   -1.0670 O   0  0  0  0  0  0  0  0  0  0  0  0
    7.4750    0.3020    0.0280 P   0  0  0  0  0  0  0  0  0  0  0  0
    7.1880    1.7540    0.9310 O   0  0  0  0  0  0  0  0  0  0  0  0
    7.7020   -1.0720    1.0620 O   0  0  0  0  0  0  0  0  0  0  0  0
    9.2720   -1.1110    1.7730 P   0  0  0  0  0  0  0  0  0  0  0  0
    9.1920   -0.3670    3.3400 O   0  0  0  0  0  0  0  0  0  0  0  0
   10.4540   -0.3100    0.7740 O   0  0  0  0  0  0  0  0  0  0  0  0
    0.6740    1.4270   -0.3390 C   0  0  1  0  0  0  0  0  0  0  0  0
   -0.3490    1.0130   -1.3690 C   0  0  0  0  0  0  0  0  0  0  0  0
   -0.9440   -0.2000   -1.0720 O   0  0  0  0  0  0  0  0  0  0  0  0
   -1.6870   -0.2170    0.0810 C   0  0  2  0  0  0  0  0  0  0  0  0
   -2.0210   -1.6090    0.4810 C   0  0  0  0  0  0  0  0  0  0  0  0
   -2.7540   -2.4190   -0.3870 N   0  0  0  0  0  0  0  0  0  0  0  0
   -4.0960   -2.1640   -0.6800 C   0  0  0  0  0  0  0  0  0  0  0  0
   -5.0340   -2.7580    0.3590 C   0  0  0  0  0  0  0  0  0  0  0  0
   -4.3750   -3.0240    1.5580 O   0  0  0  0  0  0  0  0  0  0  0  0
   -3.3860   -3.9910    1.3850 C   0  0  0  0  0  0  0  0  0  0  0  0
   -2.6520   -3.8060    0.0990 C   0  0  0  0  0  0  0  0  0  0  0  0
   -2.8950    0.6200    0.0410 C   0  0  0  0  0  0  0  0  0  0  0  0
   -3.6130    0.6330    1.0930 O   0  0  0  0  0  0  0  0  0  0  0  0
   -3.3140    1.3800   -1.0120 O   0  0  0  0  0  0  0  0  0  0  0  0
   -4.4910    2.1660   -0.9850 C   0  0  0  0  0  0  0  0  0  0  0  0
   -4.4600    3.1910    0.0790 C   0  0  0  0  0  0  0  0  0  0  0  0
   -3.5310    3.4290    0.9170 N   0  0  0  0  0  0  0  0  0  0  0  0
   -3.9180    4.4720    1.7310 O   0  0  0  0  0  0  0  0  0  0  0  0
   -5.0790    5.0460    1.2650 N   0  0  0  0  0  0  0  0  0  0  0  0
   -5.5230    4.0980    0.3190 N   0  0  0  0  0  0  0  0  0  0  0  0
   -0.8850    0.3090    1.1580 O   0  0  0  0  0  0  0  0  0  0  0  0
    0.4160    0.7130    0.9420 C   0  0  0  0  0  0  0  0  0  0  0  0
    1.3250    0.5000    1.7560 O   0  0  0  0  0  0  0  0  0  0  0  0
  1  2  2  0
  2  3  1  0
 13  2  1  6
  3  4  1  0
  4  5  1  0
  5  6  1  0
  6  7  1  0
  7  8  1  0
  7  9  1  0
  9 10  1  0
 10 11  1  0
 10 12  1  0
 13 14  1  0
 13 34  1  0
 14 15  1  0
 15 16  1  0
 16 17  1  1
 16 24  1  0
 16 33  1  0
 17 18  1  0
 18 19  1  0
 18 23  1  0
 19 20  1  0
 20 21  1  0
 21 22  1  0
 22 23  1  0
 24 25  2  0
 24 26  1  0
 26 27  1  0
 27 28  1  0
 28 29  2  0
 28 32  1  0
 29 30  1  0
 30 31  1  0
 31 32  1  0
 33 34  1  0
 34 35  2  0
M  END
