
     RDKit          3D

 35 36  0  0  0  0  0  0  0  0999 V2000
   -1.2880   -3.5360    1.6780 C   0  0  0  0  0  0  0  0  0  0  0  0
   -0.2010   -3.3050    0.7760 N   0  0  0  0  0  0  0  0  0  0  0  0
    0.8950   -4.2480    0.8770 C   0  0  0  0  0  0  0  0  0  0  0  0
    0.8390   -5.2930    1.8110 N   0  0  0  0  0  0  0  0  0  0  0  0
    1.8790   -4.1060    0.1180 O   0  0  0  0  0  0  0  0  0  0  0  0
   -0.1640   -2.2600   -0.1420 C   0  0  0  0  0  0  0  0  0  0  0  0
    0.8670   -2.2090   -0.9180 O   0  0  0  0  0  0  0  0  0  0  0  0
   -1.1020   -1.2610   -0.3330 N   0  0  0  0  0  0  0  0  0  0  0  0
   -2.2150   -1.1510    0.4960 N   0  0  0  0  0  0  0  0  0  0  0  0
   -3.6160   -0.9930    0.1740 C   0  0  0  0  0  0  0  0  0  0  0  0
   -4.4510   -1.3500    1.0390 O   0  0  0  0  0  0  0  0  0  0  0  0
   -4.0650   -0.4560   -1.0640 N   0  0  0  0  0  0  0  0  0  0  0  0
   -3.2780    0.1320   -2.1240 C   0  0  0  0  0  0  0  0  0  0  0  0
   -1.9680    0.6570   -1.6710 C   0  0  2  0  0  0  0  0  0  0  0  0
   -2.1080    1.4990   -0.5750 O   0  0  0  0  0  0  0  0  0  0  0  0
   -2.9080    2.6010   -0.8360 C   0  0  0  0  0  0  0  0  0  0  0  0
   -3.0120    3.5020    0.3850 C   0  0  0  0  0  0  0  0  0  0  0  0
   -3.5700    2.7850    1.4460 O   0  0  0  0  0  0  0  0  0  0  0  0
   -3.7170    3.7460    2.8610 P   0  0  0  0  0  0  0  0  0  0  0  0
   -2.9870    5.3170    2.6570 O   0  0  0  0  0  0  0  0  0  0  0  0
   -5.3810    4.0270    3.2990 O   0  0  0  0  0  0  0  0  0  0  0  0
   -1.3800    1.4240   -2.7010 O   0  0  0  0  0  0  0  0  0  0  0  0
   -0.0650    1.6470   -2.2310 C   0  0  0  0  0  0  0  0  0  0  0  0
    0.6730    2.6380   -2.4780 O   0  0  0  0  0  0  0  0  0  0  0  0
    0.3430    0.4830   -1.3570 C   0  0  1  0  0  0  0  0  0  0  0  0
    0.6960    0.9290    0.0190 C   0  0  0  0  0  0  0  0  0  0  0  0
    1.7340    1.8410    0.0970 O   0  0  0  0  0  0  0  0  0  0  0  0
    2.9450    1.4210   -0.3910 C   0  0  0  0  0  0  0  0  0  0  0  0
    3.5050    0.1930    0.3060 C   0  0  0  0  0  0  0  0  0  0  0  0
    4.8520   -0.1340   -0.3550 C   0  0  0  0  0  0  0  0  0  0  0  0
    5.3420   -1.2610    0.3020 O   0  0  0  0  0  0  0  0  0  0  0  0
    6.8650   -1.7660   -0.3270 P   0  0  0  0  0  0  0  0  0  0  0  0
    6.8430   -1.7350   -2.0590 O   0  0  0  0  0  0  0  0  0  0  0  0
    8.1730   -0.8020    0.2660 O   0  0  0  0  0  0  0  0  0  0  0  0
   -0.8900   -0.3590   -1.4650 C   0  0  1  0  0  0  0  0  0  0  0  0
  1  2  1  0
  2  3  1  0
  2  6  1  0
  3  4  1  0
  3  5  2  0
  6  7  2  0
  6  8  1  0
  8  9  1  0
 35  8  1  1
  9 10  1  0
 10 11  2  0
 10 12  1  0
 12 13  1  0
 13 14  1  0
 14 15  1  1
 14 22  1  0
 14 35  1  0
 15 16  1  0
 16 17  1  0
 17 18  1  0
 18 19  1  0
 19 20  1  0
 19 21  1  0
 22 23  1  0
 23 24  2  0
 23 25  1  0
 25 26  1  1
 25 35  1  0
 26 27  1  0
 27 28  1  0
 28 29  1  0
 29 30  1  0
 30 31  1  0
 31 32  1  0
 32 33  1  0
 32 34  1  0
M  END
