
     RDKit          3D

 35 38  0  0  0  0  0  0  0  0999 V2000
   -2.2890   -6.5260    0.3970 N   0  0  0  0  0  0  0  0  0  0  0  0
   -2.0980   -5.3650   -0.3620 C   0  0  0  0  0  0  0  0  0  0  0  0
   -3.1200   -4.8790   -1.0050 O   0  0  0  0  0  0  0  0  0  0  0  0
   -0.8250   -4.6490   -0.4740 C   0  0  0  0  0  0  0  0  0  0  0  0
   -1.1520   -3.4040   -1.2050 N   0  0  0  0  0  0  0  0  0  0  0  0
   -1.9750   -2.5560   -0.2990 C   0  0  0  0  0  0  0  0  0  0  0  0
   -1.0980   -1.4100   -0.5680 C   0  0  1  0  0  0  0  0  0  0  0  0
   -1.5690   -0.4230   -1.6020 C   0  0  0  0  0  0  0  0  0  0  0  0
   -0.6790    0.6840   -1.5980 O   0  0  0  0  0  0  0  0  0  0  0  0
   -0.4630    1.6350   -0.5730 C   0  0  0  0  0  0  0  0  0  0  0  0
    0.2080    2.6560   -0.8580 O   0  0  0  0  0  0  0  0  0  0  0  0
   -0.9460    1.5290    0.8040 C   0  0  1  0  0  0  0  0  0  0  0  0
   -2.2680    2.2820    0.7780 C   0  0  0  0  0  0  0  0  0  0  0  0
   -2.4690    3.3780    1.5210 N   0  0  0  0  0  0  0  0  0  0  0  0
   -3.7080    3.8340    1.2840 C   0  0  0  0  0  0  0  0  0  0  0  0
   -4.3010    2.9580    0.3650 C   0  0  0  0  0  0  0  0  0  0  0  0
   -3.3380    2.0770    0.1290 O   0  0  0  0  0  0  0  0  0  0  0  0
   -5.5630    3.2260    0.0170 N   0  0  0  0  0  0  0  0  0  0  0  0
   -6.2650    4.2010    0.5950 O   0  0  0  0  0  0  0  0  0  0  0  0
   -5.0620    5.0320    1.5130 P   0  0  0  0  0  0  0  0  0  0  0  0
   -4.6510    6.5660    0.7630 O   0  0  0  0  0  0  0  0  0  0  0  0
   -1.0810    0.2200    1.2530 O   0  0  0  0  0  0  0  0  0  0  0  0
   -0.3680   -0.7390    0.5720 C   0  0  2  0  0  0  0  0  0  0  0  0
    0.9380   -0.2900    0.1270 C   0  0  0  0  0  0  0  0  0  0  0  0
    1.4430   -0.8160   -0.9260 O   0  0  0  0  0  0  0  0  0  0  0  0
    1.7740    0.6920    0.7160 N   0  0  0  0  0  0  0  0  0  0  0  0
    2.9620    1.0440    0.0500 C   0  0  0  0  0  0  0  0  0  0  0  0
    4.0930    0.0250   -0.0630 C   0  0  0  0  0  0  0  0  0  0  0  0
    5.0480    0.7130   -0.8600 O   0  0  0  0  0  0  0  0  0  0  0  0
    6.5510    0.9330    0.0390 P   0  0  0  0  0  0  0  0  0  0  0  0
    6.6790   -0.1700    1.3900 O   0  0  0  0  0  0  0  0  0  0  0  0
    6.2890    2.5880    0.7730 O   0  0  0  0  0  0  0  0  0  0  0  0
    6.5280    3.4910   -0.1390 O   0  0  0  0  0  0  0  0  0  0  0  0
    7.5510    3.1920   -0.9250 O   0  0  0  0  0  0  0  0  0  0  0  0
   -0.1040   -2.4540   -1.1570 C   0  0  0  0  0  0  0  0  0  0  0  0
  1  2  1  0
  2  3  2  0
  2  4  1  0
  4  5  1  0
  5  6  1  0
  5 35  1  0
  7  6  1  1
  7  8  1  0
  7 23  1  0
  7 35  1  0
  8  9  1  0
  9 10  1  0
 10 11  2  0
 10 12  1  0
 12 13  1  6
 12 22  1  0
 13 14  2  0
 13 17  1  0
 14 15  1  0
 15 16  2  0
 15 20  1  0
 16 17  1  0
 16 18  1  0
 18 19  1  0
 19 20  1  0
 20 21  1  0
 22 23  1  0
 23 24  1  6
 24 25  2  0
 24 26  1  0
 26 27  1  0
 27 28  1  0
 28 29  1  0
 29 30  1  0
 30 31  1  0
 30 32  1  0
 32 33  1  0
 33 34  1  0
M  END
