
     RDKit          3D

 35 39  0  0  0  0  0  0  0  0999 V2000
    1.0830   -0.2720   -0.7990 O   0  0  0  0  0  0  0  0  0  0  0  0
    0.7550   -0.6500    0.3450 C   0  0  0  0  0  0  0  0  0  0  0  0
    1.6190   -1.2780    1.1670 O   0  0  0  0  0  0  0  0  0  0  0  0
    2.9390   -1.5700    0.8740 C   0  0  0  0  0  0  0  0  0  0  0  0
    3.8130   -0.3780    0.6810 C   0  0  2  0  0  0  0  0  0  0  0  0
    3.4370    0.4630   -0.3720 O   0  0  0  0  0  0  0  0  0  0  0  0
    4.6100    0.9480   -0.9820 C   0  0  0  0  0  0  0  0  0  0  0  0
    5.1210    1.9090   -1.7470 N   0  0  0  0  0  0  0  0  0  0  0  0
    6.4030    1.7000   -1.9220 N   0  0  0  0  0  0  0  0  0  0  0  0
    6.7690    0.5850   -1.2700 C   0  0  0  0  0  0  0  0  0  0  0  0
    8.0750    0.0300   -1.2210 N   0  0  0  0  0  0  0  0  0  0  0  0
    9.2070    0.5180    0.0700 P   0  0  0  0  0  0  0  0  0  0  0  0
   10.0970    1.9220   -0.4770 O   0  0  0  0  0  0  0  0  0  0  0  0
   10.2770   -0.7700    0.4790 O   0  0  0  0  0  0  0  0  0  0  0  0
    5.6290    0.1200   -0.6810 N   0  0  0  0  0  0  0  0  0  0  0  0
    5.1160   -0.9160    0.1340 C   0  0  0  0  0  0  0  0  0  0  0  0
    5.6550   -2.0160    0.3300 O   0  0  0  0  0  0  0  0  0  0  0  0
   -0.6530   -0.3660    0.7500 C   0  0  0  0  0  0  0  0  0  0  0  0
   -1.0510   -0.7680    2.0040 C   0  0  0  0  0  0  0  0  0  0  0  0
   -2.3340   -0.5090    2.3750 N   0  0  0  0  0  0  0  0  0  0  0  0
   -3.2050    0.1170    1.5610 C   0  0  0  0  0  0  0  0  0  0  0  0
   -2.8440    0.5400    0.2860 C   0  0  0  0  0  0  0  0  0  0  0  0
   -1.5360    0.2730   -0.0830 C   0  0  0  0  0  0  0  0  0  0  0  0
   -3.9350    1.1480   -0.3180 O   0  0  0  0  0  0  0  0  0  0  0  0
   -5.0000    1.0490    0.5880 C   0  0  1  0  0  0  0  0  0  0  0  0
   -5.5760    2.3980    0.9550 C   0  0  0  0  0  0  0  0  0  0  0  0
   -6.3600    2.8350   -0.0880 O   0  0  0  0  0  0  0  0  0  0  0  0
   -7.3780    1.9610   -0.4190 C   0  0  0  0  0  0  0  0  0  0  0  0
   -7.2970    0.7570    0.2760 O   0  0  0  0  0  0  0  0  0  0  0  0
   -6.0690    0.1770   -0.0360 C   0  0  2  0  0  0  0  0  0  0  0  0
   -5.9480   -1.0910    0.5070 O   0  0  0  0  0  0  0  0  0  0  0  0
   -5.5930   -2.2970   -0.6890 P   0  0  0  0  0  0  0  0  0  0  0  0
   -6.0360   -1.7400   -2.2750 O   0  0  0  0  0  0  0  0  0  0  0  0
   -6.4750   -3.7310   -0.2530 O   0  0  0  0  0  0  0  0  0  0  0  0
   -4.5240    0.4570    1.7660 O   0  0  0  0  0  0  0  0  0  0  0  0
  1  2  2  0
  2  3  1  0
  2 18  1  0
  3  4  1  0
  5  4  1  6
  5  6  1  0
  5 16  1  0
  6  7  1  0
  7  8  2  0
  7 15  1  0
  8  9  1  0
  9 10  2  0
 10 11  1  0
 10 15  1  0
 11 12  1  0
 12 13  1  0
 12 14  1  0
 15 16  1  0
 16 17  2  0
 18 19  2  0
 18 23  1  0
 19 20  1  0
 20 21  2  0
 21 22  1  0
 21 35  1  0
 22 23  2  0
 22 24  1  0
 24 25  1  0
 25 26  1  1
 25 30  1  0
 25 35  1  0
 26 27  1  0
 27 28  1  0
 28 29  1  0
 29 30  1  0
 30 31  1  1
 31 32  1  0
 32 33  1  0
 32 34  1  0
M  END
