
     RDKit          3D

 36 38  0  0  0  0  0  0  0  0999 V2000
   -8.8870   -0.3640   -1.3040 N   0  0  0  0  0  0  0  0  0  0  0  0
   -8.2620    0.2660   -0.4490 C   0  0  0  0  0  0  0  0  0  0  0  0
   -6.8890    0.1440   -0.5920 N   0  0  0  0  0  0  0  0  0  0  0  0
   -5.8440    0.0400    0.2950 C   0  0  0  0  0  0  0  0  0  0  0  0
   -6.2500    0.0040    1.4660 O   0  0  0  0  0  0  0  0  0  0  0  0
   -4.4430   -0.0410   -0.1420 C   0  0  0  0  0  0  0  0  0  0  0  0
   -3.7910   -0.6440    0.9240 O   0  0  0  0  0  0  0  0  0  0  0  0
   -2.4970   -1.0030    0.9660 C   0  0  0  0  0  0  0  0  0  0  0  0
   -2.0160   -1.6010    2.1090 C   0  0  0  0  0  0  0  0  0  0  0  0
   -0.7180   -1.9860    2.2010 N   0  0  0  0  0  0  0  0  0  0  0  0
    0.1400   -1.7960    1.1820 C   0  0  0  0  0  0  0  0  0  0  0  0
   -0.2980   -1.1990    0.0190 C   0  0  0  0  0  0  0  0  0  0  0  0
   -1.6290   -0.8030   -0.0800 C   0  0  0  0  0  0  0  0  0  0  0  0
    0.7850   -1.1370   -0.8350 O   0  0  0  0  0  0  0  0  0  0  0  0
    1.7450   -2.0590   -0.3520 C   0  0  1  0  0  0  0  0  0  0  0  0
    1.5100   -3.3610   -1.0380 C   0  0  0  0  0  0  0  0  0  0  0  0
    2.4730   -3.2610   -2.1050 O   0  0  0  0  0  0  0  0  0  0  0  0
    3.4730   -2.4130   -1.7010 N   0  0  0  0  0  0  0  0  0  0  0  0
    3.1140   -1.6970   -0.6970 C   0  0  0  0  0  0  0  0  0  0  0  0
    3.9740   -0.7630   -0.1180 O   0  0  0  0  0  0  0  0  0  0  0  0
    5.2630   -0.5320   -0.5680 C   0  0  0  0  0  0  0  0  0  0  0  0
    5.6750   -1.2000   -1.5500 O   0  0  0  0  0  0  0  0  0  0  0  0
    6.1760    0.4710    0.0590 C   0  0  1  0  0  0  0  0  0  0  0  0
    6.6300    1.5020   -0.9520 C   0  0  0  0  0  0  0  0  0  0  0  0
    7.2440    0.8780   -2.0420 O   0  0  0  0  0  0  0  0  0  0  0  0
    7.7700    2.0400   -3.2100 P   0  0  0  0  0  0  0  0  0  0  0  0
    9.4290    2.4430   -3.0380 O   0  0  0  0  0  0  0  0  0  0  0  0
    6.8400    3.5160   -3.0180 O   0  0  0  0  0  0  0  0  0  0  0  0
    5.5770    1.1130    1.1190 O   0  0  0  0  0  0  0  0  0  0  0  0
    6.3120    0.9190    2.2840 C   0  0  0  0  0  0  0  0  0  0  0  0
    6.4110   -0.4360    2.5980 O   0  0  0  0  0  0  0  0  0  0  0  0
    1.4890   -2.0960    1.0320 O   0  0  0  0  0  0  0  0  0  0  0  0
   -9.0560    1.2550    0.2410 N   0  0  0  0  0  0  0  0  0  0  0  0
  -10.6100    0.8720    0.9830 P   0  0  0  0  0  0  0  0  0  0  0  0
  -10.4900    0.7280    2.7000 O   0  0  0  0  0  0  0  0  0  0  0  0
  -11.7210    2.1400    0.5920 O   0  0  0  0  0  0  0  0  0  0  0  0
  1  2  2  0
  2  3  1  0
  2 33  1  0
  3  4  1  0
  4  5  2  0
  4  6  1  0
  6  7  1  0
  7  8  1  0
  8  9  2  0
  8 13  1  0
  9 10  1  0
 10 11  2  0
 11 12  1  0
 11 32  1  0
 12 13  2  0
 12 14  1  0
 14 15  1  0
 15 16  1  6
 15 19  1  0
 15 32  1  0
 16 17  1  0
 17 18  1  0
 18 19  2  0
 19 20  1  0
 20 21  1  0
 21 22  2  0
 21 23  1  0
 23 24  1  6
 23 29  1  0
 24 25  1  0
 25 26  1  0
 26 27  1  0
 26 28  1  0
 29 30  1  0
 30 31  1  0
 33 34  1  0
 34 35  1  0
 34 36  1  0
M  END
