
     RDKit          3D

 35 37  0  0  0  0  0  0  0  0999 V2000
    6.3310   -0.5490    3.6320 N   0  0  0  0  0  0  0  0  0  0  0  0
    5.5280   -0.2040    2.5090 C   0  0  0  0  0  0  0  0  0  0  0  0
    4.1990   -0.3930    2.5160 N   0  0  0  0  0  0  0  0  0  0  0  0
    3.4010   -0.0740    1.4590 C   0  0  0  0  0  0  0  0  0  0  0  0
    3.9510    0.4630    0.3280 C   0  0  0  0  0  0  0  0  0  0  0  0
    3.2050    0.8750   -0.8690 C   0  0  0  0  0  0  0  0  0  0  0  0
    1.8260    0.6100   -0.8330 O   0  0  0  0  0  0  0  0  0  0  0  0
    1.4030   -0.7080   -0.7610 C   0  0  0  0  0  0  0  0  0  0  0  0
    2.2830   -1.6060   -0.7460 O   0  0  0  0  0  0  0  0  0  0  0  0
    0.0250   -1.0620   -0.7060 N   0  0  0  0  0  0  0  0  0  0  0  0
   -0.3240   -2.4640   -0.6330 C   0  0  0  0  0  0  0  0  0  0  0  0
   -1.3980   -2.6960   -1.7030 C   0  0  1  0  0  0  0  0  0  0  0  0
   -1.7310   -4.0620   -1.7120 O   0  0  0  0  0  0  0  0  0  0  0  0
   -2.5760   -1.8590   -1.3900 C   0  0  0  0  0  0  0  0  0  0  0  0
   -3.6820   -2.2500   -1.6940 O   0  0  0  0  0  0  0  0  0  0  0  0
   -2.4700   -0.5370   -0.7070 C   0  0  2  0  0  0  0  0  0  0  0  0
   -2.9890   -0.6170    0.6650 C   0  0  0  0  0  0  0  0  0  0  0  0
   -2.2260   -0.3550    1.6260 O   0  0  0  0  0  0  0  0  0  0  0  0
   -4.2940   -0.9710    0.9610 O   0  0  0  0  0  0  0  0  0  0  0  0
   -4.8780   -1.0550    2.6310 P   0  0  0  0  0  0  0  0  0  0  0  0
   -4.3300   -2.4850    3.4240 O   0  0  0  0  0  0  0  0  0  0  0  0
   -6.5870   -0.8560    2.7100 O   0  0  0  0  0  0  0  0  0  0  0  0
   -3.1950    0.5590   -1.4660 C   0  0  0  0  0  0  0  0  0  0  0  0
   -3.0310    1.7240   -0.7230 O   0  0  0  0  0  0  0  0  0  0  0  0
   -1.7420    2.1900   -0.7580 C   0  0  1  0  0  0  0  0  0  0  0  0
   -1.4460    3.0210   -1.9880 C   0  0  0  0  0  0  0  0  0  0  0  0
   -2.3440    4.0810   -2.1180 O   0  0  0  0  0  0  0  0  0  0  0  0
   -2.0990    4.7990   -3.1670 O   0  0  0  0  0  0  0  0  0  0  0  0
   -1.4660    3.3320    0.7090 P   0  0  0  0  0  0  0  0  0  0  0  0
   -0.5590    2.9480    1.8850 O   0  0  0  0  0  0  0  0  0  0  0  0
   -0.7340    1.1230   -0.7430 N   0  0  0  0  0  0  0  0  0  0  0  0
   -1.0240   -0.1090   -0.7190 C   0  0  0  0  0  0  0  0  0  0  0  0
    5.3330    0.6580    0.3280 C   0  0  0  0  0  0  0  0  0  0  0  0
    5.8780    1.1540   -0.7010 O   0  0  0  0  0  0  0  0  0  0  0  0
    6.0660    0.3250    1.3990 N   0  0  0  0  0  0  0  0  0  0  0  0
  1  2  1  0
  2  3  2  0
  2 35  1  0
  3  4  1  0
  4  5  2  0
  5  6  1  0
  5 33  1  0
  6  7  1  0
  7  8  1  0
  8  9  2  0
  8 10  1  0
 10 11  1  0
 10 32  1  0
 11 12  1  0
 12 13  1  1
 12 14  1  0
 14 15  2  0
 14 16  1  0
 16 17  1  1
 16 23  1  0
 16 32  1  0
 17 18  2  0
 17 19  1  0
 19 20  1  0
 20 21  1  0
 20 22  1  0
 23 24  1  0
 24 25  1  0
 25 26  1  6
 25 29  1  0
 25 31  1  0
 26 27  1  0
 27 28  1  0
 29 30  2  0
 31 32  2  0
 33 34  2  0
 33 35  1  0
M  END
