
     RDKit          3D

 21 22  0  0  0  0  0  0  0  0999 V2000
    4.7240    3.9610   -0.0930 O   0  0  0  0  0  0  0  0  0  0  0  0
    5.2600    2.4150   -0.0580 P   0  0  0  0  0  0  0  0  0  0  0  0
    4.1210    1.3870   -0.8110 O   0  0  0  0  0  0  0  0  0  0  0  0
    3.7540    0.2780   -0.1020 C   0  0  0  0  0  0  0  0  0  0  0  0
    2.2080    0.4710   -0.0120 C   0  0  0  0  0  0  0  0  0  0  0  0
    1.4030   -0.5950    0.3170 N   0  0  0  0  0  0  0  0  0  0  0  0
    1.3680   -1.4640    1.4110 C   0  0  0  0  0  0  0  0  0  0  0  0
    2.3660   -1.3830    2.2170 O   0  0  0  0  0  0  0  0  0  0  0  0
    0.3490   -2.3250    1.5530 O   0  0  0  0  0  0  0  0  0  0  0  0
   -0.7940   -2.4920    0.7270 C   0  0  0  0  0  0  0  0  0  0  0  0
   -1.4780   -3.3840    0.4040 O   0  0  0  0  0  0  0  0  0  0  0  0
   -1.0770   -1.0780    0.1420 C   0  0  2  0  0  0  0  0  0  0  0  0
   -1.3570   -0.1890    1.3270 C   0  0  0  0  0  0  0  0  0  0  0  0
   -2.2940    0.7270    0.8890 O   0  0  0  0  0  0  0  0  0  0  0  0
   -2.6600    0.4140   -0.4000 C   0  0  2  0  0  0  0  0  0  0  0  0
   -4.0670    0.6510   -0.6430 C   0  0  0  0  0  0  0  0  0  0  0  0
   -5.0010   -0.1070   -0.5850 O   0  0  0  0  0  0  0  0  0  0  0  0
   -4.4140    2.0270   -0.9670 O   0  0  0  0  0  0  0  0  0  0  0  0
   -2.1920   -0.9440   -0.7010 N   0  0  0  0  0  0  0  0  0  0  0  0
    0.2290   -0.7530   -0.6150 C   0  0  0  0  0  0  0  0  0  0  0  0
    0.2150   -0.6190   -1.7500 O   0  0  0  0  0  0  0  0  0  0  0  0
  1  2  2  0
  2  3  1  0
  3  4  1  0
  4  5  1  0
  5  6  1  0
  6  7  1  0
  6 20  1  0
  7  8  2  0
  7  9  1  0
  9 10  1  0
 10 11  2  0
 10 12  1  0
 12 13  1  1
 12 19  1  0
 12 20  1  0
 13 14  1  0
 14 15  1  0
 15 16  1  1
 15 19  1  0
 16 17  2  0
 16 18  1  0
 20 21  2  0
M  END
