
     RDKit          3D

 27 29  0  0  0  0  0  0  0  0999 V2000
   -7.4440    0.2270    0.2230 N   0  0  0  0  0  0  0  0  0  0  0  0
   -6.1160   -0.2250    0.1460 C   0  0  0  0  0  0  0  0  0  0  0  0
   -5.8260   -1.5440    0.2910 N   0  0  0  0  0  0  0  0  0  0  0  0
   -4.5600   -2.0000    0.2210 C   0  0  0  0  0  0  0  0  0  0  0  0
   -3.5390   -1.1300    0.0010 N   0  0  0  0  0  0  0  0  0  0  0  0
   -3.8190    0.1790   -0.1440 C   0  0  0  0  0  0  0  0  0  0  0  0
   -5.1140    0.6780   -0.0770 C   0  0  0  0  0  0  0  0  0  0  0  0
   -5.0500    2.0030   -0.2590 N   0  0  0  0  0  0  0  0  0  0  0  0
   -3.7400    2.3190   -0.4360 C   0  0  0  0  0  0  0  0  0  0  0  0
   -3.0060    1.2040   -0.3630 N   0  0  0  0  0  0  0  0  0  0  0  0
   -1.5690    1.1860   -0.5090 C   0  0  2  0  0  0  0  0  0  0  0  0
   -1.0840   -0.1360   -0.5280 O   0  0  0  0  0  0  0  0  0  0  0  0
    0.2760    0.0670   -0.4270 C   0  0  2  0  0  0  0  0  0  0  0  0
    1.0350   -1.1920   -0.0520 C   0  0  0  0  0  0  0  0  0  0  0  0
    2.3610   -0.8840    0.0220 O   0  0  0  0  0  0  0  0  0  0  0  0
    3.3260   -2.1410    0.4190 P   0  0  0  0  0  0  0  0  0  0  0  0
    4.6270   -1.8750    1.4750 O   0  0  0  0  0  0  0  0  0  0  0  0
    2.9700   -3.6540   -0.0400 O   0  0  0  0  0  0  0  0  0  0  0  0
    4.2960   -1.7970   -0.7150 O   0  0  0  0  0  0  0  0  0  0  0  0
    4.9580   -0.3000   -0.6770 P   0  0  0  0  0  0  0  0  0  0  0  0
    5.1520    0.4610    0.7670 O   0  0  0  0  0  0  0  0  0  0  0  0
    6.3730   -0.8550   -0.7150 O   0  0  0  0  0  0  0  0  0  0  0  0
    5.2160    0.5190   -2.1120 O   0  0  0  0  0  0  0  0  0  0  0  0
    0.4200    1.0330    0.7390 C   0  0  1  0  0  0  0  0  0  0  0  0
    1.4490    1.9220    0.4970 O   0  0  0  0  0  0  0  0  0  0  0  0
   -0.9370    1.7060    0.7760 C   0  0  1  0  0  0  0  0  0  0  0  0
   -0.8540    3.0810    0.7940 O   0  0  0  0  0  0  0  0  0  0  0  0
  1  2  1  0
  2  3  2  0
  2  7  1  0
  3  4  1  0
  4  5  2  0
  5  6  1  0
  6  7  2  0
  6 10  1  0
  7  8  1  0
  8  9  2  0
  9 10  1  0
 11 10  1  1
 11 12  1  0
 11 26  1  0
 12 13  1  0
 13 14  1  1
 13 24  1  0
 14 15  1  0
 15 16  1  0
 16 17  1  0
 16 18  1  0
 16 19  1  0
 19 20  1  0
 20 21  1  0
 20 22  1  0
 20 23  1  0
 24 25  1  6
 24 26  1  0
 26 27  1  6
M  END
