
     RDKit          3D

 20 21  0  0  0  0  0  0  0  0999 V2000
   -3.3540    2.2430    0.9490 O   0  0  0  0  0  0  0  0  0  0  0  0
   -3.1640    1.1940    0.2850 C   0  0  0  0  0  0  0  0  0  0  0  0
   -4.1180    0.7490   -0.6810 N   0  0  0  0  0  0  0  0  0  0  0  0
   -4.2590   -0.6880   -0.9190 C   0  0  0  0  0  0  0  0  0  0  0  0
   -3.6440   -1.3640    0.2820 C   0  0  2  0  0  0  0  0  0  0  0  0
   -4.0950   -0.8040    1.4910 O   0  0  0  0  0  0  0  0  0  0  0  0
   -2.1320   -1.0290    0.2520 C   0  0  0  0  0  0  0  0  0  0  0  0
   -1.9800    0.3890    0.4680 N   0  0  0  0  0  0  0  0  0  0  0  0
   -0.8130    1.0850    0.7600 C   0  0  0  0  0  0  0  0  0  0  0  0
   -0.8250    2.3410    1.0570 O   0  0  0  0  0  0  0  0  0  0  0  0
    0.5480    0.4880    0.7630 C   0  0  0  0  0  0  0  0  0  0  0  0
    0.9370   -0.7250    0.4780 C   0  0  0  0  0  0  0  0  0  0  0  0
    2.2920   -0.7820    0.6200 O   0  0  0  0  0  0  0  0  0  0  0  0
    2.8310    0.4960    0.7340 C   0  0  1  0  0  0  0  0  0  0  0  0
    3.3390    0.8830   -0.6870 C   0  0  0  0  0  0  0  0  0  0  0  0
    4.0060   -0.2970   -1.0020 O   0  0  0  0  0  0  0  0  0  0  0  0
    5.6400   -0.2770   -0.5090 P   0  0  0  0  0  0  0  0  0  0  0  0
    6.1250    1.1580    0.3560 O   0  0  0  0  0  0  0  0  0  0  0  0
    5.8930   -1.7120    0.5400 O   0  0  0  0  0  0  0  0  0  0  0  0
    1.6890    1.2670    1.0950 O   0  0  0  0  0  0  0  0  0  0  0  0
  1  2  2  0
  2  3  1  0
  2  8  1  0
  3  4  1  0
  4  5  1  0
  5  6  1  1
  5  7  1  0
  7  8  1  0
  8  9  1  0
  9 10  2  0
  9 11  1  0
 11 12  2  0
 11 20  1  0
 12 13  1  0
 13 14  1  0
 14 15  1  6
 14 20  1  0
 15 16  1  0
 16 17  1  0
 17 18  1  0
 17 19  1  0
M  END
