
     RDKit          3D

 20 21  0  0  0  0  0  0  0  0999 V2000
   -4.9310   -1.6100   -1.9430 O   0  0  0  0  0  0  0  0  0  0  0  0
   -4.4290   -0.6140   -1.3890 C   0  0  0  0  0  0  0  0  0  0  0  0
   -5.1730    0.3490   -0.6570 N   0  0  0  0  0  0  0  0  0  0  0  0
   -4.2200    1.2880   -0.1270 C   0  0  0  0  0  0  0  0  0  0  0  0
   -3.0720    1.1520   -1.1230 C   0  0  1  0  0  0  0  0  0  0  0  0
   -1.7810    1.5700   -0.5290 C   0  0  0  0  0  0  0  0  0  0  0  0
   -1.5630    2.7590   -0.2310 O   0  0  0  0  0  0  0  0  0  0  0  0
   -0.7990    0.6400   -0.2980 O   0  0  0  0  0  0  0  0  0  0  0  0
    0.4610    0.9050    0.2560 C   0  0  1  0  0  0  0  0  0  0  0  0
    0.7500    0.1200    1.4680 C   0  0  0  0  0  0  0  0  0  0  0  0
    0.5130    0.4530    2.6090 O   0  0  0  0  0  0  0  0  0  0  0  0
    1.3810   -1.1400    1.0060 C   0  0  0  0  0  0  0  0  0  0  0  0
    1.9830   -0.7660   -0.2630 N   0  0  0  0  0  0  0  0  0  0  0  0
    2.8810   -1.5650   -1.0930 C   0  0  0  0  0  0  0  0  0  0  0  0
    4.6480   -1.2960   -0.6580 P   0  0  0  0  0  0  0  0  0  0  0  0
    4.9270    0.3900   -0.3360 O   0  0  0  0  0  0  0  0  0  0  0  0
    5.1560   -2.2590    0.6860 O   0  0  0  0  0  0  0  0  0  0  0  0
    1.5790    0.5460   -0.6360 C   0  0  0  0  0  0  0  0  0  0  0  0
    2.0690    1.2650   -1.5420 O   0  0  0  0  0  0  0  0  0  0  0  0
   -3.0710   -0.2400   -1.3690 O   0  0  0  0  0  0  0  0  0  0  0  0
  1  2  2  0
  2  3  1  0
  2 20  1  0
  3  4  1  0
  4  5  1  0
  5  6  1  1
  5 20  1  0
  6  7  2  0
  6  8  1  0
  9  8  1  6
  9 10  1  0
  9 18  1  0
 10 11  2  0
 10 12  1  0
 12 13  1  0
 13 14  1  0
 13 18  1  0
 14 15  1  0
 15 16  1  0
 15 17  1  0
 18 19  2  0
M  END
