
     RDKit          3D

 20 20  0  0  0  0  0  0  0  0999 V2000
   -2.8190   -2.0020   -1.5650 N   0  0  0  0  0  0  0  0  0  0  0  0
   -2.6330   -0.9710   -0.5270 C   0  0  2  0  0  0  0  0  0  0  0  0
   -3.1100    0.3570   -1.0210 C   0  0  0  0  0  0  0  0  0  0  0  0
   -3.7240    1.1000   -0.0410 O   0  0  0  0  0  0  0  0  0  0  0  0
   -3.1940    0.8160    1.5140 P   0  0  0  0  0  0  0  0  0  0  0  0
   -2.9320    2.1090    2.5370 O   0  0  0  0  0  0  0  0  0  0  0  0
   -2.6700   -0.7030    1.9590 O   0  0  0  0  0  0  0  0  0  0  0  0
   -1.3450   -0.9980    1.5640 C   0  0  0  0  0  0  0  0  0  0  0  0
   -1.2610   -1.0070    0.0330 C   0  0  1  0  0  0  0  0  0  0  0  0
   -0.6770   -2.2210   -0.3960 O   0  0  0  0  0  0  0  0  0  0  0  0
   -0.3900    0.1400   -0.3290 C   0  0  0  0  0  0  0  0  0  0  0  0
   -0.7050    1.3090   -0.0230 O   0  0  0  0  0  0  0  0  0  0  0  0
    0.8310   -0.0280   -1.0340 N   0  0  0  0  0  0  0  0  0  0  0  0
    1.7200    1.0640   -1.4070 C   0  0  0  0  0  0  0  0  0  0  0  0
    2.2030    1.7790   -0.1900 C   0  0  0  0  0  0  0  0  0  0  0  0
    2.9720    1.0300    0.8210 C   0  0  0  0  0  0  0  0  0  0  0  0
    4.1740    0.4980    0.4730 O   0  0  0  0  0  0  0  0  0  0  0  0
    4.5470   -0.4830   -0.3510 C   0  0  0  0  0  0  0  0  0  0  0  0
    3.7200   -1.1440   -0.9910 O   0  0  0  0  0  0  0  0  0  0  0  0
    5.9040   -0.8490   -0.5600 O   0  0  0  0  0  0  0  0  0  0  0  0
  2  1  1  6
  2  3  1  0
  2  9  1  0
  3  4  1  0
  4  5  1  0
  5  6  1  0
  5  7  1  0
  7  8  1  0
  8  9  1  0
  9 10  1  1
  9 11  1  0
 11 12  2  0
 11 13  1  0
 13 14  1  0
 14 15  1  0
 15 16  1  0
 16 17  1  0
 17 18  1  0
 18 19  2  0
 18 20  1  0
M  END
