
     RDKit          3D

 21 22  0  0  0  0  0  0  0  0999 V2000
    0.6830    1.5310    0.1900 O   0  0  0  0  0  0  0  0  0  0  0  0
    0.4870    0.2950    0.7190 C   0  0  0  0  0  0  0  0  0  0  0  0
    1.6870   -0.2410    1.1400 O   0  0  0  0  0  0  0  0  0  0  0  0
    2.8090    0.5470    0.9730 C   0  0  0  0  0  0  0  0  0  0  0  0
    3.5390    0.4480   -0.3280 C   0  0  0  0  0  0  0  0  0  0  0  0
    3.9280   -0.9710   -0.2700 O   0  0  0  0  0  0  0  0  0  0  0  0
    5.6080   -0.9640   -0.3130 P   0  0  0  0  0  0  0  0  0  0  0  0
    6.3200    0.5270    0.0070 O   0  0  0  0  0  0  0  0  0  0  0  0
    6.4670   -2.2060   -0.8830 O   0  0  0  0  0  0  0  0  0  0  0  0
   -0.8140   -0.0880    0.7240 N   0  0  0  0  0  0  0  0  0  0  0  0
   -1.6640    0.9730    1.3810 C   0  0  0  0  0  0  0  0  0  0  0  0
   -3.0730    0.6230    1.4740 C   0  0  0  0  0  0  0  0  0  0  0  0
   -3.6350   -0.0010    0.2260 C   0  0  1  0  0  0  0  0  0  0  0  0
   -4.4150    0.8980   -0.4960 O   0  0  0  0  0  0  0  0  0  0  0  0
   -5.1450    0.2270   -1.3140 O   0  0  0  0  0  0  0  0  0  0  0  0
   -4.4470   -0.5380   -2.1790 N   0  0  0  0  0  0  0  0  0  0  0  0
   -3.1650   -1.1460   -1.8000 C   0  0  0  0  0  0  0  0  0  0  0  0
   -2.7630   -2.1440   -2.3910 O   0  0  0  0  0  0  0  0  0  0  0  0
   -2.5350   -0.4250   -0.7230 C   0  0  1  0  0  0  0  0  0  0  0  0
   -1.9050    0.7180   -1.2520 O   0  0  0  0  0  0  0  0  0  0  0  0
   -1.4910   -1.1700    0.1350 C   0  0  0  0  0  0  0  0  0  0  0  0
  1  2  2  0
  2  3  1  0
  2 10  1  0
  3  4  1  0
  4  5  1  0
  5  6  1  0
  6  7  1  0
  7  8  1  0
  7  9  1  0
 10 11  1  0
 10 21  1  0
 11 12  1  0
 13 12  1  1
 13 14  1  0
 13 19  1  0
 14 15  1  0
 15 16  1  0
 16 17  1  0
 17 18  2  0
 17 19  1  0
 19 20  1  6
 19 21  1  0
M  END
