
     RDKit          3D

 21 21  0  0  0  0  0  0  0  0999 V2000
    1.3640   -1.6080   -0.6210 O   0  0  0  0  0  0  0  0  0  0  0  0
    1.0700   -0.5300   -0.1230 C   0  0  0  0  0  0  0  0  0  0  0  0
    2.0220    0.5730   -0.0940 N   0  0  0  0  0  0  0  0  0  0  0  0
    3.2900    0.4990   -0.6590 C   0  0  0  0  0  0  0  0  0  0  0  0
    4.3670   -0.3280   -0.1170 C   0  0  0  0  0  0  0  0  0  0  0  0
    4.5670    0.1930    1.2150 O   0  0  0  0  0  0  0  0  0  0  0  0
    6.2840    0.7880    1.1020 P   0  0  0  0  0  0  0  0  0  0  0  0
    6.7240    0.8480   -0.6170 O   0  0  0  0  0  0  0  0  0  0  0  0
    6.0880    2.5700    1.5120 O   0  0  0  0  0  0  0  0  0  0  0  0
   -0.2320   -0.3380    0.4350 N   0  0  0  0  0  0  0  0  0  0  0  0
   -1.2800   -1.3650    0.3300 C   0  0  2  0  0  0  0  0  0  0  0  0
   -1.9910   -1.0580   -1.0370 C   0  0  0  0  0  0  0  0  0  0  0  0
   -3.1490   -1.7240   -1.2000 O   0  0  0  0  0  0  0  0  0  0  0  0
   -4.2780   -1.2000   -0.6560 C   0  0  0  0  0  0  0  0  0  0  0  0
   -4.1230    0.1700   -0.0670 C   0  0  1  0  0  0  0  0  0  0  0  0
   -3.9760    1.1540   -1.0150 O   0  0  0  0  0  0  0  0  0  0  0  0
   -5.3180    0.4560    0.6200 O   0  0  0  0  0  0  0  0  0  0  0  0
   -5.1370    1.6880    1.1200 O   0  0  0  0  0  0  0  0  0  0  0  0
   -3.0500    0.1180    0.9570 C   0  0  0  0  0  0  0  0  0  0  0  0
   -2.7530    1.1710    1.4990 O   0  0  0  0  0  0  0  0  0  0  0  0
   -2.2680   -1.0780    1.4330 C   0  0  0  0  0  0  0  0  0  0  0  0
  1  2  2  0
  2  3  1  0
  2 10  1  0
  3  4  1  0
  4  5  1  0
  5  6  1  0
  6  7  1  0
  7  8  1  0
  7  9  1  0
 11 10  1  1
 11 12  1  0
 11 21  1  0
 12 13  1  0
 13 14  1  0
 14 15  1  0
 15 16  1  6
 15 17  1  0
 15 19  1  0
 17 18  1  0
 19 20  2  0
 19 21  1  0
M  END
