
     RDKit          3D

  9  8  0  0  0  0  0  0  0  0999 V2000
    2.8950    1.3790    0.1950 N   0  0  0  0  0  0  0  0  0  0  0  0
    2.6930   -0.0120    0.1700 C   0  0  0  0  0  0  0  0  0  0  0  0
    3.8280   -0.8060    0.3260 O   0  0  0  0  0  0  0  0  0  0  0  0
    1.4980   -0.5590    0.0070 C   0  0  0  0  0  0  0  0  0  0  0  0
    0.2990    0.2240   -0.1570 C   0  0  0  0  0  0  0  0  0  0  0  0
   -0.8780   -0.3500   -0.3170 C   0  0  0  0  0  0  0  0  0  0  0  0
   -0.9640   -1.7310   -0.3270 O   0  0  0  0  0  0  0  0  0  0  0  0
   -2.1220    0.4250   -0.4880 C   0  0  0  0  0  0  0  0  0  0  0  0
   -3.0850    0.1330    0.5630 N   0  0  0  0  0  0  0  0  0  0  0  0
  1  2  1  0
  2  3  1  0
  2  4  2  3
  4  5  1  0
  5  6  2  3
  6  7  1  0
  6  8  1  0
  8  9  1  0
M  CHG  1   9   1
M  END
