
     RDKit          3D

  9  8  0  0  0  0  0  0  0  0999 V2000
    2.6190    0.5570   -0.4130 C   0  0  0  0  0  0  0  0  0  0  0  0
    1.4830   -0.1880   -0.7370 O   0  0  0  0  0  0  0  0  0  0  0  0
    0.6060   -0.2610    0.3710 C   0  0  2  0  0  0  0  0  0  0  0  0
    0.4680   -1.6450    0.7630 C   0  0  0  0  0  0  0  0  0  0  0  0
   -0.1910   -1.9880    1.7360 O   0  0  0  0  0  0  0  0  0  0  0  0
   -0.6080    0.4750   -0.0240 C   0  0  0  0  0  0  0  0  0  0  0  0
   -0.3760    1.9110   -0.1420 N   0  0  0  0  0  0  0  0  0  0  0  0
   -1.7970    0.0300   -0.2910 C   0  0  0  0  0  0  0  0  0  0  0  0
   -2.2320   -1.3200   -0.2680 N   0  0  0  0  0  0  0  0  0  0  0  0
  1  2  1  0
  3  2  1  6
  3  4  1  0
  3  6  1  0
  4  5  2  0
  6  7  1  0
  6  8  2  3
  8  9  1  0
M  CHG  2   7   1   9   1
M  END
