
     RDKit          3D

  9  8  0  0  0  0  0  0  0  0999 V2000
   -0.9340    0.6500    1.6030 N   0  0  0  0  0  0  0  0  0  0  0  0
   -1.3710    0.1320    0.3650 C   0  0  0  0  0  0  0  0  0  0  0  0
   -2.6560    0.2630    0.0450 C   0  0  0  0  0  0  0  0  0  0  0  0
   -3.1150   -0.2390   -1.1720 O   0  0  0  0  0  0  0  0  0  0  0  0
   -0.5020   -0.5350   -0.5830 C   0  0  0  0  0  0  0  0  0  0  0  0
   -1.1080   -0.9990   -1.7910 O   0  0  0  0  0  0  0  0  0  0  0  0
    0.7710   -0.7680   -0.4730 C   0  0  0  0  0  0  0  0  0  0  0  0
    1.6780   -0.4230    0.6350 C   0  0  0  0  0  0  0  0  0  0  0  0
    2.7050    0.4490    0.0640 N   0  0  0  0  0  0  0  0  0  0  0  0
  1  2  1  0
  2  3  2  3
  2  5  1  0
  3  4  1  0
  5  6  1  0
  5  7  2  3
  7  8  1  0
  8  9  1  0
M  CHG  1   9   1
M  END
