
     RDKit          3D

  9  8  0  0  0  0  0  0  0  0999 V2000
    3.6260    0.0930    1.4510 N   0  0  0  0  0  0  0  0  0  0  0  0
    2.3040   -0.2110    0.9890 C   0  0  0  0  0  0  0  0  0  0  0  0
    1.5880    0.3730    0.1790 C   0  0  0  0  0  0  0  0  0  0  0  0
    1.9860    1.5860   -0.5060 O   0  0  0  0  0  0  0  0  0  0  0  0
    0.1820    0.0430   -0.2250 C   0  0  0  0  0  0  0  0  0  0  0  0
   -0.4880    0.6860   -1.1230 C   0  0  0  0  0  0  0  0  0  0  0  0
   -1.9090    0.2570   -1.3980 C   0  0  0  0  0  0  0  0  0  0  0  0
   -2.2070   -0.8440   -0.5390 O   0  0  0  0  0  0  0  0  0  0  0  0
   -3.2220   -0.4460    0.2950 N   0  0  0  0  0  0  0  0  0  0  0  0
  1  2  1  0
  2  3  2  3
  3  4  1  0
  3  5  1  0
  5  6  2  3
  6  7  1  0
  7  8  1  0
  8  9  1  0
M  CHG  1   9   1
M  END
