
     RDKit          3D

  9  8  0  0  0  0  0  0  0  0999 V2000
   -1.8170   -1.2160    0.1570 N   0  0  0  0  0  0  0  0  0  0  0  0
   -1.5440    0.0280   -0.4710 C   0  0  0  0  0  0  0  0  0  0  0  0
   -2.5550    0.7540   -0.9200 C   0  0  0  0  0  0  0  0  0  0  0  0
   -3.8650    0.3170   -0.7840 O   0  0  0  0  0  0  0  0  0  0  0  0
   -0.1750    0.4790   -0.6090 C   0  0  0  0  0  0  0  0  0  0  0  0
    0.8250   -0.2360   -0.1670 C   0  0  0  0  0  0  0  0  0  0  0  0
    0.6420   -1.4760    0.4660 O   0  0  0  0  0  0  0  0  0  0  0  0
    2.2170    0.2250   -0.3090 C   0  0  0  0  0  0  0  0  0  0  0  0
    2.7870    0.3430    1.0100 N   0  0  0  0  0  0  0  0  0  0  0  0
  1  2  1  0
  2  3  2  3
  2  5  1  0
  3  4  1  0
  5  6  2  3
  6  7  1  0
  6  8  1  0
  8  9  1  0
M  CHG  1   9   1
M  END
