
     RDKit          3D

 17 18  0  0  0  0  0  0  0  0999 V2000
   -1.2450    2.1960    1.1820 C   0  0  0  0  0  0  0  0  0  0  0  0
   -1.0400    0.7940    1.7380 C   0  0  0  0  0  0  0  0  0  0  0  0
   -1.2750   -0.2420    0.7080 C   0  0  0  0  0  0  0  0  0  0  0  0
   -2.4810   -0.8490    0.6660 N   0  0  0  0  0  0  0  0  0  0  0  0
   -2.7910   -1.7790   -0.2520 C   0  0  0  0  0  0  0  0  0  0  0  0
   -4.0660   -2.4090   -0.2970 N   0  0  0  0  0  0  0  0  0  0  0  0
   -1.8220   -2.0830   -1.1450 N   0  0  0  0  0  0  0  0  0  0  0  0
   -0.6090   -1.5080   -1.1430 C   0  0  0  0  0  0  0  0  0  0  0  0
    0.4070   -1.8370   -2.0880 N   0  0  0  0  0  0  0  0  0  0  0  0
   -0.2810   -0.5420   -0.1940 C   0  0  0  0  0  0  0  0  0  0  0  0
    1.0430    0.0730   -0.1840 C   0  0  0  0  0  0  0  0  0  0  0  0
    2.0240   -0.3490    0.7170 C   0  0  0  0  0  0  0  0  0  0  0  0
    3.2720    0.2210    0.7460 C   0  0  0  0  0  0  0  0  0  0  0  0
    3.6050    1.2370   -0.1200 C   0  0  0  0  0  0  0  0  0  0  0  0
    5.2150    1.9250   -0.0230 Cl  0  0  0  0  0  0  0  0  0  0  0  0
    2.6630    1.6760   -1.0210 C   0  0  0  0  0  0  0  0  0  0  0  0
    1.3990    1.0870   -1.0370 C   0  0  0  0  0  0  0  0  0  0  0  0
  1  2  1  0
  2  3  1  0
  3  4  2  0
  3 10  1  0
  4  5  1  0
  5  6  1  0
  5  7  2  0
  7  8  1  0
  8  9  1  0
  8 10  2  0
 10 11  1  0
 11 12  2  0
 11 17  1  0
 12 13  1  0
 13 14  2  0
 14 15  1  0
 14 16  1  0
 16 17  2  0
M  END
