
     RDKit          3D

  9  8  0  0  0  0  0  0  0  0999 V2000
   -0.9810    0.8830   -0.4630 N   0  0  0  0  0  0  0  0  0  0  0  0
   -0.8820   -0.2770    0.3550 C   0  0  0  0  0  0  0  0  0  0  0  0
   -2.1260   -0.9860    0.6350 C   0  0  0  0  0  0  0  0  0  0  0  0
   -3.2910   -0.6180    0.1850 C   0  0  0  0  0  0  0  0  0  0  0  0
   -3.5000    0.4950   -0.6180 O   0  0  0  0  0  0  0  0  0  0  0  0
    0.2740   -0.6700    0.8200 C   0  0  0  0  0  0  0  0  0  0  0  0
    1.4970    0.0800    0.5080 C   0  0  0  0  0  0  0  0  0  0  0  0
    2.4440   -0.6920   -0.1700 O   0  0  0  0  0  0  0  0  0  0  0  0
    3.5290    0.0790   -0.4130 N   0  0  0  0  0  0  0  0  0  0  0  0
  1  2  1  0
  2  3  1  0
  2  6  2  3
  3  4  2  3
  4  5  1  0
  6  7  1  0
  7  8  1  0
  8  9  1  0
M  CHG  1   9   1
M  END
