
     RDKit          3D

  9  8  0  0  0  0  0  0  0  0999 V2000
    2.4440   -0.5110    1.2630 N   0  0  0  0  0  0  0  0  0  0  0  0
    2.0190    0.2450    0.0830 C   0  0  0  0  0  0  0  0  0  0  0  0
    0.8000   -0.3890   -0.4350 C   0  0  0  0  0  0  0  0  0  0  0  0
   -0.3850    0.1270   -0.5790 C   0  0  0  0  0  0  0  0  0  0  0  0
   -1.4540   -0.7660   -1.1400 C   0  0  0  0  0  0  0  0  0  0  0  0
   -2.4920   -0.8380   -0.1240 N   0  0  0  0  0  0  0  0  0  0  0  0
   -0.7940    1.4780   -0.2530 C   0  0  0  0  0  0  0  0  0  0  0  0
   -2.0030    1.8170   -0.4610 O   0  0  0  0  0  0  0  0  0  0  0  0
    0.0330    2.4590    0.2790 O   0  0  0  0  0  0  0  0  0  0  0  0
  1  2  1  0
  2  3  1  0
  3  4  2  3
  4  5  1  0
  4  7  1  0
  5  6  1  0
  7  8  2  0
  7  9  1  0
M  CHG  2   1   1   6   1
M  END
