
     RDKit          3D

 21 21  0  0  0  0  0  0  0  0999 V2000
   -0.1960    4.4170    0.2440 C   0  0  0  0  0  0  0  0  0  0  0  0
    0.1720    2.9910    0.4330 C   0  0  0  0  0  0  0  0  0  0  0  0
    1.2450    2.6220    1.0690 N   0  0  0  0  0  0  0  0  0  0  0  0
    1.7390    1.4020    1.2010 C   0  0  0  0  0  0  0  0  0  0  0  0
    1.0710    0.3680    0.6150 C   0  0  0  0  0  0  0  0  0  0  0  0
    1.3190   -1.0810    0.7680 C   0  0  0  0  0  0  0  0  0  0  0  0
    2.0790   -1.6540   -0.0600 O   0  0  0  0  0  0  0  0  0  0  0  0
    3.6550   -1.4220   -0.4380 P   0  0  0  0  0  0  0  0  0  0  0  0
    4.6140   -2.5340    0.5410 O   0  0  0  0  0  0  0  0  0  0  0  0
    3.9080   -1.9300   -2.1210 O   0  0  0  0  0  0  0  0  0  0  0  0
    4.3100    0.1420   -0.2400 O   0  0  0  0  0  0  0  0  0  0  0  0
   -0.1280    0.6570   -0.1160 C   0  0  0  0  0  0  0  0  0  0  0  0
   -0.5370   -0.4830   -0.9130 C   0  0  0  0  0  0  0  0  0  0  0  0
   -1.5250   -1.4190   -0.7160 N   0  0  0  0  0  0  0  0  0  0  0  0
   -2.6000   -1.3850    0.1610 C   0  0  2  0  0  0  0  0  0  0  0  0
   -3.9090   -1.8270   -0.5170 C   0  0  0  0  0  0  0  0  0  0  0  0
   -2.7790   -0.2690    1.0740 C   0  0  0  0  0  0  0  0  0  0  0  0
   -1.9500    0.0250    2.0110 O   0  0  0  0  0  0  0  0  0  0  0  0
   -3.8850    0.5450    0.9490 O   0  0  0  0  0  0  0  0  0  0  0  0
   -0.5360    1.9140   -0.1900 C   0  0  0  0  0  0  0  0  0  0  0  0
   -1.6820    2.4110   -0.8860 O   0  0  0  0  0  0  0  0  0  0  0  0
  1  2  1  0
  2  3  2  0
  2 20  1  0
  3  4  1  0
  4  5  2  0
  5  6  1  0
  5 12  1  0
  6  7  1  0
  7  8  1  0
  8  9  1  0
  8 10  1  0
  8 11  1  0
 12 13  1  0
 12 20  2  0
 13 14  1  0
 14 15  1  0
 15 16  1  6
 15 17  1  0
 17 18  2  0
 17 19  1  0
 20 21  1  0
M  CHG  1  14   1
M  END
