
     RDKit          3D

 24 25  0  0  0  0  0  0  0  0999 V2000
    5.6130   -2.5780   -1.2570 O   0  0  0  0  0  0  0  0  0  0  0  0
    4.6830   -3.3260   -1.6550 C   0  0  0  0  0  0  0  0  0  0  0  0
    4.9920   -4.2280   -2.6580 O   0  0  0  0  0  0  0  0  0  0  0  0
    3.4210   -3.2180   -1.0900 O   0  0  0  0  0  0  0  0  0  0  0  0
    3.1200   -2.3110   -0.0850 C   0  0  0  0  0  0  0  0  0  0  0  0
    4.0300   -1.5420    0.3420 N   0  0  0  0  0  0  0  0  0  0  0  0
    3.9120   -0.5510    1.3620 C   0  0  0  0  0  0  0  0  0  0  0  0
    4.2110    0.8460    0.8630 C   0  0  0  0  0  0  0  0  0  0  0  0
    4.0820    1.7720    1.8960 O   0  0  0  0  0  0  0  0  0  0  0  0
    4.3280    2.9870    1.5230 O   0  0  0  0  0  0  0  0  0  0  0  0
    1.7920   -2.2930    0.4170 N   0  0  0  0  0  0  0  0  0  0  0  0
    0.9810   -1.3170    0.2310 C   0  0  0  0  0  0  0  0  0  0  0  0
   -0.2750   -1.2770    0.6950 N   0  0  0  0  0  0  0  0  0  0  0  0
   -0.8600   -0.1150    0.3260 C   0  0  0  0  0  0  0  0  0  0  0  0
   -2.1810    0.2640    0.6410 N   0  0  0  0  0  0  0  0  0  0  0  0
   -2.7980    1.4740    0.2610 C   0  0  0  0  0  0  0  0  0  0  0  0
   -2.1390    2.3000   -0.4160 O   0  0  0  0  0  0  0  0  0  0  0  0
   -4.1990    1.8010    0.6330 C   0  0  1  0  0  0  0  0  0  0  0  0
   -5.0810    2.0040   -0.5810 C   0  0  0  0  0  0  0  0  0  0  0  0
   -5.5520    0.5840   -0.8310 C   0  0  0  0  0  0  0  0  0  0  0  0
   -5.4650   -0.0370    0.5200 C   0  0  0  0  0  0  0  0  0  0  0  0
   -4.8050    0.8220    1.3670 O   0  0  0  0  0  0  0  0  0  0  0  0
    0.0800    0.5330   -0.3680 N   0  0  0  0  0  0  0  0  0  0  0  0
    1.1750   -0.1990   -0.4150 O   0  0  0  0  0  0  0  0  0  0  0  0
  1  2  2  0
  2  3  1  0
  2  4  1  0
  4  5  1  0
  5  6  2  3
  5 11  1  0
  6  7  1  0
  7  8  1  0
  8  9  1  0
  9 10  1  0
 11 12  2  3
 12 13  1  0
 12 24  1  0
 13 14  2  0
 14 15  1  0
 14 23  1  0
 15 16  1  0
 16 17  2  0
 18 16  1  6
 18 19  1  0
 18 22  1  0
 19 20  1  0
 20 21  1  0
 21 22  1  0
 23 24  1  0
M  END
