
     RDKit          3D

 24 25  0  0  0  0  0  0  0  0999 V2000
    2.7460   -1.1980   -0.4710 N   0  0  0  0  0  0  0  0  0  0  0  0
    2.3100    0.0340    0.0910 C   0  0  0  0  0  0  0  0  0  0  0  0
    3.1890    1.0090    0.3370 C   0  0  0  0  0  0  0  0  0  0  0  0
    4.6230    0.8820    0.0520 C   0  0  0  0  0  0  0  0  0  0  0  0
    4.9880    1.8860   -0.8680 O   0  0  0  0  0  0  0  0  0  0  0  0
    6.2950    1.7310   -1.0960 O   0  0  0  0  0  0  0  0  0  0  0  0
    0.9240    0.2160    0.3900 N   0  0  0  0  0  0  0  0  0  0  0  0
    0.0140    0.1090   -0.7340 C   0  0  0  0  0  0  0  0  0  0  0  0
   -0.4790   -1.3090   -0.9130 C   0  0  0  0  0  0  0  0  0  0  0  0
   -0.6950   -1.9230    0.3170 O   0  0  0  0  0  0  0  0  0  0  0  0
   -1.9110   -2.2110    0.8910 C   0  0  0  0  0  0  0  0  0  0  0  0
   -1.8530   -2.6980    2.0740 O   0  0  0  0  0  0  0  0  0  0  0  0
   -3.1860   -2.0180    0.2990 N   0  0  0  0  0  0  0  0  0  0  0  0
   -3.6160   -0.8390   -0.3670 C   0  0  0  0  0  0  0  0  0  0  0  0
   -4.1160   -0.7850   -1.6440 N   0  0  0  0  0  0  0  0  0  0  0  0
   -4.4200    0.4700   -1.9100 N   0  0  0  0  0  0  0  0  0  0  0  0
   -4.1440    1.2590   -0.8600 C   0  0  0  0  0  0  0  0  0  0  0  0
   -3.6270    0.4280    0.1350 C   0  0  0  0  0  0  0  0  0  0  0  0
   -3.1690    0.8060    1.4910 C   0  0  0  0  0  0  0  0  0  0  0  0
   -4.0050    1.5660    2.1200 O   0  0  0  0  0  0  0  0  0  0  0  0
   -1.9690    0.3910    2.0340 O   0  0  0  0  0  0  0  0  0  0  0  0
   -0.7640    0.9910    1.9090 O   0  0  0  0  0  0  0  0  0  0  0  0
    0.4700    0.4860    1.7130 C   0  0  0  0  0  0  0  0  0  0  0  0
    1.3340    0.2020    2.6190 O   0  0  0  0  0  0  0  0  0  0  0  0
  1  2  1  0
  2  3  2  3
  2  7  1  0
  3  4  1  0
  4  5  1  0
  5  6  1  0
  7  8  1  0
  7 23  1  0
  8  9  1  0
  9 10  1  0
 10 11  1  0
 11 12  2  0
 11 13  1  0
 13 14  1  0
 14 15  2  0
 14 18  1  0
 15 16  1  0
 16 17  1  0
 17 18  2  0
 18 19  1  0
 19 20  2  0
 19 21  1  0
 21 22  1  0
 22 23  1  0
 23 24  2  0
M  END
