
     RDKit          3D

 24 26  0  0  0  0  0  0  0  0999 V2000
   -1.2340    3.3490    2.3690 O   0  0  0  0  0  0  0  0  0  0  0  0
   -0.9470    2.5180    1.4470 C   0  0  0  0  0  0  0  0  0  0  0  0
    0.3490    2.6580    0.8270 N   0  0  0  0  0  0  0  0  0  0  0  0
    1.0120    1.5810    0.4650 C   0  0  0  0  0  0  0  0  0  0  0  0
    0.4690    0.2990    0.6780 N   0  0  0  0  0  0  0  0  0  0  0  0
    1.0820   -0.7700    0.3400 C   0  0  0  0  0  0  0  0  0  0  0  0
    2.3530   -0.6630   -0.2710 N   0  0  0  0  0  0  0  0  0  0  0  0
    2.9200    0.4670   -0.5010 C   0  0  0  0  0  0  0  0  0  0  0  0
    4.1750    0.4400   -1.1100 O   0  0  0  0  0  0  0  0  0  0  0  0
    4.9770   -0.7420   -1.0600 C   0  0  0  0  0  0  0  0  0  0  0  0
    5.1970   -0.9940    0.3140 O   0  0  0  0  0  0  0  0  0  0  0  0
    5.8160    0.0360    0.8220 O   0  0  0  0  0  0  0  0  0  0  0  0
    2.2850    1.6800   -0.1470 N   0  0  0  0  0  0  0  0  0  0  0  0
    0.4730   -2.0480    0.5820 N   0  0  0  0  0  0  0  0  0  0  0  0
   -0.9540   -2.2460    0.6920 C   0  0  0  0  0  0  0  0  0  0  0  0
   -1.7340   -1.4330   -0.2930 C   0  0  0  0  0  0  0  0  0  0  0  0
   -3.0100   -1.1660    0.2630 O   0  0  0  0  0  0  0  0  0  0  0  0
   -3.9410   -0.2750   -0.2490 C   0  0  0  0  0  0  0  0  0  0  0  0
   -5.2680   -0.4520   -0.5910 C   0  0  0  0  0  0  0  0  0  0  0  0
   -5.7110    0.7070   -1.0330 O   0  0  0  0  0  0  0  0  0  0  0  0
   -4.7870    1.6070   -1.0040 C   0  0  0  0  0  0  0  0  0  0  0  0
   -3.6230    1.0490   -0.5120 C   0  0  0  0  0  0  0  0  0  0  0  0
   -2.3550    1.4740   -0.2520 O   0  0  0  0  0  0  0  0  0  0  0  0
   -1.7450    1.5100    0.9910 O   0  0  0  0  0  0  0  0  0  0  0  0
  1  2  2  0
  2  3  1  0
  2 24  1  0
  3  4  2  0
  4  5  1  0
  4 13  1  0
  5  6  2  0
  6  7  1  0
  6 14  1  0
  7  8  2  0
  8  9  1  0
  8 13  1  0
  9 10  1  0
 10 11  1  0
 11 12  1  0
 14 15  1  0
 15 16  1  0
 16 17  1  0
 17 18  1  0
 18 19  2  0
 18 22  1  0
 19 20  1  0
 20 21  1  0
 21 22  2  0
 22 23  1  0
 23 24  1  0
M  END
