
     RDKit          3D

 24 26  0  0  0  0  0  0  0  0999 V2000
   -0.4770    0.3810    4.1120 O   0  0  0  0  0  0  0  0  0  0  0  0
   -0.0830    0.7150    2.9540 C   0  0  0  0  0  0  0  0  0  0  0  0
   -0.8650    1.7100    2.3100 O   0  0  0  0  0  0  0  0  0  0  0  0
   -0.5460    2.1170    1.0470 O   0  0  0  0  0  0  0  0  0  0  0  0
   -1.6570    2.4410    0.3190 C   0  0  0  0  0  0  0  0  0  0  0  0
   -1.9850    1.1910   -0.5100 C   0  0  0  0  0  0  0  0  0  0  0  0
   -2.7870    0.2960    0.2950 N   0  0  0  0  0  0  0  0  0  0  0  0
   -2.4480   -0.6960    1.1900 C   0  0  0  0  0  0  0  0  0  0  0  0
   -2.9940   -0.5180    2.3740 O   0  0  0  0  0  0  0  0  0  0  0  0
   -1.6350   -1.8830    1.1240 N   0  0  0  0  0  0  0  0  0  0  0  0
   -2.1640   -3.1190    1.4840 N   0  0  0  0  0  0  0  0  0  0  0  0
   -1.2180   -4.0220    1.3110 C   0  0  0  0  0  0  0  0  0  0  0  0
   -0.1350   -3.3930    0.8630 N   0  0  0  0  0  0  0  0  0  0  0  0
   -0.3950   -2.0270    0.7420 C   0  0  0  0  0  0  0  0  0  0  0  0
    0.6460   -1.0800    0.2580 C   0  0  0  0  0  0  0  0  0  0  0  0
    1.2240   -1.0390   -1.0160 C   0  0  0  0  0  0  0  0  0  0  0  0
    2.1600   -0.0540   -1.0870 C   0  0  0  0  0  0  0  0  0  0  0  0
    2.9920    0.3170   -2.2530 C   0  0  0  0  0  0  0  0  0  0  0  0
    2.8500   -0.3260   -3.3120 O   0  0  0  0  0  0  0  0  0  0  0  0
    3.9000    1.3530   -2.1530 O   0  0  0  0  0  0  0  0  0  0  0  0
    4.6740    1.7250   -3.1800 O   0  0  0  0  0  0  0  0  0  0  0  0
    2.1640    0.5100    0.1270 N   0  0  0  0  0  0  0  0  0  0  0  0
    1.2640   -0.0850    0.9600 C   0  0  0  0  0  0  0  0  0  0  0  0
    0.9830    0.2210    2.2990 O   0  0  0  0  0  0  0  0  0  0  0  0
  1  2  2  0
  2  3  1  0
  2 24  1  0
  3  4  1  0
  4  5  1  0
  5  6  1  0
  6  7  1  0
  7  8  1  0
  8  9  2  0
  8 10  1  0
 10 11  1  0
 10 14  1  0
 11 12  2  0
 12 13  1  0
 13 14  2  0
 14 15  1  0
 15 16  1  0
 15 23  2  0
 16 17  2  0
 17 18  1  0
 17 22  1  0
 18 19  2  0
 18 20  1  0
 20 21  1  0
 22 23  1  0
 23 24  1  0
M  END
