
     RDKit          3D

 12 11  0  0  0  0  0  0  0  0999 V2000
   -0.2770   -0.8380   -0.4310 O   0  0  0  0  0  0  0  0  0  0  0  0
   -0.6260   -0.0180    0.4450 C   0  0  0  0  0  0  0  0  0  0  0  0
    0.1320    1.1890    0.8240 C   0  0  0  0  0  0  0  0  0  0  0  0
    1.2770    1.3170    0.0850 O   0  0  0  0  0  0  0  0  0  0  0  0
    2.1850    0.3000    0.1620 C   0  0  2  0  0  0  0  0  0  0  0  0
    3.2810    0.7610    0.9610 O   0  0  0  0  0  0  0  0  0  0  0  0
    2.6750   -0.0740   -1.1920 C   0  0  0  0  0  0  0  0  0  0  0  0
    3.5950   -1.1280   -1.1480 O   0  0  0  0  0  0  0  0  0  0  0  0
   -1.8460   -0.3350    1.0770 O   0  0  0  0  0  0  0  0  0  0  0  0
   -2.6210   -1.4600    0.7700 C   0  0  0  0  0  0  0  0  0  0  0  0
   -3.0870   -1.4700   -0.6490 C   0  0  0  0  0  0  0  0  0  0  0  0
   -3.8580   -0.3290   -0.8640 O   0  0  0  0  0  0  0  0  0  0  0  0
  1  2  2  0
  2  3  1  0
  2  9  1  0
  3  4  1  0
  4  5  1  0
  5  6  1  1
  5  7  1  0
  7  8  1  0
  9 10  1  0
 10 11  1  0
 11 12  1  0
M  END
