
     RDKit          3D

 12 11  0  0  0  0  0  0  0  0999 V2000
    5.2280   -0.1710   -0.0240 O   0  0  0  0  0  0  0  0  0  0  0  0
    3.9070   -0.5240   -0.2540 C   0  0  0  0  0  0  0  0  0  0  0  0
    3.1550   -0.2690    0.9100 O   0  0  0  0  0  0  0  0  0  0  0  0
    1.8050   -0.6420    0.6420 C   0  0  0  0  0  0  0  0  0  0  0  0
    1.4130    0.1330   -0.4010 O   0  0  0  0  0  0  0  0  0  0  0  0
    0.1620    0.0040   -0.9010 C   0  0  0  0  0  0  0  0  0  0  0  0
   -0.9340    0.2880    0.0720 C   0  0  2  0  0  0  0  0  0  0  0  0
   -0.9140   -0.5690    1.1360 O   0  0  0  0  0  0  0  0  0  0  0  0
   -2.3070    0.2160   -0.6030 C   0  0  1  0  0  0  0  0  0  0  0  0
   -2.5960   -1.0470   -1.0610 O   0  0  0  0  0  0  0  0  0  0  0  0
   -3.3720    0.7470    0.3330 C   0  0  0  0  0  0  0  0  0  0  0  0
   -3.0410    2.0250    0.7720 O   0  0  0  0  0  0  0  0  0  0  0  0
  1  2  1  0
  2  3  1  0
  3  4  1  0
  4  5  1  0
  5  6  1  0
  6  7  1  0
  7  8  1  1
  7  9  1  0
  9 10  1  1
  9 11  1  0
 11 12  1  0
M  END
