
     RDKit          3D

 12 11  0  0  0  0  0  0  0  0999 V2000
    4.0730   -1.3640   -0.3190 O   0  0  0  0  0  0  0  0  0  0  0  0
    4.1540   -0.1470   -0.0290 C   0  0  0  0  0  0  0  0  0  0  0  0
    5.4030    0.5010   -0.0140 O   0  0  0  0  0  0  0  0  0  0  0  0
    2.9870    0.5280    0.2710 O   0  0  0  0  0  0  0  0  0  0  0  0
    1.7510   -0.2050    0.2330 C   0  0  0  0  0  0  0  0  0  0  0  0
    0.6850    0.7990    0.6030 C   0  0  0  0  0  0  0  0  0  0  0  0
   -0.5900    0.3150    0.6340 O   0  0  0  0  0  0  0  0  0  0  0  0
   -0.9830   -0.1810   -0.5880 C   0  0  0  0  0  0  0  0  0  0  0  0
   -2.4080   -0.7020   -0.5270 C   0  0  1  0  0  0  0  0  0  0  0  0
   -2.5120   -1.7210    0.4120 O   0  0  0  0  0  0  0  0  0  0  0  0
   -3.3570    0.3880   -0.1440 C   0  0  0  0  0  0  0  0  0  0  0  0
   -3.2550    1.4120   -1.0850 O   0  0  0  0  0  0  0  0  0  0  0  0
  1  2  2  0
  2  3  1  0
  2  4  1  0
  4  5  1  0
  5  6  1  0
  6  7  1  0
  7  8  1  0
  8  9  1  0
  9 10  1  1
  9 11  1  0
 11 12  1  0
M  END
