
     RDKit          3D

 12 11  0  0  0  0  0  0  0  0999 V2000
   -5.3680   -0.3540    0.0090 O   0  0  0  0  0  0  0  0  0  0  0  0
   -4.0520   -0.1060    0.4440 C   0  0  0  0  0  0  0  0  0  0  0  0
   -3.1460    0.2110   -0.6970 C   0  0  0  0  0  0  0  0  0  0  0  0
   -1.8580    0.4640   -0.2970 O   0  0  0  0  0  0  0  0  0  0  0  0
   -1.2410   -0.5810    0.3400 C   0  0  0  0  0  0  0  0  0  0  0  0
    0.0590   -0.1360    0.6590 O   0  0  0  0  0  0  0  0  0  0  0  0
    0.6850    0.1900   -0.5430 C   0  0  0  0  0  0  0  0  0  0  0  0
    2.0980    0.6840   -0.3140 C   0  0  0  0  0  0  0  0  0  0  0  0
    2.7900   -0.3480    0.3140 O   0  0  0  0  0  0  0  0  0  0  0  0
    4.0970    0.0190    0.5620 C   0  0  2  0  0  0  0  0  0  0  0  0
    4.9830   -0.8260   -0.1260 O   0  0  0  0  0  0  0  0  0  0  0  0
    4.3030   -0.0400    1.9340 O   0  0  0  0  0  0  0  0  0  0  0  0
  1  2  1  0
  2  3  1  0
  3  4  1  0
  4  5  1  0
  5  6  1  0
  6  7  1  0
  7  8  1  0
  8  9  1  0
  9 10  1  0
 10 11  1  6
 10 12  1  0
M  END
