
     RDKit          3D

 13 12  0  0  0  0  0  0  0  0999 V2000
   -2.3360   -1.8990    1.0790 O   0  0  0  0  0  0  0  0  0  0  0  0
   -1.6610   -1.0620    0.3880 C   0  0  0  0  0  0  0  0  0  0  0  0
   -2.0480   -0.9200   -0.9120 O   0  0  0  0  0  0  0  0  0  0  0  0
   -0.5800   -0.3880    1.0970 C   0  0  0  0  0  0  0  0  0  0  0  0
    0.1760    0.6470    0.3470 C   0  0  1  0  0  0  0  0  0  0  0  0
    1.1620    1.1290    1.2510 O   0  0  0  0  0  0  0  0  0  0  0  0
    0.8860    0.1710   -0.8630 C   0  0  0  0  0  0  0  0  0  0  0  0
    1.8960   -0.8550   -0.6990 C   0  0  0  0  0  0  0  0  0  0  0  0
    2.5090   -1.2640   -1.7120 O   0  0  0  0  0  0  0  0  0  0  0  0
    2.2210   -1.4080    0.5210 O   0  0  0  0  0  0  0  0  0  0  0  0
   -0.6840    1.7940   -0.0810 C   0  0  0  0  0  0  0  0  0  0  0  0
   -0.4610    2.9360    0.3830 O   0  0  0  0  0  0  0  0  0  0  0  0
   -1.7250    1.6600   -0.9720 O   0  0  0  0  0  0  0  0  0  0  0  0
  1  2  2  0
  2  3  1  0
  2  4  1  0
  4  5  1  0
  5  6  1  1
  5  7  1  0
  5 11  1  0
  7  8  1  0
  8  9  2  0
  8 10  1  0
 11 12  2  0
 11 13  1  0
M  END
