
     RDKit          3D

 32 35  0  0  0  0  0  0  0  0999 V2000
    5.3770   -0.8530   -1.2130 C   0  0  0  0  0  0  0  0  0  0  0  0
    6.3000   -0.8900    0.0030 C   0  0  2  0  0  0  0  0  0  0  0  0
    5.4920   -0.3930    1.1370 N   0  0  0  0  0  0  0  0  0  0  0  0
    4.6610    0.6680    0.7640 C   0  0  0  0  0  0  0  0  0  0  0  0
    3.2120    0.3430    0.7240 C   0  0  0  0  0  0  0  0  0  0  0  0
    2.3840   -0.7010    0.9230 C   0  0  0  0  0  0  0  0  0  0  0  0
    1.0640   -0.5620    0.7350 C   0  0  0  0  0  0  0  0  0  0  0  0
    0.5750    0.6190    0.3410 C   0  0  0  0  0  0  0  0  0  0  0  0
   -0.7270    1.1410   -0.0130 C   0  0  0  0  0  0  0  0  0  0  0  0
   -0.8420    2.4200   -0.4990 C   0  0  0  0  0  0  0  0  0  0  0  0
   -2.0660    2.9370   -0.9230 C   0  0  0  0  0  0  0  0  0  0  0  0
   -3.1690    2.1310   -0.8460 C   0  0  0  0  0  0  0  0  0  0  0  0
   -4.7360    2.7350   -1.3730 Cl  0  0  0  0  0  0  0  0  0  0  0  0
   -3.1040    0.8010   -0.3440 C   0  0  0  0  0  0  0  0  0  0  0  0
   -4.3360    0.0450   -0.3690 C   0  0  0  0  0  0  0  0  0  0  0  0
   -4.6900   -0.6870   -1.3030 O   0  0  0  0  0  0  0  0  0  0  0  0
   -5.2620    0.1050    0.7410 N   0  0  0  0  0  0  0  0  0  0  0  0
   -6.4870   -0.5980    0.7210 C   0  0  2  0  0  0  0  0  0  0  0  0
   -7.2730   -0.4000    1.9290 C   0  0  0  0  0  0  0  0  0  0  0  0
   -7.9230   -0.2190    2.9150 N   0  0  0  0  0  0  0  0  0  0  0  0
   -6.5330   -2.0200    0.3520 C   0  0  0  0  0  0  0  0  0  0  0  0
   -8.0590   -2.2120    0.3130 C   0  0  0  0  0  0  0  0  0  0  0  0
   -8.5570   -0.9390   -0.3720 C   0  0  0  0  0  0  0  0  0  0  0  0
   -7.3860   -0.0040   -0.3790 C   0  0  0  0  0  0  0  0  0  0  0  0
   -1.8560    0.3450    0.0630 C   0  0  0  0  0  0  0  0  0  0  0  0
    2.0850    1.6470    0.2250 S   0  0  0  0  0  0  0  0  0  0  0  0
    7.4270    0.0380   -0.2450 C   0  0  0  0  0  0  0  0  0  0  0  0
    7.4930    1.4060   -0.3250 C   0  0  0  0  0  0  0  0  0  0  0  0
    8.7890    1.8380   -0.4700 N   0  0  0  0  0  0  0  0  0  0  0  0
    9.5210    0.7710   -0.4830 N   0  0  0  0  0  0  0  0  0  0  0  0
    8.7860   -0.3470   -0.3550 C   0  0  0  0  0  0  0  0  0  0  0  0
    9.3190   -1.6260   -0.3430 O   0  0  0  0  0  0  0  0  0  0  0  0
  2  1  1  6
  2  3  1  0
  2 27  1  0
  3  4  1  0
  4  5  1  0
  5  6  2  0
  5 26  1  0
  6  7  1  0
  7  8  2  0
  8  9  1  0
  8 26  1  0
  9 10  2  0
  9 25  1  0
 10 11  1  0
 11 12  2  0
 12 13  1  0
 12 14  1  0
 14 15  1  0
 14 25  2  0
 15 16  2  0
 15 17  1  0
 17 18  1  0
 18 19  1  1
 18 21  1  0
 18 24  1  0
 19 20  3  0
 21 22  1  0
 22 23  1  0
 23 24  1  0
 27 28  2  0
 27 31  1  0
 28 29  1  0
 29 30  1  0
 30 31  2  0
 31 32  1  0
M  CHG  1   3   1
M  END
