
     RDKit          3D

 32 36  0  0  0  0  0  0  0  0999 V2000
    4.0440   -0.6100   -2.3310 O   0  0  0  0  0  0  0  0  0  0  0  0
    3.9480    0.3190   -1.5150 C   0  0  0  0  0  0  0  0  0  0  0  0
    4.5840    0.2250   -0.2580 N   0  0  0  0  0  0  0  0  0  0  0  0
    5.3520   -0.8570    0.1840 C   0  0  0  0  0  0  0  0  0  0  0  0
    5.6750   -0.9260    1.5490 C   0  0  0  0  0  0  0  0  0  0  0  0
    6.4200   -1.8970    2.1280 C   0  0  0  0  0  0  0  0  0  0  0  0
    6.9060   -2.9120    1.3040 C   0  0  0  0  0  0  0  0  0  0  0  0
    7.8750   -4.1850    2.0270 Cl  0  0  0  0  0  0  0  0  0  0  0  0
    6.6310   -2.9070   -0.0340 C   0  0  0  0  0  0  0  0  0  0  0  0
    5.8570   -1.8800   -0.5840 C   0  0  0  0  0  0  0  0  0  0  0  0
    3.1460    1.5670   -1.8590 C   0  0  1  0  0  0  0  0  0  0  0  0
    2.5200    1.4260   -3.2250 C   0  0  0  0  0  0  0  0  0  0  0  0
    1.2630    1.9840   -2.5360 C   0  0  0  0  0  0  0  0  0  0  0  0
    1.7860    1.3680   -1.2880 C   0  0  0  0  0  0  0  0  0  0  0  0
    1.2740    0.8620   -0.1850 C   0  0  0  0  0  0  0  0  0  0  0  0
   -0.1530    0.8210    0.0720 C   0  0  0  0  0  0  0  0  0  0  0  0
   -0.9660    1.8790   -0.2550 C   0  0  0  0  0  0  0  0  0  0  0  0
   -2.3450    1.8390   -0.0030 C   0  0  0  0  0  0  0  0  0  0  0  0
   -3.1880    2.9620   -0.3410 C   0  0  0  0  0  0  0  0  0  0  0  0
   -2.7920    4.0870   -0.8790 C   0  0  0  0  0  0  0  0  0  0  0  0
   -3.9430    4.9720   -1.0660 C   0  0  0  0  0  0  0  0  0  0  0  0
   -5.0840    4.1910   -0.5560 C   0  0  0  0  0  0  0  0  0  0  0  0
   -4.6240    3.0300   -0.1400 C   0  0  0  0  0  0  0  0  0  0  0  0
   -2.8210    0.6840    0.5840 C   0  0  0  0  0  0  0  0  0  0  0  0
   -2.0150   -0.3660    0.9070 C   0  0  0  0  0  0  0  0  0  0  0  0
   -2.5430   -1.5190    1.5150 N   0  0  0  0  0  0  0  0  0  0  0  0
   -3.8510   -1.5430    2.1220 C   0  0  0  0  0  0  0  0  0  0  0  0
   -4.7670   -2.3380    1.1950 C   0  0  0  0  0  0  0  0  0  0  0  0
   -3.9420   -3.3790    0.4360 C   0  0  0  0  0  0  0  0  0  0  0  0
   -2.8310   -3.8810    1.3470 C   0  0  0  0  0  0  0  0  0  0  0  0
   -1.8080   -2.7830    1.5580 C   0  0  0  0  0  0  0  0  0  0  0  0
   -0.6960   -0.2890    0.6500 N   0  0  0  0  0  0  0  0  0  0  0  0
  1  2  2  0
  2  3  1  0
 11  2  1  1
  3  4  1  0
  4  5  2  0
  4 10  1  0
  5  6  1  0
  6  7  2  0
  7  8  1  0
  7  9  1  0
  9 10  2  0
 11 12  1  0
 11 14  1  0
 12 13  1  0
 13 14  1  0
 14 15  2  3
 15 16  1  0
 16 17  2  0
 16 32  1  0
 17 18  1  0
 18 19  1  0
 18 24  2  0
 19 20  2  0
 19 23  1  0
 20 21  1  0
 21 22  1  0
 22 23  2  0
 24 25  1  0
 25 26  1  0
 25 32  2  0
 26 27  1  0
 26 31  1  0
 27 28  1  0
 28 29  1  0
 29 30  1  0
 30 31  1  0
M  END
