
     RDKit          3D

 33 36  0  0  0  0  0  0  0  0999 V2000
   -5.5650    5.6130   -1.2150 C   0  0  0  0  0  0  0  0  0  0  0  0
   -5.0700    4.2460   -0.8020 C   0  0  0  0  0  0  0  0  0  0  0  0
   -3.5740    4.3710   -0.6330 C   0  0  0  0  0  0  0  0  0  0  0  0
   -3.0100    3.0210   -0.2130 C   0  0  0  0  0  0  0  0  0  0  0  0
   -1.6910    2.9680   -0.0310 N   0  0  0  0  0  0  0  0  0  0  0  0
   -1.0350    1.8150    0.3500 C   0  0  0  0  0  0  0  0  0  0  0  0
    0.2770    1.5840    0.5780 C   0  0  0  0  0  0  0  0  0  0  0  0
    0.6820    0.3770    0.9400 C   0  0  0  0  0  0  0  0  0  0  0  0
    2.0310   -0.1480    1.2470 C   0  0  0  0  0  0  0  0  0  0  0  0
    2.1370   -1.3430    1.5680 O   0  0  0  0  0  0  0  0  0  0  0  0
    3.1490    0.6740    1.1790 N   0  0  0  0  0  0  0  0  0  0  0  0
    4.5220    0.3840    1.4140 C   0  0  0  0  0  0  0  0  0  0  0  0
    5.2420   -0.5590    0.5490 C   0  0  1  0  0  0  0  0  0  0  0  0
    4.7610   -1.9690    0.4840 C   0  0  0  0  0  0  0  0  0  0  0  0
    5.9710   -2.7970    0.0190 C   0  0  0  0  0  0  0  0  0  0  0  0
    6.8000   -2.0040   -0.9760 C   0  0  0  0  0  0  0  0  0  0  0  0
    5.9440   -1.1050   -1.6940 N   0  0  0  0  0  0  0  0  0  0  0  0
    5.4490   -0.0230   -0.8660 C   0  0  0  0  0  0  0  0  0  0  0  0
   -0.7860   -0.5610    0.9930 S   0  0  0  0  0  0  0  0  0  0  0  0
   -1.8910    0.7550    0.5130 C   0  0  0  0  0  0  0  0  0  0  0  0
   -3.2710    0.8150    0.3210 C   0  0  0  0  0  0  0  0  0  0  0  0
   -3.9420   -0.2320    0.5040 N   0  0  0  0  0  0  0  0  0  0  0  0
   -3.5110   -1.4910    0.8820 C   0  0  0  0  0  0  0  0  0  0  0  0
   -3.3680   -1.8310    2.2070 C   0  0  0  0  0  0  0  0  0  0  0  0
   -2.9320   -3.1060    2.5860 C   0  0  0  0  0  0  0  0  0  0  0  0
   -2.7890   -3.4470    3.8890 F   0  0  0  0  0  0  0  0  0  0  0  0
   -2.6420   -4.0340    1.6090 C   0  0  0  0  0  0  0  0  0  0  0  0
   -2.7820   -3.7070    0.2560 C   0  0  0  0  0  0  0  0  0  0  0  0
   -2.4260   -4.8500   -1.0020 Cl  0  0  0  0  0  0  0  0  0  0  0  0
   -3.2170   -2.4310   -0.0830 C   0  0  0  0  0  0  0  0  0  0  0  0
   -3.3390   -2.1580   -1.4400 O   0  0  0  0  0  0  0  0  0  0  0  0
   -4.5670   -2.4060   -2.1200 C   0  0  0  0  0  0  0  0  0  0  0  0
   -3.8300    1.9780   -0.0500 N   0  0  0  0  0  0  0  0  0  0  0  0
  1  2  1  0
  2  3  1  0
  3  4  1  0
  4  5  2  0
  4 33  1  0
  5  6  1  0
  6  7  1  0
  6 20  2  0
  7  8  2  0
  8  9  1  0
  8 19  1  0
  9 10  2  0
  9 11  1  0
 11 12  1  0
 13 12  1  6
 13 14  1  0
 13 18  1  0
 14 15  1  0
 15 16  1  0
 16 17  1  0
 17 18  1  0
 19 20  1  0
 20 21  1  0
 21 22  2  3
 21 33  1  0
 22 23  1  0
 23 24  2  0
 23 30  1  0
 24 25  1  0
 25 26  1  0
 25 27  2  0
 27 28  1  0
 28 29  1  0
 28 30  2  0
 30 31  1  0
 31 32  1  0
M  CHG  1  17   1
M  END
