
     RDKit          3D

 32 36  0  0  0  0  0  0  0  0999 V2000
    2.6930    0.3830   -3.0740 C   0  0  0  0  0  0  0  0  0  0  0  0
    3.1220   -0.1720   -1.7480 C   0  0  0  0  0  0  0  0  0  0  0  0
    2.2230   -0.6560   -0.8790 N   0  0  0  0  0  0  0  0  0  0  0  0
    2.5990   -1.1530    0.2920 C   0  0  0  0  0  0  0  0  0  0  0  0
    1.7290   -1.7220    1.3390 C   0  0  0  0  0  0  0  0  0  0  0  0
    1.1250   -0.7970    2.2310 N   0  0  0  0  0  0  0  0  0  0  0  0
    0.0560    0.0830    1.9720 C   0  0  0  0  0  0  0  0  0  0  0  0
   -0.6540    0.0160    0.7620 C   0  0  0  0  0  0  0  0  0  0  0  0
   -1.7170    0.8400    0.5100 C   0  0  0  0  0  0  0  0  0  0  0  0
   -2.0600    1.7450    1.5060 C   0  0  0  0  0  0  0  0  0  0  0  0
   -1.3750    1.8210    2.6940 C   0  0  0  0  0  0  0  0  0  0  0  0
   -0.3030    0.9930    2.9550 C   0  0  0  0  0  0  0  0  0  0  0  0
    0.5820    1.0820    4.4730 Cl  0  0  0  0  0  0  0  0  0  0  0  0
   -3.2240    2.6010    1.1680 C   0  0  0  0  0  0  0  0  0  0  0  0
   -4.2730    1.6370    0.6150 C   0  0  0  0  0  0  0  0  0  0  0  0
   -3.8970    0.9330   -0.5410 N   0  0  0  0  0  0  0  0  0  0  0  0
   -4.5840   -0.3200   -0.6410 C   0  0  0  0  0  0  0  0  0  0  0  0
   -6.0330   -0.2820   -0.9540 C   0  0  2  0  0  0  0  0  0  0  0  0
   -6.9200    0.4900   -0.0430 C   0  0  0  0  0  0  0  0  0  0  0  0
   -8.2380   -0.3200   -0.1090 C   0  0  0  0  0  0  0  0  0  0  0  0
   -7.6550   -1.7110   -0.2790 C   0  0  0  0  0  0  0  0  0  0  0  0
   -6.5100   -1.6010   -1.0160 O   0  0  0  0  0  0  0  0  0  0  0  0
   -2.4830    0.7740   -0.7580 C   0  0  0  0  0  0  0  0  0  0  0  0
    3.9530   -1.1430    0.5560 C   0  0  0  0  0  0  0  0  0  0  0  0
    4.9270   -0.6590   -0.3000 C   0  0  0  0  0  0  0  0  0  0  0  0
    6.3380   -0.6830    0.1030 C   0  0  0  0  0  0  0  0  0  0  0  0
    6.7610   -0.9920    1.3450 C   0  0  0  0  0  0  0  0  0  0  0  0
    8.2360   -0.9350    1.4450 C   0  0  0  0  0  0  0  0  0  0  0  0
    8.6430   -0.5730    0.0970 C   0  0  0  0  0  0  0  0  0  0  0  0
    7.5280   -0.4350   -0.6450 C   0  0  0  0  0  0  0  0  0  0  0  0
    4.5050   -0.1540   -1.4940 C   0  0  0  0  0  0  0  0  0  0  0  0
    5.4230    0.4480   -2.5100 C   0  0  0  0  0  0  0  0  0  0  0  0
  1  2  1  0
  2  3  2  0
  2 31  1  0
  3  4  1  0
  4  5  1  0
  4 24  2  0
  5  6  1  0
  6  7  1  0
  7  8  2  0
  7 12  1  0
  8  9  1  0
  9 10  2  0
  9 23  1  0
 10 11  1  0
 10 14  1  0
 11 12  2  0
 12 13  1  0
 14 15  1  0
 15 16  1  0
 16 17  1  0
 16 23  1  0
 18 17  1  1
 18 19  1  0
 18 22  1  0
 19 20  1  0
 20 21  1  0
 21 22  1  0
 24 25  1  0
 25 26  1  0
 25 31  2  0
 26 27  2  0
 26 30  1  0
 27 28  1  0
 28 29  1  0
 29 30  2  0
 31 32  1  0
M  END
