
     RDKit          3D

 32 36  0  0  0  0  0  0  0  0999 V2000
    4.0540    2.4410    1.6240 C   0  0  0  0  0  0  0  0  0  0  0  0
    4.2840    2.0290    0.1410 C   0  0  0  0  0  0  0  0  0  0  0  0
    2.9740    2.0180   -0.5140 C   0  0  0  0  0  0  0  0  0  0  0  0
    2.4960    3.0970   -1.2260 N   0  0  0  0  0  0  0  0  0  0  0  0
    1.2750    2.8920   -1.5930 N   0  0  0  0  0  0  0  0  0  0  0  0
    0.8530    1.6680   -1.1510 C   0  0  0  0  0  0  0  0  0  0  0  0
    1.9520    1.1050   -0.4700 C   0  0  0  0  0  0  0  0  0  0  0  0
    1.7250   -0.2770   -0.0680 C   0  0  2  0  0  0  0  0  0  0  0  0
    0.3250   -0.6210    0.4080 C   0  0  0  0  0  0  0  0  0  0  0  0
   -0.6780   -0.0540   -0.2250 C   0  0  0  0  0  0  0  0  0  0  0  0
   -2.0650   -0.2830    0.0640 C   0  0  0  0  0  0  0  0  0  0  0  0
   -2.6790    0.2630    1.1320 C   0  0  0  0  0  0  0  0  0  0  0  0
   -4.0240    0.0880    1.3800 C   0  0  0  0  0  0  0  0  0  0  0  0
   -4.7820   -0.6570    0.5330 C   0  0  0  0  0  0  0  0  0  0  0  0
   -6.2570   -0.8900    0.7460 C   0  0  0  0  0  0  0  0  0  0  0  0
   -4.1800   -1.2340   -0.5770 C   0  0  0  0  0  0  0  0  0  0  0  0
   -5.0160   -2.0460   -1.4970 C   0  0  0  0  0  0  0  0  0  0  0  0
   -2.8260   -1.0400   -0.8010 C   0  0  0  0  0  0  0  0  0  0  0  0
   -0.4550    1.1320   -1.0650 N   0  0  0  0  0  0  0  0  0  0  0  0
   -1.4900    1.7660   -1.8110 C   0  0  0  0  0  0  0  0  0  0  0  0
   -2.5250    2.5100   -1.0330 C   0  0  0  0  0  0  0  0  0  0  0  0
    0.1340   -1.5790    1.5040 C   0  0  0  0  0  0  0  0  0  0  0  0
   -1.1910   -1.8700    2.0600 C   0  0  0  0  0  0  0  0  0  0  0  0
    1.2070   -2.2400    1.9900 C   0  0  0  0  0  0  0  0  0  0  0  0
    2.4990   -1.9920    1.4490 C   0  0  0  0  0  0  0  0  0  0  0  0
    3.8800   -2.9010    2.0700 Cl  0  0  0  0  0  0  0  0  0  0  0  0
    2.7610   -1.0970    0.4790 C   0  0  0  0  0  0  0  0  0  0  0  0
    4.1170   -1.1670   -0.1170 C   0  0  0  0  0  0  0  0  0  0  0  0
    4.4000   -0.9870   -1.4460 C   0  0  0  0  0  0  0  0  0  0  0  0
    5.7800   -1.1320   -1.6280 C   0  0  0  0  0  0  0  0  0  0  0  0
    6.2390   -1.3990   -0.3460 C   0  0  0  0  0  0  0  0  0  0  0  0
    5.2440   -1.4100    0.4970 O   0  0  0  0  0  0  0  0  0  0  0  0
  1  2  1  0
  2  3  1  0
  3  4  2  0
  3  7  1  0
  4  5  1  0
  5  6  1  0
  6  7  2  0
  6 19  1  0
  7  8  1  0
  8  9  1  0
  8 27  1  1
  9 10  2  0
  9 22  1  0
 10 11  1  0
 10 19  1  0
 11 12  2  0
 11 18  1  0
 12 13  1  0
 13 14  2  0
 14 15  1  0
 14 16  1  0
 16 17  1  0
 16 18  2  0
 19 20  1  0
 20 21  1  0
 22 23  1  0
 22 24  2  0
 24 25  1  0
 25 26  1  0
 25 27  2  0
 27 28  1  0
 28 29  2  0
 28 32  1  0
 29 30  1  0
 30 31  2  0
 31 32  1  0
M  END
