
     RDKit          3D

 10 10  0  0  0  0  0  0  0  0999 V2000
   -1.9140   -0.6950   -0.0160 C   0  0  0  0  0  0  0  0  0  0  0  0
   -0.4840   -0.4430   -0.0130 N   0  0  0  0  0  0  0  0  0  0  0  0
   -0.0390    0.8140    0.0390 C   0  0  0  0  0  0  0  0  0  0  0  0
   -0.9930    1.8640    0.0910 N   0  0  0  0  0  0  0  0  0  0  0  0
    1.3250    1.1190    0.0440 C   0  0  0  0  0  0  0  0  0  0  0  0
    2.1820    0.0830   -0.0070 N   0  0  0  0  0  0  0  0  0  0  0  0
    1.7270   -1.1850   -0.0600 C   0  0  0  0  0  0  0  0  0  0  0  0
    2.5640   -2.1480   -0.1080 O   0  0  0  0  0  0  0  0  0  0  0  0
    0.3740   -1.4770   -0.0640 C   0  0  0  0  0  0  0  0  0  0  0  0
   -0.0590   -2.6570   -0.1140 O   0  0  0  0  0  0  0  0  0  0  0  0
  1  2  1  0
  2  3  1  0
  2  9  1  0
  3  4  1  0
  3  5  2  0
  5  6  1  0
  6  7  1  0
  7  8  2  0
  7  9  1  0
  9 10  2  0
M  END
