
     RDKit          3D

 21 20  0  0  0  0  0  0  0  0999 V2000
   -4.8200   -1.3830    0.3590 N   0  0  0  0  0  0  0  0  0  0  0  0
   -3.6690   -1.1220   -0.4000 C   0  0  0  0  0  0  0  0  0  0  0  0
   -3.7570   -0.3640   -1.3690 O   0  0  0  0  0  0  0  0  0  0  0  0
   -2.3870   -1.7480   -0.0360 C   0  0  0  0  0  0  0  0  0  0  0  0
   -1.3350   -1.4460   -0.7930 O   0  0  0  0  0  0  0  0  0  0  0  0
   -0.8070   -0.2620   -1.0040 C   0  0  0  0  0  0  0  0  0  0  0  0
   -0.0830    0.4950    0.0720 C   0  0  2  0  0  0  0  0  0  0  0  0
   -0.8190    0.8240    1.3060 C   0  0  0  0  0  0  0  0  0  0  0  0
   -2.0080    1.5980    1.1830 N   0  0  0  0  0  0  0  0  0  0  0  0
    0.5190    1.7520   -0.5060 C   0  0  2  0  0  0  0  0  0  0  0  0
    1.1320    2.4780    0.4920 O   0  0  0  0  0  0  0  0  0  0  0  0
   -0.3950    2.6430   -1.2590 C   0  0  0  0  0  0  0  0  0  0  0  0
    0.3340    3.7210   -1.8410 O   0  0  0  0  0  0  0  0  0  0  0  0
    1.0710   -0.4270    0.4820 C   0  0  2  0  0  0  0  0  0  0  0  0
    0.3850   -1.6160    0.9040 O   0  0  0  0  0  0  0  0  0  0  0  0
    1.8540   -0.0090    1.6690 C   0  0  0  0  0  0  0  0  0  0  0  0
    2.7010    1.0440    1.5720 O   0  0  0  0  0  0  0  0  0  0  0  0
    1.9730   -0.8380   -0.6160 C   0  0  0  0  0  0  0  0  0  0  0  0
    2.8630   -1.7940   -0.0360 O   0  0  0  0  0  0  0  0  0  0  0  0
    3.7580   -2.2440   -1.0010 C   0  0  0  0  0  0  0  0  0  0  0  0
    3.1060   -2.8550   -2.0810 O   0  0  0  0  0  0  0  0  0  0  0  0
  1  2  1  0
  2  3  2  0
  2  4  1  0
  4  5  1  0
  5  6  1  0
  7  6  1  6
  7  8  1  0
  7 10  1  0
  7 14  1  0
  8  9  1  0
 10 11  1  1
 10 12  1  0
 12 13  1  0
 14 15  1  1
 14 16  1  0
 14 18  1  0
 16 17  1  0
 18 19  1  0
 19 20  1  0
 20 21  1  0
M  CHG  1   9   1
M  END
