
     RDKit          3D

 11 11  0  0  0  0  0  0  0  0999 V2000
    3.2590   -0.5600    0.3020 C   0  0  0  0  0  0  0  0  0  0  0  0
    2.0330   -1.1600    0.0110 O   0  0  0  0  0  0  0  0  0  0  0  0
    0.9710   -0.2930    0.2770 C   0  0  2  0  0  0  0  0  0  0  0  0
    0.2370   -0.8510    1.2800 O   0  0  0  0  0  0  0  0  0  0  0  0
   -1.0640   -0.4700    1.3850 C   0  0  0  0  0  0  0  0  0  0  0  0
   -1.8420   -0.5660    0.0910 C   0  0  1  0  0  0  0  0  0  0  0  0
   -3.1530   -0.2130    0.2900 O   0  0  0  0  0  0  0  0  0  0  0  0
   -1.1570    0.3600   -0.8920 C   0  0  1  0  0  0  0  0  0  0  0  0
   -1.3350    1.6860   -0.5700 O   0  0  0  0  0  0  0  0  0  0  0  0
    0.2700   -0.0120   -0.9940 C   0  0  2  0  0  0  0  0  0  0  0  0
    0.3890   -1.1110   -1.8600 O   0  0  0  0  0  0  0  0  0  0  0  0
  1  2  1  0
  3  2  1  6
  3  4  1  0
  3 10  1  0
  4  5  1  0
  5  6  1  0
  6  7  1  1
  6  8  1  0
  8  9  1  1
  8 10  1  0
 10 11  1  6
M  END
