
     RDKit          3D

 10 10  0  0  0  0  0  0  0  0999 V2000
   -2.2580   -1.0150    0.0760 C   0  0  0  0  0  0  0  0  0  0  0  0
   -1.0290   -0.2360    0.0380 N   0  0  0  0  0  0  0  0  0  0  0  0
   -1.0450    1.1240    0.0670 C   0  0  0  0  0  0  0  0  0  0  0  0
   -2.1710    1.6810    0.1280 O   0  0  0  0  0  0  0  0  0  0  0  0
    0.0800    1.8460    0.0330 N   0  0  0  0  0  0  0  0  0  0  0  0
    1.2970    1.2810   -0.0320 C   0  0  0  0  0  0  0  0  0  0  0  0
    1.3750   -0.1170   -0.0640 C   0  0  0  0  0  0  0  0  0  0  0  0
    2.6210   -0.7740   -0.1320 N   0  0  0  0  0  0  0  0  0  0  0  0
    0.1830   -0.8110   -0.0260 C   0  0  0  0  0  0  0  0  0  0  0  0
    0.2320   -2.0710   -0.0540 O   0  0  0  0  0  0  0  0  0  0  0  0
  1  2  1  0
  2  3  1  0
  2  9  1  0
  3  4  2  0
  3  5  1  0
  5  6  1  0
  6  7  2  0
  7  8  1  0
  7  9  1  0
  9 10  2  0
M  END
