
     RDKit          3D

  9  9  0  0  0  0  0  0  0  0999 V2000
   -2.1580    0.5890   -0.0570 C   0  0  0  0  0  0  0  0  0  0  0  0
   -0.7050    0.2840    0.0000 C   0  0  0  0  0  0  0  0  0  0  0  0
    0.1880    1.2380    0.3100 N   0  0  0  0  0  0  0  0  0  0  0  0
    1.5250    0.9860    0.3700 C   0  0  0  0  0  0  0  0  0  0  0  0
    2.3500    1.8750    0.6580 O   0  0  0  0  0  0  0  0  0  0  0  0
    1.9860   -0.2890    0.1040 C   0  0  0  0  0  0  0  0  0  0  0  0
    3.2280   -0.5790    0.1460 O   0  0  0  0  0  0  0  0  0  0  0  0
    1.0660   -1.2210   -0.2030 N   0  0  0  0  0  0  0  0  0  0  0  0
   -0.2370   -0.9500   -0.2550 N   0  0  0  0  0  0  0  0  0  0  0  0
  1  2  1  0
  2  3  2  0
  2  9  1  0
  3  4  1  0
  4  5  2  0
  4  6  1  0
  6  7  2  0
  6  8  1  0
  8  9  1  0
M  END
