
     RDKit          3D

 10 10  0  0  0  0  0  0  0  0999 V2000
    2.5060   -1.1250   -0.9640 N   0  0  0  0  0  0  0  0  0  0  0  0
    2.0390   -0.0910   -0.3580 C   0  0  0  0  0  0  0  0  0  0  0  0
    0.6130    0.0420   -0.1290 C   0  0  0  0  0  0  0  0  0  0  0  0
    0.0640    1.1360    0.5170 C   0  0  0  0  0  0  0  0  0  0  0  0
   -1.2560    1.2570    0.7280 N   0  0  0  0  0  0  0  0  0  0  0  0
   -2.0480    0.2680    0.2860 C   0  0  0  0  0  0  0  0  0  0  0  0
   -3.3020    0.3580    0.4730 O   0  0  0  0  0  0  0  0  0  0  0  0
   -1.5240   -0.8430   -0.3670 C   0  0  0  0  0  0  0  0  0  0  0  0
   -2.3230   -1.7500   -0.7650 O   0  0  0  0  0  0  0  0  0  0  0  0
   -0.2000   -0.9560   -0.5740 N   0  0  0  0  0  0  0  0  0  0  0  0
  1  2  2  0
  2  3  1  0
  3  4  2  0
  3 10  1  0
  4  5  1  0
  5  6  1  0
  6  7  2  0
  6  8  1  0
  8  9  2  0
  8 10  1  0
M  END
