
     RDKit          3D

 30 34  0  0  0  0  0  0  0  0999 V2000
    0.7830   -2.2800   -1.5780 O   0  0  0  0  0  0  0  0  0  0  0  0
    0.3150   -2.5520   -0.4060 C   0  0  0  0  0  0  0  0  0  0  0  0
    1.3290   -2.5930    0.6770 C   0  0  0  0  0  0  0  0  0  0  0  0
    2.4510   -3.5800    0.4880 C   0  0  0  0  0  0  0  0  0  0  0  0
    3.8460   -2.9550    0.7040 C   0  0  0  0  0  0  0  0  0  0  0  0
    3.7690   -1.4460    0.4730 C   0  0  0  0  0  0  0  0  0  0  0  0
    3.5360   -1.0230   -0.8030 C   0  0  0  0  0  0  0  0  0  0  0  0
    3.1170    0.3160   -1.0230 C   0  0  0  0  0  0  0  0  0  0  0  0
    2.9130    1.2800   -0.0380 C   0  0  0  0  0  0  0  0  0  0  0  0
    3.1950    0.7990    1.2350 C   0  0  0  0  0  0  0  0  0  0  0  0
    3.6140   -0.5370    1.4900 C   0  0  0  0  0  0  0  0  0  0  0  0
    2.0690    2.5100   -0.2790 N   0  0  0  0  0  0  0  0  0  0  0  0
    2.5190    3.7340   -0.6390 C   0  0  0  0  0  0  0  0  0  0  0  0
    1.8000    4.8020   -0.9420 N   0  0  0  0  0  0  0  0  0  0  0  0
    0.4730    4.6360   -0.8820 C   0  0  0  0  0  0  0  0  0  0  0  0
   -0.1250    3.4020   -0.5160 C   0  0  0  0  0  0  0  0  0  0  0  0
    0.6810    2.3650   -0.2170 C   0  0  0  0  0  0  0  0  0  0  0  0
    0.1570    1.1790    0.1560 O   0  0  0  0  0  0  0  0  0  0  0  0
   -1.6180    3.5090   -0.5810 C   0  0  0  0  0  0  0  0  0  0  0  0
   -2.3570    2.5150   -1.4420 C   0  0  0  0  0  0  0  0  0  0  0  0
   -2.6430    1.3390   -0.6040 C   0  0  1  0  0  0  0  0  0  0  0  0
   -4.1160    0.9910   -0.4130 C   0  0  0  0  0  0  0  0  0  0  0  0
   -3.9000   -0.3120    0.2560 C   0  0  0  0  0  0  0  0  0  0  0  0
   -4.6090   -1.0490    1.1540 C   0  0  0  0  0  0  0  0  0  0  0  0
   -4.1490   -2.3050    1.5640 C   0  0  0  0  0  0  0  0  0  0  0  0
   -2.9760   -2.7950    1.0570 C   0  0  0  0  0  0  0  0  0  0  0  0
   -2.1930   -2.0650    0.1140 C   0  0  0  0  0  0  0  0  0  0  0  0
   -2.6970   -0.8470   -0.2420 C   0  0  0  0  0  0  0  0  0  0  0  0
   -2.1830    0.0760   -1.1040 O   0  0  0  0  0  0  0  0  0  0  0  0
   -1.0660   -2.7640   -0.3580 N   0  0  0  0  0  0  0  0  0  0  0  0
  1  2  2  0
  2  3  1  0
  2 30  1  0
  3  4  1  0
  4  5  1  0
  5  6  1  0
  6  7  2  0
  6 11  1  0
  7  8  1  0
  8  9  2  0
  9 10  1  0
  9 12  1  0
 10 11  2  0
 12 13  1  0
 12 17  1  0
 13 14  2  0
 14 15  1  0
 15 16  2  0
 16 17  1  0
 16 19  1  0
 17 18  2  0
 19 20  1  0
 21 20  1  6
 21 22  1  0
 21 29  1  0
 22 23  1  0
 23 24  2  0
 23 28  1  0
 24 25  1  0
 25 26  2  0
 26 27  1  0
 27 28  2  0
 27 30  1  0
 28 29  1  0
M  END
