
     RDKit          3D

 30 35  0  0  0  0  0  0  0  0999 V2000
    0.4960    2.4350    2.4910 O   0  0  0  0  0  0  0  0  0  0  0  0
   -0.6230    2.3230    1.9220 C   0  0  0  0  0  0  0  0  0  0  0  0
   -1.5540    3.2470    1.9320 N   0  0  0  0  0  0  0  0  0  0  0  0
   -2.7260    3.0840    1.3120 C   0  0  0  0  0  0  0  0  0  0  0  0
   -2.9700    1.9000    0.6340 C   0  0  0  0  0  0  0  0  0  0  0  0
   -1.9910    0.9000    0.6120 C   0  0  0  0  0  0  0  0  0  0  0  0
   -0.8070    1.0780    1.2450 C   0  0  0  0  0  0  0  0  0  0  0  0
    0.2820    0.1470    1.3700 C   0  0  0  0  0  0  0  0  0  0  0  0
    0.3980   -0.7970    2.3190 N   0  0  0  0  0  0  0  0  0  0  0  0
    1.4810   -1.5520    2.4460 C   0  0  0  0  0  0  0  0  0  0  0  0
    2.5300   -1.3630    1.5730 C   0  0  0  0  0  0  0  0  0  0  0  0
    3.6990   -2.1120    1.6380 C   0  0  0  0  0  0  0  0  0  0  0  0
    3.7600   -2.9850    2.5440 O   0  0  0  0  0  0  0  0  0  0  0  0
    4.6770   -1.9030    0.7880 O   0  0  0  0  0  0  0  0  0  0  0  0
    4.6200   -0.9920   -0.1620 C   0  0  0  0  0  0  0  0  0  0  0  0
    5.6630   -0.7890   -1.0480 C   0  0  0  0  0  0  0  0  0  0  0  0
    5.5770    0.1740   -2.0350 C   0  0  0  0  0  0  0  0  0  0  0  0
    4.4360    0.9690   -2.1700 C   0  0  0  0  0  0  0  0  0  0  0  0
    3.3980    0.7670   -1.2880 C   0  0  0  0  0  0  0  0  0  0  0  0
    3.5070   -0.1990   -0.3120 C   0  0  0  0  0  0  0  0  0  0  0  0
    2.4610   -0.4080    0.5820 C   0  0  0  0  0  0  0  0  0  0  0  0
    1.3300    0.3070    0.5290 N   0  0  0  0  0  0  0  0  0  0  0  0
   -2.3310   -0.3950   -0.0070 C   0  0  0  0  0  0  0  0  0  0  0  0
   -1.3710   -1.3500   -0.1640 C   0  0  0  0  0  0  0  0  0  0  0  0
   -1.7140   -2.5240   -0.8600 C   0  0  0  0  0  0  0  0  0  0  0  0
   -2.9730   -2.6960   -1.3630 C   0  0  0  0  0  0  0  0  0  0  0  0
   -3.9230   -1.7170   -1.1920 C   0  0  0  0  0  0  0  0  0  0  0  0
   -3.6090   -0.5450   -0.5050 C   0  0  0  0  0  0  0  0  0  0  0  0
   -4.7230    0.4170   -0.3130 C   0  0  0  0  0  0  0  0  0  0  0  0
   -4.2190    1.7750   -0.1100 C   0  0  0  0  0  0  0  0  0  0  0  0
  1  2  2  0
  2  3  1  0
  2  7  1  0
  3  4  1  0
  4  5  2  0
  5  6  1  0
  5 30  1  0
  6  7  2  0
  6 23  1  0
  7  8  1  0
  8  9  2  0
  8 22  1  0
  9 10  1  0
 10 11  2  0
 11 12  1  0
 11 21  1  0
 12 13  2  0
 12 14  1  0
 14 15  1  0
 15 16  2  0
 15 20  1  0
 16 17  1  0
 17 18  2  0
 18 19  1  0
 19 20  2  0
 20 21  1  0
 21 22  2  0
 23 24  2  0
 23 28  1  0
 24 25  1  0
 25 26  2  0
 26 27  1  0
 27 28  2  0
 28 29  1  0
 29 30  1  0
M  END
