
     RDKit          3D

 29 31  0  0  0  0  0  0  0  0999 V2000
    7.1870    2.6890   -0.2550 C   0  0  0  0  0  0  0  0  0  0  0  0
    5.7860    2.4810    0.1580 N   0  0  0  0  0  0  0  0  0  0  0  0
    5.6240    1.1420    0.7020 C   0  0  0  0  0  0  0  0  0  0  0  0
    5.4440    0.1370   -0.3760 C   0  0  0  0  0  0  0  0  0  0  0  0
    4.1770    0.2770   -1.1170 N   0  0  0  0  0  0  0  0  0  0  0  0
    2.9840   -0.7000   -0.2900 S   0  0  1  0  0  0  0  0  0  0  0  0
    2.6340   -1.8280   -1.1980 O   0  0  0  0  0  0  0  0  0  0  0  0
    3.6270   -1.3530    0.9310 O   0  0  0  0  0  0  0  0  0  0  0  0
    1.5770    0.1570    0.2610 C   0  0  0  0  0  0  0  0  0  0  0  0
    0.6790    0.7020   -0.7820 C   0  0  0  0  0  0  0  0  0  0  0  0
   -0.1120   -0.2710   -1.6060 C   0  0  0  0  0  0  0  0  0  0  0  0
   -1.1730   -0.9600   -0.7780 C   0  0  0  0  0  0  0  0  0  0  0  0
   -2.4030   -0.2690   -0.7060 C   0  0  0  0  0  0  0  0  0  0  0  0
   -3.4290   -0.7920    0.1050 C   0  0  0  0  0  0  0  0  0  0  0  0
   -4.6440   -0.0890    0.1110 C   0  0  0  0  0  0  0  0  0  0  0  0
   -5.6760   -0.6910    0.9150 C   0  0  0  0  0  0  0  0  0  0  0  0
   -6.9990   -0.0100    0.9810 C   0  0  0  0  0  0  0  0  0  0  0  0
   -7.9840   -0.7220    0.1040 C   0  0  0  0  0  0  0  0  0  0  0  0
   -9.5820    0.0610    0.2140 Cl  0  0  0  0  0  0  0  0  0  0  0  0
   -5.3890   -1.8120    1.5620 C   0  0  0  0  0  0  0  0  0  0  0  0
   -6.5410   -2.4940    2.2170 C   0  0  0  0  0  0  0  0  0  0  0  0
   -7.4740   -3.0380    2.7680 N   0  0  0  0  0  0  0  0  0  0  0  0
   -4.1950   -2.4910    1.5590 C   0  0  0  0  0  0  0  0  0  0  0  0
   -3.1520   -1.9410    0.7740 C   0  0  0  0  0  0  0  0  0  0  0  0
   -1.9970   -2.6040    0.7160 N   0  0  0  0  0  0  0  0  0  0  0  0
   -1.0010   -2.0930   -0.0800 C   0  0  0  0  0  0  0  0  0  0  0  0
    0.1000   -2.7570   -0.1240 O   0  0  0  0  0  0  0  0  0  0  0  0
    3.8000    1.6900   -1.0920 C   0  0  0  0  0  0  0  0  0  0  0  0
    4.9880    2.6360   -1.0450 C   0  0  0  0  0  0  0  0  0  0  0  0
  1  2  1  0
  2  3  1  0
  2 29  1  0
  3  4  1  0
  4  5  1  0
  5  6  1  0
  5 28  1  0
  6  7  2  0
  6  8  2  0
  6  9  1  1
  9 10  1  0
 10 11  1  0
 11 12  1  0
 12 13  2  0
 12 26  1  0
 13 14  1  0
 14 15  2  0
 14 24  1  0
 15 16  1  0
 16 17  1  0
 16 20  2  0
 17 18  1  0
 18 19  1  0
 20 21  1  0
 20 23  1  0
 21 22  3  0
 23 24  2  0
 24 25  1  0
 25 26  1  0
 26 27  2  0
 28 29  1  0
M  END
