
     RDKit          3D

 30 35  0  0  0  0  0  0  0  0999 V2000
   -6.4340    1.6400    3.3570 C   0  0  0  0  0  0  0  0  0  0  0  0
   -5.3110    1.3600    2.4210 C   0  0  0  0  0  0  0  0  0  0  0  0
   -5.4230    0.3260    1.6100 C   0  0  0  0  0  0  0  0  0  0  0  0
   -6.5110   -0.6280    1.4760 C   0  0  0  0  0  0  0  0  0  0  0  0
   -6.2130   -1.5110    0.5350 C   0  0  0  0  0  0  0  0  0  0  0  0
   -4.9120   -1.2200   -0.0320 C   0  0  0  0  0  0  0  0  0  0  0  0
   -4.1900   -1.8480   -1.0260 C   0  0  0  0  0  0  0  0  0  0  0  0
   -2.9610   -1.3300   -1.3590 C   0  0  0  0  0  0  0  0  0  0  0  0
   -2.4890   -0.1870   -0.6810 C   0  0  0  0  0  0  0  0  0  0  0  0
   -1.2220    0.2690   -1.1110 N   0  0  0  0  0  0  0  0  0  0  0  0
   -0.9610    0.8490   -2.4130 C   0  0  0  0  0  0  0  0  0  0  0  0
    0.1920    0.1250   -3.0580 C   0  0  0  0  0  0  0  0  0  0  0  0
    1.3660    0.0600   -2.1740 C   0  0  0  0  0  0  0  0  0  0  0  0
    2.6350   -0.0200   -2.6830 N   0  0  0  0  0  0  0  0  0  0  0  0
    3.7160   -0.0910   -1.8890 C   0  0  0  0  0  0  0  0  0  0  0  0
    4.9750   -0.1680   -2.4920 C   0  0  0  0  0  0  0  0  0  0  0  0
    6.1150   -0.2410   -1.7170 C   0  0  0  0  0  0  0  0  0  0  0  0
    6.0240   -0.2390   -0.3220 C   0  0  0  0  0  0  0  0  0  0  0  0
    4.7630   -0.1620    0.2480 C   0  0  0  0  0  0  0  0  0  0  0  0
    3.6360   -0.0900   -0.5160 C   0  0  0  0  0  0  0  0  0  0  0  0
    2.3720   -0.0100    0.0330 C   0  0  0  0  0  0  0  0  0  0  0  0
    1.2620    0.0640   -0.8000 C   0  0  0  0  0  0  0  0  0  0  0  0
   -0.1050    0.1730   -0.2440 C   0  0  0  0  0  0  0  0  0  0  0  0
   -0.2550    0.1790    0.9950 O   0  0  0  0  0  0  0  0  0  0  0  0
    4.6940   -0.1630    1.6370 O   0  0  0  0  0  0  0  0  0  0  0  0
    5.7390    0.4820    2.3540 C   0  0  0  0  0  0  0  0  0  0  0  0
    7.0930    0.1910    1.8030 C   0  0  0  0  0  0  0  0  0  0  0  0
    7.1170   -0.3080    0.4910 O   0  0  0  0  0  0  0  0  0  0  0  0
   -3.2140    0.3840    0.2680 N   0  0  0  0  0  0  0  0  0  0  0  0
   -4.4180   -0.0980    0.6180 C   0  0  0  0  0  0  0  0  0  0  0  0
  1  2  1  0
  2  3  2  3
  3  4  1  0
  3 30  1  0
  4  5  2  0
  5  6  1  0
  6  7  2  0
  6 30  1  0
  7  8  1  0
  8  9  2  0
  9 10  1  0
  9 29  1  0
 10 11  1  0
 10 23  1  0
 11 12  1  0
 12 13  1  0
 13 14  2  0
 13 22  1  0
 14 15  1  0
 15 16  2  0
 15 20  1  0
 16 17  1  0
 17 18  2  0
 18 19  1  0
 18 28  1  0
 19 20  2  0
 19 25  1  0
 20 21  1  0
 21 22  2  0
 22 23  1  0
 23 24  2  0
 25 26  1  0
 26 27  1  0
 27 28  1  0
 29 30  2  0
M  END
