
     RDKit          3D

 30 32  0  0  0  0  0  0  0  0999 V2000
   -6.0310   -5.4390   -0.0140 C   0  0  0  0  0  0  0  0  0  0  0  0
   -6.1660   -4.0630   -0.5790 C   0  0  0  0  0  0  0  0  0  0  0  0
   -5.0640   -3.2250   -0.2930 O   0  0  0  0  0  0  0  0  0  0  0  0
   -4.6610   -2.9000    0.9740 C   0  0  0  0  0  0  0  0  0  0  0  0
   -5.3110   -3.3760    1.9450 O   0  0  0  0  0  0  0  0  0  0  0  0
   -3.4900   -2.0120    1.1600 C   0  0  0  0  0  0  0  0  0  0  0  0
   -2.9610   -1.6330   -0.2030 C   0  0  0  0  0  0  0  0  0  0  0  0
   -1.7890   -0.7450   -0.0690 N   0  0  0  0  0  0  0  0  0  0  0  0
   -0.4870   -1.1980    0.0140 C   0  0  0  0  0  0  0  0  0  0  0  0
   -0.1550   -2.4380   -0.0170 O   0  0  0  0  0  0  0  0  0  0  0  0
    0.5170   -0.1850    0.1410 C   0  0  0  0  0  0  0  0  0  0  0  0
    1.7720   -0.3280    0.2110 N   0  0  0  0  0  0  0  0  0  0  0  0
    2.6880    0.7460    0.3370 C   0  0  0  0  0  0  0  0  0  0  0  0
    3.9830    0.5220    0.3250 C   0  0  0  0  0  0  0  0  0  0  0  0
    4.5010   -0.8480    0.1820 C   0  0  0  0  0  0  0  0  0  0  0  0
    5.8080   -1.0720    0.1710 C   0  0  0  0  0  0  0  0  0  0  0  0
    6.3380   -2.7380   -0.0050 Cl  0  0  0  0  0  0  0  0  0  0  0  0
    6.7820    0.0280    0.3000 C   0  0  0  0  0  0  0  0  0  0  0  0
    8.0940    0.0200    0.3120 C   0  0  0  0  0  0  0  0  0  0  0  0
    8.5770    1.4030    0.4670 C   0  0  0  0  0  0  0  0  0  0  0  0
    7.3490    2.2180    0.5430 C   0  0  0  0  0  0  0  0  0  0  0  0
    6.3150    1.4090    0.4450 C   0  0  0  0  0  0  0  0  0  0  0  0
    4.8970    1.6010    0.4520 N   0  0  0  0  0  0  0  0  0  0  0  0
   -0.3580    1.3640    0.1850 S   0  0  0  0  0  0  0  0  0  0  0  0
   -1.9870    0.6530   -0.0190 C   0  0  0  0  0  0  0  0  0  0  0  0
   -3.0860    1.3300   -0.0990 N   0  0  0  0  0  0  0  0  0  0  0  0
   -3.0900    2.7720   -0.0270 C   0  0  0  0  0  0  0  0  0  0  0  0
   -2.6580    3.4060   -1.3300 C   0  0  0  0  0  0  0  0  0  0  0  0
   -2.6670    4.7860   -1.2450 O   0  0  0  0  0  0  0  0  0  0  0  0
   -1.8380    5.3140   -0.2880 C   0  0  0  0  0  0  0  0  0  0  0  0
  1  2  1  0
  2  3  1  0
  3  4  1  0
  4  5  2  0
  4  6  1  0
  6  7  1  0
  7  8  1  0
  8  9  1  0
  8 25  1  0
  9 10  2  0
  9 11  1  0
 11 12  2  3
 11 24  1  0
 12 13  1  0
 13 14  2  3
 14 15  1  0
 14 23  1  0
 15 16  2  0
 16 17  1  0
 16 18  1  0
 18 19  2  0
 18 22  1  0
 19 20  1  0
 20 21  1  0
 21 22  2  0
 22 23  1  0
 24 25  1  0
 25 26  2  3
 26 27  1  0
 27 28  1  0
 28 29  1  0
 29 30  1  0
M  END
