
     RDKit          3D

 30 32  0  0  0  0  0  0  0  0999 V2000
    5.5520   -0.7460    1.6510 C   0  0  0  0  0  0  0  0  0  0  0  0
    5.9690    0.0380    0.4240 C   0  0  0  0  0  0  0  0  0  0  0  0
    7.2180    0.4450    0.3310 C   0  0  0  0  0  0  0  0  0  0  0  0
    7.3040    1.2940   -1.1970 S   0  0  2  0  0  0  0  0  0  0  0  0
    8.2350    0.5890   -2.1400 O   0  0  0  0  0  0  0  0  0  0  0  0
    7.6460    2.7340   -1.0270 O   0  0  0  0  0  0  0  0  0  0  0  0
    5.6310    1.0550   -1.6460 C   0  0  0  0  0  0  0  0  0  0  0  0
    5.1050    0.3680   -0.6490 C   0  0  0  0  0  0  0  0  0  0  0  0
    3.6470   -0.0270   -0.7200 C   0  0  0  0  0  0  0  0  0  0  0  0
    2.8350    0.6170    0.3500 C   0  0  0  0  0  0  0  0  0  0  0  0
    1.4000    0.2330    0.2830 C   0  0  0  0  0  0  0  0  0  0  0  0
    1.0760   -0.5560   -0.6370 O   0  0  0  0  0  0  0  0  0  0  0  0
    0.4280    0.6990    1.1730 N   0  0  0  0  0  0  0  0  0  0  0  0
   -0.9900    0.3110    1.1050 C   0  0  0  0  0  0  0  0  0  0  0  0
   -1.0870   -1.1700    1.2940 C   0  0  0  0  0  0  0  0  0  0  0  0
   -2.4670   -1.7430    1.2070 C   0  0  0  0  0  0  0  0  0  0  0  0
   -3.1060   -1.5200   -0.0560 N   0  0  0  0  0  0  0  0  0  0  0  0
   -3.9020   -0.5660   -0.4770 C   0  0  0  0  0  0  0  0  0  0  0  0
   -4.4620    0.6140    0.1840 C   0  0  0  0  0  0  0  0  0  0  0  0
   -5.2240    1.4890   -0.6080 C   0  0  0  0  0  0  0  0  0  0  0  0
   -5.7820    2.5960   -0.0400 C   0  0  0  0  0  0  0  0  0  0  0  0
   -5.6340    2.9080    1.3000 C   0  0  0  0  0  0  0  0  0  0  0  0
   -6.3880    4.3510    1.9340 Cl  0  0  0  0  0  0  0  0  0  0  0  0
   -4.9040    2.0770    2.0780 C   0  0  0  0  0  0  0  0  0  0  0  0
   -4.3280    0.9360    1.4980 C   0  0  0  0  0  0  0  0  0  0  0  0
   -4.1710   -0.8570   -1.7970 N   0  0  0  0  0  0  0  0  0  0  0  0
   -3.5620   -1.9440   -2.1570 N   0  0  0  0  0  0  0  0  0  0  0  0
   -3.6330   -2.5400   -3.4990 C   0  0  0  0  0  0  0  0  0  0  0  0
   -2.8860   -2.3860   -1.0920 C   0  0  0  0  0  0  0  0  0  0  0  0
   -2.1870   -3.4210   -1.0990 O   0  0  0  0  0  0  0  0  0  0  0  0
  1  2  1  0
  2  3  2  0
  2  8  1  0
  4  3  1  1
  4  5  2  0
  4  6  2  0
  4  7  1  0
  7  8  2  0
  8  9  1  0
  9 10  1  0
 10 11  1  0
 11 12  2  0
 11 13  1  0
 13 14  1  0
 14 15  1  0
 15 16  1  0
 16 17  1  0
 17 18  1  0
 17 29  1  0
 18 19  1  0
 18 26  2  0
 19 20  2  0
 19 25  1  0
 20 21  1  0
 21 22  2  0
 22 23  1  0
 22 24  1  0
 24 25  2  0
 26 27  1  0
 27 28  1  0
 27 29  1  0
 29 30  2  0
M  END
