
     RDKit          3D

 29 32  0  0  0  0  0  0  0  0999 V2000
    5.0000    0.3810    1.5890 C   0  0  0  0  0  0  0  0  0  0  0  0
    4.8890    1.4480    0.6070 N   0  0  2  0  0  0  0  0  0  0  0  0
    5.3720    0.9540   -0.6430 C   0  0  0  0  0  0  0  0  0  0  0  0
    5.8440    2.4880    1.0580 C   0  0  0  0  0  0  0  0  0  0  0  0
    3.6160    2.0880    0.5820 C   0  0  0  0  0  0  0  0  0  0  0  0
    2.4170    1.2170    0.6320 C   0  0  0  0  0  0  0  0  0  0  0  0
    2.3600    0.2910   -0.5300 C   0  0  0  0  0  0  0  0  0  0  0  0
    1.1810   -0.5770   -0.4920 N   0  0  0  0  0  0  0  0  0  0  0  0
   -0.0990   -0.3280   -1.0490 C   0  0  0  0  0  0  0  0  0  0  0  0
   -0.5920    0.8190   -1.2910 O   0  0  0  0  0  0  0  0  0  0  0  0
   -0.7770   -1.5980   -1.3080 C   0  0  1  0  0  0  0  0  0  0  0  0
   -0.0920   -2.5690   -0.4030 C   0  0  1  0  0  0  0  0  0  0  0  0
    1.0990   -1.8540    0.1230 C   0  0  0  0  0  0  0  0  0  0  0  0
    1.9170   -2.2880    0.9750 O   0  0  0  0  0  0  0  0  0  0  0  0
   -1.1190   -2.8650    0.6420 C   0  0  2  0  0  0  0  0  0  0  0  0
   -1.0800   -4.3520    0.9230 C   0  0  0  0  0  0  0  0  0  0  0  0
   -2.3290   -4.9190    0.3360 C   0  0  0  0  0  0  0  0  0  0  0  0
   -3.0290   -3.7820   -0.3290 C   0  0  0  0  0  0  0  0  0  0  0  0
   -2.4100   -2.5530    0.1120 N   0  0  2  0  0  0  0  0  0  0  0  0
   -2.2310   -1.6060   -0.9760 C   0  0  1  0  0  0  0  0  0  0  0  0
   -2.7920   -0.2790   -0.6640 C   0  0  0  0  0  0  0  0  0  0  0  0
   -3.5580    0.4420   -1.5580 C   0  0  0  0  0  0  0  0  0  0  0  0
   -4.0750    1.6850   -1.2430 C   0  0  0  0  0  0  0  0  0  0  0  0
   -3.8480    2.2680   -0.0100 C   0  0  0  0  0  0  0  0  0  0  0  0
   -4.4130    3.5980    0.3010 C   0  0  0  0  0  0  0  0  0  0  0  0
   -5.2010    4.2690   -0.7060 N   0  0  0  0  0  0  0  0  0  0  0  0
   -4.2510    4.2020    1.4090 N   0  0  0  0  0  0  0  0  0  0  0  0
   -3.0880    1.5590    0.8860 C   0  0  0  0  0  0  0  0  0  0  0  0
   -2.5650    0.2990    0.5660 C   0  0  0  0  0  0  0  0  0  0  0  0
  2  1  1  1
  2  3  1  0
  2  4  1  0
  2  5  1  0
  5  6  1  0
  6  7  1  0
  7  8  1  0
  8  9  1  0
  8 13  1  0
  9 10  2  0
 11  9  1  1
 11 12  1  0
 11 20  1  0
 12 13  1  1
 12 15  1  0
 13 14  2  0
 15 16  1  6
 15 19  1  0
 16 17  1  0
 17 18  1  0
 19 18  1  6
 19 20  1  0
 20 21  1  1
 21 22  2  0
 21 29  1  0
 22 23  1  0
 23 24  2  0
 24 25  1  0
 24 28  1  0
 25 26  1  0
 25 27  2  0
 28 29  2  0
M  CHG  3   2   1  19   1  27   1
M  END
