
     RDKit          3D

 14 14  0  0  0  0  0  0  0  0999 V2000
    4.3510    1.1460   -0.7280 O   0  0  0  0  0  0  0  0  0  0  0  0
    3.0310    0.7040   -0.7710 C   0  0  0  0  0  0  0  0  0  0  0  0
    2.7150    0.0740    0.5460 C   0  0  2  0  0  0  0  0  0  0  0  0
    3.6060   -0.9990    0.7230 O   0  0  0  0  0  0  0  0  0  0  0  0
    1.3190   -0.5030    0.6050 C   0  0  2  0  0  0  0  0  0  0  0  0
    1.1330   -1.4460   -0.3910 O   0  0  0  0  0  0  0  0  0  0  0  0
    0.2560    0.5420    0.5060 C   0  0  0  0  0  0  0  0  0  0  0  0
   -1.0470   -0.0600    0.6620 N   0  0  0  0  0  0  0  0  0  0  0  0
   -2.0730    0.9640    0.5650 C   0  0  0  0  0  0  0  0  0  0  0  0
   -3.0080    0.5270   -0.5440 C   0  0  2  0  0  0  0  0  0  0  0  0
   -4.3130    0.9480   -0.3270 O   0  0  0  0  0  0  0  0  0  0  0  0
   -2.8680   -0.9790   -0.4510 C   0  0  2  0  0  0  0  0  0  0  0  0
   -3.4110   -1.4200    0.7480 O   0  0  0  0  0  0  0  0  0  0  0  0
   -1.3450   -1.0840   -0.2890 C   0  0  0  0  0  0  0  0  0  0  0  0
  1  2  1  0
  2  3  1  0
  3  4  1  6
  3  5  1  0
  5  6  1  6
  5  7  1  0
  7  8  1  0
  8  9  1  0
  8 14  1  0
  9 10  1  0
 10 11  1  1
 10 12  1  0
 12 13  1  1
 12 14  1  0
M  END
