
     RDKit          3D

 15 15  0  0  0  0  0  0  0  0999 V2000
   -2.2370   -2.4350   -0.0720 N   0  0  0  0  0  0  0  0  0  0  0  0
   -1.4620   -1.2050    0.1510 C   0  0  1  0  0  0  0  0  0  0  0  0
   -0.7540   -0.8770   -0.9340 O   0  0  0  0  0  0  0  0  0  0  0  0
    0.4340   -1.2200   -1.0950 O   0  0  0  0  0  0  0  0  0  0  0  0
    1.2430   -1.4820   -0.0530 C   0  0  0  0  0  0  0  0  0  0  0  0
    2.6750   -1.0910   -0.4490 C   0  0  2  0  0  0  0  0  0  0  0  0
    3.5640   -1.6300    0.4810 O   0  0  0  0  0  0  0  0  0  0  0  0
    2.8320    0.4270   -0.3690 C   0  0  0  0  0  0  0  0  0  0  0  0
    1.7130    1.0940   -0.8180 O   0  0  0  0  0  0  0  0  0  0  0  0
    1.3070    2.0790    0.0970 C   0  0  0  0  0  0  0  0  0  0  0  0
   -0.1870    2.2180    0.1620 C   0  0  0  0  0  0  0  0  0  0  0  0
   -0.7920    1.2720   -0.6360 O   0  0  0  0  0  0  0  0  0  0  0  0
   -2.1420    1.1320   -0.4400 C   0  0  0  0  0  0  0  0  0  0  0  0
   -2.5030   -0.0980    0.3810 C   0  0  1  0  0  0  0  0  0  0  0  0
   -3.7650   -0.5020   -0.0500 O   0  0  0  0  0  0  0  0  0  0  0  0
  2  1  1  6
  2  3  1  0
  2 14  1  0
  3  4  1  0
  4  5  1  0
  5  6  1  0
  6  7  1  1
  6  8  1  0
  8  9  1  0
  9 10  1  0
 10 11  1  0
 11 12  1  0
 12 13  1  0
 13 14  1  0
 14 15  1  6
M  END
