
     RDKit          3D

 14 14  0  0  0  0  0  0  0  0999 V2000
    3.6060    0.7970    1.2770 O   0  0  0  0  0  0  0  0  0  0  0  0
    2.6600    0.1820    0.4200 C   0  0  0  0  0  0  0  0  0  0  0  0
    1.4000    0.9740    0.3530 C   0  0  0  0  0  0  0  0  0  0  0  0
    0.3760    0.3330   -0.5450 C   0  0  1  0  0  0  0  0  0  0  0  0
    0.9620    0.2360   -1.9350 C   0  0  0  0  0  0  0  0  0  0  0  0
    1.2340    1.5050   -2.4650 O   0  0  0  0  0  0  0  0  0  0  0  0
    0.1340   -0.9460   -0.0570 O   0  0  0  0  0  0  0  0  0  0  0  0
   -0.4050   -0.9550    1.2010 C   0  0  2  0  0  0  0  0  0  0  0  0
   -1.0110   -2.1930    1.4170 O   0  0  0  0  0  0  0  0  0  0  0  0
   -1.4380    0.0510    1.3740 N   0  0  0  0  0  0  0  0  0  0  0  0
   -1.8130    0.6870    0.1400 C   0  0  2  0  0  0  0  0  0  0  0  0
   -2.8270   -0.1810   -0.5740 C   0  0  0  0  0  0  0  0  0  0  0  0
   -2.3230   -1.4460   -0.8680 O   0  0  0  0  0  0  0  0  0  0  0  0
   -0.7800    1.0900   -0.6470 O   0  0  0  0  0  0  0  0  0  0  0  0
  1  2  1  0
  2  3  1  0
  4  3  1  1
  4  5  1  0
  4  7  1  0
  4 14  1  0
  5  6  1  0
  7  8  1  0
  8  9  1  6
  8 10  1  0
 10 11  1  0
 11 12  1  6
 11 14  1  0
 12 13  1  0
M  END
