
     RDKit          3D

 14 14  0  0  0  0  0  0  0  0999 V2000
    1.9370   -1.3390   -0.6650 C   0  0  0  0  0  0  0  0  0  0  0  0
    1.0290   -0.1910   -0.1800 C   0  0  1  0  0  0  0  0  0  0  0  0
    1.9130    0.6390    0.7310 C   0  0  0  0  0  0  0  0  0  0  0  0
    3.0240    1.1460    0.0780 O   0  0  0  0  0  0  0  0  0  0  0  0
    0.5880    0.5330   -1.3990 C   0  0  0  0  0  0  0  0  0  0  0  0
   -0.6810    1.0480   -1.3680 O   0  0  0  0  0  0  0  0  0  0  0  0
   -1.6480    0.1420   -0.9680 C   0  0  1  0  0  0  0  0  0  0  0  0
   -1.6870   -1.0060   -1.7080 O   0  0  0  0  0  0  0  0  0  0  0  0
   -1.4040   -0.1040    0.5120 C   0  0  2  0  0  0  0  0  0  0  0  0
   -2.3670   -0.9470    1.0650 O   0  0  0  0  0  0  0  0  0  0  0  0
   -1.5170    1.2560    1.1510 C   0  0  0  0  0  0  0  0  0  0  0  0
   -2.8210    1.7130    0.8730 O   0  0  0  0  0  0  0  0  0  0  0  0
   -0.0790   -0.7510    0.6670 C   0  0  1  0  0  0  0  0  0  0  0  0
   -0.2320   -2.1030    0.2760 O   0  0  0  0  0  0  0  0  0  0  0  0
  2  1  1  6
  2  3  1  0
  2  5  1  0
  2 13  1  0
  3  4  1  0
  5  6  1  0
  6  7  1  0
  7  8  1  6
  7  9  1  0
  9 10  1  1
  9 11  1  0
  9 13  1  0
 11 12  1  0
 13 14  1  6
M  END
