
     RDKit          3D

 25 28  0  0  0  0  0  0  0  0999 V2000
    8.2570    0.8340    0.3820 C   0  0  0  0  0  0  0  0  0  0  0  0
    7.4120    0.7630   -0.8630 C   0  0  0  0  0  0  0  0  0  0  0  0
    6.1400    0.0380   -0.6520 C   0  0  0  0  0  0  0  0  0  0  0  0
    6.0460   -1.3180   -0.8470 C   0  0  0  0  0  0  0  0  0  0  0  0
    4.8430   -1.9820   -0.6440 C   0  0  0  0  0  0  0  0  0  0  0  0
    3.8020   -1.2260   -0.2520 N   0  0  0  0  0  0  0  0  0  0  0  0
    3.8640    0.0970   -0.0540 C   0  0  0  0  0  0  0  0  0  0  0  0
    2.7100    0.8140    0.3610 N   0  0  0  0  0  0  0  0  0  0  0  0
    1.4590    0.1940    0.5840 C   0  0  0  0  0  0  0  0  0  0  0  0
    1.3560   -1.0350    0.4110 O   0  0  0  0  0  0  0  0  0  0  0  0
    0.3090    0.9890    1.0120 C   0  0  0  0  0  0  0  0  0  0  0  0
   -0.9120    0.2650    1.2100 N   0  0  0  0  0  0  0  0  0  0  0  0
   -1.9400    1.1770    1.6420 C   0  0  0  0  0  0  0  0  0  0  0  0
   -2.7950    1.5810    0.4300 C   0  0  0  0  0  0  0  0  0  0  0  0
   -3.5090    0.3180    0.0700 C   0  0  0  0  0  0  0  0  0  0  0  0
   -2.7070   -0.7950   -0.0440 C   0  0  0  0  0  0  0  0  0  0  0  0
   -3.5350   -1.8570   -0.3720 C   0  0  0  0  0  0  0  0  0  0  0  0
   -4.8080   -1.3380   -0.4430 C   0  0  0  0  0  0  0  0  0  0  0  0
   -4.7800   -0.0410   -0.1780 N   0  0  0  0  0  0  0  0  0  0  0  0
   -5.9710    0.8160   -0.1700 C   0  0  0  0  0  0  0  0  0  0  0  0
   -7.2050   -0.0480   -0.3030 C   0  0  0  0  0  0  0  0  0  0  0  0
   -7.0120   -1.0900   -1.2020 O   0  0  0  0  0  0  0  0  0  0  0  0
   -6.0890   -2.0110   -0.7550 C   0  0  0  0  0  0  0  0  0  0  0  0
   -1.2560   -0.6410    0.1800 C   0  0  0  0  0  0  0  0  0  0  0  0
    5.0500    0.7150   -0.2610 N   0  0  0  0  0  0  0  0  0  0  0  0
  1  2  1  0
  2  3  1  0
  3  4  2  0
  3 25  1  0
  4  5  1  0
  5  6  2  0
  6  7  1  0
  7  8  1  0
  7 25  2  0
  8  9  1  0
  9 10  2  0
  9 11  1  0
 11 12  1  0
 12 13  1  0
 12 24  1  0
 13 14  1  0
 14 15  1  0
 15 16  2  0
 15 19  1  0
 16 17  1  0
 16 24  1  0
 17 18  2  0
 18 19  1  0
 18 23  1  0
 19 20  1  0
 20 21  1  0
 21 22  1  0
 22 23  1  0
M  END
