
     RDKit          3D

 25 28  0  0  0  0  0  0  0  0999 V2000
    1.0540    1.5950   -0.6700 C   0  0  0  0  0  0  0  0  0  0  0  0
    0.6050    0.3320    0.0300 C   0  0  2  0  0  0  0  0  0  0  0  0
    1.2740   -0.8650   -0.5120 C   0  0  0  0  0  0  0  0  0  0  0  0
    1.2230   -1.9810    0.0210 O   0  0  0  0  0  0  0  0  0  0  0  0
    2.0270   -0.7220   -1.7290 N   0  0  0  0  0  0  0  0  0  0  0  0
    3.2790   -0.4290   -1.5510 C   0  0  0  0  0  0  0  0  0  0  0  0
    3.9880   -0.2330   -0.3040 C   0  0  0  0  0  0  0  0  0  0  0  0
    5.2460    0.0400   -0.6060 C   0  0  0  0  0  0  0  0  0  0  0  0
    6.3860    0.3220    0.2890 C   0  0  1  0  0  0  0  0  0  0  0  0
    6.7450   -0.5920    1.3930 C   0  0  0  0  0  0  0  0  0  0  0  0
    7.5430   -0.6570    0.1530 C   0  0  0  0  0  0  0  0  0  0  0  0
    5.3620    0.0250   -2.0260 N   0  0  0  0  0  0  0  0  0  0  0  0
    4.2430   -0.2420   -2.5710 N   0  0  0  0  0  0  0  0  0  0  0  0
   -0.8530    0.1820   -0.0270 C   0  0  0  0  0  0  0  0  0  0  0  0
   -1.5520   -0.0560    1.1310 C   0  0  0  0  0  0  0  0  0  0  0  0
   -2.9120   -0.1960    1.1220 C   0  0  0  0  0  0  0  0  0  0  0  0
   -3.6320   -0.1030   -0.0520 C   0  0  0  0  0  0  0  0  0  0  0  0
   -5.0310   -0.2620    0.0320 N   0  0  0  0  0  0  0  0  0  0  0  0
   -5.8980    0.5110    0.9250 C   0  0  0  0  0  0  0  0  0  0  0  0
   -6.9450   -0.5460    1.2850 C   0  0  0  0  0  0  0  0  0  0  0  0
   -7.1910   -1.1170   -0.0310 N   0  0  0  0  0  0  0  0  0  0  0  0
   -5.9060   -1.1460   -0.6680 C   0  0  0  0  0  0  0  0  0  0  0  0
   -5.5610   -1.8120   -1.6650 O   0  0  0  0  0  0  0  0  0  0  0  0
   -2.9350    0.1360   -1.2140 C   0  0  0  0  0  0  0  0  0  0  0  0
   -1.5390    0.2800   -1.2060 C   0  0  0  0  0  0  0  0  0  0  0  0
  2  1  1  6
  2  3  1  0
  2 14  1  0
  3  4  2  0
  3  5  1  0
  5  6  2  3
  6  7  1  0
  6 13  1  0
  7  8  2  0
  9  8  1  6
  8 12  1  0
  9 10  1  0
  9 11  1  0
 10 11  1  0
 12 13  2  0
 14 15  2  0
 14 25  1  0
 15 16  1  0
 16 17  2  0
 17 18  1  0
 17 24  1  0
 18 19  1  0
 18 22  1  0
 19 20  1  0
 20 21  1  0
 21 22  1  0
 22 23  2  0
 24 25  2  0
M  END
