
     RDKit          3D

 25 27  0  0  0  0  0  0  0  0999 V2000
   -5.6280   -1.5000   -1.1760 C   0  0  0  0  0  0  0  0  0  0  0  0
   -4.3480   -1.3730   -0.4850 C   0  0  0  0  0  0  0  0  0  0  0  0
   -3.7270   -0.3080   -0.0630 C   0  0  0  0  0  0  0  0  0  0  0  0
   -2.4540   -0.4490    0.6000 N   0  0  0  0  0  0  0  0  0  0  0  0
   -1.6950    0.6360    1.0980 C   0  0  0  0  0  0  0  0  0  0  0  0
   -0.3960    0.3390    1.7560 C   0  0  0  0  0  0  0  0  0  0  0  0
    0.5910   -0.2380    0.9140 N   0  0  0  0  0  0  0  0  0  0  0  0
    1.5510    0.5200    0.1470 C   0  0  0  0  0  0  0  0  0  0  0  0
    1.4290    1.7150   -0.2240 O   0  0  0  0  0  0  0  0  0  0  0  0
    2.6800   -0.3200   -0.1260 N   0  0  0  0  0  0  0  0  0  0  0  0
    3.8860    0.0360   -0.8720 C   0  0  0  0  0  0  0  0  0  0  0  0
    4.9460    0.6060    0.0760 C   0  0  0  0  0  0  0  0  0  0  0  0
    6.1450    0.9370   -0.8070 C   0  0  0  0  0  0  0  0  0  0  0  0
    5.6670    1.9540   -1.8290 C   0  0  0  0  0  0  0  0  0  0  0  0
    2.3910   -1.5780    0.4780 C   0  0  0  0  0  0  0  0  0  0  0  0
    3.1960   -2.4700    0.8260 O   0  0  0  0  0  0  0  0  0  0  0  0
    0.9050   -1.6090    0.6100 C   0  0  2  0  0  0  0  0  0  0  0  0
    0.3370   -2.0680   -0.6900 C   0  0  0  0  0  0  0  0  0  0  0  0
    0.5910   -2.5400    1.7570 C   0  0  0  0  0  0  0  0  0  0  0  0
   -2.1400    1.8410    0.9680 N   0  0  0  0  0  0  0  0  0  0  0  0
   -3.3750    2.1340    0.3380 C   0  0  0  0  0  0  0  0  0  0  0  0
   -3.9940    3.2680    0.1090 N   0  0  0  0  0  0  0  0  0  0  0  0
   -5.2280    3.0670   -0.5630 C   0  0  0  0  0  0  0  0  0  0  0  0
   -5.2940    1.5790   -0.7290 C   0  0  0  0  0  0  0  0  0  0  0  0
   -4.2120    1.0670   -0.1990 C   0  0  0  0  0  0  0  0  0  0  0  0
  1  2  1  0
  2  3  2  3
  3  4  1  0
  3 25  1  0
  4  5  1  0
  5  6  1  0
  5 20  2  0
  6  7  1  0
  7  8  1  0
  7 17  1  0
  8  9  2  0
  8 10  1  0
 10 11  1  0
 10 15  1  0
 11 12  1  0
 12 13  1  0
 13 14  1  0
 15 16  2  0
 15 17  1  0
 17 18  1  6
 17 19  1  0
 20 21  1  0
 21 22  2  0
 21 25  1  0
 22 23  1  0
 23 24  1  0
 24 25  2  0
M  END
