
     RDKit          3D

 15 16  0  0  0  0  0  0  0  0999 V2000
    0.2770   -2.6240   -0.3290 N   0  0  0  0  0  0  0  0  0  0  0  0
    0.9640   -1.4760    0.1540 C   0  0  0  0  0  0  0  0  0  0  0  0
    2.2060   -1.6160    0.2800 O   0  0  0  0  0  0  0  0  0  0  0  0
    0.3410   -0.2240    0.4920 C   0  0  2  0  0  0  0  0  0  0  0  0
   -0.4540   -0.3910    1.7700 C   0  0  0  0  0  0  0  0  0  0  0  0
   -1.6660   -0.9260    1.3600 O   0  0  0  0  0  0  0  0  0  0  0  0
   -2.0170   -0.2960    0.1870 C   0  0  2  0  0  0  0  0  0  0  0  0
   -2.6570   -1.1650   -0.7040 O   0  0  0  0  0  0  0  0  0  0  0  0
   -0.7560    0.2630   -0.4290 C   0  0  2  0  0  0  0  0  0  0  0  0
   -0.5480   -0.1360   -1.7150 O   0  0  0  0  0  0  0  0  0  0  0  0
   -0.7360    1.7370   -0.1810 C   0  0  0  0  0  0  0  0  0  0  0  0
    0.3330    2.0590    0.6450 O   0  0  0  0  0  0  0  0  0  0  0  0
    1.2360    0.9640    0.5110 C   0  0  2  0  0  0  0  0  0  0  0  0
    1.9230    1.2410   -0.8040 C   0  0  0  0  0  0  0  0  0  0  0  0
    2.8740    0.3290   -1.1820 O   0  0  0  0  0  0  0  0  0  0  0  0
  1  2  1  0
  2  3  2  0
  4  2  1  6
  4  5  1  0
  4  9  1  0
  4 13  1  0
  5  6  1  0
  6  7  1  0
  7  8  1  6
  7  9  1  0
  9 10  1  6
  9 11  1  0
 11 12  1  0
 12 13  1  0
 13 14  1  6
 14 15  1  0
M  END
