
     RDKit          3D

 45 49  0  0  0  0  0  0  0  0999 V2000
   -0.1070   -4.8980    1.5500 C   0  0  0  0  0  0  0  0  0  0  0  0
   -0.7360   -5.6830    0.6990 C   0  0  0  0  0  0  0  0  0  0  0  0
   -2.1040   -5.4030    0.2450 C   0  0  0  0  0  0  0  0  0  0  0  0
   -2.5690   -4.1520    0.7820 N   0  0  0  0  0  0  0  0  0  0  0  0
   -1.8940   -2.9550    0.3720 C   0  0  0  0  0  0  0  0  0  0  0  0
   -0.9280   -3.1040   -0.4650 O   0  0  0  0  0  0  0  0  0  0  0  0
   -2.2110   -1.6080    0.8210 C   0  0  2  0  0  0  0  0  0  0  0  0
   -3.4930   -1.6140    1.6220 C   0  0  0  0  0  0  0  0  0  0  0  0
   -3.6260   -0.3370    2.3750 C   0  0  0  0  0  0  0  0  0  0  0  0
   -3.3840    0.8520    1.5100 C   0  0  2  0  0  0  0  0  0  0  0  0
   -4.6250    1.4890    1.0910 N   0  0  2  0  0  0  0  0  0  0  0  0
   -5.1140    1.0750   -0.1790 C   0  0  0  0  0  0  0  0  0  0  0  0
   -6.5540    1.5910   -0.3160 C   0  0  0  0  0  0  0  0  0  0  0  0
   -6.6610    3.0690   -0.1510 C   0  0  0  0  0  0  0  0  0  0  0  0
   -5.8720    3.5310    1.0590 C   0  0  2  0  0  0  0  0  0  0  0  0
   -5.8320    5.0440    1.0800 C   0  0  0  0  0  0  0  0  0  0  0  0
   -5.1800    5.6120   -0.1530 C   0  0  0  0  0  0  0  0  0  0  0  0
   -4.4900    2.9360    1.0850 C   0  0  0  0  0  0  0  0  0  0  0  0
   -2.3480    0.7490    0.4750 C   0  0  0  0  0  0  0  0  0  0  0  0
   -2.1880   -0.5580   -0.1650 N   0  0  1  0  0  0  0  0  0  0  0  0
   -0.9510   -0.5190   -0.8640 C   0  0  0  0  0  0  0  0  0  0  0  0
   -0.9750   -1.0100   -2.2560 C   0  0  0  0  0  0  0  0  0  0  0  0
   -2.1040   -1.4930   -2.8670 C   0  0  0  0  0  0  0  0  0  0  0  0
   -2.0970   -1.9470   -4.1770 C   0  0  0  0  0  0  0  0  0  0  0  0
   -0.9050   -1.8990   -4.8570 C   0  0  0  0  0  0  0  0  0  0  0  0
    0.2390   -1.4080   -4.2310 C   0  0  0  0  0  0  0  0  0  0  0  0
    0.2520   -0.9580   -2.9480 C   0  0  0  0  0  0  0  0  0  0  0  0
    1.3620   -0.4340   -2.2620 N   0  0  0  0  0  0  0  0  0  0  0  0
    2.6890   -0.3040   -2.7470 C   0  0  0  0  0  0  0  0  0  0  0  0
    2.9380   -0.6970   -3.9270 O   0  0  0  0  0  0  0  0  0  0  0  0
    3.7550    0.2680   -1.9220 C   0  0  0  0  0  0  0  0  0  0  0  0
    3.4910    0.6480   -0.7670 O   0  0  0  0  0  0  0  0  0  0  0  0
    5.0820    0.4010   -2.4050 N   0  0  0  0  0  0  0  0  0  0  0  0
    6.1760    0.9490   -1.6740 C   0  0  0  0  0  0  0  0  0  0  0  0
    6.7450    0.0560   -0.6370 C   0  0  0  0  0  0  0  0  0  0  0  0
    6.3410   -1.2290   -0.3970 C   0  0  0  0  0  0  0  0  0  0  0  0
    6.9670   -1.9370    0.6070 C   0  0  0  0  0  0  0  0  0  0  0  0
    7.9800   -1.4160    1.3820 C   0  0  0  0  0  0  0  0  0  0  0  0
    8.3830   -0.1220    1.1370 C   0  0  0  0  0  0  0  0  0  0  0  0
    9.4510    0.4840    1.9260 C   0  0  0  0  0  0  0  0  0  0  0  0
    9.9230    1.7780    1.7550 C   0  0  0  0  0  0  0  0  0  0  0  0
   10.9290    1.9850    2.6820 C   0  0  0  0  0  0  0  0  0  0  0  0
   11.0260    0.8010    3.3820 C   0  0  0  0  0  0  0  0  0  0  0  0
   10.1330   -0.0410    2.8920 O   0  0  0  0  0  0  0  0  0  0  0  0
    7.7590    0.5870    0.1350 C   0  0  0  0  0  0  0  0  0  0  0  0
  1  2  2  0
  2  3  1  0
  3  4  1  0
  4  5  1  0
  5  6  2  0
  7  5  1  6
  7  8  1  0
  7 20  1  0
  8  9  1  0
 10  9  1  6
 10 11  1  0
 10 19  1  0
 11 12  1  6
 11 18  1  0
 12 13  1  0
 13 14  1  0
 14 15  1  0
 15 16  1  6
 15 18  1  0
 16 17  1  0
 19 20  1  0
 20 21  1  1
 21 22  1  0
 22 23  2  0
 22 27  1  0
 23 24  1  0
 24 25  2  0
 25 26  1  0
 26 27  2  0
 27 28  1  0
 28 29  1  0
 29 30  2  0
 29 31  1  0
 31 32  2  0
 31 33  1  0
 33 34  1  0
 34 35  1  0
 35 36  2  0
 35 45  1  0
 36 37  1  0
 37 38  2  0
 38 39  1  0
 39 40  1  0
 39 45  2  0
 40 41  2  0
 40 44  1  0
 41 42  1  0
 42 43  2  0
 43 44  1  0
M  CHG  2  11   1  20   1
M  END
