
     RDKit          3D

 45 49  0  0  0  0  0  0  0  0999 V2000
   -4.4030   -3.5040   -0.5310 C   0  0  0  0  0  0  0  0  0  0  0  0
   -3.0870   -2.9330   -1.0090 C   0  0  0  0  0  0  0  0  0  0  0  0
   -3.1920   -1.5120   -1.2900 N   0  0  0  0  0  0  0  0  0  0  0  0
   -2.5910   -0.8060   -0.1740 C   0  0  1  0  0  0  0  0  0  0  0  0
   -1.0870   -0.8820   -0.1720 C   0  0  0  0  0  0  0  0  0  0  0  0
   -0.6410    0.4730    0.1400 N   0  0  0  0  0  0  0  0  0  0  0  0
    0.6620    0.9690   -0.1050 C   0  0  0  0  0  0  0  0  0  0  0  0
    0.9090    2.1690    0.2010 O   0  0  0  0  0  0  0  0  0  0  0  0
    1.7300    0.1620   -0.6940 C   0  0  2  0  0  0  0  0  0  0  0  0
    2.0660   -1.0360    0.2140 C   0  0  0  0  0  0  0  0  0  0  0  0
    2.9240    0.9070   -0.8930 O   0  0  0  0  0  0  0  0  0  0  0  0
    3.5730    0.9880   -2.0880 C   0  0  0  0  0  0  0  0  0  0  0  0
    3.0340    0.3360   -3.0530 O   0  0  0  0  0  0  0  0  0  0  0  0
    4.7920    1.7330   -2.3410 C   0  0  0  0  0  0  0  0  0  0  0  0
    5.3850    1.6530   -3.6140 C   0  0  0  0  0  0  0  0  0  0  0  0
    6.5350    2.3480   -3.8410 C   0  0  0  0  0  0  0  0  0  0  0  0
    7.1320    3.1200   -2.8700 C   0  0  0  0  0  0  0  0  0  0  0  0
    6.5400    3.1830   -1.6420 C   0  0  0  0  0  0  0  0  0  0  0  0
    5.3530    2.4880   -1.3540 C   0  0  0  0  0  0  0  0  0  0  0  0
    4.7960    2.6300    0.0050 C   0  0  0  0  0  0  0  0  0  0  0  0
    5.1040    1.3830    0.7720 C   0  0  0  0  0  0  0  0  0  0  0  0
    4.4140    1.0320    1.7420 O   0  0  0  0  0  0  0  0  0  0  0  0
    6.2130    0.6080    0.3530 N   0  0  0  0  0  0  0  0  0  0  0  0
    6.6670   -0.5900    0.9370 C   0  0  0  0  0  0  0  0  0  0  0  0
    6.1340   -1.1370    2.0680 C   0  0  0  0  0  0  0  0  0  0  0  0
    6.6200   -2.3260    2.6170 C   0  0  0  0  0  0  0  0  0  0  0  0
    7.6640   -2.9420    1.9820 C   0  0  0  0  0  0  0  0  0  0  0  0
    8.2130   -2.4080    0.8460 C   0  0  0  0  0  0  0  0  0  0  0  0
    7.7340   -1.2550    0.3240 C   0  0  0  0  0  0  0  0  0  0  0  0
    8.3420   -0.6870   -0.9290 C   0  0  0  0  0  0  0  0  0  0  0  0
    9.4270   -1.5460   -1.3600 N   0  0  0  0  0  0  0  0  0  0  0  0
   -1.7630    1.1950    0.7340 C   0  0  0  0  0  0  0  0  0  0  0  0
   -2.8880    0.6410   -0.1530 C   0  0  1  0  0  0  0  0  0  0  0  0
   -2.7260    1.2980   -1.5070 C   0  0  0  0  0  0  0  0  0  0  0  0
   -3.5180    2.5790   -1.3080 C   0  0  0  0  0  0  0  0  0  0  0  0
   -4.6810    2.1470   -0.3920 C   0  0  0  0  0  0  0  0  0  0  0  0
   -4.1640    1.0570    0.2810 N   0  0  0  0  0  0  0  0  0  0  0  0
   -4.7110    0.5130    1.4260 C   0  0  0  0  0  0  0  0  0  0  0  0
   -6.0320   -0.1890    1.3470 C   0  0  1  0  0  0  0  0  0  0  0  0
   -6.3980   -0.7130    2.7460 C   0  0  0  0  0  0  0  0  0  0  0  0
   -7.6980   -1.4840    2.6620 C   0  0  0  0  0  0  0  0  0  0  0  0
   -8.8280   -0.5710    2.3130 C   0  0  0  0  0  0  0  0  0  0  0  0
   -8.2610    0.7890    2.0170 C   0  0  0  0  0  0  0  0  0  0  0  0
   -7.1640    0.7530    0.9800 C   0  0  2  0  0  0  0  0  0  0  0  0
   -7.8010    0.3910   -0.3460 C   0  0  0  0  0  0  0  0  0  0  0  0
  1  2  1  0
  2  3  1  0
  4  3  1  6
  4  5  1  0
  4 33  1  0
  5  6  1  0
  6  7  1  0
  6 32  1  0
  7  8  2  0
  7  9  1  0
  9 10  1  1
  9 11  1  0
 11 12  1  0
 12 13  2  0
 12 14  1  0
 14 15  2  0
 14 19  1  0
 15 16  1  0
 16 17  2  0
 17 18  1  0
 18 19  2  0
 19 20  1  0
 20 21  1  0
 21 22  2  0
 21 23  1  0
 23 24  1  0
 24 25  2  0
 24 29  1  0
 25 26  1  0
 26 27  2  0
 27 28  1  0
 28 29  2  0
 29 30  1  0
 30 31  1  0
 33 32  1  1
 33 34  1  0
 33 37  1  0
 34 35  1  0
 35 36  1  0
 36 37  1  0
 37 38  1  0
 39 38  1  1
 39 40  1  0
 39 44  1  0
 40 41  1  0
 41 42  1  0
 42 43  1  0
 43 44  1  0
 44 45  1  6
M  CHG  2   3   1  31   1
M  END
