
     RDKit          3D

 45 48  0  0  0  0  0  0  0  0999 V2000
   -6.5220    1.5030    0.1780 C   0  0  0  0  0  0  0  0  0  0  0  0
   -5.6920    2.2960    1.1110 C   0  0  0  0  0  0  0  0  0  0  0  0
   -4.3530    2.1320    1.1830 C   0  0  0  0  0  0  0  0  0  0  0  0
   -3.6900    1.1740    0.3470 C   0  0  0  0  0  0  0  0  0  0  0  0
   -2.3630    0.9360    0.3420 C   0  0  0  0  0  0  0  0  0  0  0  0
   -1.9970   -0.1200   -0.6450 C   0  0  0  0  0  0  0  0  0  0  0  0
   -1.4460   -1.3790   -0.1330 C   0  0  0  0  0  0  0  0  0  0  0  0
   -2.3610   -2.1200    0.8180 C   0  0  0  0  0  0  0  0  0  0  0  0
   -3.6130   -2.5130    0.2740 N   0  0  2  0  0  0  0  0  0  0  0  0
   -4.5190   -2.6920    1.4200 C   0  0  0  0  0  0  0  0  0  0  0  0
   -5.9600   -2.6610    1.0430 C   0  0  0  0  0  0  0  0  0  0  0  0
   -6.4770   -4.0690    0.9710 C   0  0  0  0  0  0  0  0  0  0  0  0
   -5.5940   -4.9590    0.1320 C   0  0  2  0  0  0  0  0  0  0  0  0
   -4.7010   -5.6440    0.9540 O   0  0  0  0  0  0  0  0  0  0  0  0
   -4.9000   -4.1850   -0.9540 C   0  0  0  0  0  0  0  0  0  0  0  0
   -3.5250   -3.7120   -0.5370 C   0  0  0  0  0  0  0  0  0  0  0  0
   -1.5100    1.7650    1.1490 C   0  0  1  0  0  0  0  0  0  0  0  0
   -0.3010    1.2250    1.8240 C   0  0  0  0  0  0  0  0  0  0  0  0
    0.7390    0.7290    0.9580 N   0  0  0  0  0  0  0  0  0  0  0  0
    1.9660    0.2060    1.5000 C   0  0  0  0  0  0  0  0  0  0  0  0
    2.0810    0.2050    2.7470 O   0  0  0  0  0  0  0  0  0  0  0  0
    3.0050   -0.2890    0.6010 C   0  0  0  0  0  0  0  0  0  0  0  0
    2.7560   -0.3120   -0.6280 O   0  0  0  0  0  0  0  0  0  0  0  0
    4.2510   -0.7290    1.0790 N   0  0  0  0  0  0  0  0  0  0  0  0
    4.6460   -0.5930    2.4890 C   0  0  0  0  0  0  0  0  0  0  0  0
    6.1260   -0.7780    2.6300 C   0  0  0  0  0  0  0  0  0  0  0  0
    6.9020   -0.1850    1.4490 C   0  0  0  0  0  0  0  0  0  0  0  0
    6.5590   -1.0500    0.2930 C   0  0  0  0  0  0  0  0  0  0  0  0
    7.4430   -1.5980   -0.5850 C   0  0  0  0  0  0  0  0  0  0  0  0
    6.9790   -2.4160   -1.6270 C   0  0  0  0  0  0  0  0  0  0  0  0
    8.0050   -2.9890   -2.5380 C   0  0  0  0  0  0  0  0  0  0  0  0
    8.2440   -4.4540   -2.1930 C   0  0  0  0  0  0  0  0  0  0  0  0
    5.6310   -2.6790   -1.7830 C   0  0  0  0  0  0  0  0  0  0  0  0
    5.1510   -3.5500   -2.8860 C   0  0  0  0  0  0  0  0  0  0  0  0
    4.7610   -2.1070   -0.8740 C   0  0  0  0  0  0  0  0  0  0  0  0
    5.1830   -1.3030    0.1550 C   0  0  0  0  0  0  0  0  0  0  0  0
   -1.1410    2.9440    0.3320 N   0  0  0  0  0  0  0  0  0  0  0  0
   -1.2560    4.2780    0.8280 C   0  0  0  0  0  0  0  0  0  0  0  0
   -1.6860    4.4340    2.0020 O   0  0  0  0  0  0  0  0  0  0  0  0
   -0.8990    5.4570    0.0420 C   0  0  2  0  0  0  0  0  0  0  0  0
   -1.7440    5.6620   -1.2000 C   0  0  0  0  0  0  0  0  0  0  0  0
   -1.5030    7.1270   -1.5940 C   0  0  0  0  0  0  0  0  0  0  0  0
   -0.1240    7.4190   -1.8270 N   0  0  0  0  0  0  0  0  0  0  0  0
    0.7900    6.9550   -0.8260 C   0  0  0  0  0  0  0  0  0  0  0  0
    0.5370    5.4940   -0.4270 C   0  0  0  0  0  0  0  0  0  0  0  0
  1  2  1  0
  2  3  2  3
  3  4  1  0
  4  5  2  3
  5  6  1  0
  5 17  1  0
  6  7  1  0
  7  8  1  0
  9  8  1  1
  9 10  1  0
  9 16  1  0
 10 11  1  0
 11 12  1  0
 12 13  1  0
 13 14  1  1
 13 15  1  0
 15 16  1  0
 17 18  1  6
 17 37  1  0
 18 19  1  0
 19 20  1  0
 20 21  2  0
 20 22  1  0
 22 23  2  0
 22 24  1  0
 24 25  1  0
 24 36  1  0
 25 26  1  0
 26 27  1  0
 27 28  1  0
 28 29  2  0
 28 36  1  0
 29 30  1  0
 30 31  1  0
 30 33  2  0
 31 32  1  0
 33 34  1  0
 33 35  1  0
 35 36  2  0
 37 38  1  0
 38 39  2  0
 40 38  1  6
 40 41  1  0
 40 45  1  0
 41 42  1  0
 42 43  1  0
 43 44  1  0
 44 45  1  0
M  CHG  2   9   1  43   1
M  END
