
     RDKit          3D

 45 48  0  0  0  0  0  0  0  0999 V2000
   -7.5530    1.1270   -1.1690 C   0  0  0  0  0  0  0  0  0  0  0  0
   -6.7680    2.3790   -1.1150 C   0  0  1  0  0  0  0  0  0  0  0  0
   -6.6280    3.0100    0.2460 C   0  0  0  0  0  0  0  0  0  0  0  0
   -5.4910    4.0230    0.0350 C   0  0  0  0  0  0  0  0  0  0  0  0
   -4.8460    3.6620   -1.2900 C   0  0  1  0  0  0  0  0  0  0  0  0
   -3.4760    3.7090   -1.2700 O   0  0  0  0  0  0  0  0  0  0  0  0
   -5.3040    2.2230   -1.5200 C   0  0  1  0  0  0  0  0  0  0  0  0
   -4.6490    1.3250   -0.6130 N   0  0  0  0  0  0  0  0  0  0  0  0
   -4.0160    0.1180   -1.0240 C   0  0  0  0  0  0  0  0  0  0  0  0
   -4.1000   -0.1160   -2.2800 O   0  0  0  0  0  0  0  0  0  0  0  0
   -3.3050   -0.8330   -0.1850 C   0  0  2  0  0  0  0  0  0  0  0  0
   -4.0280   -1.3770    1.0090 C   0  0  0  0  0  0  0  0  0  0  0  0
   -5.2580   -2.1020    0.7170 C   0  0  0  0  0  0  0  0  0  0  0  0
   -6.4980   -1.4670    0.7530 C   0  0  0  0  0  0  0  0  0  0  0  0
   -7.6480   -2.1670    0.4650 C   0  0  0  0  0  0  0  0  0  0  0  0
   -7.5740   -3.5230    0.1330 C   0  0  0  0  0  0  0  0  0  0  0  0
   -6.3570   -4.1710    0.0920 C   0  0  0  0  0  0  0  0  0  0  0  0
   -5.2160   -3.4540    0.3840 C   0  0  0  0  0  0  0  0  0  0  0  0
   -1.9300   -0.3180    0.2310 C   0  0  0  0  0  0  0  0  0  0  0  0
   -1.1170   -0.0720   -1.0220 C   0  0  2  0  0  0  0  0  0  0  0  0
   -1.0120   -1.2660   -1.6850 O   0  0  0  0  0  0  0  0  0  0  0  0
    0.2030    0.5670   -0.7580 C   0  0  0  0  0  0  0  0  0  0  0  0
    1.1130   -0.1850    0.0380 N   0  0  2  0  0  0  0  0  0  0  0  0
    1.8730    0.6850    0.8760 C   0  0  0  0  0  0  0  0  0  0  0  0
    3.2090    1.0910    0.3920 C   0  0  0  0  0  0  0  0  0  0  0  0
    3.6720    0.4950   -0.8100 N   0  0  0  0  0  0  0  0  0  0  0  0
    4.9590    0.8200   -1.2980 C   0  0  0  0  0  0  0  0  0  0  0  0
    5.4550    0.3410   -2.3530 O   0  0  0  0  0  0  0  0  0  0  0  0
    5.7790    1.7780   -0.5280 C   0  0  0  0  0  0  0  0  0  0  0  0
    6.9860    2.1220   -0.9300 C   0  0  0  0  0  0  0  0  0  0  0  0
    7.8690    3.0510   -0.2470 C   0  0  0  0  0  0  0  0  0  0  0  0
    7.5350    3.6930    0.9220 C   0  0  0  0  0  0  0  0  0  0  0  0
    8.4280    4.5620    1.5060 C   0  0  0  0  0  0  0  0  0  0  0  0
    9.6540    4.7920    0.9270 C   0  0  0  0  0  0  0  0  0  0  0  0
    9.9380    4.1470   -0.2100 N   0  0  0  0  0  0  0  0  0  0  0  0
    9.1040    3.3030   -0.8020 C   0  0  0  0  0  0  0  0  0  0  0  0
    2.9060   -0.4500   -1.6060 C   0  0  0  0  0  0  0  0  0  0  0  0
    1.9190   -1.1200   -0.7150 C   0  0  1  0  0  0  0  0  0  0  0  0
    2.6250   -2.0200    0.2110 C   0  0  0  0  0  0  0  0  0  0  0  0
    2.4910   -1.9160    1.4580 O   0  0  0  0  0  0  0  0  0  0  0  0
    3.4920   -3.0470   -0.2530 N   0  0  0  0  0  0  0  0  0  0  0  0
    4.1960   -3.9410    0.6450 C   0  0  1  0  0  0  0  0  0  0  0  0
    5.1190   -3.2120    1.5860 C   0  0  0  0  0  0  0  0  0  0  0  0
    3.2360   -4.7460    1.4940 C   0  0  0  0  0  0  0  0  0  0  0  0
    5.0330   -4.8850   -0.1910 C   0  0  0  0  0  0  0  0  0  0  0  0
  2  1  1  1
  2  3  1  0
  2  7  1  0
  3  4  1  0
  4  5  1  0
  5  6  1  1
  5  7  1  0
  7  8  1  1
  8  9  1  0
  9 10  2  0
  9 11  1  0
 11 12  1  1
 11 19  1  0
 12 13  1  0
 13 14  2  0
 13 18  1  0
 14 15  1  0
 15 16  2  0
 16 17  1  0
 17 18  2  0
 19 20  1  0
 20 21  1  1
 20 22  1  0
 23 22  1  6
 23 24  1  0
 23 38  1  0
 24 25  1  0
 25 26  1  0
 26 27  1  0
 26 37  1  0
 27 28  2  0
 27 29  1  0
 29 30  2  3
 30 31  1  0
 31 32  2  0
 31 36  1  0
 32 33  1  0
 33 34  2  0
 34 35  1  0
 35 36  2  0
 37 38  1  0
 38 39  1  1
 39 40  2  0
 39 41  1  0
 41 42  1  0
 42 43  1  1
 42 44  1  0
 42 45  1  0
M  CHG  1  23   1
M  END
