
     RDKit          3D

 45 49  0  0  0  0  0  0  0  0999 V2000
   -8.5680    5.2680   -0.9670 C   0  0  0  0  0  0  0  0  0  0  0  0
   -7.2810    4.8310   -1.3530 O   0  0  0  0  0  0  0  0  0  0  0  0
   -6.6810    3.7750   -0.6830 C   0  0  0  0  0  0  0  0  0  0  0  0
   -7.3200    3.1390    0.3590 C   0  0  0  0  0  0  0  0  0  0  0  0
   -6.7510    2.0780    1.0540 C   0  0  0  0  0  0  0  0  0  0  0  0
   -5.4910    1.6760    0.6520 C   0  0  0  0  0  0  0  0  0  0  0  0
   -4.8100    2.2710   -0.3750 C   0  0  0  0  0  0  0  0  0  0  0  0
   -5.4090    3.3190   -1.0400 C   0  0  0  0  0  0  0  0  0  0  0  0
   -3.4830    1.8110   -0.7480 C   0  0  0  0  0  0  0  0  0  0  0  0
   -3.1380    0.4590   -0.4850 N   0  0  1  0  0  0  0  0  0  0  0  0
   -1.7480    0.4530   -0.0480 C   0  0  0  0  0  0  0  0  0  0  0  0
   -1.0880   -0.8630   -0.1340 C   0  0  0  0  0  0  0  0  0  0  0  0
    0.1090   -0.9230    0.2500 O   0  0  0  0  0  0  0  0  0  0  0  0
   -1.6940   -2.0520   -0.6110 N   0  0  0  0  0  0  0  0  0  0  0  0
   -1.0420   -3.2970   -0.6900 C   0  0  0  0  0  0  0  0  0  0  0  0
    0.1110   -3.4810   -1.6070 C   0  0  2  0  0  0  0  0  0  0  0  0
    1.2480   -2.6490   -1.4370 N   0  0  0  0  0  0  0  0  0  0  0  0
    2.4070   -3.0010   -0.6440 C   0  0  0  0  0  0  0  0  0  0  0  0
    2.3590   -4.1090   -0.0960 O   0  0  0  0  0  0  0  0  0  0  0  0
    3.4960   -2.1500   -0.5090 N   0  0  0  0  0  0  0  0  0  0  0  0
    4.6730   -2.3730    0.2430 C   0  0  0  0  0  0  0  0  0  0  0  0
    4.9040   -3.5490    0.9130 C   0  0  0  0  0  0  0  0  0  0  0  0
    6.0660   -3.7850    1.6460 C   0  0  0  0  0  0  0  0  0  0  0  0
    7.0180   -2.8000    1.7000 C   0  0  0  0  0  0  0  0  0  0  0  0
    6.7890   -1.6180    1.0280 C   0  0  0  0  0  0  0  0  0  0  0  0
    5.6540   -1.3750    0.3060 C   0  0  0  0  0  0  0  0  0  0  0  0
    5.5020   -0.0900   -0.3570 C   0  0  0  0  0  0  0  0  0  0  0  0
    4.6270    0.9130    0.3140 C   0  0  0  0  0  0  0  0  0  0  0  0
    5.0590    1.3020    1.6360 N   0  0  2  0  0  0  0  0  0  0  0  0
    4.0430    2.1390    2.2480 C   0  0  0  0  0  0  0  0  0  0  0  0
    4.7270    3.3500    2.8220 C   0  0  0  0  0  0  0  0  0  0  0  0
    6.1700    2.8470    2.9710 C   0  0  0  0  0  0  0  0  0  0  0  0
    6.2770    2.0700    1.6450 C   0  0  2  0  0  0  0  0  0  0  0  0
    6.3460    3.1230    0.5710 C   0  0  0  0  0  0  0  0  0  0  0  0
   -0.2750   -3.6550   -3.0280 C   0  0  0  0  0  0  0  0  0  0  0  0
   -0.3140   -2.6070   -3.9210 C   0  0  0  0  0  0  0  0  0  0  0  0
   -0.6740   -2.7910   -5.2530 C   0  0  0  0  0  0  0  0  0  0  0  0
   -1.0050   -4.0640   -5.7060 C   0  0  0  0  0  0  0  0  0  0  0  0
   -0.9670   -5.1110   -4.8220 C   0  0  0  0  0  0  0  0  0  0  0  0
   -0.6080   -4.9000   -3.5120 C   0  0  0  0  0  0  0  0  0  0  0  0
   -3.9840   -0.2710    0.4120 C   0  0  0  0  0  0  0  0  0  0  0  0
   -4.8190    0.5480    1.3430 C   0  0  2  0  0  0  0  0  0  0  0  0
   -5.9520   -0.3610    1.8470 C   0  0  0  0  0  0  0  0  0  0  0  0
   -4.0900    1.0000    2.5900 C   0  0  0  0  0  0  0  0  0  0  0  0
   -5.0710    1.5650    3.4380 O   0  0  0  0  0  0  0  0  0  0  0  0
  1  2  1  0
  2  3  1  0
  3  4  2  0
  3  8  1  0
  4  5  1  0
  5  6  2  0
  6  7  1  0
  6 42  1  0
  7  8  2  0
  7  9  1  0
  9 10  1  0
 10 11  1  1
 10 41  1  0
 11 12  1  0
 12 13  2  0
 12 14  1  0
 14 15  1  0
 16 15  1  1
 16 17  1  0
 16 35  1  0
 17 18  1  0
 18 19  2  0
 18 20  1  0
 20 21  1  0
 21 22  2  0
 21 26  1  0
 22 23  1  0
 23 24  2  0
 24 25  1  0
 25 26  2  0
 26 27  1  0
 27 28  1  0
 29 28  1  6
 29 30  1  0
 29 33  1  0
 30 31  1  0
 31 32  1  0
 32 33  1  0
 33 34  1  6
 35 36  2  0
 35 40  1  0
 36 37  1  0
 37 38  2  0
 38 39  1  0
 39 40  2  0
 41 42  1  0
 42 43  1  1
 42 44  1  0
 44 45  1  0
M  CHG  2  10   1  29   1
M  END
