
     RDKit          3D

 45 49  0  0  0  0  0  0  0  0999 V2000
   -5.9420    4.1840   -0.4970 C   0  0  0  0  0  0  0  0  0  0  0  0
   -5.1070    2.9990   -0.0930 C   0  0  0  0  0  0  0  0  0  0  0  0
   -3.9440    3.0020    0.4410 O   0  0  0  0  0  0  0  0  0  0  0  0
   -3.4750    1.7490    0.6760 C   0  0  0  0  0  0  0  0  0  0  0  0
   -2.1770    1.5670    1.2740 C   0  0  0  0  0  0  0  0  0  0  0  0
   -1.1610    0.8380    0.9970 C   0  0  0  0  0  0  0  0  0  0  0  0
   -0.8520   -0.1320   -0.0160 C   0  0  0  0  0  0  0  0  0  0  0  0
   -1.4180   -1.2800   -0.2720 C   0  0  0  0  0  0  0  0  0  0  0  0
   -2.5220   -1.9030    0.4180 C   0  0  0  0  0  0  0  0  0  0  0  0
   -3.0200   -3.0680    0.0560 C   0  0  0  0  0  0  0  0  0  0  0  0
   -4.1330   -3.6720    0.7700 C   0  0  0  0  0  0  0  0  0  0  0  0
   -4.6290   -4.7680    0.4570 O   0  0  0  0  0  0  0  0  0  0  0  0
    0.3930    0.4340   -0.6560 C   0  0  0  0  0  0  0  0  0  0  0  0
    1.0830    1.0440    0.4960 N   0  0  0  0  0  0  0  0  0  0  0  0
    2.4010    1.5460    0.4190 C   0  0  0  0  0  0  0  0  0  0  0  0
    2.5880    2.8570   -0.0430 C   0  0  0  0  0  0  0  0  0  0  0  0
    3.8390    3.4120   -0.1600 C   0  0  0  0  0  0  0  0  0  0  0  0
    4.9920    2.6900    0.1780 C   0  0  0  0  0  0  0  0  0  0  0  0
    6.3150    3.3380    0.0180 C   0  0  0  0  0  0  0  0  0  0  0  0
    7.3410    2.3690    0.3290 N   0  0  0  0  0  0  0  0  0  0  0  0
    7.6490    1.3130   -0.5790 C   0  0  0  0  0  0  0  0  0  0  0  0
    7.0040    1.2280   -1.6310 O   0  0  0  0  0  0  0  0  0  0  0  0
    8.6690    0.3560   -0.3190 N   0  0  0  0  0  0  0  0  0  0  0  0
    8.9800   -0.7290   -1.2260 C   0  0  1  0  0  0  0  0  0  0  0  0
   10.2150   -0.4370   -2.0510 C   0  0  0  0  0  0  0  0  0  0  0  0
   11.2970   -1.1960   -1.3140 C   0  0  0  0  0  0  0  0  0  0  0  0
   10.6160   -2.3080   -0.5780 C   0  0  0  0  0  0  0  0  0  0  0  0
    9.1280   -2.0540   -0.5850 C   0  0  1  0  0  0  0  0  0  0  0  0
    8.6440   -2.0920    0.7260 O   0  0  0  0  0  0  0  0  0  0  0  0
    4.7990    1.4030    0.6310 C   0  0  0  0  0  0  0  0  0  0  0  0
    3.5390    0.8470    0.7490 C   0  0  0  0  0  0  0  0  0  0  0  0
    0.1990    1.0600    1.6690 C   0  0  2  0  0  0  0  0  0  0  0  0
    0.5290    0.0440    2.6860 C   0  0  2  0  0  0  0  0  0  0  0  0
    0.6430   -1.3710    2.2040 C   0  0  0  0  0  0  0  0  0  0  0  0
   -0.3400    0.1320    3.8610 N   0  0  0  0  0  0  0  0  0  0  0  0
   -4.4530    0.9280    0.2410 C   0  0  0  0  0  0  0  0  0  0  0  0
   -5.5260    1.7000   -0.2630 C   0  0  0  0  0  0  0  0  0  0  0  0
   -6.8050    1.2330   -0.8450 C   0  0  0  0  0  0  0  0  0  0  0  0
   -6.8980   -0.2070   -0.8640 N   0  0  1  0  0  0  0  0  0  0  0  0
   -7.3910   -0.7210    0.4150 C   0  0  0  0  0  0  0  0  0  0  0  0
   -7.4750   -2.2250    0.2830 C   0  0  0  0  0  0  0  0  0  0  0  0
   -8.7040   -2.5230   -0.5710 C   0  0  0  0  0  0  0  0  0  0  0  0
   -9.0010   -1.3480   -1.4770 C   0  0  0  0  0  0  0  0  0  0  0  0
   -7.7400   -0.6690   -1.9590 C   0  0  2  0  0  0  0  0  0  0  0  0
   -7.0230   -1.6330   -2.8780 C   0  0  0  0  0  0  0  0  0  0  0  0
  1  2  1  0
  2  3  1  0
  2 37  2  0
  3  4  1  0
  4  5  1  0
  4 36  2  0
  5  6  2  3
  6  7  1  0
  6 32  1  0
  7  8  2  3
  7 13  1  0
  8  9  1  0
  9 10  2  3
 10 11  1  0
 11 12  2  0
 13 14  1  0
 14 15  1  0
 32 14  1  6
 15 16  2  0
 15 31  1  0
 16 17  1  0
 17 18  2  0
 18 19  1  0
 18 30  1  0
 19 20  1  0
 20 21  1  0
 21 22  2  0
 21 23  1  0
 24 23  1  1
 24 25  1  0
 24 28  1  0
 25 26  1  0
 26 27  1  0
 27 28  1  0
 28 29  1  1
 30 31  2  0
 32 33  1  0
 33 34  1  6
 33 35  1  0
 36 37  1  0
 37 38  1  0
 39 38  1  1
 39 40  1  0
 39 44  1  0
 40 41  1  0
 41 42  1  0
 42 43  1  0
 43 44  1  0
 44 45  1  1
M  CHG  2  35   1  39   1
M  END
