
     RDKit          3D

 45 50  0  0  0  0  0  0  0  0999 V2000
   -6.2200    0.8460    3.5070 C   0  0  0  0  0  0  0  0  0  0  0  0
   -6.0290   -0.3380    2.5950 C   0  0  0  0  0  0  0  0  0  0  0  0
   -4.9040   -0.0920    1.6180 C   0  0  0  0  0  0  0  0  0  0  0  0
   -5.2400    1.1210    0.7880 C   0  0  1  0  0  0  0  0  0  0  0  0
   -4.1990    1.4920   -0.2430 C   0  0  1  0  0  0  0  0  0  0  0  0
   -2.9560    0.7700   -0.1320 N   0  0  0  0  0  0  0  0  0  0  0  0
   -1.7290    1.5010   -0.0330 C   0  0  0  0  0  0  0  0  0  0  0  0
   -1.7970    2.7580   -0.0490 O   0  0  0  0  0  0  0  0  0  0  0  0
   -0.4760    0.8820    0.0790 N   0  0  0  0  0  0  0  0  0  0  0  0
    0.7920    1.5840    0.1890 C   0  0  0  0  0  0  0  0  0  0  0  0
    1.5650    0.5690    1.0540 C   0  0  2  0  0  0  0  0  0  0  0  0
    2.9860    0.9510    1.0660 C   0  0  0  0  0  0  0  0  0  0  0  0
    3.5160    1.2780    2.1550 O   0  0  0  0  0  0  0  0  0  0  0  0
    3.7940    0.9700   -0.0950 N   0  0  0  0  0  0  0  0  0  0  0  0
    5.2090    1.3660   -0.0020 C   0  0  0  0  0  0  0  0  0  0  0  0
    5.8070    1.2790   -1.3880 C   0  0  0  0  0  0  0  0  0  0  0  0
    7.2240    1.6770   -1.2950 C   0  0  0  0  0  0  0  0  0  0  0  0
    8.1770    0.7330   -1.0370 C   0  0  0  0  0  0  0  0  0  0  0  0
    9.5150    1.1300   -0.9550 C   0  0  0  0  0  0  0  0  0  0  0  0
    9.8890    2.4420   -1.1270 C   0  0  0  0  0  0  0  0  0  0  0  0
   11.2980    2.8510   -1.0390 C   0  0  0  0  0  0  0  0  0  0  0  0
   11.5820    4.0650   -1.2050 O   0  0  0  0  0  0  0  0  0  0  0  0
    8.9010    3.3630   -1.3850 C   0  0  0  0  0  0  0  0  0  0  0  0
    7.5830    2.9850   -1.4680 C   0  0  0  0  0  0  0  0  0  0  0  0
    1.2670   -0.6820    0.2640 C   0  0  1  0  0  0  0  0  0  0  0  0
    1.6420   -1.9040    0.8630 N   0  0  2  0  0  0  0  0  0  0  0  0
    1.7000   -1.9520    2.2860 C   0  0  0  0  0  0  0  0  0  0  0  0
    1.6650   -3.3750    2.7130 C   0  0  0  0  0  0  0  0  0  0  0  0
    1.0940   -3.7890    3.7540 O   0  0  0  0  0  0  0  0  0  0  0  0
    2.3370   -4.3530    1.8670 C   0  0  0  0  0  0  0  0  0  0  0  0
    2.3700   -5.7040    2.1950 C   0  0  0  0  0  0  0  0  0  0  0  0
    3.0060   -6.6060    1.3860 C   0  0  0  0  0  0  0  0  0  0  0  0
    3.6160   -6.1490    0.2380 C   0  0  0  0  0  0  0  0  0  0  0  0
    3.5840   -4.7950   -0.0920 C   0  0  0  0  0  0  0  0  0  0  0  0
    2.9450   -3.8780    0.7170 C   0  0  0  0  0  0  0  0  0  0  0  0
    2.9120   -2.4260    0.3620 C   0  0  0  0  0  0  0  0  0  0  0  0
   -0.2320   -0.5710    0.1050 C   0  0  0  0  0  0  0  0  0  0  0  0
   -5.1450    1.0570   -1.3110 C   0  0  1  0  0  0  0  0  0  0  0  0
   -5.3550    1.9480   -2.4770 C   0  0  0  0  0  0  0  0  0  0  0  0
   -5.7890    1.0640   -3.6410 C   0  0  0  0  0  0  0  0  0  0  0  0
   -5.5620   -0.3640   -3.2130 C   0  0  0  0  0  0  0  0  0  0  0  0
   -4.6740   -0.2240   -1.9700 C   0  0  0  0  0  0  0  0  0  0  0  0
   -6.2370    0.9020   -0.3150 C   0  0  2  0  0  0  0  0  0  0  0  0
   -7.2740    1.8840   -0.2540 N   0  0  0  0  0  0  0  0  0  0  0  0
   -8.5210    1.4260   -0.8410 C   0  0  0  0  0  0  0  0  0  0  0  0
  1  2  1  0
  2  3  1  0
  4  3  1  6
  4  5  1  0
  4 43  1  0
  5  6  1  1
  5 38  1  0
  6  7  1  0
  7  8  2  0
  7  9  1  0
  9 10  1  0
  9 37  1  0
 10 11  1  0
 11 12  1  6
 11 25  1  0
 12 13  2  0
 12 14  1  0
 14 15  1  0
 15 16  1  0
 16 17  1  0
 17 18  2  0
 17 24  1  0
 18 19  1  0
 19 20  2  0
 20 21  1  0
 20 23  1  0
 21 22  2  0
 23 24  2  0
 25 26  1  0
 25 37  1  1
 26 27  1  1
 26 36  1  0
 27 28  1  0
 28 29  2  0
 28 30  1  0
 30 31  2  0
 30 35  1  0
 31 32  1  0
 32 33  2  0
 33 34  1  0
 34 35  2  0
 35 36  1  0
 38 39  1  6
 38 42  1  0
 38 43  1  0
 39 40  1  0
 40 41  1  0
 41 42  1  0
 43 44  1  6
 44 45  1  0
M  CHG  2  26   1  44   1
M  END
