
     RDKit          3D

 45 50  0  0  0  0  0  0  0  0999 V2000
    6.3880   -3.3270   -1.1380 C   0  0  0  0  0  0  0  0  0  0  0  0
    6.7650   -1.9780   -1.6190 C   0  0  0  0  0  0  0  0  0  0  0  0
    7.6720   -1.1590   -0.7860 C   0  0  2  0  0  0  0  0  0  0  0  0
    9.0010   -1.7860   -0.5130 C   0  0  0  0  0  0  0  0  0  0  0  0
    9.3650   -1.6970    0.8440 O   0  0  0  0  0  0  0  0  0  0  0  0
    8.3470   -2.1170    1.6680 C   0  0  0  0  0  0  0  0  0  0  0  0
    7.0750   -1.3130    1.5100 C   0  0  0  0  0  0  0  0  0  0  0  0
    7.1800   -0.4920    0.3560 N   0  0  2  0  0  0  0  0  0  0  0  0
    6.1160    0.4460    0.1440 C   0  0  1  0  0  0  0  0  0  0  0  0
    6.4070    1.3310   -1.0470 C   0  0  0  0  0  0  0  0  0  0  0  0
    4.7530   -0.0780    0.1880 C   0  0  0  0  0  0  0  0  0  0  0  0
    4.4340   -1.2600    0.4190 O   0  0  0  0  0  0  0  0  0  0  0  0
    3.6440    0.8160   -0.0490 N   0  0  0  0  0  0  0  0  0  0  0  0
    2.2820    0.3430   -0.0110 C   0  0  0  0  0  0  0  0  0  0  0  0
    1.3440    1.5130   -0.3020 C   0  0  1  0  0  0  0  0  0  0  0  0
   -0.0260    1.0360   -0.2550 N   0  0  0  0  0  0  0  0  0  0  0  0
   -0.8180    1.1540   -1.4160 C   0  0  0  0  0  0  0  0  0  0  0  0
   -0.3250    1.6440   -2.4590 O   0  0  0  0  0  0  0  0  0  0  0  0
   -2.1940    0.7070   -1.4160 C   0  0  0  0  0  0  0  0  0  0  0  0
   -2.5730   -0.0910   -2.5090 C   0  0  0  0  0  0  0  0  0  0  0  0
   -3.8120   -0.6560   -2.5280 C   0  0  0  0  0  0  0  0  0  0  0  0
   -4.6730   -0.4120   -1.4330 C   0  0  0  0  0  0  0  0  0  0  0  0
   -4.3290    0.3680   -0.3660 C   0  0  0  0  0  0  0  0  0  0  0  0
   -3.0610    0.9390   -0.3550 C   0  0  0  0  0  0  0  0  0  0  0  0
   -2.7480    1.7660    0.6190 C   0  0  0  0  0  0  0  0  0  0  0  0
   -3.6200    2.0360    1.7560 C   0  0  0  0  0  0  0  0  0  0  0  0
   -4.9780    1.4800    1.6890 C   0  0  1  0  0  0  0  0  0  0  0  0
   -6.0190    2.4710    1.9290 N   0  0  0  0  0  0  0  0  0  0  0  0
   -6.0300    3.5400    0.9970 C   0  0  0  0  0  0  0  0  0  0  0  0
   -5.2730    0.6530    0.5010 C   0  0  0  0  0  0  0  0  0  0  0  0
   -5.9220   -1.1370   -1.3910 N   0  0  0  0  0  0  0  0  0  0  0  0
   -6.2860   -1.7940   -0.1910 C   0  0  2  0  0  0  0  0  0  0  0  0
   -5.2470   -2.2870    0.7280 C   0  0  0  0  0  0  0  0  0  0  0  0
   -6.0790   -3.1620    1.6680 C   0  0  0  0  0  0  0  0  0  0  0  0
   -7.0180   -3.8340    0.6950 C   0  0  0  0  0  0  0  0  0  0  0  0
   -6.6980   -3.2180   -0.6770 C   0  0  0  0  0  0  0  0  0  0  0  0
   -6.6740   -1.1250   -2.6570 C   0  0  0  0  0  0  0  0  0  0  0  0
   -5.7450   -1.1850   -3.8360 C   0  0  0  0  0  0  0  0  0  0  0  0
   -4.3760   -1.4580   -3.4930 O   0  0  0  0  0  0  0  0  0  0  0  0
    1.5110    2.4880    0.8230 C   0  0  0  0  0  0  0  0  0  0  0  0
    2.0870    3.7220    0.6160 C   0  0  0  0  0  0  0  0  0  0  0  0
    2.2240    4.5760    1.6770 C   0  0  0  0  0  0  0  0  0  0  0  0
    1.7990    4.2150    2.9200 C   0  0  0  0  0  0  0  0  0  0  0  0
    1.2270    2.9960    3.1410 C   0  0  0  0  0  0  0  0  0  0  0  0
    1.0800    2.1120    2.0670 C   0  0  0  0  0  0  0  0  0  0  0  0
  1  2  1  0
  3  2  1  1
  3  4  1  0
  3  8  1  0
  4  5  1  0
  5  6  1  0
  6  7  1  0
  8  7  1  1
  8  9  1  0
  9 10  1  6
  9 11  1  0
 11 12  2  0
 11 13  1  0
 13 14  1  0
 15 14  1  1
 15 16  1  0
 15 40  1  0
 16 17  1  0
 17 18  2  0
 17 19  1  0
 19 20  2  0
 19 24  1  0
 20 21  1  0
 21 22  2  0
 21 39  1  0
 22 23  1  0
 22 31  1  0
 23 24  1  0
 23 30  2  0
 24 25  2  0
 25 26  1  0
 26 27  1  0
 27 28  1  6
 27 30  1  0
 28 29  1  0
 32 31  1  6
 31 37  1  0
 32 33  1  0
 32 36  1  0
 33 34  1  0
 34 35  1  0
 35 36  1  0
 37 38  1  0
 38 39  1  0
 40 41  2  0
 40 45  1  0
 41 42  1  0
 42 43  2  0
 43 44  1  0
 44 45  2  0
M  CHG  2   8   1  28   1
M  END
