
     RDKit          3D

 29 30  0  0  0  0  0  0  0  0999 V2000
    8.2100    2.4300    1.6770 C   0  0  0  0  0  0  0  0  0  0  0  0
    7.9030    1.1670    1.1710 O   0  0  0  0  0  0  0  0  0  0  0  0
    6.5370    1.0350    1.1520 C   0  0  0  0  0  0  0  0  0  0  0  0
    6.1040   -0.2100    0.6570 O   0  0  0  0  0  0  0  0  0  0  0  0
    4.7070   -0.4320    0.6000 C   0  0  0  0  0  0  0  0  0  0  0  0
    3.9980    0.4960    0.9940 O   0  0  0  0  0  0  0  0  0  0  0  0
    4.1940   -1.6510    0.1180 N   0  0  0  0  0  0  0  0  0  0  0  0
    2.8350   -1.9940   -0.0240 C   0  0  0  0  0  0  0  0  0  0  0  0
    2.0030   -1.3530   -1.0770 C   0  0  2  0  0  0  0  0  0  0  0  0
    2.5790   -1.6420   -2.3450 O   0  0  0  0  0  0  0  0  0  0  0  0
    1.9220    0.1200   -1.0010 C   0  0  0  0  0  0  0  0  0  0  0  0
    1.0810    0.7150   -2.1470 C   0  0  0  0  0  0  0  0  0  0  0  0
   -0.1640   -0.0750   -2.3030 C   0  0  0  0  0  0  0  0  0  0  0  0
   -0.3850   -0.8740   -1.0350 C   0  0  1  0  0  0  0  0  0  0  0  0
   -1.7750   -1.2730   -0.9640 N   0  0  1  0  0  0  0  0  0  0  0  0
   -2.0180   -2.5350   -0.3590 C   0  0  0  0  0  0  0  0  0  0  0  0
   -2.1970   -2.4000    1.1570 C   0  0  0  0  0  0  0  0  0  0  0  0
   -3.5420   -1.7090    1.3290 C   0  0  0  0  0  0  0  0  0  0  0  0
   -3.6600   -0.4880    0.4580 C   0  0  1  0  0  0  0  0  0  0  0  0
   -4.9450   -0.5600   -0.3640 C   0  0  0  0  0  0  0  0  0  0  0  0
   -5.1130    0.5390   -1.1920 O   0  0  0  0  0  0  0  0  0  0  0  0
   -3.8620    0.6840    1.3890 C   0  0  0  0  0  0  0  0  0  0  0  0
   -3.9580    0.5210    2.6480 O   0  0  0  0  0  0  0  0  0  0  0  0
   -3.9500    2.0030    0.8680 N   0  0  0  0  0  0  0  0  0  0  0  0
   -4.1460    3.0860    1.8150 C   0  0  0  0  0  0  0  0  0  0  0  0
   -4.2190    4.3700    1.1530 N   0  0  0  0  0  0  0  0  0  0  0  0
   -2.5000   -0.1840   -0.3980 C   0  0  0  0  0  0  0  0  0  0  0  0
    0.5830   -1.9930   -1.0600 C   0  0  1  0  0  0  0  0  0  0  0  0
    0.4940   -2.8240   -2.1460 O   0  0  0  0  0  0  0  0  0  0  0  0
  1  2  1  0
  2  3  1  0
  3  4  1  0
  4  5  1  0
  5  6  2  0
  5  7  1  0
  7  8  1  0
  8  9  1  0
  9 10  1  6
  9 11  1  0
  9 28  1  0
 11 12  1  0
 12 13  1  0
 14 13  1  6
 14 15  1  0
 14 28  1  0
 15 16  1  1
 15 27  1  0
 16 17  1  0
 17 18  1  0
 18 19  1  0
 19 20  1  6
 19 22  1  0
 19 27  1  0
 20 21  1  0
 22 23  2  0
 22 24  1  0
 24 25  1  0
 25 26  1  0
 28 29  1  6
M  CHG  2  15   1  26   1
M  END
