
     RDKit          3D

 29 31  0  0  0  0  0  0  0  0999 V2000
   -4.2040   -1.5620   -2.0720 C   0  0  0  0  0  0  0  0  0  0  0  0
   -5.0490   -0.9590   -1.0650 C   0  0  0  0  0  0  0  0  0  0  0  0
   -6.2580   -0.6710   -1.4870 O   0  0  0  0  0  0  0  0  0  0  0  0
   -4.7800   -0.6420    0.3140 C   0  0  0  0  0  0  0  0  0  0  0  0
   -3.5410   -0.8090    0.9310 C   0  0  0  0  0  0  0  0  0  0  0  0
   -3.2980   -0.4590    2.2040 C   0  0  0  0  0  0  0  0  0  0  0  0
   -2.0470   -0.5930    2.9060 C   0  0  0  0  0  0  0  0  0  0  0  0
   -0.9340   -1.0650    2.2040 O   0  0  0  0  0  0  0  0  0  0  0  0
   -0.4690   -0.3340    1.1320 C   0  0  0  0  0  0  0  0  0  0  0  0
   -1.1110    0.7190    0.8460 O   0  0  0  0  0  0  0  0  0  0  0  0
    0.7640   -0.7350    0.3010 C   0  0  0  0  0  0  0  0  0  0  0  0
    0.7990    0.2780   -0.7490 C   0  0  0  0  0  0  0  0  0  0  0  0
    1.8170    0.4210   -1.7850 C   0  0  2  0  0  0  0  0  0  0  0  0
    1.7960   -0.8210   -2.5240 O   0  0  0  0  0  0  0  0  0  0  0  0
    3.2020    0.5280   -1.2920 C   0  0  0  0  0  0  0  0  0  0  0  0
    3.8280   -0.4100   -0.5250 C   0  0  0  0  0  0  0  0  0  0  0  0
    5.1790   -0.2730   -0.1220 C   0  0  0  0  0  0  0  0  0  0  0  0
    5.8830    0.8790   -0.5280 C   0  0  0  0  0  0  0  0  0  0  0  0
    5.2450    1.8090   -1.3010 C   0  0  0  0  0  0  0  0  0  0  0  0
    3.9410    1.6660   -1.6920 C   0  0  0  0  0  0  0  0  0  0  0  0
    3.3060    2.6450   -2.5250 N   0  0  0  0  0  0  0  0  0  0  0  0
    7.2530    0.8640    0.1090 C   0  0  0  0  0  0  0  0  0  0  0  0
    7.3890   -0.4690    0.5530 O   0  0  0  0  0  0  0  0  0  0  0  0
    6.1430   -1.1190    0.5590 C   0  0  0  0  0  0  0  0  0  0  0  0
    5.9260   -2.2320    1.0590 O   0  0  0  0  0  0  0  0  0  0  0  0
   -4.3640    0.1010    2.9300 C   0  0  0  0  0  0  0  0  0  0  0  0
   -5.6010    0.3010    2.4130 C   0  0  0  0  0  0  0  0  0  0  0  0
   -5.7970   -0.0840    1.0820 C   0  0  0  0  0  0  0  0  0  0  0  0
   -7.0910    0.1050    0.5660 N   0  0  0  0  0  0  0  0  0  0  0  0
  1  2  1  0
  2  3  2  0
  2  4  1  0
  4  5  2  0
  4 28  1  0
  5  6  1  0
  6  7  1  0
  6 26  2  0
  7  8  1  0
  8  9  1  0
  9 10  2  0
  9 11  1  0
 11 12  1  0
 12 13  1  0
 13 14  1  6
 13 15  1  0
 15 16  2  0
 15 20  1  0
 16 17  1  0
 17 18  2  0
 17 24  1  0
 18 19  1  0
 18 22  1  0
 19 20  2  0
 20 21  1  0
 22 23  1  0
 23 24  1  0
 24 25  2  0
 26 27  1  0
 27 28  2  0
 28 29  1  0
M  END
