
     RDKit          3D

 29 30  0  0  0  0  0  0  0  0999 V2000
   -5.6570   -3.4470    0.4700 C   0  0  0  0  0  0  0  0  0  0  0  0
   -4.4460   -3.1160    1.2010 N   0  0  0  0  0  0  0  0  0  0  0  0
   -3.7780   -1.9570    0.5950 C   0  0  0  0  0  0  0  0  0  0  0  0
   -2.5710   -1.6640    1.4550 C   0  0  0  0  0  0  0  0  0  0  0  0
   -1.8260   -0.5660    0.9900 O   0  0  0  0  0  0  0  0  0  0  0  0
   -1.2380   -0.5030   -0.2580 C   0  0  0  0  0  0  0  0  0  0  0  0
   -1.3830   -1.4850   -1.0120 O   0  0  0  0  0  0  0  0  0  0  0  0
   -0.4700    0.6980   -0.6620 C   0  0  1  0  0  0  0  0  0  0  0  0
    0.0030    0.4030   -2.0360 N   0  0  0  0  0  0  0  0  0  0  0  0
   -1.3570    1.9010   -0.8360 C   0  0  2  0  0  0  0  0  0  0  0  0
   -0.5750    3.1050   -1.2420 C   0  0  0  0  0  0  0  0  0  0  0  0
   -1.3960    4.3800   -1.2160 C   0  0  0  0  0  0  0  0  0  0  0  0
   -1.9280    4.4990    0.2050 C   0  0  0  0  0  0  0  0  0  0  0  0
   -2.8600    3.4370    0.3800 N   0  0  0  0  0  0  0  0  0  0  0  0
   -2.3490    2.1140    0.2590 C   0  0  0  0  0  0  0  0  0  0  0  0
    0.7700    0.9000    0.1320 C   0  0  1  0  0  0  0  0  0  0  0  0
    0.6410    1.3710    1.5170 C   0  0  0  0  0  0  0  0  0  0  0  0
    1.5140   -0.3010    0.0660 O   0  0  0  0  0  0  0  0  0  0  0  0
    2.7280   -0.4520   -0.5400 C   0  0  0  0  0  0  0  0  0  0  0  0
    3.2330    0.5490   -1.0850 O   0  0  0  0  0  0  0  0  0  0  0  0
    3.4820   -1.7300   -0.5900 C   0  0  0  0  0  0  0  0  0  0  0  0
    4.7840   -1.6180   -1.3070 C   0  0  2  0  0  0  0  0  0  0  0  0
    5.3850   -2.8800   -1.2850 O   0  0  0  0  0  0  0  0  0  0  0  0
    5.6400   -3.3550   -0.0220 C   0  0  0  0  0  0  0  0  0  0  0  0
    6.4140   -2.4200    0.8200 C   0  0  0  0  0  0  0  0  0  0  0  0
    7.1820   -2.8520    1.7150 O   0  0  0  0  0  0  0  0  0  0  0  0
    6.2730   -1.0220    0.5980 N   0  0  0  0  0  0  0  0  0  0  0  0
    5.6530   -0.6170   -0.6130 C   0  0  0  0  0  0  0  0  0  0  0  0
    5.8590    0.5380   -1.0350 O   0  0  0  0  0  0  0  0  0  0  0  0
  1  2  1  0
  2  3  1  0
  3  4  1  0
  4  5  1  0
  5  6  1  0
  6  7  2  0
  6  8  1  0
  8  9  1  6
  8 10  1  0
  8 16  1  0
 10 11  1  1
 10 15  1  0
 11 12  1  0
 12 13  1  0
 13 14  1  0
 14 15  1  0
 16 17  1  1
 16 18  1  0
 18 19  1  0
 19 20  2  0
 19 21  1  0
 22 21  1  1
 22 23  1  0
 22 28  1  0
 23 24  1  0
 24 25  1  0
 25 26  2  0
 25 27  1  0
 27 28  1  0
 28 29  2  0
M  CHG  2   2   1  14   1
M  END
