
     RDKit          3D

 30 31  0  0  0  0  0  0  0  0999 V2000
    6.3870   -1.4300   -2.1510 C   0  0  0  0  0  0  0  0  0  0  0  0
    6.7140   -0.2620   -1.2400 C   0  0  2  0  0  0  0  0  0  0  0  0
    7.8330   -0.6260   -0.4420 O   0  0  0  0  0  0  0  0  0  0  0  0
    8.0900    0.1130    0.7100 C   0  0  0  0  0  0  0  0  0  0  0  0
    9.2760    0.1780    1.1340 O   0  0  0  0  0  0  0  0  0  0  0  0
    6.9680    0.7980    1.4000 C   0  0  0  0  0  0  0  0  0  0  0  0
    5.7380    0.1880    0.9710 O   0  0  0  0  0  0  0  0  0  0  0  0
    5.5320   -0.0260   -0.3860 C   0  0  0  0  0  0  0  0  0  0  0  0
    4.3430   -0.0230   -0.9210 C   0  0  0  0  0  0  0  0  0  0  0  0
    3.1690    0.2290    0.0320 C   0  0  2  0  0  0  0  0  0  0  0  0
    2.7820   -1.0830    0.4950 N   0  0  0  0  0  0  0  0  0  0  0  0
    2.1940    0.9880   -0.7700 C   0  0  0  0  0  0  0  0  0  0  0  0
    0.9780    1.4230   -0.0670 C   0  0  0  0  0  0  0  0  0  0  0  0
    0.1360    0.4000    0.4140 N   0  0  1  0  0  0  0  0  0  0  0  0
    0.0070    0.4930    1.8650 C   0  0  0  0  0  0  0  0  0  0  0  0
   -1.2600    1.2080    2.2750 C   0  0  0  0  0  0  0  0  0  0  0  0
   -2.3980    0.5680    1.8530 O   0  0  0  0  0  0  0  0  0  0  0  0
   -2.1240   -0.2210    0.7490 C   0  0  1  0  0  0  0  0  0  0  0  0
   -3.3700   -0.6670    0.0680 C   0  0  0  0  0  0  0  0  0  0  0  0
   -3.2780   -1.3980   -0.9260 O   0  0  0  0  0  0  0  0  0  0  0  0
   -4.6510   -0.2670    0.5420 N   0  0  0  0  0  0  0  0  0  0  0  0
   -5.8820   -0.7070   -0.1250 C   0  0  2  0  0  0  0  0  0  0  0  0
   -6.5420    0.5830   -0.6240 C   0  0  0  0  0  0  0  0  0  0  0  0
   -7.7900    0.1970   -1.3280 C   0  0  0  0  0  0  0  0  0  0  0  0
   -7.7840   -0.7310   -2.1690 O   0  0  0  0  0  0  0  0  0  0  0  0
   -8.9870    0.8430   -1.0760 O   0  0  0  0  0  0  0  0  0  0  0  0
   -6.8180   -1.2920    0.8490 C   0  0  0  0  0  0  0  0  0  0  0  0
   -8.0850   -1.7430    0.4120 N   0  0  0  0  0  0  0  0  0  0  0  0
   -6.5150   -1.3920    2.0440 O   0  0  0  0  0  0  0  0  0  0  0  0
   -1.2340    0.5820   -0.1680 C   0  0  0  0  0  0  0  0  0  0  0  0
  2  1  1  6
  2  3  1  0
  2  8  1  0
  3  4  1  0
  4  5  2  0
  4  6  1  0
  6  7  1  0
  7  8  1  0
  8  9  2  3
  9 10  1  0
 10 11  1  6
 10 12  1  0
 12 13  1  0
 14 13  1  6
 14 15  1  0
 14 30  1  0
 15 16  1  0
 16 17  1  0
 17 18  1  0
 18 19  1  6
 18 30  1  0
 19 20  2  0
 19 21  1  0
 21 22  1  0
 22 23  1  1
 22 27  1  0
 23 24  1  0
 24 25  2  0
 24 26  1  0
 27 28  1  0
 27 29  2  0
M  CHG  2  11   1  14   1
M  END
