
     RDKit          3D

 43 46  0  0  0  0  0  0  0  0999 V2000
    9.5890   -0.8230   -2.0790 C   0  0  0  0  0  0  0  0  0  0  0  0
    8.7890   -2.0760   -2.2480 C   0  0  0  0  0  0  0  0  0  0  0  0
    7.3690   -1.8340   -1.8040 C   0  0  0  0  0  0  0  0  0  0  0  0
    6.7620   -0.7220   -2.6410 C   0  0  0  0  0  0  0  0  0  0  0  0
    5.3300   -0.4610   -2.2410 C   0  0  1  0  0  0  0  0  0  0  0  0
    4.4670   -1.6810   -2.4090 C   0  0  0  0  0  0  0  0  0  0  0  0
    3.0390   -1.2600   -2.1950 C   0  0  0  0  0  0  0  0  0  0  0  0
    2.9040   -0.6990   -0.8200 N   0  0  2  0  0  0  0  0  0  0  0  0
    1.6080   -0.7980   -0.4460 C   0  0  0  0  0  0  0  0  0  0  0  0
    0.7220    0.3140   -0.0300 C   0  0  0  0  0  0  0  0  0  0  0  0
    1.0010    1.6120    0.0190 N   0  0  0  0  0  0  0  0  0  0  0  0
   -0.1000    2.2680    0.4170 C   0  0  0  0  0  0  0  0  0  0  0  0
   -0.1190    3.5770    0.5180 C   0  0  0  0  0  0  0  0  0  0  0  0
    1.0210    4.4730    0.2310 C   0  0  0  0  0  0  0  0  0  0  0  0
    1.4310    5.2080    1.5150 C   0  0  0  0  0  0  0  0  0  0  0  0
    2.4800    6.0380    1.1870 O   0  0  0  0  0  0  0  0  0  0  0  0
   -1.1510    1.3320    0.6410 C   0  0  0  0  0  0  0  0  0  0  0  0
   -0.6570    0.1110    0.3650 C   0  0  0  0  0  0  0  0  0  0  0  0
   -1.2400   -1.2170    0.3420 C   0  0  0  0  0  0  0  0  0  0  0  0
   -1.4000   -1.7920   -0.8130 O   0  0  0  0  0  0  0  0  0  0  0  0
   -1.7160   -2.1190    1.4360 C   0  0  0  0  0  0  0  0  0  0  0  0
   -2.9000   -2.6760    1.0670 O   0  0  0  0  0  0  0  0  0  0  0  0
   -4.2170   -2.5120    0.9660 C   0  0  0  0  0  0  0  0  0  0  0  0
   -4.7770   -2.6750   -0.3230 C   0  0  0  0  0  0  0  0  0  0  0  0
   -6.1050   -2.5440   -0.6160 C   0  0  0  0  0  0  0  0  0  0  0  0
   -6.6130   -2.7100   -1.9090 O   0  0  0  0  0  0  0  0  0  0  0  0
   -5.7480   -3.0340   -2.9820 C   0  0  0  0  0  0  0  0  0  0  0  0
   -6.9490   -2.2370    0.4060 C   0  0  0  0  0  0  0  0  0  0  0  0
   -6.4510   -2.0760    1.6380 C   0  0  0  0  0  0  0  0  0  0  0  0
   -5.0960   -2.1930    2.0170 C   0  0  0  0  0  0  0  0  0  0  0  0
   -4.7590   -1.9690    3.3590 N   0  0  0  0  0  0  0  0  0  0  0  0
   -3.7300   -1.2550    3.9990 C   0  0  0  0  0  0  0  0  0  0  0  0
   -3.0580   -1.8500    4.9490 O   0  0  0  0  0  0  0  0  0  0  0  0
   -3.2690    0.0560    3.7880 N   0  0  0  0  0  0  0  0  0  0  0  0
   -3.9810    1.3070    3.7710 C   0  0  0  0  0  0  0  0  0  0  0  0
   -4.4260    1.6160    2.3720 C   0  0  0  0  0  0  0  0  0  0  0  0
   -3.5480    0.9000    1.3300 C   0  0  1  0  0  0  0  0  0  0  0  0
   -4.4420    0.7850    0.0960 C   0  0  0  0  0  0  0  0  0  0  0  0
   -4.8420    2.2080   -0.3300 C   0  0  0  0  0  0  0  0  0  0  0  0
   -5.6690    2.1880   -1.4320 O   0  0  0  0  0  0  0  0  0  0  0  0
   -2.3500    1.7060    1.0460 C   0  0  0  0  0  0  0  0  0  0  0  0
    3.6810    0.4700   -0.6980 C   0  0  0  0  0  0  0  0  0  0  0  0
    5.1860    0.0600   -0.8550 C   0  0  0  0  0  0  0  0  0  0  0  0
  1  2  1  0
  2  3  1  0
  3  4  1  0
  5  4  1  1
  5  6  1  0
  5 43  1  0
  6  7  1  0
  7  8  1  0
  8  9  1  6
  8 42  1  0
  9 10  1  0
 10 11  1  0
 10 18  2  0
 11 12  1  0
 12 13  2  3
 12 17  1  0
 13 14  1  0
 14 15  1  0
 15 16  1  0
 17 18  1  0
 17 41  2  0
 18 19  1  0
 19 20  2  0
 19 21  1  0
 21 22  1  0
 22 23  1  0
 23 24  2  0
 23 30  1  0
 24 25  1  0
 25 26  1  0
 25 28  2  0
 26 27  1  0
 28 29  1  0
 29 30  2  0
 30 31  1  0
 31 32  1  0
 32 33  2  0
 32 34  1  0
 34 35  1  0
 35 36  1  0
 36 37  1  0
 37 38  1  6
 37 41  1  0
 38 39  1  0
 39 40  1  0
 42 43  1  0
M  CHG  1   8   1
M  END
