
     RDKit          3D

 43 47  0  0  0  0  0  0  0  0999 V2000
  -11.7950   -0.5300    3.1880 C   0  0  0  0  0  0  0  0  0  0  0  0
  -10.4980   -0.1490    2.5740 C   0  0  0  0  0  0  0  0  0  0  0  0
   -9.9540    1.1180    2.6740 C   0  0  0  0  0  0  0  0  0  0  0  0
   -8.7450    1.3900    2.0710 C   0  0  0  0  0  0  0  0  0  0  0  0
   -8.0270    0.4690    1.3600 C   0  0  0  0  0  0  0  0  0  0  0  0
   -6.7400    0.8490    0.7490 C   0  0  2  0  0  0  0  0  0  0  0  0
   -6.9300    1.2350   -0.7030 C   0  0  0  0  0  0  0  0  0  0  0  0
   -6.9270    0.0970   -1.5770 N   0  0  0  0  0  0  0  0  0  0  0  0
   -5.8390   -0.7880   -1.3200 C   0  0  0  0  0  0  0  0  0  0  0  0
   -4.9690   -0.1950   -0.2320 C   0  0  2  0  0  0  0  0  0  0  0  0
   -3.7550   -1.0760   -0.0070 C   0  0  0  0  0  0  0  0  0  0  0  0
   -2.9890   -1.1410   -1.1790 O   0  0  0  0  0  0  0  0  0  0  0  0
   -2.3760   -0.0960   -1.8120 C   0  0  0  0  0  0  0  0  0  0  0  0
   -2.4890    1.0570   -1.3110 O   0  0  0  0  0  0  0  0  0  0  0  0
   -1.5840   -0.2080   -3.0490 C   0  0  1  0  0  0  0  0  0  0  0  0
   -0.1660    0.2760   -2.7320 C   0  0  0  0  0  0  0  0  0  0  0  0
    0.4560   -0.6790   -1.9050 N   0  0  0  0  0  0  0  0  0  0  0  0
    0.6180   -0.4670   -0.5410 C   0  0  0  0  0  0  0  0  0  0  0  0
    1.5950    0.5890   -0.1960 C   0  0  0  0  0  0  0  0  0  0  0  0
    1.8620    0.9140    0.9940 O   0  0  0  0  0  0  0  0  0  0  0  0
    2.2660    1.2720   -1.2400 N   0  0  0  0  0  0  0  0  0  0  0  0
    3.2450    2.3180   -0.9550 C   0  0  0  0  0  0  0  0  0  0  0  0
    4.5180    1.6540   -0.5480 C   0  0  0  0  0  0  0  0  0  0  0  0
    4.6690    0.2890   -0.4530 C   0  0  0  0  0  0  0  0  0  0  0  0
    5.8650   -0.3130   -0.0810 C   0  0  0  0  0  0  0  0  0  0  0  0
    6.9770    0.4560    0.2170 C   0  0  0  0  0  0  0  0  0  0  0  0
    8.2360   -0.1670    0.6040 C   0  0  0  0  0  0  0  0  0  0  0  0
    9.1510    0.4000    1.4570 C   0  0  0  0  0  0  0  0  0  0  0  0
   10.3510   -0.2250    1.8100 C   0  0  0  0  0  0  0  0  0  0  0  0
   10.6360   -1.4630    1.2840 C   0  0  0  0  0  0  0  0  0  0  0  0
   11.8840   -2.1070    1.6530 C   0  0  0  0  0  0  0  0  0  0  0  0
   12.8020   -1.4820    2.5330 N   0  0  0  0  0  0  0  0  0  0  0  0
   12.1310   -3.2390    1.1680 O   0  0  0  0  0  0  0  0  0  0  0  0
    9.7440   -2.0650    0.4250 C   0  0  0  0  0  0  0  0  0  0  0  0
    8.5600   -1.4230    0.0910 C   0  0  0  0  0  0  0  0  0  0  0  0
    6.8300    1.8230    0.1240 C   0  0  0  0  0  0  0  0  0  0  0  0
    5.6440    2.4220   -0.2450 C   0  0  0  0  0  0  0  0  0  0  0  0
    0.5590   -1.9500   -2.4780 C   0  0  0  0  0  0  0  0  0  0  0  0
   -0.8610   -2.4080   -2.8330 C   0  0  0  0  0  0  0  0  0  0  0  0
   -1.5180   -1.4650   -3.5820 O   0  0  0  0  0  0  0  0  0  0  0  0
   -5.7550   -0.1210    0.9240 O   0  0  0  0  0  0  0  0  0  0  0  0
   -8.5700   -0.8060    1.2560 C   0  0  0  0  0  0  0  0  0  0  0  0
   -9.7780   -1.0890    1.8550 C   0  0  0  0  0  0  0  0  0  0  0  0
  1  2  1  0
  2  3  2  0
  2 43  1  0
  3  4  1  0
  4  5  2  0
  6  5  1  6
  5 42  1  0
  6  7  1  0
  6 41  1  0
  7  8  1  0
  8  9  1  0
  9 10  1  0
 10 11  1  1
 10 41  1  0
 11 12  1  0
 12 13  1  0
 13 14  2  0
 15 13  1  1
 15 16  1  0
 15 40  1  0
 16 17  1  0
 17 18  1  0
 17 38  1  0
 18 19  1  0
 19 20  2  0
 19 21  1  0
 21 22  1  0
 22 23  1  0
 23 24  2  0
 23 37  1  0
 24 25  1  0
 25 26  2  0
 26 27  1  0
 26 36  1  0
 27 28  2  0
 27 35  1  0
 28 29  1  0
 29 30  2  0
 30 31  1  0
 30 34  1  0
 31 32  1  0
 31 33  2  0
 34 35  2  0
 36 37  2  0
 38 39  1  0
 39 40  1  0
 42 43  2  0
M  CHG  1  32   1
M  END
