
     RDKit          3D

 43 46  0  0  0  0  0  0  0  0999 V2000
   -9.9150    1.7520    0.8190 C   0  0  0  0  0  0  0  0  0  0  0  0
   -8.7070    2.2170    1.5920 C   0  0  1  0  0  0  0  0  0  0  0  0
   -8.6190    1.4660    2.8740 C   0  0  0  0  0  0  0  0  0  0  0  0
   -8.4900    0.0390    2.7550 N   0  0  0  0  0  0  0  0  0  0  0  0
   -7.4230    2.1390    0.7560 C   0  0  0  0  0  0  0  0  0  0  0  0
   -7.2230    0.8060    0.3740 N   0  0  0  0  0  0  0  0  0  0  0  0
   -6.0480    0.5130   -0.4360 C   0  0  2  0  0  0  0  0  0  0  0  0
   -6.1340    1.1810   -1.7280 C   0  0  0  0  0  0  0  0  0  0  0  0
   -5.9610    0.4680   -2.9970 C   0  0  0  0  0  0  0  0  0  0  0  0
   -6.7870   -0.7380   -3.2560 C   0  0  0  0  0  0  0  0  0  0  0  0
   -6.3030   -1.9740   -2.5490 C   0  0  0  0  0  0  0  0  0  0  0  0
   -6.2840   -1.9450   -1.0950 C   0  0  0  0  0  0  0  0  0  0  0  0
   -5.6180   -0.9020   -0.3250 C   0  0  1  0  0  0  0  0  0  0  0  0
   -4.1280   -1.0440   -0.1320 C   0  0  1  0  0  0  0  0  0  0  0  0
   -3.7520   -2.3810   -0.0200 O   0  0  0  0  0  0  0  0  0  0  0  0
   -3.2320   -0.3580   -1.0520 C   0  0  0  0  0  0  0  0  0  0  0  0
   -1.8940   -0.3250   -0.6710 O   0  0  0  0  0  0  0  0  0  0  0  0
   -1.0070   -1.3380   -0.5160 C   0  0  0  0  0  0  0  0  0  0  0  0
   -1.3710   -2.5170   -0.7400 O   0  0  0  0  0  0  0  0  0  0  0  0
    0.3630   -1.0280   -0.0890 C   0  0  0  0  0  0  0  0  0  0  0  0
    1.2850   -2.0310    0.0810 C   0  0  0  0  0  0  0  0  0  0  0  0
    2.5650   -1.7290    0.4850 C   0  0  0  0  0  0  0  0  0  0  0  0
    2.9780   -0.4170    0.7370 C   0  0  0  0  0  0  0  0  0  0  0  0
    4.3150   -0.2470    1.1520 N   0  0  0  0  0  0  0  0  0  0  0  0
    4.9580    0.9640    1.4300 C   0  0  0  0  0  0  0  0  0  0  0  0
    4.3290    2.0390    1.3250 O   0  0  0  0  0  0  0  0  0  0  0  0
    6.3820    1.1050    1.8630 C   0  0  0  0  0  0  0  0  0  0  0  0
    7.1480   -0.0110    1.7360 O   0  0  0  0  0  0  0  0  0  0  0  0
    7.4570   -0.4320    0.4770 C   0  0  0  0  0  0  0  0  0  0  0  0
    8.3590    0.5220   -0.2900 C   0  0  0  0  0  0  0  0  0  0  0  0
    9.6560    0.6920    0.3380 N   0  0  0  0  0  0  0  0  0  0  0  0
    9.8450    1.7230    1.1910 C   0  0  0  0  0  0  0  0  0  0  0  0
   11.0750    1.9060    1.7760 C   0  0  0  0  0  0  0  0  0  0  0  0
   12.1080    1.0410    1.4920 C   0  0  0  0  0  0  0  0  0  0  0  0
   13.2570    1.1600    1.9980 O   0  0  0  0  0  0  0  0  0  0  0  0
   11.9040   -0.0080    0.6180 C   0  0  0  0  0  0  0  0  0  0  0  0
   12.9370   -0.8790    0.3340 C   0  0  0  0  0  0  0  0  0  0  0  0
   12.7100   -1.9290   -0.5430 C   0  0  0  0  0  0  0  0  0  0  0  0
   11.4860   -2.1210   -1.1320 C   0  0  0  0  0  0  0  0  0  0  0  0
   10.4600   -1.2350   -0.8330 C   0  0  0  0  0  0  0  0  0  0  0  0
   10.6540   -0.1820    0.0330 C   0  0  0  0  0  0  0  0  0  0  0  0
    2.0390    0.5480    0.5580 C   0  0  0  0  0  0  0  0  0  0  0  0
    0.7430    0.2640    0.1510 C   0  0  0  0  0  0  0  0  0  0  0  0
  2  1  1  6
  2  3  1  0
  2  5  1  0
  3  4  1  0
  5  6  1  0
  7  6  1  6
  7  8  1  0
  7 13  1  0
  8  9  1  0
  9 10  1  0
 10 11  1  0
 11 12  1  0
 13 12  1  6
 13 14  1  0
 14 15  1  6
 14 16  1  0
 16 17  1  0
 17 18  1  0
 18 19  2  0
 18 20  1  0
 20 21  2  0
 20 43  1  0
 21 22  1  0
 22 23  2  0
 23 24  1  0
 23 42  1  0
 24 25  1  0
 25 26  2  0
 25 27  1  0
 27 28  1  0
 28 29  1  0
 29 30  1  0
 30 31  1  0
 31 32  1  0
 31 41  1  0
 32 33  2  0
 33 34  1  0
 34 35  2  0
 34 36  1  0
 36 37  2  0
 36 41  1  0
 37 38  1  0
 38 39  2  0
 39 40  1  0
 40 41  2  0
 42 43  2  0
M  CHG  1   4   1
M  END
