
     RDKit          3D

 43 46  0  0  0  0  0  0  0  0999 V2000
    2.7080    5.3530    2.5010 C   0  0  0  0  0  0  0  0  0  0  0  0
    2.9590    4.0100    2.1720 O   0  0  0  0  0  0  0  0  0  0  0  0
    2.4350    3.3770    1.0540 C   0  0  0  0  0  0  0  0  0  0  0  0
    1.7040    4.0170    0.2930 O   0  0  0  0  0  0  0  0  0  0  0  0
    2.7110    2.0180    0.7550 N   0  0  0  0  0  0  0  0  0  0  0  0
    2.2260    1.2810   -0.3540 C   0  0  2  0  0  0  0  0  0  0  0  0
    1.4700    0.0640   -0.0110 C   0  0  0  0  0  0  0  0  0  0  0  0
    1.3180   -0.2010    1.2040 O   0  0  0  0  0  0  0  0  0  0  0  0
    0.9020   -0.8300   -0.9490 N   0  0  0  0  0  0  0  0  0  0  0  0
    0.1760   -1.9890   -0.5540 N   0  0  2  0  0  0  0  0  0  0  0  0
    1.0230   -3.0860   -0.1960 C   0  0  0  0  0  0  0  0  0  0  0  0
    2.3070   -3.1870   -0.8820 C   0  0  0  0  0  0  0  0  0  0  0  0
    2.4100   -3.3330   -2.2480 C   0  0  0  0  0  0  0  0  0  0  0  0
    3.6380   -3.4470   -2.8850 C   0  0  0  0  0  0  0  0  0  0  0  0
    4.8090   -3.4180   -2.1640 C   0  0  0  0  0  0  0  0  0  0  0  0
    4.7250   -3.2730   -0.7970 C   0  0  0  0  0  0  0  0  0  0  0  0
    3.4920   -3.1600   -0.1760 C   0  0  0  0  0  0  0  0  0  0  0  0
   -0.7500   -2.4050   -1.5280 C   0  0  0  0  0  0  0  0  0  0  0  0
   -2.1910   -2.0750   -1.3740 C   0  0  1  0  0  0  0  0  0  0  0  0
   -2.7290   -2.6680   -2.6050 O   0  0  0  0  0  0  0  0  0  0  0  0
   -2.9600   -2.8090   -0.3450 C   0  0  0  0  0  0  0  0  0  0  0  0
   -2.5920   -2.7610    1.0450 C   0  0  0  0  0  0  0  0  0  0  0  0
   -3.0120   -1.8040    1.9340 C   0  0  0  0  0  0  0  0  0  0  0  0
   -2.6740   -1.7870    3.2710 C   0  0  0  0  0  0  0  0  0  0  0  0
   -1.8570   -2.7930    3.7700 C   0  0  0  0  0  0  0  0  0  0  0  0
   -1.4090   -3.7790    2.9110 C   0  0  0  0  0  0  0  0  0  0  0  0
   -1.7800   -3.7430    1.5930 C   0  0  0  0  0  0  0  0  0  0  0  0
   -2.4690   -0.6480   -1.5380 C   0  0  0  0  0  0  0  0  0  0  0  0
   -3.0020   -0.2630   -2.6400 O   0  0  0  0  0  0  0  0  0  0  0  0
   -2.2220    0.3780   -0.6250 N   0  0  0  0  0  0  0  0  0  0  0  0
   -2.5120    1.7800   -0.8370 C   0  0  1  0  0  0  0  0  0  0  0  0
   -3.6190    2.1690    0.1080 C   0  0  0  0  0  0  0  0  0  0  0  0
   -4.7250    1.4870    0.5610 C   0  0  0  0  0  0  0  0  0  0  0  0
   -5.5930    2.0690    1.4310 C   0  0  0  0  0  0  0  0  0  0  0  0
   -5.4060    3.3490    1.8890 C   0  0  0  0  0  0  0  0  0  0  0  0
   -4.2900    4.0100    1.4190 C   0  0  0  0  0  0  0  0  0  0  0  0
   -3.3880    3.4480    0.5360 C   0  0  0  0  0  0  0  0  0  0  0  0
   -2.1280    3.9760   -0.1030 C   0  0  0  0  0  0  0  0  0  0  0  0
   -1.4080    2.6850   -0.4320 C   0  0  1  0  0  0  0  0  0  0  0  0
   -0.7900    2.2700    0.7510 O   0  0  0  0  0  0  0  0  0  0  0  0
    3.2670    0.9740   -1.3970 C   0  0  1  0  0  0  0  0  0  0  0  0
    3.8230    2.2960   -1.9400 C   0  0  0  0  0  0  0  0  0  0  0  0
    4.4400    0.2070   -0.8870 C   0  0  0  0  0  0  0  0  0  0  0  0
  1  2  1  0
  2  3  1  0
  3  4  2  0
  3  5  1  0
  6  5  1  1
  6  7  1  0
  6 41  1  0
  7  8  2  0
  7  9  1  0
  9 10  1  0
 10 11  1  6
 10 18  1  0
 11 12  1  0
 12 13  2  0
 12 17  1  0
 13 14  1  0
 14 15  2  0
 15 16  1  0
 16 17  2  0
 18 19  1  0
 19 20  1  6
 19 21  1  0
 19 28  1  0
 21 22  1  0
 22 23  2  0
 22 27  1  0
 23 24  1  0
 24 25  2  0
 25 26  1  0
 26 27  2  0
 28 29  2  0
 28 30  1  0
 31 30  1  1
 31 32  1  0
 31 39  1  0
 32 33  2  0
 32 37  1  0
 33 34  1  0
 34 35  2  0
 35 36  1  0
 36 37  2  0
 37 38  1  0
 38 39  1  0
 39 40  1  1
 41 42  1  1
 41 43  1  0
M  CHG  1  10   1
M  END
