
     RDKit          3D

 43 46  0  0  0  0  0  0  0  0999 V2000
    5.1960   -0.7330   -4.2760 C   0  0  0  0  0  0  0  0  0  0  0  0
    6.2630   -0.6290   -3.5340 C   0  0  0  0  0  0  0  0  0  0  0  0
    6.1480   -0.8330   -2.0960 C   0  0  0  0  0  0  0  0  0  0  0  0
    4.9800   -0.7980   -1.4100 C   0  0  0  0  0  0  0  0  0  0  0  0
    4.8600   -0.9990   -0.0220 C   0  0  0  0  0  0  0  0  0  0  0  0
    3.6320   -0.9390    0.5150 O   0  0  0  0  0  0  0  0  0  0  0  0
    3.2300   -1.0570    1.8130 C   0  0  0  0  0  0  0  0  0  0  0  0
    3.7080    0.0680    2.6690 C   0  0  0  0  0  0  0  0  0  0  0  0
    3.2820    1.3420    2.2870 O   0  0  0  0  0  0  0  0  0  0  0  0
    1.9700    1.7450    2.3100 C   0  0  0  0  0  0  0  0  0  0  0  0
    1.6970    3.0560    1.8480 C   0  0  0  0  0  0  0  0  0  0  0  0
    0.4220    3.5420    1.8370 C   0  0  0  0  0  0  0  0  0  0  0  0
   -0.6430    2.7490    2.2860 C   0  0  0  0  0  0  0  0  0  0  0  0
   -1.8980    3.2980    2.2490 O   0  0  0  0  0  0  0  0  0  0  0  0
   -0.4350    1.4810    2.7420 C   0  0  0  0  0  0  0  0  0  0  0  0
   -1.5160    0.5860    3.2180 C   0  0  2  0  0  0  0  0  0  0  0  0
   -0.9480   -0.7880    3.2160 N   0  0  0  0  0  0  0  0  0  0  0  0
   -0.7900   -1.5010    4.4250 C   0  0  0  0  0  0  0  0  0  0  0  0
   -0.2210   -2.8660    4.3900 C   0  0  0  0  0  0  0  0  0  0  0  0
   -1.1320   -0.9770    5.5250 O   0  0  0  0  0  0  0  0  0  0  0  0
   -2.7050    0.5080    2.3730 C   0  0  0  0  0  0  0  0  0  0  0  0
   -2.7090   -0.2630    1.3710 O   0  0  0  0  0  0  0  0  0  0  0  0
   -3.8630    1.2600    2.6370 N   0  0  0  0  0  0  0  0  0  0  0  0
   -5.0650    1.2330    1.8740 C   0  0  0  0  0  0  0  0  0  0  0  0
   -4.9230    1.6330    0.4430 C   0  0  2  0  0  0  0  0  0  0  0  0
   -4.4090    3.0380    0.2810 C   0  0  0  0  0  0  0  0  0  0  0  0
   -6.2580    1.5080   -0.2320 C   0  0  0  0  0  0  0  0  0  0  0  0
   -6.8590    2.5750   -0.5630 O   0  0  0  0  0  0  0  0  0  0  0  0
   -6.7960    0.2280   -0.4710 N   0  0  0  0  0  0  0  0  0  0  0  0
   -8.0770   -0.0500   -1.0690 C   0  0  0  0  0  0  0  0  0  0  0  0
   -7.8220   -1.2950   -1.8780 C   0  0  1  0  0  0  0  0  0  0  0  0
   -7.9260   -0.9290   -3.3410 C   0  0  0  0  0  0  0  0  0  0  0  0
   -6.4710   -1.7940   -1.4850 C   0  0  1  0  0  0  0  0  0  0  0  0
   -5.3890   -1.3950   -2.4680 C   0  0  0  0  0  0  0  0  0  0  0  0
   -6.1660   -1.0310   -0.1820 C   0  0  0  0  0  0  0  0  0  0  0  0
    0.8960    1.0340    2.7310 C   0  0  0  0  0  0  0  0  0  0  0  0
    6.0370   -1.2430    0.6270 C   0  0  0  0  0  0  0  0  0  0  0  0
    7.2580   -1.2920   -0.0060 C   0  0  0  0  0  0  0  0  0  0  0  0
    7.3140   -1.0890   -1.3590 C   0  0  0  0  0  0  0  0  0  0  0  0
    8.6540   -1.1570   -2.0010 C   0  0  0  0  0  0  0  0  0  0  0  0
    8.5670   -1.3450   -3.4970 C   0  0  0  0  0  0  0  0  0  0  0  0
    7.6100   -0.3140   -4.0910 C   0  0  2  0  0  0  0  0  0  0  0  0
    7.9640    1.0300   -3.7540 N   0  0  0  0  0  0  0  0  0  0  0  0
  1  2  2  0
  2  3  1  0
  2 42  1  0
  3  4  2  0
  3 39  1  0
  4  5  1  0
  5  6  1  0
  5 37  2  0
  6  7  1  0
  7  8  1  0
  8  9  1  0
  9 10  1  0
 10 11  2  0
 10 36  1  0
 11 12  1  0
 12 13  2  0
 13 14  1  0
 13 15  1  0
 15 16  1  0
 15 36  2  0
 16 17  1  6
 16 21  1  0
 17 18  1  0
 18 19  1  0
 18 20  2  0
 21 22  2  0
 21 23  1  0
 23 24  1  0
 24 25  1  0
 25 26  1  1
 25 27  1  0
 27 28  2  0
 27 29  1  0
 29 30  1  0
 29 35  1  0
 30 31  1  0
 31 32  1  6
 31 33  1  0
 33 34  1  6
 33 35  1  0
 37 38  1  0
 38 39  2  0
 39 40  1  0
 40 41  1  0
 41 42  1  0
 42 43  1  1
M  CHG  1  43   1
M  END
