
     RDKit          3D

 43 46  0  0  0  0  0  0  0  0999 V2000
    8.9430   -4.8860    0.7730 C   0  0  0  0  0  0  0  0  0  0  0  0
    7.5400   -4.4100    0.4590 C   0  0  0  0  0  0  0  0  0  0  0  0
    7.6250   -3.0770   -0.2590 C   0  0  0  0  0  0  0  0  0  0  0  0
    6.3320   -2.5500   -0.6010 N   0  0  0  0  0  0  0  0  0  0  0  0
    5.3200   -2.2480    0.3400 C   0  0  0  0  0  0  0  0  0  0  0  0
    5.5600   -2.4500    1.5520 O   0  0  0  0  0  0  0  0  0  0  0  0
    3.9990   -1.6970   -0.1260 C   0  0  0  0  0  0  0  0  0  0  0  0
    3.0800   -1.4930    1.0620 C   0  0  0  0  0  0  0  0  0  0  0  0
    1.7970   -0.9590    0.7060 N   0  0  0  0  0  0  0  0  0  0  0  0
    1.6210    0.3030    0.0810 C   0  0  0  0  0  0  0  0  0  0  0  0
    2.7010    0.9570   -0.1500 O   0  0  0  0  0  0  0  0  0  0  0  0
    0.3700    0.8910   -0.3050 C   0  0  0  0  0  0  0  0  0  0  0  0
   -0.7730    0.2900   -0.1130 C   0  0  0  0  0  0  0  0  0  0  0  0
   -2.0660    0.8780   -0.5110 C   0  0  0  0  0  0  0  0  0  0  0  0
   -3.0830    0.0790   -0.7370 C   0  0  0  0  0  0  0  0  0  0  0  0
   -2.8460   -1.3220   -0.5670 O   0  0  0  0  0  0  0  0  0  0  0  0
   -4.4210    0.4370   -1.1490 C   0  0  0  0  0  0  0  0  0  0  0  0
   -4.7850    1.6020   -1.3850 O   0  0  0  0  0  0  0  0  0  0  0  0
   -5.4170   -0.5410   -1.3070 O   0  0  0  0  0  0  0  0  0  0  0  0
   -6.7120   -0.1800   -1.7070 C   0  0  0  0  0  0  0  0  0  0  0  0
   -7.5520   -1.4230   -1.7380 C   0  0  0  0  0  0  0  0  0  0  0  0
   -8.6880   -1.3300   -2.1310 O   0  0  0  0  0  0  0  0  0  0  0  0
   -7.0310   -2.7330   -1.3050 C   0  0  2  0  0  0  0  0  0  0  0  0
   -8.1020   -3.7720   -1.4530 C   0  0  0  0  0  0  0  0  0  0  0  0
   -9.2510   -3.4490   -0.5320 C   0  0  0  0  0  0  0  0  0  0  0  0
   -8.8460   -2.7500    0.6730 N   0  0  0  0  0  0  0  0  0  0  0  0
   -7.5330   -3.2340    1.0910 C   0  0  0  0  0  0  0  0  0  0  0  0
   -6.4890   -2.7730    0.0880 C   0  0  0  0  0  0  0  0  0  0  0  0
   -2.0980    2.3580   -0.5970 C   0  0  1  0  0  0  0  0  0  0  0  0
   -3.1360    2.9640    0.3540 C   0  0  0  0  0  0  0  0  0  0  0  0
   -0.8280    2.9110   -0.2560 N   0  0  0  0  0  0  0  0  0  0  0  0
    0.2700    2.2600   -0.9110 C   0  0  1  0  0  0  0  0  0  0  0  0
    1.5340    3.0200   -0.5880 C   0  0  0  0  0  0  0  0  0  0  0  0
    2.4400    3.3860   -1.5490 C   0  0  0  0  0  0  0  0  0  0  0  0
    3.6130    4.0750   -1.2160 C   0  0  0  0  0  0  0  0  0  0  0  0
    3.8810    4.4010    0.1010 C   0  0  0  0  0  0  0  0  0  0  0  0
    5.0470    5.0760    0.4530 C   0  0  0  0  0  0  0  0  0  0  0  0
    5.3160    5.3890    1.7600 C   0  0  0  0  0  0  0  0  0  0  0  0
    6.5770    6.1150    2.1550 C   0  0  0  0  0  0  0  0  0  0  0  0
    4.3930    5.0140    2.7200 C   0  0  0  0  0  0  0  0  0  0  0  0
    3.2310    4.3430    2.3780 C   0  0  0  0  0  0  0  0  0  0  0  0
    2.9730    4.0350    1.0630 C   0  0  0  0  0  0  0  0  0  0  0  0
    1.8120    3.3530    0.7260 C   0  0  0  0  0  0  0  0  0  0  0  0
  1  2  1  0
  2  3  1  0
  3  4  1  0
  4  5  1  0
  5  6  2  0
  5  7  1  0
  7  8  1  0
  8  9  1  0
  9 10  1  0
 10 11  2  0
 10 12  1  0
 12 13  2  0
 12 32  1  0
 13 14  1  0
 14 15  2  3
 14 29  1  0
 15 16  1  0
 15 17  1  0
 17 18  2  0
 17 19  1  0
 19 20  1  0
 20 21  1  0
 21 22  2  0
 23 21  1  1
 23 24  1  0
 23 28  1  0
 24 25  1  0
 25 26  1  0
 26 27  1  0
 27 28  1  0
 29 30  1  1
 29 31  1  0
 31 32  1  0
 32 33  1  1
 33 34  2  0
 33 43  1  0
 34 35  1  0
 35 36  2  0
 36 37  1  0
 36 42  1  0
 37 38  2  0
 38 39  1  0
 38 40  1  0
 40 41  2  0
 41 42  1  0
 42 43  2  0
M  CHG  1  26   1
M  END
