
     RDKit          3D

 43 46  0  0  0  0  0  0  0  0999 V2000
   -6.6730   -1.5080    0.3320 C   0  0  0  0  0  0  0  0  0  0  0  0
   -6.3280   -0.0660    0.7010 C   0  0  0  0  0  0  0  0  0  0  0  0
   -5.1130    0.3210    0.0580 N   0  0  2  0  0  0  0  0  0  0  0  0
   -4.0160    0.2470    0.9920 C   0  0  0  0  0  0  0  0  0  0  0  0
   -3.4610   -1.2070    1.0360 C   0  0  0  0  0  0  0  0  0  0  0  0
   -2.3650   -1.1460    2.0110 C   0  0  0  0  0  0  0  0  0  0  0  0
   -1.1640   -1.5930    2.0190 C   0  0  0  0  0  0  0  0  0  0  0  0
   -0.4850   -2.3590    1.0030 C   0  0  0  0  0  0  0  0  0  0  0  0
    0.9080   -2.1540    0.8840 C   0  0  0  0  0  0  0  0  0  0  0  0
    1.6030   -1.0700    1.6370 C   0  0  0  0  0  0  0  0  0  0  0  0
    1.6070   -2.9550    0.0240 C   0  0  0  0  0  0  0  0  0  0  0  0
    3.0480   -2.8040   -0.1280 C   0  0  0  0  0  0  0  0  0  0  0  0
    3.6830   -3.5550   -0.9240 O   0  0  0  0  0  0  0  0  0  0  0  0
    3.7560   -1.8660    0.5680 O   0  0  0  0  0  0  0  0  0  0  0  0
    5.1190   -1.6870    0.4580 C   0  0  0  0  0  0  0  0  0  0  0  0
    5.9980   -2.3720    1.2640 C   0  0  0  0  0  0  0  0  0  0  0  0
    7.3590   -2.1320    1.0870 C   0  0  0  0  0  0  0  0  0  0  0  0
    7.8170   -1.2370    0.1350 C   0  0  0  0  0  0  0  0  0  0  0  0
    9.2810   -1.0400    0.0050 C   0  0  0  0  0  0  0  0  0  0  0  0
    9.6280    0.0590   -0.7950 O   0  0  0  0  0  0  0  0  0  0  0  0
    9.2670    1.3620   -0.5270 C   0  0  0  0  0  0  0  0  0  0  0  0
    8.5730    1.5850    0.5210 O   0  0  0  0  0  0  0  0  0  0  0  0
    9.6670    2.4790   -1.4180 C   0  0  0  0  0  0  0  0  0  0  0  0
    9.1330    3.7860   -0.8760 C   0  0  0  0  0  0  0  0  0  0  0  0
    9.5060    4.8330   -1.7100 O   0  0  0  0  0  0  0  0  0  0  0  0
    6.9350   -0.5600   -0.6640 C   0  0  0  0  0  0  0  0  0  0  0  0
    5.5790   -0.8020   -0.4850 C   0  0  0  0  0  0  0  0  0  0  0  0
    0.9960   -3.9580   -0.7380 C   0  0  0  0  0  0  0  0  0  0  0  0
    1.7580   -4.7740   -1.6290 N   0  0  0  0  0  0  0  0  0  0  0  0
   -0.3120   -4.1030   -0.5850 N   0  0  0  0  0  0  0  0  0  0  0  0
   -1.0700   -3.3380    0.2610 C   0  0  0  0  0  0  0  0  0  0  0  0
   -2.3040   -3.5910    0.3190 O   0  0  0  0  0  0  0  0  0  0  0  0
   -5.1410    1.6590   -0.4910 C   0  0  2  0  0  0  0  0  0  0  0  0
   -5.3610    2.6970    0.5060 C   0  0  0  0  0  0  0  0  0  0  0  0
   -4.6450    2.9750    1.7140 N   0  0  0  0  0  0  0  0  0  0  0  0
   -5.3490    3.1660    2.9670 C   0  0  0  0  0  0  0  0  0  0  0  0
   -6.3950    3.4220    0.1320 C   0  0  0  0  0  0  0  0  0  0  0  0
   -6.9390    2.9290   -1.1290 C   0  0  0  0  0  0  0  0  0  0  0  0
   -8.0270    3.3900   -1.8890 C   0  0  0  0  0  0  0  0  0  0  0  0
   -8.3240    2.7260   -3.0570 C   0  0  0  0  0  0  0  0  0  0  0  0
   -7.5700    1.6450   -3.4580 C   0  0  0  0  0  0  0  0  0  0  0  0
   -6.5130    1.2170   -2.6940 C   0  0  0  0  0  0  0  0  0  0  0  0
   -6.1720    1.8550   -1.5050 C   0  0  0  0  0  0  0  0  0  0  0  0
  1  2  1  0
  3  2  1  1
  3  4  1  0
  3 33  1  0
  4  5  1  0
  5  6  1  0
  6  7  2  3
  7  8  1  0
  8  9  2  0
  8 31  1  0
  9 10  1  0
  9 11  1  0
 11 12  1  0
 11 28  2  0
 12 13  2  0
 12 14  1  0
 14 15  1  0
 15 16  2  0
 15 27  1  0
 16 17  1  0
 17 18  2  0
 18 19  1  0
 18 26  1  0
 19 20  1  0
 20 21  1  0
 21 22  2  0
 21 23  1  0
 23 24  1  0
 24 25  1  0
 26 27  2  0
 28 29  1  0
 28 30  1  0
 30 31  1  0
 31 32  2  0
 33 34  1  1
 33 43  1  0
 34 35  1  0
 34 37  2  0
 35 36  1  0
 37 38  1  0
 38 39  2  0
 38 43  1  0
 39 40  1  0
 40 41  2  0
 41 42  1  0
 42 43  2  0
M  CHG  1   3   1
M  END
