
     RDKit          3D

 20 22  0  0  0  0  0  0  0  0999 V2000
   -6.6800   -0.0420    1.0960 C   0  0  0  0  0  0  0  0  0  0  0  0
   -5.2950   -0.2390    1.2390 O   0  0  0  0  0  0  0  0  0  0  0  0
   -4.3730    0.0320    0.2550 C   0  0  0  0  0  0  0  0  0  0  0  0
   -4.8250    0.4820   -0.8280 O   0  0  0  0  0  0  0  0  0  0  0  0
   -2.9160   -0.1870    0.4390 C   0  0  0  0  0  0  0  0  0  0  0  0
   -2.4740   -0.6900    1.6620 C   0  0  0  0  0  0  0  0  0  0  0  0
   -0.7700   -0.8100    1.5090 S   0  0  0  0  0  0  0  0  0  0  0  0
   -0.6810   -0.1850   -0.1870 C   0  0  0  0  0  0  0  0  0  0  0  0
    0.5910   -0.0290   -0.9580 C   0  0  0  0  0  0  0  0  0  0  0  0
    1.7160   -0.4600   -0.1160 N   0  0  2  0  0  0  0  0  0  0  0  0
    1.9000    0.5070    0.9130 C   0  0  0  0  0  0  0  0  0  0  0  0
    2.9010    1.5980    0.5650 C   0  0  0  0  0  0  0  0  0  0  0  0
    4.1860    0.8940    0.3190 C   0  0  0  0  0  0  0  0  0  0  0  0
    5.4680    1.0900    0.6570 N   0  0  0  0  0  0  0  0  0  0  0  0
    6.1940    0.1110    0.1430 N   0  0  0  0  0  0  0  0  0  0  0  0
    5.4010   -0.7360   -0.5360 C   0  0  0  0  0  0  0  0  0  0  0  0
    4.1370   -0.2540   -0.4320 C   0  0  0  0  0  0  0  0  0  0  0  0
    2.8360   -0.7260   -0.9530 C   0  0  0  0  0  0  0  0  0  0  0  0
   -1.9870    0.0570   -0.4750 C   0  0  0  0  0  0  0  0  0  0  0  0
   -2.3240    0.6080   -1.8550 C   0  0  0  0  0  0  0  0  0  0  0  0
  1  2  1  0
  2  3  1  0
  3  4  2  0
  3  5  1  0
  5  6  2  0
  5 19  1  0
  6  7  1  0
  7  8  1  0
  8  9  1  0
  8 19  2  0
 10  9  1  6
 10 11  1  0
 10 18  1  0
 11 12  1  0
 12 13  1  0
 13 14  1  0
 13 17  2  0
 14 15  1  0
 15 16  2  0
 16 17  1  0
 17 18  1  0
 19 20  1  0
M  CHG  1  10   1
M  END
