
     RDKit          3D

  7  7  0  0  0  0  0  0  0  0999 V2000
   -1.6620   -0.4380   -0.1260 N   0  0  0  0  0  0  0  0  0  0  0  0
   -0.6240    0.3700    0.3740 C   0  0  1  0  0  0  0  0  0  0  0  0
    0.5970   -0.4310    0.8390 C   0  0  0  0  0  0  0  0  0  0  0  0
    1.3940   -0.4990   -0.4410 C   0  0  0  0  0  0  0  0  0  0  0  0
    1.1950    0.8210   -0.9670 O   0  0  0  0  0  0  0  0  0  0  0  0
   -0.0290    1.3010   -0.5940 C   0  0  0  0  0  0  0  0  0  0  0  0
   -0.5730    2.3570   -0.9970 O   0  0  0  0  0  0  0  0  0  0  0  0
  2  1  1  6
  2  3  1  0
  2  6  1  0
  3  4  1  0
  4  5  1  0
  5  6  1  0
  6  7  2  0
M  END
