
     RDKit          3D

 21 23  0  0  0  0  0  0  0  0999 V2000
    0.2760   -2.8360    0.0800 O   0  0  0  0  0  0  0  0  0  0  0  0
    0.5460   -1.6990   -0.8620 S   0  0  1  0  0  0  0  0  0  0  0  0
    0.9020   -2.2130   -2.2420 O   0  0  0  0  0  0  0  0  0  0  0  0
   -0.8460   -0.7110   -0.9170 N   0  0  0  0  0  0  0  0  0  0  0  0
   -0.8180    0.4970   -0.5060 C   0  0  0  0  0  0  0  0  0  0  0  0
   -2.0550    1.2040   -0.6090 N   0  0  0  0  0  0  0  0  0  0  0  0
   -3.3310    0.6610   -0.3740 C   0  0  0  0  0  0  0  0  0  0  0  0
   -4.4740    1.3740   -0.6670 C   0  0  0  0  0  0  0  0  0  0  0  0
   -5.7020    0.7830   -0.4050 C   0  0  0  0  0  0  0  0  0  0  0  0
   -5.8160   -0.4370    0.1160 N   0  0  0  0  0  0  0  0  0  0  0  0
   -4.7160   -1.1350    0.4030 C   0  0  0  0  0  0  0  0  0  0  0  0
   -3.4700   -0.5860    0.1590 C   0  0  0  0  0  0  0  0  0  0  0  0
    0.3500    1.1940    0.0170 C   0  0  0  0  0  0  0  0  0  0  0  0
    1.5520    0.6620    0.1340 C   0  0  0  0  0  0  0  0  0  0  0  0
    1.8630   -0.6860   -0.2480 C   0  0  0  0  0  0  0  0  0  0  0  0
    3.0340   -1.2310   -0.1650 C   0  0  0  0  0  0  0  0  0  0  0  0
    4.2670   -0.5860    0.3080 C   0  0  0  0  0  0  0  0  0  0  0  0
    4.7330    0.6570   -0.0460 C   0  0  0  0  0  0  0  0  0  0  0  0
    5.9280    0.8730    0.6340 C   0  0  0  0  0  0  0  0  0  0  0  0
    6.1330   -0.2670    1.3770 C   0  0  0  0  0  0  0  0  0  0  0  0
    5.1430   -1.0970    1.1610 O   0  0  0  0  0  0  0  0  0  0  0  0
  1  2  2  0
  2  3  2  0
  2  4  1  6
  2 15  1  0
  4  5  2  0
  5  6  1  0
  5 13  1  0
  6  7  1  0
  7  8  2  0
  7 12  1  0
  8  9  1  0
  9 10  2  0
 10 11  1  0
 11 12  2  0
 13 14  2  0
 14 15  1  0
 15 16  2  3
 16 17  1  0
 17 18  2  0
 17 21  1  0
 18 19  1  0
 19 20  2  0
 20 21  1  0
M  CHG  1  10   1
M  END
