
     RDKit          3D

 21 23  0  0  0  0  0  0  0  0999 V2000
   -4.2330    1.5530   -0.4300 O   0  0  0  0  0  0  0  0  0  0  0  0
   -3.3240    1.9480    0.2600 C   0  0  0  0  0  0  0  0  0  0  0  0
   -3.4750    3.6410    0.8180 S   0  0  0  0  0  0  0  0  0  0  0  0
   -2.1490    1.2120    0.6750 C   0  0  0  0  0  0  0  0  0  0  0  0
   -2.0060   -0.1100    0.3090 N   0  0  0  0  0  0  0  0  0  0  0  0
   -2.8230   -1.1190    0.8270 C   0  0  0  0  0  0  0  0  0  0  0  0
   -3.2250   -2.0770   -0.2710 C   0  0  0  0  0  0  0  0  0  0  0  0
   -2.1000   -2.6510   -0.9800 N   0  0  0  0  0  0  0  0  0  0  0  0
   -0.8910   -2.0110   -0.5200 C   0  0  0  0  0  0  0  0  0  0  0  0
   -1.0220   -0.4900   -0.5850 C   0  0  2  0  0  0  0  0  0  0  0  0
    0.3240    0.0950   -0.4520 C   0  0  0  0  0  0  0  0  0  0  0  0
    0.6270    1.2990   -1.0350 C   0  0  0  0  0  0  0  0  0  0  0  0
    1.9050    1.8500   -0.8990 C   0  0  0  0  0  0  0  0  0  0  0  0
    2.8680    1.1910   -0.1810 C   0  0  0  0  0  0  0  0  0  0  0  0
    2.5900   -0.0080    0.4080 C   0  0  0  0  0  0  0  0  0  0  0  0
    1.3140   -0.5400    0.2620 C   0  0  0  0  0  0  0  0  0  0  0  0
    3.5750   -0.6670    1.1340 O   0  0  0  0  0  0  0  0  0  0  0  0
    4.9630   -0.5000    0.8040 C   0  0  0  0  0  0  0  0  0  0  0  0
    5.1640    0.9760    0.7550 C   0  0  0  0  0  0  0  0  0  0  0  0
    6.0850    1.5750    1.3190 O   0  0  0  0  0  0  0  0  0  0  0  0
    4.2020    1.7070   -0.0040 N   0  0  0  0  0  0  0  0  0  0  0  0
  1  2  2  0
  2  3  1  0
  2  4  1  0
  4  5  1  0
  5  6  1  0
  5 10  1  0
  6  7  1  0
  7  8  1  0
  8  9  1  0
  9 10  1  0
 10 11  1  1
 11 12  2  0
 11 16  1  0
 12 13  1  0
 13 14  2  0
 14 15  1  0
 14 21  1  0
 15 16  2  0
 15 17  1  0
 17 18  1  0
 18 19  1  0
 19 20  2  0
 19 21  1  0
M  CHG  1   8   1
M  END
