
     RDKit          3D

 21 23  0  0  0  0  0  0  0  0999 V2000
    5.7670    1.4860   -0.7860 C   0  0  0  0  0  0  0  0  0  0  0  0
    5.4030    0.8280    0.4360 O   0  0  0  0  0  0  0  0  0  0  0  0
    4.5980   -0.3090    0.4190 C   0  0  0  0  0  0  0  0  0  0  0  0
    4.2110   -0.7270   -0.6790 O   0  0  0  0  0  0  0  0  0  0  0  0
    4.2140   -0.9890    1.6000 N   0  0  0  0  0  0  0  0  0  0  0  0
    3.3920   -2.1460    1.6560 C   0  0  0  0  0  0  0  0  0  0  0  0
    2.0250   -1.9980    1.1550 C   0  0  0  0  0  0  0  0  0  0  0  0
    1.3010   -3.0530    1.1800 O   0  0  0  0  0  0  0  0  0  0  0  0
    1.4540   -0.8060    0.6590 N   0  0  0  0  0  0  0  0  0  0  0  0
    0.1580   -0.7570    0.2030 C   0  0  0  0  0  0  0  0  0  0  0  0
   -1.0010   -2.2580    0.1840 S   0  0  0  0  0  0  0  0  0  0  0  0
   -2.3290   -1.4070   -0.4810 C   0  0  0  0  0  0  0  0  0  0  0  0
   -1.8570   -0.1720   -0.6460 C   0  0  0  0  0  0  0  0  0  0  0  0
   -0.6120    0.1580   -0.2890 C   0  0  0  0  0  0  0  0  0  0  0  0
   -0.5380    1.7150   -0.2290 C   0  0  0  0  0  0  0  0  0  0  0  0
   -1.7790    2.0820    0.5210 N   0  0  0  0  0  0  0  0  0  0  0  0
   -3.0250    1.6160    0.0190 C   0  0  2  0  0  0  0  0  0  0  0  0
   -3.6290    0.4060    0.7690 C   0  0  0  0  0  0  0  0  0  0  0  0
   -4.5110   -0.4890   -0.0540 C   0  0  0  0  0  0  0  0  0  0  0  0
   -3.8190   -1.7830   -0.6030 C   0  0  0  0  0  0  0  0  0  0  0  0
   -2.6300    0.9520   -1.3570 C   0  0  0  0  0  0  0  0  0  0  0  0
  1  2  1  0
  2  3  1  0
  3  4  2  0
  3  5  1  0
  5  6  1  0
  6  7  1  0
  7  8  2  0
  7  9  1  0
  9 10  1  0
 10 11  1  0
 10 14  2  0
 11 12  1  0
 12 13  2  0
 12 20  1  0
 13 14  1  0
 13 21  1  0
 14 15  1  0
 15 16  1  0
 16 17  1  0
 17 18  1  1
 17 21  1  0
 18 19  1  0
 19 20  1  0
M  CHG  1  16   1
M  END
