
     RDKit          3D

 25 27  0  0  0  0  0  0  0  0999 V2000
   -3.6740    4.3430    0.5690 C   0  0  0  0  0  0  0  0  0  0  0  0
   -2.8770    3.6720   -0.4600 C   0  0  0  0  0  0  0  0  0  0  0  0
   -2.1300    2.6210   -0.3130 C   0  0  0  0  0  0  0  0  0  0  0  0
   -1.8600    1.8180    0.8560 C   0  0  0  0  0  0  0  0  0  0  0  0
   -2.3350    1.9960    2.0830 N   0  0  0  0  0  0  0  0  0  0  0  0
   -1.8670    1.0450    2.9410 C   0  0  0  0  0  0  0  0  0  0  0  0
   -1.0530    0.2350    2.1860 C   0  0  0  0  0  0  0  0  0  0  0  0
   -1.0300    0.6860    0.8990 C   0  0  0  0  0  0  0  0  0  0  0  0
   -0.3010    0.1270   -0.2420 C   0  0  1  0  0  0  0  0  0  0  0  0
    1.1030    0.2900   -0.1760 O   0  0  0  0  0  0  0  0  0  0  0  0
    1.8510    0.8550   -1.1830 C   0  0  0  0  0  0  0  0  0  0  0  0
    1.2050    1.2370   -2.2100 O   0  0  0  0  0  0  0  0  0  0  0  0
    3.2930    1.0220   -1.1110 C   0  0  0  0  0  0  0  0  0  0  0  0
    4.0730    1.5830   -2.0970 C   0  0  0  0  0  0  0  0  0  0  0  0
    5.3710    1.5680   -1.6690 N   0  0  0  0  0  0  0  0  0  0  0  0
    5.4300    1.0250   -0.4670 N   0  0  0  0  0  0  0  0  0  0  0  0
    4.1720    0.6850   -0.1090 C   0  0  0  0  0  0  0  0  0  0  0  0
    3.7660    0.0450    1.1640 C   0  0  0  0  0  0  0  0  0  0  0  0
   -0.5360   -1.3590   -0.3690 C   0  0  0  0  0  0  0  0  0  0  0  0
    0.1770   -2.2510    0.4030 C   0  0  0  0  0  0  0  0  0  0  0  0
    0.0130   -3.6090    0.3430 C   0  0  0  0  0  0  0  0  0  0  0  0
   -0.9120   -4.1290   -0.5310 C   0  0  0  0  0  0  0  0  0  0  0  0
   -1.1050   -5.5990   -0.6110 C   0  0  0  0  0  0  0  0  0  0  0  0
   -1.6390   -3.2410   -1.3160 C   0  0  0  0  0  0  0  0  0  0  0  0
   -1.4600   -1.8800   -1.2420 C   0  0  0  0  0  0  0  0  0  0  0  0
  1  2  1  0
  2  3  2  3
  3  4  1  0
  4  5  1  0
  4  8  2  0
  5  6  1  0
  6  7  2  0
  7  8  1  0
  8  9  1  0
  9 10  1  1
  9 19  1  0
 10 11  1  0
 11 12  2  0
 11 13  1  0
 13 14  1  0
 13 17  2  0
 14 15  2  0
 15 16  1  0
 16 17  1  0
 17 18  1  0
 19 20  2  0
 19 25  1  0
 20 21  1  0
 21 22  2  0
 22 23  1  0
 22 24  1  0
 24 25  2  0
M  END
