
     RDKit          3D

 25 27  0  0  0  0  0  0  0  0999 V2000
   -6.4570    1.1000   -0.7770 C   0  0  0  0  0  0  0  0  0  0  0  0
   -5.4380    0.5810    0.3100 C   0  0  0  0  0  0  0  0  0  0  0  0
   -5.0480   -0.7620   -0.0160 C   0  0  0  0  0  0  0  0  0  0  0  0
   -3.9170   -1.3260   -0.2290 C   0  0  0  0  0  0  0  0  0  0  0  0
   -2.5590   -0.8510   -0.2190 C   0  0  0  0  0  0  0  0  0  0  0  0
   -2.2970    0.4810    0.4400 C   0  0  0  0  0  0  0  0  0  0  0  0
   -1.5360   -1.6390   -0.5390 C   0  0  0  0  0  0  0  0  0  0  0  0
   -1.6860   -3.0630   -0.9060 C   0  0  0  0  0  0  0  0  0  0  0  0
   -2.6990   -3.8040   -0.9810 O   0  0  0  0  0  0  0  0  0  0  0  0
   -0.3580   -3.5160   -1.1910 N   0  0  0  0  0  0  0  0  0  0  0  0
    0.5000   -2.4390   -1.0090 C   0  0  0  0  0  0  0  0  0  0  0  0
   -0.1280   -1.3110   -0.6330 C   0  0  0  0  0  0  0  0  0  0  0  0
    0.5790   -0.0540   -0.4130 C   0  0  0  0  0  0  0  0  0  0  0  0
    1.9510   -0.1600   -0.0850 C   0  0  0  0  0  0  0  0  0  0  0  0
    2.7720    0.9330    0.0220 C   0  0  0  0  0  0  0  0  0  0  0  0
    4.1830    0.8200    0.3630 C   0  0  0  0  0  0  0  0  0  0  0  0
    4.9880   -0.1350   -0.2370 C   0  0  0  0  0  0  0  0  0  0  0  0
    6.3150   -0.1900    0.1290 C   0  0  0  0  0  0  0  0  0  0  0  0
    6.8670    0.6630    1.0630 C   0  0  0  0  0  0  0  0  0  0  0  0
    6.0780    1.5750    1.6300 N   0  0  0  0  0  0  0  0  0  0  0  0
    4.7840    1.6450    1.2870 C   0  0  0  0  0  0  0  0  0  0  0  0
    4.0770    2.5180    1.8450 O   0  0  0  0  0  0  0  0  0  0  0  0
    2.2250    2.1810   -0.2030 C   0  0  0  0  0  0  0  0  0  0  0  0
    0.8650    2.2920   -0.5290 C   0  0  0  0  0  0  0  0  0  0  0  0
    0.1380    1.1810   -0.6120 N   0  0  0  0  0  0  0  0  0  0  0  0
  1  2  1  0
  2  3  1  0
  3  4  2  3
  4  5  1  0
  5  6  1  0
  5  7  2  3
  7  8  1  0
  7 12  1  0
  8  9  2  0
  8 10  1  0
 10 11  1  0
 11 12  2  0
 12 13  1  0
 13 14  2  0
 13 25  1  0
 14 15  1  0
 15 16  1  0
 15 23  2  0
 16 17  2  0
 16 21  1  0
 17 18  1  0
 18 19  2  0
 19 20  1  0
 20 21  1  0
 21 22  2  0
 23 24  1  0
 24 25  2  0
M  END
