
     RDKit          3D

 25 28  0  0  0  0  0  0  0  0999 V2000
   -3.0120   -0.3950    1.7620 O   0  0  0  0  0  0  0  0  0  0  0  0
   -2.6360    0.3240    0.7890 C   0  0  0  0  0  0  0  0  0  0  0  0
   -3.5870    1.0610    0.0560 N   0  0  0  0  0  0  0  0  0  0  0  0
   -5.0190    1.0190    0.3940 C   0  0  0  0  0  0  0  0  0  0  0  0
   -5.5430   -0.3920    0.2870 C   0  0  2  0  0  0  0  0  0  0  0  0
   -5.3980   -0.9840   -1.1050 C   0  0  0  0  0  0  0  0  0  0  0  0
   -6.7640   -0.3820   -1.4240 C   0  0  0  0  0  0  0  0  0  0  0  0
   -7.0420   -0.3990    0.0660 C   0  0  0  0  0  0  0  0  0  0  0  0
   -1.2190    0.3600    0.4610 C   0  0  0  0  0  0  0  0  0  0  0  0
   -0.6650    1.1740   -0.5020 C   0  0  0  0  0  0  0  0  0  0  0  0
    0.6840    1.1570   -0.7640 C   0  0  0  0  0  0  0  0  0  0  0  0
    1.5010    0.3020   -0.0410 C   0  0  0  0  0  0  0  0  0  0  0  0
    1.0180   -0.5320    0.9290 C   0  0  0  0  0  0  0  0  0  0  0  0
    1.8370   -1.4380    1.7050 C   0  0  0  0  0  0  0  0  0  0  0  0
    3.0620   -1.6250    1.6470 N   0  0  0  0  0  0  0  0  0  0  0  0
    4.1060   -1.1240    0.9080 C   0  0  0  0  0  0  0  0  0  0  0  0
    4.8130   -0.0850    1.3480 C   0  0  0  0  0  0  0  0  0  0  0  0
    5.9290    0.4920    0.6140 C   0  0  0  0  0  0  0  0  0  0  0  0
    6.7820    1.5070    0.8250 N   0  0  0  0  0  0  0  0  0  0  0  0
    7.6430    1.6120   -0.2000 C   0  0  0  0  0  0  0  0  0  0  0  0
    7.3490    0.6350   -1.1180 C   0  0  0  0  0  0  0  0  0  0  0  0
    6.2650   -0.0750   -0.6050 C   0  0  0  0  0  0  0  0  0  0  0  0
    5.5280   -1.1500   -1.0550 O   0  0  0  0  0  0  0  0  0  0  0  0
    4.4640   -1.7530   -0.3820 C   0  0  0  0  0  0  0  0  0  0  0  0
   -0.3480   -0.4760    1.1540 C   0  0  0  0  0  0  0  0  0  0  0  0
  1  2  2  0
  2  3  1  0
  2  9  1  0
  3  4  1  0
  5  4  1  6
  5  6  1  0
  5  8  1  0
  6  7  1  0
  7  8  1  0
  9 10  2  0
  9 25  1  0
 10 11  1  0
 11 12  2  0
 12 13  1  0
 13 14  1  0
 13 25  2  0
 14 15  2  3
 15 16  1  0
 16 17  2  0
 16 24  1  0
 17 18  1  0
 18 19  1  0
 18 22  2  0
 19 20  1  0
 20 21  2  0
 21 22  1  0
 22 23  1  0
 23 24  1  0
M  END
