
     RDKit          3D

 25 27  0  0  0  0  0  0  0  0999 V2000
   -3.1720   -0.0190   -3.0910 C   0  0  0  0  0  0  0  0  0  0  0  0
   -2.6010   -0.2890   -1.7230 C   0  0  0  0  0  0  0  0  0  0  0  0
   -2.1500    0.7340   -0.9230 C   0  0  0  0  0  0  0  0  0  0  0  0
   -1.6110    0.5300    0.3560 C   0  0  0  0  0  0  0  0  0  0  0  0
   -1.2710    1.6980    1.0860 C   0  0  0  0  0  0  0  0  0  0  0  0
   -0.2000    2.1940    1.6190 C   0  0  0  0  0  0  0  0  0  0  0  0
   -0.3610    3.4740    2.3090 C   0  0  0  0  0  0  0  0  0  0  0  0
    0.5340    4.1720    2.9170 C   0  0  0  0  0  0  0  0  0  0  0  0
    0.1220    5.4600    3.5520 C   0  0  0  0  0  0  0  0  0  0  0  0
    0.9580    6.1650    4.1500 O   0  0  0  0  0  0  0  0  0  0  0  0
    1.1040    1.6340    1.4660 C   0  0  0  0  0  0  0  0  0  0  0  0
    2.1120    2.1850    2.0710 O   0  0  0  0  0  0  0  0  0  0  0  0
    1.4100    0.4990    0.6860 N   0  0  0  0  0  0  0  0  0  0  0  0
    2.7920    0.0290    0.6320 C   0  0  0  0  0  0  0  0  0  0  0  0
    2.9220   -1.1770   -0.2390 C   0  0  0  0  0  0  0  0  0  0  0  0
    3.3580   -2.3590    0.1510 C   0  0  0  0  0  0  0  0  0  0  0  0
    3.3500   -3.3070   -0.9810 C   0  0  0  0  0  0  0  0  0  0  0  0
    2.8400   -2.5040   -2.1110 C   0  0  0  0  0  0  0  0  0  0  0  0
    2.6050   -1.2900   -1.6520 C   0  0  0  0  0  0  0  0  0  0  0  0
   -1.5330   -0.7510    0.8300 N   0  0  0  0  0  0  0  0  0  0  0  0
   -1.9560   -1.7890    0.0990 C   0  0  0  0  0  0  0  0  0  0  0  0
   -2.0080   -3.1250    0.2880 N   0  0  0  0  0  0  0  0  0  0  0  0
   -2.5420   -3.7300   -0.7980 C   0  0  0  0  0  0  0  0  0  0  0  0
   -2.8680   -2.7900   -1.7580 C   0  0  0  0  0  0  0  0  0  0  0  0
   -2.5150   -1.5750   -1.2310 C   0  0  0  0  0  0  0  0  0  0  0  0
  1  2  1  0
  2  3  1  0
  2 25  2  0
  3  4  2  0
  4  5  1  0
  4 20  1  0
  5  6  2  3
  6  7  1  0
  6 11  1  0
  7  8  2  3
  8  9  1  0
  9 10  2  0
 11 12  2  0
 11 13  1  0
 13 14  1  0
 14 15  1  0
 15 16  2  0
 15 19  1  0
 16 17  1  0
 17 18  1  0
 18 19  2  0
 20 21  1  0
 21 22  2  0
 21 25  1  0
 22 23  1  0
 23 24  2  0
 24 25  1  0
M  END
