
     RDKit          3D

 12 12  0  0  0  0  0  0  0  0999 V2000
   -1.8680    1.0540    1.1460 C   0  0  0  0  0  0  0  0  0  0  0  0
   -1.0030    0.2630    0.1720 C   0  0  1  0  0  0  0  0  0  0  0  0
   -1.9810   -0.4580   -0.7480 C   0  0  0  0  0  0  0  0  0  0  0  0
   -2.8010   -1.2120    0.0750 O   0  0  0  0  0  0  0  0  0  0  0  0
   -0.1750    1.2670   -0.5890 C   0  0  0  0  0  0  0  0  0  0  0  0
    1.0080    0.7310   -1.0800 O   0  0  0  0  0  0  0  0  0  0  0  0
    1.9270    0.6640   -0.0450 C   0  0  2  0  0  0  0  0  0  0  0  0
    3.1690    1.1080   -0.4670 O   0  0  0  0  0  0  0  0  0  0  0  0
    2.0350   -0.8040    0.3580 C   0  0  2  0  0  0  0  0  0  0  0  0
    2.8720   -1.4830   -0.5070 O   0  0  0  0  0  0  0  0  0  0  0  0
    0.6290   -1.3800    0.1860 C   0  0  0  0  0  0  0  0  0  0  0  0
   -0.2560   -0.6280    0.8990 O   0  0  0  0  0  0  0  0  0  0  0  0
  2  1  1  1
  2  3  1  0
  2  5  1  0
  2 12  1  0
  3  4  1  0
  5  6  1  0
  6  7  1  0
  7  8  1  6
  7  9  1  0
  9 10  1  6
  9 11  1  0
 11 12  1  0
M  END
