
     RDKit          3D

 25 28  0  0  0  0  0  0  0  0999 V2000
   -5.9460    0.6890   -1.1150 C   0  0  0  0  0  0  0  0  0  0  0  0
   -6.3350   -0.4640   -0.6310 C   0  0  0  0  0  0  0  0  0  0  0  0
   -5.8530   -1.0510    0.6060 C   0  0  0  0  0  0  0  0  0  0  0  0
   -6.6450   -1.6810    1.5820 C   0  0  0  0  0  0  0  0  0  0  0  0
   -5.8500   -2.0930    2.5270 O   0  0  0  0  0  0  0  0  0  0  0  0
   -4.6180   -1.7970    2.2700 C   0  0  0  0  0  0  0  0  0  0  0  0
   -4.5550   -1.1250    1.0430 C   0  0  0  0  0  0  0  0  0  0  0  0
   -3.3230   -0.6780    0.3960 C   0  0  0  0  0  0  0  0  0  0  0  0
   -2.0640   -0.7600    1.0030 C   0  0  0  0  0  0  0  0  0  0  0  0
   -1.1390   -0.2530    0.1160 C   0  0  0  0  0  0  0  0  0  0  0  0
    0.2550   -0.0820    0.1720 C   0  0  0  0  0  0  0  0  0  0  0  0
    0.9330    0.4600   -0.8800 C   0  0  0  0  0  0  0  0  0  0  0  0
    2.3170    0.6440   -0.8570 N   0  0  0  0  0  0  0  0  0  0  0  0
    3.2360    0.3410    0.1610 C   0  0  0  0  0  0  0  0  0  0  0  0
    2.9070   -0.2000    1.3310 N   0  0  0  0  0  0  0  0  0  0  0  0
    3.7870   -0.4890    2.3030 C   0  0  0  0  0  0  0  0  0  0  0  0
    5.1110   -0.2230    2.1140 N   0  0  0  0  0  0  0  0  0  0  0  0
    5.5260    0.3240    0.9580 C   0  0  0  0  0  0  0  0  0  0  0  0
    6.9900    0.6180    0.7480 C   0  0  0  0  0  0  0  0  0  0  0  0
    4.5980    0.6040   -0.0100 C   0  0  0  0  0  0  0  0  0  0  0  0
    5.0640    1.2040   -1.2750 C   0  0  0  0  0  0  0  0  0  0  0  0
    0.2110    0.8340   -1.9960 C   0  0  0  0  0  0  0  0  0  0  0  0
   -1.1560    0.6620   -2.0430 C   0  0  0  0  0  0  0  0  0  0  0  0
   -1.8630    0.1170   -0.9940 C   0  0  0  0  0  0  0  0  0  0  0  0
   -3.1210   -0.1530   -0.7730 O   0  0  0  0  0  0  0  0  0  0  0  0
  1  2  2  0
  2  3  1  0
  3  4  2  0
  3  7  1  0
  4  5  1  0
  5  6  1  0
  6  7  2  0
  7  8  1  0
  8  9  2  0
  8 25  1  0
  9 10  1  0
 10 11  2  0
 10 24  1  0
 11 12  1  0
 12 13  1  0
 12 22  2  0
 13 14  1  0
 14 15  2  0
 14 20  1  0
 15 16  1  0
 16 17  2  0
 17 18  1  0
 18 19  1  0
 18 20  2  0
 20 21  1  0
 22 23  1  0
 23 24  2  0
 24 25  1  0
M  END
