
     RDKit          3D

 25 28  0  0  0  0  0  0  0  0999 V2000
   -3.7910   -3.0750    0.0060 C   0  0  0  0  0  0  0  0  0  0  0  0
   -2.4560   -2.4440   -0.0500 C   0  0  0  0  0  0  0  0  0  0  0  0
   -1.3520   -3.1950   -0.2880 C   0  0  0  0  0  0  0  0  0  0  0  0
   -0.0830   -2.6340   -0.3420 C   0  0  0  0  0  0  0  0  0  0  0  0
    0.0520   -1.2800   -0.1500 C   0  0  0  0  0  0  0  0  0  0  0  0
    1.2920   -0.5900   -0.2000 N   0  0  0  0  0  0  0  0  0  0  0  0
    2.4280   -1.0040   -0.9090 C   0  0  0  0  0  0  0  0  0  0  0  0
    2.3260   -2.0930   -1.5850 O   0  0  0  0  0  0  0  0  0  0  0  0
    3.7090   -0.2880   -0.9320 C   0  0  0  0  0  0  0  0  0  0  0  0
    4.6940   -0.5270   -1.8830 C   0  0  0  0  0  0  0  0  0  0  0  0
    5.7380    0.2820   -1.6730 N   0  0  0  0  0  0  0  0  0  0  0  0
    5.4690    1.0550   -0.6010 C   0  0  0  0  0  0  0  0  0  0  0  0
    4.2060    0.7070   -0.1300 C   0  0  0  0  0  0  0  0  0  0  0  0
    3.8990    1.4290    0.9320 C   0  0  0  0  0  0  0  0  0  0  0  0
    5.0280    2.3460    1.1880 C   0  0  0  0  0  0  0  0  0  0  0  0
    5.9950    2.0120    0.1270 C   0  0  0  0  0  0  0  0  0  0  0  0
   -1.0950   -0.5070    0.0950 C   0  0  0  0  0  0  0  0  0  0  0  0
   -2.3600   -1.0460    0.1530 C   0  0  0  0  0  0  0  0  0  0  0  0
   -3.4850   -0.4030    0.3750 O   0  0  0  0  0  0  0  0  0  0  0  0
   -4.0840    0.7390    0.6130 C   0  0  0  0  0  0  0  0  0  0  0  0
   -5.4950    0.6900    0.7540 C   0  0  0  0  0  0  0  0  0  0  0  0
   -6.2060    1.8160    1.0010 C   0  0  0  0  0  0  0  0  0  0  0  0
   -5.6390    3.0220    1.1260 N   0  0  0  0  0  0  0  0  0  0  0  0
   -4.3110    3.1400    1.0050 C   0  0  0  0  0  0  0  0  0  0  0  0
   -3.5580    1.9980    0.7500 C   0  0  0  0  0  0  0  0  0  0  0  0
  1  2  1  0
  2  3  2  0
  2 18  1  0
  3  4  1  0
  4  5  2  0
  5  6  1  0
  5 17  1  0
  6  7  1  0
  7  8  2  0
  7  9  1  0
  9 10  2  0
  9 13  1  0
 10 11  1  0
 11 12  1  0
 12 13  1  0
 12 16  2  0
 13 14  2  0
 14 15  1  0
 15 16  1  0
 17 18  2  0
 18 19  1  0
 19 20  1  0
 20 21  2  0
 20 25  1  0
 21 22  1  0
 22 23  2  0
 23 24  1  0
 24 25  2  0
M  END
