
     RDKit          3D

 25 28  0  0  0  0  0  0  0  0999 V2000
   -5.9280    1.5690    1.7410 C   0  0  0  0  0  0  0  0  0  0  0  0
   -4.8800    1.0290    0.8350 C   0  0  0  0  0  0  0  0  0  0  0  0
   -5.2280    0.7630   -0.4680 C   0  0  0  0  0  0  0  0  0  0  0  0
   -4.2760    0.2650   -1.3270 C   0  0  0  0  0  0  0  0  0  0  0  0
   -2.9740    0.0350   -0.8730 C   0  0  0  0  0  0  0  0  0  0  0  0
   -2.0350   -0.4540   -1.7300 C   0  0  0  0  0  0  0  0  0  0  0  0
   -0.7430   -0.6740   -1.2690 C   0  0  0  0  0  0  0  0  0  0  0  0
   -0.3470   -0.4230    0.0260 C   0  0  0  0  0  0  0  0  0  0  0  0
    1.0330   -0.6090    0.5360 C   0  0  0  0  0  0  0  0  0  0  0  0
    1.8180   -1.1780   -0.5320 N   0  0  0  0  0  0  0  0  0  0  0  0
    3.2540   -1.1160   -0.2000 C   0  0  0  0  0  0  0  0  0  0  0  0
    3.6060    0.2970    0.0010 C   0  0  0  0  0  0  0  0  0  0  0  0
    3.7220    1.2200   -1.0130 C   0  0  0  0  0  0  0  0  0  0  0  0
    4.0470    2.5150   -0.7530 N   0  0  0  0  0  0  0  0  0  0  0  0
    4.2690    2.9490    0.4970 C   0  0  0  0  0  0  0  0  0  0  0  0
    4.6100    4.3240    0.7520 N   0  0  0  0  0  0  0  0  0  0  0  0
    4.1610    2.0640    1.5020 N   0  0  0  0  0  0  0  0  0  0  0  0
    3.8400    0.7710    1.2770 C   0  0  0  0  0  0  0  0  0  0  0  0
    1.4820   -2.5730   -0.7740 C   0  0  1  0  0  0  0  0  0  0  0  0
    1.7590   -3.6060    0.2610 C   0  0  0  0  0  0  0  0  0  0  0  0
    0.3470   -3.2300   -0.1090 C   0  0  0  0  0  0  0  0  0  0  0  0
   -1.3410    0.0800    0.8810 C   0  0  0  0  0  0  0  0  0  0  0  0
   -1.0050    0.3540    2.2120 O   0  0  0  0  0  0  0  0  0  0  0  0
   -2.6230    0.2990    0.4260 C   0  0  0  0  0  0  0  0  0  0  0  0
   -3.5900    0.7970    1.2710 C   0  0  0  0  0  0  0  0  0  0  0  0
  1  2  1  0
  2  3  2  0
  2 25  1  0
  3  4  1  0
  4  5  2  0
  5  6  1  0
  5 24  1  0
  6  7  2  0
  7  8  1  0
  8  9  1  0
  8 22  2  0
  9 10  1  0
 10 11  1  0
 19 10  1  1
 11 12  1  0
 12 13  2  0
 12 18  1  0
 13 14  1  0
 14 15  2  0
 15 16  1  0
 15 17  1  0
 17 18  2  0
 19 20  1  0
 19 21  1  0
 20 21  1  0
 22 23  1  0
 22 24  1  0
 24 25  2  0
M  END
