
     RDKit          3D

 25 27  0  0  0  0  0  0  0  0999 V2000
   -2.7540    3.1150   -0.8230 C   0  0  0  0  0  0  0  0  0  0  0  0
   -2.7980    1.6420   -0.9050 C   0  0  0  0  0  0  0  0  0  0  0  0
   -1.6300    1.0350   -0.7700 C   0  0  0  0  0  0  0  0  0  0  0  0
   -0.4810    1.9580   -0.5590 C   0  0  0  0  0  0  0  0  0  0  0  0
   -1.2030   -0.3970   -0.7860 C   0  0  0  0  0  0  0  0  0  0  0  0
   -0.0150   -0.5860    0.0460 C   0  0  0  0  0  0  0  0  0  0  0  0
    0.5290   -1.8600    0.2430 N   0  0  0  0  0  0  0  0  0  0  0  0
    1.8450   -2.2200    0.6660 C   0  0  0  0  0  0  0  0  0  0  0  0
    2.8170   -1.3240    0.9690 C   0  0  0  0  0  0  0  0  0  0  0  0
    2.9030    0.1210    1.0710 C   0  0  0  0  0  0  0  0  0  0  0  0
    3.7910    0.8350    0.2400 C   0  0  0  0  0  0  0  0  0  0  0  0
    3.9070    2.1970    0.3740 C   0  0  0  0  0  0  0  0  0  0  0  0
    3.1660    2.9030    1.3150 C   0  0  0  0  0  0  0  0  0  0  0  0
    2.3070    2.1800    2.1120 C   0  0  0  0  0  0  0  0  0  0  0  0
    1.5390    2.8290    3.0720 O   0  0  0  0  0  0  0  0  0  0  0  0
    2.1730    0.8220    1.9990 C   0  0  0  0  0  0  0  0  0  0  0  0
    3.9390   -2.1200    1.2780 C   0  0  0  0  0  0  0  0  0  0  0  0
    3.5690   -3.3970    1.1430 N   0  0  0  0  0  0  0  0  0  0  0  0
    2.3190   -3.5020    0.7770 N   0  0  0  0  0  0  0  0  0  0  0  0
    1.5670   -4.7100    0.5340 C   0  0  0  0  0  0  0  0  0  0  0  0
   -1.7410   -1.4210   -1.3890 C   0  0  0  0  0  0  0  0  0  0  0  0
   -2.9280   -1.5910   -2.2570 C   0  0  0  0  0  0  0  0  0  0  0  0
   -4.1160   -1.0320   -2.2940 C   0  0  0  0  0  0  0  0  0  0  0  0
   -4.8370   -0.0200   -1.5490 C   0  0  0  0  0  0  0  0  0  0  0  0
   -4.1150    1.1340   -1.1230 N   0  0  0  0  0  0  0  0  0  0  0  0
  1  2  1  0
  2  3  2  0
  2 25  1  0
  3  4  1  0
  3  5  1  0
  5  6  1  0
  5 21  2  0
  6  7  1  0
  7  8  1  0
  8  9  2  0
  8 19  1  0
  9 10  1  0
  9 17  1  0
 10 11  2  0
 10 16  1  0
 11 12  1  0
 12 13  2  0
 13 14  1  0
 14 15  1  0
 14 16  2  0
 17 18  2  0
 18 19  1  0
 19 20  1  0
 21 22  1  0
 22 23  2  0
 23 24  1  0
 24 25  1  0
M  END
