
     RDKit          3D

 25 28  0  0  0  0  0  0  0  0999 V2000
    8.4040    0.3300   -0.7910 C   0  0  0  0  0  0  0  0  0  0  0  0
    6.9980   -0.0420   -0.4980 C   0  0  0  0  0  0  0  0  0  0  0  0
    6.7230   -1.0210    0.4470 C   0  0  0  0  0  0  0  0  0  0  0  0
    5.4100   -1.3520    0.7050 C   0  0  0  0  0  0  0  0  0  0  0  0
    4.3530   -0.7480    0.0610 C   0  0  0  0  0  0  0  0  0  0  0  0
    2.9810   -1.1390    0.3740 C   0  0  0  0  0  0  0  0  0  0  0  0
    1.8560   -0.6390   -0.1720 N   0  0  0  0  0  0  0  0  0  0  0  0
    0.7800   -1.2470    0.3690 C   0  0  0  0  0  0  0  0  0  0  0  0
   -0.6540   -1.0480    0.1010 C   0  0  0  0  0  0  0  0  0  0  0  0
   -1.2330   -0.0360    0.9590 N   0  0  0  0  0  0  0  0  0  0  0  0
   -2.6130    0.3250    0.8760 C   0  0  0  0  0  0  0  0  0  0  0  0
   -3.1660    1.2880    1.6920 C   0  0  0  0  0  0  0  0  0  0  0  0
   -4.4970    1.6430    1.6210 C   0  0  0  0  0  0  0  0  0  0  0  0
   -5.0190    2.6920    2.5360 C   0  0  0  0  0  0  0  0  0  0  0  0
   -5.2540    1.0120    0.7160 N   0  0  0  0  0  0  0  0  0  0  0  0
   -4.7900    0.0650   -0.1130 C   0  0  0  0  0  0  0  0  0  0  0  0
   -5.6670   -0.6040   -1.0980 C   0  0  1  0  0  0  0  0  0  0  0  0
   -7.1170   -0.6820   -0.6600 C   0  0  0  0  0  0  0  0  0  0  0  0
   -6.7880    0.2700   -1.7230 C   0  0  0  0  0  0  0  0  0  0  0  0
   -3.4610   -0.2810   -0.0330 C   0  0  0  0  0  0  0  0  0  0  0  0
    1.2960   -2.1470    1.2770 C   0  0  0  0  0  0  0  0  0  0  0  0
    2.6220   -2.0380    1.2380 O   0  0  0  0  0  0  0  0  0  0  0  0
    4.6340    0.2230   -0.8770 C   0  0  0  0  0  0  0  0  0  0  0  0
    3.5580    0.8580   -1.5530 N   0  0  0  0  0  0  0  0  0  0  0  0
    5.9520    0.5680   -1.1480 C   0  0  0  0  0  0  0  0  0  0  0  0
  1  2  1  0
  2  3  2  0
  2 25  1  0
  3  4  1  0
  4  5  2  0
  5  6  1  0
  5 23  1  0
  6  7  2  0
  6 22  1  0
  7  8  1  0
  8  9  1  0
  8 21  2  0
  9 10  1  0
 10 11  1  0
 11 12  2  0
 11 20  1  0
 12 13  1  0
 13 14  1  0
 13 15  2  0
 15 16  1  0
 17 16  1  1
 16 20  2  0
 17 18  1  0
 17 19  1  0
 18 19  1  0
 21 22  1  0
 23 24  1  0
 23 25  2  0
M  END
