
     RDKit          3D

 25 28  0  0  0  0  0  0  0  0999 V2000
    6.3720   -1.5580   -0.5730 C   0  0  0  0  0  0  0  0  0  0  0  0
    4.9380   -1.4080   -1.0670 C   0  0  0  0  0  0  0  0  0  0  0  0
    4.0610   -0.9000    0.0600 C   0  0  0  0  0  0  0  0  0  0  0  0
    2.7220   -0.7650   -0.4120 N   0  0  0  0  0  0  0  0  0  0  0  0
    1.8250   -0.2850    0.5990 C   0  0  1  0  0  0  0  0  0  0  0  0
    2.2740    1.1010    1.0060 C   0  0  0  0  0  0  0  0  0  0  0  0
    1.0750    1.9110    0.9150 N   0  0  0  0  0  0  0  0  0  0  0  0
    0.0530    1.1540    0.2660 C   0  0  0  0  0  0  0  0  0  0  0  0
   -1.1920    1.5960   -0.1330 C   0  0  0  0  0  0  0  0  0  0  0  0
   -1.6400    2.9730    0.0740 C   0  0  0  0  0  0  0  0  0  0  0  0
   -0.9460    4.1410   -0.1510 C   0  0  0  0  0  0  0  0  0  0  0  0
   -1.7920    5.1720    0.1940 C   0  0  0  0  0  0  0  0  0  0  0  0
   -2.9430    4.6450    0.6060 N   0  0  0  0  0  0  0  0  0  0  0  0
   -2.8860    3.3140    0.5470 C   0  0  0  0  0  0  0  0  0  0  0  0
   -2.0220    0.6690   -0.7490 C   0  0  0  0  0  0  0  0  0  0  0  0
   -1.6280   -0.6320   -0.9550 C   0  0  0  0  0  0  0  0  0  0  0  0
   -2.4710   -1.5540   -1.5750 O   0  0  0  0  0  0  0  0  0  0  0  0
   -3.3020   -2.2840   -0.7380 C   0  0  0  0  0  0  0  0  0  0  0  0
   -4.5510   -1.8120   -0.4370 C   0  0  0  0  0  0  0  0  0  0  0  0
   -5.3430   -2.5800    0.4050 C   0  0  0  0  0  0  0  0  0  0  0  0
   -4.8790   -3.7630    0.9070 C   0  0  0  0  0  0  0  0  0  0  0  0
   -3.6340   -4.2060    0.5910 N   0  0  0  0  0  0  0  0  0  0  0  0
   -2.8500   -3.4850   -0.2180 C   0  0  0  0  0  0  0  0  0  0  0  0
   -0.3630   -1.0470   -0.5410 C   0  0  0  0  0  0  0  0  0  0  0  0
    0.4610   -0.1420    0.0660 C   0  0  0  0  0  0  0  0  0  0  0  0
  1  2  1  0
  2  3  1  0
  3  4  1  0
  5  4  1  6
  5  6  1  0
  5 25  1  0
  6  7  1  0
  7  8  1  0
  8  9  2  0
  8 25  1  0
  9 10  1  0
  9 15  1  0
 10 11  1  0
 10 14  2  0
 11 12  2  0
 12 13  1  0
 13 14  1  0
 15 16  2  0
 16 17  1  0
 16 24  1  0
 17 18  1  0
 18 19  2  0
 18 23  1  0
 19 20  1  0
 20 21  2  0
 21 22  1  0
 22 23  2  0
 24 25  2  0
M  END
