
     RDKit          3D

 25 28  0  0  0  0  0  0  0  0999 V2000
   -5.9520    0.1650    1.4610 O   0  0  0  0  0  0  0  0  0  0  0  0
   -4.5670    0.2770    1.4440 C   0  0  0  0  0  0  0  0  0  0  0  0
   -4.1220    0.0410    0.0240 C   0  0  0  0  0  0  0  0  0  0  0  0
   -2.6540    0.1420   -0.0850 N   0  0  0  0  0  0  0  0  0  0  0  0
   -2.0020    1.3660    0.2130 C   0  0  0  0  0  0  0  0  0  0  0  0
   -2.7150    2.4820    0.5010 N   0  0  0  0  0  0  0  0  0  0  0  0
   -2.1290    3.6640    0.7340 C   0  0  0  0  0  0  0  0  0  0  0  0
   -0.7970    3.7840    0.6910 N   0  0  0  0  0  0  0  0  0  0  0  0
   -0.0210    2.7230    0.4140 C   0  0  0  0  0  0  0  0  0  0  0  0
    1.3130    2.5470    0.3100 N   0  0  0  0  0  0  0  0  0  0  0  0
    1.6030    1.2890    0.0200 C   0  0  0  0  0  0  0  0  0  0  0  0
    2.8820    0.6280   -0.1930 C   0  0  0  0  0  0  0  0  0  0  0  0
    3.2840   -0.3930    0.6110 C   0  0  0  0  0  0  0  0  0  0  0  0
    4.5000   -0.9820    0.3530 C   0  0  0  0  0  0  0  0  0  0  0  0
    5.3090   -0.5680   -0.6870 C   0  0  0  0  0  0  0  0  0  0  0  0
    4.8990    0.4640   -1.4980 C   0  0  0  0  0  0  0  0  0  0  0  0
    3.6810    1.0690   -1.2550 C   0  0  0  0  0  0  0  0  0  0  0  0
    0.3880    0.5940   -0.0740 C   0  0  0  0  0  0  0  0  0  0  0  0
    0.2560   -0.8310   -0.3570 C   0  0  0  0  0  0  0  0  0  0  0  0
    0.3350   -1.3770   -1.6210 C   0  0  0  0  0  0  0  0  0  0  0  0
    0.2340   -2.7530   -1.8200 C   0  0  0  0  0  0  0  0  0  0  0  0
    0.0500   -3.6080   -0.7240 C   0  0  0  0  0  0  0  0  0  0  0  0
   -0.0310   -3.0760    0.5510 C   0  0  0  0  0  0  0  0  0  0  0  0
    0.0710   -1.7300    0.7090 C   0  0  0  0  0  0  0  0  0  0  0  0
   -0.6340    1.4740    0.1670 C   0  0  0  0  0  0  0  0  0  0  0  0
  1  2  1  0
  2  3  1  0
  3  4  1  0
  4  5  1  0
  5  6  2  0
  5 25  1  0
  6  7  1  0
  7  8  2  0
  8  9  1  0
  9 10  1  0
  9 25  2  0
 10 11  1  0
 11 12  1  0
 11 18  2  0
 12 13  2  0
 12 17  1  0
 13 14  1  0
 14 15  2  0
 15 16  1  0
 16 17  2  0
 18 19  1  0
 18 25  1  0
 19 20  2  0
 19 24  1  0
 20 21  1  0
 21 22  2  0
 22 23  1  0
 23 24  2  0
M  END
