
     RDKit          3D

 25 28  0  0  0  0  0  0  0  0999 V2000
    5.6920    1.4130   -1.6650 N   0  0  0  0  0  0  0  0  0  0  0  0
    5.6810    1.2050   -0.2140 C   0  0  0  0  0  0  0  0  0  0  0  0
    4.5580    0.3160    0.1790 C   0  0  0  0  0  0  0  0  0  0  0  0
    3.3040    0.7870    0.5000 C   0  0  0  0  0  0  0  0  0  0  0  0
    2.3030   -0.0790    0.8560 C   0  0  0  0  0  0  0  0  0  0  0  0
    0.9540    0.3820    1.2050 C   0  0  0  0  0  0  0  0  0  0  0  0
   -0.0550    0.1490    0.1090 C   0  0  0  0  0  0  0  0  0  0  0  0
   -1.3740    0.6570    0.5870 C   0  0  0  0  0  0  0  0  0  0  0  0
   -1.4580    1.1520    1.7270 O   0  0  0  0  0  0  0  0  0  0  0  0
   -2.5330    0.5840   -0.2400 N   0  0  0  0  0  0  0  0  0  0  0  0
   -2.4900   -0.0620   -1.5540 C   0  0  0  0  0  0  0  0  0  0  0  0
   -3.6900   -0.8670   -1.8810 C   0  0  0  0  0  0  0  0  0  0  0  0
   -4.8550   -0.7660   -0.9700 C   0  0  0  0  0  0  0  0  0  0  0  0
   -4.9430    0.4710   -0.1740 C   0  0  0  0  0  0  0  0  0  0  0  0
   -6.1570    0.9760    0.2210 C   0  0  0  0  0  0  0  0  0  0  0  0
   -6.1610    2.1140    0.9490 N   0  0  0  0  0  0  0  0  0  0  0  0
   -5.0280    2.7660    1.2990 C   0  0  0  0  0  0  0  0  0  0  0  0
   -3.7870    2.2930    0.9220 C   0  0  0  0  0  0  0  0  0  0  0  0
   -3.7790    1.1150    0.1690 C   0  0  0  0  0  0  0  0  0  0  0  0
    2.5670   -1.4310    0.8900 C   0  0  0  0  0  0  0  0  0  0  0  0
    1.7820   -2.5050    1.2010 C   0  0  0  0  0  0  0  0  0  0  0  0
    2.5020   -3.6370    1.0870 N   0  0  0  0  0  0  0  0  0  0  0  0
    3.7540   -3.2920    0.7010 C   0  0  0  0  0  0  0  0  0  0  0  0
    3.8130   -1.9290    0.5740 C   0  0  0  0  0  0  0  0  0  0  0  0
    4.7930   -1.0350    0.2210 C   0  0  0  0  0  0  0  0  0  0  0  0
  1  2  1  0
  2  3  1  0
  3  4  1  0
  3 25  2  0
  4  5  2  0
  5  6  1  0
  5 20  1  0
  6  7  1  0
  7  8  1  0
  8  9  2  0
  8 10  1  0
 10 11  1  0
 10 19  1  0
 11 12  1  0
 12 13  1  0
 13 14  1  0
 14 15  2  0
 14 19  1  0
 15 16  1  0
 16 17  2  0
 17 18  1  0
 18 19  2  0
 20 21  2  0
 20 24  1  0
 21 22  1  0
 22 23  1  0
 23 24  2  0
 24 25  1  0
M  END
