
     RDKit          3D

 25 28  0  0  0  0  0  0  0  0999 V2000
    6.0320   -2.0230    1.9000 C   0  0  0  0  0  0  0  0  0  0  0  0
    6.5610   -2.5560    0.7460 C   0  0  0  0  0  0  0  0  0  0  0  0
    6.4960   -1.6320   -0.1680 O   0  0  0  0  0  0  0  0  0  0  0  0
    5.9620   -0.5210    0.2940 C   0  0  0  0  0  0  0  0  0  0  0  0
    5.7400    0.7230   -0.4730 C   0  0  0  0  0  0  0  0  0  0  0  0
    5.0670    1.7770    0.3320 C   0  0  0  0  0  0  0  0  0  0  0  0
    3.7560    1.4330    0.8270 N   0  0  0  0  0  0  0  0  0  0  0  0
    2.7380    1.1070   -0.1400 C   0  0  0  0  0  0  0  0  0  0  0  0
    1.4590    0.7610    0.2730 C   0  0  0  0  0  0  0  0  0  0  0  0
    0.4490    0.4450   -0.6220 C   0  0  0  0  0  0  0  0  0  0  0  0
   -0.9100    0.0720   -0.1840 C   0  0  0  0  0  0  0  0  0  0  0  0
   -1.9040    0.5530   -1.1100 N   0  0  0  0  0  0  0  0  0  0  0  0
   -3.2960    0.3200   -0.9370 C   0  0  0  0  0  0  0  0  0  0  0  0
   -4.2190    0.7950   -1.8430 C   0  0  0  0  0  0  0  0  0  0  0  0
   -5.5730    0.5970   -1.7220 C   0  0  0  0  0  0  0  0  0  0  0  0
   -6.0710   -0.1240   -0.6270 C   0  0  0  0  0  0  0  0  0  0  0  0
   -5.1610   -0.6060    0.2880 C   0  0  0  0  0  0  0  0  0  0  0  0
   -3.8000   -0.3890    0.1380 C   0  0  0  0  0  0  0  0  0  0  0  0
   -5.9140   -1.3310    1.3570 C   0  0  0  0  0  0  0  0  0  0  0  0
   -7.3180   -0.7910    1.1890 C   0  0  0  0  0  0  0  0  0  0  0  0
   -7.3820   -0.4920   -0.2270 N   0  0  0  0  0  0  0  0  0  0  0  0
    0.7920    0.4950   -1.9550 C   0  0  0  0  0  0  0  0  0  0  0  0
    2.0730    0.8420   -2.3710 C   0  0  0  0  0  0  0  0  0  0  0  0
    2.9770    1.1290   -1.4430 N   0  0  0  0  0  0  0  0  0  0  0  0
    5.6500   -0.7160    1.6010 C   0  0  0  0  0  0  0  0  0  0  0  0
  1  2  2  0
  1 25  1  0
  2  3  1  0
  3  4  1  0
  4  5  1  0
  4 25  2  0
  5  6  1  0
  6  7  1  0
  7  8  1  0
  8  9  2  0
  8 24  1  0
  9 10  1  0
 10 11  1  0
 10 22  2  0
 11 12  1  0
 12 13  1  0
 13 14  2  0
 13 18  1  0
 14 15  1  0
 15 16  2  0
 16 17  1  0
 16 21  1  0
 17 18  2  0
 17 19  1  0
 19 20  1  0
 20 21  1  0
 22 23  1  0
 23 24  2  0
M  END
