
     RDKit          3D

 32 35  0  0  0  0  0  0  0  0999 V2000
    0.1540   -5.0330   -0.6250 C   0  0  0  0  0  0  0  0  0  0  0  0
   -0.2070   -3.5760   -0.7890 C   0  0  0  0  0  0  0  0  0  0  0  0
   -1.1880   -2.8670   -2.0180 S   0  0  0  0  0  0  0  0  0  0  0  0
   -1.0540   -1.1670   -1.4070 C   0  0  0  0  0  0  0  0  0  0  0  0
   -1.7130   -0.0060   -2.0520 C   0  0  1  0  0  0  0  0  0  0  0  0
   -2.4220   -0.4530   -3.3370 C   0  0  0  0  0  0  0  0  0  0  0  0
   -3.6890   -0.9940   -2.9430 N   0  0  0  0  0  0  0  0  0  0  0  0
   -3.9080   -0.6500   -1.5380 C   0  0  0  0  0  0  0  0  0  0  0  0
   -2.8800    0.3520   -1.2220 C   0  0  0  0  0  0  0  0  0  0  0  0
   -2.9780    1.3510   -0.4050 C   0  0  0  0  0  0  0  0  0  0  0  0
   -4.1920    1.5890    0.3570 C   0  0  0  0  0  0  0  0  0  0  0  0
   -4.8830    0.5640    0.9770 C   0  0  0  0  0  0  0  0  0  0  0  0
   -6.0440    0.8140    1.6900 C   0  0  0  0  0  0  0  0  0  0  0  0
   -6.4910    2.0750    1.7710 N   0  0  0  0  0  0  0  0  0  0  0  0
   -5.8330    3.0980    1.1730 C   0  0  0  0  0  0  0  0  0  0  0  0
   -4.6890    2.8470    0.4710 C   0  0  0  0  0  0  0  0  0  0  0  0
   -0.2630   -1.3120   -0.3100 C   0  0  0  0  0  0  0  0  0  0  0  0
    0.0310    0.2070    0.6170 Cl  0  0  0  0  0  0  0  0  0  0  0  0
    0.1960   -2.4990    0.0510 C   0  0  0  0  0  0  0  0  0  0  0  0
    1.0210   -2.8820    1.2250 C   0  0  0  0  0  0  0  0  0  0  0  0
    1.4820   -1.7540    1.9530 N   0  0  0  0  0  0  0  0  0  0  0  0
    2.5300   -0.9040    1.4140 C   0  0  0  0  0  0  0  0  0  0  0  0
    2.9720   -1.2430    0.2960 O   0  0  0  0  0  0  0  0  0  0  0  0
    2.9820    0.2120    2.1440 N   0  0  0  0  0  0  0  0  0  0  0  0
    4.0020    1.0740    1.7030 C   0  0  0  0  0  0  0  0  0  0  0  0
    4.1570    2.3160    2.3370 C   0  0  0  0  0  0  0  0  0  0  0  0
    5.1350    3.2110    1.9800 C   0  0  0  0  0  0  0  0  0  0  0  0
    6.0110    2.9040    0.9650 C   0  0  0  0  0  0  0  0  0  0  0  0
    5.9000    1.7050    0.3170 C   0  0  0  0  0  0  0  0  0  0  0  0
    6.8070    1.3780   -0.7340 N   0  0  0  0  0  0  0  0  0  0  0  0
    7.9720    0.7660   -0.4330 O   0  0  0  0  0  0  0  0  0  0  0  0
    4.9030    0.8200    0.6980 C   0  0  0  0  0  0  0  0  0  0  0  0
  1  2  1  0
  2  3  1  0
  2 19  2  0
  3  4  1  0
  5  4  1  1
  4 17  2  0
  5  6  1  0
  5  9  1  0
  6  7  1  0
  7  8  1  0
  8  9  1  0
  9 10  2  3
 10 11  1  0
 11 12  2  0
 11 16  1  0
 12 13  1  0
 13 14  2  0
 14 15  1  0
 15 16  2  0
 17 18  1  0
 17 19  1  0
 19 20  1  0
 20 21  1  0
 21 22  1  0
 22 23  2  0
 22 24  1  0
 24 25  1  0
 25 26  2  0
 25 32  1  0
 26 27  1  0
 27 28  2  0
 28 29  1  0
 29 30  1  0
 29 32  2  0
 30 31  1  0
M  CHG  1   7   1
M  END
