
     RDKit          3D

 32 35  0  0  0  0  0  0  0  0999 V2000
   -7.8610    3.5890   -0.1880 C   0  0  0  0  0  0  0  0  0  0  0  0
   -7.0960    2.3360    0.0380 C   0  0  0  0  0  0  0  0  0  0  0  0
   -7.7850    1.2020    0.4030 C   0  0  0  0  0  0  0  0  0  0  0  0
   -7.0750    0.0480    0.6100 C   0  0  0  0  0  0  0  0  0  0  0  0
   -5.7150    0.0440    0.4520 C   0  0  0  0  0  0  0  0  0  0  0  0
   -5.0380    1.1690    0.0900 C   0  0  0  0  0  0  0  0  0  0  0  0
   -5.7180    2.3390   -0.1240 C   0  0  0  0  0  0  0  0  0  0  0  0
   -3.5800    0.8710   -0.0060 C   0  0  0  0  0  0  0  0  0  0  0  0
   -3.4810   -0.5510    0.1150 N   0  0  0  0  0  0  0  0  0  0  0  0
   -2.3570   -1.3440   -0.1920 C   0  0  0  0  0  0  0  0  0  0  0  0
   -2.5080   -2.2900   -1.1400 N   0  0  0  0  0  0  0  0  0  0  0  0
   -1.5420   -3.1170   -1.5420 C   0  0  0  0  0  0  0  0  0  0  0  0
   -1.7990   -4.1230   -2.5870 C   0  0  0  0  0  0  0  0  0  0  0  0
   -0.3000   -2.9700   -0.9190 C   0  0  0  0  0  0  0  0  0  0  0  0
   -0.0980   -2.0260    0.0470 C   0  0  0  0  0  0  0  0  0  0  0  0
    1.2380   -1.8830    0.7060 C   0  0  0  0  0  0  0  0  0  0  0  0
    2.1750   -2.8400    0.1650 N   0  0  0  0  0  0  0  0  0  0  0  0
    3.7050   -2.7000    0.8970 S   0  0  2  0  0  0  0  0  0  0  0  0
    4.1170   -4.1090    1.3180 O   0  0  0  0  0  0  0  0  0  0  0  0
    3.5610   -1.9410    2.1990 O   0  0  0  0  0  0  0  0  0  0  0  0
    4.9370   -2.0570   -0.0770 N   0  0  0  0  0  0  0  0  0  0  0  0
    5.3380   -0.7080   -0.1490 C   0  0  0  0  0  0  0  0  0  0  0  0
    4.4330    0.3050   -0.3170 C   0  0  0  0  0  0  0  0  0  0  0  0
    4.9040    1.6120   -0.3930 C   0  0  0  0  0  0  0  0  0  0  0  0
    6.2210    1.9490   -0.3110 C   0  0  0  0  0  0  0  0  0  0  0  0
    6.7360    3.3360   -0.3900 C   0  0  0  0  0  0  0  0  0  0  0  0
    6.7890    3.9150    0.9590 N   0  0  0  0  0  0  0  0  0  0  0  0
    7.1320    0.9250   -0.1420 C   0  0  0  0  0  0  0  0  0  0  0  0
    6.7050   -0.3840   -0.0610 C   0  0  0  0  0  0  0  0  0  0  0  0
   -1.1300   -1.1950    0.4270 C   0  0  0  0  0  0  0  0  0  0  0  0
   -0.9610    0.0340    1.6480 Cl  0  0  0  0  0  0  0  0  0  0  0  0
   -4.7390   -1.0420    0.6100 C   0  0  0  0  0  0  0  0  0  0  0  0
  1  2  1  0
  2  3  2  0
  2  7  1  0
  3  4  1  0
  4  5  2  0
  5  6  1  0
  5 32  1  0
  6  7  2  0
  6  8  1  0
  8  9  1  0
  9 10  1  0
  9 32  1  0
 10 11  2  0
 10 30  1  0
 11 12  1  0
 12 13  1  0
 12 14  2  0
 14 15  1  0
 15 16  1  0
 15 30  2  0
 16 17  1  0
 18 17  1  6
 18 19  2  0
 18 20  2  0
 18 21  1  0
 21 22  1  0
 22 23  2  0
 22 29  1  0
 23 24  1  0
 24 25  2  0
 25 26  1  0
 25 28  1  0
 26 27  1  0
 28 29  2  0
 30 31  1  0
M  CHG  1  27   1
M  END
