
     RDKit          3D

 32 35  0  0  0  0  0  0  0  0999 V2000
    2.3480   -1.0050   -2.5370 O   0  0  0  0  0  0  0  0  0  0  0  0
    3.4450   -1.4300   -1.5970 S   0  0  2  0  0  0  0  0  0  0  0  0
    3.7350   -2.8900   -1.7880 O   0  0  0  0  0  0  0  0  0  0  0  0
    2.8650   -1.2460    0.0430 N   0  0  0  0  0  0  0  0  0  0  0  0
    2.0020   -0.0790    0.0500 C   0  0  0  0  0  0  0  0  0  0  0  0
    1.4350    0.1960    1.3870 C   0  0  0  0  0  0  0  0  0  0  0  0
    2.2320    0.3310    2.5030 C   0  0  0  0  0  0  0  0  0  0  0  0
    1.7120    0.5920    3.7540 C   0  0  0  0  0  0  0  0  0  0  0  0
    0.3340    0.7110    3.8260 C   0  0  0  0  0  0  0  0  0  0  0  0
   -0.4550    0.5740    2.7020 C   0  0  0  0  0  0  0  0  0  0  0  0
   -1.8810    0.7030    2.7940 N   0  0  0  0  0  0  0  0  0  0  0  0
   -2.7390    0.5720    1.6720 C   0  0  0  0  0  0  0  0  0  0  0  0
   -2.6820    1.4390    0.6760 C   0  0  0  0  0  0  0  0  0  0  0  0
   -3.5960    1.2430   -0.4460 C   0  0  0  0  0  0  0  0  0  0  0  0
   -3.5690    2.0870   -1.4600 C   0  0  0  0  0  0  0  0  0  0  0  0
   -2.6710    3.2570   -1.5800 C   0  0  0  0  0  0  0  0  0  0  0  0
   -3.6050    4.7770   -1.7030 Cl  0  0  0  0  0  0  0  0  0  0  0  0
   -4.5290    0.1230   -0.4420 C   0  0  0  0  0  0  0  0  0  0  0  0
   -4.5340   -0.7030    0.5800 C   0  0  0  0  0  0  0  0  0  0  0  0
   -5.4740   -1.8420    0.5990 C   0  0  0  0  0  0  0  0  0  0  0  0
   -6.8340   -1.5050    0.0670 C   0  0  0  0  0  0  0  0  0  0  0  0
   -6.8580   -0.3140   -0.8280 C   0  0  0  0  0  0  0  0  0  0  0  0
   -5.4990   -0.1750   -1.5190 C   0  0  0  0  0  0  0  0  0  0  0  0
   -3.6570   -0.5140    1.6560 N   0  0  0  0  0  0  0  0  0  0  0  0
    0.1050    0.3200    1.5070 N   0  0  0  0  0  0  0  0  0  0  0  0
    4.8760   -0.5080   -1.8300 N   0  0  0  0  0  0  0  0  0  0  0  0
    6.1970   -0.9920   -1.6110 C   0  0  0  0  0  0  0  0  0  0  0  0
    7.1170   -0.2420   -0.9270 C   0  0  0  0  0  0  0  0  0  0  0  0
    8.3880   -0.6880   -0.7060 C   0  0  0  0  0  0  0  0  0  0  0  0
    8.7770   -1.9260   -1.1760 C   0  0  0  0  0  0  0  0  0  0  0  0
    7.8690   -2.6770   -1.8560 C   0  0  0  0  0  0  0  0  0  0  0  0
    6.5760   -2.2280   -2.0830 C   0  0  0  0  0  0  0  0  0  0  0  0
  1  2  2  0
  2  3  2  0
  2  4  1  1
  2 26  1  0
  4  5  1  0
  5  6  1  0
  6  7  2  0
  6 25  1  0
  7  8  1  0
  8  9  2  0
  9 10  1  0
 10 11  1  0
 10 25  2  0
 11 12  1  0
 12 13  2  0
 12 24  1  0
 13 14  1  0
 14 15  2  3
 14 18  1  0
 15 16  1  0
 16 17  1  0
 18 19  2  0
 18 23  1  0
 19 20  1  0
 19 24  1  0
 20 21  1  0
 21 22  1  0
 22 23  1  0
 26 27  1  0
 27 28  2  0
 27 32  1  0
 28 29  1  0
 29 30  2  0
 30 31  1  0
 31 32  2  0
M  CHG  1  25   1
M  END
