
     RDKit          3D

 32 35  0  0  0  0  0  0  0  0999 V2000
   -4.1450    1.9390   -1.5220 C   0  0  0  0  0  0  0  0  0  0  0  0
   -3.7600    0.5140   -1.5360 N   0  0  0  0  0  0  0  0  0  0  0  0
   -4.8850   -0.2220   -1.1220 C   0  0  0  0  0  0  0  0  0  0  0  0
   -5.0510   -0.5520    0.3020 C   0  0  0  0  0  0  0  0  0  0  0  0
   -6.2290   -1.2790    0.6180 C   0  0  0  0  0  0  0  0  0  0  0  0
   -7.3680   -1.7210   -0.6600 Cl  0  0  0  0  0  0  0  0  0  0  0  0
   -6.5250   -1.6570    1.8940 C   0  0  0  0  0  0  0  0  0  0  0  0
   -5.6570   -1.3270    2.9120 C   0  0  0  0  0  0  0  0  0  0  0  0
   -4.5060   -0.6290    2.6700 C   0  0  0  0  0  0  0  0  0  0  0  0
   -4.2420   -0.2610    1.3470 C   0  0  0  0  0  0  0  0  0  0  0  0
   -3.0080    0.4460    1.1780 N   0  0  0  0  0  0  0  0  0  0  0  0
   -1.9020   -0.1130    1.5710 C   0  0  0  0  0  0  0  0  0  0  0  0
   -0.6160    0.5180    1.4470 C   0  0  0  0  0  0  0  0  0  0  0  0
    0.5520   -0.1590    1.8570 C   0  0  0  0  0  0  0  0  0  0  0  0
    1.7640    0.4660    1.7150 C   0  0  0  0  0  0  0  0  0  0  0  0
    2.9820   -0.2090    2.1310 C   0  0  0  0  0  0  0  0  0  0  0  0
    3.3940   -0.0700    3.3040 O   0  0  0  0  0  0  0  0  0  0  0  0
    3.6590   -1.0100    1.1630 N   0  0  0  0  0  0  0  0  0  0  0  0
    4.8760   -1.6980    1.5460 C   0  0  0  0  0  0  0  0  0  0  0  0
    5.4940   -2.3920    0.3730 C   0  0  0  0  0  0  0  0  0  0  0  0
    5.5080   -1.4240   -0.7580 C   0  0  0  0  0  0  0  0  0  0  0  0
    6.6270   -0.7910   -1.9140 S   0  0  0  0  0  0  0  0  0  0  0  0
    5.5590    0.2880   -2.7690 C   0  0  0  0  0  0  0  0  0  0  0  0
    5.9070    1.1560   -3.9090 C   0  0  0  0  0  0  0  0  0  0  0  0
    4.3710    0.1080   -2.1130 C   0  0  0  0  0  0  0  0  0  0  0  0
    4.3130   -0.7490   -1.0950 C   0  0  0  0  0  0  0  0  0  0  0  0
    3.1730   -1.1600   -0.1890 C   0  0  0  0  0  0  0  0  0  0  0  0
    1.8400    1.7390    1.1800 C   0  0  0  0  0  0  0  0  0  0  0  0
    2.9640    2.2690    1.0690 O   0  0  0  0  0  0  0  0  0  0  0  0
    0.7360    2.3970    0.7840 N   0  0  0  0  0  0  0  0  0  0  0  0
   -0.4810    1.7740    0.9250 C   0  0  0  0  0  0  0  0  0  0  0  0
   -1.6350    2.4910    0.5150 N   0  0  0  0  0  0  0  0  0  0  0  0
  1  2  1  0
  2  3  1  0
  3  4  1  0
  4  5  2  0
  4 10  1  0
  5  6  1  0
  5  7  1  0
  7  8  2  0
  8  9  1  0
  9 10  2  0
 10 11  1  0
 11 12  2  3
 12 13  1  0
 13 14  1  0
 13 31  2  0
 14 15  2  0
 15 16  1  0
 15 28  1  0
 16 17  2  0
 16 18  1  0
 18 19  1  0
 18 27  1  0
 19 20  1  0
 20 21  1  0
 21 22  1  0
 21 26  2  0
 22 23  1  0
 23 24  1  0
 23 25  2  0
 25 26  1  0
 26 27  1  0
 28 29  2  0
 28 30  1  0
 30 31  1  0
 31 32  1  0
M  CHG  1   2   1
M  END
