
     RDKit          3D

 32 35  0  0  0  0  0  0  0  0999 V2000
    3.5330   -1.9040   -0.2940 O   0  0  0  0  0  0  0  0  0  0  0  0
    4.1640   -0.8350   -0.0300 C   0  0  0  0  0  0  0  0  0  0  0  0
    3.4210    0.3320    0.2960 N   0  0  0  0  0  0  0  0  0  0  0  0
    2.0370    0.3680    0.3730 N   0  0  0  0  0  0  0  0  0  0  0  0
    1.2010   -0.2400   -0.6070 C   0  0  0  0  0  0  0  0  0  0  0  0
    1.6410   -0.8260   -1.6010 O   0  0  0  0  0  0  0  0  0  0  0  0
   -0.2580   -0.1650   -0.3950 C   0  0  0  0  0  0  0  0  0  0  0  0
   -0.9550   -1.3450   -0.2650 C   0  0  0  0  0  0  0  0  0  0  0  0
   -2.3200   -1.3710    0.0600 C   0  0  0  0  0  0  0  0  0  0  0  0
   -2.9830   -2.6010    0.2280 N   0  0  0  0  0  0  0  0  0  0  0  0
   -4.3490   -2.7950    0.1720 C   0  0  0  0  0  0  0  0  0  0  0  0
   -5.2260   -2.0070   -0.5130 C   0  0  0  0  0  0  0  0  0  0  0  0
   -6.6010   -2.2890   -0.4660 C   0  0  0  0  0  0  0  0  0  0  0  0
   -7.1200   -3.3400    0.2470 C   0  0  0  0  0  0  0  0  0  0  0  0
   -8.8710   -3.6690    0.2750 S   0  0  0  0  0  0  0  0  0  0  0  0
   -6.2360   -4.1320    0.9350 C   0  0  0  0  0  0  0  0  0  0  0  0
   -4.8860   -3.8660    0.8990 C   0  0  0  0  0  0  0  0  0  0  0  0
   -2.9190   -0.1580    0.2400 C   0  0  0  0  0  0  0  0  0  0  0  0
   -2.2120    1.0030    0.1030 C   0  0  0  0  0  0  0  0  0  0  0  0
   -0.8470    1.0480   -0.2220 C   0  0  0  0  0  0  0  0  0  0  0  0
   -0.2300    2.3260   -0.3950 N   0  0  0  0  0  0  0  0  0  0  0  0
   -0.0450    3.2040    0.5610 C   0  0  0  0  0  0  0  0  0  0  0  0
    0.6020    4.4010    0.0310 C   0  0  0  0  0  0  0  0  0  0  0  0
    0.8190    5.5510    0.6390 C   0  0  0  0  0  0  0  0  0  0  0  0
    0.3990    5.7840    2.0390 C   0  0  0  0  0  0  0  0  0  0  0  0
   -0.7600    7.1510    2.0940 Cl  0  0  0  0  0  0  0  0  0  0  0  0
    0.9850    4.1040   -1.3590 C   0  0  0  0  0  0  0  0  0  0  0  0
    0.2680    2.8210   -1.6540 C   0  0  0  0  0  0  0  0  0  0  0  0
    5.5840   -0.8920   -0.0810 N   0  0  0  0  0  0  0  0  0  0  0  0
    6.2040   -2.1340   -0.4470 C   0  0  1  0  0  0  0  0  0  0  0  0
    7.7020   -2.1980   -0.4130 C   0  0  0  0  0  0  0  0  0  0  0  0
    6.9110   -2.9460    0.5980 C   0  0  0  0  0  0  0  0  0  0  0  0
  1  2  2  0
  2  3  1  0
  2 29  1  0
  3  4  1  0
  4  5  1  0
  5  6  2  0
  5  7  1  0
  7  8  2  0
  7 20  1  0
  8  9  1  0
  9 10  1  0
  9 18  2  0
 10 11  1  0
 11 12  2  0
 11 17  1  0
 12 13  1  0
 13 14  2  0
 14 15  1  0
 14 16  1  0
 16 17  2  0
 18 19  1  0
 19 20  2  0
 20 21  1  0
 21 22  2  0
 21 28  1  0
 22 23  1  0
 23 24  2  3
 23 27  1  0
 24 25  1  0
 25 26  1  0
 27 28  1  0
 30 29  1  1
 30 31  1  0
 30 32  1  0
 31 32  1  0
M  CHG  1  21   1
M  END
