
     RDKit          3D

 12 12  0  0  0  0  0  0  0  0999 V2000
    2.9070   -1.1000   -0.4910 C   0  0  0  0  0  0  0  0  0  0  0  0
    1.6170   -0.6080   -0.5220 O   0  0  0  0  0  0  0  0  0  0  0  0
    1.0940   -0.3320    0.7180 C   0  0  2  0  0  0  0  0  0  0  0  0
   -0.0860   -1.0420    0.9570 O   0  0  0  0  0  0  0  0  0  0  0  0
   -0.9300   -0.9380   -0.1420 C   0  0  1  0  0  0  0  0  0  0  0  0
   -2.1110   -1.8550    0.1090 C   0  0  0  0  0  0  0  0  0  0  0  0
   -1.3520    0.4570   -0.4490 C   0  0  1  0  0  0  0  0  0  0  0  0
   -2.5270    0.8050    0.2390 O   0  0  0  0  0  0  0  0  0  0  0  0
   -0.3320    1.5030   -0.1810 C   0  0  1  0  0  0  0  0  0  0  0  0
   -0.9530    2.6930    0.2590 O   0  0  0  0  0  0  0  0  0  0  0  0
    0.6990    1.1470    0.8300 C   0  0  2  0  0  0  0  0  0  0  0  0
    1.8300    1.9350    0.7100 O   0  0  0  0  0  0  0  0  0  0  0  0
  1  2  1  0
  3  2  1  6
  3  4  1  0
  3 11  1  0
  4  5  1  0
  5  6  1  1
  5  7  1  0
  7  8  1  1
  7  9  1  0
  9 10  1  1
  9 11  1  0
 11 12  1  6
M  END
