
     RDKit          3D

 12 12  0  0  0  0  0  0  0  0999 V2000
    2.6730    1.0180    0.4210 C   0  0  0  0  0  0  0  0  0  0  0  0
    1.9250   -0.1160    0.7030 O   0  0  0  0  0  0  0  0  0  0  0  0
    1.4320   -0.6780   -0.4680 C   0  0  1  0  0  0  0  0  0  0  0  0
    2.0290   -1.9200   -0.7290 O   0  0  0  0  0  0  0  0  0  0  0  0
   -0.0650   -0.7600   -0.5200 C   0  0  1  0  0  0  0  0  0  0  0  0
   -0.6580   -1.5820    0.5830 C   0  0  0  0  0  0  0  0  0  0  0  0
   -1.6660   -0.8150    1.1650 O   0  0  0  0  0  0  0  0  0  0  0  0
   -1.2170    0.5020    1.0820 C   0  0  1  0  0  0  0  0  0  0  0  0
   -0.1960    0.7780    1.9750 O   0  0  0  0  0  0  0  0  0  0  0  0
   -0.7460    0.5560   -0.3760 C   0  0  2  0  0  0  0  0  0  0  0  0
   -2.0310    0.4940   -1.1970 C   0  0  0  0  0  0  0  0  0  0  0  0
   -2.7070    1.7060   -1.0950 O   0  0  0  0  0  0  0  0  0  0  0  0
  1  2  1  0
  2  3  1  0
  3  4  1  1
  3  5  1  0
  5  6  1  1
  5 10  1  0
  6  7  1  0
  7  8  1  0
  8  9  1  1
  8 10  1  0
 10 11  1  6
 11 12  1  0
M  END
