
     RDKit          3D

 12 12  0  0  0  0  0  0  0  0999 V2000
    0.5510   -2.0930    0.3720 C   0  0  0  0  0  0  0  0  0  0  0  0
    0.7110   -0.6250    0.7260 C   0  0  2  0  0  0  0  0  0  0  0  0
   -0.5240   -0.1150    1.1310 O   0  0  0  0  0  0  0  0  0  0  0  0
   -1.4320   -0.0110    0.0920 C   0  0  1  0  0  0  0  0  0  0  0  0
   -1.9330   -1.2790   -0.2030 O   0  0  0  0  0  0  0  0  0  0  0  0
   -2.6060    0.8070    0.6050 C   0  0  0  0  0  0  0  0  0  0  0  0
   -2.2300    2.0750    1.0100 O   0  0  0  0  0  0  0  0  0  0  0  0
   -0.8160    0.5860   -1.1330 C   0  0  0  0  0  0  0  0  0  0  0  0
    0.4230    1.1760   -0.8350 O   0  0  0  0  0  0  0  0  0  0  0  0
    1.2700    0.1330   -0.4510 C   0  0  1  0  0  0  0  0  0  0  0  0
    2.6390    0.6530   -0.0800 C   0  0  0  0  0  0  0  0  0  0  0  0
    3.2320    1.3130   -1.1640 O   0  0  0  0  0  0  0  0  0  0  0  0
  2  1  1  6
  2  3  1  0
  2 10  1  0
  3  4  1  0
  4  5  1  6
  4  6  1  0
  4  8  1  0
  6  7  1  0
  8  9  1  0
  9 10  1  0
 10 11  1  1
 11 12  1  0
M  END
