
     RDKit          3D

 12 12  0  0  0  0  0  0  0  0999 V2000
    0.9610    2.2200   -0.1390 C   0  0  0  0  0  0  0  0  0  0  0  0
    0.2690    0.9450    0.1710 C   0  0  1  0  0  0  0  0  0  0  0  0
   -0.9840    0.9530   -0.4770 O   0  0  0  0  0  0  0  0  0  0  0  0
   -1.7950    0.0450    0.2180 C   0  0  1  0  0  0  0  0  0  0  0  0
   -2.8950   -0.4990   -0.6740 C   0  0  0  0  0  0  0  0  0  0  0  0
   -3.6410   -1.3850    0.1020 O   0  0  0  0  0  0  0  0  0  0  0  0
   -1.0350   -0.9820    0.7260 O   0  0  0  0  0  0  0  0  0  0  0  0
   -0.0730   -1.4160   -0.1850 C   0  0  0  0  0  0  0  0  0  0  0  0
    0.9760   -0.2940   -0.2420 C   0  0  1  0  0  0  0  0  0  0  0  0
    1.4770   -0.2860   -1.5190 O   0  0  0  0  0  0  0  0  0  0  0  0
    2.0760   -0.7090    0.7090 C   0  0  0  0  0  0  0  0  0  0  0  0
    3.1630    0.1640    0.6630 O   0  0  0  0  0  0  0  0  0  0  0  0
  2  1  1  6
  2  3  1  0
  2  9  1  0
  3  4  1  0
  4  5  1  6
  4  7  1  0
  5  6  1  0
  7  8  1  0
  8  9  1  0
  9 10  1  6
  9 11  1  0
 11 12  1  0
M  END
