
     RDKit          3D

 12 12  0  0  0  0  0  0  0  0999 V2000
    2.5760   -1.2760   -0.2470 C   0  0  0  0  0  0  0  0  0  0  0  0
    2.1110   -0.3480    0.6430 O   0  0  0  0  0  0  0  0  0  0  0  0
    1.1820    0.5390    0.1650 C   0  0  2  0  0  0  0  0  0  0  0  0
    1.6660    1.8510    0.1170 O   0  0  0  0  0  0  0  0  0  0  0  0
   -0.0850    0.4220    0.9360 C   0  0  2  0  0  0  0  0  0  0  0  0
   -0.6440   -0.9510    0.8290 C   0  0  0  0  0  0  0  0  0  0  0  0
   -1.3450   -1.2200   -0.4790 C   0  0  1  0  0  0  0  0  0  0  0  0
   -2.1060   -2.3750   -0.3020 O   0  0  0  0  0  0  0  0  0  0  0  0
   -2.2380   -0.2040   -0.8180 O   0  0  0  0  0  0  0  0  0  0  0  0
   -1.6220    1.0400   -0.9340 C   0  0  0  0  0  0  0  0  0  0  0  0
   -1.1490    1.4010    0.4800 C   0  0  2  0  0  0  0  0  0  0  0  0
   -0.7760    2.7140    0.5910 O   0  0  0  0  0  0  0  0  0  0  0  0
  1  2  1  0
  2  3  1  0
  3  4  1  1
  3  5  1  0
  5  6  1  6
  5 11  1  0
  6  7  1  0
  7  8  1  1
  7  9  1  0
  9 10  1  0
 10 11  1  0
 11 12  1  6
M  END
