
     RDKit          3D

 26 28  0  0  0  0  0  0  0  0999 V2000
   -0.6760   -2.0460   -2.3340 C   0  0  0  0  0  0  0  0  0  0  0  0
   -0.8740   -0.6660   -1.7880 C   0  0  0  0  0  0  0  0  0  0  0  0
   -0.2560   -0.5770   -0.4770 N   0  0  0  0  0  0  0  0  0  0  0  0
   -1.0380   -0.8980    0.6620 C   0  0  0  0  0  0  0  0  0  0  0  0
   -0.4670   -0.8040    1.7930 O   0  0  0  0  0  0  0  0  0  0  0  0
   -2.4210   -1.3130    0.5350 C   0  0  0  0  0  0  0  0  0  0  0  0
   -2.8640   -2.6170    0.3890 C   0  0  0  0  0  0  0  0  0  0  0  0
   -1.9790   -3.8100    0.3400 C   0  0  0  0  0  0  0  0  0  0  0  0
   -4.2060   -2.5750    0.3060 N   0  0  0  0  0  0  0  0  0  0  0  0
   -4.6160   -1.2990    0.3940 N   0  0  0  0  0  0  0  0  0  0  0  0
   -3.5230   -0.5120    0.5360 C   0  0  0  0  0  0  0  0  0  0  0  0
   -3.5560    0.9360    0.6630 C   0  0  0  0  0  0  0  0  0  0  0  0
   -2.6030    1.8610    0.8040 C   0  0  0  0  0  0  0  0  0  0  0  0
   -2.9110    3.1580    0.9010 C   0  0  0  0  0  0  0  0  0  0  0  0
   -4.2730    3.4970    0.8470 C   0  0  0  0  0  0  0  0  0  0  0  0
   -5.0840    1.9030    0.6550 S   0  0  0  0  0  0  0  0  0  0  0  0
    1.1100   -0.1710   -0.3790 C   0  0  0  0  0  0  0  0  0  0  0  0
    2.1210   -0.8880   -0.9020 N   0  0  0  0  0  0  0  0  0  0  0  0
    3.4060   -0.5140   -0.8140 C   0  0  0  0  0  0  0  0  0  0  0  0
    4.4540   -1.3750   -1.4260 C   0  0  0  0  0  0  0  0  0  0  0  0
    3.7460    0.6570   -0.1620 C   0  0  0  0  0  0  0  0  0  0  0  0
    5.1700    1.0950   -0.0500 C   0  0  0  0  0  0  0  0  0  0  0  0
    2.7100    1.3920    0.3750 C   0  0  0  0  0  0  0  0  0  0  0  0
    3.0070    2.5630    1.0310 O   0  0  0  0  0  0  0  0  0  0  0  0
    2.0320    3.3990    1.6200 C   0  0  0  0  0  0  0  0  0  0  0  0
    1.4310    0.9720    0.2590 N   0  0  0  0  0  0  0  0  0  0  0  0
  1  2  1  0
  2  3  1  0
  3  4  1  0
  3 17  1  0
  4  5  2  0
  4  6  1  0
  6  7  1  0
  6 11  2  0
  7  8  1  0
  7  9  2  0
  9 10  1  0
 10 11  1  0
 11 12  1  0
 12 13  2  0
 12 16  1  0
 13 14  1  0
 14 15  2  0
 15 16  1  0
 17 18  2  0
 17 26  1  0
 18 19  1  0
 19 20  1  0
 19 21  2  0
 21 22  1  0
 21 23  1  0
 23 24  1  0
 23 26  2  0
 24 25  1  0
M  END
