
     RDKit          3D

 28 30  0  0  0  0  0  0  0  0999 V2000
   -7.3420    3.2300   -0.2110 C   0  0  0  0  0  0  0  0  0  0  0  0
   -6.2500    2.3270   -0.0180 O   0  0  0  0  0  0  0  0  0  0  0  0
   -6.4930    0.9390   -0.2250 C   0  0  0  0  0  0  0  0  0  0  0  0
   -7.6250    0.5820   -0.5510 O   0  0  0  0  0  0  0  0  0  0  0  0
   -5.3770    0.0310   -0.0210 C   0  0  1  0  0  0  0  0  0  0  0  0
   -4.9880   -0.0210    1.4650 C   0  0  0  0  0  0  0  0  0  0  0  0
   -5.6630   -1.3220   -0.5650 C   0  0  0  0  0  0  0  0  0  0  0  0
   -4.5300   -2.2850   -0.3320 C   0  0  0  0  0  0  0  0  0  0  0  0
   -3.1960   -1.7060   -0.2350 C   0  0  0  0  0  0  0  0  0  0  0  0
   -3.0840   -0.2810    0.0530 N   0  0  0  0  0  0  0  0  0  0  0  0
   -1.7360    0.1590   -0.1230 C   0  0  0  0  0  0  0  0  0  0  0  0
   -0.8880   -0.6280    0.9020 C   0  0  0  0  0  0  0  0  0  0  0  0
    0.4510   -0.3220    0.6990 O   0  0  0  0  0  0  0  0  0  0  0  0
    1.4100   -1.1360    1.3390 C   0  0  0  0  0  0  0  0  0  0  0  0
    1.1740   -2.0220    2.1320 O   0  0  0  0  0  0  0  0  0  0  0  0
    2.7780   -0.8320    0.9230 C   0  0  0  0  0  0  0  0  0  0  0  0
    3.3190   -1.7650   -0.0000 C   0  0  0  0  0  0  0  0  0  0  0  0
    4.5800   -1.3040   -0.2890 C   0  0  0  0  0  0  0  0  0  0  0  0
    5.5820   -1.7480   -1.1430 C   0  0  0  0  0  0  0  0  0  0  0  0
    6.7200   -0.9850   -1.1970 C   0  0  0  0  0  0  0  0  0  0  0  0
    6.9320    0.1660   -0.4810 C   0  0  0  0  0  0  0  0  0  0  0  0
    8.1820    0.8810   -0.2900 C   0  0  0  0  0  0  0  0  0  0  0  0
    8.7670    1.4830   -1.5120 N   0  0  0  0  0  0  0  0  0  0  0  0
    5.8760    0.5380    0.3480 C   0  0  0  0  0  0  0  0  0  0  0  0
    6.0220    1.8770    1.0320 C   0  0  0  0  0  0  0  0  0  0  0  0
    4.7200   -0.1680    0.4500 C   0  0  0  0  0  0  0  0  0  0  0  0
    3.6040    0.0690    1.1690 O   0  0  0  0  0  0  0  0  0  0  0  0
   -4.0670    0.4670   -0.6870 C   0  0  0  0  0  0  0  0  0  0  0  0
  1  2  1  0
  2  3  1  0
  3  4  2  0
  3  5  1  0
  5  6  1  1
  5  7  1  0
  5 28  1  0
  7  8  1  0
  8  9  1  0
  9 10  1  0
 10 11  1  0
 10 28  1  0
 11 12  1  0
 12 13  1  0
 13 14  1  0
 14 15  2  0
 14 16  1  0
 16 17  2  0
 16 27  1  0
 17 18  1  0
 18 19  2  0
 18 26  1  0
 19 20  1  0
 20 21  2  0
 21 22  1  0
 21 24  1  0
 22 23  1  0
 24 25  1  0
 24 26  2  0
 26 27  1  0
M  END
