
     RDKit          3D

 26 28  0  0  0  0  0  0  0  0999 V2000
   -5.7910   -0.0040   -0.4620 C   0  0  0  0  0  0  0  0  0  0  0  0
   -4.5830    0.0860    0.0390 C   0  0  0  0  0  0  0  0  0  0  0  0
   -4.4230    0.3660    1.5150 C   0  0  0  0  0  0  0  0  0  0  0  0
   -3.4230    1.5110    1.5680 C   0  0  0  0  0  0  0  0  0  0  0  0
   -2.1230    0.9920    0.9470 C   0  0  0  0  0  0  0  0  0  0  0  0
   -2.2270    0.9010   -0.5360 C   0  0  1  0  0  0  0  0  0  0  0  0
   -1.0130    0.4950   -1.2360 C   0  0  0  0  0  0  0  0  0  0  0  0
    0.2350    1.2550   -1.2140 C   0  0  0  0  0  0  0  0  0  0  0  0
    0.9510    1.5470   -0.0390 N   0  0  0  0  0  0  0  0  0  0  0  0
    1.8360    0.6910    0.5560 C   0  0  0  0  0  0  0  0  0  0  0  0
    2.2170   -0.9920    0.0560 S   0  0  0  0  0  0  0  0  0  0  0  0
    3.4560   -1.6710    1.1860 C   0  0  0  0  0  0  0  0  0  0  0  0
    4.7570   -0.9960    1.0890 C   0  0  0  0  0  0  0  0  0  0  0  0
    4.9540   -0.0040    1.8350 O   0  0  0  0  0  0  0  0  0  0  0  0
    5.7950   -1.3920    0.2130 N   0  0  0  0  0  0  0  0  0  0  0  0
    7.0000   -0.8150    0.0840 C   0  0  0  0  0  0  0  0  0  0  0  0
    7.7490   -1.4710   -0.8640 C   0  0  0  0  0  0  0  0  0  0  0  0
    6.9860   -2.4700   -1.3260 N   0  0  0  0  0  0  0  0  0  0  0  0
    5.8120   -2.4170   -0.6730 C   0  0  0  0  0  0  0  0  0  0  0  0
    2.3610    1.3630    1.5870 N   0  0  0  0  0  0  0  0  0  0  0  0
    1.8420    2.5730    1.6450 N   0  0  0  0  0  0  0  0  0  0  0  0
    0.9600    2.7200    0.6450 C   0  0  0  0  0  0  0  0  0  0  0  0
    0.2740    3.7610    0.4020 O   0  0  0  0  0  0  0  0  0  0  0  0
   -3.3760   -0.0710   -0.7800 C   0  0  0  0  0  0  0  0  0  0  0  0
   -3.3020   -1.0250   -1.6360 C   0  0  0  0  0  0  0  0  0  0  0  0
   -4.3570   -2.0280   -1.8900 C   0  0  0  0  0  0  0  0  0  0  0  0
  1  2  2  0
  2  3  1  0
  2 24  1  0
  3  4  1  0
  4  5  1  0
  5  6  1  0
  6  7  1  1
  6 24  1  0
  7  8  1  0
  8  9  1  0
  9 10  1  0
  9 22  1  0
 10 11  1  0
 10 20  2  0
 11 12  1  0
 12 13  1  0
 13 14  2  0
 13 15  1  0
 15 16  1  0
 15 19  1  0
 16 17  2  0
 17 18  1  0
 18 19  2  0
 20 21  1  0
 21 22  1  0
 22 23  2  0
 24 25  2  3
 25 26  1  0
M  END
