
     RDKit          3D

 27 29  0  0  0  0  0  0  0  0999 V2000
    3.7600   -1.2100   -2.3190 C   0  0  0  0  0  0  0  0  0  0  0  0
    4.1730   -0.5950   -0.9890 C   0  0  2  0  0  0  0  0  0  0  0  0
    3.9160   -1.5130    0.1340 C   0  0  0  0  0  0  0  0  0  0  0  0
    3.6700    0.7930   -0.9090 C   0  0  0  0  0  0  0  0  0  0  0  0
    2.1920    1.0040   -1.0340 C   0  0  0  0  0  0  0  0  0  0  0  0
    1.4490    0.3080    0.0360 C   0  0  0  0  0  0  0  0  0  0  0  0
   -0.0320    0.5280   -0.0480 C   0  0  0  0  0  0  0  0  0  0  0  0
   -0.4840    1.2140   -0.9880 O   0  0  0  0  0  0  0  0  0  0  0  0
   -0.9160   -0.0170    0.9030 N   0  0  0  0  0  0  0  0  0  0  0  0
   -0.4250   -0.7180    2.1000 C   0  0  0  0  0  0  0  0  0  0  0  0
   -1.0780   -0.0450    3.2780 C   0  0  0  0  0  0  0  0  0  0  0  0
   -2.4870    0.0720    3.1610 O   0  0  0  0  0  0  0  0  0  0  0  0
   -3.1330    0.1290    1.9440 C   0  0  0  0  0  0  0  0  0  0  0  0
   -4.4920    0.2270    1.8090 C   0  0  0  0  0  0  0  0  0  0  0  0
   -5.1030    0.2810    0.5570 C   0  0  0  0  0  0  0  0  0  0  0  0
   -4.2950    0.2340   -0.5570 C   0  0  0  0  0  0  0  0  0  0  0  0
   -2.9090    0.1340   -0.4340 C   0  0  0  0  0  0  0  0  0  0  0  0
   -2.3240    0.0830    0.8090 C   0  0  0  0  0  0  0  0  0  0  0  0
   -4.9260    0.2910   -1.8660 C   0  0  0  0  0  0  0  0  0  0  0  0
   -4.2620   -0.1660   -2.8270 O   0  0  0  0  0  0  0  0  0  0  0  0
   -6.2770    0.8570   -2.0580 C   0  0  0  0  0  0  0  0  0  0  0  0
   -7.0100    1.1390   -0.7990 C   0  0  0  0  0  0  0  0  0  0  0  0
   -6.5480    0.3820    0.3910 C   0  0  0  0  0  0  0  0  0  0  0  0
    5.7190   -0.4640   -1.0920 C   0  0  0  0  0  0  0  0  0  0  0  0
    6.1920    0.1330    0.1710 C   0  0  0  0  0  0  0  0  0  0  0  0
    6.5820   -0.6710    1.2690 N   0  0  0  0  0  0  0  0  0  0  0  0
    6.2470    1.3840    0.2650 O   0  0  0  0  0  0  0  0  0  0  0  0
  2  1  1  6
  2  3  1  0
  2  4  1  0
  2 24  1  0
  4  5  1  0
  5  6  1  0
  6  7  1  0
  7  8  2  0
  7  9  1  0
  9 10  1  0
  9 18  1  0
 10 11  1  0
 11 12  1  0
 12 13  1  0
 13 14  2  0
 13 18  1  0
 14 15  1  0
 15 16  2  0
 15 23  1  0
 16 17  1  0
 16 19  1  0
 17 18  2  0
 19 20  2  0
 19 21  1  0
 21 22  1  0
 22 23  1  0
 24 25  1  0
 25 26  1  0
 25 27  2  0
M  END
