
     RDKit          3D

 26 28  0  0  0  0  0  0  0  0999 V2000
   -2.8820   -5.7860    2.4550 O   0  0  0  0  0  0  0  0  0  0  0  0
   -1.9170   -5.9920    1.2720 S   0  0  0  0  0  0  0  0  0  0  0  0
   -1.5740   -4.4260    0.5180 C   0  0  0  0  0  0  0  0  0  0  0  0
   -1.3130   -4.2580   -0.8190 C   0  0  0  0  0  0  0  0  0  0  0  0
   -1.0970   -2.9190   -1.0310 C   0  0  0  0  0  0  0  0  0  0  0  0
   -1.2360   -2.3040    0.2050 C   0  0  0  0  0  0  0  0  0  0  0  0
   -1.0950   -0.8790    0.4730 C   0  0  0  0  0  0  0  0  0  0  0  0
   -0.8170   -0.0730   -0.4830 N   0  0  0  0  0  0  0  0  0  0  0  0
   -0.6630    1.3070   -0.3190 C   0  0  0  0  0  0  0  0  0  0  0  0
    0.3820    1.7690    0.2710 N   0  0  0  0  0  0  0  0  0  0  0  0
    1.3720    0.9380    0.7550 N   0  0  0  0  0  0  0  0  0  0  0  0
    2.3170    1.4910    1.4780 C   0  0  0  0  0  0  0  0  0  0  0  0
    3.3640    0.6990    2.0070 N   0  0  0  0  0  0  0  0  0  0  0  0
    3.9920   -0.2970    1.2220 C   0  0  0  0  0  0  0  0  0  0  0  0
    3.7370   -0.4660   -0.1110 C   0  0  0  0  0  0  0  0  0  0  0  0
    4.3570   -1.4600   -0.8710 C   0  0  0  0  0  0  0  0  0  0  0  0
    5.2540   -2.2870   -0.2330 C   0  0  0  0  0  0  0  0  0  0  0  0
    5.5190   -2.1230    1.1170 C   0  0  0  0  0  0  0  0  0  0  0  0
    4.9070   -1.1540    1.8350 C   0  0  0  0  0  0  0  0  0  0  0  0
   -1.6280    2.2340   -0.7840 N   0  0  0  0  0  0  0  0  0  0  0  0
   -2.6100    1.7740   -1.7520 C   0  0  0  0  0  0  0  0  0  0  0  0
   -3.4740    2.9380   -2.1510 C   0  0  0  0  0  0  0  0  0  0  0  0
   -4.1260    3.5820   -0.9250 C   0  0  0  0  0  0  0  0  0  0  0  0
   -3.0790    4.0290    0.0490 C   0  0  0  0  0  0  0  0  0  0  0  0
   -1.6910    3.6070   -0.3510 C   0  0  0  0  0  0  0  0  0  0  0  0
   -1.5190   -3.2380    1.0960 O   0  0  0  0  0  0  0  0  0  0  0  0
  1  2  2  0
  2  3  1  0
  3  4  2  0
  3 26  1  0
  4  5  1  0
  5  6  2  0
  6  7  1  0
  6 26  1  0
  7  8  2  3
  8  9  1  0
  9 10  2  3
  9 20  1  0
 10 11  1  0
 11 12  2  3
 12 13  1  0
 13 14  1  0
 14 15  2  0
 14 19  1  0
 15 16  1  0
 16 17  2  0
 17 18  1  0
 18 19  2  0
 20 21  1  0
 20 25  1  0
 21 22  1  0
 22 23  1  0
 23 24  1  0
 24 25  1  0
M  END
