
     RDKit          3D

 25 27  0  0  0  0  0  0  0  0999 V2000
    6.3760    1.4300   -2.3430 C   0  0  0  0  0  0  0  0  0  0  0  0
    6.2580    0.5040   -1.4210 C   0  0  0  0  0  0  0  0  0  0  0  0
    5.9590    0.8430   -0.0210 C   0  0  0  0  0  0  0  0  0  0  0  0
    4.4400    0.1110    0.6090 S   0  0  0  0  0  0  0  0  0  0  0  0
    2.9830    0.7680   -0.1580 C   0  0  0  0  0  0  0  0  0  0  0  0
    2.9900    1.7080   -1.0320 N   0  0  0  0  0  0  0  0  0  0  0  0
    1.6700    0.2220    0.2240 C   0  0  0  0  0  0  0  0  0  0  0  0
    1.4550   -0.7790    1.1340 C   0  0  0  0  0  0  0  0  0  0  0  0
    2.4670   -1.5200    1.9320 C   0  0  0  0  0  0  0  0  0  0  0  0
    0.0660   -0.9650    1.1690 C   0  0  0  0  0  0  0  0  0  0  0  0
   -0.5400   -2.0580    1.9580 C   0  0  0  0  0  0  0  0  0  0  0  0
   -0.5540   -0.1180    0.3280 N   0  0  0  0  0  0  0  0  0  0  0  0
   -1.8240    0.0620   -0.0170 C   0  0  0  0  0  0  0  0  0  0  0  0
   -2.9620   -0.4510    0.6650 C   0  0  0  0  0  0  0  0  0  0  0  0
   -4.0730   -0.6120   -0.1220 C   0  0  0  0  0  0  0  0  0  0  0  0
   -5.2670   -1.1390    0.5390 C   0  0  0  0  0  0  0  0  0  0  0  0
   -4.9680   -2.1780    1.5860 C   0  0  0  0  0  0  0  0  0  0  0  0
   -3.7520   -1.9610    2.2280 O   0  0  0  0  0  0  0  0  0  0  0  0
   -3.2880   -0.6800    2.0740 C   0  0  0  0  0  0  0  0  0  0  0  0
   -2.0560    1.0010   -0.9910 N   0  0  0  0  0  0  0  0  0  0  0  0
   -1.1210    1.7230   -1.5850 C   0  0  0  0  0  0  0  0  0  0  0  0
   -1.4860    2.6400   -2.5560 O   0  0  0  0  0  0  0  0  0  0  0  0
   -2.8010    2.8630   -2.9620 C   0  0  0  0  0  0  0  0  0  0  0  0
    0.1490    1.5240   -1.2090 N   0  0  0  0  0  0  0  0  0  0  0  0
    0.4390    0.6160   -0.2630 C   0  0  0  0  0  0  0  0  0  0  0  0
  1  2  2  0
  2  3  1  0
  3  4  1  0
  4  5  1  0
  5  6  2  0
  5  7  1  0
  7  8  1  0
  7 25  2  0
  8  9  1  0
  8 10  2  0
 10 11  1  0
 10 12  1  0
 12 13  1  0
 12 25  1  0
 13 14  1  0
 13 20  2  0
 14 15  2  0
 14 19  1  0
 15 16  1  0
 16 17  1  0
 17 18  1  0
 18 19  1  0
 20 21  1  0
 21 22  1  0
 21 24  2  0
 22 23  1  0
 24 25  1  0
M  END
