
     RDKit          3D

 11 11  0  0  0  0  0  0  0  0999 V2000
    3.8970    0.7560   -0.4980 O   0  0  0  0  0  0  0  0  0  0  0  0
    2.5870    0.8000    0.0450 C   0  0  0  0  0  0  0  0  0  0  0  0
    2.0840   -0.6120   -0.0060 C   0  0  0  0  0  0  0  0  0  0  0  0
    0.8150   -0.7950    0.4860 O   0  0  0  0  0  0  0  0  0  0  0  0
   -0.0850   -0.0530   -0.2300 C   0  0  0  0  0  0  0  0  0  0  0  0
   -1.4860   -0.2650    0.2760 C   0  0  0  0  0  0  0  0  0  0  0  0
   -1.8390   -1.0930    1.3200 C   0  0  0  0  0  0  0  0  0  0  0  0
   -3.1520   -1.0180    1.4700 O   0  0  0  0  0  0  0  0  0  0  0  0
   -3.6830   -0.2040    0.6020 C   0  0  0  0  0  0  0  0  0  0  0  0
   -2.6560    0.2930   -0.1720 C   0  0  0  0  0  0  0  0  0  0  0  0
   -2.7290    1.1980   -1.2300 O   0  0  0  0  0  0  0  0  0  0  0  0
  1  2  1  0
  2  3  1  0
  3  4  1  0
  4  5  1  0
  5  6  1  0
  6  7  2  0
  6 10  1  0
  7  8  1  0
  8  9  1  0
  9 10  2  0
 10 11  1  0
M  END
