
     RDKit          3D

 10 10  0  0  0  0  0  0  0  0999 V2000
    3.5660   -1.6110    0.2470 O   0  0  0  0  0  0  0  0  0  0  0  0
    3.5720   -0.2390    0.0030 C   0  0  0  0  0  0  0  0  0  0  0  0
    2.3360    0.4230    0.6200 C   0  0  0  0  0  0  0  0  0  0  0  0
    1.0720   -0.1680    0.0240 C   0  0  0  0  0  0  0  0  0  0  0  0
   -0.0130    0.4420    0.5950 O   0  0  0  0  0  0  0  0  0  0  0  0
   -1.2290    0.0410    0.1840 C   0  0  2  0  0  0  0  0  0  0  0  0
   -2.0910    1.1230   -0.4360 C   0  0  0  0  0  0  0  0  0  0  0  0
   -3.4290    0.3820   -0.3910 C   0  0  0  0  0  0  0  0  0  0  0  0
   -3.4350   -0.3630    0.7590 O   0  0  0  0  0  0  0  0  0  0  0  0
   -2.1580   -0.4610    1.2470 C   0  0  0  0  0  0  0  0  0  0  0  0
  1  2  1  0
  2  3  1  0
  3  4  1  0
  4  5  1  0
  6  5  1  1
  6  7  1  0
  6 10  1  0
  7  8  1  0
  8  9  1  0
  9 10  1  0
M  END
