
     RDKit          3D

 19 19  0  0  0  0  0  0  0  0999 V2000
   -0.7940   -0.1180   -2.5090 C   0  0  0  0  0  0  0  0  0  0  0  0
   -0.2460    0.0470   -1.1210 C   0  0  1  0  0  0  0  0  0  0  0  0
    0.0730    1.4190   -0.9760 O   0  0  0  0  0  0  0  0  0  0  0  0
   -1.2790   -0.2540   -0.0560 C   0  0  2  0  0  0  0  0  0  0  0  0
   -1.5110   -1.7100    0.0510 C   0  0  0  0  0  0  0  0  0  0  0  0
   -2.5500   -2.0680    1.1140 C   0  0  0  0  0  0  0  0  0  0  0  0
   -2.7190   -3.4510    1.1600 O   0  0  0  0  0  0  0  0  0  0  0  0
   -2.3630    0.5370   -0.2690 O   0  0  0  0  0  0  0  0  0  0  0  0
   -2.6540    1.4890    0.6330 C   0  0  0  0  0  0  0  0  0  0  0  0
   -3.9080    2.2300    0.1600 C   0  0  0  0  0  0  0  0  0  0  0  0
   -3.7060    2.8160   -1.0690 O   0  0  0  0  0  0  0  0  0  0  0  0
    1.0030   -0.7730   -0.8880 C   0  0  1  0  0  0  0  0  0  0  0  0
    2.0140   -0.4820   -1.7600 O   0  0  0  0  0  0  0  0  0  0  0  0
    2.8740    0.5000   -1.3860 C   0  0  0  0  0  0  0  0  0  0  0  0
    3.7760    0.1130   -0.2200 C   0  0  0  0  0  0  0  0  0  0  0  0
    2.9410    0.3500    1.0350 C   0  0  2  0  0  0  0  0  0  0  0  0
    3.7540   -0.0690    2.2520 C   0  0  0  0  0  0  0  0  0  0  0  0
    4.0400   -1.4340    2.0760 O   0  0  0  0  0  0  0  0  0  0  0  0
    1.4580   -0.6720    0.8500 S   0  0  0  0  0  0  0  0  0  0  0  0
  2  1  1  6
  2  3  1  0
  2  4  1  0
  2 12  1  0
  4  5  1  6
  4  8  1  0
  5  6  1  0
  6  7  1  0
  8  9  1  0
  9 10  1  0
 10 11  1  0
 12 13  1  6
 12 19  1  0
 13 14  1  0
 14 15  1  0
 15 16  1  0
 16 17  1  1
 16 19  1  0
 17 18  1  0
M  END
