
     RDKit          3D

 11 11  0  0  0  0  0  0  0  0999 V2000
    0.5340   -1.3510   -0.9910 O   0  0  0  0  0  0  0  0  0  0  0  0
    0.1940   -0.3400   -0.3290 C   0  0  0  0  0  0  0  0  0  0  0  0
    1.0140    0.0840    0.7090 O   0  0  0  0  0  0  0  0  0  0  0  0
    2.2100   -0.5440    1.0730 C   0  0  0  0  0  0  0  0  0  0  0  0
    3.2320   -0.5770   -0.0390 C   0  0  0  0  0  0  0  0  0  0  0  0
    3.5110    0.7560   -0.3890 O   0  0  0  0  0  0  0  0  0  0  0  0
   -1.0220    0.4500   -0.5590 C   0  0  2  0  0  0  0  0  0  0  0  0
   -1.8470    0.3900    0.7360 C   0  0  0  0  0  0  0  0  0  0  0  0
   -3.2070    0.7010    0.1660 C   0  0  0  0  0  0  0  0  0  0  0  0
   -3.2040    0.3780   -1.1620 O   0  0  0  0  0  0  0  0  0  0  0  0
   -1.9980   -0.1810   -1.5000 C   0  0  0  0  0  0  0  0  0  0  0  0
  1  2  2  0
  2  3  1  0
  7  2  1  1
  3  4  1  0
  4  5  1  0
  5  6  1  0
  7  8  1  0
  7 11  1  0
  8  9  1  0
  9 10  1  0
 10 11  1  0
M  END
