
     RDKit          3D

 11 11  0  0  0  0  0  0  0  0999 V2000
   -3.1090   -1.2340    0.1150 O   0  0  0  0  0  0  0  0  0  0  0  0
   -2.4440   -0.2080   -0.1280 C   0  0  0  0  0  0  0  0  0  0  0  0
   -3.1170    0.9390   -0.4870 O   0  0  0  0  0  0  0  0  0  0  0  0
   -0.9970   -0.2390   -0.0300 C   0  0  0  0  0  0  0  0  0  0  0  0
   -0.2990   -1.3750    0.3270 C   0  0  0  0  0  0  0  0  0  0  0  0
    1.0770   -1.3860    0.4150 C   0  0  0  0  0  0  0  0  0  0  0  0
    1.8290   -0.2610    0.1500 C   0  0  0  0  0  0  0  0  0  0  0  0
    3.2230   -0.2960    0.2450 O   0  0  0  0  0  0  0  0  0  0  0  0
    1.1530    0.8830   -0.2090 C   0  0  0  0  0  0  0  0  0  0  0  0
    1.8600    2.0460   -0.4880 O   0  0  0  0  0  0  0  0  0  0  0  0
   -0.2230    0.8920   -0.2960 C   0  0  0  0  0  0  0  0  0  0  0  0
  1  2  2  0
  2  3  1  0
  2  4  1  0
  4  5  2  0
  4 11  1  0
  5  6  1  0
  6  7  2  0
  7  8  1  0
  7  9  1  0
  9 10  1  0
  9 11  2  0
M  END
