
     RDKit          3D

 11 10  0  0  0  0  0  0  0  0999 V2000
   -2.0040   -1.9090   -0.8500 C   0  0  0  0  0  0  0  0  0  0  0  0
   -1.0720   -0.8580   -1.3570 C   0  0  0  0  0  0  0  0  0  0  0  0
   -0.5700    0.0480   -0.2840 C   0  0  0  0  0  0  0  0  0  0  0  0
   -0.8310    1.3290   -0.3890 C   0  0  0  0  0  0  0  0  0  0  0  0
   -0.3690    2.2740    0.6280 C   0  0  0  0  0  0  0  0  0  0  0  0
   -1.4350    2.9370    1.2180 O   0  0  0  0  0  0  0  0  0  0  0  0
    0.1450   -0.3930    0.7980 O   0  0  0  0  0  0  0  0  0  0  0  0
    1.3470   -1.0950    0.7550 C   0  0  0  0  0  0  0  0  0  0  0  0
    2.4400   -0.3550    0.0780 C   0  0  0  0  0  0  0  0  0  0  0  0
    2.3250    0.7830   -0.4130 O   0  0  0  0  0  0  0  0  0  0  0  0
    3.6760   -0.9830   -0.0090 O   0  0  0  0  0  0  0  0  0  0  0  0
  1  2  1  0
  2  3  1  0
  3  4  2  3
  3  7  1  0
  4  5  1  0
  5  6  1  0
  7  8  1  0
  8  9  1  0
  9 10  2  0
  9 11  1  0
M  END
