
     RDKit          3D

 11 10  0  0  0  0  0  0  0  0999 V2000
   -2.2670    1.7440   -0.8050 C   0  0  0  0  0  0  0  0  0  0  0  0
   -2.4660    0.4950   -0.4790 C   0  0  0  0  0  0  0  0  0  0  0  0
   -3.0050   -0.3850   -1.4090 O   0  0  0  0  0  0  0  0  0  0  0  0
   -2.1040    0.0550    0.8980 C   0  0  0  0  0  0  0  0  0  0  0  0
   -1.0650   -1.0330    0.8300 C   0  0  0  0  0  0  0  0  0  0  0  0
    0.1750   -0.5770    0.1530 C   0  0  0  0  0  0  0  0  0  0  0  0
    0.2180    0.6080   -0.2680 O   0  0  0  0  0  0  0  0  0  0  0  0
    1.2790   -1.3670   -0.0430 O   0  0  0  0  0  0  0  0  0  0  0  0
    2.4750   -1.0390   -0.6540 C   0  0  0  0  0  0  0  0  0  0  0  0
    3.2950    0.0380   -0.0510 C   0  0  0  0  0  0  0  0  0  0  0  0
    2.6850    1.2770    0.0260 O   0  0  0  0  0  0  0  0  0  0  0  0
  1  2  2  0
  2  3  1  0
  2  4  1  0
  4  5  1  0
  5  6  1  0
  6  7  2  0
  6  8  1  0
  8  9  1  0
  9 10  1  0
 10 11  1  0
M  END
