
     RDKit          3D

 11 12  0  0  0  0  0  0  0  0999 V2000
   -0.4710   -3.1000    0.0540 Cl  0  0  0  0  0  0  0  0  0  0  0  0
   -0.7010   -1.3850    0.0720 C   0  0  0  0  0  0  0  0  0  0  0  0
   -1.9670   -0.8530    0.1950 C   0  0  0  0  0  0  0  0  0  0  0  0
   -2.0790    0.4750    0.2030 N   0  0  0  0  0  0  0  0  0  0  0  0
   -1.0190    1.3090    0.0970 C   0  0  0  0  0  0  0  0  0  0  0  0
   -1.1980    3.0520    0.1100 Cl  0  0  0  0  0  0  0  0  0  0  0  0
    0.2650    0.8130   -0.0280 C   0  0  0  0  0  0  0  0  0  0  0  0
    1.4940    1.3920   -0.1500 N   0  0  0  0  0  0  0  0  0  0  0  0
    2.3870    0.4080   -0.2350 N   0  0  0  0  0  0  0  0  0  0  0  0
    1.7650   -0.7790   -0.1710 C   0  0  0  0  0  0  0  0  0  0  0  0
    0.4110   -0.5580   -0.0390 C   0  0  0  0  0  0  0  0  0  0  0  0
  1  2  1  0
  2  3  2  0
  2 11  1  0
  3  4  1  0
  4  5  2  0
  5  6  1  0
  5  7  1  0
  7  8  1  0
  7 11  2  0
  8  9  1  0
  9 10  2  0
 10 11  1  0
M  END
