
     RDKit          3D

 11 12  0  0  0  0  0  0  0  0999 V2000
   -0.9210    3.1460   -0.0100 Cl  0  0  0  0  0  0  0  0  0  0  0  0
    0.0100    1.6700   -0.0120 C   0  0  0  0  0  0  0  0  0  0  0  0
    1.3450    1.6730   -0.0290 N   0  0  0  0  0  0  0  0  0  0  0  0
    2.0300    0.5210   -0.0300 C   0  0  0  0  0  0  0  0  0  0  0  0
    1.4000   -0.6960   -0.0130 C   0  0  0  0  0  0  0  0  0  0  0  0
    2.2730   -2.2130   -0.0140 Cl  0  0  0  0  0  0  0  0  0  0  0  0
    0.0260   -0.7190    0.0050 C   0  0  0  0  0  0  0  0  0  0  0  0
   -0.9150   -1.6830    0.0240 N   0  0  0  0  0  0  0  0  0  0  0  0
   -2.1200   -1.1500    0.0350 N   0  0  0  0  0  0  0  0  0  0  0  0
   -2.0480    0.1920    0.0250 C   0  0  0  0  0  0  0  0  0  0  0  0
   -0.6780    0.4630    0.0060 C   0  0  0  0  0  0  0  0  0  0  0  0
  1  2  1  0
  2  3  2  0
  2 11  1  0
  3  4  1  0
  4  5  2  0
  5  6  1  0
  5  7  1  0
  7  8  1  0
  7 11  2  0
  8  9  1  0
  9 10  2  0
 10 11  1  0
M  END
