
     RDKit          3D

 11 12  0  0  0  0  0  0  0  0999 V2000
    3.7870   -0.3220   -0.0890 Cl  0  0  0  0  0  0  0  0  0  0  0  0
    2.0210   -0.3950   -0.0050 C   0  0  0  0  0  0  0  0  0  0  0  0
    1.4000   -1.5590    0.2450 N   0  0  0  0  0  0  0  0  0  0  0  0
    0.0670   -1.6810    0.3220 C   0  0  0  0  0  0  0  0  0  0  0  0
   -0.7070   -0.5630    0.1370 C   0  0  0  0  0  0  0  0  0  0  0  0
   -2.0910   -0.3510    0.1520 C   0  0  0  0  0  0  0  0  0  0  0  0
   -2.2880    0.9500   -0.0920 N   0  0  0  0  0  0  0  0  0  0  0  0
   -1.1240    1.5450   -0.2540 N   0  0  0  0  0  0  0  0  0  0  0  0
   -0.1310    0.6410   -0.1190 C   0  0  0  0  0  0  0  0  0  0  0  0
    1.2420    0.7170   -0.1880 C   0  0  0  0  0  0  0  0  0  0  0  0
    1.9910    2.2540   -0.5150 Cl  0  0  0  0  0  0  0  0  0  0  0  0
  1  2  1  0
  2  3  2  0
  2 10  1  0
  3  4  1  0
  4  5  2  0
  5  6  1  0
  5  9  1  0
  6  7  2  0
  7  8  1  0
  8  9  1  0
  9 10  2  0
 10 11  1  0
M  END
