
     RDKit          3D

 11 12  0  0  0  0  0  0  0  0999 V2000
   -1.9880   -1.4290    0.6770 C   0  0  0  0  0  0  0  0  0  0  0  0
   -1.3520   -0.3780    0.1410 C   0  0  0  0  0  0  0  0  0  0  0  0
    0.0500   -0.1560    0.1340 N   0  0  0  0  0  0  0  0  0  0  0  0
    1.3100   -0.7340    0.5640 C   0  0  0  0  0  0  0  0  0  0  0  0
    2.3650    0.1080   -0.1110 C   0  0  0  0  0  0  0  0  0  0  0  0
    1.6780    1.3010   -0.5480 N   0  0  0  0  0  0  0  0  0  0  0  0
    0.2660    1.0780   -0.5410 C   0  0  0  0  0  0  0  0  0  0  0  0
   -0.8500    1.5870   -0.9210 N   0  0  0  0  0  0  0  0  0  0  0  0
   -1.9750    0.7680   -0.5560 C   0  0  2  0  0  0  0  0  0  0  0  0
   -3.0380    1.6080    0.5940 Cl  0  0  0  0  0  0  0  0  0  0  0  0
   -2.8820    0.2040   -1.9740 Cl  0  0  0  0  0  0  0  0  0  0  0  0
  1  2  2  0
  2  3  1  0
  2  9  1  0
  3  4  1  0
  3  7  1  0
  4  5  1  0
  5  6  1  0
  6  7  1  0
  7  8  2  0
  8  9  1  0
  9 10  1  1
  9 11  1  0
M  END
