
     RDKit          3D

 10 11  0  0  0  0  0  0  0  0999 V2000
   -3.9650   -0.4060   -0.4850 Cl  0  0  0  0  0  0  0  0  0  0  0  0
   -2.2320   -0.1550   -0.2670 C   0  0  0  0  0  0  0  0  0  0  0  0
   -1.3880   -1.1710   -0.3140 C   0  0  0  0  0  0  0  0  0  0  0  0
    0.0660   -0.9480   -0.1290 C   0  0  0  0  0  0  0  0  0  0  0  0
    1.0610   -1.7820   -0.1350 N   0  0  0  0  0  0  0  0  0  0  0  0
    2.2540   -1.1020    0.0830 N   0  0  0  0  0  0  0  0  0  0  0  0
    1.9700    0.2910    0.2400 C   0  0  0  0  0  0  0  0  0  0  0  0
    0.5390    0.3660    0.0980 N   0  0  0  0  0  0  0  0  0  0  0  0
   -0.4210    1.4220    0.1380 C   0  0  0  0  0  0  0  0  0  0  0  0
   -1.7100    1.1860   -0.0310 C   0  0  0  0  0  0  0  0  0  0  0  0
  1  2  1  0
  2  3  2  0
  2 10  1  0
  3  4  1  0
  4  5  2  0
  4  8  1  0
  5  6  1  0
  6  7  1  0
  7  8  1  0
  8  9  1  0
  9 10  2  0
M  END
