
     RDKit          3D

 11 12  0  0  0  0  0  0  0  0999 V2000
    3.5410    0.9620    0.2270 Cl  0  0  0  0  0  0  0  0  0  0  0  0
    1.9780    0.1840    0.1320 C   0  0  0  0  0  0  0  0  0  0  0  0
    1.8750   -1.1900    0.1430 C   0  0  0  0  0  0  0  0  0  0  0  0
    0.6630   -1.7500    0.0690 N   0  0  0  0  0  0  0  0  0  0  0  0
   -0.4850   -1.0490   -0.0190 C   0  0  0  0  0  0  0  0  0  0  0  0
   -1.7880   -1.3630   -0.1030 N   0  0  0  0  0  0  0  0  0  0  0  0
   -2.5490   -0.2880   -0.1690 N   0  0  0  0  0  0  0  0  0  0  0  0
   -1.7200    0.7670   -0.1270 C   0  0  0  0  0  0  0  0  0  0  0  0
   -0.4190    0.3220   -0.0330 C   0  0  0  0  0  0  0  0  0  0  0  0
    0.8270    0.9390    0.0430 C   0  0  0  0  0  0  0  0  0  0  0  0
    0.8880    2.6860    0.0240 Cl  0  0  0  0  0  0  0  0  0  0  0  0
  1  2  1  0
  2  3  1  0
  2 10  2  0
  3  4  2  0
  4  5  1  0
  5  6  2  0
  5  9  1  0
  6  7  1  0
  7  8  1  0
  8  9  2  0
  9 10  1  0
 10 11  1  0
M  END
