
     RDKit          3D

 11 12  0  0  0  0  0  0  0  0999 V2000
    3.5900    0.5610   -0.0710 Cl  0  0  0  0  0  0  0  0  0  0  0  0
    1.9030    0.0420   -0.0240 C   0  0  0  0  0  0  0  0  0  0  0  0
    1.5580   -1.2960    0.0530 C   0  0  0  0  0  0  0  0  0  0  0  0
    0.2710   -1.6850    0.0890 N   0  0  0  0  0  0  0  0  0  0  0  0
   -0.7470   -0.8230    0.0530 C   0  0  0  0  0  0  0  0  0  0  0  0
   -2.1220   -0.8990    0.0730 C   0  0  0  0  0  0  0  0  0  0  0  0
   -2.6130    0.3520    0.0100 N   0  0  0  0  0  0  0  0  0  0  0  0
   -1.5960    1.2200   -0.0480 N   0  0  0  0  0  0  0  0  0  0  0  0
   -0.4490    0.5210   -0.0230 C   0  0  0  0  0  0  0  0  0  0  0  0
    0.8600    0.9470   -0.0610 C   0  0  0  0  0  0  0  0  0  0  0  0
    1.2800    2.6420   -0.1580 Cl  0  0  0  0  0  0  0  0  0  0  0  0
  1  2  1  0
  2  3  2  0
  2 10  1  0
  3  4  1  0
  4  5  2  0
  5  6  1  0
  5  9  1  0
  6  7  2  0
  7  8  1  0
  8  9  1  0
  9 10  2  0
 10 11  1  0
M  END
