
     RDKit          3D

 21 22  0  0  0  0  0  0  0  0999 V2000
   -3.9940    2.6530   -1.6100 O   0  0  0  0  0  0  0  0  0  0  0  0
   -2.8070    2.7620   -0.9010 C   0  0  0  0  0  0  0  0  0  0  0  0
   -2.5390    1.4440   -0.2430 C   0  0  1  0  0  0  0  0  0  0  0  0
   -1.3610    1.4330    0.5040 O   0  0  0  0  0  0  0  0  0  0  0  0
   -1.0280    0.0770    0.6630 C   0  0  1  0  0  0  0  0  0  0  0  0
    0.2690   -0.1310    1.0290 O   0  0  0  0  0  0  0  0  0  0  0  0
    1.0360   -0.7900    0.0790 C   0  0  2  0  0  0  0  0  0  0  0  0
    1.7100   -2.0230    0.5940 C   0  0  0  0  0  0  0  0  0  0  0  0
    3.1430   -1.9300    0.6050 N   0  0  0  0  0  0  0  0  0  0  0  0
    3.7060   -1.6660   -0.6990 C   0  0  0  0  0  0  0  0  0  0  0  0
    2.9880   -0.5290   -1.3450 C   0  0  2  0  0  0  0  0  0  0  0  0
    3.9250    0.4420   -2.0290 C   0  0  0  0  0  0  0  0  0  0  0  0
    4.8270    1.0000   -1.1310 O   0  0  0  0  0  0  0  0  0  0  0  0
    2.1510    0.1790   -0.3220 C   0  0  1  0  0  0  0  0  0  0  0  0
    1.6040    1.3320   -0.8830 O   0  0  0  0  0  0  0  0  0  0  0  0
   -2.0370   -0.6460    1.5260 C   0  0  2  0  0  0  0  0  0  0  0  0
   -1.7370   -2.0070    1.4590 O   0  0  0  0  0  0  0  0  0  0  0  0
   -3.4140   -0.4830    0.9040 C   0  0  1  0  0  0  0  0  0  0  0  0
   -4.4000   -1.0140    1.7270 O   0  0  0  0  0  0  0  0  0  0  0  0
   -3.6340    1.0070    0.6890 C   0  0  2  0  0  0  0  0  0  0  0  0
   -4.9010    1.2790    0.2000 O   0  0  0  0  0  0  0  0  0  0  0  0
  1  2  1  0
  3  2  1  1
  3  4  1  0
  3 20  1  0
  4  5  1  0
  5  6  1  1
  5 16  1  0
  7  6  1  1
  7  8  1  0
  7 14  1  0
  8  9  1  0
  9 10  1  0
 10 11  1  0
 11 12  1  1
 11 14  1  0
 12 13  1  0
 14 15  1  6
 16 17  1  6
 16 18  1  0
 18 19  1  1
 18 20  1  0
 20 21  1  6
M  CHG  1   9   1
M  END
