
     RDKit          3D

 26 29  0  0  0  0  0  0  0  0999 V2000
   -4.4820    3.4350    0.4040 C   0  0  0  0  0  0  0  0  0  0  0  0
   -3.3210    2.6750    0.5280 O   0  0  0  0  0  0  0  0  0  0  0  0
   -3.4860    1.3810    0.0540 C   0  0  1  0  0  0  0  0  0  0  0  0
   -2.4150    1.0990   -1.0130 C   0  0  0  0  0  0  0  0  0  0  0  0
   -1.7310   -0.2090   -0.5660 C   0  0  2  0  0  0  0  0  0  0  0  0
   -0.5250    0.1960    0.2210 C   0  0  0  0  0  0  0  0  0  0  0  0
    0.7580    0.1380   -0.5690 C   0  0  1  0  0  0  0  0  0  0  0  0
    1.8940    0.3700    0.4070 C   0  0  0  0  0  0  0  0  0  0  0  0
    3.2180    0.3330   -0.2690 C   0  0  0  0  0  0  0  0  0  0  0  0
    3.3020    0.1310   -1.4900 O   0  0  0  0  0  0  0  0  0  0  0  0
    4.3330    0.5330    0.5220 O   0  0  0  0  0  0  0  0  0  0  0  0
    5.6160    0.5150   -0.0330 C   0  0  2  0  0  0  0  0  0  0  0  0
    6.5240   -0.4890    0.6590 C   0  0  0  0  0  0  0  0  0  0  0  0
    7.8340    0.2200    0.6680 C   0  0  0  0  0  0  0  0  0  0  0  0
    7.6330    1.5560    0.4850 O   0  0  0  0  0  0  0  0  0  0  0  0
    6.3060    1.8140    0.3020 C   0  0  0  0  0  0  0  0  0  0  0  0
    0.9910   -1.1930   -1.2240 C   0  0  0  0  0  0  0  0  0  0  0  0
   -0.2900   -1.9690   -1.4300 C   0  0  0  0  0  0  0  0  0  0  0  0
   -1.3520   -0.9390   -1.8080 C   0  0  1  0  0  0  0  0  0  0  0  0
   -2.4790   -1.6730   -2.4560 C   0  0  0  0  0  0  0  0  0  0  0  0
   -2.8040   -0.7950    0.2300 C   0  0  1  0  0  0  0  0  0  0  0  0
   -3.9430   -1.0340   -0.5180 O   0  0  0  0  0  0  0  0  0  0  0  0
   -2.5820   -1.8320    1.2020 C   0  0  0  0  0  0  0  0  0  0  0  0
   -3.6700   -1.5630    2.2550 C   0  0  0  0  0  0  0  0  0  0  0  0
   -4.2510   -0.1850    1.8970 C   0  0  0  0  0  0  0  0  0  0  0  0
   -3.1440    0.4190    1.1250 C   0  0  2  0  0  0  0  0  0  0  0  0
  1  2  1  0
  3  2  1  1
  3  4  1  0
  3 26  1  0
  5  4  1  6
  5  6  1  0
  5 19  1  0
  5 21  1  0
  6  7  1  0
  7  8  1  1
  7 17  1  0
  8  9  1  0
  9 10  2  0
  9 11  1  0
 12 11  1  1
 12 13  1  0
 12 16  1  0
 13 14  1  0
 14 15  1  0
 15 16  1  0
 17 18  1  0
 18 19  1  0
 19 20  1  1
 21 22  1  6
 21 23  1  0
 21 26  1  0
 23 24  1  0
 24 25  1  0
 26 25  1  1
M  END
