
     RDKit          3D

 27 30  0  0  0  0  0  0  0  0999 V2000
   -1.7340    2.5700    0.0560 C   0  0  0  0  0  0  0  0  0  0  0  0
   -2.4600    1.6570    0.6560 C   0  0  0  0  0  0  0  0  0  0  0  0
   -2.4310    0.2660    0.1850 C   0  0  0  0  0  0  0  0  0  0  0  0
   -3.2720   -0.5140    0.8920 C   0  0  0  0  0  0  0  0  0  0  0  0
   -3.6000   -1.9170    0.8110 C   0  0  0  0  0  0  0  0  0  0  0  0
   -3.2600   -2.7670   -0.1380 C   0  0  0  0  0  0  0  0  0  0  0  0
   -2.4700   -2.5050   -1.3330 C   0  0  0  0  0  0  0  0  0  0  0  0
   -1.8040   -1.3630   -1.6130 C   0  0  0  0  0  0  0  0  0  0  0  0
   -1.1190   -1.5020   -2.9210 C   0  0  0  0  0  0  0  0  0  0  0  0
   -1.6830   -2.1720   -3.9090 C   0  0  0  0  0  0  0  0  0  0  0  0
    0.1570   -0.8770   -3.0020 N   0  0  0  0  0  0  0  0  0  0  0  0
    0.6010   -0.1660   -1.8220 C   0  0  0  0  0  0  0  0  0  0  0  0
    1.9380    0.1870   -1.5090 C   0  0  0  0  0  0  0  0  0  0  0  0
    3.0090    0.1810   -2.4140 C   0  0  0  0  0  0  0  0  0  0  0  0
    3.9390    0.1930   -3.2140 N   0  0  0  0  0  0  0  0  0  0  0  0
    1.9000    0.5010   -0.2070 N   0  0  0  0  0  0  0  0  0  0  0  0
    0.6560    0.3740    0.3010 C   0  0  0  0  0  0  0  0  0  0  0  0
    0.2910    0.6090    1.7460 C   0  0  0  0  0  0  0  0  0  0  0  0
    1.4220    0.2050    2.5550 N   0  0  0  0  0  0  0  0  0  0  0  0
    2.6650    0.8450    2.6290 C   0  0  0  0  0  0  0  0  0  0  0  0
    2.9570    2.0650    2.0280 C   0  0  0  0  0  0  0  0  0  0  0  0
    4.2000    2.5810    2.1480 N   0  0  0  0  0  0  0  0  0  0  0  0
    5.1950    1.9960    2.8180 C   0  0  0  0  0  0  0  0  0  0  0  0
    4.9330    0.8020    3.4170 N   0  0  0  0  0  0  0  0  0  0  0  0
    3.6960    0.2540    3.3160 C   0  0  0  0  0  0  0  0  0  0  0  0
   -0.1140   -0.0250   -0.7030 N   0  0  0  0  0  0  0  0  0  0  0  0
   -1.5870   -0.1400   -0.8840 C   0  0  2  0  0  0  0  0  0  0  0  0
  1  2  2  0
  2  3  1  0
  3  4  2  0
  3 27  1  0
  4  5  1  0
  5  6  2  0
  6  7  1  0
  7  8  2  0
  8  9  1  0
  8 27  1  0
  9 10  2  0
  9 11  1  0
 11 12  1  0
 12 13  2  0
 12 26  1  0
 13 14  1  0
 13 16  1  0
 14 15  3  0
 16 17  2  0
 17 18  1  0
 17 26  1  0
 18 19  1  0
 19 20  1  0
 20 21  2  0
 20 25  1  0
 21 22  1  0
 22 23  2  0
 23 24  1  0
 24 25  2  0
 27 26  1  1
M  END
