
     RDKit          3D

 26 28  0  0  0  0  0  0  0  0999 V2000
    1.0180   -3.7180   -0.3030 C   0  0  0  0  0  0  0  0  0  0  0  0
    1.0360   -2.2730    0.2090 C   0  0  1  0  0  0  0  0  0  0  0  0
    1.6230   -1.4400   -0.9050 C   0  0  0  0  0  0  0  0  0  0  0  0
    1.6120   -0.0200   -0.5150 C   0  0  2  0  0  0  0  0  0  0  0  0
    3.0350    0.3520   -0.0680 C   0  0  1  0  0  0  0  0  0  0  0  0
    3.4330   -0.4290    1.0140 O   0  0  0  0  0  0  0  0  0  0  0  0
    4.0360    0.2090   -1.1490 C   0  0  0  0  0  0  0  0  0  0  0  0
    5.2100    1.0390   -0.6150 C   0  0  0  0  0  0  0  0  0  0  0  0
    4.5210    2.2590   -0.1000 C   0  0  0  0  0  0  0  0  0  0  0  0
    3.1320    1.7930    0.3350 C   0  0  2  0  0  0  0  0  0  0  0  0
    3.0650    1.9380    1.7050 O   0  0  0  0  0  0  0  0  0  0  0  0
    0.6820    0.3610    0.5900 C   0  0  0  0  0  0  0  0  0  0  0  0
   -0.6360   -0.4210    0.6310 C   0  0  1  0  0  0  0  0  0  0  0  0
   -0.9410   -0.5090    2.1400 C   0  0  0  0  0  0  0  0  0  0  0  0
    0.1600   -1.1980    2.7270 O   0  0  0  0  0  0  0  0  0  0  0  0
   -1.6170    0.3790   -0.1390 C   0  0  2  0  0  0  0  0  0  0  0  0
   -0.8770    0.5720   -1.3800 O   0  0  0  0  0  0  0  0  0  0  0  0
   -1.7250    1.7600    0.4590 C   0  0  0  0  0  0  0  0  0  0  0  0
   -3.1110    2.1590    0.9010 C   0  0  0  0  0  0  0  0  0  0  0  0
   -4.1450    1.9760   -0.1740 C   0  0  0  0  0  0  0  0  0  0  0  0
   -3.5530    1.1610   -1.2680 C   0  0  0  0  0  0  0  0  0  0  0  0
   -2.8840   -0.1060   -0.6550 C   0  0  1  0  0  0  0  0  0  0  0  0
   -2.7310   -0.9750   -1.9390 C   0  0  0  0  0  0  0  0  0  0  0  0
   -3.8990   -0.8100    0.1070 C   0  0  0  0  0  0  0  0  0  0  0  0
   -3.5270   -2.0260    0.6580 O   0  0  0  0  0  0  0  0  0  0  0  0
   -0.4450   -1.8450    0.2150 C   0  0  0  0  0  0  0  0  0  0  0  0
  2  1  1  6
  2  3  1  0
  2 26  1  0
  4  3  1  1
  4  5  1  0
  4 12  1  0
  5  6  1  1
  5  7  1  0
  5 10  1  0
  7  8  1  0
  8  9  1  0
  9 10  1  0
 10 11  1  1
 12 13  1  0
 13 14  1  1
 13 16  1  0
 13 26  1  0
 14 15  1  0
 16 17  1  6
 16 18  1  0
 16 22  1  0
 18 19  1  0
 19 20  1  0
 20 21  1  0
 21 22  1  0
 22 23  1  6
 22 24  1  0
 24 25  1  0
M  END
