
     RDKit          3D

 27 30  0  0  0  0  0  0  0  0999 V2000
    6.0550    0.3890   -1.4250 C   0  0  0  0  0  0  0  0  0  0  0  0
    4.5550    0.5760   -1.6690 C   0  0  0  0  0  0  0  0  0  0  0  0
    3.9390   -0.8150   -1.5610 C   0  0  0  0  0  0  0  0  0  0  0  0
    4.2150   -1.3200   -0.2270 N   0  0  0  0  0  0  0  0  0  0  0  0
    5.3070   -2.0490    0.1420 C   0  0  0  0  0  0  0  0  0  0  0  0
    5.1780   -2.3190    1.4690 C   0  0  0  0  0  0  0  0  0  0  0  0
    4.0260   -1.7530    1.8600 N   0  0  0  0  0  0  0  0  0  0  0  0
    3.4270   -1.1380    0.8290 C   0  0  0  0  0  0  0  0  0  0  0  0
    2.1630   -0.4300    0.9310 C   0  0  0  0  0  0  0  0  0  0  0  0
    1.4970    0.2120   -0.0460 N   0  0  0  0  0  0  0  0  0  0  0  0
    0.3570    0.7560    0.4120 C   0  0  0  0  0  0  0  0  0  0  0  0
    0.2820    0.4520    1.7450 C   0  0  0  0  0  0  0  0  0  0  0  0
    1.4060   -0.2770    2.0320 N   0  0  0  0  0  0  0  0  0  0  0  0
   -0.7540    0.7980    2.7220 C   0  0  0  0  0  0  0  0  0  0  0  0
   -1.7780   -0.2950    2.9900 C   0  0  0  0  0  0  0  0  0  0  0  0
   -1.9650   -1.2250    1.8400 C   0  0  0  0  0  0  0  0  0  0  0  0
   -2.6550   -0.7870    0.7060 N   0  0  0  0  0  0  0  0  0  0  0  0
   -3.5560    0.2770    0.7420 C   0  0  0  0  0  0  0  0  0  0  0  0
   -4.4050    0.4710   -0.4620 C   0  0  0  0  0  0  0  0  0  0  0  0
   -5.9010    0.3780   -0.3620 C   0  0  0  0  0  0  0  0  0  0  0  0
   -3.9240    0.7370   -1.6980 C   0  0  0  0  0  0  0  0  0  0  0  0
   -4.7020    0.9380   -2.9210 C   0  0  0  0  0  0  0  0  0  0  0  0
   -3.8390    1.1640   -3.9110 C   0  0  0  0  0  0  0  0  0  0  0  0
   -2.5740    1.1110   -3.3500 N   0  0  0  0  0  0  0  0  0  0  0  0
   -2.5430    0.8710   -2.0790 C   0  0  0  0  0  0  0  0  0  0  0  0
   -1.3510    0.7940   -1.3240 N   0  0  0  0  0  0  0  0  0  0  0  0
   -0.6520    1.5490   -0.3680 C   0  0  0  0  0  0  0  0  0  0  0  0
  1  2  1  0
  2  3  1  0
  3  4  1  0
  4  5  1  0
  4  8  1  0
  5  6  2  0
  6  7  1  0
  7  8  2  0
  8  9  1  0
  9 10  2  0
  9 13  1  0
 10 11  1  0
 11 12  2  0
 11 27  1  0
 12 13  1  0
 12 14  1  0
 14 15  1  0
 15 16  1  0
 16 17  1  0
 17 18  1  0
 18 19  1  0
 19 20  1  0
 19 21  2  0
 21 22  1  0
 21 25  1  0
 22 23  2  0
 23 24  1  0
 24 25  2  0
 25 26  1  0
 26 27  1  0
M  END
