
     RDKit          3D

 26 28  0  0  0  0  0  0  0  0999 V2000
    2.4200    2.5620    2.0050 C   0  0  0  0  0  0  0  0  0  0  0  0
    2.2960    1.2650    1.5090 O   0  0  0  0  0  0  0  0  0  0  0  0
    3.1670    1.0120    0.4540 C   0  0  1  0  0  0  0  0  0  0  0  0
    4.1500   -0.0290    0.8920 C   0  0  0  0  0  0  0  0  0  0  0  0
    4.9530   -0.5820   -0.2810 C   0  0  0  0  0  0  0  0  0  0  0  0
    4.3740   -1.7830   -0.6450 O   0  0  0  0  0  0  0  0  0  0  0  0
    3.9480   -1.6280   -1.9860 C   0  0  0  0  0  0  0  0  0  0  0  0
    2.4590   -1.4690   -2.0650 C   0  0  2  0  0  0  0  0  0  0  0  0
    2.1470   -0.9450   -3.3140 O   0  0  0  0  0  0  0  0  0  0  0  0
    1.8820   -0.6490   -0.9360 C   0  0  2  0  0  0  0  0  0  0  0  0
    0.3700   -0.7140   -1.0210 C   0  0  2  0  0  0  0  0  0  0  0  0
   -0.0000   -0.1800   -2.2570 O   0  0  0  0  0  0  0  0  0  0  0  0
   -0.2650   -0.0380    0.1200 C   0  0  0  0  0  0  0  0  0  0  0  0
   -1.7790   -0.0500    0.1380 C   0  0  2  0  0  0  0  0  0  0  0  0
   -2.2660    0.6160   -1.0900 C   0  0  0  0  0  0  0  0  0  0  0  0
   -3.5800    1.2960   -1.0130 C   0  0  0  0  0  0  0  0  0  0  0  0
   -3.8160    2.1580    0.1800 C   0  0  0  0  0  0  0  0  0  0  0  0
   -2.5750    2.1780    1.0070 C   0  0  0  0  0  0  0  0  0  0  0  0
   -2.1690    0.7940    1.3530 C   0  0  2  0  0  0  0  0  0  0  0  0
   -1.0880    0.9040    2.2530 O   0  0  0  0  0  0  0  0  0  0  0  0
   -3.2580    0.0730    2.0650 C   0  0  0  0  0  0  0  0  0  0  0  0
   -3.6230   -1.1410    1.2510 C   0  0  0  0  0  0  0  0  0  0  0  0
   -2.3480   -1.4030    0.4210 C   0  0  2  0  0  0  0  0  0  0  0  0
   -1.4850   -2.2660    1.3140 C   0  0  0  0  0  0  0  0  0  0  0  0
   -2.7670   -2.2010   -0.7560 C   0  0  0  0  0  0  0  0  0  0  0  0
    2.4610    0.7060   -0.8280 C   0  0  0  0  0  0  0  0  0  0  0  0
  1  2  1  0
  3  2  1  1
  3  4  1  0
  3 26  1  0
  4  5  1  0
  5  6  1  0
  6  7  1  0
  7  8  1  0
  8  9  1  6
  8 10  1  0
 10 11  1  0
 10 26  1  6
 11 12  1  6
 11 13  1  0
 14 13  1  6
 14 15  1  0
 14 19  1  0
 14 23  1  0
 15 16  1  0
 16 17  1  0
 17 18  1  0
 18 19  1  0
 19 20  1  1
 19 21  1  0
 21 22  1  0
 22 23  1  0
 23 24  1  1
 23 25  1  0
M  END
