
     RDKit          3D

 27 30  0  0  0  0  0  0  0  0999 V2000
   -4.2450    2.9750   -1.8290 C   0  0  0  0  0  0  0  0  0  0  0  0
   -4.5110    2.1510   -0.6020 C   0  0  0  0  0  0  0  0  0  0  0  0
   -5.5420    2.2310    0.1960 C   0  0  0  0  0  0  0  0  0  0  0  0
   -5.3970    1.2430    1.2740 C   0  0  0  0  0  0  0  0  0  0  0  0
   -4.2800    0.5670    1.1260 C   0  0  0  0  0  0  0  0  0  0  0  0
   -3.6350    1.0900   -0.0740 C   0  0  0  0  0  0  0  0  0  0  0  0
   -2.5350    0.7100   -0.5820 N   0  0  0  0  0  0  0  0  0  0  0  0
   -1.6710   -0.2990   -0.1010 C   0  0  0  0  0  0  0  0  0  0  0  0
   -1.9640   -1.5650   -0.2250 C   0  0  0  0  0  0  0  0  0  0  0  0
   -3.2010   -2.0570   -0.8660 C   0  0  0  0  0  0  0  0  0  0  0  0
   -3.0780   -3.3910   -1.4060 N   0  0  0  0  0  0  0  0  0  0  0  0
   -2.5250   -4.3220   -0.4430 C   0  0  0  0  0  0  0  0  0  0  0  0
   -1.2580   -3.8180    0.1330 C   0  0  0  0  0  0  0  0  0  0  0  0
   -0.9810   -2.5390    0.2400 C   0  0  0  0  0  0  0  0  0  0  0  0
    0.2710   -2.1560    0.8110 N   0  0  0  0  0  0  0  0  0  0  0  0
    0.6020   -0.7790    0.9660 C   0  0  1  0  0  0  0  0  0  0  0  0
    1.8260   -0.4440    0.1700 C   0  0  0  0  0  0  0  0  0  0  0  0
    2.0640   -0.6290   -1.1520 N   0  0  0  0  0  0  0  0  0  0  0  0
    3.2750   -0.1550   -1.4460 N   0  0  0  0  0  0  0  0  0  0  0  0
    3.8210    0.3320   -0.3480 C   0  0  0  0  0  0  0  0  0  0  0  0
    5.1440    0.9760   -0.0820 C   0  0  2  0  0  0  0  0  0  0  0  0
    4.9740    2.2610    0.6950 C   0  0  0  0  0  0  0  0  0  0  0  0
    5.9350    1.2110   -1.3230 C   0  0  0  0  0  0  0  0  0  0  0  0
    5.8740   -0.0210    0.8360 C   0  0  0  0  0  0  0  0  0  0  0  0
    2.9180    0.1530    0.6580 N   0  0  0  0  0  0  0  0  0  0  0  0
   -0.4750    0.1110    0.6010 N   0  0  0  0  0  0  0  0  0  0  0  0
   -0.3820    1.5060    0.9530 C   0  0  0  0  0  0  0  0  0  0  0  0
  1  2  1  0
  2  3  2  0
  2  6  1  0
  3  4  1  0
  4  5  2  0
  5  6  1  0
  6  7  2  3
  7  8  1  0
  8  9  2  0
  8 26  1  0
  9 10  1  0
  9 14  1  0
 10 11  1  0
 11 12  1  0
 12 13  1  0
 13 14  2  0
 14 15  1  0
 15 16  1  0
 16 17  1  6
 16 26  1  0
 17 18  2  0
 17 25  1  0
 18 19  1  0
 19 20  1  0
 20 21  1  0
 20 25  2  0
 21 22  1  1
 21 23  1  0
 21 24  1  0
 26 27  1  0
M  END
