
     RDKit          3D

 27 30  0  0  0  0  0  0  0  0999 V2000
   -5.1410   -1.7650   -0.1960 C   0  0  0  0  0  0  0  0  0  0  0  0
   -4.2740   -0.5680   -0.2940 C   0  0  0  0  0  0  0  0  0  0  0  0
   -4.7460    0.6810    0.0360 C   0  0  0  0  0  0  0  0  0  0  0  0
   -3.9070    1.7810   -0.0680 C   0  0  0  0  0  0  0  0  0  0  0  0
   -4.4300    3.1210    0.2910 C   0  0  0  0  0  0  0  0  0  0  0  0
   -2.6110    1.6280   -0.4970 C   0  0  0  0  0  0  0  0  0  0  0  0
   -2.1100    0.3870   -0.8350 C   0  0  0  0  0  0  0  0  0  0  0  0
   -0.7160    0.1750   -1.3020 C   0  0  0  0  0  0  0  0  0  0  0  0
    0.1960   -0.1600   -0.2700 N   0  0  0  0  0  0  0  0  0  0  0  0
    0.3830    0.7410    0.7760 C   0  0  0  0  0  0  0  0  0  0  0  0
    1.7830    1.2920    0.6730 C   0  0  0  0  0  0  0  0  0  0  0  0
    1.8790    2.6300    0.9260 C   0  0  0  0  0  0  0  0  0  0  0  0
    0.6610    3.3810    1.2630 C   0  0  0  0  0  0  0  0  0  0  0  0
    3.1020    3.1880    0.8510 N   0  0  0  0  0  0  0  0  0  0  0  0
    4.1810    2.4650    0.5410 N   0  0  0  0  0  0  0  0  0  0  0  0
    4.1180    1.1450    0.2860 C   0  0  0  0  0  0  0  0  0  0  0  0
    5.3010    0.3390   -0.0560 C   0  0  0  0  0  0  0  0  0  0  0  0
    2.8870    0.5220    0.3500 C   0  0  0  0  0  0  0  0  0  0  0  0
    2.9530   -0.8820    0.0600 N   0  0  0  0  0  0  0  0  0  0  0  0
    1.9130   -1.8260    0.3890 C   0  0  2  0  0  0  0  0  0  0  0  0
    2.3300   -3.1490   -0.1680 C   0  0  0  0  0  0  0  0  0  0  0  0
    2.2720   -4.3750    0.4610 C   0  0  0  0  0  0  0  0  0  0  0  0
    2.7450   -5.3240   -0.3890 N   0  0  0  0  0  0  0  0  0  0  0  0
    3.0790   -4.6950   -1.4980 N   0  0  0  0  0  0  0  0  0  0  0  0
    2.8420   -3.3960   -1.3940 N   0  0  0  0  0  0  0  0  0  0  0  0
    0.5750   -1.4950   -0.1410 C   0  0  0  0  0  0  0  0  0  0  0  0
   -2.9850   -0.6880   -0.7160 C   0  0  0  0  0  0  0  0  0  0  0  0
  1  2  1  0
  2  3  2  0
  2 27  1  0
  3  4  1  0
  4  5  1  0
  4  6  2  0
  6  7  1  0
  7  8  1  0
  7 27  2  0
  8  9  1  0
  9 10  1  0
  9 26  1  0
 10 11  1  0
 11 12  2  0
 11 18  1  0
 12 13  1  0
 12 14  1  0
 14 15  2  0
 15 16  1  0
 16 17  1  0
 16 18  2  0
 18 19  1  0
 19 20  1  0
 20 21  1  6
 20 26  1  0
 21 22  2  0
 21 25  1  0
 22 23  1  0
 23 24  2  0
 24 25  1  0
M  END
