
     RDKit          3D

 37 38  0  0  0  0  0  0  0  0999 V2000
    9.1080    2.0060    3.2230 N   0  0  0  0  0  0  0  0  0  0  0  0
    8.9450    0.6630    2.7160 C   0  0  0  0  0  0  0  0  0  0  0  0
    8.8190   -0.2290    3.5790 O   0  0  0  0  0  0  0  0  0  0  0  0
    8.9420    0.4730    1.2610 C   0  0  0  0  0  0  0  0  0  0  0  0
    8.7860   -0.8110    0.8210 O   0  0  0  0  0  0  0  0  0  0  0  0
    7.6300   -1.4490    1.1800 C   0  0  0  0  0  0  0  0  0  0  0  0
    6.3850   -0.7390    0.6890 C   0  0  0  0  0  0  0  0  0  0  0  0
    5.2940   -1.4720    1.1030 O   0  0  0  0  0  0  0  0  0  0  0  0
    4.0650   -0.9300    0.7440 C   0  0  0  0  0  0  0  0  0  0  0  0
    3.8900   -0.7710   -0.7430 C   0  0  0  0  0  0  0  0  0  0  0  0
    2.5830   -0.2000   -0.9980 N   0  0  0  0  0  0  0  0  0  0  0  0
    1.3570   -0.8230   -0.6360 C   0  0  0  0  0  0  0  0  0  0  0  0
    1.4570   -1.9340   -0.0700 O   0  0  0  0  0  0  0  0  0  0  0  0
    0.0240   -0.1710   -0.9250 C   0  0  2  0  0  0  0  0  0  0  0  0
    0.1240    1.2590   -0.5980 C   0  0  0  0  0  0  0  0  0  0  0  0
   -1.1580    2.0120   -0.8480 C   0  0  0  0  0  0  0  0  0  0  0  0
   -1.4000    2.6040   -2.0740 C   0  0  0  0  0  0  0  0  0  0  0  0
   -2.5480    3.3070   -2.3620 C   0  0  0  0  0  0  0  0  0  0  0  0
   -3.5030    3.4330   -1.3970 C   0  0  0  0  0  0  0  0  0  0  0  0
   -4.6880    4.1600   -1.6740 N   0  0  0  0  0  0  0  0  0  0  0  0
   -5.4730    3.8810   -2.6570 C   0  0  0  0  0  0  0  0  0  0  0  0
   -6.6550    4.6290   -2.9110 N   0  0  0  0  0  0  0  0  0  0  0  0
   -5.1460    2.7940   -3.5080 N   0  0  0  0  0  0  0  0  0  0  0  0
   -3.3080    2.8610   -0.1600 C   0  0  0  0  0  0  0  0  0  0  0  0
   -2.1380    2.1550    0.1070 C   0  0  0  0  0  0  0  0  0  0  0  0
   -1.0930   -0.8860   -0.4700 N   0  0  0  0  0  0  0  0  0  0  0  0
   -1.2540   -1.5350    0.7600 C   0  0  0  0  0  0  0  0  0  0  0  0
   -0.3390   -1.4990    1.5890 O   0  0  0  0  0  0  0  0  0  0  0  0
   -2.4780   -2.2850    1.1530 C   0  0  0  0  0  0  0  0  0  0  0  0
   -3.7580   -2.2950   -0.0970 S   0  0  0  0  0  0  0  0  0  0  0  0
   -5.1340   -3.2430    0.5580 C   0  0  0  0  0  0  0  0  0  0  0  0
   -5.2550   -4.6030    0.3820 C   0  0  0  0  0  0  0  0  0  0  0  0
   -6.3140   -5.3290    0.8900 C   0  0  0  0  0  0  0  0  0  0  0  0
   -7.3190   -4.7010    1.6120 C   0  0  0  0  0  0  0  0  0  0  0  0
   -8.6710   -5.6000    2.2660 Cl  0  0  0  0  0  0  0  0  0  0  0  0
   -7.2020   -3.3400    1.7910 C   0  0  0  0  0  0  0  0  0  0  0  0
   -6.1410   -2.6190    1.2820 C   0  0  0  0  0  0  0  0  0  0  0  0
  1  2  1  0
  2  3  2  0
  2  4  1  0
  4  5  1  0
  5  6  1  0
  6  7  1  0
  7  8  1  0
  8  9  1  0
  9 10  1  0
 10 11  1  0
 11 12  1  0
 12 13  2  0
 12 14  1  0
 14 15  1  1
 14 26  1  0
 15 16  1  0
 16 17  2  0
 16 25  1  0
 17 18  1  0
 18 19  2  0
 19 20  1  0
 19 24  1  0
 20 21  2  3
 21 22  1  0
 21 23  1  0
 24 25  2  0
 26 27  1  0
 27 28  2  0
 27 29  1  0
 29 30  1  0
 30 31  1  0
 31 32  2  0
 31 37  1  0
 32 33  1  0
 33 34  2  0
 34 35  1  0
 34 36  1  0
 36 37  2  0
M  CHG  1  20   1
M  END
