
     RDKit          3D

 37 39  0  0  0  0  0  0  0  0999 V2000
    4.5290    1.4060   -2.6090 C   0  0  0  0  0  0  0  0  0  0  0  0
    5.2750    1.8270   -1.6980 C   0  0  0  0  0  0  0  0  0  0  0  0
    5.6770    1.5690   -0.3390 C   0  0  0  0  0  0  0  0  0  0  0  0
    6.6240    2.3340    0.2880 C   0  0  0  0  0  0  0  0  0  0  0  0
    7.2860    3.3990   -0.2570 F   0  0  0  0  0  0  0  0  0  0  0  0
    6.8620    1.8590    1.6390 C   0  0  2  0  0  0  0  0  0  0  0  0
    8.2260    1.5510    1.7230 F   0  0  0  0  0  0  0  0  0  0  0  0
    6.1450    0.6230    1.7150 N   0  0  0  0  0  0  0  0  0  0  0  0
    5.2970    0.4530    0.5170 C   0  0  0  0  0  0  0  0  0  0  0  0
    4.2930   -0.3830    0.5370 C   0  0  0  0  0  0  0  0  0  0  0  0
    3.1270   -0.4300   -0.3610 C   0  0  0  0  0  0  0  0  0  0  0  0
    1.8720   -0.4730    0.4950 N   0  0  0  0  0  0  0  0  0  0  0  0
    0.6430   -0.5800   -0.2400 C   0  0  0  0  0  0  0  0  0  0  0  0
    0.7880   -0.6690   -1.4630 O   0  0  0  0  0  0  0  0  0  0  0  0
   -0.6160   -0.5820    0.3600 N   0  0  0  0  0  0  0  0  0  0  0  0
   -1.9300   -0.7480   -0.2010 C   0  0  1  0  0  0  0  0  0  0  0  0
   -2.7630    0.4770   -0.1510 C   0  0  0  0  0  0  0  0  0  0  0  0
   -3.8070    0.6900    0.7210 C   0  0  0  0  0  0  0  0  0  0  0  0
   -4.3990   -0.2990    1.6960 C   0  0  0  0  0  0  0  0  0  0  0  0
   -3.7180   -0.3880    3.0090 C   0  0  0  0  0  0  0  0  0  0  0  0
   -4.2130    1.9090    0.5590 O   0  0  0  0  0  0  0  0  0  0  0  0
   -3.5180    2.5160   -0.3530 C   0  0  0  0  0  0  0  0  0  0  0  0
   -3.6710    3.9440   -0.8310 C   0  0  0  0  0  0  0  0  0  0  0  0
   -4.7060    4.5640   -0.1920 O   0  0  0  0  0  0  0  0  0  0  0  0
   -5.9220    4.0000   -0.5970 C   0  0  0  0  0  0  0  0  0  0  0  0
   -2.5380    1.6270   -0.8670 C   0  0  0  0  0  0  0  0  0  0  0  0
   -1.5600    2.0730   -1.8590 C   0  0  0  0  0  0  0  0  0  0  0  0
   -1.9810   -1.5320   -1.4570 C   0  0  1  0  0  0  0  0  0  0  0  0
   -1.3970   -1.2820   -2.7460 C   0  0  0  0  0  0  0  0  0  0  0  0
   -1.3880   -2.9300   -1.0360 C   0  0  0  0  0  0  0  0  0  0  0  0
   -2.4230   -3.5760   -0.1850 C   0  0  0  0  0  0  0  0  0  0  0  0
   -3.6750   -3.2230   -0.9180 C   0  0  0  0  0  0  0  0  0  0  0  0
   -3.4370   -1.9760   -1.7220 C   0  0  0  0  0  0  0  0  0  0  0  0
    4.3510   -1.5840    1.4440 C   0  0  0  0  0  0  0  0  0  0  0  0
    3.3380   -2.3490    1.4570 O   0  0  0  0  0  0  0  0  0  0  0  0
    5.4490   -1.8230    2.1950 O   0  0  0  0  0  0  0  0  0  0  0  0
    5.5380   -2.9490    3.0350 C   0  0  0  0  0  0  0  0  0  0  0  0
  1  2  2  0
  2  3  1  0
  3  4  2  0
  3  9  1  0
  4  5  1  0
  4  6  1  0
  6  7  1  6
  6  8  1  0
  8  9  1  0
  9 10  2  3
 10 11  1  0
 10 34  1  0
 11 12  1  0
 12 13  1  0
 13 14  2  0
 13 15  1  0
 16 15  1  6
 16 17  1  0
 16 28  1  0
 17 18  2  0
 17 26  1  0
 18 19  1  0
 18 21  1  0
 19 20  1  0
 21 22  1  0
 22 23  1  0
 22 26  2  0
 23 24  1  0
 24 25  1  0
 26 27  1  0
 28 29  1  6
 28 30  1  0
 28 33  1  0
 30 31  1  0
 31 32  1  0
 32 33  1  0
 34 35  2  0
 34 36  1  0
 36 37  1  0
M  END
