
     RDKit          3D

 37 39  0  0  0  0  0  0  0  0999 V2000
   -1.3610   -5.6910   -1.1750 C   0  0  0  0  0  0  0  0  0  0  0  0
   -0.0360   -5.6570   -0.4070 C   0  0  0  0  0  0  0  0  0  0  0  0
    0.1380   -4.2970    0.2420 C   0  0  0  0  0  0  0  0  0  0  0  0
    0.1420   -3.2690   -0.8570 C   0  0  0  0  0  0  0  0  0  0  0  0
    0.3020   -1.8750   -0.3470 C   0  0  0  0  0  0  0  0  0  0  0  0
    1.5990   -1.3340   -0.4540 C   0  0  0  0  0  0  0  0  0  0  0  0
    1.8740   -0.0740   -0.0030 C   0  0  0  0  0  0  0  0  0  0  0  0
    3.1580    0.5590   -0.0390 N   0  0  0  0  0  0  0  0  0  0  0  0
    4.3540   -0.1730   -0.1260 C   0  0  0  0  0  0  0  0  0  0  0  0
    4.3090   -1.4720   -0.1660 O   0  0  0  0  0  0  0  0  0  0  0  0
    5.6970    0.3560   -0.1790 C   0  0  0  0  0  0  0  0  0  0  0  0
    6.0140    1.6010   -0.1550 C   0  0  0  0  0  0  0  0  0  0  0  0
    5.0750    2.6150   -0.0730 O   0  0  0  0  0  0  0  0  0  0  0  0
    7.4190    2.0480   -0.2140 C   0  0  0  0  0  0  0  0  0  0  0  0
    8.4320    1.1490   -0.2960 C   0  0  0  0  0  0  0  0  0  0  0  0
    9.7670    1.5790   -0.3540 C   0  0  0  0  0  0  0  0  0  0  0  0
   10.0170    2.9370   -0.3250 C   0  0  0  0  0  0  0  0  0  0  0  0
   11.3140    3.3290   -0.3820 F   0  0  0  0  0  0  0  0  0  0  0  0
    8.9950    3.8460   -0.2430 C   0  0  0  0  0  0  0  0  0  0  0  0
    7.6980    3.3940   -0.1880 C   0  0  0  0  0  0  0  0  0  0  0  0
    0.8040    0.6350    0.5610 C   0  0  0  0  0  0  0  0  0  0  0  0
   -0.4600    0.1300    0.6750 C   0  0  0  0  0  0  0  0  0  0  0  0
   -0.7110   -1.1440    0.2120 C   0  0  0  0  0  0  0  0  0  0  0  0
   -2.0060   -1.7030    0.3040 N   0  0  0  0  0  0  0  0  0  0  0  0
   -3.1380   -0.9640    0.8560 C   0  0  0  0  0  0  0  0  0  0  0  0
   -3.5130    0.1880    0.0110 C   0  0  0  0  0  0  0  0  0  0  0  0
   -2.8010    0.3020   -1.0540 O   0  0  0  0  0  0  0  0  0  0  0  0
   -4.5130    1.1300    0.2280 N   0  0  0  0  0  0  0  0  0  0  0  0
   -4.6750    2.1860   -0.8220 C   0  0  0  0  0  0  0  0  0  0  0  0
   -6.1590    2.4760   -0.8520 C   0  0  1  0  0  0  0  0  0  0  0  0
   -6.4900    2.9900   -2.2330 C   0  0  0  0  0  0  0  0  0  0  0  0
   -5.7420    4.1360   -2.4290 F   0  0  0  0  0  0  0  0  0  0  0  0
   -6.8960    1.3160   -0.5810 O   0  0  0  0  0  0  0  0  0  0  0  0
   -6.8210    1.0060    0.7550 C   0  0  0  0  0  0  0  0  0  0  0  0
   -5.4300    1.2860    1.3010 C   0  0  1  0  0  0  0  0  0  0  0  0
   -5.1640    0.5830    2.5750 C   0  0  0  0  0  0  0  0  0  0  0  0
   -6.2230    0.9560    3.4590 O   0  0  0  0  0  0  0  0  0  0  0  0
  1  2  1  0
  2  3  1  0
  3  4  1  0
  4  5  1  0
  5  6  2  0
  5 23  1  0
  6  7  1  0
  7  8  1  0
  7 21  2  0
  8  9  1  0
  9 10  2  0
  9 11  1  0
 11 12  2  3
 12 13  1  0
 12 14  1  0
 14 15  2  0
 14 20  1  0
 15 16  1  0
 16 17  2  0
 17 18  1  0
 17 19  1  0
 19 20  2  0
 21 22  1  0
 22 23  2  0
 23 24  1  0
 24 25  1  0
 25 26  1  0
 26 27  2  0
 26 28  1  0
 28 29  1  0
 28 35  1  0
 29 30  1  0
 30 31  1  6
 30 33  1  0
 31 32  1  0
 33 34  1  0
 34 35  1  0
 35 36  1  1
 36 37  1  0
M  END
