
     RDKit          3D

 37 41  0  0  0  0  0  0  0  0999 V2000
   -1.0140    4.0310    1.4030 C   0  0  0  0  0  0  0  0  0  0  0  0
   -1.4910    2.8760    0.5770 C   0  0  0  0  0  0  0  0  0  0  0  0
   -1.5200    2.9240   -0.7900 C   0  0  0  0  0  0  0  0  0  0  0  0
   -1.9570    1.8620   -1.5330 C   0  0  0  0  0  0  0  0  0  0  0  0
   -2.3950    0.6750   -0.9380 C   0  0  0  0  0  0  0  0  0  0  0  0
   -2.8230   -0.4590   -1.7540 C   0  0  0  0  0  0  0  0  0  0  0  0
   -1.7920   -1.4890   -2.0790 C   0  0  1  0  0  0  0  0  0  0  0  0
   -2.5090   -2.5290   -2.9160 C   0  0  0  0  0  0  0  0  0  0  0  0
   -3.6130   -2.9220   -2.5210 O   0  0  0  0  0  0  0  0  0  0  0  0
   -1.9400   -3.0320   -4.1020 N   0  0  0  0  0  0  0  0  0  0  0  0
   -1.0510   -2.2400   -4.9490 C   0  0  0  0  0  0  0  0  0  0  0  0
   -1.1050   -0.8290   -4.3360 C   0  0  2  0  0  0  0  0  0  0  0  0
   -0.2920    0.1570   -5.0930 C   0  0  0  0  0  0  0  0  0  0  0  0
   -0.7570   -1.0030   -2.9510 N   0  0  0  0  0  0  0  0  0  0  0  0
    0.5560   -0.6980   -2.5410 C   0  0  0  0  0  0  0  0  0  0  0  0
    1.4170   -0.2970   -3.4020 O   0  0  0  0  0  0  0  0  0  0  0  0
    1.0170   -0.8020   -1.2120 N   0  0  0  0  0  0  0  0  0  0  0  0
    2.2970   -0.5340   -0.6990 C   0  0  0  0  0  0  0  0  0  0  0  0
    3.4140   -0.3560   -1.4370 C   0  0  0  0  0  0  0  0  0  0  0  0
    4.6600   -0.0680   -0.8290 C   0  0  0  0  0  0  0  0  0  0  0  0
    4.7110    0.0280    0.5450 C   0  0  0  0  0  0  0  0  0  0  0  0
    3.5940   -0.1470    1.3340 C   0  0  0  0  0  0  0  0  0  0  0  0
    3.6920   -0.0370    2.7580 N   0  0  0  0  0  0  0  0  0  0  0  0
    3.1890   -0.9260    3.6040 C   0  0  0  0  0  0  0  0  0  0  0  0
    3.3440   -0.7160    4.9700 C   0  0  0  0  0  0  0  0  0  0  0  0
    3.9920    0.3660    5.4820 C   0  0  0  0  0  0  0  0  0  0  0  0
    4.5120    1.2860    4.5800 C   0  0  0  0  0  0  0  0  0  0  0  0
    4.3420    1.0490    3.2430 C   0  0  0  0  0  0  0  0  0  0  0  0
    4.8310    1.9140    2.4430 O   0  0  0  0  0  0  0  0  0  0  0  0
    2.4170   -0.4230    0.6970 C   0  0  0  0  0  0  0  0  0  0  0  0
   -2.3640    0.6300    0.4400 C   0  0  0  0  0  0  0  0  0  0  0  0
   -1.9180    1.7200    1.1870 C   0  0  0  0  0  0  0  0  0  0  0  0
   -1.9440    1.6880    2.6550 C   0  0  0  0  0  0  0  0  0  0  0  0
   -2.3930    0.6330    3.2910 C   0  0  0  0  0  0  0  0  0  0  0  0
   -2.8570   -0.4730    2.5770 N   0  0  0  0  0  0  0  0  0  0  0  0
   -3.4320   -1.6100    3.3270 C   0  0  0  0  0  0  0  0  0  0  0  0
   -2.8050   -0.5640    1.1580 C   0  0  0  0  0  0  0  0  0  0  0  0
  1  2  1  0
  2  3  2  0
  2 32  1  0
  3  4  1  0
  4  5  2  0
  5  6  1  0
  5 31  1  0
  7  6  1  6
  7  8  1  0
  7 14  1  0
  8  9  2  0
  8 10  1  0
 10 11  1  0
 11 12  1  0
 12 13  1  6
 12 14  1  0
 14 15  1  0
 15 16  2  0
 15 17  1  0
 17 18  1  0
 18 19  2  0
 18 30  1  0
 19 20  1  0
 20 21  2  0
 21 22  1  0
 22 23  1  0
 22 30  2  0
 23 24  1  0
 23 28  1  0
 24 25  2  0
 25 26  1  0
 26 27  2  0
 27 28  1  0
 28 29  2  0
 31 32  2  0
 31 37  1  0
 32 33  1  0
 33 34  2  0
 34 35  1  0
 35 36  1  0
 35 37  1  0
M  END
