
     RDKit          3D

 37 39  0  0  0  0  0  0  0  0999 V2000
   -4.5170    7.0030    1.1570 C   0  0  0  0  0  0  0  0  0  0  0  0
   -4.7000    5.6330    0.7830 N   0  0  0  0  0  0  0  0  0  0  0  0
   -4.2440    4.6910    1.7970 C   0  0  0  0  0  0  0  0  0  0  0  0
   -2.8020    4.6930    1.9650 C   0  0  0  0  0  0  0  0  0  0  0  0
   -1.9120    3.7780    1.7900 C   0  0  0  0  0  0  0  0  0  0  0  0
   -2.0030    2.4080    1.3590 C   0  0  0  0  0  0  0  0  0  0  0  0
   -3.0530    1.7220    0.8200 N   0  0  0  0  0  0  0  0  0  0  0  0
   -2.7340    0.4410    0.5880 C   0  0  0  0  0  0  0  0  0  0  0  0
   -3.6410   -0.6420    0.0060 C   0  0  0  0  0  0  0  0  0  0  0  0
   -4.1200   -1.4810    1.1150 C   0  0  0  0  0  0  0  0  0  0  0  0
   -5.0930   -2.5480    0.8930 C   0  0  0  0  0  0  0  0  0  0  0  0
   -4.8770   -3.7200    0.0490 C   0  0  0  0  0  0  0  0  0  0  0  0
   -4.6750   -3.6800   -1.3990 C   0  0  1  0  0  0  0  0  0  0  0  0
   -3.6190   -3.0420   -1.9300 F   0  0  0  0  0  0  0  0  0  0  0  0
   -4.5730   -5.0210   -1.8330 F   0  0  0  0  0  0  0  0  0  0  0  0
   -1.4670    0.2470    0.9650 C   0  0  0  0  0  0  0  0  0  0  0  0
   -0.9860    1.4690    1.4550 C   0  0  0  0  0  0  0  0  0  0  0  0
    0.3390    1.7230    2.0000 C   0  0  0  0  0  0  0  0  0  0  0  0
    0.4690    2.7090    2.8020 O   0  0  0  0  0  0  0  0  0  0  0  0
    1.4930    1.0180    1.7590 O   0  0  0  0  0  0  0  0  0  0  0  0
    1.7550   -0.3070    1.4630 C   0  0  2  0  0  0  0  0  0  0  0  0
    2.6140   -0.3510    0.2470 C   0  0  0  0  0  0  0  0  0  0  0  0
    2.3500    0.2960   -0.8580 C   0  0  0  0  0  0  0  0  0  0  0  0
    3.2120    0.2490   -2.0680 C   0  0  0  0  0  0  0  0  0  0  0  0
    4.3900   -0.6270   -1.8830 C   0  0  0  0  0  0  0  0  0  0  0  0
    5.6470   -0.0660   -1.6440 C   0  0  0  0  0  0  0  0  0  0  0  0
    6.7710   -0.8680   -1.4620 C   0  0  0  0  0  0  0  0  0  0  0  0
    7.9870   -0.2870   -1.2290 O   0  0  0  0  0  0  0  0  0  0  0  0
    9.1340   -1.0800   -1.0450 C   0  0  0  0  0  0  0  0  0  0  0  0
    6.5910   -2.2220   -1.5270 C   0  0  0  0  0  0  0  0  0  0  0  0
    5.3650   -2.8040   -1.7620 C   0  0  0  0  0  0  0  0  0  0  0  0
    4.2630   -2.0060   -1.9400 C   0  0  0  0  0  0  0  0  0  0  0  0
    2.9950   -2.5180   -2.1800 O   0  0  0  0  0  0  0  0  0  0  0  0
    2.8750   -3.9350   -2.2390 C   0  0  0  0  0  0  0  0  0  0  0  0
    0.6160   -1.2100    1.3840 C   0  0  0  0  0  0  0  0  0  0  0  0
    0.7770   -2.3890    1.8120 O   0  0  0  0  0  0  0  0  0  0  0  0
   -0.6800   -0.9620    0.8870 N   0  0  0  0  0  0  0  0  0  0  0  0
  1  2  1  0
  2  3  1  0
  3  4  1  0
  4  5  2  3
  5  6  1  0
  6  7  1  0
  6 17  2  0
  7  8  1  0
  8  9  1  0
  8 16  2  0
  9 10  1  0
 10 11  1  0
 11 12  1  0
 12 13  1  0
 13 14  1  1
 13 15  1  0
 16 17  1  0
 16 37  1  0
 17 18  1  0
 18 19  2  0
 18 20  1  0
 20 21  1  0
 21 22  1  6
 21 35  1  0
 22 23  2  3
 23 24  1  0
 24 25  1  0
 25 26  2  0
 25 32  1  0
 26 27  1  0
 27 28  1  0
 27 30  2  0
 28 29  1  0
 30 31  1  0
 31 32  2  0
 32 33  1  0
 33 34  1  0
 35 36  2  0
 35 37  1  0
M  END
