
     RDKit          3D

 37 39  0  0  0  0  0  0  0  0999 V2000
   -2.0240    3.6790   -2.9480 C   0  0  0  0  0  0  0  0  0  0  0  0
   -2.5730    2.3130   -2.6660 C   0  0  0  0  0  0  0  0  0  0  0  0
   -1.8450    1.5490   -1.7650 O   0  0  0  0  0  0  0  0  0  0  0  0
   -1.6580    1.9550   -0.4650 C   0  0  0  0  0  0  0  0  0  0  0  0
   -2.1720    3.1270    0.0570 C   0  0  0  0  0  0  0  0  0  0  0  0
   -1.9640    3.5060    1.3760 C   0  0  0  0  0  0  0  0  0  0  0  0
   -1.2220    2.6860    2.1840 C   0  0  0  0  0  0  0  0  0  0  0  0
   -0.9760    3.0130    3.5320 O   0  0  0  0  0  0  0  0  0  0  0  0
   -1.5290    4.2230    4.0080 C   0  0  0  0  0  0  0  0  0  0  0  0
   -0.7130    1.5190    1.6550 C   0  0  0  0  0  0  0  0  0  0  0  0
   -0.8980    1.1120    0.3580 C   0  0  0  0  0  0  0  0  0  0  0  0
   -0.3600   -0.1390   -0.2040 C   0  0  1  0  0  0  0  0  0  0  0  0
    0.6470   -0.7650    0.6040 N   0  0  0  0  0  0  0  0  0  0  0  0
    1.9630   -1.0140    0.1090 C   0  0  0  0  0  0  0  0  0  0  0  0
    2.2040   -0.6600   -1.0710 O   0  0  0  0  0  0  0  0  0  0  0  0
    2.9870   -1.6240    0.8570 N   0  0  0  0  0  0  0  0  0  0  0  0
    4.3250   -1.8880    0.3780 C   0  0  0  0  0  0  0  0  0  0  0  0
    5.0330   -0.6410   -0.0180 C   0  0  2  0  0  0  0  0  0  0  0  0
    6.4210   -0.8850   -0.5550 C   0  0  0  0  0  0  0  0  0  0  0  0
    6.4490   -1.7550   -1.7740 C   0  0  0  0  0  0  0  0  0  0  0  0
    5.7380   -1.2110   -2.8050 F   0  0  0  0  0  0  0  0  0  0  0  0
    5.1480    0.2330    1.0490 O   0  0  0  0  0  0  0  0  0  0  0  0
    4.5420    1.4570    0.8090 C   0  0  0  0  0  0  0  0  0  0  0  0
    4.6790    2.3910    1.9920 C   0  0  0  0  0  0  0  0  0  0  0  0
   -1.4880   -1.0900   -0.4440 C   0  0  0  0  0  0  0  0  0  0  0  0
   -2.3560   -1.3420    0.5990 C   0  0  0  0  0  0  0  0  0  0  0  0
   -3.4130   -2.2000    0.4480 C   0  0  0  0  0  0  0  0  0  0  0  0
   -4.2740   -2.4390    1.5090 C   0  0  0  0  0  0  0  0  0  0  0  0
   -5.3230   -3.3010    1.3280 C   0  0  0  0  0  0  0  0  0  0  0  0
   -5.4970   -3.9040    0.1110 C   0  0  0  0  0  0  0  0  0  0  0  0
   -6.5330   -4.7490   -0.0520 F   0  0  0  0  0  0  0  0  0  0  0  0
   -4.6350   -3.6680   -0.9570 C   0  0  0  0  0  0  0  0  0  0  0  0
   -4.8550   -4.3400   -2.2600 C   0  0  0  0  0  0  0  0  0  0  0  0
   -3.5740   -2.8040   -0.7980 C   0  0  0  0  0  0  0  0  0  0  0  0
   -2.7140   -2.5460   -1.8090 N   0  0  0  0  0  0  0  0  0  0  0  0
   -1.6760   -1.7020   -1.6570 C   0  0  0  0  0  0  0  0  0  0  0  0
   -0.8650   -1.4450   -2.5750 O   0  0  0  0  0  0  0  0  0  0  0  0
  1  2  1  0
  2  3  1  0
  3  4  1  0
  4  5  2  0
  4 11  1  0
  5  6  1  0
  6  7  2  0
  7  8  1  0
  7 10  1  0
  8  9  1  0
 10 11  2  0
 11 12  1  0
 12 13  1  1
 12 25  1  0
 13 14  1  0
 14 15  2  0
 14 16  1  0
 16 17  1  0
 18 17  1  1
 18 19  1  0
 18 22  1  0
 19 20  1  0
 20 21  1  0
 22 23  1  0
 23 24  1  0
 25 26  2  0
 25 36  1  0
 26 27  1  0
 27 28  2  0
 27 34  1  0
 28 29  1  0
 29 30  2  0
 30 31  1  0
 30 32  1  0
 32 33  1  0
 32 34  2  0
 34 35  1  0
 35 36  1  0
 36 37  2  0
M  END
