
     RDKit          3D

 30 31  0  0  0  0  0  0  0  0999 V2000
   -2.7680    0.5770    1.6200 C   0  0  0  0  0  0  0  0  0  0  0  0
   -2.5560   -0.6530    0.9040 N   0  0  0  0  0  0  0  0  0  0  0  0
   -3.6890   -1.5930    0.8760 C   0  0  0  0  0  0  0  0  0  0  0  0
   -4.7180   -1.1870   -0.6120 P   0  0  0  0  0  0  0  0  0  0  0  0
   -5.0300   -2.5890   -1.5600 O   0  0  0  0  0  0  0  0  0  0  0  0
   -6.2320   -0.4510   -0.1520 O   0  0  0  0  0  0  0  0  0  0  0  0
   -6.4670    1.0430   -1.0120 P   0  0  0  0  0  0  0  0  0  0  0  0
   -5.2470    1.2150   -2.2340 O   0  0  0  0  0  0  0  0  0  0  0  0
   -6.4040    2.3250    0.1460 O   0  0  0  0  0  0  0  0  0  0  0  0
   -1.3540   -0.9870    0.2480 C   0  0  0  0  0  0  0  0  0  0  0  0
   -1.2770   -2.0860   -0.3490 O   0  0  0  0  0  0  0  0  0  0  0  0
   -0.1910   -0.0960    0.2390 C   0  0  1  0  0  0  0  0  0  0  0  0
   -0.3440    1.1240    0.9600 N   0  0  0  0  0  0  0  0  0  0  0  0
    1.0620   -0.7910    0.7730 C   0  0  2  0  0  0  0  0  0  0  0  0
    0.9200   -1.2680    2.1700 C   0  0  0  0  0  0  0  0  0  0  0  0
    1.5850   -0.2730    2.9220 O   0  0  0  0  0  0  0  0  0  0  0  0
    2.3610    0.4780    2.0780 N   0  0  0  0  0  0  0  0  0  0  0  0
    2.1190    0.2370    0.8400 C   0  0  0  0  0  0  0  0  0  0  0  0
    2.7800    0.8750   -0.2630 N   0  0  0  0  0  0  0  0  0  0  0  0
    3.9450    0.4410   -0.6340 C   0  0  0  0  0  0  0  0  0  0  0  0
    4.6160    1.1100   -1.7750 C   0  0  0  0  0  0  0  0  0  0  0  0
    6.0010    1.3610   -1.4020 N   0  0  0  0  0  0  0  0  0  0  0  0
    6.7050    0.2930   -0.7800 C   0  0  0  0  0  0  0  0  0  0  0  0
    7.9600    0.2430   -0.8580 O   0  0  0  0  0  0  0  0  0  0  0  0
    5.9700   -0.7490   -0.0500 C   0  0  0  0  0  0  0  0  0  0  0  0
    6.5870   -1.6850    0.4950 O   0  0  0  0  0  0  0  0  0  0  0  0
    4.5840   -0.6100   -0.0170 O   0  0  0  0  0  0  0  0  0  0  0  0
    0.1900    0.2500   -1.5730 P   0  0  0  0  0  0  0  0  0  0  0  0
    1.3030   -0.9110   -2.1610 O   0  0  0  0  0  0  0  0  0  0  0  0
    0.7730    1.8550   -1.7370 O   0  0  0  0  0  0  0  0  0  0  0  0
  1  2  1  0
  2  3  1  0
  2 10  1  0
  3  4  1  0
  4  5  1  0
  4  6  1  0
  6  7  1  0
  7  8  1  0
  7  9  1  0
 10 11  2  0
 10 12  1  0
 12 13  1  1
 12 14  1  0
 12 28  1  0
 14 15  1  1
 14 18  1  0
 15 16  1  0
 16 17  1  0
 17 18  2  0
 18 19  1  0
 19 20  2  3
 20 21  1  0
 20 27  1  0
 21 22  1  0
 22 23  1  0
 23 24  2  0
 23 25  1  0
 25 26  2  0
 25 27  1  0
 28 29  1  0
 28 30  1  0
M  END
