
     RDKit          3D

 31 31  0  0  0  0  0  0  0  0999 V2000
    4.2450   -0.7400   -0.3830 N   0  0  0  0  0  0  0  0  0  0  0  0
    4.1650    0.2130    0.6930 C   0  0  0  0  0  0  0  0  0  0  0  0
    3.0620    0.9360    1.0030 O   0  0  0  0  0  0  0  0  0  0  0  0
    1.9740    1.2730    0.1780 C   0  0  0  0  0  0  0  0  0  0  0  0
    1.2510    0.0510   -0.3440 C   0  0  1  0  0  0  0  0  0  0  0  0
    0.8890   -0.8600    0.8260 C   0  0  0  0  0  0  0  0  0  0  0  0
    0.2120   -0.1190    1.7830 O   0  0  0  0  0  0  0  0  0  0  0  0
   -0.7770   -0.4920    2.6570 C   0  0  0  0  0  0  0  0  0  0  0  0
   -0.5460   -0.3460    3.9020 O   0  0  0  0  0  0  0  0  0  0  0  0
   -2.0440   -1.0270    2.3250 N   0  0  0  0  0  0  0  0  0  0  0  0
   -2.5280   -1.2840    0.9820 C   0  0  0  0  0  0  0  0  0  0  0  0
   -3.8470   -0.6240    0.7510 C   0  0  0  0  0  0  0  0  0  0  0  0
   -5.0600   -1.3790    1.0340 C   0  0  0  0  0  0  0  0  0  0  0  0
   -4.9510   -2.5520    1.4590 O   0  0  0  0  0  0  0  0  0  0  0  0
   -6.3290   -0.8530    0.8510 O   0  0  0  0  0  0  0  0  0  0  0  0
   -7.3820   -1.6110    1.1340 O   0  0  0  0  0  0  0  0  0  0  0  0
   -3.9570    0.5740    0.3170 N   0  0  0  0  0  0  0  0  0  0  0  0
   -2.9810    1.4760   -0.0170 N   0  0  0  0  0  0  0  0  0  0  0  0
   -2.1380    1.2950   -1.1880 C   0  0  1  0  0  0  0  0  0  0  0  0
   -2.4880    2.2850   -2.1360 O   0  0  0  0  0  0  0  0  0  0  0  0
   -3.0350    1.5440   -3.6280 P   0  0  0  0  0  0  0  0  0  0  0  0
   -2.6370   -0.1470   -3.6430 O   0  0  0  0  0  0  0  0  0  0  0  0
   -4.7720    1.6630   -3.7520 O   0  0  0  0  0  0  0  0  0  0  0  0
   -0.6990    1.4410   -0.7410 C   0  0  0  0  0  0  0  0  0  0  0  0
    0.1450    0.3870   -1.1770 N   0  0  0  0  0  0  0  0  0  0  0  0
    5.2730    0.3540    1.3970 C   0  0  0  0  0  0  0  0  0  0  0  0
    5.2900    1.5340    2.7850 P   0  0  0  0  0  0  0  0  0  0  0  0
    5.4030    3.0720    2.6030 O   0  0  0  0  0  0  0  0  0  0  0  0
    6.8140   -0.5720    1.0600 P   0  0  0  0  0  0  0  0  0  0  0  0
    6.3740   -2.1610    0.4660 O   0  0  0  0  0  0  0  0  0  0  0  0
    7.6360    0.2350   -0.2420 O   0  0  0  0  0  0  0  0  0  0  0  0
  1  2  1  0
  2  3  1  0
  2 26  2  3
  3  4  1  0
  5  4  1  1
  5  6  1  0
  5 25  1  0
  6  7  1  0
  7  8  1  0
  8  9  2  0
  8 10  1  0
 10 11  1  0
 11 12  1  0
 12 13  1  0
 12 17  2  0
 13 14  2  0
 13 15  1  0
 15 16  1  0
 17 18  1  0
 18 19  1  0
 19 20  1  6
 19 24  1  0
 20 21  1  0
 21 22  1  0
 21 23  1  0
 24 25  1  0
 26 27  1  0
 26 29  1  0
 27 28  2  0
 29 30  1  0
 29 31  1  0
M  END
