
     RDKit          3D

 31 32  0  0  0  0  0  0  0  0999 V2000
    1.2660    1.9720   -0.8730 O   0  0  0  0  0  0  0  0  0  0  0  0
    1.4340    0.8630   -0.3180 C   0  0  0  0  0  0  0  0  0  0  0  0
    2.7590    0.5280    0.0650 N   0  0  0  0  0  0  0  0  0  0  0  0
    3.8730    1.4290   -0.1730 C   0  0  0  0  0  0  0  0  0  0  0  0
    5.1660    0.8660    0.3130 C   0  0  1  0  0  0  0  0  0  0  0  0
    5.6110   -0.7280   -0.5010 P   0  0  0  0  0  0  0  0  0  0  0  0
    6.9070   -1.4580    0.4030 O   0  0  0  0  0  0  0  0  0  0  0  0
    6.1660   -0.4900   -2.1190 O   0  0  0  0  0  0  0  0  0  0  0  0
    6.5170    2.1020    0.1450 P   0  0  0  0  0  0  0  0  0  0  0  0
    5.8160    3.6450   -0.2290 O   0  0  0  0  0  0  0  0  0  0  0  0
    7.6940    1.6230   -1.0360 O   0  0  0  0  0  0  0  0  0  0  0  0
    0.2800   -0.0730   -0.0690 C   0  0  2  0  0  0  0  0  0  0  0  0
   -0.7850    0.6760    0.6990 C   0  0  0  0  0  0  0  0  0  0  0  0
   -1.9750   -0.0830    0.9090 N   0  0  0  0  0  0  0  0  0  0  0  0
   -2.1090   -0.8810    2.0510 N   0  0  0  0  0  0  0  0  0  0  0  0
   -3.1460   -1.5740    2.2810 N   0  0  0  0  0  0  0  0  0  0  0  0
   -4.2820   -1.6350    1.4350 C   0  0  0  0  0  0  0  0  0  0  0  0
   -5.1520   -2.5320    1.5070 O   0  0  0  0  0  0  0  0  0  0  0  0
   -4.4290   -0.5600    0.4070 C   0  0  1  0  0  0  0  0  0  0  0  0
   -5.2100   -1.1060   -0.7390 C   0  0  0  0  0  0  0  0  0  0  0  0
   -6.5120   -0.5830   -0.5880 O   0  0  0  0  0  0  0  0  0  0  0  0
   -6.4680    0.6470    0.0640 C   0  0  0  0  0  0  0  0  0  0  0  0
   -7.2570    1.6460    0.0110 N   0  0  0  0  0  0  0  0  0  0  0  0
   -8.3840    1.7040   -0.7540 O   0  0  0  0  0  0  0  0  0  0  0  0
   -5.2400    0.5980    0.9040 C   0  0  0  0  0  0  0  0  0  0  0  0
   -3.0700   -0.0830    0.0010 C   0  0  0  0  0  0  0  0  0  0  0  0
   -2.9110    0.3210   -1.1610 O   0  0  0  0  0  0  0  0  0  0  0  0
    0.6960   -1.2270    0.5490 O   0  0  0  0  0  0  0  0  0  0  0  0
    0.4360   -2.6430   -0.3960 P   0  0  0  0  0  0  0  0  0  0  0  0
    0.7940   -4.0280    0.5870 O   0  0  0  0  0  0  0  0  0  0  0  0
   -1.2520   -2.7180   -0.8160 O   0  0  0  0  0  0  0  0  0  0  0  0
  1  2  2  0
  2  3  1  0
  2 12  1  0
  3  4  1  0
  5  4  1  6
  5  6  1  0
  5  9  1  0
  6  7  1  0
  6  8  1  0
  9 10  1  0
  9 11  1  0
 12 13  1  1
 12 28  1  0
 13 14  1  0
 14 15  1  0
 14 26  1  0
 15 16  2  0
 16 17  1  0
 17 18  2  0
 17 19  1  0
 19 20  1  6
 19 25  1  0
 19 26  1  0
 20 21  1  0
 21 22  1  0
 22 23  2  3
 22 25  1  0
 23 24  1  0
 26 27  2  0
 28 29  1  0
 29 30  1  0
 29 31  1  0
M  END
