
     RDKit          3D

 31 32  0  0  0  0  0  0  0  0999 V2000
   -4.2600   -1.8690    2.4110 C   0  0  0  0  0  0  0  0  0  0  0  0
   -4.1740   -1.6570    0.9720 N   0  0  0  0  0  0  0  0  0  0  0  0
   -3.0030   -1.3590    0.3920 N   0  0  0  0  0  0  0  0  0  0  0  0
   -2.9280   -1.1640   -0.9350 C   0  0  0  0  0  0  0  0  0  0  0  0
   -1.7080   -0.8470   -1.5970 N   0  0  0  0  0  0  0  0  0  0  0  0
   -0.4530   -0.7090   -0.8850 C   0  0  1  0  0  0  0  0  0  0  0  0
    0.6780   -0.3750   -1.8410 C   0  0  2  0  0  0  0  0  0  0  0  0
    2.0130   -0.3860   -1.1520 C   0  0  0  0  0  0  0  0  0  0  0  0
    2.1140    0.6280   -0.1940 O   0  0  0  0  0  0  0  0  0  0  0  0
    3.3560    0.5900    0.4220 C   0  0  1  0  0  0  0  0  0  0  0  0
    4.1460    1.8520    0.2080 C   0  0  0  0  0  0  0  0  0  0  0  0
    5.0020    2.1710    1.2420 O   0  0  0  0  0  0  0  0  0  0  0  0
    5.5340    1.0980    1.8620 N   0  0  0  0  0  0  0  0  0  0  0  0
    4.6330    0.1500    2.4140 C   0  0  0  0  0  0  0  0  0  0  0  0
    4.9980   -0.6900    3.2510 O   0  0  0  0  0  0  0  0  0  0  0  0
    3.2170    0.2460    1.9060 C   0  0  0  0  0  0  0  0  0  0  0  0
    0.4270    0.8090   -2.4990 O   0  0  0  0  0  0  0  0  0  0  0  0
    0.2490    0.6150   -4.2070 P   0  0  0  0  0  0  0  0  0  0  0  0
    0.8660   -0.9500   -4.6890 O   0  0  0  0  0  0  0  0  0  0  0  0
    1.1520    1.8850   -4.9780 O   0  0  0  0  0  0  0  0  0  0  0  0
   -0.6110    0.6740    0.3430 P   0  0  0  0  0  0  0  0  0  0  0  0
   -2.2550    1.2100    0.3820 O   0  0  0  0  0  0  0  0  0  0  0  0
   -0.1660    0.1650    1.9390 O   0  0  0  0  0  0  0  0  0  0  0  0
   -0.3580    1.5350    2.9930 P   0  0  0  0  0  0  0  0  0  0  0  0
   -1.6540    1.1700    4.0880 O   0  0  0  0  0  0  0  0  0  0  0  0
   -0.7690    2.9600    2.1200 O   0  0  0  0  0  0  0  0  0  0  0  0
   -4.0860   -1.2800   -1.6680 C   0  0  0  0  0  0  0  0  0  0  0  0
   -4.0210   -1.1000   -2.9030 O   0  0  0  0  0  0  0  0  0  0  0  0
   -5.2780   -1.5830   -1.0780 N   0  0  0  0  0  0  0  0  0  0  0  0
   -5.2990   -1.7670    0.2430 C   0  0  0  0  0  0  0  0  0  0  0  0
   -6.3780   -2.0500    0.8370 O   0  0  0  0  0  0  0  0  0  0  0  0
  1  2  1  0
  2  3  1  0
  2 30  1  0
  3  4  2  0
  4  5  1  0
  4 27  1  0
  6  5  1  6
  6  7  1  0
  6 21  1  0
  7  8  1  1
  7 17  1  0
  8  9  1  0
 10  9  1  1
 10 11  1  0
 10 16  1  0
 11 12  1  0
 12 13  1  0
 13 14  1  0
 14 15  2  0
 14 16  1  0
 17 18  1  0
 18 19  1  0
 18 20  1  0
 21 22  1  0
 21 23  1  0
 23 24  1  0
 24 25  1  0
 24 26  1  0
 27 28  2  0
 27 29  1  0
 29 30  1  0
 30 31  2  0
M  END
