
     RDKit          3D

 30 31  0  0  0  0  0  0  0  0999 V2000
    6.0880   -3.1600   -0.8680 C   0  0  0  0  0  0  0  0  0  0  0  0
    5.3070   -2.0830   -0.1490 C   0  0  0  0  0  0  0  0  0  0  0  0
    4.1660   -1.7980   -0.9150 O   0  0  0  0  0  0  0  0  0  0  0  0
    3.3020   -0.5680   -0.0900 P   0  0  0  0  0  0  0  0  0  0  0  0
    3.3000    0.8520   -1.1200 O   0  0  0  0  0  0  0  0  0  0  0  0
    1.6470   -1.1100    0.1160 O   0  0  0  0  0  0  0  0  0  0  0  0
    0.9030    0.0100    0.0090 N   0  0  0  0  0  0  0  0  0  0  0  0
    1.2930    1.1830    0.6890 C   0  0  0  0  0  0  0  0  0  0  0  0
    2.3880    1.3050    1.3020 O   0  0  0  0  0  0  0  0  0  0  0  0
    0.3970    2.2860    0.6740 N   0  0  0  0  0  0  0  0  0  0  0  0
    0.8750    3.6370    0.7000 C   0  0  0  0  0  0  0  0  0  0  0  0
    2.1040    3.8930    0.7300 O   0  0  0  0  0  0  0  0  0  0  0  0
    0.0060    4.7110    0.6950 O   0  0  0  0  0  0  0  0  0  0  0  0
    0.5010    6.0560    0.7210 C   0  0  0  0  0  0  0  0  0  0  0  0
   -1.0150    1.9720    0.6370 C   0  0  0  0  0  0  0  0  0  0  0  0
   -1.3900    0.8960   -0.3280 C   0  0  1  0  0  0  0  0  0  0  0  0
   -1.9880    1.6320   -1.5170 C   0  0  0  0  0  0  0  0  0  0  0  0
   -3.2990    1.3620   -1.9370 N   0  0  0  0  0  0  0  0  0  0  0  0
   -1.2840    2.4850   -2.1140 O   0  0  0  0  0  0  0  0  0  0  0  0
   -0.2870    0.0230   -0.8040 C   0  0  2  0  0  0  0  0  0  0  0  0
   -0.8730   -1.3690   -0.8870 C   0  0  0  0  0  0  0  0  0  0  0  0
   -2.1730   -1.2680   -0.3390 N   0  0  0  0  0  0  0  0  0  0  0  0
   -3.2380   -1.8550   -1.0760 C   0  0  0  0  0  0  0  0  0  0  0  0
   -2.8630   -3.6910   -1.2120 P   0  0  0  0  0  0  0  0  0  0  0  0
   -1.7370   -4.1560    0.0590 O   0  0  0  0  0  0  0  0  0  0  0  0
   -4.3580   -4.5270   -0.9030 O   0  0  0  0  0  0  0  0  0  0  0  0
   -2.3690   -0.0220    0.1820 N   0  0  0  0  0  0  0  0  0  0  0  0
   -2.3580   -0.1710    1.9660 P   0  0  0  0  0  0  0  0  0  0  0  0
   -2.0000   -1.7680    2.5010 O   0  0  0  0  0  0  0  0  0  0  0  0
   -3.9170    0.2610    2.5620 O   0  0  0  0  0  0  0  0  0  0  0  0
  1  2  1  0
  2  3  1  0
  3  4  1  0
  4  5  1  0
  4  6  1  0
  6  7  1  0
  7  8  1  0
  7 20  1  0
  8  9  2  0
  8 10  1  0
 10 11  1  0
 10 15  1  0
 11 12  2  0
 11 13  1  0
 13 14  1  0
 15 16  1  0
 16 17  1  6
 16 20  1  0
 16 27  1  0
 17 18  1  0
 17 19  2  0
 20 21  1  1
 21 22  1  0
 22 23  1  0
 22 27  1  0
 23 24  1  0
 24 25  1  0
 24 26  1  0
 27 28  1  0
 28 29  1  0
 28 30  1  0
M  END
