
     RDKit          3D

 31 32  0  0  0  0  0  0  0  0999 V2000
   -0.7270   -4.5700    0.1550 O   0  0  0  0  0  0  0  0  0  0  0  0
   -0.0940   -4.2570    1.1400 C   0  0  0  0  0  0  0  0  0  0  0  0
    1.1040   -3.3750    1.1220 C   0  0  0  0  0  0  0  0  0  0  0  0
    0.7480   -1.9350    0.9420 C   0  0  1  0  0  0  0  0  0  0  0  0
    2.2530   -0.9050    0.9290 P   0  0  0  0  0  0  0  0  0  0  0  0
    3.4730   -1.6890    1.8860 O   0  0  0  0  0  0  0  0  0  0  0  0
    2.8380   -0.4850   -0.6900 N   0  0  0  0  0  0  0  0  0  0  0  0
    4.2330   -0.1500   -0.6560 C   0  0  0  0  0  0  0  0  0  0  0  0
    4.7670    0.2140   -2.0260 C   0  0  0  0  0  0  0  0  0  0  0  0
    6.1380    0.5440   -2.0010 O   0  0  0  0  0  0  0  0  0  0  0  0
    6.7070    1.5670   -1.2890 C   0  0  0  0  0  0  0  0  0  0  0  0
    5.9650    2.2910   -0.5880 O   0  0  0  0  0  0  0  0  0  0  0  0
    8.0620    1.8630   -1.2870 O   0  0  0  0  0  0  0  0  0  0  0  0
   -0.0450   -1.8320   -0.2960 N   0  0  0  0  0  0  0  0  0  0  0  0
   -0.9700   -0.9590   -0.1310 C   0  0  0  0  0  0  0  0  0  0  0  0
   -2.0020   -0.4760   -0.9910 N   0  0  0  0  0  0  0  0  0  0  0  0
   -2.8930    0.3740   -0.5210 C   0  0  0  0  0  0  0  0  0  0  0  0
   -3.9020    0.8230   -1.4210 N   0  0  0  0  0  0  0  0  0  0  0  0
   -4.5400   -0.2760   -2.7170 P   0  0  0  0  0  0  0  0  0  0  0  0
   -3.2840   -0.9950   -3.6350 O   0  0  0  0  0  0  0  0  0  0  0  0
   -5.6130   -1.4470   -2.0070 O   0  0  0  0  0  0  0  0  0  0  0  0
   -2.8400    0.8150    0.8220 N   0  0  0  0  0  0  0  0  0  0  0  0
   -3.4620    2.0260    1.2000 C   0  0  0  0  0  0  0  0  0  0  0  0
   -3.3650    2.3220    2.4580 O   0  0  0  0  0  0  0  0  0  0  0  0
   -4.1410    2.9220    0.4420 O   0  0  0  0  0  0  0  0  0  0  0  0
   -4.8430    4.3820    1.1210 P   0  0  0  0  0  0  0  0  0  0  0  0
   -3.9020    5.7810    0.7450 O   0  0  0  0  0  0  0  0  0  0  0  0
   -6.4380    4.5860    0.5020 O   0  0  0  0  0  0  0  0  0  0  0  0
   -2.1140    0.0030    1.8350 C   0  0  0  0  0  0  0  0  0  0  0  0
   -0.7970   -0.4450    1.2500 C   0  0  1  0  0  0  0  0  0  0  0  0
   -0.2120   -1.5150    1.9030 O   0  0  0  0  0  0  0  0  0  0  0  0
  1  2  2  0
  2  3  1  0
  4  3  1  1
  4  5  1  0
  4 14  1  0
  4 31  1  0
  5  6  1  0
  5  7  1  0
  7  8  1  0
  8  9  1  0
  9 10  1  0
 10 11  1  0
 11 12  2  0
 11 13  1  0
 14 15  2  0
 15 16  1  0
 15 30  1  0
 16 17  2  0
 17 18  1  0
 17 22  1  0
 18 19  1  0
 19 20  1  0
 19 21  1  0
 22 23  1  0
 22 29  1  0
 23 24  2  0
 23 25  1  0
 25 26  1  0
 26 27  1  0
 26 28  1  0
 30 29  1  1
 30 31  1  0
M  END
