
     RDKit          3D

 31 32  0  0  0  0  0  0  0  0999 V2000
    6.9660    1.7020    0.2070 O   0  0  0  0  0  0  0  0  0  0  0  0
    5.5420    1.1780   -0.1430 P   0  0  0  0  0  0  0  0  0  0  0  0
    5.3520   -0.5530   -0.7540 C   0  0  0  0  0  0  0  0  0  0  0  0
    4.5650   -1.3830    0.2490 C   0  0  0  0  0  0  0  0  0  0  0  0
    3.2670   -0.7460    0.3850 N   0  0  0  0  0  0  0  0  0  0  0  0
    2.1640   -1.0850   -0.4320 C   0  0  0  0  0  0  0  0  0  0  0  0
    2.2250   -1.9580   -1.3350 O   0  0  0  0  0  0  0  0  0  0  0  0
    0.9640   -0.4430   -0.2450 O   0  0  0  0  0  0  0  0  0  0  0  0
   -0.1870   -0.7100   -1.0050 C   0  0  2  0  0  0  0  0  0  0  0  0
   -0.6150    0.5200   -1.6850 C   0  0  0  0  0  0  0  0  0  0  0  0
    0.0460    1.0070   -2.6680 O   0  0  0  0  0  0  0  0  0  0  0  0
   -1.7880    1.2580   -1.3050 N   0  0  0  0  0  0  0  0  0  0  0  0
   -2.1380    2.6220   -1.2670 C   0  0  0  0  0  0  0  0  0  0  0  0
   -1.4170    3.6280   -1.7180 C   0  0  0  0  0  0  0  0  0  0  0  0
   -0.1960    3.4830   -2.3000 O   0  0  0  0  0  0  0  0  0  0  0  0
   -3.4320    2.7550   -0.6260 N   0  0  0  0  0  0  0  0  0  0  0  0
   -3.8350    1.4500   -0.2880 C   0  0  0  0  0  0  0  0  0  0  0  0
   -4.8680    1.1610    0.4140 O   0  0  0  0  0  0  0  0  0  0  0  0
   -2.9250    0.4560   -0.8400 C   0  0  2  0  0  0  0  0  0  0  0  0
   -2.4170   -0.4870    0.1550 N   0  0  0  0  0  0  0  0  0  0  0  0
   -3.2150   -0.5380    1.7370 P   0  0  0  0  0  0  0  0  0  0  0  0
   -2.2660   -1.1170    3.0220 O   0  0  0  0  0  0  0  0  0  0  0  0
   -4.7880   -1.1900    1.6250 O   0  0  0  0  0  0  0  0  0  0  0  0
   -1.2950   -1.3170   -0.1790 C   0  0  0  0  0  0  0  0  0  0  0  0
   -1.2170   -2.5080    0.1930 N   0  0  0  0  0  0  0  0  0  0  0  0
   -2.0070   -3.3520    0.9240 C   0  0  0  0  0  0  0  0  0  0  0  0
   -1.5520   -3.8930    1.9740 O   0  0  0  0  0  0  0  0  0  0  0  0
   -3.3370   -3.7120    0.6300 O   0  0  0  0  0  0  0  0  0  0  0  0
    3.0880    0.5120    1.6470 P   0  0  0  0  0  0  0  0  0  0  0  0
    2.8720    2.0400    0.8360 O   0  0  0  0  0  0  0  0  0  0  0  0
    1.6150    0.1640    2.4960 O   0  0  0  0  0  0  0  0  0  0  0  0
  1  2  2  0
  2  3  1  0
  3  4  1  0
  4  5  1  0
  5  6  1  0
  5 29  1  0
  6  7  2  0
  6  8  1  0
  9  8  1  1
  9 10  1  0
  9 24  1  0
 10 11  2  0
 10 12  1  0
 12 13  1  0
 12 19  1  0
 13 14  2  3
 13 16  1  0
 14 15  1  0
 16 17  1  0
 17 18  2  0
 17 19  1  0
 19 20  1  1
 20 21  1  0
 20 24  1  0
 21 22  1  0
 21 23  1  0
 24 25  2  3
 25 26  1  0
 26 27  2  0
 26 28  1  0
 29 30  1  0
 29 31  1  0
M  END
