
     RDKit          3D

 45 51  0  0  0  0  0  0  0  0999 V2000
    8.3190   -4.0450   -0.4240 C   0  0  0  0  0  0  0  0  0  0  0  0
    8.6020   -2.7180   -1.0540 C   0  0  2  0  0  0  0  0  0  0  0  0
   10.0220   -2.3410   -0.5760 C   0  0  0  0  0  0  0  0  0  0  0  0
    9.8060   -2.1950    0.7930 O   0  0  0  0  0  0  0  0  0  0  0  0
    8.5350   -1.6410    0.9850 C   0  0  0  0  0  0  0  0  0  0  0  0
    7.8800   -1.5610   -0.3430 C   0  0  2  0  0  0  0  0  0  0  0  0
    6.4590   -1.6380   -0.3980 N   0  0  0  0  0  0  0  0  0  0  0  0
    5.9100   -0.4660    0.1600 C   0  0  1  0  0  0  0  0  0  0  0  0
    6.6520    0.8250   -0.1400 C   0  0  0  0  0  0  0  0  0  0  0  0
    5.7440    1.7670    0.6300 C   0  0  0  0  0  0  0  0  0  0  0  0
    4.4050    1.3310    0.0930 N   0  0  0  0  0  0  0  0  0  0  0  0
    3.3760    2.2670    0.1400 C   0  0  0  0  0  0  0  0  0  0  0  0
    3.7660    3.3790    0.7420 O   0  0  0  0  0  0  0  0  0  0  0  0
    2.0560    2.3180   -0.2750 N   0  0  0  0  0  0  0  0  0  0  0  0
    1.1850    3.4650   -0.0850 C   0  0  0  0  0  0  0  0  0  0  0  0
    1.7360    4.7140    0.2480 C   0  0  0  0  0  0  0  0  0  0  0  0
    0.8970    5.8090    0.5140 C   0  0  0  0  0  0  0  0  0  0  0  0
   -0.4600    5.6670    0.4460 C   0  0  0  0  0  0  0  0  0  0  0  0
   -0.9570    4.4490    0.1140 C   0  0  0  0  0  0  0  0  0  0  0  0
   -0.1490    3.3110   -0.1640 C   0  0  0  0  0  0  0  0  0  0  0  0
   -0.8740    2.0980   -0.5240 C   0  0  0  0  0  0  0  0  0  0  0  0
   -2.0700    1.8400    0.0630 N   0  0  0  0  0  0  0  0  0  0  0  0
   -2.9480    0.8880   -0.3510 C   0  0  0  0  0  0  0  0  0  0  0  0
   -4.1420    0.6420    0.4320 C   0  0  0  0  0  0  0  0  0  0  0  0
   -5.3990    0.3880    0.0070 C   0  0  0  0  0  0  0  0  0  0  0  0
   -6.4520    0.0870    0.8880 C   0  0  0  0  0  0  0  0  0  0  0  0
   -7.8350   -0.0050    0.3920 C   0  0  2  0  0  0  0  0  0  0  0  0
   -8.9030    0.0160    1.4510 C   0  0  0  0  0  0  0  0  0  0  0  0
   -8.7480   -1.1370    0.5120 C   0  0  2  0  0  0  0  0  0  0  0  0
   -8.3600   -2.5060    0.9400 C   0  0  0  0  0  0  0  0  0  0  0  0
   -9.4720   -3.4400    0.5430 C   0  0  0  0  0  0  0  0  0  0  0  0
  -10.4390   -2.6810   -0.3050 C   0  0  0  0  0  0  0  0  0  0  0  0
   -9.8740   -1.3170   -0.5160 C   0  0  0  0  0  0  0  0  0  0  0  0
   -6.2190    0.0330    2.2040 N   0  0  0  0  0  0  0  0  0  0  0  0
   -4.9670    0.2810    2.6820 C   0  0  0  0  0  0  0  0  0  0  0  0
   -4.7640    0.2280    3.9260 O   0  0  0  0  0  0  0  0  0  0  0  0
   -3.9410    0.5810    1.8220 C   0  0  0  0  0  0  0  0  0  0  0  0
   -2.5830    0.1740   -1.4180 N   0  0  0  0  0  0  0  0  0  0  0  0
   -1.3910    0.3870   -2.0450 C   0  0  0  0  0  0  0  0  0  0  0  0
   -1.1000   -0.4480   -3.2370 C   0  0  1  0  0  0  0  0  0  0  0  0
   -1.5100   -1.7490   -3.1250 F   0  0  0  0  0  0  0  0  0  0  0  0
   -1.7870    0.1330   -4.3080 F   0  0  0  0  0  0  0  0  0  0  0  0
    0.2530   -0.3230   -3.5470 F   0  0  0  0  0  0  0  0  0  0  0  0
   -0.5410    1.3580   -1.5810 N   0  0  0  0  0  0  0  0  0  0  0  0
    4.5180   -0.0440   -0.3590 C   0  0  0  0  0  0  0  0  0  0  0  0
  2  1  1  1
  2  3  1  0
  2  6  1  0
  3  4  1  0
  4  5  1  0
  5  6  1  0
  6  7  1  1
  8  7  1  6
  8  9  1  0
  8 45  1  0
  9 10  1  0
 10 11  1  0
 11 12  1  0
 11 45  1  0
 12 13  2  0
 12 14  1  0
 14 15  1  0
 15 16  2  0
 15 20  1  0
 16 17  1  0
 17 18  2  0
 18 19  1  0
 19 20  2  0
 20 21  1  0
 21 22  2  0
 21 44  1  0
 22 23  1  0
 23 24  1  0
 23 38  2  0
 24 25  1  0
 24 37  2  0
 25 26  2  0
 27 26  1  1
 26 34  1  0
 27 28  1  0
 27 29  1  0
 29 28  1  1
 29 30  1  0
 29 33  1  0
 30 31  1  0
 31 32  1  0
 32 33  1  0
 34 35  1  0
 35 36  2  0
 35 37  1  0
 38 39  1  0
 39 40  1  0
 39 44  2  0
 40 41  1  1
 40 42  1  0
 40 43  1  0
M  CHG  1   7   1
M  END
