
     RDKit          3D

 44 49  0  0  0  0  0  0  0  0999 V2000
    8.5610    2.8250   -0.2360 C   0  0  0  0  0  0  0  0  0  0  0  0
    8.3640    1.4570   -0.9120 C   0  0  1  0  0  0  0  0  0  0  0  0
    9.4190    0.4740   -0.4110 C   0  0  0  0  0  0  0  0  0  0  0  0
    7.0130    0.9590   -0.6460 C   0  0  0  0  0  0  0  0  0  0  0  0
    6.5080    0.6130    0.5900 C   0  0  0  0  0  0  0  0  0  0  0  0
    5.2030    0.2060    0.3550 C   0  0  0  0  0  0  0  0  0  0  0  0
    4.2770   -0.2320    1.3380 N   0  0  0  0  0  0  0  0  0  0  0  0
    2.9610   -0.6270    0.9620 C   0  0  2  0  0  0  0  0  0  0  0  0
    2.0590   -0.8460    2.1430 C   0  0  0  0  0  0  0  0  0  0  0  0
    0.6770   -1.1550    1.6950 C   0  0  0  0  0  0  0  0  0  0  0  0
    0.6040   -1.4810    0.2620 N   0  0  0  0  0  0  0  0  0  0  0  0
   -0.5000   -1.1850   -0.5270 C   0  0  0  0  0  0  0  0  0  0  0  0
   -0.9330   -2.0890   -1.3320 O   0  0  0  0  0  0  0  0  0  0  0  0
   -1.2340    0.0750   -0.5420 C   0  0  0  0  0  0  0  0  0  0  0  0
   -0.7690    1.0890    0.1310 C   0  0  0  0  0  0  0  0  0  0  0  0
   -1.3050    2.4350    0.2770 C   0  0  0  0  0  0  0  0  0  0  0  0
   -0.3670    3.3870    0.2230 O   0  0  0  0  0  0  0  0  0  0  0  0
   -2.5770    2.9350    0.4560 N   0  0  0  0  0  0  0  0  0  0  0  0
   -3.5620    2.8330    1.5130 C   0  0  0  0  0  0  0  0  0  0  0  0
   -4.8760    3.3800    1.0740 C   0  0  0  0  0  0  0  0  0  0  0  0
   -4.7330    4.6750    0.8040 O   0  0  0  0  0  0  0  0  0  0  0  0
   -6.1070    2.7960    0.9260 N   0  0  0  0  0  0  0  0  0  0  0  0
   -6.6200    1.5360    0.5030 C   0  0  0  0  0  0  0  0  0  0  0  0
   -7.8850    1.1600    1.0340 C   0  0  0  0  0  0  0  0  0  0  0  0
   -8.5720    0.0290    0.7110 C   0  0  0  0  0  0  0  0  0  0  0  0
   -9.7810   -0.2390    1.2660 F   0  0  0  0  0  0  0  0  0  0  0  0
   -7.9920   -0.8160   -0.2040 C   0  0  0  0  0  0  0  0  0  0  0  0
   -6.7690   -0.4810   -0.7350 C   0  0  0  0  0  0  0  0  0  0  0  0
   -6.0550    0.6810   -0.4050 C   0  0  0  0  0  0  0  0  0  0  0  0
   -4.7570    0.7820   -1.1050 C   0  0  0  0  0  0  0  0  0  0  0  0
   -3.6960   -0.0020   -0.5580 N   0  0  1  0  0  0  0  0  0  0  0  0
   -4.1060   -1.4100   -0.4620 C   0  0  2  0  0  0  0  0  0  0  0  0
   -4.8220   -1.9140    0.7360 C   0  0  0  0  0  0  0  0  0  0  0  0
   -3.3880   -2.2750    0.5440 C   0  0  0  0  0  0  0  0  0  0  0  0
   -2.4870    0.0390   -1.3190 C   0  0  0  0  0  0  0  0  0  0  0  0
    1.6830   -2.2570   -0.2990 C   0  0  0  0  0  0  0  0  0  0  0  0
    1.4520   -3.3210   -1.1350 C   0  0  0  0  0  0  0  0  0  0  0  0
    2.5650   -4.0200   -1.5730 C   0  0  0  0  0  0  0  0  0  0  0  0
    3.8220   -3.6280   -1.1640 C   0  0  0  0  0  0  0  0  0  0  0  0
    4.8960   -4.3080   -1.5930 F   0  0  0  0  0  0  0  0  0  0  0  0
    4.0300   -2.5450   -0.3170 C   0  0  0  0  0  0  0  0  0  0  0  0
    2.9430   -1.8580    0.1130 C   0  0  0  0  0  0  0  0  0  0  0  0
    4.9550    0.3090   -0.9570 N   0  0  0  0  0  0  0  0  0  0  0  0
    6.0510    0.7630   -1.5490 N   0  0  0  0  0  0  0  0  0  0  0  0
  2  1  1  1
  2  3  1  0
  2  4  1  0
  4  5  1  0
  4 44  2  0
  5  6  2  0
  6  7  1  0
  6 43  1  0
  8  7  1  1
  8  9  1  0
  8 42  1  0
  9 10  1  0
 10 11  1  0
 11 12  1  0
 11 36  1  0
 12 13  2  0
 12 14  1  0
 14 15  2  0
 14 35  1  0
 15 16  1  0
 16 17  2  0
 16 18  1  0
 18 19  1  0
 19 20  1  0
 20 21  2  0
 20 22  1  0
 22 23  1  0
 23 24  2  0
 23 29  1  0
 24 25  1  0
 25 26  1  0
 25 27  2  0
 27 28  1  0
 28 29  2  0
 29 30  1  0
 31 30  1  6
 31 32  1  0
 31 35  1  0
 32 33  1  1
 32 34  1  0
 33 34  1  0
 36 37  2  0
 36 42  1  0
 37 38  1  0
 38 39  2  0
 39 40  1  0
 39 41  1  0
 41 42  2  0
 43 44  1  0
M  CHG  1  31   1
M  END
