
     RDKit          3D

 45 50  0  0  0  0  0  0  0  0999 V2000
    4.5250   -0.4320   -2.3700 C   0  0  0  0  0  0  0  0  0  0  0  0
    5.3730    0.1510   -1.2650 C   0  0  0  0  0  0  0  0  0  0  0  0
    6.6660    0.4060   -1.5890 C   0  0  0  0  0  0  0  0  0  0  0  0
    7.4560    0.8450   -0.5390 C   0  0  0  0  0  0  0  0  0  0  0  0
    8.7770    1.2370   -0.8430 C   0  0  0  0  0  0  0  0  0  0  0  0
    9.5700    1.7850    0.1020 C   0  0  0  0  0  0  0  0  0  0  0  0
   10.8470    2.2160   -0.2020 F   0  0  0  0  0  0  0  0  0  0  0  0
    9.0780    1.9350    1.3810 C   0  0  0  0  0  0  0  0  0  0  0  0
    7.7970    1.5420    1.6830 C   0  0  0  0  0  0  0  0  0  0  0  0
    7.2220    1.6870    3.0340 C   0  0  0  0  0  0  0  0  0  0  0  0
    6.9460    0.9860    0.7090 C   0  0  0  0  0  0  0  0  0  0  0  0
    5.6270    0.7190    1.0080 N   0  0  0  0  0  0  0  0  0  0  0  0
    4.8040    0.3130    0.0480 C   0  0  0  0  0  0  0  0  0  0  0  0
    3.3960    0.2100   -0.0380 C   0  0  0  0  0  0  0  0  0  0  0  0
    2.2740   -0.4020    0.3630 O   0  0  0  0  0  0  0  0  0  0  0  0
    2.2360   -1.8030    0.1230 C   0  0  0  0  0  0  0  0  0  0  0  0
    3.3420   -2.3120   -0.1830 O   0  0  0  0  0  0  0  0  0  0  0  0
    1.0870   -2.7050    0.1480 C   0  0  0  0  0  0  0  0  0  0  0  0
    1.1730   -4.0910    0.2450 C   0  0  0  0  0  0  0  0  0  0  0  0
    0.0580   -4.6660   -0.1890 N   0  0  0  0  0  0  0  0  0  0  0  0
   -0.7350   -3.6920   -0.5630 C   0  0  0  0  0  0  0  0  0  0  0  0
   -1.9030   -3.8690   -1.0230 O   0  0  0  0  0  0  0  0  0  0  0  0
   -0.1150   -2.4370   -0.3710 N   0  0  0  0  0  0  0  0  0  0  0  0
   -0.7650   -1.3280   -0.9980 C   0  0  0  0  0  0  0  0  0  0  0  0
   -2.0640   -0.8440   -0.5760 C   0  0  2  0  0  0  0  0  0  0  0  0
   -2.6430    0.2050   -1.5230 C   0  0  0  0  0  0  0  0  0  0  0  0
   -2.3790    1.5630   -1.3150 N   0  0  0  0  0  0  0  0  0  0  0  0
   -3.6120    2.2360   -0.8140 C   0  0  0  0  0  0  0  0  0  0  0  0
   -4.2520    1.2770    0.1450 C   0  0  0  0  0  0  0  0  0  0  0  0
   -5.5510    1.4350    0.3860 C   0  0  0  0  0  0  0  0  0  0  0  0
   -6.3260    2.5160   -0.2570 C   0  0  0  0  0  0  0  0  0  0  0  0
   -7.6520    2.2420   -0.6320 C   0  0  0  0  0  0  0  0  0  0  0  0
   -8.1170    3.3610   -1.2330 N   0  0  0  0  0  0  0  0  0  0  0  0
   -7.1510    4.2880   -1.2460 N   0  0  0  0  0  0  0  0  0  0  0  0
   -6.0710    3.7810   -0.6520 C   0  0  0  0  0  0  0  0  0  0  0  0
   -3.7090    0.1190    0.7560 N   0  0  0  0  0  0  0  0  0  0  0  0
   -4.4940   -0.9460    1.2080 C   0  0  0  0  0  0  0  0  0  0  0  0
   -5.4490   -1.5450    0.4060 C   0  0  0  0  0  0  0  0  0  0  0  0
   -6.2040   -2.5970    0.8120 C   0  0  0  0  0  0  0  0  0  0  0  0
   -7.0830   -3.1580   -0.1030 F   0  0  0  0  0  0  0  0  0  0  0  0
   -6.0820   -3.1330    2.0460 C   0  0  0  0  0  0  0  0  0  0  0  0
   -5.1320   -2.5680    2.9040 C   0  0  0  0  0  0  0  0  0  0  0  0
   -5.0030   -3.1050    4.1560 F   0  0  0  0  0  0  0  0  0  0  0  0
   -4.3940   -1.5270    2.4760 C   0  0  0  0  0  0  0  0  0  0  0  0
   -2.2070   -0.1840    0.8050 C   0  0  0  0  0  0  0  0  0  0  0  0
  1  2  1  0
  2  3  2  0
  2 13  1  0
  3  4  1  0
  4  5  2  0
  4 11  1  0
  5  6  1  0
  6  7  1  0
  6  8  2  0
  8  9  1  0
  9 10  1  0
  9 11  2  0
 11 12  1  0
 12 13  2  0
 13 14  1  0
 14 15  1  0
 15 16  1  0
 16 17  2  0
 16 18  1  0
 18 19  2  0
 18 23  1  0
 19 20  1  0
 20 21  1  0
 21 22  2  0
 21 23  1  0
 23 24  1  0
 25 24  1  6
 25 26  1  0
 25 45  1  0
 26 27  1  0
 27 28  1  0
 28 29  1  0
 29 30  2  3
 29 36  1  0
 30 31  1  0
 31 32  1  0
 31 35  2  0
 32 33  2  0
 33 34  1  0
 34 35  1  0
 36 37  1  0
 36 45  1  0
 37 38  2  0
 37 44  1  0
 38 39  1  0
 39 40  1  0
 39 41  2  0
 41 42  1  0
 42 43  1  0
 42 44  2  0
M  CHG  1  27   1
M  END
