
     RDKit          3D

 45 51  0  0  0  0  0  0  0  0999 V2000
   -5.6140    5.1720   -0.9320 C   0  0  0  0  0  0  0  0  0  0  0  0
   -5.5740    3.9030   -0.1930 C   0  0  0  0  0  0  0  0  0  0  0  0
   -6.5930    3.4960    0.6620 C   0  0  0  0  0  0  0  0  0  0  0  0
   -6.5160    2.2680    1.3550 C   0  0  0  0  0  0  0  0  0  0  0  0
   -5.3990    1.4550    1.1750 C   0  0  0  0  0  0  0  0  0  0  0  0
   -4.5060    1.9520    0.3410 N   0  0  0  0  0  0  0  0  0  0  0  0
   -4.4880    3.0650   -0.3380 C   0  0  0  0  0  0  0  0  0  0  0  0
   -3.3430    3.3050   -1.1700 N   0  0  0  0  0  0  0  0  0  0  0  0
   -2.3290    2.2930   -1.1690 C   0  0  0  0  0  0  0  0  0  0  0  0
   -2.4900    1.1920   -0.4090 C   0  0  0  0  0  0  0  0  0  0  0  0
   -1.4880    0.1040   -0.3540 C   0  0  0  0  0  0  0  0  0  0  0  0
   -0.6030    0.1150   -1.5200 N   0  0  0  0  0  0  0  0  0  0  0  0
    0.5280   -0.7560   -1.5690 C   0  0  0  0  0  0  0  0  0  0  0  0
    1.2820   -0.7490   -2.5590 O   0  0  0  0  0  0  0  0  0  0  0  0
    0.7820   -1.6480   -0.4440 C   0  0  0  0  0  0  0  0  0  0  0  0
    1.9820   -2.5380   -0.6150 C   0  0  2  0  0  0  0  0  0  0  0  0
    3.2470   -1.7550   -0.7970 C   0  0  0  0  0  0  0  0  0  0  0  0
    3.9950   -2.0570   -1.7600 O   0  0  0  0  0  0  0  0  0  0  0  0
    3.6240   -0.7000    0.0650 N   0  0  0  0  0  0  0  0  0  0  0  0
    4.8140    0.0740   -0.0580 C   0  0  0  0  0  0  0  0  0  0  0  0
    5.7790   -0.0390   -0.9770 N   0  0  0  0  0  0  0  0  0  0  0  0
    6.7020    0.8840   -0.7200 N   0  0  0  0  0  0  0  0  0  0  0  0
    6.3530    1.6000    0.3550 C   0  0  0  0  0  0  0  0  0  0  0  0
    5.1330    1.0970    0.8050 C   0  0  0  0  0  0  0  0  0  0  0  0
    4.4250    1.6130    1.9660 C   0  0  0  0  0  0  0  0  0  0  0  0
    4.2380    2.9710    2.0680 C   0  0  0  0  0  0  0  0  0  0  0  0
    3.5700    3.5280    3.1590 C   0  0  0  0  0  0  0  0  0  0  0  0
    3.0920    2.6970    4.1500 C   0  0  0  0  0  0  0  0  0  0  0  0
    3.2690    1.3330    4.0660 C   0  0  0  0  0  0  0  0  0  0  0  0
    2.8030    0.4860    5.0380 F   0  0  0  0  0  0  0  0  0  0  0  0
    3.9420    0.8040    2.9610 C   0  0  0  0  0  0  0  0  0  0  0  0
    1.8350   -3.5380   -1.6460 N   0  0  1  0  0  0  0  0  0  0  0  0
    2.8420   -4.5410   -1.4660 C   0  0  0  0  0  0  0  0  0  0  0  0
    2.4410   -5.9390   -1.7330 C   0  0  0  0  0  0  0  0  0  0  0  0
    1.1290   -6.2660   -1.5380 O   0  0  0  0  0  0  0  0  0  0  0  0
    0.3580   -5.3720   -2.3170 C   0  0  0  0  0  0  0  0  0  0  0  0
    0.4910   -4.0470   -1.5950 C   0  0  0  0  0  0  0  0  0  0  0  0
   -0.9110    1.0170   -2.6040 C   0  0  0  0  0  0  0  0  0  0  0  0
   -1.1070    2.4170   -1.9990 C   0  0  0  0  0  0  0  0  0  0  0  0
   -3.6850    0.9990    0.4230 C   0  0  0  0  0  0  0  0  0  0  0  0
   -4.6340    0.3710    1.3700 C   0  0  0  0  0  0  0  0  0  0  0  0
   -4.6260   -0.8500    2.1030 C   0  0  0  0  0  0  0  0  0  0  0  0
   -5.5840   -1.2220    2.9070 C   0  0  0  0  0  0  0  0  0  0  0  0
   -6.6630   -0.4460    3.0890 F   0  0  0  0  0  0  0  0  0  0  0  0
   -5.5000   -2.3910    3.5700 F   0  0  0  0  0  0  0  0  0  0  0  0
  1  2  1  0
  2  3  1  0
  2  7  2  0
  3  4  2  0
  4  5  1  0
  5  6  1  0
  5 41  2  0
  6  7  1  0
  6 40  2  0
  7  8  1  0
  8  9  1  0
  9 10  2  0
  9 39  1  0
 10 11  1  0
 10 40  1  0
 11 12  1  0
 12 13  1  0
 12 38  1  0
 13 14  2  0
 13 15  1  0
 16 15  1  6
 16 17  1  0
 16 32  1  0
 17 18  2  0
 17 19  1  0
 19 20  1  0
 20 21  1  0
 20 24  2  0
 21 22  1  0
 22 23  2  0
 23 24  1  0
 24 25  1  0
 25 26  2  0
 25 31  1  0
 26 27  1  0
 27 28  2  0
 28 29  1  0
 29 30  1  0
 29 31  2  0
 32 33  1  1
 32 37  1  0
 33 34  1  0
 34 35  1  0
 35 36  1  0
 36 37  1  0
 38 39  1  0
 40 41  1  0
 41 42  1  0
 42 43  2  3
 43 44  1  0
 43 45  1  0
M  CHG  2   6   1  32   1
M  END
