
     RDKit          3D

 45 47  0  0  0  0  0  0  0  0999 V2000
    5.8470    5.1620    0.6430 N   0  0  0  0  0  0  0  0  0  0  0  0
    5.3070    3.8450    0.7200 C   0  0  0  0  0  0  0  0  0  0  0  0
    4.2120    3.5650    0.1800 O   0  0  0  0  0  0  0  0  0  0  0  0
    6.0480    2.8090    1.4420 C   0  0  0  0  0  0  0  0  0  0  0  0
    5.4940    1.5160    1.3700 O   0  0  0  0  0  0  0  0  0  0  0  0
    5.3560    0.8270    0.1670 C   0  0  0  0  0  0  0  0  0  0  0  0
    5.7430    1.3200   -1.0500 C   0  0  0  0  0  0  0  0  0  0  0  0
    5.5950    0.6080   -2.2120 C   0  0  0  0  0  0  0  0  0  0  0  0
    5.0360   -0.6440   -2.1320 C   0  0  0  0  0  0  0  0  0  0  0  0
    4.6400   -1.1530   -0.9010 C   0  0  0  0  0  0  0  0  0  0  0  0
    4.7770   -0.4610    0.2770 C   0  0  0  0  0  0  0  0  0  0  0  0
    4.4040   -0.9330    1.4920 O   0  0  0  0  0  0  0  0  0  0  0  0
    3.8680   -2.0830    1.9290 C   0  0  0  0  0  0  0  0  0  0  0  0
    4.5280   -2.7500    2.9250 C   0  0  0  0  0  0  0  0  0  0  0  0
    3.9280   -4.0020    3.3840 C   0  0  0  0  0  0  0  0  0  0  0  0
    3.7320   -4.8940    2.1670 C   0  0  0  0  0  0  0  0  0  0  0  0
    3.0280   -4.1820    1.0250 C   0  0  0  0  0  0  0  0  0  0  0  0
    2.6440   -2.7870    1.5100 C   0  0  2  0  0  0  0  0  0  0  0  0
    1.7410   -2.0930    0.6720 N   0  0  0  0  0  0  0  0  0  0  0  0
    0.3600   -2.4580    0.6010 C   0  0  0  0  0  0  0  0  0  0  0  0
    0.0060   -3.4360    1.2950 O   0  0  0  0  0  0  0  0  0  0  0  0
   -0.5780   -1.7890   -0.1960 N   0  0  0  0  0  0  0  0  0  0  0  0
   -1.9470   -2.2490   -0.2800 C   0  0  0  0  0  0  0  0  0  0  0  0
   -2.8170   -1.3760   -1.1600 C   0  0  2  0  0  0  0  0  0  0  0  0
   -2.3240   -1.1990   -2.4230 O   0  0  0  0  0  0  0  0  0  0  0  0
   -3.3040   -0.1840   -0.4260 C   0  0  1  0  0  0  0  0  0  0  0  0
   -2.3180    0.7640   -0.1950 O   0  0  0  0  0  0  0  0  0  0  0  0
   -2.0510    1.4170    1.0020 C   0  0  0  0  0  0  0  0  0  0  0  0
   -1.0240    2.3350    0.9670 C   0  0  0  0  0  0  0  0  0  0  0  0
   -0.7050    3.0250    2.1230 C   0  0  0  0  0  0  0  0  0  0  0  0
   -1.3700    2.8350    3.3100 C   0  0  0  0  0  0  0  0  0  0  0  0
   -0.9700    3.7030    4.7620 Cl  0  0  0  0  0  0  0  0  0  0  0  0
   -2.4060    1.8950    3.3070 C   0  0  0  0  0  0  0  0  0  0  0  0
   -3.1250    1.6870    4.5850 C   0  0  0  0  0  0  0  0  0  0  0  0
   -2.5430    1.4710    5.6560 O   0  0  0  0  0  0  0  0  0  0  0  0
   -4.5090    1.7450    4.5370 O   0  0  0  0  0  0  0  0  0  0  0  0
   -2.7320    1.2040    2.1650 C   0  0  0  0  0  0  0  0  0  0  0  0
   -4.5030    0.4550   -1.1050 C   0  0  0  0  0  0  0  0  0  0  0  0
   -4.4860    1.7270   -1.2290 O   0  0  0  0  0  0  0  0  0  0  0  0
   -5.5880   -0.2850   -1.5830 N   0  0  0  0  0  0  0  0  0  0  0  0
   -6.7420    0.3170   -2.2320 C   0  0  0  0  0  0  0  0  0  0  0  0
   -6.3640    1.1380   -3.4350 C   0  0  0  0  0  0  0  0  0  0  0  0
   -5.6220    0.3740   -4.5000 C   0  0  0  0  0  0  0  0  0  0  0  0
   -5.3330    1.3970   -5.6080 C   0  0  0  0  0  0  0  0  0  0  0  0
   -6.5670    1.8920   -6.0580 O   0  0  0  0  0  0  0  0  0  0  0  0
  1  2  1  0
  2  3  2  0
  2  4  1  0
  4  5  1  0
  5  6  1  0
  6  7  2  0
  6 11  1  0
  7  8  1  0
  8  9  2  0
  9 10  1  0
 10 11  2  0
 11 12  1  0
 12 13  1  0
 13 14  2  0
 13 18  1  0
 14 15  1  0
 15 16  1  0
 16 17  1  0
 17 18  1  0
 18 19  1  6
 19 20  1  0
 20 21  2  0
 20 22  1  0
 22 23  1  0
 23 24  1  0
 24 25  1  6
 24 26  1  0
 26 27  1  6
 26 38  1  0
 27 28  1  0
 28 29  2  0
 28 37  1  0
 29 30  1  0
 30 31  2  0
 31 32  1  0
 31 33  1  0
 33 34  1  0
 33 37  2  0
 34 35  2  0
 34 36  1  0
 38 39  2  0
 38 40  1  0
 40 41  1  0
 41 42  1  0
 42 43  1  0
 43 44  1  0
 44 45  1  0
M  END
