
     RDKit          3D

 45 50  0  0  0  0  0  0  0  0999 V2000
   -6.4580    5.2270   -1.2080 C   0  0  0  0  0  0  0  0  0  0  0  0
   -5.9680    4.2540   -2.2310 C   0  0  0  0  0  0  0  0  0  0  0  0
   -5.2780    3.0740   -1.6520 C   0  0  0  0  0  0  0  0  0  0  0  0
   -3.9130    2.9290   -1.6740 C   0  0  0  0  0  0  0  0  0  0  0  0
   -3.3040    1.7940   -1.1170 C   0  0  0  0  0  0  0  0  0  0  0  0
   -4.0040    0.7750   -0.5280 C   0  0  0  0  0  0  0  0  0  0  0  0
   -5.4050    0.9330   -0.5090 C   0  0  0  0  0  0  0  0  0  0  0  0
   -5.9850    2.0540   -1.0600 C   0  0  0  0  0  0  0  0  0  0  0  0
   -7.3460    2.1760   -1.0240 F   0  0  0  0  0  0  0  0  0  0  0  0
   -6.3910   -0.0010    0.0830 C   0  0  0  0  0  0  0  0  0  0  0  0
   -5.8950   -1.4020    0.0780 C   0  0  0  0  0  0  0  0  0  0  0  0
   -4.9520   -1.7500    1.0800 N   0  0  2  0  0  0  0  0  0  0  0  0
   -5.5950   -2.1590    2.3120 C   0  0  0  0  0  0  0  0  0  0  0  0
   -6.2340   -3.5340    2.0820 C   0  0  0  0  0  0  0  0  0  0  0  0
   -3.9330   -0.7540    1.3340 C   0  0  0  0  0  0  0  0  0  0  0  0
   -3.2930   -0.4000    0.0110 C   0  0  2  0  0  0  0  0  0  0  0  0
   -1.8420   -0.3510    0.0130 C   0  0  0  0  0  0  0  0  0  0  0  0
   -1.1380    0.6010   -0.5330 C   0  0  0  0  0  0  0  0  0  0  0  0
    0.3440    0.6510   -0.5390 C   0  0  0  0  0  0  0  0  0  0  0  0
    0.8630    1.6180   -1.1060 O   0  0  0  0  0  0  0  0  0  0  0  0
    1.1580   -0.3300    0.0590 N   0  0  0  0  0  0  0  0  0  0  0  0
    2.5750   -0.3400    0.0750 C   0  0  0  0  0  0  0  0  0  0  0  0
    3.3550    0.4860   -0.6980 C   0  0  0  0  0  0  0  0  0  0  0  0
    4.7600    0.4150   -0.6970 C   0  0  0  0  0  0  0  0  0  0  0  0
    5.4130   -0.4820    0.0740 C   0  0  0  0  0  0  0  0  0  0  0  0
    6.8910   -0.6030    0.1030 C   0  0  0  0  0  0  0  0  0  0  0  0
    7.4260   -1.2350    1.0420 O   0  0  0  0  0  0  0  0  0  0  0  0
    7.6950   -0.0260   -0.9000 N   0  0  0  0  0  0  0  0  0  0  0  0
    9.1090   -0.0840   -0.9630 C   0  0  0  0  0  0  0  0  0  0  0  0
    9.9250   -0.6880   -0.0450 C   0  0  0  0  0  0  0  0  0  0  0  0
   11.3140   -0.6710   -0.2230 C   0  0  0  0  0  0  0  0  0  0  0  0
   11.8890   -0.0570   -1.3070 C   0  0  0  0  0  0  0  0  0  0  0  0
   13.2350   -0.0620   -1.4440 F   0  0  0  0  0  0  0  0  0  0  0  0
   11.0710    0.5450   -2.2210 C   0  0  0  0  0  0  0  0  0  0  0  0
    9.7020    0.5480   -2.0800 C   0  0  0  0  0  0  0  0  0  0  0  0
    8.9150    1.1560   -3.0090 F   0  0  0  0  0  0  0  0  0  0  0  0
    4.6430   -1.3220    0.8590 C   0  0  0  0  0  0  0  0  0  0  0  0
    3.2540   -1.2700    0.8760 C   0  0  0  0  0  0  0  0  0  0  0  0
    2.5770   -2.2080    1.7780 C   0  0  0  0  0  0  0  0  0  0  0  0
    3.2380   -3.1000    2.5400 N   0  0  0  0  0  0  0  0  0  0  0  0
    2.3630   -3.7770    3.2380 N   0  0  0  0  0  0  0  0  0  0  0  0
    1.1690   -3.3230    2.9260 N   0  0  0  0  0  0  0  0  0  0  0  0
    1.2870   -2.3800    2.0500 N   0  0  0  0  0  0  0  0  0  0  0  0
   -1.8330    1.7310   -1.1350 C   0  0  0  0  0  0  0  0  0  0  0  0
   -1.2230    2.6830   -1.6840 O   0  0  0  0  0  0  0  0  0  0  0  0
  1  2  1  0
  2  3  1  0
  3  4  2  0
  3  8  1  0
  4  5  1  0
  5  6  2  0
  5 44  1  0
  6  7  1  0
  6 16  1  0
  7  8  2  0
  7 10  1  0
  8  9  1  0
 10 11  1  0
 11 12  1  0
 12 13  1  1
 12 15  1  0
 13 14  1  0
 16 15  1  1
 16 17  1  0
 17 18  2  0
 18 19  1  0
 18 44  1  0
 19 20  2  0
 19 21  1  0
 21 22  1  0
 22 23  2  0
 22 38  1  0
 23 24  1  0
 24 25  2  0
 25 26  1  0
 25 37  1  0
 26 27  2  0
 26 28  1  0
 28 29  1  0
 29 30  2  0
 29 35  1  0
 30 31  1  0
 31 32  2  0
 32 33  1  0
 32 34  1  0
 34 35  2  0
 35 36  1  0
 37 38  2  0
 38 39  1  0
 39 40  1  0
 39 43  2  0
 40 41  2  0
 41 42  1  0
 42 43  1  0
 44 45  2  0
M  CHG  1  12   1
M  END
