
     RDKit          3D

 49 56  0  0  0  0  0  0  0  0999 V2000
   -0.8580    4.4860    2.1740 C   0  0  0  0  0  0  0  0  0  0  0  0
   -1.3110    3.0200    2.0370 C   0  0  0  0  0  0  0  0  0  0  0  0
   -1.1740    2.6800    0.6050 N   0  0  1  0  0  0  0  0  0  0  0  0
    0.1960    2.5930    0.3080 C   0  0  0  0  0  0  0  0  0  0  0  0
    0.6940    1.4700   -0.5220 C   0  0  2  0  0  0  0  0  0  0  0  0
    2.0300    1.0020    0.0190 C   0  0  0  0  0  0  0  0  0  0  0  0
    2.5480   -0.0680   -0.7360 O   0  0  0  0  0  0  0  0  0  0  0  0
    3.7790   -0.6040   -0.3640 C   0  0  0  0  0  0  0  0  0  0  0  0
    4.3620   -0.1050    0.6210 O   0  0  0  0  0  0  0  0  0  0  0  0
    4.3950   -1.7080   -1.0770 C   0  0  0  0  0  0  0  0  0  0  0  0
    3.7450   -2.2580   -2.1600 C   0  0  0  0  0  0  0  0  0  0  0  0
    4.3000   -3.3110   -2.8630 C   0  0  0  0  0  0  0  0  0  0  0  0
    5.5270   -3.8060   -2.4580 C   0  0  0  0  0  0  0  0  0  0  0  0
    6.1670   -3.2460   -1.3710 C   0  0  0  0  0  0  0  0  0  0  0  0
    5.6140   -2.1800   -0.6520 C   0  0  0  0  0  0  0  0  0  0  0  0
    6.3260   -1.6440    0.4630 N   0  0  0  0  0  0  0  0  0  0  0  0
    6.3120   -2.1430    1.7930 C   0  0  0  0  0  0  0  0  0  0  0  0
    5.7160   -3.1590    2.2250 O   0  0  0  0  0  0  0  0  0  0  0  0
    7.1350   -1.2650    2.6510 C   0  0  0  0  0  0  0  0  0  0  0  0
    7.6250   -0.1390    1.7770 C   0  0  2  0  0  0  0  0  0  0  0  0
    7.0300    1.1830    2.1590 C   0  0  0  0  0  0  0  0  0  0  0  0
    7.1780   -0.5090    0.4280 C   0  0  0  0  0  0  0  0  0  0  0  0
    7.5270    0.1260   -0.6220 O   0  0  0  0  0  0  0  0  0  0  0  0
    0.9900    1.8600   -1.9570 C   0  0  0  0  0  0  0  0  0  0  0  0
   -0.1960    2.4880   -2.5660 C   0  0  0  0  0  0  0  0  0  0  0  0
   -1.5370    1.9350   -2.1780 C   0  0  2  0  0  0  0  0  0  0  0  0
   -2.3300    3.0570   -1.9380 O   0  0  0  0  0  0  0  0  0  0  0  0
   -3.2130    3.3890   -2.9210 C   0  0  0  0  0  0  0  0  0  0  0  0
   -1.6270    0.9920   -1.0630 C   0  0  2  0  0  0  0  0  0  0  0  0
   -2.0470    1.6140    0.2770 C   0  0  1  0  0  0  0  0  0  0  0  0
   -1.9370    0.4310    1.1800 C   0  0  2  0  0  0  0  0  0  0  0  0
   -2.0790    0.7040    2.5290 O   0  0  0  0  0  0  0  0  0  0  0  0
   -0.5420   -0.0570    0.8410 C   0  0  1  0  0  0  0  0  0  0  0  0
   -0.4330   -1.3940    1.1090 O   0  0  0  0  0  0  0  0  0  0  0  0
    0.4110   -1.7170    2.1380 C   0  0  0  0  0  0  0  0  0  0  0  0
   -0.3310    0.3460   -0.5920 C   0  0  2  0  0  0  0  0  0  0  0  0
   -2.8880   -0.6970    0.8700 C   0  0  1  0  0  0  0  0  0  0  0  0
   -2.4790   -1.7440    1.7460 O   0  0  0  0  0  0  0  0  0  0  0  0
   -4.2490   -0.2750    1.2380 C   0  0  0  0  0  0  0  0  0  0  0  0
   -5.3430   -0.6060    0.2880 C   0  0  2  0  0  0  0  0  0  0  0  0
   -6.0180   -1.7560    0.6950 O   0  0  0  0  0  0  0  0  0  0  0  0
   -7.3790   -1.5310    0.8730 C   0  0  0  0  0  0  0  0  0  0  0  0
   -4.8760   -0.8480   -1.1240 C   0  0  1  0  0  0  0  0  0  0  0  0
   -3.9930    0.2650   -1.6410 C   0  0  0  0  0  0  0  0  0  0  0  0
   -2.5790   -0.1140   -1.4780 C   0  0  2  0  0  0  0  0  0  0  0  0
   -2.6670   -1.2380   -0.4940 C   0  0  2  0  0  0  0  0  0  0  0  0
   -3.8960   -1.9970   -1.0240 C   0  0  1  0  0  0  0  0  0  0  0  0
   -4.2820   -2.9800   -0.1460 O   0  0  0  0  0  0  0  0  0  0  0  0
   -4.1660   -4.2080   -0.7910 C   0  0  0  0  0  0  0  0  0  0  0  0
  1  2  1  0
  3  2  1  1
  3  4  1  0
 30  3  1  1
  4  5  1  0
  5  6  1  1
  5 24  1  0
 36  5  1  1
  6  7  1  0
  7  8  1  0
  8  9  2  0
  8 10  1  0
 10 11  2  0
 10 15  1  0
 11 12  1  0
 12 13  2  0
 13 14  1  0
 14 15  2  0
 15 16  1  0
 16 17  1  0
 16 22  1  0
 17 18  2  0
 17 19  1  0
 19 20  1  0
 20 21  1  1
 20 22  1  0
 22 23  2  0
 24 25  1  0
 25 26  1  0
 26 27  1  1
 29 26  1  6
 27 28  1  0
 29 30  1  0
 29 36  1  0
 29 45  1  0
 30 31  1  0
 31 32  1  1
 31 33  1  0
 31 37  1  0
 33 34  1  6
 33 36  1  0
 34 35  1  0
 37 38  1  1
 37 39  1  0
 37 46  1  0
 39 40  1  0
 40 41  1  1
 40 43  1  0
 41 42  1  0
 43 44  1  1
 43 47  1  0
 45 44  1  1
 46 45  1  6
 46 47  1  0
 47 48  1  1
 48 49  1  0
M  CHG  1   3   1
M  END
