
     RDKit          3D

 45 50  0  0  0  0  0  0  0  0999 V2000
    5.2720   -2.3810    2.0710 C   0  0  0  0  0  0  0  0  0  0  0  0
    6.5160   -1.7200    1.8410 N   0  0  0  0  0  0  0  0  0  0  0  0
    7.6480   -2.5760    1.9430 C   0  0  0  0  0  0  0  0  0  0  0  0
    8.7460   -1.7720    2.2640 O   0  0  0  0  0  0  0  0  0  0  0  0
    8.4980   -0.4390    1.8120 C   0  0  1  0  0  0  0  0  0  0  0  0
    9.7870    0.2780    1.9630 C   0  0  2  0  0  0  0  0  0  0  0  0
    9.7950    1.5930    1.6060 F   0  0  0  0  0  0  0  0  0  0  0  0
   10.8510   -0.4180    1.3650 F   0  0  0  0  0  0  0  0  0  0  0  0
   10.1020    0.2500    3.3310 F   0  0  0  0  0  0  0  0  0  0  0  0
    8.0420   -0.6430    0.3700 C   0  0  2  0  0  0  0  0  0  0  0  0
    8.1280    0.5760   -0.4710 C   0  0  0  0  0  0  0  0  0  0  0  0
    7.7600    0.4350   -1.8360 N   0  0  0  0  0  0  0  0  0  0  0  0
    6.5120    0.3090   -2.4600 C   0  0  0  0  0  0  0  0  0  0  0  0
    5.3210    0.3350   -1.8490 N   0  0  0  0  0  0  0  0  0  0  0  0
    4.1310    0.2330   -2.4610 C   0  0  0  0  0  0  0  0  0  0  0  0
    2.9350    0.2620   -1.7550 C   0  0  0  0  0  0  0  0  0  0  0  0
    1.7040    0.1530   -2.3650 C   0  0  0  0  0  0  0  0  0  0  0  0
    0.5120    0.1240   -1.6200 N   0  0  0  0  0  0  0  0  0  0  0  0
   -0.6180    0.8650   -2.0010 C   0  0  0  0  0  0  0  0  0  0  0  0
   -0.6120    1.7520   -3.0220 C   0  0  0  0  0  0  0  0  0  0  0  0
   -1.7680    2.4550   -3.4060 C   0  0  0  0  0  0  0  0  0  0  0  0
   -2.9240    2.1820   -2.6690 C   0  0  0  0  0  0  0  0  0  0  0  0
   -2.9300    1.2870   -1.6380 C   0  0  0  0  0  0  0  0  0  0  0  0
   -4.1550    0.9940   -0.8670 C   0  0  0  0  0  0  0  0  0  0  0  0
   -4.0990    0.0520    0.1420 C   0  0  0  0  0  0  0  0  0  0  0  0
   -5.2130   -0.2440    0.8680 C   0  0  0  0  0  0  0  0  0  0  0  0
   -6.4430    0.3750    0.6330 C   0  0  0  0  0  0  0  0  0  0  0  0
   -7.5970    0.0260    1.4260 C   0  0  0  0  0  0  0  0  0  0  0  0
   -7.2960   -0.1660    2.6000 O   0  0  0  0  0  0  0  0  0  0  0  0
   -8.9080   -0.2150    1.5520 N   0  0  1  0  0  0  0  0  0  0  0  0
   -9.2440   -1.4550    2.3820 C   0  0  0  0  0  0  0  0  0  0  0  0
  -10.6590   -1.4090    2.7770 C   0  0  0  0  0  0  0  0  0  0  0  0
  -10.7520   -0.5210    4.0180 C   0  0  0  0  0  0  0  0  0  0  0  0
   -9.6940    0.5580    3.7810 C   0  0  0  0  0  0  0  0  0  0  0  0
   -9.6070    0.7740    2.3010 C   0  0  0  0  0  0  0  0  0  0  0  0
   -6.4380    1.3010   -0.3800 C   0  0  0  0  0  0  0  0  0  0  0  0
   -5.3280    1.6230   -1.1310 C   0  0  0  0  0  0  0  0  0  0  0  0
   -1.7950    0.6630   -1.3370 N   0  0  0  0  0  0  0  0  0  0  0  0
    1.6760    0.0100   -3.7250 C   0  0  0  0  0  0  0  0  0  0  0  0
    2.8630   -0.0240   -4.4720 C   0  0  0  0  0  0  0  0  0  0  0  0
    4.0800    0.0870   -3.8390 C   0  0  0  0  0  0  0  0  0  0  0  0
    5.2510    0.0560   -4.4950 N   0  0  0  0  0  0  0  0  0  0  0  0
    6.4300    0.1610   -3.8570 C   0  0  0  0  0  0  0  0  0  0  0  0
    7.5190    0.1290   -4.4910 O   0  0  0  0  0  0  0  0  0  0  0  0
    6.5660   -1.0420    0.5300 C   0  0  0  0  0  0  0  0  0  0  0  0
  1  2  1  0
  2  3  1  0
  2 45  1  0
  3  4  1  0
  5  4  1  6
  5  6  1  0
  5 10  1  0
  6  7  1  6
  6  8  1  0
  6  9  1  0
 10 11  1  6
 10 45  1  0
 11 12  1  0
 12 13  1  0
 13 14  2  0
 13 43  1  0
 14 15  1  0
 15 16  2  0
 15 41  1  0
 16 17  1  0
 17 18  1  0
 17 39  2  0
 18 19  1  0
 19 20  2  0
 19 38  1  0
 20 21  1  0
 21 22  2  0
 22 23  1  0
 23 24  1  0
 23 38  2  0
 24 25  2  0
 24 37  1  0
 25 26  1  0
 26 27  2  0
 27 28  1  0
 27 36  1  0
 28 29  2  0
 30 28  1  1
 30 31  1  0
 30 35  1  0
 31 32  1  0
 32 33  1  0
 33 34  1  0
 34 35  1  0
 36 37  2  0
 39 40  1  0
 40 41  2  0
 41 42  1  0
 42 43  1  0
 43 44  2  0
M  CHG  1  30   1
M  END
