
     RDKit          3D

 45 51  0  0  0  0  0  0  0  0999 V2000
   -7.6380    3.9880    2.3840 C   0  0  0  0  0  0  0  0  0  0  0  0
   -6.5130    4.6380    1.7200 N   0  0  0  0  0  0  0  0  0  0  0  0
   -5.7630    3.6880    0.9600 C   0  0  0  0  0  0  0  0  0  0  0  0
   -5.0380    2.6910    1.8420 C   0  0  0  0  0  0  0  0  0  0  0  0
   -4.2840    1.7400    1.0030 N   0  0  0  0  0  0  0  0  0  0  0  0
   -2.9500    1.8840    0.5550 C   0  0  0  0  0  0  0  0  0  0  0  0
   -2.2140    2.8730    0.8590 O   0  0  0  0  0  0  0  0  0  0  0  0
   -2.6150    0.7190   -0.2860 C   0  0  1  0  0  0  0  0  0  0  0  0
   -1.4200    0.0490    0.1450 N   0  0  0  0  0  0  0  0  0  0  0  0
   -0.7760   -0.6220   -0.9230 C   0  0  1  0  0  0  0  0  0  0  0  0
   -1.1130   -0.1330   -2.3120 C   0  0  0  0  0  0  0  0  0  0  0  0
    0.7090   -0.6480   -0.8530 C   0  0  0  0  0  0  0  0  0  0  0  0
    1.3690    0.4930   -0.4750 C   0  0  0  0  0  0  0  0  0  0  0  0
    2.7550    0.4510   -0.4370 C   0  0  0  0  0  0  0  0  0  0  0  0
    3.3700   -0.7410   -0.7840 C   0  0  0  0  0  0  0  0  0  0  0  0
    2.7010   -1.8680   -1.1570 C   0  0  0  0  0  0  0  0  0  0  0  0
    1.3590   -1.7950   -1.1840 N   0  0  0  0  0  0  0  0  0  0  0  0
    3.3780   -3.1140   -1.5090 C   0  0  0  0  0  0  0  0  0  0  0  0
    4.8550   -3.0840   -1.6450 C   0  0  0  0  0  0  0  0  0  0  0  0
    5.4370   -1.7200   -1.7820 C   0  0  2  0  0  0  0  0  0  0  0  0
    6.8360   -1.5880   -1.5040 N   0  0  0  0  0  0  0  0  0  0  0  0
    7.0480   -0.7550   -0.5460 C   0  0  0  0  0  0  0  0  0  0  0  0
    8.3160   -0.3370    0.0410 C   0  0  0  0  0  0  0  0  0  0  0  0
    9.5040   -0.8470   -0.4380 C   0  0  0  0  0  0  0  0  0  0  0  0
   10.7200   -0.4700    0.1100 C   0  0  0  0  0  0  0  0  0  0  0  0
   10.7790    0.4320    1.1560 C   0  0  0  0  0  0  0  0  0  0  0  0
    9.5990    0.9470    1.6420 C   0  0  0  0  0  0  0  0  0  0  0  0
    8.3900    0.5600    1.0830 C   0  0  0  0  0  0  0  0  0  0  0  0
    9.9340    1.8220    2.6840 O   0  0  0  0  0  0  0  0  0  0  0  0
   11.2730    2.2300    2.4770 C   0  0  0  0  0  0  0  0  0  0  0  0
   11.8030    1.0120    1.9200 O   0  0  0  0  0  0  0  0  0  0  0  0
    5.7740   -0.2810   -0.0990 N   0  0  0  0  0  0  0  0  0  0  0  0
    4.8330   -0.8000   -0.7520 C   0  0  0  0  0  0  0  0  0  0  0  0
   -3.8190   -0.1210   -0.2460 C   0  0  0  0  0  0  0  0  0  0  0  0
   -4.1830   -1.3520   -0.7840 C   0  0  0  0  0  0  0  0  0  0  0  0
   -5.4430   -1.9110   -0.5830 C   0  0  0  0  0  0  0  0  0  0  0  0
   -5.7540   -3.2430   -1.1740 C   0  0  0  0  0  0  0  0  0  0  0  0
   -6.3720   -1.2390    0.1700 C   0  0  0  0  0  0  0  0  0  0  0  0
   -7.7470   -1.7200    0.4330 C   0  0  0  0  0  0  0  0  0  0  0  0
   -8.6200   -1.4350   -0.7510 C   0  0  2  0  0  0  0  0  0  0  0  0
   -8.6700   -0.0650   -1.0110 F   0  0  0  0  0  0  0  0  0  0  0  0
   -9.9360   -1.8080   -0.5330 F   0  0  0  0  0  0  0  0  0  0  0  0
   -8.2290   -2.0530   -1.9110 F   0  0  0  0  0  0  0  0  0  0  0  0
   -6.0240   -0.0330    0.7020 N   0  0  0  0  0  0  0  0  0  0  0  0
   -4.7880    0.5090    0.5010 C   0  0  0  0  0  0  0  0  0  0  0  0
  1  2  1  0
  2  3  1  0
  3  4  1  0
  4  5  1  0
  5  6  1  0
  5 45  1  0
  6  7  2  0
  6  8  1  0
  8  9  1  1
  8 34  1  0
  9 10  1  0
 10 11  1  6
 10 12  1  0
 12 13  2  0
 12 17  1  0
 13 14  1  0
 14 15  2  0
 15 16  1  0
 15 33  1  0
 16 17  2  0
 16 18  1  0
 18 19  1  0
 20 19  1  1
 20 21  1  0
 20 33  1  0
 21 22  2  0
 22 23  1  0
 22 32  1  0
 23 24  2  0
 23 28  1  0
 24 25  1  0
 25 26  2  0
 26 27  1  0
 26 31  1  0
 27 28  2  0
 27 29  1  0
 29 30  1  0
 30 31  1  0
 32 33  2  0
 34 35  2  0
 34 45  1  0
 35 36  1  0
 36 37  1  0
 36 38  2  0
 38 39  1  0
 38 44  1  0
 39 40  1  0
 40 41  1  6
 40 42  1  0
 40 43  1  0
 44 45  2  0
M  CHG  1   9   1
M  END
