
     RDKit          3D

 22 23  0  0  0  0  0  0  0  0999 V2000
    1.5640    3.0380   -0.3020 O   0  0  0  0  0  0  0  0  0  0  0  0
    2.3390    2.2630    0.5490 C   0  0  0  0  0  0  0  0  0  0  0  0
    3.4740    1.7060   -0.2290 C   0  0  2  0  0  0  0  0  0  0  0  0
    4.2680    0.8830    0.5850 O   0  0  0  0  0  0  0  0  0  0  0  0
    4.3300    2.7690   -0.6420 O   0  0  0  0  0  0  0  0  0  0  0  0
    3.0100    0.9320   -1.4300 C   0  0  0  0  0  0  0  0  0  0  0  0
    2.2870   -0.1600   -1.3050 O   0  0  0  0  0  0  0  0  0  0  0  0
    1.1940   -0.8120   -0.9500 C   0  0  0  0  0  0  0  0  0  0  0  0
    0.0270   -0.2660   -0.4010 C   0  0  0  0  0  0  0  0  0  0  0  0
   -1.0720   -1.0200   -0.0520 C   0  0  0  0  0  0  0  0  0  0  0  0
   -2.2680   -0.4130    0.5170 C   0  0  0  0  0  0  0  0  0  0  0  0
   -2.2560    0.7020    1.3130 C   0  0  0  0  0  0  0  0  0  0  0  0
   -3.4330    1.2230    1.8190 C   0  0  0  0  0  0  0  0  0  0  0  0
   -4.6590    0.6520    1.5500 C   0  0  0  0  0  0  0  0  0  0  0  0
   -4.6820   -0.4700    0.7500 C   0  0  0  0  0  0  0  0  0  0  0  0
   -5.8910   -1.0940    0.4410 O   0  0  0  0  0  0  0  0  0  0  0  0
   -3.5040   -0.9780    0.2540 C   0  0  0  0  0  0  0  0  0  0  0  0
   -0.9910   -2.3730   -0.2650 C   0  0  0  0  0  0  0  0  0  0  0  0
    0.1240   -2.9550   -0.7990 C   0  0  0  0  0  0  0  0  0  0  0  0
    0.1210   -4.3360   -0.9820 O   0  0  0  0  0  0  0  0  0  0  0  0
    1.1970   -2.2130   -1.1380 C   0  0  0  0  0  0  0  0  0  0  0  0
    2.3340   -2.8390   -1.6860 O   0  0  0  0  0  0  0  0  0  0  0  0
  1  2  1  0
  2  3  1  0
  3  4  1  1
  3  5  1  0
  3  6  1  0
  6  7  1  0
  7  8  1  0
  8  9  2  0
  8 21  1  0
  9 10  1  0
 10 11  1  0
 10 18  2  0
 11 12  2  0
 11 17  1  0
 12 13  1  0
 13 14  2  0
 14 15  1  0
 15 16  1  0
 15 17  2  0
 18 19  1  0
 19 20  1  0
 19 21  2  0
 21 22  1  0
M  END
