
     RDKit          3D

 25 27  0  0  0  0  0  0  0  0999 V2000
   -0.7650   -0.9990    1.8990 C   0  0  0  0  0  0  0  0  0  0  0  0
   -0.2050   -0.8710    0.5580 N   0  0  1  0  0  0  0  0  0  0  0  0
    1.1180   -1.4850    0.4980 C   0  0  2  0  0  0  0  0  0  0  0  0
    2.1570   -0.4020    0.4170 C   0  0  0  0  0  0  0  0  0  0  0  0
    3.5410   -0.8010    0.3810 C   0  0  0  0  0  0  0  0  0  0  0  0
    3.9050   -1.9830    0.4900 O   0  0  0  0  0  0  0  0  0  0  0  0
    4.5650    0.2190    0.2100 C   0  0  0  0  0  0  0  0  0  0  0  0
    5.9020   -0.1060    0.1690 C   0  0  0  0  0  0  0  0  0  0  0  0
    6.8990    0.8450    0.0080 C   0  0  0  0  0  0  0  0  0  0  0  0
    6.5710    2.1760   -0.1210 C   0  0  0  0  0  0  0  0  0  0  0  0
    5.2420    2.5230   -0.0830 C   0  0  0  0  0  0  0  0  0  0  0  0
    4.2530    1.5750    0.0780 C   0  0  0  0  0  0  0  0  0  0  0  0
    1.2000   -2.5230   -0.5750 C   0  0  0  0  0  0  0  0  0  0  0  0
    0.6960   -2.0850   -1.9250 C   0  0  0  0  0  0  0  0  0  0  0  0
   -0.4780   -1.1360   -1.8020 C   0  0  0  0  0  0  0  0  0  0  0  0
   -1.0790   -1.4040   -0.4360 C   0  0  2  0  0  0  0  0  0  0  0  0
   -2.4900   -0.9140   -0.3310 C   0  0  0  0  0  0  0  0  0  0  0  0
   -2.6240    0.5750   -0.4670 C   0  0  1  0  0  0  0  0  0  0  0  0
   -2.1650    1.0550   -1.6810 O   0  0  0  0  0  0  0  0  0  0  0  0
   -4.0170    1.0370   -0.2420 C   0  0  0  0  0  0  0  0  0  0  0  0
   -4.9630    0.9660   -1.2590 C   0  0  0  0  0  0  0  0  0  0  0  0
   -6.2430    1.4050   -1.0120 C   0  0  0  0  0  0  0  0  0  0  0  0
   -6.6300    1.9150    0.2070 C   0  0  0  0  0  0  0  0  0  0  0  0
   -5.6920    1.9840    1.2120 C   0  0  0  0  0  0  0  0  0  0  0  0
   -4.4080    1.5500    0.9820 C   0  0  0  0  0  0  0  0  0  0  0  0
  2  1  1  1
  2  3  1  0
  2 16  1  0
  3  4  1  6
  3 13  1  0
  4  5  1  0
  5  6  2  0
  5  7  1  0
  7  8  2  0
  7 12  1  0
  8  9  1  0
  9 10  2  0
 10 11  1  0
 11 12  2  0
 13 14  1  0
 14 15  1  0
 15 16  1  0
 16 17  1  6
 17 18  1  0
 18 19  1  6
 18 20  1  0
 20 21  2  0
 20 25  1  0
 21 22  1  0
 22 23  2  0
 23 24  1  0
 24 25  2  0
M  CHG  1   2   1
M  END
