
     RDKit          3D

 23 24  0  0  0  0  0  0  0  0999 V2000
    4.8770    0.7820    2.6440 C   0  0  0  0  0  0  0  0  0  0  0  0
    3.4850    0.7270    2.5070 O   0  0  0  0  0  0  0  0  0  0  0  0
    2.8540    0.5590    1.2890 C   0  0  0  0  0  0  0  0  0  0  0  0
    3.5750    0.4360    0.1290 C   0  0  0  0  0  0  0  0  0  0  0  0
    2.9550    0.2670   -1.1090 C   0  0  0  0  0  0  0  0  0  0  0  0
    3.7930    0.1460   -2.2610 C   0  0  0  0  0  0  0  0  0  0  0  0
    3.4290   -0.0150   -3.4200 O   0  0  0  0  0  0  0  0  0  0  0  0
    5.1970    0.2150   -2.0910 O   0  0  0  0  0  0  0  0  0  0  0  0
    1.5830    0.2210   -1.1750 C   0  0  0  0  0  0  0  0  0  0  0  0
    0.8980    0.0570   -2.3550 C   0  0  0  0  0  0  0  0  0  0  0  0
   -0.4730    0.0130   -2.4070 C   0  0  0  0  0  0  0  0  0  0  0  0
   -1.0860   -0.1550   -3.6420 O   0  0  0  0  0  0  0  0  0  0  0  0
   -1.2610    0.1340   -1.2490 C   0  0  0  0  0  0  0  0  0  0  0  0
   -2.5890    0.0860   -1.3190 O   0  0  0  0  0  0  0  0  0  0  0  0
   -3.6970    0.1180   -0.5680 C   0  0  0  0  0  0  0  0  0  0  0  0
   -3.9550   -0.9820    0.4230 C   0  0  1  0  0  0  0  0  0  0  0  0
   -3.0420   -1.1620    1.4080 O   0  0  0  0  0  0  0  0  0  0  0  0
   -5.3150   -0.7630    1.0980 C   0  0  0  0  0  0  0  0  0  0  0  0
   -5.1760    0.3690    1.8960 O   0  0  0  0  0  0  0  0  0  0  0  0
   -0.5540    0.2980   -0.0820 C   0  0  0  0  0  0  0  0  0  0  0  0
    0.8310    0.3460    0.0070 C   0  0  0  0  0  0  0  0  0  0  0  0
    1.4700    0.5120    1.2130 C   0  0  0  0  0  0  0  0  0  0  0  0
    0.7850    0.6380    2.3890 O   0  0  0  0  0  0  0  0  0  0  0  0
  1  2  1  0
  2  3  1  0
  3  4  2  0
  3 22  1  0
  4  5  1  0
  5  6  1  0
  5  9  2  0
  6  7  2  0
  6  8  1  0
  9 10  1  0
  9 21  1  0
 10 11  2  0
 11 12  1  0
 11 13  1  0
 13 14  1  0
 13 20  2  0
 14 15  1  0
 15 16  1  0
 16 17  1  1
 16 18  1  0
 18 19  1  0
 20 21  1  0
 21 22  2  0
 22 23  1  0
M  END
