
     RDKit          3D

 23 24  0  0  0  0  0  0  0  0999 V2000
   -5.9840   -0.6090    1.2270 O   0  0  0  0  0  0  0  0  0  0  0  0
   -5.0350   -1.2380    0.3750 C   0  0  0  0  0  0  0  0  0  0  0  0
   -3.8120   -0.4670    0.2650 C   0  0  0  0  0  0  0  0  0  0  0  0
   -2.7170   -0.5770    1.0980 C   0  0  0  0  0  0  0  0  0  0  0  0
   -1.5130    0.0390    0.8140 C   0  0  0  0  0  0  0  0  0  0  0  0
   -0.4640   -0.1210    1.6630 O   0  0  0  0  0  0  0  0  0  0  0  0
    0.8720    0.3260    1.4830 C   0  0  2  0  0  0  0  0  0  0  0  0
    0.9910    1.6420    2.2510 C   0  0  0  0  0  0  0  0  0  0  0  0
    0.7050    1.3510    3.5910 O   0  0  0  0  0  0  0  0  0  0  0  0
    1.3200    0.4200    0.2030 O   0  0  0  0  0  0  0  0  0  0  0  0
    2.4280    0.1900   -0.5100 C   0  0  0  0  0  0  0  0  0  0  0  0
    2.3860    0.3850   -1.8950 C   0  0  0  0  0  0  0  0  0  0  0  0
    3.4580    0.1820   -2.6890 C   0  0  0  0  0  0  0  0  0  0  0  0
    4.6850   -0.2390   -2.1610 C   0  0  0  0  0  0  0  0  0  0  0  0
    4.7590   -0.4330   -0.8340 C   0  0  0  0  0  0  0  0  0  0  0  0
    5.9590   -0.8530   -0.2280 O   0  0  0  0  0  0  0  0  0  0  0  0
    3.6320   -0.2210   -0.0110 C   0  0  0  0  0  0  0  0  0  0  0  0
    3.7480   -0.4330    1.3460 O   0  0  0  0  0  0  0  0  0  0  0  0
   -1.4050    0.7920   -0.3260 C   0  0  0  0  0  0  0  0  0  0  0  0
   -2.4760    0.9370   -1.1860 C   0  0  0  0  0  0  0  0  0  0  0  0
   -2.3750    1.7220   -2.3410 O   0  0  0  0  0  0  0  0  0  0  0  0
   -3.6500    0.3140   -0.8900 C   0  0  0  0  0  0  0  0  0  0  0  0
   -4.7020    0.4990   -1.8080 O   0  0  0  0  0  0  0  0  0  0  0  0
  1  2  1  0
  2  3  1  0
  3  4  2  0
  3 22  1  0
  4  5  1  0
  5  6  1  0
  5 19  2  0
  6  7  1  0
  7  8  1  6
  7 10  1  0
  8  9  1  0
 10 11  1  0
 11 12  2  0
 11 17  1  0
 12 13  1  0
 13 14  2  0
 14 15  1  0
 15 16  1  0
 15 17  2  0
 17 18  1  0
 19 20  1  0
 20 21  1  0
 20 22  2  0
 22 23  1  0
M  END
