
     RDKit          3D

 22 23  0  0  0  0  0  0  0  0999 V2000
   -2.1170    2.4950   -0.8850 C   0  0  0  0  0  0  0  0  0  0  0  0
   -1.6750    1.5140    0.2090 C   0  0  1  0  0  0  0  0  0  0  0  0
   -0.5180    0.7040   -0.2460 C   0  0  0  0  0  0  0  0  0  0  0  0
    0.5910    0.7090    0.4180 C   0  0  0  0  0  0  0  0  0  0  0  0
    1.8320    0.0390    0.1920 C   0  0  0  0  0  0  0  0  0  0  0  0
    2.2410   -0.9690    1.0740 C   0  0  0  0  0  0  0  0  0  0  0  0
    3.4570   -1.5990    0.9090 C   0  0  0  0  0  0  0  0  0  0  0  0
    3.9090   -2.6020    1.7540 O   0  0  0  0  0  0  0  0  0  0  0  0
    4.2730   -1.2240   -0.1410 C   0  0  0  0  0  0  0  0  0  0  0  0
    5.5050   -1.8430   -0.3300 O   0  0  0  0  0  0  0  0  0  0  0  0
    3.8880   -0.2310   -1.0210 C   0  0  0  0  0  0  0  0  0  0  0  0
    2.6590    0.3970   -0.8430 C   0  0  0  0  0  0  0  0  0  0  0  0
    2.2340    1.3990   -1.6950 O   0  0  0  0  0  0  0  0  0  0  0  0
   -0.6660   -0.1350   -1.4430 C   0  0  1  0  0  0  0  0  0  0  0  0
    0.4580   -0.9580   -1.6380 O   0  0  0  0  0  0  0  0  0  0  0  0
   -1.8480   -1.1060   -1.2910 C   0  0  0  0  0  0  0  0  0  0  0  0
   -1.6640   -2.0390   -0.1190 C   0  0  0  0  0  0  0  0  0  0  0  0
   -2.7690   -2.8950   -0.0200 O   0  0  0  0  0  0  0  0  0  0  0  0
   -1.3450    2.3010    1.3130 O   0  0  0  0  0  0  0  0  0  0  0  0
   -2.1590    1.9220    2.3610 C   0  0  0  0  0  0  0  0  0  0  0  0
   -3.4070    1.4770    1.5850 C   0  0  0  0  0  0  0  0  0  0  0  0
   -2.7990    0.7870    0.5410 O   0  0  0  0  0  0  0  0  0  0  0  0
  2  1  1  6
  2  3  1  0
  2 19  1  0
  2 22  1  0
  3  4  2  3
  3 14  1  0
  4  5  1  0
  5  6  2  0
  5 12  1  0
  6  7  1  0
  7  8  1  0
  7  9  2  0
  9 10  1  0
  9 11  1  0
 11 12  2  0
 12 13  1  0
 14 15  1  1
 14 16  1  0
 16 17  1  0
 17 18  1  0
 19 20  1  0
 20 21  1  0
 21 22  1  0
M  END
