
     RDKit          3D

 29 32  0  0  0  0  0  0  0  0999 V2000
    3.0140   -3.6060   -1.8710 C   0  0  0  0  0  0  0  0  0  0  0  0
    2.5110   -3.7180   -0.4580 C   0  0  0  0  0  0  0  0  0  0  0  0
    1.7320   -2.5840   -0.0460 N   0  0  0  0  0  0  0  0  0  0  0  0
    0.3130   -2.6230   -0.2740 C   0  0  0  0  0  0  0  0  0  0  0  0
   -0.1490   -3.6500   -0.7230 O   0  0  0  0  0  0  0  0  0  0  0  0
   -0.6520   -1.4940    0.0010 C   0  0  0  0  0  0  0  0  0  0  0  0
   -1.8590   -1.7620    0.3120 C   0  0  0  0  0  0  0  0  0  0  0  0
   -3.0900   -1.1700    0.6730 C   0  0  0  0  0  0  0  0  0  0  0  0
   -4.2360   -1.8610    0.8640 C   0  0  0  0  0  0  0  0  0  0  0  0
   -5.3060   -0.9580    1.2360 C   0  0  0  0  0  0  0  0  0  0  0  0
   -4.6950    0.3570    1.3240 C   0  0  0  0  0  0  0  0  0  0  0  0
   -3.4140    0.2030    0.9850 C   0  0  0  0  0  0  0  0  0  0  0  0
   -0.2210   -0.1300   -0.2140 C   0  0  0  0  0  0  0  0  0  0  0  0
   -1.1580    0.6020   -0.8720 C   0  0  0  0  0  0  0  0  0  0  0  0
   -0.8870    1.9190   -1.1390 C   0  0  0  0  0  0  0  0  0  0  0  0
   -2.1090    2.8340   -1.9750 S   0  0  1  0  0  0  0  0  0  0  0  0
   -2.6460    4.2110   -0.9810 C   0  0  0  0  0  0  0  0  0  0  0  0
   -1.6080    3.3280   -3.3100 O   0  0  0  0  0  0  0  0  0  0  0  0
   -3.2860    1.9570   -2.2580 O   0  0  0  0  0  0  0  0  0  0  0  0
    0.3210    2.5140   -0.7550 C   0  0  0  0  0  0  0  0  0  0  0  0
    0.5200    3.9510   -1.0900 C   0  0  0  0  0  0  0  0  0  0  0  0
    1.2310    1.7820   -0.1160 N   0  0  0  0  0  0  0  0  0  0  0  0
    0.9680    0.5000    0.1450 C   0  0  0  0  0  0  0  0  0  0  0  0
    2.0840   -0.1710    0.7480 N   0  0  0  0  0  0  0  0  0  0  0  0
    2.8210    0.7170    1.6110 C   0  0  0  0  0  0  0  0  0  0  0  0
    4.2980    0.4010    1.5710 C   0  0  0  0  0  0  0  0  0  0  0  0
    4.5810   -1.0570    1.6070 C   0  0  0  0  0  0  0  0  0  0  0  0
    3.6370   -1.9090    0.9670 N   0  0  0  0  0  0  0  0  0  0  0  0
    2.5070   -1.5140    0.5780 C   0  0  0  0  0  0  0  0  0  0  0  0
  1  2  1  0
  2  3  1  0
  3  4  1  0
  3 29  1  0
  4  5  2  0
  4  6  1  0
  6  7  2  3
  6 13  1  0
  7  8  1  0
  8  9  2  0
  8 12  1  0
  9 10  1  0
 10 11  1  0
 11 12  2  0
 13 14  2  0
 13 23  1  0
 14 15  1  0
 15 16  1  0
 15 20  2  0
 16 17  1  1
 16 18  2  0
 16 19  2  0
 20 21  1  0
 20 22  1  0
 22 23  2  0
 23 24  1  0
 24 25  1  0
 24 29  1  0
 25 26  1  0
 26 27  1  0
 27 28  1  0
 28 29  2  0
M  END
