
     RDKit          3D

 29 32  0  0  0  0  0  0  0  0999 V2000
   -5.3280   -0.7760   -2.6480 C   0  0  0  0  0  0  0  0  0  0  0  0
   -3.9660   -0.9420   -2.0340 C   0  0  0  0  0  0  0  0  0  0  0  0
   -3.8720   -0.2640   -0.7400 C   0  0  0  0  0  0  0  0  0  0  0  0
   -2.7830   -0.1880    0.1240 C   0  0  0  0  0  0  0  0  0  0  0  0
   -1.5280   -0.8400   -0.2200 C   0  0  0  0  0  0  0  0  0  0  0  0
   -1.4750   -1.4850   -1.3620 O   0  0  0  0  0  0  0  0  0  0  0  0
   -0.3210   -0.9030    0.4810 N   0  0  0  0  0  0  0  0  0  0  0  0
    0.7380   -1.6720   -0.2150 C   0  0  0  0  0  0  0  0  0  0  0  0
    1.6970   -0.7040   -0.8950 C   0  0  0  0  0  0  0  0  0  0  0  0
    1.9150    0.4840    0.0580 C   0  0  0  0  0  0  0  0  0  0  0  0
    2.1670   -0.1130    1.3440 N   0  0  0  0  0  0  0  0  0  0  0  0
    3.5120   -0.4210    1.6400 C   0  0  0  0  0  0  0  0  0  0  0  0
    3.7760   -0.9410    2.7690 O   0  0  0  0  0  0  0  0  0  0  0  0
    4.5620   -0.1490    0.6750 C   0  0  0  0  0  0  0  0  0  0  0  0
    5.8420   -0.4400    0.9570 C   0  0  0  0  0  0  0  0  0  0  0  0
    6.8480   -0.1460   -0.0470 C   0  0  0  0  0  0  0  0  0  0  0  0
    6.6630    0.4140   -1.2990 C   0  0  0  0  0  0  0  0  0  0  0  0
    7.8890    0.5170   -1.9230 C   0  0  0  0  0  0  0  0  0  0  0  0
    8.7890    0.0090   -1.0130 C   0  0  0  0  0  0  0  0  0  0  0  0
    8.1450   -0.3650    0.0630 O   0  0  0  0  0  0  0  0  0  0  0  0
    1.1770   -0.4340    2.3590 C   0  0  0  0  0  0  0  0  0  0  0  0
   -0.2160   -0.2530    1.7460 C   0  0  0  0  0  0  0  0  0  0  0  0
   -3.1590    0.5360    1.1870 N   0  0  0  0  0  0  0  0  0  0  0  0
   -4.4650    0.9480    1.0640 C   0  0  0  0  0  0  0  0  0  0  0  0
   -5.3470    1.6540    1.7560 N   0  0  0  0  0  0  0  0  0  0  0  0
   -6.4300    1.9070    1.4940 C   0  0  0  0  0  0  0  0  0  0  0  0
   -7.6510    2.6260    1.9830 C   0  0  0  0  0  0  0  0  0  0  0  0
   -6.5470    1.0200   -0.1960 S   0  0  0  0  0  0  0  0  0  0  0  0
   -4.8830    0.4670   -0.0890 C   0  0  0  0  0  0  0  0  0  0  0  0
  1  2  1  0
  2  3  1  0
  3  4  2  0
  3 29  1  0
  4  5  1  0
  4 23  1  0
  5  6  2  0
  5  7  1  0
  7  8  1  0
  7 22  1  0
  8  9  1  0
  9 10  1  0
 10 11  1  0
 11 12  1  0
 11 21  1  0
 12 13  2  0
 12 14  1  0
 14 15  2  3
 15 16  1  0
 16 17  2  0
 16 20  1  0
 17 18  1  0
 18 19  2  0
 19 20  1  0
 21 22  1  0
 23 24  1  0
 24 25  1  0
 24 29  2  0
 25 26  2  0
 26 27  1  0
 26 28  1  0
 28 29  1  0
M  END
