
     RDKit          3D

 29 32  0  0  0  0  0  0  0  0999 V2000
   -7.0960    2.4960   -0.9400 C   0  0  0  0  0  0  0  0  0  0  0  0
   -6.4010    1.4470   -0.4710 C   0  0  0  0  0  0  0  0  0  0  0  0
   -6.9830    0.5760    0.5680 C   0  0  0  0  0  0  0  0  0  0  0  0
   -6.0890   -0.5400    0.9380 C   0  0  0  0  0  0  0  0  0  0  0  0
   -6.6780   -1.6150    1.5990 C   0  0  0  0  0  0  0  0  0  0  0  0
   -5.9360   -2.6920    2.0040 C   0  0  0  0  0  0  0  0  0  0  0  0
   -4.6390   -2.6750    1.7460 N   0  0  0  0  0  0  0  0  0  0  0  0
   -3.9790   -1.6600    1.1040 C   0  0  0  0  0  0  0  0  0  0  0  0
   -2.5710   -1.8650    0.9340 C   0  0  0  0  0  0  0  0  0  0  0  0
   -2.1580   -3.0920    0.8680 O   0  0  0  0  0  0  0  0  0  0  0  0
   -1.5410   -0.9220    0.8310 N   0  0  0  0  0  0  0  0  0  0  0  0
   -0.1520   -1.3540    0.6570 C   0  0  0  0  0  0  0  0  0  0  0  0
    0.5620   -2.2480    0.5530 N   0  0  0  0  0  0  0  0  0  0  0  0
    1.8380   -2.2370    0.4010 N   0  0  0  0  0  0  0  0  0  0  0  0
    2.5110   -1.2010    0.3450 C   0  0  0  0  0  0  0  0  0  0  0  0
    3.7840   -0.7240    0.2040 O   0  0  0  0  0  0  0  0  0  0  0  0
    4.3470   -0.3170   -1.0320 C   0  0  0  0  0  0  0  0  0  0  0  0
    5.7350    0.1300   -0.7420 C   0  0  0  0  0  0  0  0  0  0  0  0
    6.8230   -0.7160   -0.7760 C   0  0  0  0  0  0  0  0  0  0  0  0
    7.9110    0.0680   -0.4530 C   0  0  0  0  0  0  0  0  0  0  0  0
    9.3090   -0.4270   -0.3670 C   0  0  0  0  0  0  0  0  0  0  0  0
    7.4500    1.3490   -0.2360 C   0  0  0  0  0  0  0  0  0  0  0  0
    8.2800    2.5460    0.1430 C   0  0  0  0  0  0  0  0  0  0  0  0
    6.1690    1.3220   -0.4200 O   0  0  0  0  0  0  0  0  0  0  0  0
    1.1060    0.0560    0.5390 S   0  0  0  0  0  0  0  0  0  0  0  0
   -4.7360   -0.5840    0.6980 C   0  0  0  0  0  0  0  0  0  0  0  0
   -4.0830    0.4890   -0.0580 C   0  0  0  0  0  0  0  0  0  0  0  0
   -5.0770    1.1420   -0.9690 C   0  0  0  0  0  0  0  0  0  0  0  0
   -4.7310    1.4380   -2.2080 C   0  0  0  0  0  0  0  0  0  0  0  0
  1  2  2  0
  2  3  1  0
  2 28  1  0
  3  4  1  0
  4  5  2  0
  4 26  1  0
  5  6  1  0
  6  7  2  0
  7  8  1  0
  8  9  1  0
  8 26  2  0
  9 10  2  0
  9 11  1  0
 11 12  1  0
 12 13  2  0
 12 25  1  0
 13 14  1  0
 14 15  2  0
 15 16  1  0
 15 25  1  0
 16 17  1  0
 17 18  1  0
 18 19  2  0
 18 24  1  0
 19 20  1  0
 20 21  1  0
 20 22  2  0
 22 23  1  0
 22 24  1  0
 26 27  1  0
 27 28  1  0
 28 29  2  0
M  END
