
     RDKit          3D

 29 32  0  0  0  0  0  0  0  0999 V2000
    6.7240    2.9910   -0.9220 C   0  0  0  0  0  0  0  0  0  0  0  0
    6.8920    1.2890   -1.4550 S   0  0  0  0  0  0  0  0  0  0  0  0
    6.6190    0.1270   -0.1100 C   0  0  0  0  0  0  0  0  0  0  0  0
    5.4990   -0.4000    0.3340 C   0  0  0  0  0  0  0  0  0  0  0  0
    4.1440   -0.1590   -0.1820 C   0  0  0  0  0  0  0  0  0  0  0  0
    3.7950    0.7590   -1.1280 C   0  0  0  0  0  0  0  0  0  0  0  0
    2.4440    0.6310   -1.2840 N   0  0  0  0  0  0  0  0  0  0  0  0
    1.9830   -0.3530   -0.4450 C   0  0  0  0  0  0  0  0  0  0  0  0
    0.6180   -0.7450   -0.3500 N   0  0  0  0  0  0  0  0  0  0  0  0
    0.0340   -1.5830   -1.4110 C   0  0  0  0  0  0  0  0  0  0  0  0
   -1.0590   -0.7130   -1.9980 C   0  0  0  0  0  0  0  0  0  0  0  0
   -2.0700   -0.5370   -0.9340 N   0  0  0  0  0  0  0  0  0  0  0  0
   -3.3490   -0.2160   -1.3220 C   0  0  0  0  0  0  0  0  0  0  0  0
   -3.5980   -0.0830   -2.5870 O   0  0  0  0  0  0  0  0  0  0  0  0
   -4.4800    0.0020   -0.4690 C   0  0  0  0  0  0  0  0  0  0  0  0
   -4.8390    1.2560    0.0230 C   0  0  0  0  0  0  0  0  0  0  0  0
   -5.9230    1.4960    0.8090 C   0  0  0  0  0  0  0  0  0  0  0  0
   -6.2060    2.8860    1.2800 C   0  0  0  0  0  0  0  0  0  0  0  0
   -6.7340    0.4590    1.1570 C   0  0  0  0  0  0  0  0  0  0  0  0
   -6.4380   -0.8110    0.7070 C   0  0  0  0  0  0  0  0  0  0  0  0
   -5.3320   -1.0420   -0.0910 C   0  0  0  0  0  0  0  0  0  0  0  0
   -5.0560   -2.4230   -0.5540 C   0  0  0  0  0  0  0  0  0  0  0  0
   -1.6720   -0.7070    0.4280 C   0  0  0  0  0  0  0  0  0  0  0  0
   -0.2420   -0.3550    0.7230 C   0  0  0  0  0  0  0  0  0  0  0  0
    3.0490   -0.7830    0.1830 O   0  0  0  0  0  0  0  0  0  0  0  0
    5.8130   -1.3030    1.4660 C   0  0  0  0  0  0  0  0  0  0  0  0
    4.9160   -1.9930    2.0410 O   0  0  0  0  0  0  0  0  0  0  0  0
    7.2500   -1.1960    1.7010 C   0  0  0  0  0  0  0  0  0  0  0  0
    7.7290   -0.3530    0.6510 N   0  0  0  0  0  0  0  0  0  0  0  0
  1  2  1  0
  2  3  1  0
  3  4  2  0
  3 29  1  0
  4  5  1  0
  4 26  1  0
  5  6  2  0
  5 25  1  0
  6  7  1  0
  7  8  2  0
  8  9  1  0
  8 25  1  0
  9 10  1  0
  9 24  1  0
 10 11  1  0
 11 12  1  0
 12 13  1  0
 12 23  1  0
 13 14  2  0
 13 15  1  0
 15 16  2  0
 15 21  1  0
 16 17  1  0
 17 18  1  0
 17 19  2  0
 19 20  1  0
 20 21  2  0
 21 22  1  0
 23 24  1  0
 26 27  2  0
 26 28  1  0
 28 29  1  0
M  END
