
     RDKit          3D

 29 32  0  0  0  0  0  0  0  0999 V2000
    9.2060   -1.0400   -2.2770 C   0  0  0  0  0  0  0  0  0  0  0  0
    8.5440    0.1360   -2.7070 O   0  0  0  0  0  0  0  0  0  0  0  0
    7.2350    0.3600   -2.3150 C   0  0  0  0  0  0  0  0  0  0  0  0
    6.5980    1.5110   -2.7400 C   0  0  0  0  0  0  0  0  0  0  0  0
    5.2970    1.7540   -2.3640 C   0  0  0  0  0  0  0  0  0  0  0  0
    4.6550    0.8310   -1.5620 C   0  0  0  0  0  0  0  0  0  0  0  0
    5.2470   -0.3200   -1.1190 C   0  0  0  0  0  0  0  0  0  0  0  0
    6.5710   -0.5430   -1.5170 C   0  0  0  0  0  0  0  0  0  0  0  0
    4.5590   -1.2340   -0.3040 N   0  0  0  0  0  0  0  0  0  0  0  0
    3.3380   -1.0660    0.0850 C   0  0  0  0  0  0  0  0  0  0  0  0
    2.6590   -2.0590    0.9430 C   0  0  0  0  0  0  0  0  0  0  0  0
    1.2770   -1.6590    1.2600 C   0  0  0  0  0  0  0  0  0  0  0  0
    0.5900   -2.4510    2.0020 O   0  0  0  0  0  0  0  0  0  0  0  0
    0.6520   -0.4690    0.8070 N   0  0  0  0  0  0  0  0  0  0  0  0
   -0.7220   -0.1640    1.1770 C   0  0  0  0  0  0  0  0  0  0  0  0
   -1.6960   -0.7300    0.1630 C   0  0  0  0  0  0  0  0  0  0  0  0
   -3.1040   -0.4140    0.5470 C   0  0  0  0  0  0  0  0  0  0  0  0
   -3.9780   -1.1120    1.3130 C   0  0  0  0  0  0  0  0  0  0  0  0
   -5.2100   -0.5990    1.5080 C   0  0  0  0  0  0  0  0  0  0  0  0
   -5.5730    0.5610    0.9700 C   0  0  0  0  0  0  0  0  0  0  0  0
   -6.7330    1.4040    0.9430 C   0  0  0  0  0  0  0  0  0  0  0  0
   -6.6360    2.4990    0.2570 O   0  0  0  0  0  0  0  0  0  0  0  0
   -7.9430    1.1870    1.5610 N   0  0  0  0  0  0  0  0  0  0  0  0
   -8.2590    0.0480    2.3610 C   0  0  0  0  0  0  0  0  0  0  0  0
   -9.0480    2.1740    1.4260 C   0  0  0  0  0  0  0  0  0  0  0  0
   -4.0390    1.0150    0.0810 S   0  0  0  0  0  0  0  0  0  0  0  0
    1.4010    0.4120   -0.0120 C   0  0  0  0  0  0  0  0  0  0  0  0
    2.6560    0.1400   -0.3540 C   0  0  0  0  0  0  0  0  0  0  0  0
    3.3020    1.1040   -1.1810 N   0  0  0  0  0  0  0  0  0  0  0  0
  1  2  1  0
  2  3  1  0
  3  4  2  0
  3  8  1  0
  4  5  1  0
  5  6  2  0
  6  7  1  0
  6 29  1  0
  7  8  2  0
  7  9  1  0
  9 10  2  0
 10 11  1  0
 10 28  1  0
 11 12  1  0
 12 13  2  0
 12 14  1  0
 14 15  1  0
 14 27  1  0
 15 16  1  0
 16 17  1  0
 17 18  2  0
 17 26  1  0
 18 19  1  0
 19 20  2  0
 20 21  1  0
 20 26  1  0
 21 22  2  0
 21 23  1  0
 23 24  1  0
 23 25  1  0
 27 28  2  0
 28 29  1  0
M  END
