
     RDKit          3D

 30 32  0  0  0  0  0  0  0  0999 V2000
   -3.1320    5.4240    0.7500 C   0  0  0  0  0  0  0  0  0  0  0  0
   -2.2790    4.1590    0.7980 C   0  0  0  0  0  0  0  0  0  0  0  0
   -3.1340    3.0570    0.5730 O   0  0  0  0  0  0  0  0  0  0  0  0
   -2.6270    1.7540    0.5610 C   0  0  0  0  0  0  0  0  0  0  0  0
   -3.4440    0.6670    0.3430 C   0  0  0  0  0  0  0  0  0  0  0  0
   -2.9430   -0.6470    0.3290 C   0  0  0  0  0  0  0  0  0  0  0  0
   -3.8200   -1.6310    0.1090 O   0  0  0  0  0  0  0  0  0  0  0  0
   -3.7700   -2.9950    0.0160 C   0  0  2  0  0  0  0  0  0  0  0  0
   -4.3270   -3.3430   -1.3830 C   0  0  0  0  0  0  0  0  0  0  0  0
   -5.8130   -3.1590   -1.0830 C   0  0  0  0  0  0  0  0  0  0  0  0
   -5.9500   -3.8520    0.0920 O   0  0  0  0  0  0  0  0  0  0  0  0
   -4.8210   -3.7060    0.8550 C   0  0  0  0  0  0  0  0  0  0  0  0
   -1.6020   -0.8310    0.5390 C   0  0  0  0  0  0  0  0  0  0  0  0
   -1.0530   -2.0910    0.5370 F   0  0  0  0  0  0  0  0  0  0  0  0
   -0.8040    0.2770    0.7550 C   0  0  0  0  0  0  0  0  0  0  0  0
    0.6470    0.0510    0.9800 C   0  0  1  0  0  0  0  0  0  0  0  0
    1.3150    0.3550   -0.2730 N   0  0  0  0  0  0  0  0  0  0  0  0
    2.7080    0.1390   -0.4050 C   0  0  0  0  0  0  0  0  0  0  0  0
    3.4060   -0.4850    0.6000 C   0  0  0  0  0  0  0  0  0  0  0  0
    4.7820   -0.6680    0.4270 C   0  0  0  0  0  0  0  0  0  0  0  0
    5.4290   -0.2430   -0.7050 C   0  0  0  0  0  0  0  0  0  0  0  0
    6.8520   -0.4430   -0.8630 C   0  0  0  0  0  0  0  0  0  0  0  0
    7.5070    0.0160   -2.0680 N   0  0  0  0  0  0  0  0  0  0  0  0
    7.5740   -1.0140    0.0240 N   0  0  0  0  0  0  0  0  0  0  0  0
    4.7230    0.3860   -1.7190 C   0  0  0  0  0  0  0  0  0  0  0  0
    3.3680    0.5620   -1.5400 C   0  0  0  0  0  0  0  0  0  0  0  0
    1.1610    0.8460    2.0980 C   0  0  0  0  0  0  0  0  0  0  0  0
    2.0600    1.6930    1.9240 O   0  0  0  0  0  0  0  0  0  0  0  0
    0.6490    0.6620    3.3630 O   0  0  0  0  0  0  0  0  0  0  0  0
   -1.2770    1.5680    0.7720 C   0  0  0  0  0  0  0  0  0  0  0  0
  1  2  1  0
  2  3  1  0
  3  4  1  0
  4  5  2  0
  4 30  1  0
  5  6  1  0
  6  7  1  0
  6 13  2  0
  8  7  1  1
  8  9  1  0
  8 12  1  0
  9 10  1  0
 10 11  1  0
 11 12  1  0
 13 14  1  0
 13 15  1  0
 15 16  1  0
 15 30  2  0
 16 17  1  6
 16 27  1  0
 17 18  1  0
 18 19  2  0
 18 26  1  0
 19 20  1  0
 20 21  2  0
 21 22  1  0
 21 25  1  0
 22 23  1  0
 22 24  2  0
 25 26  2  0
 27 28  2  0
 27 29  1  0
M  CHG  1  24   1
M  END
