
     RDKit          3D

 29 32  0  0  0  0  0  0  0  0999 V2000
    4.4410    1.0530   -0.2410 O   0  0  0  0  0  0  0  0  0  0  0  0
    4.9330    0.0160    0.3120 C   0  0  0  0  0  0  0  0  0  0  0  0
    4.1380   -1.2530    0.4480 C   0  0  0  0  0  0  0  0  0  0  0  0
    3.7060   -1.3760    2.2140 S   0  0  0  0  0  0  0  0  0  0  0  0
    2.5530   -0.0230    2.6190 C   0  0  0  0  0  0  0  0  0  0  0  0
    1.2780   -0.2880    1.9070 C   0  0  0  0  0  0  0  0  0  0  0  0
    1.1800   -1.3680    1.2240 O   0  0  0  0  0  0  0  0  0  0  0  0
    0.1580    0.5560    1.9190 N   0  0  0  0  0  0  0  0  0  0  0  0
   -1.0640    0.3130    1.2570 C   0  0  0  0  0  0  0  0  0  0  0  0
   -1.8750    1.3780    0.8280 C   0  0  0  0  0  0  0  0  0  0  0  0
   -3.0820    1.1640    0.1810 C   0  0  0  0  0  0  0  0  0  0  0  0
   -3.5220   -0.1270   -0.0570 C   0  0  0  0  0  0  0  0  0  0  0  0
   -4.7310   -0.3290   -0.7030 C   0  0  0  0  0  0  0  0  0  0  0  0
   -5.4930    0.7760   -1.1580 N   0  0  0  0  0  0  0  0  0  0  0  0
   -6.5970    1.2840   -0.5950 C   0  0  0  0  0  0  0  0  0  0  0  0
   -7.0730    2.3560   -1.3110 C   0  0  0  0  0  0  0  0  0  0  0  0
   -6.2180    2.5240   -2.3790 C   0  0  0  0  0  0  0  0  0  0  0  0
   -5.2560    1.5410   -2.2600 C   0  0  0  0  0  0  0  0  0  0  0  0
   -5.1440   -1.6400   -0.9220 C   0  0  0  0  0  0  0  0  0  0  0  0
   -4.4100   -2.7280   -0.5300 C   0  0  0  0  0  0  0  0  0  0  0  0
   -3.2010   -2.4710    0.1160 C   0  0  0  0  0  0  0  0  0  0  0  0
   -2.7530   -1.1910    0.3540 C   0  0  0  0  0  0  0  0  0  0  0  0
   -1.5530   -0.9390    0.9940 C   0  0  0  0  0  0  0  0  0  0  0  0
    6.2410   -0.0290    0.8330 N   0  0  0  0  0  0  0  0  0  0  0  0
    7.2470    0.2380    0.1090 C   0  0  0  0  0  0  0  0  0  0  0  0
    7.2310    0.6200   -1.3230 C   0  0  0  0  0  0  0  0  0  0  0  0
    8.5070    0.1460   -1.7600 O   0  0  0  0  0  0  0  0  0  0  0  0
    9.3580    0.1880   -0.6410 C   0  0  0  0  0  0  0  0  0  0  0  0
    8.6530    0.2430    0.4550 N   0  0  0  0  0  0  0  0  0  0  0  0
  1  2  2  0
  2  3  1  0
  2 24  1  0
  3  4  1  0
  4  5  1  0
  5  6  1  0
  6  7  2  0
  6  8  1  0
  8  9  1  0
  9 10  2  0
  9 23  1  0
 10 11  1  0
 11 12  2  0
 12 13  1  0
 12 22  1  0
 13 14  1  0
 13 19  2  0
 14 15  1  0
 14 18  1  0
 15 16  2  0
 16 17  1  0
 17 18  2  0
 19 20  1  0
 20 21  2  0
 21 22  1  0
 22 23  2  0
 24 25  2  3
 25 26  1  0
 25 29  1  0
 26 27  1  0
 27 28  1  0
 28 29  2  0
M  END
