
     RDKit          3D

 30 34  0  0  0  0  0  0  0  0999 V2000
   -2.6570    5.7200   -0.6170 C   0  0  0  0  0  0  0  0  0  0  0  0
   -1.5190    5.5150    0.1150 O   0  0  0  0  0  0  0  0  0  0  0  0
   -1.3140    4.2080    0.5370 C   0  0  0  0  0  0  0  0  0  0  0  0
   -1.2170    3.2530   -0.6040 C   0  0  0  0  0  0  0  0  0  0  0  0
   -0.9830    1.8760   -0.2140 N   0  0  0  0  0  0  0  0  0  0  0  0
   -1.8440    0.8940    0.0770 C   0  0  0  0  0  0  0  0  0  0  0  0
   -1.1510   -0.2820    0.3870 C   0  0  0  0  0  0  0  0  0  0  0  0
   -1.8000   -1.5690    0.7440 C   0  0  1  0  0  0  0  0  0  0  0  0
   -2.7970   -1.4270    1.8580 C   0  0  0  0  0  0  0  0  0  0  0  0
   -4.1740   -1.0930    1.4590 C   0  0  0  0  0  0  0  0  0  0  0  0
   -4.5820   -1.3230    0.0610 C   0  0  0  0  0  0  0  0  0  0  0  0
   -3.6790   -2.1680   -0.7380 C   0  0  0  0  0  0  0  0  0  0  0  0
   -4.2500   -2.8240   -1.8240 C   0  0  0  0  0  0  0  0  0  0  0  0
   -3.4840   -3.6290   -2.6210 C   0  0  0  0  0  0  0  0  0  0  0  0
   -2.1550   -3.7740   -2.3290 C   0  0  0  0  0  0  0  0  0  0  0  0
   -1.5920   -3.1150   -1.2400 C   0  0  0  0  0  0  0  0  0  0  0  0
   -2.3490   -2.2970   -0.4240 C   0  0  0  0  0  0  0  0  0  0  0  0
    0.1820    0.0520    0.2640 C   0  0  0  0  0  0  0  0  0  0  0  0
    1.3230   -0.8410    0.4660 C   0  0  0  0  0  0  0  0  0  0  0  0
    1.2460   -2.0830    0.5770 O   0  0  0  0  0  0  0  0  0  0  0  0
    2.6580   -0.2580    0.5380 C   0  0  0  0  0  0  0  0  0  0  0  0
    2.8850    1.0370    0.9530 C   0  0  0  0  0  0  0  0  0  0  0  0
    4.1470    1.5280    0.9600 N   0  0  0  0  0  0  0  0  0  0  0  0
    5.1760    0.7690    0.5680 C   0  0  0  0  0  0  0  0  0  0  0  0
    5.0120   -0.5180    0.1470 C   0  0  0  0  0  0  0  0  0  0  0  0
    6.1870   -1.3230   -0.2900 C   0  0  2  0  0  0  0  0  0  0  0  0
    7.4260   -1.1360    0.6020 C   0  0  0  0  0  0  0  0  0  0  0  0
    7.3770   -0.6200   -0.8290 C   0  0  0  0  0  0  0  0  0  0  0  0
    3.7440   -1.0330    0.1330 C   0  0  0  0  0  0  0  0  0  0  0  0
    0.2100    1.3480   -0.0940 N   0  0  0  0  0  0  0  0  0  0  0  0
  1  2  1  0
  2  3  1  0
  3  4  1  0
  4  5  1  0
  5  6  1  0
  5 30  1  0
  6  7  2  0
  8  7  1  6
  7 18  1  0
  8  9  1  0
  8 17  1  0
  9 10  1  0
 10 11  1  0
 11 12  1  0
 12 13  2  0
 12 17  1  0
 13 14  1  0
 14 15  2  0
 15 16  1  0
 16 17  2  0
 18 19  1  0
 18 30  2  0
 19 20  2  0
 19 21  1  0
 21 22  2  0
 21 29  1  0
 22 23  1  0
 23 24  2  0
 24 25  1  0
 26 25  1  1
 25 29  2  0
 26 27  1  0
 26 28  1  0
 27 28  1  0
M  END
