
     RDKit          3D

 28 29  0  0  0  0  0  0  0  0999 V2000
   -3.0740    4.0540   -1.7160 N   0  0  0  0  0  0  0  0  0  0  0  0
   -3.6340    2.7610   -2.1770 C   0  0  0  0  0  0  0  0  0  0  0  0
   -4.2570    1.3710   -2.6780 C   0  0  0  0  0  0  0  0  0  0  0  0
   -3.4360    0.4300   -1.8740 C   0  0  0  0  0  0  0  0  0  0  0  0
   -3.2810    0.9520   -0.4510 C   0  0  2  0  0  0  0  0  0  0  0  0
   -2.0400    0.2970    0.0540 N   0  0  0  0  0  0  0  0  0  0  0  0
   -1.0530    1.0540   -0.8050 C   0  0  0  0  0  0  0  0  0  0  0  0
    0.3520    0.7550   -0.4790 C   0  0  1  0  0  0  0  0  0  0  0  0
    0.8750    0.9490    0.9010 C   0  0  0  0  0  0  0  0  0  0  0  0
    0.7160   -0.4190    0.3440 C   0  0  2  0  0  0  0  0  0  0  0  0
    1.8460   -1.2760    0.0890 C   0  0  0  0  0  0  0  0  0  0  0  0
    3.1860   -0.8380    0.0880 C   0  0  0  0  0  0  0  0  0  0  0  0
    3.9290   -0.6660   -0.9270 O   0  0  0  0  0  0  0  0  0  0  0  0
    3.9440   -0.6200    1.3430 N   0  0  0  0  0  0  0  0  0  0  0  0
    5.2850   -0.7550    1.1960 N   0  0  0  0  0  0  0  0  0  0  0  0
    6.1910   -0.2950    0.2970 C   0  0  0  0  0  0  0  0  0  0  0  0
    6.1320    0.5710   -0.5220 O   0  0  0  0  0  0  0  0  0  0  0  0
    7.5300   -1.0570    0.3680 N   0  0  0  0  0  0  0  0  0  0  0  0
    8.4650   -0.6880   -0.6410 C   0  0  0  0  0  0  0  0  0  0  0  0
    8.9960    0.6170   -0.4770 N   0  0  0  0  0  0  0  0  0  0  0  0
   -4.4280    0.2190    0.3050 C   0  0  0  0  0  0  0  0  0  0  0  0
   -4.1870   -1.0130    0.6910 C   0  0  0  0  0  0  0  0  0  0  0  0
   -5.3180   -1.6790    1.3840 C   0  0  0  0  0  0  0  0  0  0  0  0
   -5.2270   -3.0680    1.5600 N   0  0  0  0  0  0  0  0  0  0  0  0
   -6.4110   -0.9240    1.5130 C   0  0  0  0  0  0  0  0  0  0  0  0
   -6.6650    0.3530    1.1300 C   0  0  0  0  0  0  0  0  0  0  0  0
   -5.4980    0.9560    0.4060 C   0  0  0  0  0  0  0  0  0  0  0  0
   -5.7080    2.2110   -0.0540 O   0  0  0  0  0  0  0  0  0  0  0  0
  1  2  3  0
  2  3  1  0
  3  4  1  0
  5  4  1  6
  5  6  1  0
  5 21  1  0
  6  7  1  0
  8  7  1  1
  8  9  1  0
  8 10  1  0
  9 10  1  0
 10 11  1  6
 11 12  1  0
 12 13  2  0
 12 14  1  0
 14 15  1  0
 15 16  1  0
 16 17  2  0
 16 18  1  0
 18 19  1  0
 19 20  1  0
 21 22  2  0
 21 27  1  0
 22 23  1  0
 23 24  1  0
 23 25  2  0
 25 26  1  0
 26 27  2  0
 27 28  1  0
M  CHG  2   6   1  20   1
M  END
