
     RDKit          3D

 28 28  0  0  0  0  0  0  0  0999 V2000
   -1.0650   -4.2780   -0.0940 C   0  0  0  0  0  0  0  0  0  0  0  0
   -2.2090   -3.6790   -0.8570 C   0  0  0  0  0  0  0  0  0  0  0  0
   -2.6070   -2.3440   -0.3130 C   0  0  0  0  0  0  0  0  0  0  0  0
   -1.3780   -1.3740   -0.4110 C   0  0  1  0  0  0  0  0  0  0  0  0
   -0.9790   -1.2390   -1.7710 N   0  0  0  0  0  0  0  0  0  0  0  0
    0.1860   -0.8800   -2.4460 C   0  0  0  0  0  0  0  0  0  0  0  0
    0.7210   -1.7940   -3.1840 O   0  0  0  0  0  0  0  0  0  0  0  0
    0.9350    0.3840   -2.4770 C   0  0  0  0  0  0  0  0  0  0  0  0
    2.3820    0.4480   -2.2650 C   0  0  0  0  0  0  0  0  0  0  0  0
    3.2240   -0.7010   -1.9460 C   0  0  0  0  0  0  0  0  0  0  0  0
    3.1750   -1.6910   -2.7200 O   0  0  0  0  0  0  0  0  0  0  0  0
    4.1190   -0.8400   -0.8440 N   0  0  0  0  0  0  0  0  0  0  0  0
    3.7680   -0.5020    0.5600 C   0  0  1  0  0  0  0  0  0  0  0  0
    4.6250    0.5520    1.1150 C   0  0  0  0  0  0  0  0  0  0  0  0
    4.3370    0.9430    2.5230 C   0  0  0  0  0  0  0  0  0  0  0  0
    2.2940   -0.3250    0.6300 C   0  0  0  0  0  0  0  0  0  0  0  0
    1.8240   -1.4040    0.0750 O   0  0  0  0  0  0  0  0  0  0  0  0
    1.4180    0.6270    1.0970 N   0  0  0  0  0  0  0  0  0  0  0  0
    0.6090    0.7860    2.2270 N   0  0  0  0  0  0  0  0  0  0  0  0
   -0.6770    0.1820    2.5110 C   0  0  0  0  0  0  0  0  0  0  0  0
   -0.7660   -0.3600    3.7030 N   0  0  0  0  0  0  0  0  0  0  0  0
   -1.8100    0.1480    1.6500 N   0  0  0  0  0  0  0  0  0  0  0  0
   -1.8390   -0.0850    0.2440 C   0  0  0  0  0  0  0  0  0  0  0  0
   -2.3030    0.8110   -0.6120 C   0  0  0  0  0  0  0  0  0  0  0  0
   -2.8170    2.1160   -0.3800 C   0  0  0  0  0  0  0  0  0  0  0  0
   -2.9070    2.6970    0.9720 C   0  0  0  0  0  0  0  0  0  0  0  0
   -3.2380    2.8570   -1.4200 C   0  0  0  0  0  0  0  0  0  0  0  0
   -3.7570    4.1630   -1.2300 N   0  0  0  0  0  0  0  0  0  0  0  0
  1  2  1  0
  2  3  1  0
  4  3  1  6
  4  5  1  0
  4 23  1  0
  5  6  1  0
  6  7  2  0
  6  8  1  0
  8  9  1  0
  9 10  1  0
 10 11  2  0
 10 12  1  0
 12 13  1  0
 13 14  1  6
 13 16  1  0
 14 15  1  0
 16 17  2  0
 16 18  1  0
 18 19  1  0
 19 20  1  0
 20 21  2  0
 20 22  1  0
 22 23  1  0
 23 24  2  3
 24 25  1  0
 25 26  1  0
 25 27  2  3
 27 28  1  0
M  CHG  2  21   1  28   1
M  END
