
     RDKit          3D

 28 29  0  0  0  0  0  0  0  0999 V2000
    0.0710   -3.2560   -1.8560 C   0  0  0  0  0  0  0  0  0  0  0  0
   -0.2340   -1.9640   -1.1550 C   0  0  0  0  0  0  0  0  0  0  0  0
   -1.3900   -1.3840   -1.0460 O   0  0  0  0  0  0  0  0  0  0  0  0
   -1.3390   -0.2640   -0.3750 C   0  0  0  0  0  0  0  0  0  0  0  0
   -2.5010    0.6220   -0.0870 C   0  0  0  0  0  0  0  0  0  0  0  0
   -3.1580    0.2750    1.1570 N   0  0  0  0  0  0  0  0  0  0  0  0
   -4.5030   -0.2060    0.9480 C   0  0  0  0  0  0  0  0  0  0  0  0
   -5.5310    0.8810    1.0200 C   0  0  2  0  0  0  0  0  0  0  0  0
   -6.8930    0.2680    0.7880 C   0  0  0  0  0  0  0  0  0  0  0  0
   -6.9770   -0.3660   -0.4980 N   0  0  0  0  0  0  0  0  0  0  0  0
   -5.3170    1.9670    0.0070 C   0  0  0  0  0  0  0  0  0  0  0  0
   -6.3600    2.9630    0.1640 N   0  0  0  0  0  0  0  0  0  0  0  0
   -0.0290   -0.0850   -0.0040 C   0  0  0  0  0  0  0  0  0  0  0  0
    0.6790   -1.1530   -0.4910 C   0  0  0  0  0  0  0  0  0  0  0  0
    2.1080   -1.3950   -0.3440 C   0  0  0  0  0  0  0  0  0  0  0  0
    2.6570   -2.5660   -0.9250 N   0  0  0  0  0  0  0  0  0  0  0  0
    2.8170   -0.5560    0.2940 N   0  0  0  0  0  0  0  0  0  0  0  0
    4.2100   -0.6800    0.5030 C   0  0  0  0  0  0  0  0  0  0  0  0
    5.0180    0.3430   -0.0210 C   0  0  0  0  0  0  0  0  0  0  0  0
    6.3760    0.3150    0.1280 C   0  0  0  0  0  0  0  0  0  0  0  0
    7.2990    1.2810   -0.3380 N   0  0  0  0  0  0  0  0  0  0  0  0
    6.9400    2.5190   -0.9050 C   0  0  0  0  0  0  0  0  0  0  0  0
    7.9480    3.4450   -1.3580 N   0  0  0  0  0  0  0  0  0  0  0  0
    5.7650    2.8810   -1.0470 O   0  0  0  0  0  0  0  0  0  0  0  0
    6.8820   -0.7860    0.8260 C   0  0  0  0  0  0  0  0  0  0  0  0
    6.0950   -1.7880    1.3390 C   0  0  0  0  0  0  0  0  0  0  0  0
    4.7280   -1.7540    1.1860 C   0  0  0  0  0  0  0  0  0  0  0  0
    3.9020   -2.7470    1.6900 O   0  0  0  0  0  0  0  0  0  0  0  0
  1  2  1  0
  2  3  1  0
  2 14  2  0
  3  4  1  0
  4  5  1  0
  4 13  2  0
  5  6  1  0
  6  7  1  0
  8  7  1  6
  8  9  1  0
  8 11  1  0
  9 10  1  0
 11 12  1  0
 13 14  1  0
 14 15  1  0
 15 16  1  0
 15 17  2  3
 17 18  1  0
 18 19  2  0
 18 27  1  0
 19 20  1  0
 20 21  1  0
 20 25  2  0
 21 22  1  0
 22 23  1  0
 22 24  2  0
 25 26  1  0
 26 27  2  0
 27 28  1  0
M  CHG  2   6   1  12   1
M  END
