
     RDKit          3D

 28 29  0  0  0  0  0  0  0  0999 V2000
   -2.9850    3.8740    2.0530 C   0  0  0  0  0  0  0  0  0  0  0  0
   -2.1990    2.6010    2.3220 C   0  0  0  0  0  0  0  0  0  0  0  0
   -1.5560    2.1690    1.0230 C   0  0  0  0  0  0  0  0  0  0  0  0
   -0.8090    0.9370    1.3210 N   0  0  0  0  0  0  0  0  0  0  0  0
   -0.0770    0.2710    0.2970 C   0  0  0  0  0  0  0  0  0  0  0  0
   -0.7460   -0.2530   -0.7070 C   0  0  0  0  0  0  0  0  0  0  0  0
   -2.1600   -0.2640   -0.9410 C   0  0  0  0  0  0  0  0  0  0  0  0
   -3.2000   -0.7130   -0.2040 C   0  0  0  0  0  0  0  0  0  0  0  0
   -3.1640   -1.3980    1.0950 C   0  0  0  0  0  0  0  0  0  0  0  0
   -4.5390   -1.7370    1.5240 N   0  0  0  0  0  0  0  0  0  0  0  0
   -4.3860   -0.4310   -0.9240 C   0  0  0  0  0  0  0  0  0  0  0  0
   -4.0600    0.1760   -2.0720 N   0  0  0  0  0  0  0  0  0  0  0  0
   -2.7230    0.2870   -2.1050 C   0  0  0  0  0  0  0  0  0  0  0  0
   -1.9430    0.9020   -3.2060 C   0  0  0  0  0  0  0  0  0  0  0  0
    1.3670    0.1960    0.4100 C   0  0  0  0  0  0  0  0  0  0  0  0
    2.1810   -0.4930   -0.6030 C   0  0  0  0  0  0  0  0  0  0  0  0
    3.4730   -0.5250   -0.4410 N   0  0  0  0  0  0  0  0  0  0  0  0
    4.3310   -1.1670   -1.3700 C   0  0  0  0  0  0  0  0  0  0  0  0
    5.2920   -1.9500   -0.8770 C   0  0  0  0  0  0  0  0  0  0  0  0
    5.5770   -2.2320    0.4840 N   0  0  0  0  0  0  0  0  0  0  0  0
    6.6890   -3.1240    0.5350 C   0  0  0  0  0  0  0  0  0  0  0  0
    7.2120   -3.5840    1.5800 O   0  0  0  0  0  0  0  0  0  0  0  0
    7.0860   -3.3900   -0.7910 N   0  0  0  0  0  0  0  0  0  0  0  0
    6.2470   -2.6820   -1.6920 C   0  0  0  0  0  0  0  0  0  0  0  0
    6.3130   -2.6850   -2.9670 O   0  0  0  0  0  0  0  0  0  0  0  0
    1.9910    0.7370    1.4240 C   0  0  0  0  0  0  0  0  0  0  0  0
    1.3250    1.4210    2.4630 N   0  0  0  0  0  0  0  0  0  0  0  0
    3.3960    0.6260    1.4700 O   0  0  0  0  0  0  0  0  0  0  0  0
  1  2  1  0
  2  3  1  0
  3  4  1  0
  4  5  1  0
  5  6  2  3
  5 15  1  0
  6  7  1  0
  7  8  1  0
  7 13  2  0
  8  9  1  0
  8 11  2  0
  9 10  1  0
 11 12  1  0
 12 13  1  0
 13 14  1  0
 15 16  1  0
 15 26  2  3
 16 17  2  3
 17 18  1  0
 18 19  2  3
 19 20  1  0
 19 24  1  0
 20 21  1  0
 21 22  2  0
 21 23  1  0
 23 24  1  0
 24 25  2  0
 26 27  1  0
 26 28  1  0
M  CHG  1  10   1
M  END
