
     RDKit          3D

  8  8  0  0  0  0  0  0  0  0999 V2000
    2.4820    0.1360    0.2970 N   0  0  0  0  0  0  0  0  0  0  0  0
    1.4680    0.2270   -0.7540 C   0  0  0  0  0  0  0  0  0  0  0  0
    0.1100    0.0290   -0.2530 C   0  0  0  0  0  0  0  0  0  0  0  0
   -0.4800   -1.2100   -0.1910 C   0  0  0  0  0  0  0  0  0  0  0  0
   -1.7670   -1.3710    0.2870 C   0  0  0  0  0  0  0  0  0  0  0  0
   -2.4980   -0.2650    0.7200 C   0  0  0  0  0  0  0  0  0  0  0  0
   -1.8850    0.9700    0.6480 C   0  0  0  0  0  0  0  0  0  0  0  0
   -0.6170    1.1150    0.1750 C   0  0  0  0  0  0  0  0  0  0  0  0
  1  2  1  0
  2  3  1  0
  3  4  2  0
  3  8  1  0
  4  5  1  0
  5  6  2  0
  6  7  1  0
  7  8  2  0
M  CHG  1   1   1
M  END
