
     RDKit          3D

 28 29  0  0  0  0  0  0  0  0999 V2000
    6.0210   -1.1600    3.8720 C   0  0  0  0  0  0  0  0  0  0  0  0
    5.2130   -0.9200    2.7430 O   0  0  0  0  0  0  0  0  0  0  0  0
    5.7920   -0.4090    1.5870 C   0  0  0  0  0  0  0  0  0  0  0  0
    7.1200   -0.1360    1.5230 C   0  0  0  0  0  0  0  0  0  0  0  0
    7.7440    0.3560    0.4450 N   0  0  0  0  0  0  0  0  0  0  0  0
    6.9980    0.5930   -0.6420 C   0  0  0  0  0  0  0  0  0  0  0  0
    7.6030    1.1140   -1.8100 N   0  0  0  0  0  0  0  0  0  0  0  0
    5.6250    0.3290   -0.6290 C   0  0  0  0  0  0  0  0  0  0  0  0
    4.9830   -0.1740    0.4710 C   0  0  0  0  0  0  0  0  0  0  0  0
    3.6090   -0.4610    0.5550 N   0  0  0  0  0  0  0  0  0  0  0  0
    2.6490   -0.2970   -0.4680 C   0  0  0  0  0  0  0  0  0  0  0  0
    2.9750    0.1400   -1.5860 O   0  0  0  0  0  0  0  0  0  0  0  0
    1.2090   -0.6510   -0.2200 C   0  0  0  0  0  0  0  0  0  0  0  0
    0.4470   -0.3810   -1.4850 C   0  0  0  0  0  0  0  0  0  0  0  0
   -1.0290   -0.7100   -1.3370 C   0  0  0  0  0  0  0  0  0  0  0  0
   -1.6850    0.1080   -0.2380 C   0  0  1  0  0  0  0  0  0  0  0  0
   -1.5250    1.5620   -0.6210 C   0  0  0  0  0  0  0  0  0  0  0  0
   -2.1640    1.8580   -1.8910 N   0  0  0  0  0  0  0  0  0  0  0  0
   -3.0920   -0.2080   -0.2440 N   0  0  0  0  0  0  0  0  0  0  0  0
   -3.3280   -1.6150    0.0320 C   0  0  0  0  0  0  0  0  0  0  0  0
   -4.7360   -1.8680    0.3610 C   0  0  0  0  0  0  0  0  0  0  0  0
   -5.7060   -0.9870    0.3960 C   0  0  0  0  0  0  0  0  0  0  0  0
   -7.0690   -1.3320    0.7330 C   0  0  0  0  0  0  0  0  0  0  0  0
   -8.0570   -0.3190    0.7480 N   0  0  0  0  0  0  0  0  0  0  0  0
   -7.4140   -2.5030    1.0150 O   0  0  0  0  0  0  0  0  0  0  0  0
   -5.3510    0.4170    0.0730 C   0  0  2  0  0  0  0  0  0  0  0  0
   -5.2720    0.5420   -1.3650 N   0  0  0  0  0  0  0  0  0  0  0  0
   -3.9160    0.5740    0.6090 C   0  0  0  0  0  0  0  0  0  0  0  0
  1  2  1  0
  2  3  1  0
  3  4  2  0
  3  9  1  0
  4  5  1  0
  5  6  2  0
  6  7  1  0
  6  8  1  0
  8  9  2  0
  9 10  1  0
 10 11  1  0
 11 12  2  0
 11 13  1  0
 13 14  1  0
 14 15  1  0
 16 15  1  6
 16 17  1  0
 16 19  1  0
 17 18  1  0
 19 20  1  0
 19 28  1  0
 20 21  1  0
 21 22  2  0
 22 23  1  0
 22 26  1  0
 23 24  1  0
 23 25  2  0
 26 27  1  6
 26 28  1  0
M  CHG  3   5   1  18   1  27   1
M  END
