
     RDKit          3D

 24 26  0  0  0  0  0  0  0  0999 V2000
   -5.9790   -3.7910   -0.8910 N   0  0  0  0  0  0  0  0  0  0  0  0
   -5.1090   -3.0230   -0.8260 C   0  0  0  0  0  0  0  0  0  0  0  0
   -4.0150   -2.0710   -0.7670 C   0  0  0  0  0  0  0  0  0  0  0  0
   -2.7150   -2.4230   -1.0200 C   0  0  0  0  0  0  0  0  0  0  0  0
   -1.7230   -1.4830   -0.9490 C   0  0  0  0  0  0  0  0  0  0  0  0
   -1.9450   -0.1640   -0.6300 C   0  0  0  0  0  0  0  0  0  0  0  0
   -0.8520    0.8350   -0.5570 C   0  0  1  0  0  0  0  0  0  0  0  0
    0.2640    0.2840    0.2630 C   0  0  2  0  0  0  0  0  0  0  0  0
   -0.2060    0.0020    1.5520 O   0  0  0  0  0  0  0  0  0  0  0  0
    1.4380    1.2160    0.3970 C   0  0  0  0  0  0  0  0  0  0  0  0
    2.4900    0.5790    1.2270 C   0  0  0  0  0  0  0  0  0  0  0  0
    3.4860   -0.2000    0.6610 C   0  0  0  0  0  0  0  0  0  0  0  0
    4.4600   -0.7870    1.4350 C   0  0  0  0  0  0  0  0  0  0  0  0
    4.4770   -0.6160    2.8130 C   0  0  0  0  0  0  0  0  0  0  0  0
    5.4250   -1.1840    3.5900 F   0  0  0  0  0  0  0  0  0  0  0  0
    3.4860    0.1600    3.3840 C   0  0  0  0  0  0  0  0  0  0  0  0
    2.5260    0.7360    2.5970 C   0  0  0  0  0  0  0  0  0  0  0  0
   -0.4730    1.3450   -1.8340 N   0  0  0  0  0  0  0  0  0  0  0  0
   -1.1230    2.3010   -2.5110 C   0  0  0  0  0  0  0  0  0  0  0  0
   -0.4900    2.5200   -3.6580 N   0  0  0  0  0  0  0  0  0  0  0  0
    0.5570    1.6980   -3.6920 C   0  0  0  0  0  0  0  0  0  0  0  0
    0.5530    0.9830   -2.5650 N   0  0  0  0  0  0  0  0  0  0  0  0
   -3.2810    0.1690   -0.3760 C   0  0  0  0  0  0  0  0  0  0  0  0
   -4.2870   -0.7440   -0.4390 C   0  0  0  0  0  0  0  0  0  0  0  0
  1  2  3  0
  2  3  1  0
  3  4  2  0
  3 24  1  0
  4  5  1  0
  5  6  2  0
  6  7  1  0
  6 23  1  0
  7  8  1  0
  7 18  1  6
  8  9  1  1
  8 10  1  0
 10 11  1  0
 11 12  2  0
 11 17  1  0
 12 13  1  0
 13 14  2  0
 14 15  1  0
 14 16  1  0
 16 17  2  0
 18 19  1  0
 18 22  1  0
 19 20  2  0
 20 21  1  0
 21 22  2  0
 23 24  2  0
M  END
