
     RDKit          3D

 24 26  0  0  0  0  0  0  0  0999 V2000
   -1.7750    3.7420   -0.4000 C   0  0  0  0  0  0  0  0  0  0  0  0
   -1.8610    2.2820   -0.2480 N   0  0  0  0  0  0  0  0  0  0  0  0
   -2.9630    1.5660   -0.3810 N   0  0  0  0  0  0  0  0  0  0  0  0
   -2.7050    0.2630   -0.1800 C   0  0  0  0  0  0  0  0  0  0  0  0
   -3.6720   -0.8270   -0.2430 C   0  0  0  0  0  0  0  0  0  0  0  0
   -3.2820   -2.1300   -0.0160 C   0  0  0  0  0  0  0  0  0  0  0  0
   -4.1920   -3.1830   -0.0720 C   0  0  0  0  0  0  0  0  0  0  0  0
   -5.5120   -2.9220   -0.3610 C   0  0  0  0  0  0  0  0  0  0  0  0
   -6.4570   -3.9490   -0.4270 O   0  0  0  0  0  0  0  0  0  0  0  0
   -5.9310   -1.6320   -0.5920 C   0  0  0  0  0  0  0  0  0  0  0  0
   -5.0030   -0.6100   -0.5280 C   0  0  0  0  0  0  0  0  0  0  0  0
   -1.3900    0.2070    0.0840 N   0  0  0  0  0  0  0  0  0  0  0  0
   -0.8590    1.4350    0.0460 C   0  0  0  0  0  0  0  0  0  0  0  0
    0.5390    1.8520    0.2710 C   0  0  1  0  0  0  0  0  0  0  0  0
    1.0640    1.4280    1.6270 C   0  0  0  0  0  0  0  0  0  0  0  0
    2.5580    1.5850    1.4210 C   0  0  0  0  0  0  0  0  0  0  0  0
    2.7740    1.4430   -0.0080 N   0  0  0  0  0  0  0  0  0  0  0  0
    4.0400    1.6170   -0.6230 C   0  0  0  0  0  0  0  0  0  0  0  0
    4.8560    0.5950   -0.7810 C   0  0  0  0  0  0  0  0  0  0  0  0
    4.4380   -0.7140   -0.3140 C   0  0  0  0  0  0  0  0  0  0  0  0
    5.2470   -1.7450   -0.4680 C   0  0  0  0  0  0  0  0  0  0  0  0
    4.8060   -3.0750    0.0140 C   0  0  0  0  0  0  0  0  0  0  0  0
    5.6380   -3.5920    0.9630 F   0  0  0  0  0  0  0  0  0  0  0  0
    1.5120    1.1070   -0.6390 C   0  0  0  0  0  0  0  0  0  0  0  0
  1  2  1  0
  2  3  1  0
  2 13  1  0
  3  4  2  0
  4  5  1  0
  4 12  1  0
  5  6  2  0
  5 11  1  0
  6  7  1  0
  7  8  2  0
  8  9  1  0
  8 10  1  0
 10 11  2  0
 12 13  2  0
 14 13  1  6
 14 15  1  0
 14 24  1  0
 15 16  1  0
 16 17  1  0
 17 18  1  0
 17 24  1  0
 18 19  2  3
 19 20  1  0
 20 21  2  3
 21 22  1  0
 22 23  1  0
M  END
