
     RDKit          3D

 24 26  0  0  0  0  0  0  0  0999 V2000
    4.1090    1.0790    0.9400 C   0  0  0  0  0  0  0  0  0  0  0  0
    2.9630    0.7630    0.3340 C   0  0  0  0  0  0  0  0  0  0  0  0
    1.7600    1.4860    0.7400 C   0  0  0  0  0  0  0  0  0  0  0  0
    0.5550    0.6130    0.7880 C   0  0  0  0  0  0  0  0  0  0  0  0
   -0.4660    0.9370    1.7120 O   0  0  0  0  0  0  0  0  0  0  0  0
   -0.1680    0.8750    3.1100 C   0  0  0  0  0  0  0  0  0  0  0  0
    0.4690   -0.4170   -0.0100 C   0  0  0  0  0  0  0  0  0  0  0  0
   -0.7770   -1.2270    0.0770 C   0  0  2  0  0  0  0  0  0  0  0  0
   -0.8580   -2.2800   -1.0260 C   0  0  0  0  0  0  0  0  0  0  0  0
   -2.2590   -2.8590   -1.0920 C   0  0  0  0  0  0  0  0  0  0  0  0
   -3.0530   -2.6350    0.1770 C   0  0  0  0  0  0  0  0  0  0  0  0
   -3.1800   -1.1470    0.4900 C   0  0  0  0  0  0  0  0  0  0  0  0
   -1.9880   -0.4460    0.0040 N   0  0  0  0  0  0  0  0  0  0  0  0
   -2.1380    0.8620   -0.4770 C   0  0  0  0  0  0  0  0  0  0  0  0
   -3.2360    1.6390   -0.2190 C   0  0  0  0  0  0  0  0  0  0  0  0
   -3.3510    2.9020   -0.7270 C   0  0  0  0  0  0  0  0  0  0  0  0
   -2.3310    3.3930   -1.5150 C   0  0  0  0  0  0  0  0  0  0  0  0
   -1.2580    2.6210   -1.7610 N   0  0  0  0  0  0  0  0  0  0  0  0
   -1.1690    1.4030   -1.2590 N   0  0  0  0  0  0  0  0  0  0  0  0
    1.5780   -0.9120   -0.7480 N   0  0  0  0  0  0  0  0  0  0  0  0
    2.8980   -0.3160   -0.6220 C   0  0  0  0  0  0  0  0  0  0  0  0
    3.8610   -0.6520   -1.4310 C   0  0  0  0  0  0  0  0  0  0  0  0
    5.1950   -0.1220   -1.6620 C   0  0  0  0  0  0  0  0  0  0  0  0
    5.3650    0.1950   -3.0360 F   0  0  0  0  0  0  0  0  0  0  0  0
  1  2  2  0
  2  3  1  0
  2 21  1  0
  3  4  1  0
  4  5  1  0
  4  7  2  0
  5  6  1  0
  8  7  1  6
  7 20  1  0
  8  9  1  0
  8 13  1  0
  9 10  1  0
 10 11  1  0
 11 12  1  0
 12 13  1  0
 13 14  1  0
 14 15  2  0
 14 19  1  0
 15 16  1  0
 16 17  2  0
 17 18  1  0
 18 19  2  0
 20 21  1  0
 21 22  2  3
 22 23  1  0
 23 24  1  0
M  END
