
     RDKit          3D

 24 25  0  0  0  0  0  0  0  0999 V2000
   -2.7590    4.1770   -0.4790 C   0  0  0  0  0  0  0  0  0  0  0  0
   -2.0590    2.8830   -0.3070 C   0  0  0  0  0  0  0  0  0  0  0  0
   -2.5670    1.7380   -0.6240 C   0  0  0  0  0  0  0  0  0  0  0  0
   -3.9290    1.6500   -1.2000 C   0  0  0  0  0  0  0  0  0  0  0  0
   -4.2730    2.7190   -1.9570 F   0  0  0  0  0  0  0  0  0  0  0  0
   -4.8060    0.6650   -1.0280 C   0  0  0  0  0  0  0  0  0  0  0  0
   -4.6080   -0.5350   -0.2290 C   0  0  0  0  0  0  0  0  0  0  0  0
   -3.5110   -1.1980    0.1690 C   0  0  0  0  0  0  0  0  0  0  0  0
   -3.6130   -2.3870    0.9840 C   0  0  0  0  0  0  0  0  0  0  0  0
   -2.1830   -0.7920   -0.1280 N   0  0  0  0  0  0  0  0  0  0  0  0
   -1.2910   -1.8730   -0.0150 C   0  0  0  0  0  0  0  0  0  0  0  0
   -1.7910   -3.2190    0.1590 C   0  0  0  0  0  0  0  0  0  0  0  0
    0.0180   -1.5560   -0.1770 C   0  0  0  0  0  0  0  0  0  0  0  0
    0.5380   -0.2130   -0.4460 C   0  0  2  0  0  0  0  0  0  0  0  0
    1.5870    0.2080    0.5100 C   0  0  0  0  0  0  0  0  0  0  0  0
    1.4890    1.3250    1.0680 O   0  0  0  0  0  0  0  0  0  0  0  0
    2.7030   -0.6070    0.8200 N   0  0  0  0  0  0  0  0  0  0  0  0
    3.7370   -0.2070    1.7520 C   0  0  0  0  0  0  0  0  0  0  0  0
    4.4290    1.0760    1.2900 C   0  0  0  0  0  0  0  0  0  0  0  0
    5.0350    0.8110   -0.0460 C   0  0  0  0  0  0  0  0  0  0  0  0
    5.7770   -0.2070   -0.1750 N   0  0  0  0  0  0  0  0  0  0  0  0
    6.4110   -0.5690   -1.3870 C   0  0  0  0  0  0  0  0  0  0  0  0
   -0.4780    0.7840   -0.5850 N   0  0  0  0  0  0  0  0  0  0  0  0
   -1.7210    0.5570   -0.4230 C   0  0  0  0  0  0  0  0  0  0  0  0
  1  2  1  0
  2  3  2  3
  3  4  1  0
  3 24  1  0
  4  5  1  0
  4  6  2  0
  6  7  1  0
  7  8  2  0
  8  9  1  0
  8 10  1  0
 10 11  1  0
 10 24  1  0
 11 12  1  0
 11 13  2  0
 13 14  1  0
 14 15  1  1
 14 23  1  0
 15 16  2  0
 15 17  1  0
 17 18  1  0
 18 19  1  0
 19 20  1  0
 20 21  2  3
 21 22  1  0
 23 24  2  0
M  END
