
     RDKit          3D

 24 26  0  0  0  0  0  0  0  0999 V2000
   -5.9180    1.5530    1.0490 C   0  0  0  0  0  0  0  0  0  0  0  0
   -5.1590    1.4770   -0.2300 C   0  0  0  0  0  0  0  0  0  0  0  0
   -4.1550    0.6370   -0.4180 C   0  0  0  0  0  0  0  0  0  0  0  0
   -3.4270    0.5970   -1.7110 C   0  0  0  0  0  0  0  0  0  0  0  0
   -3.7290   -0.2860    0.6550 C   0  0  0  0  0  0  0  0  0  0  0  0
   -2.3550   -0.0660    1.0360 N   0  0  0  0  0  0  0  0  0  0  0  0
   -2.0030    0.8670    2.0820 C   0  0  0  0  0  0  0  0  0  0  0  0
   -1.3310   -0.7710    0.3790 C   0  0  0  0  0  0  0  0  0  0  0  0
   -1.6210   -1.5850   -0.5330 O   0  0  0  0  0  0  0  0  0  0  0  0
    0.0910   -0.5740    0.7380 C   0  0  0  0  0  0  0  0  0  0  0  0
    0.5700    0.2550    1.6850 N   0  0  0  0  0  0  0  0  0  0  0  0
    1.8680    0.1950    1.7540 N   0  0  0  0  0  0  0  0  0  0  0  0
    2.3130   -0.6970    0.8340 C   0  0  0  0  0  0  0  0  0  0  0  0
    1.1990   -1.1840    0.1930 C   0  0  0  0  0  0  0  0  0  0  0  0
    1.6960   -2.1300   -0.7800 C   0  0  0  0  0  0  0  0  0  0  0  0
    0.7810   -2.8980   -1.7060 C   0  0  0  0  0  0  0  0  0  0  0  0
    2.9760   -2.2200   -0.7450 N   0  0  0  0  0  0  0  0  0  0  0  0
    3.5000   -1.3580    0.2420 C   0  0  1  0  0  0  0  0  0  0  0  0
    4.4140   -0.3170   -0.2870 C   0  0  0  0  0  0  0  0  0  0  0  0
    5.6560   -0.1630    0.1380 C   0  0  0  0  0  0  0  0  0  0  0  0
    6.2890    0.9620   -0.5950 C   0  0  0  0  0  0  0  0  0  0  0  0
    5.2220    1.4250   -1.4980 C   0  0  0  0  0  0  0  0  0  0  0  0
    4.1390    0.6690   -1.3050 C   0  0  0  0  0  0  0  0  0  0  0  0
    2.9300    0.7670   -1.9430 F   0  0  0  0  0  0  0  0  0  0  0  0
  1  2  1  0
  2  3  2  3
  3  4  1  0
  3  5  1  0
  5  6  1  0
  6  7  1  0
  6  8  1  0
  8  9  2  0
  8 10  1  0
 10 11  2  0
 10 14  1  0
 11 12  1  0
 12 13  1  0
 13 14  2  0
 13 18  1  0
 14 15  1  0
 15 16  1  0
 15 17  2  0
 17 18  1  0
 18 19  1  6
 19 20  2  0
 19 23  1  0
 20 21  1  0
 21 22  1  0
 22 23  2  0
 23 24  1  0
M  END
