
     RDKit          3D

 24 26  0  0  0  0  0  0  0  0999 V2000
    1.3860   -2.9980    0.4740 O   0  0  0  0  0  0  0  0  0  0  0  0
    0.9920   -2.1440    1.5240 C   0  0  0  0  0  0  0  0  0  0  0  0
    1.9050   -0.9440    1.4510 C   0  0  0  0  0  0  0  0  0  0  0  0
    1.7450   -0.2810    0.1330 C   0  0  2  0  0  0  0  0  0  0  0  0
    2.6600    0.9200   -0.0330 C   0  0  0  0  0  0  0  0  0  0  0  0
    4.0850    0.6490    0.0320 C   0  0  0  0  0  0  0  0  0  0  0  0
    4.9450    1.7190   -0.0510 C   0  0  0  0  0  0  0  0  0  0  0  0
    6.3130    1.5650   -0.0160 C   0  0  0  0  0  0  0  0  0  0  0  0
    6.7850    0.2720    0.1070 C   0  0  0  0  0  0  0  0  0  0  0  0
    8.1330    0.0330    0.1490 F   0  0  0  0  0  0  0  0  0  0  0  0
    5.8960   -0.7760    0.1880 C   0  0  0  0  0  0  0  0  0  0  0  0
    4.5780   -0.5710    0.1490 N   0  0  0  0  0  0  0  0  0  0  0  0
    0.4050    0.2080   -0.1480 N   0  0  0  0  0  0  0  0  0  0  0  0
    0.1180    0.5510   -1.5100 C   0  0  0  0  0  0  0  0  0  0  0  0
   -1.0400    0.6990   -2.1270 C   0  0  0  0  0  0  0  0  0  0  0  0
   -2.3250    0.5400   -1.5360 N   0  0  0  0  0  0  0  0  0  0  0  0
   -2.6980    0.4390   -0.3150 C   0  0  0  0  0  0  0  0  0  0  0  0
   -4.0910    0.2880   -0.0800 N   0  0  0  0  0  0  0  0  0  0  0  0
   -5.1200    0.9090   -0.8620 C   0  0  0  0  0  0  0  0  0  0  0  0
   -6.3080   -0.0110   -0.5950 C   0  0  0  0  0  0  0  0  0  0  0  0
   -6.1360   -0.3060    0.8810 C   0  0  0  0  0  0  0  0  0  0  0  0
   -4.6410   -0.5210    0.9880 C   0  0  0  0  0  0  0  0  0  0  0  0
   -1.8660    0.4610    0.8870 C   0  0  0  0  0  0  0  0  0  0  0  0
   -0.5300    0.3580    0.9050 C   0  0  0  0  0  0  0  0  0  0  0  0
  1  2  1  0
  2  3  1  0
  4  3  1  1
  4  5  1  0
  4 13  1  0
  5  6  1  0
  6  7  2  0
  6 12  1  0
  7  8  1  0
  8  9  2  0
  9 10  1  0
  9 11  1  0
 11 12  2  0
 13 14  1  0
 13 24  1  0
 14 15  2  0
 15 16  1  0
 16 17  2  0
 17 18  1  0
 17 23  1  0
 18 19  1  0
 18 22  1  0
 19 20  1  0
 20 21  1  0
 21 22  1  0
 23 24  2  0
M  END
