
     RDKit          3D

 24 26  0  0  0  0  0  0  0  0999 V2000
    6.6940   -1.9200    0.6690 C   0  0  0  0  0  0  0  0  0  0  0  0
    6.0690   -0.6750    0.2010 C   0  0  0  0  0  0  0  0  0  0  0  0
    4.7550   -0.5100    0.0210 C   0  0  0  0  0  0  0  0  0  0  0  0
    3.8380   -1.6200    0.2960 C   0  0  0  0  0  0  0  0  0  0  0  0
    4.4710   -2.8040    0.6810 F   0  0  0  0  0  0  0  0  0  0  0  0
    4.3070    0.8060   -0.4860 C   0  0  0  0  0  0  0  0  0  0  0  0
    3.3610    1.5430    0.4090 C   0  0  2  0  0  0  0  0  0  0  0  0
    3.8770    1.8110    1.7840 C   0  0  0  0  0  0  0  0  0  0  0  0
    2.0160    1.0740    0.3080 N   0  0  0  0  0  0  0  0  0  0  0  0
    1.0050    1.8410   -0.4060 C   0  0  0  0  0  0  0  0  0  0  0  0
    1.3800    2.9210   -0.9190 O   0  0  0  0  0  0  0  0  0  0  0  0
   -0.3680    1.3660   -0.5110 C   0  0  0  0  0  0  0  0  0  0  0  0
   -1.3370    2.0220   -1.1510 N   0  0  0  0  0  0  0  0  0  0  0  0
   -2.5040    1.2760   -1.0450 C   0  0  0  0  0  0  0  0  0  0  0  0
   -2.2110    0.1960   -0.3480 N   0  0  0  0  0  0  0  0  0  0  0  0
   -0.9220    0.2520   -0.0280 N   0  0  0  0  0  0  0  0  0  0  0  0
   -3.2370   -0.7650   -0.0770 C   0  0  0  0  0  0  0  0  0  0  0  0
   -4.4560   -0.5750   -0.5140 C   0  0  0  0  0  0  0  0  0  0  0  0
   -5.3370   -1.7230   -0.0980 C   0  0  0  0  0  0  0  0  0  0  0  0
   -4.6010   -2.3080    1.0660 C   0  0  0  0  0  0  0  0  0  0  0  0
   -3.1450   -2.0410    0.6840 C   0  0  0  0  0  0  0  0  0  0  0  0
   -4.8800    0.6030   -1.2950 C   0  0  1  0  0  0  0  0  0  0  0  0
   -6.0200    1.3370   -0.5460 C   0  0  0  0  0  0  0  0  0  0  0  0
   -3.8330    1.5720   -1.5820 C   0  0  0  0  0  0  0  0  0  0  0  0
  1  2  1  0
  2  3  2  3
  3  4  1  0
  3  6  1  0
  4  5  1  0
  6  7  1  0
  7  8  1  1
  7  9  1  0
  9 10  1  0
 10 11  2  0
 10 12  1  0
 12 13  1  0
 12 16  2  0
 13 14  2  0
 14 15  1  0
 14 24  1  0
 15 16  1  0
 15 17  1  0
 17 18  2  0
 17 21  1  0
 18 19  1  0
 18 22  1  0
 19 20  1  0
 20 21  1  0
 22 23  1  1
 22 24  1  0
M  END
