
     RDKit          3D

 27 29  0  0  0  0  0  0  0  0999 V2000
   -3.3810   -1.9630    2.1560 C   0  0  0  0  0  0  0  0  0  0  0  0
   -2.2850   -1.0430    1.8520 C   0  0  0  0  0  0  0  0  0  0  0  0
   -2.2920    0.0860    1.1980 C   0  0  0  0  0  0  0  0  0  0  0  0
   -1.0970    0.8200    1.0210 O   0  0  0  0  0  0  0  0  0  0  0  0
   -0.9570    1.6510   -0.1180 C   0  0  1  0  0  0  0  0  0  0  0  0
   -0.9550    0.8420   -1.3930 C   0  0  0  0  0  0  0  0  0  0  0  0
    0.0960   -0.1150   -1.4730 N   0  0  0  0  0  0  0  0  0  0  0  0
    1.4690    0.2310   -1.4290 C   0  0  0  0  0  0  0  0  0  0  0  0
    1.7710    1.4500   -1.3120 O   0  0  0  0  0  0  0  0  0  0  0  0
    2.5370   -0.8120   -1.5160 C   0  0  1  0  0  0  0  0  0  0  0  0
    2.3680   -1.5380   -2.8440 C   0  0  0  0  0  0  0  0  0  0  0  0
    3.8150   -0.1600   -1.4440 N   0  0  0  0  0  0  0  0  0  0  0  0
    4.3520    0.1850   -0.1890 C   0  0  0  0  0  0  0  0  0  0  0  0
    5.3620    0.9470   -0.1020 O   0  0  0  0  0  0  0  0  0  0  0  0
    3.7730   -0.3170    1.0800 C   0  0  2  0  0  0  0  0  0  0  0  0
    4.8780   -0.4350    2.1100 C   0  0  0  0  0  0  0  0  0  0  0  0
    5.8720   -1.3040    1.6910 O   0  0  0  0  0  0  0  0  0  0  0  0
    3.1440   -1.5850    0.8160 N   0  0  0  0  0  0  0  0  0  0  0  0
    2.3760   -1.7350   -0.3730 C   0  0  0  0  0  0  0  0  0  0  0  0
    1.5510   -2.6950   -0.3990 O   0  0  0  0  0  0  0  0  0  0  0  0
   -2.1240    2.6140   -0.2260 C   0  0  0  0  0  0  0  0  0  0  0  0
   -3.3850    1.9220   -0.0870 N   0  0  0  0  0  0  0  0  0  0  0  0
   -4.6330    2.3330   -0.5820 C   0  0  0  0  0  0  0  0  0  0  0  0
   -4.9340    3.3760   -1.2450 O   0  0  0  0  0  0  0  0  0  0  0  0
   -5.5990    1.2940   -0.1820 C   0  0  0  0  0  0  0  0  0  0  0  0
   -4.7460    0.3060    0.5640 C   0  0  0  0  0  0  0  0  0  0  0  0
   -3.4880    0.6800    0.6080 C   0  0  0  0  0  0  0  0  0  0  0  0
  1  2  1  0
  2  3  2  3
  3  4  1  0
  3 27  1  0
  4  5  1  0
  5  6  1  6
  5 21  1  0
  6  7  1  0
  7  8  1  0
  8  9  2  0
  8 10  1  0
 10 11  1  6
 10 12  1  0
 10 19  1  0
 12 13  1  0
 13 14  2  0
 13 15  1  0
 15 16  1  1
 15 18  1  0
 16 17  1  0
 18 19  1  0
 19 20  2  0
 21 22  1  0
 22 23  1  0
 22 27  1  0
 23 24  2  0
 23 25  1  0
 25 26  1  0
 26 27  2  0
M  END
