
     RDKit          3D

 27 29  0  0  0  0  0  0  0  0999 V2000
   -7.5300    1.0460    0.2520 C   0  0  0  0  0  0  0  0  0  0  0  0
   -6.0760    1.0420   -0.0490 C   0  0  0  0  0  0  0  0  0  0  0  0
   -5.6570    0.5850   -1.1520 O   0  0  0  0  0  0  0  0  0  0  0  0
   -5.0960    1.5350    0.8540 N   0  0  0  0  0  0  0  0  0  0  0  0
   -3.6880    1.5330    0.5660 C   0  0  0  0  0  0  0  0  0  0  0  0
   -3.1630    0.1610    0.3260 C   0  0  0  0  0  0  0  0  0  0  0  0
   -3.8740   -0.8640    0.3720 O   0  0  0  0  0  0  0  0  0  0  0  0
   -1.8340    0.0290    0.0420 O   0  0  0  0  0  0  0  0  0  0  0  0
   -1.1660   -1.2060   -0.2140 C   0  0  2  0  0  0  0  0  0  0  0  0
   -1.7970   -1.8880   -1.4390 C   0  0  0  0  0  0  0  0  0  0  0  0
   -1.3190   -2.1590    0.9190 C   0  0  0  0  0  0  0  0  0  0  0  0
    0.2270   -0.8560   -0.5040 C   0  0  0  0  0  0  0  0  0  0  0  0
    1.3010   -1.0840    0.1760 C   0  0  0  0  0  0  0  0  0  0  0  0
    1.6110   -1.7320    1.4440 N   0  0  0  0  0  0  0  0  0  0  0  0
    2.9910   -1.9240    1.7650 C   0  0  0  0  0  0  0  0  0  0  0  0
    3.3080   -2.9600    2.4050 O   0  0  0  0  0  0  0  0  0  0  0  0
    3.9760   -0.9280    1.3480 C   0  0  0  0  0  0  0  0  0  0  0  0
    3.3570    0.1100    0.4570 C   0  0  1  0  0  0  0  0  0  0  0  0
    4.3560    1.0030   -0.1560 C   0  0  0  0  0  0  0  0  0  0  0  0
    4.4450    2.3090    0.0230 C   0  0  0  0  0  0  0  0  0  0  0  0
    5.6150    2.7650   -0.8080 C   0  0  0  0  0  0  0  0  0  0  0  0
    5.7700    1.7550   -1.7310 O   0  0  0  0  0  0  0  0  0  0  0  0
    5.3970    0.6420   -1.0410 N   0  0  0  0  0  0  0  0  0  0  0  0
    2.5250   -0.5970   -0.5720 C   0  0  2  0  0  0  0  0  0  0  0  0
    2.0170    0.1970   -1.6180 N   0  0  0  0  0  0  0  0  0  0  0  0
    0.6230   -0.0330   -1.6800 C   0  0  0  0  0  0  0  0  0  0  0  0
   -0.1930    0.3640   -2.5540 O   0  0  0  0  0  0  0  0  0  0  0  0
  1  2  1  0
  2  3  2  0
  2  4  1  0
  4  5  1  0
  5  6  1  0
  6  7  2  0
  6  8  1  0
  8  9  1  0
  9 10  1  6
  9 11  1  0
  9 12  1  0
 12 13  2  0
 12 26  1  0
 13 14  1  0
 13 24  1  0
 14 15  1  0
 15 16  2  0
 15 17  1  0
 17 18  1  0
 18 19  1  6
 18 24  1  0
 19 20  2  0
 19 23  1  0
 20 21  1  0
 21 22  1  0
 22 23  1  0
 24 25  1  6
 25 26  1  0
 26 27  2  0
M  END
