
     RDKit          3D

 27 29  0  0  0  0  0  0  0  0999 V2000
   -4.2550   -2.1760   -0.6000 C   0  0  0  0  0  0  0  0  0  0  0  0
   -5.0720   -1.2020   -0.1860 C   0  0  0  0  0  0  0  0  0  0  0  0
   -6.4620   -1.4120   -0.1240 N   0  0  0  0  0  0  0  0  0  0  0  0
   -7.2750   -0.3320    0.3270 C   0  0  0  0  0  0  0  0  0  0  0  0
   -6.7870    0.8430    0.6840 C   0  0  0  0  0  0  0  0  0  0  0  0
   -7.6110    1.8760    1.1190 O   0  0  0  0  0  0  0  0  0  0  0  0
   -5.3440    1.0370    0.6120 C   0  0  0  0  0  0  0  0  0  0  0  0
   -4.5240    0.0850    0.2040 C   0  0  0  0  0  0  0  0  0  0  0  0
   -3.1560    0.2940    0.1440 O   0  0  0  0  0  0  0  0  0  0  0  0
   -2.6620    1.5990    0.2680 C   0  0  0  0  0  0  0  0  0  0  0  0
   -1.1480    1.5360    0.1660 C   0  0  0  0  0  0  0  0  0  0  0  0
   -0.5550    2.6160    0.2570 O   0  0  0  0  0  0  0  0  0  0  0  0
   -0.5690    0.2880   -0.0170 N   0  0  0  0  0  0  0  0  0  0  0  0
    0.8400    0.0620   -0.1310 C   0  0  0  0  0  0  0  0  0  0  0  0
    1.6840    1.0400   -0.0680 C   0  0  0  0  0  0  0  0  0  0  0  0
    3.1430    1.0280   -0.1600 C   0  0  0  0  0  0  0  0  0  0  0  0
    3.8260    2.1660   -0.0680 N   0  0  0  0  0  0  0  0  0  0  0  0
    5.2090    1.9290   -0.1820 C   0  0  0  0  0  0  0  0  0  0  0  0
    6.1440    2.6790    0.1240 O   0  0  0  0  0  0  0  0  0  0  0  0
    5.3050    0.5580   -0.7610 C   0  0  1  0  0  0  0  0  0  0  0  0
    6.4860   -0.1870   -0.1950 C   0  0  1  0  0  0  0  0  0  0  0  0
    6.5550   -0.4210    1.2540 C   0  0  0  0  0  0  0  0  0  0  0  0
    6.3450   -1.5830    0.2890 C   0  0  0  0  0  0  0  0  0  0  0  0
    4.0670    0.0350   -0.3340 O   0  0  0  0  0  0  0  0  0  0  0  0
    1.2020   -1.3290   -0.3180 C   0  0  0  0  0  0  0  0  0  0  0  0
    2.4450   -1.9200   -0.4640 N   0  0  0  0  0  0  0  0  0  0  0  0
    0.1970   -2.1700   -0.3550 O   0  0  0  0  0  0  0  0  0  0  0  0
  1  2  2  0
  2  3  1  0
  2  8  1  0
  3  4  1  0
  4  5  2  0
  5  6  1  0
  5  7  1  0
  7  8  2  0
  8  9  1  0
  9 10  1  0
 10 11  1  0
 11 12  2  0
 11 13  1  0
 13 14  1  0
 14 15  2  3
 14 25  1  0
 15 16  1  0
 16 17  2  0
 16 24  1  0
 17 18  1  0
 18 19  2  0
 18 20  1  0
 20 21  1  0
 20 24  1  1
 21 22  1  1
 21 23  1  0
 22 23  1  0
 25 26  1  0
 25 27  2  0
M  END
