
     RDKit          3D

 27 29  0  0  0  0  0  0  0  0999 V2000
   -7.7630   -0.6420   -3.2550 C   0  0  0  0  0  0  0  0  0  0  0  0
   -6.5090   -0.3520   -2.6850 O   0  0  0  0  0  0  0  0  0  0  0  0
   -5.3520   -0.1420   -3.3900 C   0  0  0  0  0  0  0  0  0  0  0  0
   -5.4760   -0.2260   -4.6660 O   0  0  0  0  0  0  0  0  0  0  0  0
   -4.0470    0.1580   -2.8340 C   0  0  0  0  0  0  0  0  0  0  0  0
   -3.9100    0.2470   -1.5260 C   0  0  0  0  0  0  0  0  0  0  0  0
   -5.0260    0.0570   -0.5850 C   0  0  0  0  0  0  0  0  0  0  0  0
   -4.6970    0.2650    0.7640 O   0  0  0  0  0  0  0  0  0  0  0  0
   -3.4570    0.5470    1.2720 C   0  0  0  0  0  0  0  0  0  0  0  0
   -3.2250    0.6860    2.5110 O   0  0  0  0  0  0  0  0  0  0  0  0
   -2.3560    0.6960    0.3640 C   0  0  0  0  0  0  0  0  0  0  0  0
   -2.5810    0.5500   -0.9810 C   0  0  0  0  0  0  0  0  0  0  0  0
   -1.4260    0.7280   -1.6470 N   0  0  0  0  0  0  0  0  0  0  0  0
   -0.4400    0.9930   -0.7250 C   0  0  0  0  0  0  0  0  0  0  0  0
    0.9590    1.2730   -1.1240 C   0  0  0  0  0  0  0  0  0  0  0  0
   -0.9760    0.9790    0.5150 C   0  0  0  0  0  0  0  0  0  0  0  0
   -0.3900    1.2290    1.8320 C   0  0  0  0  0  0  0  0  0  0  0  0
    1.0030    1.4330    1.8890 N   0  0  0  0  0  0  0  0  0  0  0  0
    1.9360    0.3870    1.6110 C   0  0  0  0  0  0  0  0  0  0  0  0
    1.5440   -0.7530    1.3130 O   0  0  0  0  0  0  0  0  0  0  0  0
    3.3320    0.6180    1.6670 N   0  0  0  0  0  0  0  0  0  0  0  0
    4.3390   -0.3430    1.4120 C   0  0  1  0  0  0  0  0  0  0  0  0
    5.2670    0.0050    0.2750 C   0  0  0  0  0  0  0  0  0  0  0  0
    6.5290   -0.4390    0.6140 O   0  0  0  0  0  0  0  0  0  0  0  0
    6.3800   -1.3400    1.6740 C   0  0  1  0  0  0  0  0  0  0  0  0
    7.6000   -1.4980    2.4200 N   0  0  0  0  0  0  0  0  0  0  0  0
    5.3200   -0.5960    2.5080 C   0  0  0  0  0  0  0  0  0  0  0  0
  1  2  1  0
  2  3  1  0
  3  4  2  0
  3  5  1  0
  5  6  2  3
  6  7  1  0
  6 12  1  0
  7  8  1  0
  8  9  1  0
  9 10  2  0
  9 11  1  0
 11 12  2  0
 11 16  1  0
 12 13  1  0
 13 14  1  0
 14 15  1  0
 14 16  2  0
 16 17  1  0
 17 18  1  0
 18 19  1  0
 19 20  2  0
 19 21  1  0
 22 21  1  1
 22 23  1  0
 22 27  1  0
 23 24  1  0
 24 25  1  0
 25 26  1  1
 25 27  1  0
M  END
