
     RDKit          3D

 27 28  0  0  0  0  0  0  0  0999 V2000
    5.0320    2.2890   -0.3700 C   0  0  0  0  0  0  0  0  0  0  0  0
    3.8090    2.4540    0.3670 O   0  0  0  0  0  0  0  0  0  0  0  0
    2.8260    1.4300   -0.0820 C   0  0  0  0  0  0  0  0  0  0  0  0
    1.8940    2.0260   -0.7530 C   0  0  0  0  0  0  0  0  0  0  0  0
    0.6890    1.4810   -1.4140 C   0  0  0  0  0  0  0  0  0  0  0  0
   -0.3220    1.0490   -0.3630 C   0  0  1  0  0  0  0  0  0  0  0  0
   -0.5290    2.1820    0.5630 N   0  0  0  0  0  0  0  0  0  0  0  0
   -1.5280    0.7810   -0.9760 O   0  0  0  0  0  0  0  0  0  0  0  0
   -2.6000    0.1250   -0.4810 C   0  0  0  0  0  0  0  0  0  0  0  0
   -3.8380    0.6120   -0.5020 C   0  0  0  0  0  0  0  0  0  0  0  0
   -4.1610    1.9080   -1.0680 C   0  0  0  0  0  0  0  0  0  0  0  0
   -5.3050    2.3740   -1.0960 O   0  0  0  0  0  0  0  0  0  0  0  0
   -4.9480   -0.1940    0.0800 C   0  0  0  0  0  0  0  0  0  0  0  0
   -4.5790   -0.7450    1.4390 C   0  0  0  0  0  0  0  0  0  0  0  0
   -3.1560   -1.1690    1.5420 C   0  0  0  0  0  0  0  0  0  0  0  0
   -2.4850   -1.2070    0.1350 C   0  0  2  0  0  0  0  0  0  0  0  0
   -1.2070   -1.7730    0.3020 N   0  0  0  0  0  0  0  0  0  0  0  0
   -0.2870   -2.4210   -0.5600 C   0  0  0  0  0  0  0  0  0  0  0  0
   -0.3650   -3.7610   -0.5410 O   0  0  0  0  0  0  0  0  0  0  0  0
    0.7350   -1.9530   -1.4700 C   0  0  0  0  0  0  0  0  0  0  0  0
    0.3270   -1.8930   -2.7200 O   0  0  0  0  0  0  0  0  0  0  0  0
    2.0990   -1.5590   -1.2260 N   0  0  0  0  0  0  0  0  0  0  0  0
    2.8630   -1.1440   -0.1130 C   0  0  0  0  0  0  0  0  0  0  0  0
    3.6440   -2.2340    0.6300 C   0  0  0  0  0  0  0  0  0  0  0  0
    4.3910   -1.8680    1.7660 N   0  0  0  0  0  0  0  0  0  0  0  0
    3.6320   -3.4170    0.2590 O   0  0  0  0  0  0  0  0  0  0  0  0
    3.1230    0.0870    0.3110 C   0  0  0  0  0  0  0  0  0  0  0  0
  1  2  1  0
  2  3  1  0
  3  4  2  0
  3 27  1  0
  4  5  1  0
  5  6  1  0
  6  7  1  1
  6  8  1  0
  8  9  1  0
  9 10  2  0
  9 16  1  0
 10 11  1  0
 10 13  1  0
 11 12  2  0
 13 14  1  0
 14 15  1  0
 16 15  1  1
 16 17  1  0
 17 18  1  0
 18 19  2  0
 18 20  1  0
 20 21  2  0
 20 22  1  0
 22 23  1  0
 23 24  1  0
 23 27  2  0
 24 25  1  0
 24 26  2  0
M  END
