
     RDKit          3D

 16 17  0  0  0  0  0  0  0  0999 V2000
    5.5330    1.1910   -0.0550 O   0  0  0  0  0  0  0  0  0  0  0  0
    4.3960    0.7900   -0.4230 C   0  0  0  0  0  0  0  0  0  0  0  0
    3.7650    1.5100   -1.4090 O   0  0  0  0  0  0  0  0  0  0  0  0
    3.8680   -0.4130    0.2500 C   0  0  0  0  0  0  0  0  0  0  0  0
    2.5120   -0.8350   -0.2010 C   0  0  0  0  0  0  0  0  0  0  0  0
    1.4390    0.1780    0.0070 C   0  0  0  0  0  0  0  0  0  0  0  0
    0.1060   -0.3760   -0.4920 C   0  0  0  0  0  0  0  0  0  0  0  0
   -0.9230    0.6830   -0.2560 C   0  0  2  0  0  0  0  0  0  0  0  0
   -1.0400    1.0900    1.5230 S   0  0  0  0  0  0  0  0  0  0  0  0
   -2.8740    1.1960    1.5530 C   0  0  0  0  0  0  0  0  0  0  0  0
   -3.2160    0.2520    0.4650 C   0  0  2  0  0  0  0  0  0  0  0  0
   -3.2130   -1.1390    0.8370 N   0  0  0  0  0  0  0  0  0  0  0  0
   -3.0030   -1.8520   -0.3980 C   0  0  0  0  0  0  0  0  0  0  0  0
   -3.2950   -3.0660   -0.5930 O   0  0  0  0  0  0  0  0  0  0  0  0
   -2.4210   -0.9370   -1.3170 N   0  0  0  0  0  0  0  0  0  0  0  0
   -2.2930    0.3560   -0.6720 C   0  0  2  0  0  0  0  0  0  0  0  0
  1  2  2  0
  2  3  1  0
  2  4  1  0
  4  5  1  0
  5  6  1  0
  6  7  1  0
  8  7  1  1
  8  9  1  0
  8 16  1  0
  9 10  1  0
 11 10  1  1
 11 12  1  0
 11 16  1  0
 12 13  1  0
 13 14  2  0
 13 15  1  0
 16 15  1  1
M  END
