
     RDKit          3D

 27 29  0  0  0  0  0  0  0  0999 V2000
    6.7590    0.7140   -1.4140 C   0  0  0  0  0  0  0  0  0  0  0  0
    6.3240   -0.6270   -0.9670 O   0  0  0  0  0  0  0  0  0  0  0  0
    5.0420   -0.5310   -0.3840 C   0  0  0  0  0  0  0  0  0  0  0  0
    4.9780    0.0320    0.8330 C   0  0  0  0  0  0  0  0  0  0  0  0
    3.6930    0.1600    1.4700 C   0  0  0  0  0  0  0  0  0  0  0  0
    2.5680   -0.2540    0.8780 C   0  0  0  0  0  0  0  0  0  0  0  0
    1.3640   -0.0390    1.6600 C   0  0  0  0  0  0  0  0  0  0  0  0
    1.0370    0.3580    2.6740 O   0  0  0  0  0  0  0  0  0  0  0  0
    0.0150   -0.5680    0.6580 N   0  0  0  0  0  0  0  0  0  0  0  0
   -1.0300   -0.2010    1.5380 C   0  0  0  0  0  0  0  0  0  0  0  0
   -1.0610    0.3360    2.5940 O   0  0  0  0  0  0  0  0  0  0  0  0
   -2.3170   -0.6020    0.9300 N   0  0  0  0  0  0  0  0  0  0  0  0
   -3.5940   -0.3640    1.4340 C   0  0  2  0  0  0  0  0  0  0  0  0
   -4.7680   -0.6260    0.5490 C   0  0  0  0  0  0  0  0  0  0  0  0
   -4.4330    0.7590    0.8740 C   0  0  1  0  0  0  0  0  0  0  0  0
   -5.1610    1.6380    1.8350 C   0  0  1  0  0  0  0  0  0  0  0  0
   -5.9060    2.7280    1.0680 C   0  0  0  0  0  0  0  0  0  0  0  0
   -7.3050    2.1780    1.0900 C   0  0  0  0  0  0  0  0  0  0  0  0
   -7.3760    1.6990    2.4010 O   0  0  0  0  0  0  0  0  0  0  0  0
   -6.2330    0.9490    2.6310 C   0  0  0  0  0  0  0  0  0  0  0  0
    2.6190   -0.8300   -0.3610 O   0  0  0  0  0  0  0  0  0  0  0  0
    3.8660   -1.0020   -1.0530 C   0  0  0  0  0  0  0  0  0  0  0  0
    3.8050   -1.5790   -2.2250 C   0  0  0  0  0  0  0  0  0  0  0  0
    4.3890   -2.0370   -3.3130 N   0  0  0  0  0  0  0  0  0  0  0  0
    5.6720   -2.1830   -3.9460 C   0  0  0  0  0  0  0  0  0  0  0  0
    5.8140   -2.8030   -5.2190 N   0  0  0  0  0  0  0  0  0  0  0  0
    6.6260   -1.7430   -3.3190 O   0  0  0  0  0  0  0  0  0  0  0  0
  1  2  1  0
  2  3  1  0
  3  4  2  0
  3 22  1  0
  4  5  1  0
  5  6  2  0
  6  7  1  0
  6 21  1  0
  7  8  2  0
  7  9  1  0
  9 10  1  0
 10 11  2  0
 10 12  1  0
 13 12  1  6
 13 14  1  0
 13 15  1  0
 15 14  1  6
 15 16  1  0
 16 17  1  6
 16 20  1  0
 17 18  1  0
 18 19  1  0
 19 20  1  0
 21 22  1  0
 22 23  2  3
 23 24  1  0
 24 25  1  0
 25 26  1  0
 25 27  2  0
M  END
