
     RDKit          3D

 27 29  0  0  0  0  0  0  0  0999 V2000
    5.5160    0.6640   -0.1460 C   0  0  0  0  0  0  0  0  0  0  0  0
    4.5120    1.0480   -1.1840 C   0  0  0  0  0  0  0  0  0  0  0  0
    3.2150    0.3370   -1.1690 C   0  0  0  0  0  0  0  0  0  0  0  0
    2.3650    0.4450    0.0280 C   0  0  2  0  0  0  0  0  0  0  0  0
    1.9670    1.8350    0.3940 C   0  0  0  0  0  0  0  0  0  0  0  0
    2.8250   -0.2620    1.2150 N   0  0  0  0  0  0  0  0  0  0  0  0
    1.6060   -0.5590    1.9760 C   0  0  0  0  0  0  0  0  0  0  0  0
    1.6210   -0.6890    3.2170 O   0  0  0  0  0  0  0  0  0  0  0  0
    0.5040   -0.6510    1.0780 N   0  0  0  0  0  0  0  0  0  0  0  0
   -0.8160   -1.1390    1.3360 C   0  0  0  0  0  0  0  0  0  0  0  0
   -1.8860   -0.7260    0.6820 C   0  0  0  0  0  0  0  0  0  0  0  0
   -1.5870    0.2940   -0.2580 N   0  0  0  0  0  0  0  0  0  0  0  0
   -2.3860    0.7520   -1.3300 C   0  0  0  0  0  0  0  0  0  0  0  0
   -1.8250    1.3130   -2.5160 C   0  0  0  0  0  0  0  0  0  0  0  0
   -2.5900    1.7000   -3.4480 O   0  0  0  0  0  0  0  0  0  0  0  0
   -0.4790    1.4770   -2.7360 O   0  0  0  0  0  0  0  0  0  0  0  0
   -3.7320    0.7620   -1.3300 C   0  0  0  0  0  0  0  0  0  0  0  0
   -4.5850    0.2880   -0.1850 C   0  0  0  0  0  0  0  0  0  0  0  0
   -4.3170   -1.1400    0.1080 C   0  0  0  0  0  0  0  0  0  0  0  0
   -3.1290   -1.5100    0.8770 C   0  0  2  0  0  0  0  0  0  0  0  0
   -3.3550   -1.8710    2.2660 C   0  0  0  0  0  0  0  0  0  0  0  0
   -4.4920   -1.7390    2.8380 O   0  0  0  0  0  0  0  0  0  0  0  0
   -2.2560   -2.3860    2.9950 N   0  0  0  0  0  0  0  0  0  0  0  0
   -0.9690   -2.0110    2.5290 C   0  0  0  0  0  0  0  0  0  0  0  0
    0.0270   -2.4450    3.1520 O   0  0  0  0  0  0  0  0  0  0  0  0
    1.1250   -0.4040   -0.2130 C   0  0  0  0  0  0  0  0  0  0  0  0
    0.7410   -0.8040   -1.2990 O   0  0  0  0  0  0  0  0  0  0  0  0
  1  2  1  0
  2  3  1  0
  3  4  1  0
  4  5  1  1
  4  6  1  0
  4 26  1  0
  6  7  1  0
  7  8  2  0
  7  9  1  0
  9 10  1  0
  9 26  1  0
 10 11  2  0
 10 24  1  0
 11 12  1  0
 11 20  1  0
 12 13  1  0
 13 14  1  0
 13 17  2  0
 14 15  2  0
 14 16  1  0
 17 18  1  0
 18 19  1  0
 20 19  1  1
 20 21  1  0
 21 22  2  0
 21 23  1  0
 23 24  1  0
 24 25  2  0
 26 27  2  0
M  END
