
     RDKit          3D

 27 28  0  0  0  0  0  0  0  0999 V2000
    5.6260    1.4830    0.5500 C   0  0  0  0  0  0  0  0  0  0  0  0
    6.0130    0.2360    0.6950 C   0  0  0  0  0  0  0  0  0  0  0  0
    7.3570   -0.0220    1.1810 C   0  0  0  0  0  0  0  0  0  0  0  0
    8.2090    0.8650    1.4850 N   0  0  0  0  0  0  0  0  0  0  0  0
    5.1010   -0.9150    0.3800 C   0  0  1  0  0  0  0  0  0  0  0  0
    4.9270   -1.6140    1.5820 O   0  0  0  0  0  0  0  0  0  0  0  0
    3.8200   -0.3750   -0.1490 C   0  0  2  0  0  0  0  0  0  0  0  0
    2.7500   -1.4660   -0.2810 C   0  0  0  0  0  0  0  0  0  0  0  0
    1.5590   -0.7720   -0.7400 N   0  0  0  0  0  0  0  0  0  0  0  0
    0.3190   -0.8580   -0.0590 C   0  0  0  0  0  0  0  0  0  0  0  0
    0.2320   -1.5470    0.9670 O   0  0  0  0  0  0  0  0  0  0  0  0
   -0.8180   -0.1350   -0.5840 C   0  0  0  0  0  0  0  0  0  0  0  0
   -0.8010    0.5730   -1.6060 O   0  0  0  0  0  0  0  0  0  0  0  0
   -2.0730   -0.2220    0.1060 N   0  0  0  0  0  0  0  0  0  0  0  0
   -3.2380    0.4970   -0.4010 C   0  0  1  0  0  0  0  0  0  0  0  0
   -4.2620   -0.4770   -0.7970 C   0  0  0  0  0  0  0  0  0  0  0  0
   -5.4840   -0.4820   -0.3330 C   0  0  0  0  0  0  0  0  0  0  0  0
   -6.3970   -1.4800   -0.7910 N   0  0  0  0  0  0  0  0  0  0  0  0
   -5.9890    0.4790    0.6390 C   0  0  0  0  0  0  0  0  0  0  0  0
   -7.2930    0.4450    1.1120 O   0  0  0  0  0  0  0  0  0  0  0  0
   -8.2330    1.3210    0.5180 C   0  0  0  0  0  0  0  0  0  0  0  0
   -5.1230    1.3910    1.0460 C   0  0  0  0  0  0  0  0  0  0  0  0
   -3.7560    1.4580    0.5760 C   0  0  0  0  0  0  0  0  0  0  0  0
   -3.0270    2.3940    1.0550 O   0  0  0  0  0  0  0  0  0  0  0  0
    1.7070    0.0210   -1.9450 C   0  0  0  0  0  0  0  0  0  0  0  0
    3.1650   -0.1010   -2.3670 C   0  0  0  0  0  0  0  0  0  0  0  0
    3.9770    0.2850   -1.3340 O   0  0  0  0  0  0  0  0  0  0  0  0
  1  2  2  0
  2  3  1  0
  2  5  1  0
  3  4  2  0
  5  6  1  1
  5  7  1  0
  7  8  1  6
  7 27  1  0
  8  9  1  0
  9 10  1  0
  9 25  1  0
 10 11  2  0
 10 12  1  0
 12 13  2  0
 12 14  1  0
 15 14  1  1
 15 16  1  0
 15 23  1  0
 16 17  2  0
 17 18  1  0
 17 19  1  0
 19 20  1  0
 19 22  2  0
 20 21  1  0
 22 23  1  0
 23 24  2  0
 25 26  1  0
 26 27  1  0
M  END
