
     RDKit          3D

 22 24  0  0  0  0  0  0  0  0999 V2000
   -0.9200    0.3130   -3.5500 C   0  0  0  0  0  0  0  0  0  0  0  0
   -0.3490    0.0030   -2.2090 C   0  0  0  0  0  0  0  0  0  0  0  0
    0.8760   -0.5830   -2.1420 C   0  0  0  0  0  0  0  0  0  0  0  0
    1.4740   -0.9060   -0.9310 C   0  0  0  0  0  0  0  0  0  0  0  0
    0.7610   -0.6010    0.2100 C   0  0  0  0  0  0  0  0  0  0  0  0
   -0.4690   -0.0110    0.1620 C   0  0  0  0  0  0  0  0  0  0  0  0
   -1.0560    0.3040   -1.0280 C   0  0  0  0  0  0  0  0  0  0  0  0
   -2.3590    0.8670   -1.2320 C   0  0  0  0  0  0  0  0  0  0  0  0
   -2.7280    1.5680   -2.3490 N   0  0  0  0  0  0  0  0  0  0  0  0
   -3.9720    1.9240   -2.2850 N   0  0  0  0  0  0  0  0  0  0  0  0
   -4.4660    1.4780   -1.1430 C   0  0  0  0  0  0  0  0  0  0  0  0
   -3.4570    0.8120   -0.4780 N   0  0  0  0  0  0  0  0  0  0  0  0
   -3.7450    0.1860    0.7910 C   0  0  1  0  0  0  0  0  0  0  0  0
   -3.2620   -1.2280    0.9270 C   0  0  0  0  0  0  0  0  0  0  0  0
   -3.4090    1.0990    1.9330 C   0  0  0  0  0  0  0  0  0  0  0  0
    1.3790   -0.9360    1.5270 C   0  0  0  0  0  0  0  0  0  0  0  0
    2.8010   -0.7440    1.3930 N   0  0  0  0  0  0  0  0  0  0  0  0
    3.1170    0.6120    1.0980 C   0  0  0  0  0  0  0  0  0  0  0  0
    4.6090    0.8000    0.9600 C   0  0  0  0  0  0  0  0  0  0  0  0
    4.9260    2.1250    0.6710 O   0  0  0  0  0  0  0  0  0  0  0  0
    3.3230   -1.6990    0.4700 C   0  0  0  0  0  0  0  0  0  0  0  0
    2.7990   -1.5390   -0.9360 C   0  0  0  0  0  0  0  0  0  0  0  0
  1  2  1  0
  2  3  2  0
  2  7  1  0
  3  4  1  0
  4  5  2  0
  4 22  1  0
  5  6  1  0
  5 16  1  0
  6  7  2  0
  7  8  1  0
  8  9  2  0
  8 12  1  0
  9 10  1  0
 10 11  2  0
 11 12  1  0
 12 13  1  0
 13 14  1  1
 13 15  1  0
 16 17  1  0
 17 18  1  0
 17 21  1  0
 18 19  1  0
 19 20  1  0
 21 22  1  0
M  END
