
     RDKit          3D

 22 24  0  0  0  0  0  0  0  0999 V2000
   -4.3710   -2.7500   -0.9020 C   0  0  0  0  0  0  0  0  0  0  0  0
   -4.0640   -1.4050   -0.3730 C   0  0  0  0  0  0  0  0  0  0  0  0
   -4.9250   -0.3700   -0.6370 C   0  0  0  0  0  0  0  0  0  0  0  0
   -4.6060    0.8700   -0.1280 C   0  0  0  0  0  0  0  0  0  0  0  0
   -5.5580    2.0000   -0.4240 C   0  0  0  0  0  0  0  0  0  0  0  0
   -3.4680    1.0760    0.6220 C   0  0  0  0  0  0  0  0  0  0  0  0
   -2.6030    0.0410    0.8890 C   0  0  0  0  0  0  0  0  0  0  0  0
   -1.3760    0.1360    1.6640 C   0  0  0  0  0  0  0  0  0  0  0  0
   -0.1930    0.4490    0.9240 N   0  0  0  0  0  0  0  0  0  0  0  0
    0.9140    0.4990    1.8620 C   0  0  0  0  0  0  0  0  0  0  0  0
    2.1950    0.8200    1.1800 C   0  0  0  0  0  0  0  0  0  0  0  0
    2.7650    1.9970    0.9420 N   0  0  0  0  0  0  0  0  0  0  0  0
    3.9250    1.7920    0.2920 C   0  0  0  0  0  0  0  0  0  0  0  0
    4.0520    0.4290    0.1360 C   0  0  0  0  0  0  0  0  0  0  0  0
    5.1600   -0.2960   -0.5190 C   0  0  0  0  0  0  0  0  0  0  0  0
    6.2000    0.4250   -1.0440 C   0  0  0  0  0  0  0  0  0  0  0  0
    7.2410   -0.2620   -1.6590 C   0  0  0  0  0  0  0  0  0  0  0  0
    7.2080   -1.5920   -1.7260 N   0  0  0  0  0  0  0  0  0  0  0  0
    6.1980   -2.2780   -1.2150 N   0  0  0  0  0  0  0  0  0  0  0  0
    5.1580   -1.6590   -0.6050 C   0  0  0  0  0  0  0  0  0  0  0  0
    2.9850   -0.0960    0.6880 O   0  0  0  0  0  0  0  0  0  0  0  0
   -2.9340   -1.1970    0.3720 C   0  0  0  0  0  0  0  0  0  0  0  0
  1  2  1  0
  2  3  2  0
  2 22  1  0
  3  4  1  0
  4  5  1  0
  4  6  2  0
  6  7  1  0
  7  8  1  0
  7 22  2  0
  8  9  1  0
  9 10  1  0
 10 11  1  0
 11 12  2  0
 11 21  1  0
 12 13  1  0
 13 14  2  0
 14 15  1  0
 14 21  1  0
 15 16  2  0
 15 20  1  0
 16 17  1  0
 17 18  2  0
 18 19  1  0
 19 20  2  0
M  END
