
     RDKit          3D

 13 13  0  0  0  0  0  0  0  0999 V2000
   -4.0880    0.2730   -0.3500 C   0  0  0  0  0  0  0  0  0  0  0  0
   -3.1580    0.5660    1.1480 S   0  0  0  0  0  0  0  0  0  0  0  0
   -1.6160   -0.3090    1.2860 C   0  0  0  0  0  0  0  0  0  0  0  0
   -0.5420    0.1240    0.3190 C   0  0  2  0  0  0  0  0  0  0  0  0
   -0.3170    1.4840    0.5820 O   0  0  0  0  0  0  0  0  0  0  0  0
   -1.0250   -0.0480   -1.0740 C   0  0  0  0  0  0  0  0  0  0  0  0
    0.1870   -0.8280   -2.1810 S   0  0  0  0  0  0  0  0  0  0  0  0
    1.1420   -1.9740   -1.3340 O   0  0  0  0  0  0  0  0  0  0  0  0
    2.3300   -1.2820   -0.9950 C   0  0  0  0  0  0  0  0  0  0  0  0
    1.8390   -0.1320   -0.2140 N   0  0  2  0  0  0  0  0  0  0  0  0
    2.8880    0.4710    0.5530 C   0  0  0  0  0  0  0  0  0  0  0  0
    2.7180    2.2700    0.4510 S   0  0  0  0  0  0  0  0  0  0  0  0
    0.7510   -0.6240    0.5990 C   0  0  0  0  0  0  0  0  0  0  0  0
  1  2  1  0
  2  3  1  0
  3  4  1  0
  4  5  1  1
  4  6  1  0
  4 13  1  0
  6  7  1  0
  7  8  1  0
  8  9  1  0
  9 10  1  0
 10 11  1  1
 10 13  1  0
 11 12  1  0
M  CHG  1  10   1
M  END
