
     RDKit          3D

 13 14  0  0  0  0  0  0  0  0999 V2000
    3.5920    0.7950    0.1230 C   0  0  0  0  0  0  0  0  0  0  0  0
    3.1910   -0.5170    0.1050 O   0  0  0  0  0  0  0  0  0  0  0  0
    2.0760   -0.8140    0.8440 C   0  0  0  0  0  0  0  0  0  0  0  0
    0.8870   -0.0410    0.3630 C   0  0  1  0  0  0  0  0  0  0  0  0
    0.5340   -0.3070   -1.0620 C   0  0  0  0  0  0  0  0  0  0  0  0
   -0.6880   -1.0580   -1.2440 N   0  0  0  0  0  0  0  0  0  0  0  0
   -1.8400   -0.2440   -0.8940 C   0  0  0  0  0  0  0  0  0  0  0  0
   -1.9880    0.1890    0.3320 C   0  0  0  0  0  0  0  0  0  0  0  0
   -3.1170    1.0090    0.7370 C   0  0  0  0  0  0  0  0  0  0  0  0
   -4.5030    0.4900   -0.2950 S   0  0  0  0  0  0  0  0  0  0  0  0
   -4.8480   -0.9380    0.1360 O   0  0  0  0  0  0  0  0  0  0  0  0
   -3.1770    0.2420   -1.9920 S   0  0  0  0  0  0  0  0  0  0  0  0
   -0.5810   -0.3880    1.4150 S   0  0  0  0  0  0  0  0  0  0  0  0
  1  2  1  0
  2  3  1  0
  4  3  1  1
  4  5  1  0
  4 13  1  0
  5  6  1  0
  6  7  1  0
  7  8  2  0
  7 12  1  0
  8  9  1  0
  8 13  1  0
 10  9  1  1
 10 11  2  0
 10 12  1  0
M  CHG  1   6   1
M  END
