
     RDKit          3D

 13 14  0  0  0  0  0  0  0  0999 V2000
    3.1910   -1.6810   -0.4520 C   0  0  0  0  0  0  0  0  0  0  0  0
    2.0600   -0.8480    0.0720 C   0  0  0  0  0  0  0  0  0  0  0  0
    1.1220   -0.3000   -0.5710 N   0  0  0  0  0  0  0  0  0  0  0  0
    0.1590    0.4390    0.0890 C   0  0  1  0  0  0  0  0  0  0  0  0
    0.0770    0.1430    1.5410 C   0  0  0  0  0  0  0  0  0  0  0  0
    1.8010   -0.4520    1.8010 S   0  0  0  0  0  0  0  0  0  0  0  0
    0.3180    2.2330   -0.0960 S   0  0  0  0  0  0  0  0  0  0  0  0
   -1.1700    2.9930    0.6120 C   0  0  0  0  0  0  0  0  0  0  0  0
   -1.9210    2.0940    1.3540 O   0  0  0  0  0  0  0  0  0  0  0  0
   -2.5460    0.8370    0.3900 S   0  0  0  0  0  0  0  0  0  0  0  0
   -1.2060    0.0850   -0.5260 C   0  0  2  0  0  0  0  0  0  0  0  0
   -1.3450   -1.4170   -0.6600 C   0  0  0  0  0  0  0  0  0  0  0  0
   -2.5930   -1.6610   -1.2190 O   0  0  0  0  0  0  0  0  0  0  0  0
  1  2  1  0
  2  3  2  0
  2  6  1  0
  3  4  1  0
  4  5  1  1
  4  7  1  0
  4 11  1  0
  5  6  1  0
  7  8  1  0
  8  9  1  0
  9 10  1  0
 10 11  1  0
 11 12  1  1
 12 13  1  0
M  CHG  1   3   1
M  END
