
     RDKit          3D

 13 14  0  0  0  0  0  0  0  0999 V2000
    3.6320   -0.3290   -0.4290 C   0  0  0  0  0  0  0  0  0  0  0  0
    2.5080   -0.2220    0.9810 S   0  0  0  0  0  0  0  0  0  0  0  0
    0.7890   -0.4170    0.5240 C   0  0  2  0  0  0  0  0  0  0  0  0
    0.4880   -1.8240    0.0040 C   0  0  0  0  0  0  0  0  0  0  0  0
   -1.3400   -1.9600   -0.0030 S   0  0  0  0  0  0  0  0  0  0  0  0
   -1.9460   -0.3480   -0.6370 C   0  0  1  0  0  0  0  0  0  0  0  0
   -3.6550   -0.0940   -0.1470 S   0  0  0  0  0  0  0  0  0  0  0  0
   -1.0880    0.7580   -0.1020 C   0  0  2  0  0  0  0  0  0  0  0  0
   -1.6420    2.0720   -0.5490 C   0  0  0  0  0  0  0  0  0  0  0  0
    0.3110    0.5900   -0.3990 N   0  0  0  0  0  0  0  0  0  0  0  0
   -1.0800    0.6850    1.3250 O   0  0  0  0  0  0  0  0  0  0  0  0
   -0.0540   -0.1670    1.7100 C   0  0  0  0  0  0  0  0  0  0  0  0
    0.1280   -0.6390    2.8510 O   0  0  0  0  0  0  0  0  0  0  0  0
  1  2  1  0
  3  2  1  1
  3  4  1  0
  3 10  1  0
  3 12  1  0
  4  5  1  0
  5  6  1  0
  6  7  1  1
  6  8  1  0
  8  9  1  1
  8 10  1  0
  8 11  1  0
 11 12  1  0
 12 13  2  0
M  CHG  1  10   1
M  END
