
     RDKit          3D

 23 26  0  0  0  0  0  0  0  0999 V2000
   -7.0670    1.3100    0.0430 C   0  0  0  0  0  0  0  0  0  0  0  0
   -5.9230    0.8780    0.8650 C   0  0  0  0  0  0  0  0  0  0  0  0
   -6.0570    0.7100    2.0930 O   0  0  0  0  0  0  0  0  0  0  0  0
   -4.6130    0.6410    0.2470 C   0  0  0  0  0  0  0  0  0  0  0  0
   -4.4390    0.8200   -1.1090 C   0  0  0  0  0  0  0  0  0  0  0  0
   -3.1880    0.5820   -1.6290 C   0  0  0  0  0  0  0  0  0  0  0  0
   -2.1250    0.1740   -0.8260 C   0  0  0  0  0  0  0  0  0  0  0  0
   -2.2910   -0.0070    0.5290 C   0  0  0  0  0  0  0  0  0  0  0  0
   -1.2260   -0.4310    1.4300 C   0  0  0  0  0  0  0  0  0  0  0  0
   -1.3570   -0.6220    2.7920 C   0  0  0  0  0  0  0  0  0  0  0  0
   -0.1680   -1.0140    3.3020 N   0  0  0  0  0  0  0  0  0  0  0  0
    0.7130   -1.0750    2.2910 C   0  0  0  0  0  0  0  0  0  0  0  0
    2.0450   -1.4200    2.2910 C   0  0  0  0  0  0  0  0  0  0  0  0
    2.7130   -1.3940    1.0860 C   0  0  0  0  0  0  0  0  0  0  0  0
    2.0180   -1.0260   -0.0510 C   0  0  0  0  0  0  0  0  0  0  0  0
    2.6870   -0.9780   -1.3070 N   0  0  0  0  0  0  0  0  0  0  0  0
    4.0720   -1.2370   -1.5260 C   0  0  0  0  0  0  0  0  0  0  0  0
    4.9760   -0.1710   -0.8960 C   0  0  1  0  0  0  0  0  0  0  0  0
    6.4640   -0.3790   -1.0800 C   0  0  0  0  0  0  0  0  0  0  0  0
    5.7510    0.6910   -1.8650 C   0  0  0  0  0  0  0  0  0  0  0  0
    0.7150   -0.6990    0.0120 N   0  0  0  0  0  0  0  0  0  0  0  0
    0.0620   -0.7200    1.1580 N   0  0  0  0  0  0  0  0  0  0  0  0
   -3.5510    0.2370    1.0280 C   0  0  0  0  0  0  0  0  0  0  0  0
  1  2  1  0
  2  3  2  0
  2  4  1  0
  4  5  2  0
  4 23  1  0
  5  6  1  0
  6  7  2  0
  7  8  1  0
  8  9  1  0
  8 23  2  0
  9 10  2  0
  9 22  1  0
 10 11  1  0
 11 12  2  0
 12 13  1  0
 12 22  1  0
 13 14  2  0
 14 15  1  0
 15 16  1  0
 15 21  2  0
 16 17  1  0
 18 17  1  6
 18 19  1  0
 18 20  1  0
 19 20  1  0
 21 22  1  0
M  END
