
     RDKit          3D

 13 14  0  0  0  0  0  0  0  0999 V2000
   -1.2380   -0.7520   -1.6380 O   0  0  0  0  0  0  0  0  0  0  0  0
   -1.3890   -0.1440   -0.4130 C   0  0  2  0  0  0  0  0  0  0  0  0
   -2.6380    0.6650   -0.4210 C   0  0  0  0  0  0  0  0  0  0  0  0
   -2.0580    2.1200   -1.3880 S   0  0  0  0  0  0  0  0  0  0  0  0
   -0.3340    2.0390   -0.7630 C   0  0  0  0  0  0  0  0  0  0  0  0
   -0.2240    0.7460   -0.0750 C   0  0  2  0  0  0  0  0  0  0  0  0
    1.0840    0.1160   -0.3770 C   0  0  0  0  0  0  0  0  0  0  0  0
    1.3430   -1.1090    0.3260 N   0  0  0  0  0  0  0  0  0  0  0  0
    2.7710   -1.4030    0.1460 C   0  0  0  0  0  0  0  0  0  0  0  0
    3.7000   -0.0990    1.0050 S   0  0  0  0  0  0  0  0  0  0  0  0
   -0.5230    0.8580    1.7380 S   0  0  0  0  0  0  0  0  0  0  0  0
   -1.6700   -0.5820    1.7910 C   0  0  0  0  0  0  0  0  0  0  0  0
   -1.4660   -1.1180    0.5520 O   0  0  0  0  0  0  0  0  0  0  0  0
  2  1  1  6
  2  3  1  0
  2  6  1  0
  2 13  1  0
  3  4  1  0
  4  5  1  0
  5  6  1  0
  6  7  1  1
  6 11  1  0
  7  8  1  0
  8  9  1  0
  9 10  1  0
 11 12  1  0
 12 13  1  0
M  CHG  1   8   1
M  END
