
     RDKit          3D

 13 14  0  0  0  0  0  0  0  0999 V2000
    3.5030    0.3710   -1.1160 C   0  0  0  0  0  0  0  0  0  0  0  0
    2.3720    0.3880   -0.2160 C   0  0  1  0  0  0  0  0  0  0  0  0
    1.1040    1.6260   -0.6070 S   0  0  0  0  0  0  0  0  0  0  0  0
    1.6920    3.0070   -0.7390 O   0  0  0  0  0  0  0  0  0  0  0  0
    0.0920    1.4680    0.8640 C   0  0  0  0  0  0  0  0  0  0  0  0
    0.0390   -0.2130    1.3030 S   0  0  0  0  0  0  0  0  0  0  0  0
    0.7100   -0.7220    2.6140 O   0  0  0  0  0  0  0  0  0  0  0  0
   -1.3610   -1.1080    0.7470 C   0  0  1  0  0  0  0  0  0  0  0  0
   -2.6420   -0.4200    0.6870 C   0  0  0  0  0  0  0  0  0  0  0  0
   -2.8900    0.6960   -0.1210 N   0  0  0  0  0  0  0  0  0  0  0  0
   -0.9470   -1.9120   -0.4230 C   0  0  0  0  0  0  0  0  0  0  0  0
    0.0270   -1.1800   -1.3000 C   0  0  0  0  0  0  0  0  0  0  0  0
    1.4130   -1.0360   -0.2220 S   0  0  1  0  0  0  0  0  0  0  0  0
  2  1  1  6
  2  3  1  0
  2 13  1  0
  3  4  2  0
  3  5  1  1
  5  6  1  0
  6  7  2  0
  6  8  1  0
  6 13  1  0
  8  9  1  6
  8 11  1  0
  9 10  1  0
 11 12  1  0
 13 12  1  6
M  CHG  1  10   1
M  END
