
     RDKit          3D

 18 21  0  0  0  0  0  0  0  0999 V2000
   -2.5490    2.2240   -0.3320 C   0  0  0  0  0  0  0  0  0  0  0  0
   -3.1050    0.9100   -0.1410 N   0  0  0  0  0  0  0  0  0  0  0  0
   -4.4200    0.5900   -0.1560 C   0  0  0  0  0  0  0  0  0  0  0  0
   -4.5170   -0.7180    0.0580 N   0  0  0  0  0  0  0  0  0  0  0  0
   -3.2720   -1.2340    0.2100 C   0  0  0  0  0  0  0  0  0  0  0  0
   -2.7840   -2.4910    0.4470 C   0  0  0  0  0  0  0  0  0  0  0  0
   -1.4410   -2.7180    0.5560 C   0  0  0  0  0  0  0  0  0  0  0  0
   -0.5400   -1.6560    0.4250 C   0  0  0  0  0  0  0  0  0  0  0  0
    0.8020   -1.5950    0.4850 N   0  0  0  0  0  0  0  0  0  0  0  0
    1.1660   -0.3170    0.2890 C   0  0  0  0  0  0  0  0  0  0  0  0
    2.5370    0.2270    0.2700 C   0  0  0  0  0  0  0  0  0  0  0  0
    3.6470   -0.4590    0.4440 C   0  0  0  0  0  0  0  0  0  0  0  0
    4.8220    0.4400    0.3540 C   0  0  0  0  0  0  0  0  0  0  0  0
    4.2190    1.7550    0.1020 C   0  0  0  0  0  0  0  0  0  0  0  0
    2.9040    1.6190    0.0560 C   0  0  0  0  0  0  0  0  0  0  0  0
    0.0490    0.4030    0.1100 N   0  0  0  0  0  0  0  0  0  0  0  0
   -1.0080   -0.3960    0.1890 C   0  0  0  0  0  0  0  0  0  0  0  0
   -2.3790   -0.2080    0.0850 C   0  0  0  0  0  0  0  0  0  0  0  0
  1  2  1  0
  2  3  1  0
  2 18  1  0
  3  4  2  0
  4  5  1  0
  5  6  2  0
  5 18  1  0
  6  7  1  0
  7  8  2  0
  8  9  1  0
  8 17  1  0
  9 10  1  0
 10 11  1  0
 10 16  2  0
 11 12  2  0
 11 15  1  0
 12 13  1  0
 13 14  1  0
 14 15  2  0
 16 17  1  0
 17 18  2  0
M  END
