
     RDKit          3D

 18 21  0  0  0  0  0  0  0  0999 V2000
    3.6500   -1.6650    0.5170 C   0  0  0  0  0  0  0  0  0  0  0  0
    3.6620   -0.2480    0.2690 N   0  0  0  0  0  0  0  0  0  0  0  0
    4.7900    0.5130    0.2610 C   0  0  0  0  0  0  0  0  0  0  0  0
    4.4010    1.8060   -0.0090 C   0  0  0  0  0  0  0  0  0  0  0  0
    3.0880    1.7760   -0.1500 N   0  0  0  0  0  0  0  0  0  0  0  0
    2.6040    0.5230    0.0160 C   0  0  0  0  0  0  0  0  0  0  0  0
    1.1950    0.1640   -0.0780 C   0  0  0  0  0  0  0  0  0  0  0  0
    0.1470    1.0540   -0.3510 C   0  0  0  0  0  0  0  0  0  0  0  0
   -1.0580    0.3840   -0.3670 C   0  0  0  0  0  0  0  0  0  0  0  0
   -0.7460   -0.9310   -0.1010 C   0  0  0  0  0  0  0  0  0  0  0  0
    0.6010   -1.0310    0.0660 N   0  0  0  0  0  0  0  0  0  0  0  0
   -1.9200   -1.5890   -0.1160 N   0  0  0  0  0  0  0  0  0  0  0  0
   -2.9370   -0.7720   -0.3730 C   0  0  0  0  0  0  0  0  0  0  0  0
   -4.3180   -0.9090   -0.5030 C   0  0  0  0  0  0  0  0  0  0  0  0
   -5.1360    0.1440   -0.7780 C   0  0  0  0  0  0  0  0  0  0  0  0
   -4.5980    1.4030   -0.9400 C   0  0  0  0  0  0  0  0  0  0  0  0
   -3.2360    1.5830   -0.8200 C   0  0  0  0  0  0  0  0  0  0  0  0
   -2.4360    0.4940   -0.5400 C   0  0  0  0  0  0  0  0  0  0  0  0
  1  2  1  0
  2  3  1  0
  2  6  1  0
  3  4  2  0
  4  5  1  0
  5  6  2  0
  6  7  1  0
  7  8  2  0
  7 11  1  0
  8  9  1  0
  9 10  2  0
  9 18  1  0
 10 11  1  0
 10 12  1  0
 12 13  1  0
 13 14  2  0
 13 18  1  0
 14 15  1  0
 15 16  2  0
 16 17  1  0
 17 18  2  0
M  END
