
     RDKit          3D

 18 21  0  0  0  0  0  0  0  0999 V2000
   -4.8700   -0.8250   -0.8020 C   0  0  0  0  0  0  0  0  0  0  0  0
   -3.4510   -0.6930   -0.4300 C   0  0  0  0  0  0  0  0  0  0  0  0
   -2.6110   -1.7220    0.0400 C   0  0  0  0  0  0  0  0  0  0  0  0
   -1.3740   -1.1440    0.2600 C   0  0  0  0  0  0  0  0  0  0  0  0
   -0.1000   -1.4620    0.6930 C   0  0  0  0  0  0  0  0  0  0  0  0
    0.8980   -0.4620    0.7510 C   0  0  0  0  0  0  0  0  0  0  0  0
    2.1740   -0.8350    1.2370 N   0  0  0  0  0  0  0  0  0  0  0  0
    3.3910   -0.3310    0.7780 C   0  0  0  0  0  0  0  0  0  0  0  0
    3.6650    0.5220   -0.2470 C   0  0  0  0  0  0  0  0  0  0  0  0
    5.0190    0.7220   -0.2670 N   0  0  0  0  0  0  0  0  0  0  0  0
    5.5480    0.0110    0.7160 C   0  0  0  0  0  0  0  0  0  0  0  0
    4.5820   -0.6320    1.3580 N   0  0  0  0  0  0  0  0  0  0  0  0
    0.6280    0.8430    0.3820 C   0  0  0  0  0  0  0  0  0  0  0  0
   -0.6550    1.1720   -0.0550 C   0  0  0  0  0  0  0  0  0  0  0  0
   -1.3930    2.2440   -0.5060 C   0  0  0  0  0  0  0  0  0  0  0  0
   -2.7060    1.8100   -0.7800 C   0  0  0  0  0  0  0  0  0  0  0  0
   -2.7630    0.4770   -0.4970 N   0  0  0  0  0  0  0  0  0  0  0  0
   -1.5510    0.1510   -0.0810 C   0  0  0  0  0  0  0  0  0  0  0  0
  1  2  1  0
  2  3  2  0
  2 17  1  0
  3  4  1  0
  4  5  2  0
  4 18  1  0
  5  6  1  0
  6  7  1  0
  6 13  2  0
  7  8  1  0
  8  9  2  0
  8 12  1  0
  9 10  1  0
 10 11  1  0
 11 12  2  0
 13 14  1  0
 14 15  1  0
 14 18  2  0
 15 16  2  0
 16 17  1  0
 17 18  1  0
M  END
