
     RDKit          3D

 28 29  0  0  0  0  0  0  0  0999 V2000
   -0.0500   -4.8350   -0.5120 C   0  0  0  0  0  0  0  0  0  0  0  0
   -1.2530   -3.8460   -0.5620 C   0  0  0  0  0  0  0  0  0  0  0  0
   -0.7540   -2.4490   -0.4270 C   0  0  0  0  0  0  0  0  0  0  0  0
   -1.7740   -1.3980   -0.5720 C   0  0  1  0  0  0  0  0  0  0  0  0
   -2.2820   -1.5040   -1.9580 N   0  0  0  0  0  0  0  0  0  0  0  0
   -2.9840   -1.6660    0.3410 C   0  0  0  0  0  0  0  0  0  0  0  0
   -3.7950   -3.2080   -0.0920 Cl  0  0  0  0  0  0  0  0  0  0  0  0
   -1.2970   -0.0020   -0.3050 C   0  0  2  0  0  0  0  0  0  0  0  0
   -2.4990    0.9310   -0.5130 C   0  0  0  0  0  0  0  0  0  0  0  0
   -2.2430    2.3580   -0.3660 C   0  0  0  0  0  0  0  0  0  0  0  0
   -1.7680    3.1100   -1.4310 O   0  0  0  0  0  0  0  0  0  0  0  0
   -2.4340    3.0150    0.7410 N   0  0  0  0  0  0  0  0  0  0  0  0
   -2.1840    4.4170    0.8910 C   0  0  0  0  0  0  0  0  0  0  0  0
   -3.1610    4.9870    1.8940 C   0  0  0  0  0  0  0  0  0  0  0  0
   -0.1990    0.5120   -0.9980 N   0  0  0  0  0  0  0  0  0  0  0  0
    1.1200    0.2480   -0.6400 C   0  0  0  0  0  0  0  0  0  0  0  0
    1.9110   -0.5350   -1.4500 C   0  0  0  0  0  0  0  0  0  0  0  0
    3.2050   -0.8580   -1.1980 C   0  0  0  0  0  0  0  0  0  0  0  0
    3.8070   -0.3830   -0.0560 C   0  0  0  0  0  0  0  0  0  0  0  0
    5.1320   -0.6950    0.2350 O   0  0  0  0  0  0  0  0  0  0  0  0
    5.9220   -1.4960   -0.6020 C   0  0  0  0  0  0  0  0  0  0  0  0
    3.0580    0.4090    0.7910 C   0  0  0  0  0  0  0  0  0  0  0  0
    3.7140    0.8740    1.9100 C   0  0  0  0  0  0  0  0  0  0  0  0
    3.0300    1.6930    2.7940 C   0  0  0  0  0  0  0  0  0  0  0  0
    1.7130    2.0070    2.5090 C   0  0  0  0  0  0  0  0  0  0  0  0
    1.0540    2.8150    3.3880 F   0  0  0  0  0  0  0  0  0  0  0  0
    1.0560    1.5410    1.3880 C   0  0  0  0  0  0  0  0  0  0  0  0
    1.7200    0.7250    0.5010 C   0  0  0  0  0  0  0  0  0  0  0  0
  1  2  1  0
  2  3  1  0
  3  4  1  0
  4  5  1  6
  4  6  1  0
  4  8  1  0
  6  7  1  0
  8  9  1  6
  8 15  1  0
  9 10  1  0
 10 11  1  0
 10 12  2  3
 12 13  1  0
 13 14  1  0
 15 16  1  0
 16 17  2  0
 16 28  1  0
 17 18  1  0
 18 19  2  0
 19 20  1  0
 19 22  1  0
 20 21  1  0
 22 23  2  0
 22 28  1  0
 23 24  1  0
 24 25  2  0
 25 26  1  0
 25 27  1  0
 27 28  2  0
M  CHG  2   5   1  15   1
M  END
