
     RDKit          3D

 18 21  0  0  0  0  0  0  0  0999 V2000
    6.2790    0.2660    0.2900 C   0  0  0  0  0  0  0  0  0  0  0  0
    5.6750   -0.7700   -0.1880 N   0  0  0  0  0  0  0  0  0  0  0  0
    4.3800   -0.2200    0.0410 C   0  0  0  0  0  0  0  0  0  0  0  0
    2.9890   -0.6690   -0.1840 C   0  0  0  0  0  0  0  0  0  0  0  0
    1.8840    0.0560    0.1270 C   0  0  0  0  0  0  0  0  0  0  0  0
    0.7900   -0.7070   -0.2350 C   0  0  0  0  0  0  0  0  0  0  0  0
   -0.6020   -0.3310   -0.0870 C   0  0  0  0  0  0  0  0  0  0  0  0
   -1.6750   -1.1090   -0.4550 C   0  0  0  0  0  0  0  0  0  0  0  0
   -2.8500   -0.4280   -0.1650 C   0  0  0  0  0  0  0  0  0  0  0  0
   -4.1640   -0.7940   -0.3510 C   0  0  0  0  0  0  0  0  0  0  0  0
   -5.1570    0.0860    0.0310 C   0  0  0  0  0  0  0  0  0  0  0  0
   -4.7940    1.2900    0.5810 C   0  0  0  0  0  0  0  0  0  0  0  0
   -3.4680    1.6430    0.7610 C   0  0  0  0  0  0  0  0  0  0  0  0
   -2.4590    0.7730    0.3830 C   0  0  0  0  0  0  0  0  0  0  0  0
   -1.1080    0.8040    0.4180 N   0  0  0  0  0  0  0  0  0  0  0  0
    1.2820   -1.8520   -0.7450 N   0  0  0  0  0  0  0  0  0  0  0  0
    2.6020   -1.8400   -0.7190 N   0  0  0  0  0  0  0  0  0  0  0  0
    4.9630    0.8480    0.5320 C   0  0  0  0  0  0  0  0  0  0  0  0
  1  2  2  0
  1 18  1  0
  2  3  1  0
  3  4  1  0
  3 18  2  0
  4  5  2  0
  4 17  1  0
  5  6  1  0
  6  7  1  0
  6 16  2  0
  7  8  2  0
  7 15  1  0
  8  9  1  0
  9 10  2  0
  9 14  1  0
 10 11  1  0
 11 12  2  0
 12 13  1  0
 13 14  2  0
 14 15  1  0
 16 17  1  0
M  END
