
     RDKit          3D

 18 21  0  0  0  0  0  0  0  0999 V2000
    4.4520   -0.3060    0.2370 C   0  0  0  0  0  0  0  0  0  0  0  0
    4.1920    1.0280    0.0690 C   0  0  0  0  0  0  0  0  0  0  0  0
    2.9190    1.4670   -0.0030 N   0  0  0  0  0  0  0  0  0  0  0  0
    1.8760    0.6340    0.0840 C   0  0  0  0  0  0  0  0  0  0  0  0
    0.5160    0.8030    0.0440 C   0  0  0  0  0  0  0  0  0  0  0  0
   -0.0750   -0.4600    0.1900 C   0  0  0  0  0  0  0  0  0  0  0  0
    0.9250   -1.3450    0.3130 N   0  0  0  0  0  0  0  0  0  0  0  0
    2.1260   -0.7120    0.2530 C   0  0  0  0  0  0  0  0  0  0  0  0
    3.4170   -1.2070    0.3320 C   0  0  0  0  0  0  0  0  0  0  0  0
   -1.4920   -0.7870    0.2130 C   0  0  0  0  0  0  0  0  0  0  0  0
   -1.7030   -2.0310    0.7550 C   0  0  0  0  0  0  0  0  0  0  0  0
   -3.0140   -2.4420    0.8250 C   0  0  0  0  0  0  0  0  0  0  0  0
   -4.0360   -1.6750    0.3890 N   0  0  0  0  0  0  0  0  0  0  0  0
   -3.8150   -0.4610   -0.1380 C   0  0  0  0  0  0  0  0  0  0  0  0
   -2.5320    0.0280   -0.2450 C   0  0  0  0  0  0  0  0  0  0  0  0
   -2.4660    1.3280   -0.8220 N   0  0  0  0  0  0  0  0  0  0  0  0
   -1.2590    2.0240   -1.2190 C   0  0  0  0  0  0  0  0  0  0  0  0
   -0.2200    2.0710   -0.1250 C   0  0  0  0  0  0  0  0  0  0  0  0
  1  2  2  0
  1  9  1  0
  2  3  1  0
  3  4  2  0
  4  5  1  0
  4  8  1  0
  5  6  2  0
  5 18  1  0
  6  7  1  0
  6 10  1  0
  7  8  1  0
  8  9  2  0
 10 11  2  0
 10 15  1  0
 11 12  1  0
 12 13  2  0
 13 14  1  0
 14 15  2  0
 15 16  1  0
 16 17  1  0
 17 18  1  0
M  END
