
     RDKit          3D

 16 16  0  0  0  0  0  0  0  0999 V2000
    5.2500   -0.2940   -0.6100 N   0  0  0  0  0  0  0  0  0  0  0  0
    4.1530   -0.9460   -0.5270 C   0  0  0  0  0  0  0  0  0  0  0  0
    4.0960   -2.7000   -0.6830 Cl  0  0  0  0  0  0  0  0  0  0  0  0
    2.9780   -0.2350   -0.3080 O   0  0  0  0  0  0  0  0  0  0  0  0
    3.0330    1.1630   -0.1870 C   0  0  0  0  0  0  0  0  0  0  0  0
    1.6900    1.8060    0.0490 C   0  0  0  0  0  0  0  0  0  0  0  0
    1.1270    1.3570    1.1940 O   0  0  0  0  0  0  0  0  0  0  0  0
    0.8250    0.0480    1.3420 C   0  0  0  0  0  0  0  0  0  0  0  0
   -0.1850   -0.4100    0.3400 C   0  0  0  0  0  0  0  0  0  0  0  0
   -1.4870    0.2720    0.5150 C   0  0  1  0  0  0  0  0  0  0  0  0
   -1.4990    1.6880    0.3850 N   0  0  0  0  0  0  0  0  0  0  0  0
   -2.4750   -0.3950   -0.4430 C   0  0  1  0  0  0  0  0  0  0  0  0
   -2.4090   -1.7530   -0.2630 O   0  0  0  0  0  0  0  0  0  0  0  0
   -3.6990   -2.2150   -0.0110 C   0  0  0  0  0  0  0  0  0  0  0  0
   -4.5330   -1.0820   -0.6010 C   0  0  0  0  0  0  0  0  0  0  0  0
   -3.7620    0.0280   -0.2130 O   0  0  0  0  0  0  0  0  0  0  0  0
  1  2  2  0
  2  3  1  0
  2  4  1  0
  4  5  1  0
  5  6  1  0
  6  7  1  0
  7  8  1  0
  8  9  1  0
  9 10  1  0
 10 11  1  6
 10 12  1  0
 12 13  1  1
 12 16  1  0
 13 14  1  0
 14 15  1  0
 15 16  1  0
M  CHG  2   1   1  11   1
M  END
