
     RDKit          3D

 25 24  0  0  0  0  0  0  0  0999 V2000
    4.7560   -1.5990   -2.4390 C   0  0  0  0  0  0  0  0  0  0  0  0
    4.1890   -0.4140   -2.8290 O   0  0  0  0  0  0  0  0  0  0  0  0
    3.4190    0.2200   -1.8620 C   0  0  0  0  0  0  0  0  0  0  0  0
    4.2010    0.5730   -0.6210 C   0  0  0  0  0  0  0  0  0  0  0  0
    3.3890    1.1900    0.2800 O   0  0  0  0  0  0  0  0  0  0  0  0
    2.3170    0.3660    0.7440 C   0  0  1  0  0  0  0  0  0  0  0  0
    2.5850    0.1840    2.2610 C   0  0  0  0  0  0  0  0  0  0  0  0
    1.0440    1.0340    0.5710 C   0  0  0  0  0  0  0  0  0  0  0  0
    1.1660    2.3400    0.6120 O   0  0  0  0  0  0  0  0  0  0  0  0
   -0.2760    0.5580    0.3580 N   0  0  0  0  0  0  0  0  0  0  0  0
   -0.5720   -0.8090    0.2540 C   0  0  0  0  0  0  0  0  0  0  0  0
   -0.9180   -1.7940    1.2420 C   0  0  2  0  0  0  0  0  0  0  0  0
   -1.2110   -3.1420    0.4840 C   0  0  0  0  0  0  0  0  0  0  0  0
   -2.2590   -2.9570   -0.4010 O   0  0  0  0  0  0  0  0  0  0  0  0
   -1.9950   -1.6340    2.2320 C   0  0  0  0  0  0  0  0  0  0  0  0
   -1.8170   -0.5900    3.1280 O   0  0  0  0  0  0  0  0  0  0  0  0
    0.2890   -2.2720    2.1230 C   0  0  0  0  0  0  0  0  0  0  0  0
    1.2910   -2.8060    1.3880 O   0  0  0  0  0  0  0  0  0  0  0  0
   -1.2800    1.5970    0.1780 C   0  0  1  0  0  0  0  0  0  0  0  0
   -1.6740    1.8170   -1.2500 C   0  0  0  0  0  0  0  0  0  0  0  0
   -2.2810    0.8030   -2.0880 C   0  0  0  0  0  0  0  0  0  0  0  0
   -3.5530    0.2570   -1.6540 N   0  0  0  0  0  0  0  0  0  0  0  0
   -2.3780    1.6930    1.1500 C   0  0  0  0  0  0  0  0  0  0  0  0
   -3.5180    3.0880    0.7180 S   0  0  0  0  0  0  0  0  0  0  0  0
   -2.6450    4.6700    0.9020 C   0  0  0  0  0  0  0  0  0  0  0  0
  1  2  1  0
  2  3  1  0
  3  4  1  0
  4  5  1  0
  5  6  1  0
  6  7  1  1
  6  8  1  0
  8  9  2  0
  8 10  1  0
 10 11  1  0
 10 19  1  0
 12 11  1  6
 12 13  1  0
 12 15  1  0
 12 17  1  0
 13 14  1  0
 15 16  1  0
 17 18  1  0
 19 20  1  6
 19 23  1  0
 20 21  1  0
 21 22  1  0
 23 24  1  0
 24 25  1  0
M  CHG  1  22   1
M  END
