
     RDKit          3D

 26 26  0  0  0  0  0  0  0  0999 V2000
   -6.5720    0.9480    2.0790 C   0  0  0  0  0  0  0  0  0  0  0  0
   -5.2930    1.2280    2.8530 C   0  0  0  0  0  0  0  0  0  0  0  0
   -4.1860    0.2910    2.4090 C   0  0  0  0  0  0  0  0  0  0  0  0
   -3.9870    0.5140    1.0610 O   0  0  0  0  0  0  0  0  0  0  0  0
   -2.9740   -0.3040    0.5230 C   0  0  1  0  0  0  0  0  0  0  0  0
   -3.7170   -1.1100   -0.5160 C   0  0  0  0  0  0  0  0  0  0  0  0
   -3.0040   -2.0780   -1.2470 N   0  0  0  0  0  0  0  0  0  0  0  0
   -3.7360   -2.8270   -2.2450 C   0  0  0  0  0  0  0  0  0  0  0  0
   -4.9550   -2.6150   -2.4430 O   0  0  0  0  0  0  0  0  0  0  0  0
   -1.9200    0.5270   -0.1020 C   0  0  0  0  0  0  0  0  0  0  0  0
   -2.1040    1.7420   -0.3670 O   0  0  0  0  0  0  0  0  0  0  0  0
   -0.6720   -0.0280   -0.4120 N   0  0  0  0  0  0  0  0  0  0  0  0
    0.4450    0.5950   -1.0380 C   0  0  1  0  0  0  0  0  0  0  0  0
    0.2750    0.9080   -2.4820 C   0  0  0  0  0  0  0  0  0  0  0  0
   -0.7620    1.7830   -2.8930 N   0  0  0  0  0  0  0  0  0  0  0  0
    0.8110    1.9130   -0.3470 C   0  0  0  0  0  0  0  0  0  0  0  0
    2.3300    2.2420   -1.3390 S   0  0  0  0  0  0  0  0  0  0  0  0
    2.8050    0.5080   -1.6050 C   0  0  1  0  0  0  0  0  0  0  0  0
    4.1370    0.2720   -0.9740 C   0  0  0  0  0  0  0  0  0  0  0  0
    4.7000    1.2170   -0.3980 O   0  0  0  0  0  0  0  0  0  0  0  0
    4.7340   -0.9640   -1.0270 O   0  0  0  0  0  0  0  0  0  0  0  0
    5.9850   -1.1710   -0.4270 C   0  0  0  0  0  0  0  0  0  0  0  0
    5.9820   -0.9400    1.0500 C   0  0  0  0  0  0  0  0  0  0  0  0
    7.2680   -1.1670    1.5850 O   0  0  0  0  0  0  0  0  0  0  0  0
    7.2160   -0.9410    2.9600 C   0  0  0  0  0  0  0  0  0  0  0  0
    1.7170   -0.2300   -0.8770 C   0  0  0  0  0  0  0  0  0  0  0  0
  1  2  1  0
  2  3  1  0
  3  4  1  0
  4  5  1  0
  5  6  1  6
  5 10  1  0
  6  7  1  0
  7  8  1  0
  8  9  2  0
 10 11  2  0
 10 12  1  0
 12 13  1  0
 13 14  1  6
 13 16  1  0
 13 26  1  0
 14 15  1  0
 16 17  1  0
 17 18  1  0
 18 19  1  1
 18 26  1  0
 19 20  2  0
 19 21  1  0
 21 22  1  0
 22 23  1  0
 23 24  1  0
 24 25  1  0
M  CHG  1  15   1
M  END
