
     RDKit          3D

 26 25  0  0  0  0  0  0  0  0999 V2000
    4.4810    0.6920   -1.6470 C   0  0  0  0  0  0  0  0  0  0  0  0
    6.0590   -0.1650   -1.5540 S   0  0  0  0  0  0  0  0  0  0  0  0
    6.0410   -1.6920   -0.6470 C   0  0  0  0  0  0  0  0  0  0  0  0
    5.8280   -1.5980    0.8300 C   0  0  2  0  0  0  0  0  0  0  0  0
    5.9010   -3.0480    1.3530 C   0  0  0  0  0  0  0  0  0  0  0  0
    4.5540   -1.1000    1.1120 O   0  0  0  0  0  0  0  0  0  0  0  0
    4.6050    0.0060    1.9290 C   0  0  0  0  0  0  0  0  0  0  0  0
    3.2190    0.4150    2.3390 C   0  0  0  0  0  0  0  0  0  0  0  0
    2.3970    0.7210    1.1210 C   0  0  0  0  0  0  0  0  0  0  0  0
    1.1120    1.1080    1.5250 O   0  0  0  0  0  0  0  0  0  0  0  0
    0.3460    1.3890    0.4220 C   0  0  2  0  0  0  0  0  0  0  0  0
   -0.2240    2.7920    0.4340 C   0  0  0  0  0  0  0  0  0  0  0  0
   -0.8200    0.4350    0.4110 C   0  0  0  0  0  0  0  0  0  0  0  0
   -0.9500   -0.4240    1.3200 O   0  0  0  0  0  0  0  0  0  0  0  0
   -1.7970    0.4740   -0.6120 N   0  0  0  0  0  0  0  0  0  0  0  0
   -2.9560   -0.4490   -0.6500 C   0  0  2  0  0  0  0  0  0  0  0  0
   -2.7870   -1.2910   -1.7940 C   0  0  0  0  0  0  0  0  0  0  0  0
   -3.5000   -2.4160   -2.2590 N   0  0  0  0  0  0  0  0  0  0  0  0
   -1.8000   -1.0130   -2.5900 O   0  0  0  0  0  0  0  0  0  0  0  0
   -4.1980    0.2530   -0.3210 C   0  0  2  0  0  0  0  0  0  0  0  0
   -5.4930   -0.4450   -0.2940 C   0  0  0  0  0  0  0  0  0  0  0  0
   -6.0080   -1.0370   -1.4740 N   0  0  0  0  0  0  0  0  0  0  0  0
   -4.3950    1.5810   -1.0780 C   0  0  0  0  0  0  0  0  0  0  0  0
   -3.4200    2.5050   -0.8360 O   0  0  0  0  0  0  0  0  0  0  0  0
   -4.0000    0.7680    1.1440 C   0  0  0  0  0  0  0  0  0  0  0  0
   -5.1110    1.4450    1.5640 O   0  0  0  0  0  0  0  0  0  0  0  0
  1  2  1  0
  2  3  1  0
  3  4  1  0
  4  5  1  1
  4  6  1  0
  6  7  1  0
  7  8  1  0
  8  9  1  0
  9 10  1  0
 10 11  1  0
 11 12  1  1
 11 13  1  0
 13 14  2  0
 13 15  1  0
 16 15  1  6
 16 17  1  0
 16 20  1  0
 17 18  1  0
 17 19  2  0
 20 21  1  1
 20 23  1  0
 20 25  1  0
 21 22  1  0
 23 24  1  0
 25 26  1  0
M  CHG  1  22   1
M  END
