
     RDKit          3D

 26 26  0  0  0  0  0  0  0  0999 V2000
    8.1340    0.7930   -0.7030 C   0  0  0  0  0  0  0  0  0  0  0  0
    7.0740   -0.0930   -0.8970 O   0  0  0  0  0  0  0  0  0  0  0  0
    6.4550   -0.4400    0.2790 C   0  0  0  0  0  0  0  0  0  0  0  0
    5.3270   -1.3830    0.0230 C   0  0  0  0  0  0  0  0  0  0  0  0
    4.3300   -0.9170   -0.7920 O   0  0  0  0  0  0  0  0  0  0  0  0
    3.7010    0.2180   -0.3440 C   0  0  0  0  0  0  0  0  0  0  0  0
    3.0700    0.0590    1.0180 C   0  0  0  0  0  0  0  0  0  0  0  0
    2.2700    1.6160    1.4610 S   0  0  0  0  0  0  0  0  0  0  0  0
    0.8090    1.9060    0.3860 C   0  0  0  0  0  0  0  0  0  0  0  0
   -0.1680    0.8490    0.7680 C   0  0  0  0  0  0  0  0  0  0  0  0
   -0.8300    1.0850    1.8380 O   0  0  0  0  0  0  0  0  0  0  0  0
   -0.3890   -0.3490    0.0400 N   0  0  0  0  0  0  0  0  0  0  0  0
   -1.3580   -1.3050    0.5240 C   0  0  1  0  0  0  0  0  0  0  0  0
   -2.5320   -1.5130   -0.3690 C   0  0  0  0  0  0  0  0  0  0  0  0
   -3.3770   -0.3050   -0.6570 C   0  0  1  0  0  0  0  0  0  0  0  0
   -4.4570   -0.8150   -1.5400 N   0  0  0  0  0  0  0  0  0  0  0  0
   -4.0570    0.2890    0.5240 C   0  0  0  0  0  0  0  0  0  0  0  0
   -4.4480    1.7170    0.4290 C   0  0  2  0  0  0  0  0  0  0  0  0
   -5.9610    1.8480    0.6970 C   0  0  0  0  0  0  0  0  0  0  0  0
   -4.1770    2.4060   -0.8620 C   0  0  0  0  0  0  0  0  0  0  0  0
   -2.8440    2.0690   -1.2800 O   0  0  0  0  0  0  0  0  0  0  0  0
   -2.6640    0.6940   -1.4880 C   0  0  0  0  0  0  0  0  0  0  0  0
   -1.8940    0.2900   -2.3820 O   0  0  0  0  0  0  0  0  0  0  0  0
   -0.6770   -2.6150    0.6590 C   0  0  0  0  0  0  0  0  0  0  0  0
   -1.3830   -3.7520    1.1050 N   0  0  0  0  0  0  0  0  0  0  0  0
    0.5280   -2.7270    0.3770 O   0  0  0  0  0  0  0  0  0  0  0  0
  1  2  1  0
  2  3  1  0
  3  4  1  0
  4  5  1  0
  5  6  1  0
  6  7  1  0
  7  8  1  0
  8  9  1  0
  9 10  1  0
 10 11  2  0
 10 12  1  0
 12 13  1  0
 13 14  1  6
 13 24  1  0
 14 15  1  0
 15 16  1  6
 15 17  1  0
 15 22  1  0
 17 18  1  0
 18 19  1  6
 18 20  1  0
 20 21  1  0
 21 22  1  0
 22 23  2  0
 24 25  1  0
 24 26  2  0
M  CHG  1  16   1
M  END
