
     RDKit          3D

 26 26  0  0  0  0  0  0  0  0999 V2000
   -4.7220    4.1420    0.8690 C   0  0  0  0  0  0  0  0  0  0  0  0
   -5.2630    3.1210   -0.0740 C   0  0  0  0  0  0  0  0  0  0  0  0
   -5.4840    1.4790    0.6430 S   0  0  0  0  0  0  0  0  0  0  0  0
   -3.9470    0.7050    1.1160 C   0  0  0  0  0  0  0  0  0  0  0  0
   -2.9890    0.3840    0.0520 C   0  0  1  0  0  0  0  0  0  0  0  0
   -2.6730    1.5910   -0.6060 O   0  0  0  0  0  0  0  0  0  0  0  0
   -1.6880   -0.0700    0.8010 C   0  0  0  0  0  0  0  0  0  0  0  0
   -1.4910   -1.5230    0.4460 C   0  0  2  0  0  0  0  0  0  0  0  0
   -1.2760   -2.3130    1.7350 C   0  0  0  0  0  0  0  0  0  0  0  0
   -0.6600   -1.8260   -0.5350 O   0  0  0  0  0  0  0  0  0  0  0  0
    0.6410   -1.7510   -0.6300 C   0  0  0  0  0  0  0  0  0  0  0  0
    1.3910   -0.4810   -0.3800 C   0  0  0  0  0  0  0  0  0  0  0  0
    2.7790   -0.5930   -0.5600 O   0  0  0  0  0  0  0  0  0  0  0  0
    3.4030   -1.5210    0.2100 C   0  0  0  0  0  0  0  0  0  0  0  0
    4.9060   -1.4530   -0.0510 C   0  0  0  0  0  0  0  0  0  0  0  0
    5.4430   -0.1770    0.2730 O   0  0  0  0  0  0  0  0  0  0  0  0
    6.8130   -0.0280    0.0970 C   0  0  0  0  0  0  0  0  0  0  0  0
    7.5140   -0.9970   -0.3310 O   0  0  0  0  0  0  0  0  0  0  0  0
    7.4940    1.2020    0.3860 N   0  0  0  0  0  0  0  0  0  0  0  0
    8.8840    1.2630    0.1840 N   0  0  0  0  0  0  0  0  0  0  0  0
    9.1720    2.3500   -0.7140 C   0  0  0  0  0  0  0  0  0  0  0  0
   -2.8960   -1.9110    0.0090 C   0  0  2  0  0  0  0  0  0  0  0  0
   -2.9500   -3.0940   -0.6810 O   0  0  0  0  0  0  0  0  0  0  0  0
   -3.1640   -0.6940   -0.8910 C   0  0  1  0  0  0  0  0  0  0  0  0
   -4.3030   -0.8690   -1.7710 C   0  0  0  0  0  0  0  0  0  0  0  0
   -5.6080   -1.0560   -1.2600 N   0  0  0  0  0  0  0  0  0  0  0  0
  1  2  1  0
  2  3  1  0
  3  4  1  0
  4  5  1  0
  5  6  1  6
  5  7  1  0
  5 24  1  0
  7  8  1  0
  8  9  1  1
  8 10  1  0
  8 22  1  0
 10 11  1  0
 11 12  1  0
 12 13  1  0
 13 14  1  0
 14 15  1  0
 15 16  1  0
 16 17  1  0
 17 18  2  0
 17 19  1  0
 19 20  1  0
 20 21  1  0
 22 23  1  6
 22 24  1  0
 24 25  1  1
 25 26  1  0
M  CHG  1  26   1
M  END
