
     RDKit          3D

 26 26  0  0  0  0  0  0  0  0999 V2000
   -4.7940    3.1520   -2.1510 C   0  0  0  0  0  0  0  0  0  0  0  0
   -4.2050    1.9260   -2.4930 O   0  0  0  0  0  0  0  0  0  0  0  0
   -4.1040    1.1180   -1.3270 C   0  0  0  0  0  0  0  0  0  0  0  0
   -3.4670   -0.1780   -1.7540 C   0  0  0  0  0  0  0  0  0  0  0  0
   -3.3150   -1.1030   -0.5660 C   0  0  1  0  0  0  0  0  0  0  0  0
   -2.7240   -2.3070   -0.9400 O   0  0  0  0  0  0  0  0  0  0  0  0
   -2.4300   -0.4160    0.4490 C   0  0  0  0  0  0  0  0  0  0  0  0
   -1.1400   -0.1810   -0.1640 N   0  0  0  0  0  0  0  0  0  0  0  0
   -0.1330    0.4740    0.6000 C   0  0  0  0  0  0  0  0  0  0  0  0
   -0.3980    0.8190    1.7600 O   0  0  0  0  0  0  0  0  0  0  0  0
    1.2280    0.7470    0.0270 C   0  0  0  0  0  0  0  0  0  0  0  0
    2.0440    1.4700    1.0520 C   0  0  0  0  0  0  0  0  0  0  0  0
    3.6810    1.8310    0.4050 S   0  0  0  0  0  0  0  0  0  0  0  0
    4.6890    0.3830    0.1410 C   0  0  1  0  0  0  0  0  0  0  0  0
    4.2160   -0.5330   -0.9570 C   0  0  0  0  0  0  0  0  0  0  0  0
    5.5080   -0.9090   -1.6560 C   0  0  0  0  0  0  0  0  0  0  0  0
    6.5370   -0.4480   -0.8380 O   0  0  0  0  0  0  0  0  0  0  0  0
    6.0780    0.7670   -0.3770 C   0  0  2  0  0  0  0  0  0  0  0  0
    6.8830    1.3490    0.7390 C   0  0  0  0  0  0  0  0  0  0  0  0
    6.9110    0.4950    1.8870 N   0  0  0  0  0  0  0  0  0  0  0  0
   -4.6550   -1.3680    0.0520 C   0  0  0  0  0  0  0  0  0  0  0  0
   -4.5850   -2.3000    1.2010 C   0  0  0  0  0  0  0  0  0  0  0  0
   -3.5740   -2.8920    1.5970 O   0  0  0  0  0  0  0  0  0  0  0  0
   -5.8230   -2.5230    1.9080 N   0  0  0  0  0  0  0  0  0  0  0  0
   -5.8070   -3.4150    3.0270 C   0  0  0  0  0  0  0  0  0  0  0  0
   -4.7470   -3.9910    3.3830 O   0  0  0  0  0  0  0  0  0  0  0  0
  1  2  1  0
  2  3  1  0
  3  4  1  0
  4  5  1  0
  5  6  1  6
  5  7  1  0
  5 21  1  0
  7  8  1  0
  8  9  1  0
  9 10  2  0
  9 11  1  0
 11 12  1  0
 12 13  1  0
 14 13  1  6
 14 15  1  0
 14 18  1  0
 15 16  1  0
 16 17  1  0
 17 18  1  0
 18 19  1  1
 19 20  1  0
 21 22  1  0
 22 23  2  0
 22 24  1  0
 24 25  1  0
 25 26  2  0
M  CHG  1  20   1
M  END
