
     RDKit          3D

 26 25  0  0  0  0  0  0  0  0999 V2000
    6.4860    0.0190    1.7620 C   0  0  0  0  0  0  0  0  0  0  0  0
    6.0450   -0.4700    0.4000 C   0  0  0  0  0  0  0  0  0  0  0  0
    4.6470    0.1040    0.0730 C   0  0  0  0  0  0  0  0  0  0  0  0
    4.2630   -0.4040   -1.2660 C   0  0  0  0  0  0  0  0  0  0  0  0
    2.9770    0.0190   -1.8430 C   0  0  0  0  0  0  0  0  0  0  0  0
    1.7270   -0.3080   -1.0890 C   0  0  0  0  0  0  0  0  0  0  0  0
    1.7300    0.5020    0.5030 S   0  0  0  0  0  0  0  0  0  0  0  0
    0.4030    0.1580    1.6050 C   0  0  0  0  0  0  0  0  0  0  0  0
   -0.9630    0.6930    1.2530 C   0  0  2  0  0  0  0  0  0  0  0  0
   -1.4600    0.1890    0.0040 N   0  0  0  0  0  0  0  0  0  0  0  0
   -2.4670   -0.8290   -0.0560 C   0  0  0  0  0  0  0  0  0  0  0  0
   -2.8900   -1.2550    1.0540 O   0  0  0  0  0  0  0  0  0  0  0  0
   -2.9810   -1.3500   -1.3510 C   0  0  0  0  0  0  0  0  0  0  0  0
   -4.0190   -2.4070   -1.0380 C   0  0  0  0  0  0  0  0  0  0  0  0
   -4.5370   -2.9360   -2.3470 C   0  0  2  0  0  0  0  0  0  0  0  0
   -5.1250   -1.8420   -3.0890 N   0  0  0  0  0  0  0  0  0  0  0  0
   -5.5330   -4.0280   -2.1130 C   0  0  0  0  0  0  0  0  0  0  0  0
   -6.7110   -3.9770   -2.5110 O   0  0  0  0  0  0  0  0  0  0  0  0
   -5.1070   -5.1460   -1.4150 O   0  0  0  0  0  0  0  0  0  0  0  0
   -0.9650    2.1770    1.1830 C   0  0  0  0  0  0  0  0  0  0  0  0
   -1.3650    2.7780    0.1550 O   0  0  0  0  0  0  0  0  0  0  0  0
   -0.5190    3.0120    2.2610 N   0  0  0  0  0  0  0  0  0  0  0  0
   -0.5260    4.4440    2.1790 C   0  0  0  0  0  0  0  0  0  0  0  0
   -0.0120    5.0090    3.4360 C   0  0  0  0  0  0  0  0  0  0  0  0
    0.3440    4.2580    4.3610 O   0  0  0  0  0  0  0  0  0  0  0  0
    0.0740    6.3740    3.5860 O   0  0  0  0  0  0  0  0  0  0  0  0
  1  2  1  0
  2  3  1  0
  3  4  1  0
  4  5  1  0
  5  6  1  0
  6  7  1  0
  7  8  1  0
  9  8  1  6
  9 10  1  0
  9 20  1  0
 10 11  1  0
 11 12  2  0
 11 13  1  0
 13 14  1  0
 14 15  1  0
 15 16  1  1
 15 17  1  0
 17 18  2  0
 17 19  1  0
 20 21  2  0
 20 22  1  0
 22 23  1  0
 23 24  1  0
 24 25  2  0
 24 26  1  0
M  CHG  1  16   1
M  END
