
     RDKit          3D

 26 26  0  0  0  0  0  0  0  0999 V2000
    3.5160   -0.6710   -1.6930 C   0  0  0  0  0  0  0  0  0  0  0  0
    4.9260   -0.6720   -1.2120 C   0  0  0  0  0  0  0  0  0  0  0  0
    5.7990    0.2790   -1.5210 C   0  0  0  0  0  0  0  0  0  0  0  0
    7.0690   -0.0400   -0.8840 C   0  0  0  0  0  0  0  0  0  0  0  0
    8.1620    0.5600   -0.8940 O   0  0  0  0  0  0  0  0  0  0  0  0
    6.8420   -1.2950   -0.1600 C   0  0  0  0  0  0  0  0  0  0  0  0
    5.5940   -1.6460   -0.3610 C   0  0  0  0  0  0  0  0  0  0  0  0
    5.0050   -2.7850    0.1650 O   0  0  0  0  0  0  0  0  0  0  0  0
    4.8940   -2.8680    1.5770 C   0  0  0  0  0  0  0  0  0  0  0  0
    4.0500   -1.6840    2.0230 C   0  0  0  0  0  0  0  0  0  0  0  0
    2.7970   -1.8050    1.3910 O   0  0  0  0  0  0  0  0  0  0  0  0
    1.8240   -0.8220    1.6410 C   0  0  0  0  0  0  0  0  0  0  0  0
    2.0700    0.1340    2.4070 O   0  0  0  0  0  0  0  0  0  0  0  0
    0.5350   -0.9020    1.0230 N   0  0  0  0  0  0  0  0  0  0  0  0
   -0.4920    0.0960    1.2610 C   0  0  0  0  0  0  0  0  0  0  0  0
   -1.7080   -0.3060    0.4520 C   0  0  0  0  0  0  0  0  0  0  0  0
   -2.7860    0.7560    0.7110 C   0  0  2  0  0  0  0  0  0  0  0  0
   -3.0670    0.7510    2.1650 C   0  0  0  0  0  0  0  0  0  0  0  0
   -3.8890    0.4460   -0.1370 N   0  0  0  0  0  0  0  0  0  0  0  0
   -5.0840    1.1580    0.0560 C   0  0  1  0  0  0  0  0  0  0  0  0
   -4.9900    2.6470   -0.0360 C   0  0  0  0  0  0  0  0  0  0  0  0
   -4.4180    3.2580   -1.5940 S   0  0  0  0  0  0  0  0  0  0  0  0
   -5.3560    4.3110   -2.2040 O   0  0  0  0  0  0  0  0  0  0  0  0
   -6.0820    0.7050   -0.9350 C   0  0  0  0  0  0  0  0  0  0  0  0
   -5.7480   -0.2960   -1.8710 N   0  0  0  0  0  0  0  0  0  0  0  0
   -7.2290    1.1990   -0.9580 O   0  0  0  0  0  0  0  0  0  0  0  0
  1  2  1  0
  2  3  2  0
  2  7  1  0
  3  4  1  0
  4  5  2  0
  4  6  1  0
  6  7  2  0
  7  8  1  0
  8  9  1  0
  9 10  1  0
 10 11  1  0
 11 12  1  0
 12 13  2  0
 12 14  1  0
 14 15  1  0
 15 16  1  0
 16 17  1  0
 17 18  1  1
 17 19  1  0
 19 20  1  0
 20 21  1  6
 20 24  1  0
 21 22  1  0
 22 23  2  0
 24 25  1  0
 24 26  2  0
M  CHG  1  19   1
M  END
