
     RDKit          3D

 26 25  0  0  0  0  0  0  0  0999 V2000
   -6.5540   -0.8990   -2.0140 C   0  0  0  0  0  0  0  0  0  0  0  0
   -6.4750   -1.5910   -0.6910 C   0  0  2  0  0  0  0  0  0  0  0  0
   -7.8580   -1.8050   -0.0930 C   0  0  0  0  0  0  0  0  0  0  0  0
   -5.4590   -0.6530    0.4630 S   0  0  0  0  0  0  0  0  0  0  0  0
   -3.7170   -0.5960   -0.0050 C   0  0  1  0  0  0  0  0  0  0  0  0
   -3.5190    0.1940   -1.2550 C   0  0  0  0  0  0  0  0  0  0  0  0
   -2.9410    0.0470    1.0830 C   0  0  0  0  0  0  0  0  0  0  0  0
   -3.5300    0.4680    2.1230 O   0  0  0  0  0  0  0  0  0  0  0  0
   -1.5270    0.1830    0.9390 N   0  0  0  0  0  0  0  0  0  0  0  0
   -0.7750    0.7930    1.9650 C   0  0  0  0  0  0  0  0  0  0  0  0
    0.7770    0.8060    1.5990 C   0  0  1  0  0  0  0  0  0  0  0  0
    1.1190   -0.6180    1.4900 C   0  0  0  0  0  0  0  0  0  0  0  0
    2.4410   -1.1260    1.1100 C   0  0  0  0  0  0  0  0  0  0  0  0
    2.8340   -0.9650   -0.2880 C   0  0  0  0  0  0  0  0  0  0  0  0
    1.9710   -0.6320   -1.1410 O   0  0  0  0  0  0  0  0  0  0  0  0
    4.1680   -1.1740   -0.7450 N   0  0  0  0  0  0  0  0  0  0  0  0
    5.2740   -1.5470    0.0990 C   0  0  0  0  0  0  0  0  0  0  0  0
    6.0300   -0.3740    0.6400 C   0  0  0  0  0  0  0  0  0  0  0  0
    6.5320    0.3560   -0.4550 O   0  0  0  0  0  0  0  0  0  0  0  0
    4.4540   -1.0070   -2.1270 C   0  0  0  0  0  0  0  0  0  0  0  0
    3.5280   -0.6830   -2.9110 O   0  0  0  0  0  0  0  0  0  0  0  0
    5.7340   -1.1910   -2.6580 O   0  0  0  0  0  0  0  0  0  0  0  0
    0.9690    1.7300    0.4900 C   0  0  1  0  0  0  0  0  0  0  0  0
    0.3540    3.0200    0.8890 O   0  0  0  0  0  0  0  0  0  0  0  0
    2.4310    2.1960    0.3770 C   0  0  0  0  0  0  0  0  0  0  0  0
    2.4850    3.2590   -0.6520 N   0  0  0  0  0  0  0  0  0  0  0  0
  2  1  1  6
  2  3  1  0
  2  4  1  0
  4  5  1  0
  5  6  1  6
  5  7  1  0
  7  8  2  0
  7  9  1  0
  9 10  1  0
 11 10  1  6
 11 12  1  0
 11 23  1  0
 12 13  1  0
 13 14  1  0
 14 15  2  0
 14 16  1  0
 16 17  1  0
 16 20  1  0
 17 18  1  0
 18 19  1  0
 20 21  2  0
 20 22  1  0
 23 24  1  1
 23 25  1  0
 25 26  1  0
M  CHG  1  26   1
M  END
