
     RDKit          3D

 29 30  0  0  0  0  0  0  0  0999 V2000
   -2.0830   -2.2330    2.1910 O   0  0  0  0  0  0  0  0  0  0  0  0
   -2.7200   -2.4430    1.1770 C   0  0  0  0  0  0  0  0  0  0  0  0
   -3.2390   -3.7280    0.9290 O   0  0  0  0  0  0  0  0  0  0  0  0
   -2.9510   -1.4130    0.2140 N   0  0  0  0  0  0  0  0  0  0  0  0
   -2.5070   -0.1030    0.1430 C   0  0  2  0  0  0  0  0  0  0  0  0
   -1.1620    0.1230   -0.4800 C   0  0  2  0  0  0  0  0  0  0  0  0
   -0.1240   -0.4190    0.3570 N   0  0  0  0  0  0  0  0  0  0  0  0
    1.1160    0.2430    0.4400 C   0  0  0  0  0  0  0  0  0  0  0  0
    1.3430    1.2970   -0.1620 O   0  0  0  0  0  0  0  0  0  0  0  0
    2.1610   -0.2790    1.2300 O   0  0  0  0  0  0  0  0  0  0  0  0
    3.3710    0.2790    1.3910 C   0  0  0  0  0  0  0  0  0  0  0  0
    4.2200    0.6580    0.1930 C   0  0  0  0  0  0  0  0  0  0  0  0
    5.3730    1.2370    0.8450 O   0  0  0  0  0  0  0  0  0  0  0  0
    6.8400    0.3570    0.5890 P   0  0  0  0  0  0  0  0  0  0  0  0
    7.4550   -0.3250    2.0310 O   0  0  0  0  0  0  0  0  0  0  0  0
    7.0280   -0.4740   -0.8650 O   0  0  0  0  0  0  0  0  0  0  0  0
   -0.8930    1.4220   -1.1520 C   0  0  0  0  0  0  0  0  0  0  0  0
   -2.0430    1.9080   -1.8000 O   0  0  0  0  0  0  0  0  0  0  0  0
   -2.2150    1.0870   -3.3410 P   0  0  0  0  0  0  0  0  0  0  0  0
   -3.8250    1.4450   -3.9490 O   0  0  0  0  0  0  0  0  0  0  0  0
   -2.1230   -0.6300   -3.1760 O   0  0  0  0  0  0  0  0  0  0  0  0
   -1.1390   -1.1500   -1.9090 P   0  0  0  0  0  0  0  0  0  0  0  0
    0.4890   -1.4640   -2.3430 O   0  0  0  0  0  0  0  0  0  0  0  0
   -2.4020    0.5720    1.5340 C   0  0  0  0  0  0  0  0  0  0  0  0
   -3.5940    0.8060    2.1970 N   0  0  0  0  0  0  0  0  0  0  0  0
   -4.3380    1.6600    1.4100 O   0  0  0  0  0  0  0  0  0  0  0  0
   -4.4360    1.4190    0.0810 C   0  0  0  0  0  0  0  0  0  0  0  0
   -5.3310    1.9170   -0.6250 O   0  0  0  0  0  0  0  0  0  0  0  0
   -3.5130    0.6000   -0.5690 O   0  0  0  0  0  0  0  0  0  0  0  0
  1  2  2  0
  2  3  1  0
  2  4  1  0
  5  4  1  1
  5  6  1  0
  5 24  1  0
  5 29  1  0
  6  7  1  1
  6 17  1  0
  6 22  1  0
  7  8  1  0
  8  9  2  0
  8 10  1  0
 10 11  1  0
 11 12  1  0
 12 13  1  0
 13 14  1  0
 14 15  1  0
 14 16  1  0
 17 18  1  0
 18 19  1  0
 19 20  1  0
 19 21  1  0
 21 22  1  0
 22 23  1  0
 24 25  1  0
 25 26  1  0
 26 27  1  0
 27 28  2  0
 27 29  1  0
M  END
