
     RDKit          3D

 29 30  0  0  0  0  0  0  0  0999 V2000
    4.1540    1.2990   -0.6190 O   0  0  0  0  0  0  0  0  0  0  0  0
    4.6530    0.1900   -0.3160 C   0  0  0  0  0  0  0  0  0  0  0  0
    6.0850    0.0570   -0.3830 N   0  0  0  0  0  0  0  0  0  0  0  0
    7.0790    1.4670   -0.8920 P   0  0  0  0  0  0  0  0  0  0  0  0
    6.9580    2.6920    0.3160 O   0  0  0  0  0  0  0  0  0  0  0  0
    8.7140    0.9750   -1.1640 O   0  0  0  0  0  0  0  0  0  0  0  0
    3.8580   -0.8790    0.0730 O   0  0  0  0  0  0  0  0  0  0  0  0
    2.5100   -0.7860    0.1460 N   0  0  0  0  0  0  0  0  0  0  0  0
    1.7580   -1.1550    1.2050 C   0  0  0  0  0  0  0  0  0  0  0  0
    2.2250   -1.6390    2.2760 O   0  0  0  0  0  0  0  0  0  0  0  0
    0.5050   -0.9430    0.9650 O   0  0  0  0  0  0  0  0  0  0  0  0
    0.3970   -0.4360   -0.2410 N   0  0  0  0  0  0  0  0  0  0  0  0
   -0.8080   -0.0640   -0.9030 C   0  0  0  0  0  0  0  0  0  0  0  0
   -0.7380    0.4190   -2.0560 O   0  0  0  0  0  0  0  0  0  0  0  0
   -2.1350   -0.2530   -0.2250 C   0  0  1  0  0  0  0  0  0  0  0  0
   -2.3080   -1.7600    0.0120 C   0  0  0  0  0  0  0  0  0  0  0  0
   -3.5210   -1.9660    0.5930 O   0  0  0  0  0  0  0  0  0  0  0  0
   -3.9170   -3.5750    0.9550 P   0  0  0  0  0  0  0  0  0  0  0  0
   -2.5960   -4.6170    1.2280 O   0  0  0  0  0  0  0  0  0  0  0  0
   -5.2180   -4.2280    0.0840 O   0  0  0  0  0  0  0  0  0  0  0  0
   -2.2220    0.5170    1.0540 C   0  0  0  0  0  0  0  0  0  0  0  0
   -3.3270    1.5030    0.7710 C   0  0  1  0  0  0  0  0  0  0  0  0
   -2.5420    3.0570    0.1400 P   0  0  0  0  0  0  0  0  0  0  0  0
   -2.6170    3.1980   -1.5840 O   0  0  0  0  0  0  0  0  0  0  0  0
   -3.1980    4.4620    0.9200 O   0  0  0  0  0  0  0  0  0  0  0  0
   -4.1000    0.7720   -0.2960 C   0  0  0  0  0  0  0  0  0  0  0  0
   -3.1200    0.1930   -1.0620 O   0  0  0  0  0  0  0  0  0  0  0  0
    1.6380   -0.3310   -0.7650 C   0  0  0  0  0  0  0  0  0  0  0  0
    1.8980    0.1180   -1.9100 O   0  0  0  0  0  0  0  0  0  0  0  0
  1  2  2  0
  2  3  1  0
  2  7  1  0
  3  4  1  0
  4  5  1  0
  4  6  1  0
  7  8  1  0
  8  9  1  0
  8 28  1  0
  9 10  2  0
  9 11  1  0
 11 12  1  0
 12 13  1  0
 12 28  1  0
 13 14  2  0
 13 15  1  0
 15 16  1  1
 15 21  1  0
 15 27  1  0
 16 17  1  0
 17 18  1  0
 18 19  1  0
 18 20  1  0
 21 22  1  0
 22 23  1  6
 22 26  1  0
 23 24  1  0
 23 25  1  0
 26 27  1  0
 28 29  2  0
M  END
