
     RDKit          3D

 28 29  0  0  0  0  0  0  0  0999 V2000
    2.3230   -2.5610   -0.1420 O   0  0  0  0  0  0  0  0  0  0  0  0
    2.5700   -1.4730   -0.6640 C   0  0  0  0  0  0  0  0  0  0  0  0
    1.6670   -0.4180   -0.7640 N   0  0  0  0  0  0  0  0  0  0  0  0
    0.3660   -0.6540   -0.2100 C   0  0  0  0  0  0  0  0  0  0  0  0
   -0.4470    0.6250   -0.4340 C   0  0  1  0  0  0  0  0  0  0  0  0
   -1.6950    0.3570    0.1140 O   0  0  0  0  0  0  0  0  0  0  0  0
   -2.8820    0.3110   -0.5630 C   0  0  0  0  0  0  0  0  0  0  0  0
   -2.8780    0.5260   -1.7970 O   0  0  0  0  0  0  0  0  0  0  0  0
   -4.1240    0.0040    0.2130 C   0  0  2  0  0  0  0  0  0  0  0  0
   -3.9550   -1.3490    0.8400 C   0  0  0  0  0  0  0  0  0  0  0  0
   -5.1230   -1.6190    1.5600 O   0  0  0  0  0  0  0  0  0  0  0  0
   -5.0110   -2.7960    2.1250 O   0  0  0  0  0  0  0  0  0  0  0  0
   -5.3010    0.0270   -0.6880 C   0  0  0  0  0  0  0  0  0  0  0  0
   -5.9820   -1.0200   -0.8020 O   0  0  0  0  0  0  0  0  0  0  0  0
   -5.6970    1.1360   -1.4150 O   0  0  0  0  0  0  0  0  0  0  0  0
    0.3840    2.0780    0.5010 P   0  0  0  0  0  0  0  0  0  0  0  0
   -0.4520    2.9220    1.7740 O   0  0  0  0  0  0  0  0  0  0  0  0
    0.3760    4.2280    2.2140 P   0  0  0  0  0  0  0  0  0  0  0  0
   -0.1430    5.6870    3.0320 O   0  0  0  0  0  0  0  0  0  0  0  0
    2.0860    4.1610    0.9270 P   0  0  0  0  0  0  0  0  0  0  0  0
    2.8770    5.6650    0.3180 O   0  0  0  0  0  0  0  0  0  0  0  0
    1.7410    2.7660    0.0680 O   0  0  0  0  0  0  0  0  0  0  0  0
    3.8610   -1.3770   -1.1630 N   0  0  0  0  0  0  0  0  0  0  0  0
    4.8630   -2.3520   -1.1220 C   0  0  0  0  0  0  0  0  0  0  0  0
    5.9330   -1.9040   -1.7350 N   0  0  0  0  0  0  0  0  0  0  0  0
    6.8590   -2.8740   -1.6700 O   0  0  0  0  0  0  0  0  0  0  0  0
    6.6480   -3.6890   -0.6650 O   0  0  0  0  0  0  0  0  0  0  0  0
    5.2150   -3.6760   -0.6680 C   0  0  0  0  0  0  0  0  0  0  0  0
  1  2  2  0
  2  3  1  0
  2 23  1  0
  3  4  1  0
  5  4  1  1
  5  6  1  0
  5 16  1  0
  6  7  1  0
  7  8  2  0
  7  9  1  0
  9 10  1  6
  9 13  1  0
 10 11  1  0
 11 12  1  0
 13 14  2  0
 13 15  1  0
 16 17  1  0
 16 22  1  0
 17 18  1  0
 18 19  1  0
 18 20  1  0
 20 21  1  0
 20 22  1  0
 23 24  1  0
 24 25  2  0
 24 28  1  0
 25 26  1  0
 26 27  1  0
 27 28  1  0
M  END
