
     RDKit          3D

 31 33  0  0  0  0  0  0  0  0999 V2000
    4.3610   -0.2990   -2.7540 C   0  0  0  0  0  0  0  0  0  0  0  0
    3.8330   -0.2450   -1.3920 N   0  0  0  0  0  0  0  0  0  0  0  0
    4.2460   -1.1070   -0.4540 C   0  0  0  0  0  0  0  0  0  0  0  0
    5.0990   -1.9570   -0.7920 O   0  0  0  0  0  0  0  0  0  0  0  0
    3.7310   -1.0150    0.7800 N   0  0  0  0  0  0  0  0  0  0  0  0
    2.8050   -0.0800    1.1200 C   0  0  0  0  0  0  0  0  0  0  0  0
    2.3820   -0.0670    2.3010 O   0  0  0  0  0  0  0  0  0  0  0  0
    2.3950    0.7760    0.1840 N   0  0  0  0  0  0  0  0  0  0  0  0
    1.4190    1.7730    0.4080 C   0  0  0  0  0  0  0  0  0  0  0  0
    1.1420    2.6020   -0.5300 O   0  0  0  0  0  0  0  0  0  0  0  0
    0.6500    1.9680    1.6670 C   0  0  1  0  0  0  0  0  0  0  0  0
   -0.0380    3.1080    1.5450 O   0  0  0  0  0  0  0  0  0  0  0  0
   -1.1460    3.2460    0.9020 O   0  0  0  0  0  0  0  0  0  0  0  0
   -2.0110    2.1940    0.4510 C   0  0  0  0  0  0  0  0  0  0  0  0
   -2.9760    1.6520    1.2770 C   0  0  0  0  0  0  0  0  0  0  0  0
   -3.8180    0.5960    0.8390 C   0  0  0  0  0  0  0  0  0  0  0  0
   -3.6920    0.0870   -0.4230 C   0  0  0  0  0  0  0  0  0  0  0  0
   -2.7550    0.6100   -1.2610 C   0  0  0  0  0  0  0  0  0  0  0  0
   -1.9150    1.6650   -0.8190 C   0  0  0  0  0  0  0  0  0  0  0  0
   -4.5130   -0.9900   -0.8670 O   0  0  0  0  0  0  0  0  0  0  0  0
   -4.0570   -2.3260   -0.6370 C   0  0  0  0  0  0  0  0  0  0  0  0
   -4.9780   -3.1400   -0.8070 O   0  0  0  0  0  0  0  0  0  0  0  0
   -2.7450   -2.6670   -0.2690 N   0  0  0  0  0  0  0  0  0  0  0  0
   -1.9930   -2.2630    0.9000 C   0  0  0  0  0  0  0  0  0  0  0  0
   -0.8290   -1.3660    0.5930 C   0  0  0  0  0  0  0  0  0  0  0  0
   -0.1610   -1.8180   -0.4280 O   0  0  0  0  0  0  0  0  0  0  0  0
   -0.4080   -0.2720    1.1540 O   0  0  0  0  0  0  0  0  0  0  0  0
   -0.1710    0.7150    1.9590 C   0  0  0  0  0  0  0  0  0  0  0  0
   -0.5920    0.8310    3.1900 O   0  0  0  0  0  0  0  0  0  0  0  0
    2.9190    0.6750   -1.0520 C   0  0  0  0  0  0  0  0  0  0  0  0
    2.5580    1.4740   -1.9830 O   0  0  0  0  0  0  0  0  0  0  0  0
  1  2  1  0
  2  3  1  0
  2 30  1  0
  3  4  2  0
  3  5  1  0
  5  6  1  0
  6  7  2  0
  6  8  1  0
  8  9  1  0
  8 30  1  0
  9 10  2  0
 11  9  1  6
 11 12  1  0
 11 28  1  0
 12 13  1  0
 13 14  1  0
 14 15  2  0
 14 19  1  0
 15 16  1  0
 16 17  2  0
 17 18  1  0
 17 20  1  0
 18 19  2  0
 20 21  1  0
 21 22  2  0
 21 23  1  0
 23 24  1  0
 24 25  1  0
 25 26  2  0
 25 27  1  0
 27 28  1  0
 28 29  2  0
 30 31  2  0
M  END
