
     RDKit          3D

 31 32  0  0  0  0  0  0  0  0999 V2000
   -0.2490   -4.3940   -0.9930 O   0  0  0  0  0  0  0  0  0  0  0  0
   -0.1020   -3.1580   -0.8870 C   0  0  0  0  0  0  0  0  0  0  0  0
    1.0520   -2.5790   -1.2590 N   0  0  0  0  0  0  0  0  0  0  0  0
    1.1810   -1.2530   -1.1800 C   0  0  0  0  0  0  0  0  0  0  0  0
    2.2620   -0.7040   -1.5300 O   0  0  0  0  0  0  0  0  0  0  0  0
    0.1510   -0.4370   -0.7270 C   0  0  0  0  0  0  0  0  0  0  0  0
   -1.0080   -1.1000   -0.3380 C   0  0  0  0  0  0  0  0  0  0  0  0
   -1.1390   -2.4100   -0.4070 N   0  0  0  0  0  0  0  0  0  0  0  0
   -1.8440   -0.0790    0.1130 N   0  0  0  0  0  0  0  0  0  0  0  0
   -3.0470   -0.5280    0.7470 C   0  0  0  0  0  0  0  0  0  0  0  0
   -4.1160   -1.0330   -0.1000 C   0  0  1  0  0  0  0  0  0  0  0  0
   -5.0530   -1.6850    0.8230 O   0  0  0  0  0  0  0  0  0  0  0  0
   -5.1030    0.0560   -0.6510 C   0  0  2  0  0  0  0  0  0  0  0  0
   -4.4100    0.8890   -1.4240 O   0  0  0  0  0  0  0  0  0  0  0  0
   -5.9480    0.4990    0.4570 C   0  0  2  0  0  0  0  0  0  0  0  0
   -6.6720   -0.6180    1.0070 O   0  0  0  0  0  0  0  0  0  0  0  0
   -6.9710    1.5830    0.2350 C   0  0  0  0  0  0  0  0  0  0  0  0
   -6.4900    2.7580   -0.2580 O   0  0  0  0  0  0  0  0  0  0  0  0
   -1.2510    1.0990    0.0020 C   0  0  0  0  0  0  0  0  0  0  0  0
   -1.6720    2.2860    0.2710 O   0  0  0  0  0  0  0  0  0  0  0  0
   -0.0190    0.8810   -0.5040 N   0  0  0  0  0  0  0  0  0  0  0  0
    1.1830    1.7540   -0.6350 C   0  0  0  0  0  0  0  0  0  0  0  0
    1.8770    1.5660    0.7760 C   0  0  0  0  0  0  0  0  0  0  0  0
    3.2270    2.2140    0.8200 C   0  0  0  0  0  0  0  0  0  0  0  0
    4.1800    1.5730   -0.1090 C   0  0  0  0  0  0  0  0  0  0  0  0
    4.6850    0.2250    0.4350 C   0  0  0  0  0  0  0  0  0  0  0  0
    5.3950   -0.3560   -0.6220 O   0  0  0  0  0  0  0  0  0  0  0  0
    6.9450   -0.7480   -0.3060 P   0  0  0  0  0  0  0  0  0  0  0  0
    7.8640   -1.6700   -1.3570 O   0  0  0  0  0  0  0  0  0  0  0  0
    6.7540   -1.8760    0.6180 O   0  0  0  0  0  0  0  0  0  0  0  0
    7.7510    0.2300    0.7760 O   0  0  0  0  0  0  0  0  0  0  0  0
  1  2  2  0
  2  3  1  0
  2  8  1  0
  3  4  1  0
  4  5  2  0
  4  6  1  0
  6  7  2  0
  6 21  1  0
  7  8  1  0
  7  9  1  0
  9 10  1  0
  9 19  1  0
 10 11  1  0
 11 12  1  1
 11 13  1  0
 13 14  1  1
 13 15  1  0
 15 16  1  6
 15 17  1  0
 17 18  1  0
 19 20  2  0
 19 21  1  0
 21 22  1  0
 22 23  1  0
 23 24  1  0
 24 25  1  0
 25 26  1  0
 26 27  1  0
 27 28  1  0
 28 29  1  0
 28 30  1  0
 28 31  1  0
M  END
