
     RDKit          3D

 31 32  0  0  0  0  0  0  0  0999 V2000
    5.7470   -1.3890   -1.9440 C   0  0  0  0  0  0  0  0  0  0  0  0
    4.4170   -2.0530   -1.8160 C   0  0  0  0  0  0  0  0  0  0  0  0
    3.4760   -1.2640   -1.1160 O   0  0  0  0  0  0  0  0  0  0  0  0
    2.1650   -1.7130   -0.8900 C   0  0  0  0  0  0  0  0  0  0  0  0
    1.8960   -2.8370   -1.3430 O   0  0  0  0  0  0  0  0  0  0  0  0
    1.2220   -0.9080   -0.1820 N   0  0  0  0  0  0  0  0  0  0  0  0
   -0.0930   -1.4730   -0.0080 C   0  0  0  0  0  0  0  0  0  0  0  0
   -0.0910   -2.7350    0.7510 C   0  0  0  0  0  0  0  0  0  0  0  0
    0.9860   -3.2910    1.0800 O   0  0  0  0  0  0  0  0  0  0  0  0
   -1.2700   -3.3630    1.1350 O   0  0  0  0  0  0  0  0  0  0  0  0
   -2.4160   -3.4360    0.4690 O   0  0  0  0  0  0  0  0  0  0  0  0
   -3.5070   -2.5940    0.4450 C   0  0  0  0  0  0  0  0  0  0  0  0
   -4.5800   -3.1100    1.0080 O   0  0  0  0  0  0  0  0  0  0  0  0
   -3.6520   -1.2920   -0.0760 N   0  0  0  0  0  0  0  0  0  0  0  0
   -4.4710   -0.2550    0.6490 C   0  0  0  0  0  0  0  0  0  0  0  0
   -3.2850    0.7110    0.6690 C   0  0  0  0  0  0  0  0  0  0  0  0
   -2.8800    1.3000    1.6500 O   0  0  0  0  0  0  0  0  0  0  0  0
   -2.8450    0.6940   -0.7400 N   0  0  0  0  0  0  0  0  0  0  0  0
   -2.2350    1.8630   -1.3240 C   0  0  0  0  0  0  0  0  0  0  0  0
   -0.7170    1.7140   -1.3870 C   0  0  0  0  0  0  0  0  0  0  0  0
   -0.2090    2.0440   -0.0370 C   0  0  0  0  0  0  0  0  0  0  0  0
    0.7430    1.4960    0.6710 C   0  0  0  0  0  0  0  0  0  0  0  0
    0.9580    2.1310    2.0100 C   0  0  0  0  0  0  0  0  0  0  0  0
    0.2450    3.1280    2.4160 N   0  0  0  0  0  0  0  0  0  0  0  0
    0.5170    3.6670    3.6980 C   0  0  0  0  0  0  0  0  0  0  0  0
    1.6670    3.6810    4.2150 O   0  0  0  0  0  0  0  0  0  0  0  0
   -0.5400    4.2150    4.4400 O   0  0  0  0  0  0  0  0  0  0  0  0
    1.5890    0.3730    0.3060 C   0  0  0  0  0  0  0  0  0  0  0  0
    2.8520    0.5570    0.4420 O   0  0  0  0  0  0  0  0  0  0  0  0
   -3.1070   -0.6160   -1.2110 C   0  0  0  0  0  0  0  0  0  0  0  0
   -2.9050   -1.1230   -2.4320 O   0  0  0  0  0  0  0  0  0  0  0  0
  1  2  1  0
  2  3  1  0
  3  4  1  0
  4  5  2  0
  4  6  1  0
  6  7  1  0
  6 28  1  0
  7  8  1  0
  8  9  2  0
  8 10  1  0
 10 11  1  0
 11 12  1  0
 12 13  2  0
 12 14  1  0
 14 15  1  0
 14 30  1  0
 15 16  1  0
 16 17  2  0
 16 18  1  0
 18 19  1  0
 18 30  1  0
 19 20  1  0
 20 21  1  0
 21 22  2  0
 22 23  1  0
 22 28  1  0
 23 24  2  3
 24 25  1  0
 25 26  2  0
 25 27  1  0
 28 29  2  0
 30 31  2  0
M  END
