
     RDKit          3D

 38 41  0  0  0  0  0  0  0  0999 V2000
   -6.2280   -1.5200    1.4390 O   0  0  0  0  0  0  0  0  0  0  0  0
   -6.1550   -1.6280    0.2490 N   0  0  0  0  0  0  0  0  0  0  0  0
   -7.0050   -0.8830   -0.6340 C   0  0  0  0  0  0  0  0  0  0  0  0
   -6.1980    0.1480   -1.2070 O   0  0  0  0  0  0  0  0  0  0  0  0
   -5.0790   -0.1770   -1.9520 C   0  0  0  0  0  0  0  0  0  0  0  0
   -4.8200   -1.3950   -2.0930 O   0  0  0  0  0  0  0  0  0  0  0  0
   -3.9970    1.0840   -2.7170 P   0  0  0  0  0  0  0  0  0  0  0  0
   -4.8590    2.5280   -3.0470 O   0  0  0  0  0  0  0  0  0  0  0  0
   -6.1120    2.4820   -2.6400 O   0  0  0  0  0  0  0  0  0  0  0  0
   -6.2970    3.4710   -1.8010 O   0  0  0  0  0  0  0  0  0  0  0  0
   -5.1630    4.0240   -1.4360 O   0  0  0  0  0  0  0  0  0  0  0  0
   -2.2810    1.4130   -1.3980 P   0  0  0  0  0  0  0  0  0  0  0  0
   -2.6430    2.5050   -0.1060 O   0  0  0  0  0  0  0  0  0  0  0  0
   -3.3160    1.8020    0.8070 O   0  0  0  0  0  0  0  0  0  0  0  0
   -1.5540   -0.0390   -0.8760 O   0  0  0  0  0  0  0  0  0  0  0  0
   -0.7530    0.1130    0.2450 C   0  0  0  0  0  0  0  0  0  0  0  0
   -0.1150   -1.1510    0.7040 C   0  0  2  0  0  0  0  0  0  0  0  0
   -1.0510   -2.1210    1.0410 O   0  0  0  0  0  0  0  0  0  0  0  0
   -2.0700   -2.5520   -0.2660 P   0  0  0  0  0  0  0  0  0  0  0  0
   -2.1210   -3.9380   -0.9240 O   0  0  0  0  0  0  0  0  0  0  0  0
    0.9130   -0.8700    1.7790 C   0  0  0  0  0  0  0  0  0  0  0  0
    1.7390   -2.0180    1.1710 C   0  0  2  0  0  0  0  0  0  0  0  0
    1.0220   -1.6690   -0.1470 C   0  0  0  0  0  0  0  0  0  0  0  0
    1.3180   -3.1770    1.7350 O   0  0  0  0  0  0  0  0  0  0  0  0
    2.5000   -4.3920    2.0930 P   0  0  0  0  0  0  0  0  0  0  0  0
    4.0200   -3.7200    2.1990 C   0  0  0  0  0  0  0  0  0  0  0  0
    4.0290   -2.2920    1.9720 C   0  0  2  0  0  0  0  0  0  0  0  0
    3.8240   -1.4860    3.0840 O   0  0  0  0  0  0  0  0  0  0  0  0
    3.4870   -0.2940    2.6160 O   0  0  0  0  0  0  0  0  0  0  0  0
    3.3270   -0.3910    1.2920 N   0  0  0  0  0  0  0  0  0  0  0  0
    3.3680    0.6100    0.3520 N   0  0  0  0  0  0  0  0  0  0  0  0
    4.4220    1.2290   -0.0400 C   0  0  0  0  0  0  0  0  0  0  0  0
    4.3100    2.2200   -1.0000 C   0  0  0  0  0  0  0  0  0  0  0  0
    5.3840    2.9290   -1.4740 C   0  0  0  0  0  0  0  0  0  0  0  0
    6.6300    2.6310   -0.9630 C   0  0  0  0  0  0  0  0  0  0  0  0
    6.6960    1.6370   -0.0080 C   0  0  0  0  0  0  0  0  0  0  0  0
    5.6310    0.9900    0.4080 O   0  0  0  0  0  0  0  0  0  0  0  0
    3.1050   -1.7450    1.0450 N   0  0  0  0  0  0  0  0  0  0  0  0
  1  2  2  0
  2  3  1  0
  3  4  1  0
  4  5  1  0
  5  6  2  0
  5  7  1  0
  7  8  1  0
  7 12  1  0
  8  9  1  0
  9 10  1  0
 10 11  1  0
 12 13  1  0
 12 15  1  0
 13 14  1  0
 15 16  1  0
 17 16  1  6
 17 18  1  0
 17 21  1  0
 17 23  1  0
 18 19  1  0
 19 20  2  0
 22 21  1  1
 22 23  1  0
 22 24  1  0
 22 38  1  0
 24 25  1  0
 25 26  2  0
 26 27  1  0
 27 28  1  1
 27 38  1  0
 28 29  1  0
 29 30  1  0
 30 31  1  0
 30 38  1  0
 31 32  2  3
 32 33  1  0
 32 37  1  0
 33 34  2  0
 34 35  1  0
 35 36  2  0
 36 37  1  0
M  END
