
     RDKit          3D

 38 40  0  0  0  0  0  0  0  0999 V2000
    2.1040    5.6480   -0.3260 C   0  0  0  0  0  0  0  0  0  0  0  0
    1.6840    4.4450   -0.1980 N   0  0  0  0  0  0  0  0  0  0  0  0
    2.3160    3.3380   -0.8130 C   0  0  0  0  0  0  0  0  0  0  0  0
    3.1870    3.5880   -1.6860 O   0  0  0  0  0  0  0  0  0  0  0  0
    2.0020    2.0170   -0.4790 N   0  0  0  0  0  0  0  0  0  0  0  0
    0.7510    1.6670    0.7760 P   0  0  0  0  0  0  0  0  0  0  0  0
    0.7350   -0.2240    0.8380 C   0  0  0  0  0  0  0  0  0  0  0  0
    2.0490   -0.6350    0.9420 O   0  0  0  0  0  0  0  0  0  0  0  0
    2.4770   -0.9770   -0.3530 C   0  0  1  0  0  0  0  0  0  0  0  0
    3.7260   -1.7340   -0.2250 C   0  0  0  0  0  0  0  0  0  0  0  0
    4.2400   -1.9780    0.9020 O   0  0  0  0  0  0  0  0  0  0  0  0
    4.4330   -2.2350   -1.3210 O   0  0  0  0  0  0  0  0  0  0  0  0
    5.6340   -2.9590   -1.1450 C   0  0  0  0  0  0  0  0  0  0  0  0
    1.4830   -1.6140   -1.0290 O   0  0  0  0  0  0  0  0  0  0  0  0
    1.0280   -3.1640   -0.6340 P   0  0  0  0  0  0  0  0  0  0  0  0
    2.0470   -4.0410    0.4050 O   0  0  0  0  0  0  0  0  0  0  0  0
   -0.6770   -3.4780   -0.3830 O   0  0  0  0  0  0  0  0  0  0  0  0
   -1.6780   -2.7250    0.2270 C   0  0  0  0  0  0  0  0  0  0  0  0
   -2.1770   -3.3640    1.3740 C   0  0  0  0  0  0  0  0  0  0  0  0
   -3.1620   -2.8150    2.1560 C   0  0  0  0  0  0  0  0  0  0  0  0
   -3.6300   -1.5900    1.7400 C   0  0  0  0  0  0  0  0  0  0  0  0
   -3.1590   -0.9150    0.5960 C   0  0  0  0  0  0  0  0  0  0  0  0
   -2.1770   -1.4940   -0.1670 C   0  0  0  0  0  0  0  0  0  0  0  0
   -3.8320    0.4110    0.4860 C   0  0  1  0  0  0  0  0  0  0  0  0
   -4.9020    0.4310   -0.5740 C   0  0  0  0  0  0  0  0  0  0  0  0
   -5.6530    1.5910   -0.4190 O   0  0  0  0  0  0  0  0  0  0  0  0
   -4.8050    0.8570    2.0530 P   0  0  0  0  0  0  0  0  0  0  0  0
   -3.9150    1.2050    3.2940 O   0  0  0  0  0  0  0  0  0  0  0  0
   -3.0030    1.5720    0.3210 N   0  0  0  0  0  0  0  0  0  0  0  0
   -2.9570    2.2720   -1.2850 P   0  0  0  0  0  0  0  0  0  0  0  0
   -2.5460    1.2020   -2.5350 O   0  0  0  0  0  0  0  0  0  0  0  0
   -4.1220    3.4540   -1.6450 O   0  0  0  0  0  0  0  0  0  0  0  0
   -1.7490    1.4120    0.8170 O   0  0  0  0  0  0  0  0  0  0  0  0
   -0.8490    2.1070    0.2010 O   0  0  0  0  0  0  0  0  0  0  0  0
    2.8080    0.6440   -1.2610 P   0  0  0  0  0  0  0  0  0  0  0  0
    4.5100    0.8910   -1.4460 O   0  0  0  0  0  0  0  0  0  0  0  0
    4.9890    1.2290   -0.2670 O   0  0  0  0  0  0  0  0  0  0  0  0
    6.2620    1.0080   -0.1400 O   0  0  0  0  0  0  0  0  0  0  0  0
  1  2  2  0
  2  3  1  0
  3  4  2  0
  3  5  1  0
  5  6  1  0
  5 35  1  0
  6  7  1  0
  6 34  1  0
  7  8  1  0
  8  9  1  0
  9 10  1  1
  9 14  1  0
  9 35  1  0
 10 11  2  0
 10 12  1  0
 12 13  1  0
 14 15  1  0
 15 16  1  0
 15 17  1  0
 17 18  1  0
 18 19  2  0
 18 23  1  0
 19 20  1  0
 20 21  2  0
 21 22  1  0
 22 23  2  0
 22 24  1  0
 24 25  1  6
 24 27  1  0
 24 29  1  0
 25 26  1  0
 27 28  2  0
 29 30  1  0
 29 33  1  0
 30 31  1  0
 30 32  1  0
 33 34  1  0
 35 36  1  0
 36 37  1  0
 37 38  1  0
M  END
