
     RDKit          3D

 38 43  0  0  0  0  0  0  0  0999 V2000
    1.6640    1.4170    2.7480 C   0  0  0  0  0  0  0  0  0  0  0  0
    0.4820    1.9180    2.2570 O   0  0  0  0  0  0  0  0  0  0  0  0
    0.5030    2.2670    0.9460 C   0  0  0  0  0  0  0  0  0  0  0  0
    0.7760    1.2320   -0.0810 C   0  0  1  0  0  0  0  0  0  0  0  0
    1.0970    2.0820   -1.3470 C   0  0  0  0  0  0  0  0  0  0  0  0
    2.0270    0.6870    0.2290 O   0  0  0  0  0  0  0  0  0  0  0  0
    2.5930    0.3150   -1.3990 P   0  0  0  0  0  0  0  0  0  0  0  0
    4.2060   -1.1120   -1.4490 P   0  0  0  0  0  0  0  0  0  0  0  0
    5.3290   -0.7430   -2.7270 O   0  0  0  0  0  0  0  0  0  0  0  0
    3.3470   -2.7370   -1.7720 C   0  0  0  0  0  0  0  0  0  0  0  0
    2.2140   -2.7690   -0.7850 C   0  0  1  0  0  0  0  0  0  0  0  0
    2.4850   -1.9710    0.3520 O   0  0  0  0  0  0  0  0  0  0  0  0
    0.9980   -2.4280   -1.2540 O   0  0  0  0  0  0  0  0  0  0  0  0
    0.6790   -0.8390   -1.6880 P   0  0  0  0  0  0  0  0  0  0  0  0
   -0.2320    0.1960   -0.3620 C   0  0  2  0  0  0  0  0  0  0  0  0
   -1.4040    0.7260   -1.1570 C   0  0  2  0  0  0  0  0  0  0  0  0
   -1.2410    1.8690   -1.8470 O   0  0  0  0  0  0  0  0  0  0  0  0
   -1.8030    1.8600   -3.4710 P   0  0  0  0  0  0  0  0  0  0  0  0
   -0.4470    2.5330   -4.5500 C   0  0  0  0  0  0  0  0  0  0  0  0
   -3.1620    2.9300   -3.6310 O   0  0  0  0  0  0  0  0  0  0  0  0
   -2.8330    0.7710    0.0280 P   0  0  0  0  0  0  0  0  0  0  0  0
   -3.0540    2.2290    0.8710 O   0  0  0  0  0  0  0  0  0  0  0  0
   -3.4520    1.8660    2.1060 O   0  0  0  0  0  0  0  0  0  0  0  0
   -2.4840    1.3860    2.7960 O   0  0  0  0  0  0  0  0  0  0  0  0
   -2.2100    0.0290    2.6370 C   0  0  1  0  0  0  0  0  0  0  0  0
   -1.2670   -0.3510    3.6880 C   0  0  0  0  0  0  0  0  0  0  0  0
   -0.7840   -1.4960    3.7310 O   0  0  0  0  0  0  0  0  0  0  0  0
   -0.8850    0.5490    4.6680 O   0  0  0  0  0  0  0  0  0  0  0  0
   -3.4890   -0.5680    2.9400 O   0  0  0  0  0  0  0  0  0  0  0  0
   -3.2800   -1.8390    3.2220 O   0  0  0  0  0  0  0  0  0  0  0  0
   -2.8980   -2.4630    2.0430 C   0  0  0  0  0  0  0  0  0  0  0  0
   -2.4370   -1.6730    1.0020 N   0  0  0  0  0  0  0  0  0  0  0  0
   -1.9170   -0.3540    1.2620 C   0  0  1  0  0  0  0  0  0  0  0  0
   -0.6770   -0.5980    0.6960 N   0  0  0  0  0  0  0  0  0  0  0  0
   -1.1790   -1.9390    0.3460 C   0  0  2  0  0  0  0  0  0  0  0  0
   -1.4840   -2.1170   -1.0070 O   0  0  0  0  0  0  0  0  0  0  0  0
   -0.5380   -3.0250    0.9980 N   0  0  0  0  0  0  0  0  0  0  0  0
   -0.7710   -4.1240    0.6090 O   0  0  0  0  0  0  0  0  0  0  0  0
  1  2  1  0
  2  3  1  0
  3  4  1  0
  4  5  1  6
  4  6  1  0
  4 15  1  0
  6  7  1  0
  7  8  1  0
  7 14  1  0
  8  9  1  0
  8 10  1  0
 10 11  1  0
 11 12  1  1
 11 13  1  0
 13 14  1  0
 14 15  1  0
 15 16  1  0
 15 34  1  1
 16 17  1  1
 16 21  1  0
 17 18  1  0
 18 19  1  0
 18 20  1  0
 21 22  1  0
 21 33  1  0
 22 23  1  0
 23 24  1  0
 24 25  1  0
 25 26  1  1
 25 29  1  0
 25 33  1  0
 26 27  2  0
 26 28  1  0
 29 30  1  0
 30 31  1  0
 31 32  1  0
 33 32  1  1
 32 35  1  0
 33 34  1  0
 34 35  1  0
 35 36  1  6
 35 37  1  0
 37 38  2  0
M  END
