
     RDKit          3D

 38 38  0  0  0  0  0  0  0  0999 V2000
    2.2030    4.2930    0.4350 C   0  0  0  0  0  0  0  0  0  0  0  0
    2.5400    2.8990    0.7370 N   0  0  0  0  0  0  0  0  0  0  0  0
    3.6510    2.3690    0.1210 N   0  0  0  0  0  0  0  0  0  0  0  0
    3.9600    1.1440    0.1780 C   0  0  0  0  0  0  0  0  0  0  0  0
    4.3350    0.5470   -0.9140 C   0  0  0  0  0  0  0  0  0  0  0  0
    5.4780    0.9870   -1.5890 O   0  0  0  0  0  0  0  0  0  0  0  0
    6.4720    1.6540   -0.8200 C   0  0  0  0  0  0  0  0  0  0  0  0
    7.0520    0.4760    0.4890 P   0  0  0  0  0  0  0  0  0  0  0  0
    7.5830   -1.0070   -0.2450 O   0  0  0  0  0  0  0  0  0  0  0  0
    8.2800    1.1900    1.4730 O   0  0  0  0  0  0  0  0  0  0  0  0
    3.5900   -0.5210   -1.3900 O   0  0  0  0  0  0  0  0  0  0  0  0
    2.5060   -1.0450   -0.6050 C   0  0  0  0  0  0  0  0  0  0  0  0
    1.7080   -1.7840   -1.4500 O   0  0  0  0  0  0  0  0  0  0  0  0
    0.3930   -1.8780   -1.0350 C   0  0  1  0  0  0  0  0  0  0  0  0
    0.2930   -2.3680    0.3670 C   0  0  2  0  0  0  0  0  0  0  0  0
    0.9190   -1.5390    1.2870 O   0  0  0  0  0  0  0  0  0  0  0  0
    1.0790   -4.0580    0.5590 P   0  0  0  0  0  0  0  0  0  0  0  0
   -0.4060   -0.6130   -1.2780 C   0  0  0  0  0  0  0  0  0  0  0  0
   -1.8630   -0.5180   -0.2200 P   0  0  0  0  0  0  0  0  0  0  0  0
   -3.2200   -1.4220   -0.7220 O   0  0  0  0  0  0  0  0  0  0  0  0
   -3.0620   -2.7000   -0.7290 O   0  0  0  0  0  0  0  0  0  0  0  0
   -3.9150   -3.4000    0.0950 C   0  0  2  0  0  0  0  0  0  0  0  0
   -5.3800   -3.1740   -0.2820 C   0  0  0  0  0  0  0  0  0  0  0  0
   -3.7810   -3.0420    1.5490 C   0  0  0  0  0  0  0  0  0  0  0  0
   -3.5190   -5.2080   -0.0830 P   0  0  0  0  0  0  0  0  0  0  0  0
   -2.2670    1.0990    0.3990 N   0  0  0  0  0  0  0  0  0  0  0  0
   -3.2380    1.8560   -0.3140 C   0  0  0  0  0  0  0  0  0  0  0  0
   -3.7900    1.3970   -1.3470 O   0  0  0  0  0  0  0  0  0  0  0  0
   -3.6470    3.1310    0.0590 O   0  0  0  0  0  0  0  0  0  0  0  0
   -4.5980    3.8540   -0.6520 C   0  0  0  0  0  0  0  0  0  0  0  0
   -5.1250    3.3510   -1.6830 O   0  0  0  0  0  0  0  0  0  0  0  0
   -4.9930    5.1430   -0.2500 N   0  0  0  0  0  0  0  0  0  0  0  0
   -5.9180    5.8880   -0.9130 O   0  0  0  0  0  0  0  0  0  0  0  0
   -1.6780    1.6770    1.5670 C   0  0  0  0  0  0  0  0  0  0  0  0
   -2.4330    2.3600    2.3530 O   0  0  0  0  0  0  0  0  0  0  0  0
   -0.3150    1.4980    1.8360 O   0  0  0  0  0  0  0  0  0  0  0  0
    0.6590    1.9200    0.9920 O   0  0  0  0  0  0  0  0  0  0  0  0
    1.7700    2.1800    1.5970 O   0  0  0  0  0  0  0  0  0  0  0  0
  1  2  1  0
  2  3  1  0
  2 38  1  0
  3  4  2  0
  4  5  2  0
  5  6  1  0
  5 11  1  0
  6  7  1  0
  7  8  1  0
  8  9  1  0
  8 10  1  0
 11 12  1  0
 12 13  1  0
 13 14  1  0
 14 15  1  0
 14 18  1  1
 15 16  1  1
 15 17  1  0
 18 19  1  0
 19 20  1  0
 19 26  1  0
 20 21  1  0
 21 22  1  0
 22 23  1  6
 22 24  1  0
 22 25  1  0
 26 27  1  0
 26 34  1  0
 27 28  2  0
 27 29  1  0
 29 30  1  0
 30 31  2  0
 30 32  1  0
 32 33  1  0
 34 35  2  0
 34 36  1  0
 36 37  1  0
 37 38  1  0
M  END
