
     RDKit          3D

 38 40  0  0  0  0  0  0  0  0999 V2000
    8.0160    0.5590    0.0350 C   0  0  0  0  0  0  0  0  0  0  0  0
    7.0120    0.2780    1.0250 N   0  0  0  0  0  0  0  0  0  0  0  0
    7.3280   -0.4850    2.0840 O   0  0  0  0  0  0  0  0  0  0  0  0
    5.7180    0.7920    0.8900 C   0  0  0  0  0  0  0  0  0  0  0  0
    5.4270    1.5060   -0.1040 O   0  0  0  0  0  0  0  0  0  0  0  0
    4.6900    0.5710    1.7960 O   0  0  0  0  0  0  0  0  0  0  0  0
    3.4360    1.1080    1.6040 N   0  0  0  0  0  0  0  0  0  0  0  0
    2.9250    0.8340   -0.0560 P   0  0  0  0  0  0  0  0  0  0  0  0
    2.3080    2.3350   -0.9170 C   0  0  0  0  0  0  0  0  0  0  0  0
    1.5720    3.1900   -0.0670 O   0  0  0  0  0  0  0  0  0  0  0  0
    0.3230    2.8120    0.4670 C   0  0  0  0  0  0  0  0  0  0  0  0
    0.1640    3.2110    1.6750 O   0  0  0  0  0  0  0  0  0  0  0  0
   -0.5380    2.1120   -0.2820 O   0  0  0  0  0  0  0  0  0  0  0  0
   -1.4280    2.3480   -1.2600 C   0  0  0  0  0  0  0  0  0  0  0  0
   -1.2430    2.0470   -2.4680 O   0  0  0  0  0  0  0  0  0  0  0  0
   -3.0350    3.1500   -0.9000 P   0  0  0  0  0  0  0  0  0  0  0  0
   -2.7430    4.6320   -0.0600 O   0  0  0  0  0  0  0  0  0  0  0  0
   -3.0690    5.6870   -0.7860 O   0  0  0  0  0  0  0  0  0  0  0  0
   -3.9410    1.9750    0.1500 N   0  0  0  0  0  0  0  0  0  0  0  0
   -4.8470    2.6990    0.8680 O   0  0  0  0  0  0  0  0  0  0  0  0
   -3.0250    1.4110    0.9520 O   0  0  0  0  0  0  0  0  0  0  0  0
   -3.2170   -0.2710    1.2040 P   0  0  0  0  0  0  0  0  0  0  0  0
   -4.9940   -0.5660    1.7220 C   0  0  0  0  0  0  0  0  0  0  0  0
   -2.9130   -1.2580   -0.3140 C   0  0  2  0  0  0  0  0  0  0  0  0
   -3.4550   -2.5940   -0.1550 N   0  0  0  0  0  0  0  0  0  0  0  0
   -4.5330   -3.2320   -0.8850 C   0  0  0  0  0  0  0  0  0  0  0  0
   -5.0390   -4.2870    0.0730 C   0  0  0  0  0  0  0  0  0  0  0  0
   -4.0000   -4.4670    0.9970 O   0  0  0  0  0  0  0  0  0  0  0  0
   -2.9820   -3.5500    0.8050 C   0  0  0  0  0  0  0  0  0  0  0  0
   -1.8390   -3.5310    1.3570 O   0  0  0  0  0  0  0  0  0  0  0  0
   -1.1590   -1.2710   -0.8640 P   0  0  0  0  0  0  0  0  0  0  0  0
   -0.0570   -1.8410    0.3070 O   0  0  0  0  0  0  0  0  0  0  0  0
    0.8990   -0.9430    0.7070 C   0  0  0  0  0  0  0  0  0  0  0  0
    1.9630   -0.6810   -0.3370 C   0  0  2  0  0  0  0  0  0  0  0  0
    2.7940   -1.9340   -0.5580 C   0  0  0  0  0  0  0  0  0  0  0  0
    2.0320   -2.1110   -1.7390 O   0  0  0  0  0  0  0  0  0  0  0  0
    1.5340   -0.8240   -1.7420 C   0  0  0  0  0  0  0  0  0  0  0  0
    0.9670   -0.1170   -2.5950 O   0  0  0  0  0  0  0  0  0  0  0  0
  1  2  1  0
  2  3  1  0
  2  4  1  0
  4  5  2  0
  4  6  1  0
  6  7  1  0
  7  8  1  0
  8  9  1  0
  8 34  1  0
  9 10  1  0
 10 11  1  0
 11 12  2  0
 11 13  1  0
 13 14  1  0
 14 15  2  0
 14 16  1  0
 16 17  1  0
 16 19  1  0
 17 18  1  0
 19 20  1  0
 19 21  1  0
 21 22  1  0
 22 23  1  0
 22 24  1  0
 24 25  1  1
 24 31  1  0
 25 26  1  0
 25 29  1  0
 26 27  1  0
 27 28  1  0
 28 29  1  0
 29 30  2  0
 31 32  1  0
 32 33  1  0
 34 33  1  1
 34 35  1  0
 34 37  1  0
 35 36  1  0
 36 37  1  0
 37 38  2  0
M  END
