
     RDKit          3D

 38 39  0  0  0  0  0  0  0  0999 V2000
   -3.0620    0.9720    3.1340 C   0  0  0  0  0  0  0  0  0  0  0  0
   -2.2460    0.7580    2.0050 O   0  0  0  0  0  0  0  0  0  0  0  0
   -1.3980   -0.3260    1.8750 C   0  0  0  0  0  0  0  0  0  0  0  0
   -1.3610   -1.1550    2.8150 O   0  0  0  0  0  0  0  0  0  0  0  0
   -0.5810   -0.4590    0.6490 C   0  0  2  0  0  0  0  0  0  0  0  0
   -0.9510   -1.7730    0.0330 C   0  0  0  0  0  0  0  0  0  0  0  0
   -0.7530   -2.8100    0.7150 O   0  0  0  0  0  0  0  0  0  0  0  0
   -1.4870   -1.9140   -1.2180 O   0  0  0  0  0  0  0  0  0  0  0  0
   -1.8450   -3.1250   -1.8270 C   0  0  1  0  0  0  0  0  0  0  0  0
   -3.3170   -3.2090   -2.1490 C   0  0  0  0  0  0  0  0  0  0  0  0
   -1.0800   -3.3480   -2.9510 O   0  0  0  0  0  0  0  0  0  0  0  0
   -0.0760   -4.7670   -2.7880 P   0  0  0  0  0  0  0  0  0  0  0  0
    0.0150   -5.4160   -1.3700 O   0  0  0  0  0  0  0  0  0  0  0  0
    0.8840   -0.5670    1.0200 C   0  0  0  0  0  0  0  0  0  0  0  0
    1.7590   -0.0490   -0.0520 C   0  0  0  0  0  0  0  0  0  0  0  0
    3.0200   -0.4090   -0.0780 C   0  0  0  0  0  0  0  0  0  0  0  0
    3.5100   -1.2750    0.9090 N   0  0  0  0  0  0  0  0  0  0  0  0
    3.8280   -1.0350    2.1020 C   0  0  0  0  0  0  0  0  0  0  0  0
    3.7210    0.2330    2.6300 O   0  0  0  0  0  0  0  0  0  0  0  0
    3.8290    1.6120    1.5560 P   0  0  0  0  0  0  0  0  0  0  0  0
    2.7800    2.8740    2.1560 O   0  0  0  0  0  0  0  0  0  0  0  0
    4.1290    0.2270   -1.4220 P   0  0  0  0  0  0  0  0  0  0  0  0
    5.5950   -0.3480   -1.6640 N   0  0  0  0  0  0  0  0  0  0  0  0
    6.3290   -1.6450   -0.6910 P   0  0  0  0  0  0  0  0  0  0  0  0
    6.8280   -1.0810    0.8550 O   0  0  0  0  0  0  0  0  0  0  0  0
    5.1370   -2.8870   -0.4760 O   0  0  0  0  0  0  0  0  0  0  0  0
    1.2650    0.8240   -1.0500 N   0  0  0  0  0  0  0  0  0  0  0  0
    0.0200    1.1520   -1.1340 C   0  0  0  0  0  0  0  0  0  0  0  0
   -0.4630    2.0660   -2.1890 C   0  0  0  0  0  0  0  0  0  0  0  0
   -1.7140    2.4120   -2.2960 C   0  0  0  0  0  0  0  0  0  0  0  0
   -2.7200    1.8930   -1.3450 C   0  0  0  0  0  0  0  0  0  0  0  0
   -3.9850    2.4260   -1.6690 O   0  0  0  0  0  0  0  0  0  0  0  0
   -3.8250    3.7170   -2.0590 N   0  0  0  0  0  0  0  0  0  0  0  0
   -5.0030    4.3460   -1.9250 O   0  0  0  0  0  0  0  0  0  0  0  0
   -5.0810    4.9970   -0.7800 O   0  0  0  0  0  0  0  0  0  0  0  0
   -3.4130    3.6760   -3.3670 O   0  0  0  0  0  0  0  0  0  0  0  0
   -2.1180    3.2740   -3.3040 O   0  0  0  0  0  0  0  0  0  0  0  0
   -0.8460    0.6140   -0.1980 O   0  0  0  0  0  0  0  0  0  0  0  0
  1  2  1  0
  2  3  1  0
  3  4  2  0
  5  3  1  1
  5  6  1  0
  5 14  1  0
  5 38  1  0
  6  7  2  0
  6  8  1  0
  8  9  1  0
  9 10  1  6
  9 11  1  0
 11 12  1  0
 12 13  2  0
 14 15  1  0
 15 16  2  3
 15 27  1  0
 16 17  1  0
 16 22  1  0
 17 18  2  3
 18 19  1  0
 19 20  1  0
 20 21  1  0
 22 23  2  3
 23 24  1  0
 24 25  1  0
 24 26  1  0
 27 28  2  0
 28 29  1  0
 28 38  1  0
 29 30  2  3
 30 31  1  0
 30 37  1  0
 31 32  1  0
 32 33  1  0
 33 34  1  0
 33 36  1  0
 34 35  1  0
 36 37  1  0
M  END
