
     RDKit          3D

 15 15  0  0  0  0  0  0  0  0999 V2000
    3.5250   -1.0360    0.8860 O   0  0  0  0  0  0  0  0  0  0  0  0
    4.1830   -0.0130    0.5410 C   0  0  0  0  0  0  0  0  0  0  0  0
    5.5540    0.0210    0.5670 O   0  0  0  0  0  0  0  0  0  0  0  0
    3.4710    1.0850    0.1300 O   0  0  0  0  0  0  0  0  0  0  0  0
    2.0810    1.1370    0.0720 C   0  0  0  0  0  0  0  0  0  0  0  0
    1.4690    0.1170   -0.8430 C   0  0  0  0  0  0  0  0  0  0  0  0
   -0.0650    0.3460   -0.7610 C   0  0  0  0  0  0  0  0  0  0  0  0
   -0.3910    0.1550    0.5440 O   0  0  0  0  0  0  0  0  0  0  0  0
   -1.6650    0.3330    0.9650 C   0  0  0  0  0  0  0  0  0  0  0  0
   -2.6360   -0.5860    0.2870 C   0  0  2  0  0  0  0  0  0  0  0  0
   -2.7350   -0.4170   -1.0630 O   0  0  0  0  0  0  0  0  0  0  0  0
   -4.0470   -0.3850   -1.3780 O   0  0  0  0  0  0  0  0  0  0  0  0
   -4.7700   -0.1200   -0.2440 C   0  0  0  0  0  0  0  0  0  0  0  0
   -5.9780    0.2260   -0.1790 O   0  0  0  0  0  0  0  0  0  0  0  0
   -3.9170   -0.3040    0.8370 O   0  0  0  0  0  0  0  0  0  0  0  0
  1  2  2  0
  2  3  1  0
  2  4  1  0
  4  5  1  0
  5  6  1  0
  6  7  1  0
  7  8  1  0
  8  9  1  0
 10  9  1  1
 10 11  1  0
 10 15  1  0
 11 12  1  0
 12 13  1  0
 13 14  2  0
 13 15  1  0
M  END
