
     RDKit          3D

 15 15  0  0  0  0  0  0  0  0999 V2000
    5.8650    1.8380    0.6820 O   0  0  0  0  0  0  0  0  0  0  0  0
    4.9440    1.0160    1.2120 O   0  0  0  0  0  0  0  0  0  0  0  0
    4.0640    0.8340    0.2620 O   0  0  0  0  0  0  0  0  0  0  0  0
    3.8330   -0.5120    0.0800 C   0  0  0  0  0  0  0  0  0  0  0  0
    2.8740   -0.6280   -1.1040 C   0  0  0  0  0  0  0  0  0  0  0  0
    1.8200    0.2560   -0.8770 O   0  0  0  0  0  0  0  0  0  0  0  0
    1.1230   -0.0350    0.2170 C   0  0  0  0  0  0  0  0  0  0  0  0
   -0.0190   -0.9380    0.1690 C   0  0  0  0  0  0  0  0  0  0  0  0
   -1.1250   -0.3590   -0.5040 O   0  0  0  0  0  0  0  0  0  0  0  0
   -2.1040   -0.6790    0.3630 O   0  0  0  0  0  0  0  0  0  0  0  0
   -3.3630   -0.4310    0.0430 C   0  0  2  0  0  0  0  0  0  0  0  0
   -3.6270    0.9130   -0.6280 C   0  0  0  0  0  0  0  0  0  0  0  0
   -4.9280    1.2170   -0.2200 O   0  0  0  0  0  0  0  0  0  0  0  0
   -5.3300    0.2060    0.6300 C   0  0  0  0  0  0  0  0  0  0  0  0
   -4.1440   -0.2800    1.1820 O   0  0  0  0  0  0  0  0  0  0  0  0
  1  2  1  0
  2  3  1  0
  3  4  1  0
  4  5  1  0
  5  6  1  0
  6  7  1  0
  7  8  1  0
  8  9  1  0
  9 10  1  0
 11 10  1  1
 11 12  1  0
 11 15  1  0
 12 13  1  0
 13 14  1  0
 14 15  1  0
M  END
