
     RDKit          3D

 18 18  0  0  0  0  0  0  0  0999 V2000
   -6.1740   -1.9790   -0.0460 O   0  0  0  0  0  0  0  0  0  0  0  0
   -5.0960   -1.3060   -0.0190 C   0  0  0  0  0  0  0  0  0  0  0  0
   -4.3600   -1.2510    1.1030 N   0  0  0  0  0  0  0  0  0  0  0  0
   -3.2000   -0.5350    1.1550 C   0  0  0  0  0  0  0  0  0  0  0  0
   -2.2730   -0.4850    2.6250 Cl  0  0  0  0  0  0  0  0  0  0  0  0
   -2.7440    0.1580    0.0520 C   0  0  0  0  0  0  0  0  0  0  0  0
   -1.5110    0.9440    0.0360 C   0  0  0  0  0  0  0  0  0  0  0  0
   -0.2720    0.0840   -0.0500 C   0  0  0  0  0  0  0  0  0  0  0  0
    0.9450    1.0040   -0.0600 C   0  0  0  0  0  0  0  0  0  0  0  0
    2.1510    0.1380   -0.1440 C   0  0  0  0  0  0  0  0  0  0  0  0
    3.3410    0.8450   -0.1610 O   0  0  0  0  0  0  0  0  0  0  0  0
    4.6320    0.0340   -0.2400 P   0  0  0  0  0  0  0  0  0  0  0  0
    4.4350   -0.4870   -1.7130 O   0  0  0  0  0  0  0  0  0  0  0  0
    5.4920    1.4580    0.0590 O   0  0  0  0  0  0  0  0  0  0  0  0
    4.1400   -0.8650    1.0960 O   0  0  0  0  0  0  0  0  0  0  0  0
   -3.5190    0.0820   -1.0820 C   0  0  0  0  0  0  0  0  0  0  0  0
   -3.1660    0.6860   -2.1220 O   0  0  0  0  0  0  0  0  0  0  0  0
   -4.6560   -0.6330   -1.0960 N   0  0  0  0  0  0  0  0  0  0  0  0
  1  2  2  0
  2  3  1  0
  2 18  1  0
  3  4  1  0
  4  5  1  0
  4  6  2  0
  6  7  1  0
  6 16  1  0
  7  8  1  0
  8  9  1  0
  9 10  1  0
 10 11  1  0
 11 12  1  0
 12 13  1  0
 12 14  1  0
 12 15  1  0
 16 17  2  0
 16 18  1  0
M  END
