
     RDKit          3D

 14 14  0  0  0  0  0  0  0  0999 V2000
    4.4430   -0.3560    1.0890 O   0  0  0  0  0  0  0  0  0  0  0  0
    3.6820    0.0070    0.1050 O   0  0  0  0  0  0  0  0  0  0  0  0
    2.5810    0.7630    0.5360 C   0  0  0  0  0  0  0  0  0  0  0  0
    1.7160    1.1700   -0.6320 C   0  0  0  0  0  0  0  0  0  0  0  0
    1.1780   -0.0230   -1.3760 C   0  0  0  0  0  0  0  0  0  0  0  0
    0.4130   -0.8330   -0.6230 O   0  0  0  0  0  0  0  0  0  0  0  0
   -0.7260   -0.4070   -0.0580 C   0  0  2  0  0  0  0  0  0  0  0  0
   -0.6290    0.6370    0.8270 O   0  0  0  0  0  0  0  0  0  0  0  0
   -1.7710    0.9840    1.3240 O   0  0  0  0  0  0  0  0  0  0  0  0
   -2.1770    2.1810    0.9130 O   0  0  0  0  0  0  0  0  0  0  0  0
   -1.3590   -1.6320    0.6330 C   0  0  0  0  0  0  0  0  0  0  0  0
   -2.7830   -1.1950    0.6890 C   0  0  0  0  0  0  0  0  0  0  0  0
   -2.9810   -0.1610   -0.1800 O   0  0  0  0  0  0  0  0  0  0  0  0
   -1.8500   -0.0840   -1.0140 C   0  0  0  0  0  0  0  0  0  0  0  0
  1  2  1  0
  2  3  1  0
  3  4  1  0
  4  5  1  0
  5  6  1  0
  7  6  1  6
  7  8  1  0
  7 11  1  0
  7 14  1  0
  8  9  1  0
  9 10  1  0
 11 12  1  0
 12 13  1  0
 13 14  1  0
M  END
