
     RDKit          3D

 14 14  0  0  0  0  0  0  0  0999 V2000
    4.3270    1.6110    0.6620 O   0  0  0  0  0  0  0  0  0  0  0  0
    4.2040    0.3000    0.4950 O   0  0  0  0  0  0  0  0  0  0  0  0
    2.8840   -0.0070    0.1650 C   0  0  0  0  0  0  0  0  0  0  0  0
    2.7140   -1.4850    0.0500 C   0  0  0  0  0  0  0  0  0  0  0  0
    1.3830   -1.9230   -0.4480 C   0  0  0  0  0  0  0  0  0  0  0  0
    0.3540   -1.4290    0.3330 O   0  0  0  0  0  0  0  0  0  0  0  0
   -0.3230   -0.4430   -0.3100 C   0  0  1  0  0  0  0  0  0  0  0  0
   -1.7820   -0.9110   -0.5750 C   0  0  0  0  0  0  0  0  0  0  0  0
   -2.2640    0.2960   -1.0130 O   0  0  0  0  0  0  0  0  0  0  0  0
   -1.7940    1.2030   -0.0710 C   0  0  1  0  0  0  0  0  0  0  0  0
   -2.8990    1.1490    1.0440 C   0  0  0  0  0  0  0  0  0  0  0  0
   -4.0340    0.9230    0.2640 O   0  0  0  0  0  0  0  0  0  0  0  0
   -4.8950    1.8950    0.2310 O   0  0  0  0  0  0  0  0  0  0  0  0
   -0.6150    0.7090    0.3950 O   0  0  0  0  0  0  0  0  0  0  0  0
  1  2  1  0
  2  3  1  0
  3  4  1  0
  4  5  1  0
  5  6  1  0
  7  6  1  1
  7  8  1  0
  7 14  1  0
  8  9  1  0
  9 10  1  0
 10 11  1  1
 10 14  1  0
 11 12  1  0
 12 13  1  0
M  END
