
     RDKit          3D

 18 19  0  0  0  0  0  0  0  0999 V2000
    5.8890   -0.9610   -0.2250 C   0  0  0  0  0  0  0  0  0  0  0  0
    4.7750   -0.1030   -0.4630 O   0  0  0  0  0  0  0  0  0  0  0  0
    3.4860   -0.4750   -0.1000 C   0  0  0  0  0  0  0  0  0  0  0  0
    3.3100   -1.5790    0.4440 O   0  0  0  0  0  0  0  0  0  0  0  0
    2.3550    0.3620   -0.3260 N   0  0  0  0  0  0  0  0  0  0  0  0
    1.0880   -0.0890    0.0720 C   0  0  0  0  0  0  0  0  0  0  0  0
    0.7490   -1.6460    0.8510 S   0  0  0  0  0  0  0  0  0  0  0  0
   -0.9500   -1.4820    1.0230 C   0  0  0  0  0  0  0  0  0  0  0  0
   -1.2170   -0.1900    0.4570 C   0  0  0  0  0  0  0  0  0  0  0  0
   -0.1770    0.4730   -0.0060 C   0  0  0  0  0  0  0  0  0  0  0  0
   -0.3100    1.8300   -0.6160 C   0  0  0  0  0  0  0  0  0  0  0  0
    0.6730    2.4520   -1.0480 O   0  0  0  0  0  0  0  0  0  0  0  0
   -1.5310    2.4660   -0.7310 O   0  0  0  0  0  0  0  0  0  0  0  0
   -1.6410    3.7550   -1.3120 C   0  0  0  0  0  0  0  0  0  0  0  0
   -2.7020    0.0880    0.5390 C   0  0  0  0  0  0  0  0  0  0  0  0
   -3.4650   -1.1140    0.0100 C   0  0  0  0  0  0  0  0  0  0  0  0
   -3.2220   -2.3180    0.7260 N   0  0  0  0  0  0  0  0  0  0  0  0
   -2.0760   -2.2930    1.5730 C   0  0  0  0  0  0  0  0  0  0  0  0
  1  2  1  0
  2  3  1  0
  3  4  2  0
  3  5  1  0
  5  6  1  0
  6  7  1  0
  6 10  2  0
  7  8  1  0
  8  9  2  0
  8 18  1  0
  9 10  1  0
  9 15  1  0
 10 11  1  0
 11 12  2  0
 11 13  1  0
 13 14  1  0
 15 16  1  0
 16 17  1  0
 17 18  1  0
M  END
