
     RDKit          3D

 24 27  0  0  0  0  0  0  0  0999 V2000
   -0.6660    0.4110   -1.0800 O   0  0  0  0  0  0  0  0  0  0  0  0
   -0.2610   -0.1430    0.1450 C   0  0  2  0  0  0  0  0  0  0  0  0
    1.1710   -0.5140   -0.0010 C   0  0  0  0  0  0  0  0  0  0  0  0
    1.6060   -1.8050    0.0990 C   0  0  0  0  0  0  0  0  0  0  0  0
    2.9460   -2.1030   -0.0200 C   0  0  0  0  0  0  0  0  0  0  0  0
    3.5010   -3.7750    0.1110 Cl  0  0  0  0  0  0  0  0  0  0  0  0
    3.8480   -1.0920   -0.2420 C   0  0  0  0  0  0  0  0  0  0  0  0
    3.4660    0.2330   -0.3520 C   0  0  0  0  0  0  0  0  0  0  0  0
    4.4450    1.2820   -0.5870 C   0  0  0  0  0  0  0  0  0  0  0  0
    4.2680    2.6050   -0.7210 N   0  0  0  0  0  0  0  0  0  0  0  0
    5.4510    3.2160   -0.9290 C   0  0  0  0  0  0  0  0  0  0  0  0
    6.4080    2.2320   -0.9240 C   0  0  0  0  0  0  0  0  0  0  0  0
    5.7640    1.0710   -0.7150 N   0  0  0  0  0  0  0  0  0  0  0  0
    2.1170    0.4770   -0.2260 C   0  0  0  0  0  0  0  0  0  0  0  0
   -1.1020   -1.3250    0.4450 C   0  0  1  0  0  0  0  0  0  0  0  0
   -1.0000   -1.7120    1.9400 C   0  0  0  0  0  0  0  0  0  0  0  0
   -2.1390   -2.7200    1.9890 C   0  0  0  0  0  0  0  0  0  0  0  0
   -3.1830   -2.1300    1.0230 C   0  0  0  0  0  0  0  0  0  0  0  0
   -2.5260   -0.9880    0.4640 N   0  0  0  0  0  0  0  0  0  0  0  0
   -3.0830    0.2120    0.0190 C   0  0  0  0  0  0  0  0  0  0  0  0
   -3.4290    0.5230   -1.2420 C   0  0  0  0  0  0  0  0  0  0  0  0
   -3.9880    1.9120   -1.2760 C   0  0  0  0  0  0  0  0  0  0  0  0
   -4.5050    2.0170    0.0960 N   0  0  0  0  0  0  0  0  0  0  0  0
   -3.4160    1.4120    0.8270 C   0  0  0  0  0  0  0  0  0  0  0  0
  2  1  1  6
  2  3  1  0
  2 15  1  0
  3  4  2  0
  3 14  1  0
  4  5  1  0
  5  6  1  0
  5  7  2  0
  7  8  1  0
  8  9  1  0
  8 14  2  0
  9 10  2  0
  9 13  1  0
 10 11  1  0
 11 12  2  0
 12 13  1  0
 15 16  1  1
 15 19  1  0
 16 17  1  0
 17 18  1  0
 18 19  1  0
 19 20  1  0
 20 21  2  0
 20 24  1  0
 21 22  1  0
 22 23  1  0
 23 24  1  0
M  CHG  1  23   1
M  END
