
     RDKit          3D

 20 19  0  0  0  0  0  0  0  0999 V2000
   -4.6560   -0.1070    0.6680 N   0  0  0  0  0  0  0  0  0  0  0  0
   -4.1730    0.0930   -0.6930 C   0  0  2  0  0  0  0  0  0  0  0  0
   -3.3810   -1.0530   -1.1930 C   0  0  0  0  0  0  0  0  0  0  0  0
   -2.1800   -1.4740   -0.4320 C   0  0  0  0  0  0  0  0  0  0  0  0
   -1.0730   -0.5460   -0.2930 C   0  0  0  0  0  0  0  0  0  0  0  0
   -1.0130    0.5410   -0.8660 O   0  0  0  0  0  0  0  0  0  0  0  0
    0.0370   -0.8660    0.5490 N   0  0  0  0  0  0  0  0  0  0  0  0
    1.1570   -0.0200    0.7430 C   0  0  1  0  0  0  0  0  0  0  0  0
    1.3550    0.4660    2.1500 C   0  0  0  0  0  0  0  0  0  0  0  0
   -0.1170    1.4100    2.6550 S   0  0  0  0  0  0  0  0  0  0  0  0
    2.4120   -0.6140    0.2090 C   0  0  0  0  0  0  0  0  0  0  0  0
    2.3570   -1.7470   -0.3310 O   0  0  0  0  0  0  0  0  0  0  0  0
    3.6720    0.0290    0.2770 N   0  0  0  0  0  0  0  0  0  0  0  0
    4.8910   -0.5490   -0.2420 C   0  0  0  0  0  0  0  0  0  0  0  0
    5.9910    0.4150    0.0130 C   0  0  0  0  0  0  0  0  0  0  0  0
    5.7930    1.5220    0.5900 O   0  0  0  0  0  0  0  0  0  0  0  0
    7.3030    0.1540   -0.3690 O   0  0  0  0  0  0  0  0  0  0  0  0
   -3.6140    1.4070   -0.9470 C   0  0  0  0  0  0  0  0  0  0  0  0
   -3.3670    2.2790   -0.0610 O   0  0  0  0  0  0  0  0  0  0  0  0
   -3.3280    1.7430   -2.2790 O   0  0  0  0  0  0  0  0  0  0  0  0
  2  1  1  1
  2  3  1  0
  2 18  1  0
  3  4  1  0
  4  5  1  0
  5  6  2  0
  5  7  1  0
  7  8  1  0
  8  9  1  1
  8 11  1  0
  9 10  1  0
 11 12  2  0
 11 13  1  0
 13 14  1  0
 14 15  1  0
 15 16  2  0
 15 17  1  0
 18 19  2  0
 18 20  1  0
M  CHG  1   1   1
M  END
