
     RDKit          3D

 23 26  0  0  0  0  0  0  0  0999 V2000
   -5.3380   -2.1420    0.3870 C   0  0  0  0  0  0  0  0  0  0  0  0
   -4.3310   -1.2100   -0.1810 C   0  0  0  0  0  0  0  0  0  0  0  0
   -4.4530   -0.5480   -1.3440 N   0  0  0  0  0  0  0  0  0  0  0  0
   -3.3830    0.2010   -1.5650 N   0  0  0  0  0  0  0  0  0  0  0  0
   -3.1000    1.0740   -2.6950 C   0  0  0  0  0  0  0  0  0  0  0  0
   -2.5420    0.0150   -0.5050 C   0  0  0  0  0  0  0  0  0  0  0  0
   -3.1090   -0.8590    0.3710 C   0  0  0  0  0  0  0  0  0  0  0  0
   -2.4040   -1.2350    1.6060 C   0  0  0  0  0  0  0  0  0  0  0  0
   -1.5260   -0.0700    2.0060 C   0  0  0  0  0  0  0  0  0  0  0  0
   -0.5450    0.0450    0.9040 N   0  0  2  0  0  0  0  0  0  0  0  0
    0.5430    0.8580    1.3820 C   0  0  0  0  0  0  0  0  0  0  0  0
    1.8380    0.6150    0.7340 C   0  0  0  0  0  0  0  0  0  0  0  0
    2.0100   -0.3230   -0.2620 C   0  0  0  0  0  0  0  0  0  0  0  0
    3.2380   -0.5200   -0.8430 C   0  0  0  0  0  0  0  0  0  0  0  0
    4.2990    0.2410   -0.4090 C   0  0  0  0  0  0  0  0  0  0  0  0
    4.1290    1.1960    0.6050 C   0  0  0  0  0  0  0  0  0  0  0  0
    5.5260    2.1450    1.1240 Cl  0  0  0  0  0  0  0  0  0  0  0  0
    2.9060    1.3980    1.1890 C   0  0  0  0  0  0  0  0  0  0  0  0
    2.7130    2.3700    2.2270 N   0  0  0  0  0  0  0  0  0  0  0  0
    5.4770   -0.1710   -1.1980 C   0  0  0  0  0  0  0  0  0  0  0  0
    5.1550   -1.4080   -1.6850 O   0  0  0  0  0  0  0  0  0  0  0  0
    3.7770   -1.4190   -1.9090 C   0  0  0  0  0  0  0  0  0  0  0  0
   -1.2130    0.6010   -0.2290 C   0  0  0  0  0  0  0  0  0  0  0  0
  1  2  1  0
  2  3  2  0
  2  7  1  0
  3  4  1  0
  4  5  1  0
  4  6  1  0
  6  7  2  0
  6 23  1  0
  7  8  1  0
  8  9  1  0
  9 10  1  0
 10 11  1  1
 10 23  1  0
 11 12  1  0
 12 13  2  0
 12 18  1  0
 13 14  1  0
 14 15  2  0
 14 22  1  0
 15 16  1  0
 15 20  1  0
 16 17  1  0
 16 18  2  0
 18 19  1  0
 20 21  1  0
 21 22  1  0
M  CHG  1  10   1
M  END
