
     RDKit          3D

 18 18  0  0  0  0  0  0  0  0999 V2000
   -4.3260   -1.1410    3.7990 C   0  0  0  0  0  0  0  0  0  0  0  0
   -4.1040   -1.1940    2.5190 C   0  0  0  0  0  0  0  0  0  0  0  0
   -3.2420   -0.3380    1.7910 C   0  0  0  0  0  0  0  0  0  0  0  0
   -2.8440   -0.3760    0.5310 C   0  0  0  0  0  0  0  0  0  0  0  0
   -1.9790    0.5600    0.0140 N   0  0  0  0  0  0  0  0  0  0  0  0
   -0.6400    0.0100   -0.7520 C   0  0  0  0  0  0  0  0  0  0  0  0
   -0.7100   -1.0310   -0.7140 O   0  0  0  0  0  0  0  0  0  0  0  0
   -0.1480    1.3790   -1.0330 N   0  0  0  0  0  0  0  0  0  0  0  0
    1.3260    0.7220   -1.7190 C   0  0  0  0  0  0  0  0  0  0  0  0
    1.3320   -0.4530   -1.7340 O   0  0  0  0  0  0  0  0  0  0  0  0
    2.1450    1.6870   -2.0800 O   0  0  0  0  0  0  0  0  0  0  0  0
    3.4540    1.2440   -2.6280 C   0  0  0  0  0  0  0  0  0  0  0  0
    4.1110    0.5170   -1.4550 C   0  0  0  0  0  0  0  0  0  0  0  0
    4.2710    1.3790   -0.4140 O   0  0  0  0  0  0  0  0  0  0  0  0
    4.7980    0.8700    0.7500 C   0  0  0  0  0  0  0  0  0  0  0  0
   -3.4200   -1.4120   -0.3160 C   0  0  0  0  0  0  0  0  0  0  0  0
   -4.2740   -2.3040   -0.0260 C   0  0  0  0  0  0  0  0  0  0  0  0
   -4.9700   -2.4630    1.5990 S   0  0  0  0  0  0  0  0  0  0  0  0
  1  2  2  0
  2  3  1  0
  2 18  1  0
  3  4  2  0
  4  5  1  0
  4 16  1  0
  5  6  1  0
  6  7  2  0
  6  8  1  0
  8  9  1  0
  9 10  2  0
  9 11  1  0
 11 12  1  0
 12 13  1  0
 13 14  1  0
 14 15  1  0
 16 17  2  0
 17 18  1  0
M  END
