
     RDKit          3D

 18 19  0  0  0  0  0  0  0  0999 V2000
   -3.3560   -0.8500    1.4100 C   0  0  0  0  0  0  0  0  0  0  0  0
   -2.7360   -0.4990    0.1830 O   0  0  0  0  0  0  0  0  0  0  0  0
   -3.3140    0.3670   -0.7230 C   0  0  0  0  0  0  0  0  0  0  0  0
   -4.4300    0.8920   -0.4980 O   0  0  0  0  0  0  0  0  0  0  0  0
   -2.6180    0.6890   -1.9820 C   0  0  0  0  0  0  0  0  0  0  0  0
   -1.3700    0.0510   -1.9890 O   0  0  0  0  0  0  0  0  0  0  0  0
   -0.3500    0.2830   -1.0830 C   0  0  0  0  0  0  0  0  0  0  0  0
   -0.4510    1.2130   -0.0460 C   0  0  0  0  0  0  0  0  0  0  0  0
    0.6110    1.3850    0.8200 C   0  0  0  0  0  0  0  0  0  0  0  0
    1.7420    0.6170    0.6140 C   0  0  0  0  0  0  0  0  0  0  0  0
    2.8470    0.7510    1.4620 C   0  0  0  0  0  0  0  0  0  0  0  0
    2.8050    1.5710    2.4060 O   0  0  0  0  0  0  0  0  0  0  0  0
    3.9330   -0.0090    1.2380 N   0  0  0  0  0  0  0  0  0  0  0  0
    3.9900   -0.8950    0.2250 C   0  0  0  0  0  0  0  0  0  0  0  0
    5.3230   -1.8210   -0.0410 S   0  0  0  0  0  0  0  0  0  0  0  0
    2.9630   -1.0570   -0.6070 N   0  0  0  0  0  0  0  0  0  0  0  0
    1.8520   -0.2990   -0.4020 C   0  0  0  0  0  0  0  0  0  0  0  0
    0.7900   -0.4690   -1.2640 C   0  0  0  0  0  0  0  0  0  0  0  0
  1  2  1  0
  2  3  1  0
  3  4  2  0
  3  5  1  0
  5  6  1  0
  6  7  1  0
  7  8  2  0
  7 18  1  0
  8  9  1  0
  9 10  2  0
 10 11  1  0
 10 17  1  0
 11 12  2  0
 11 13  1  0
 13 14  1  0
 14 15  2  0
 14 16  1  0
 16 17  1  0
 17 18  2  0
M  END
