
     RDKit          3D

 18 19  0  0  0  0  0  0  0  0999 V2000
   -0.6220    1.8710    0.9040 O   0  0  0  0  0  0  0  0  0  0  0  0
   -0.7820    0.7690    0.3570 C   0  0  0  0  0  0  0  0  0  0  0  0
    0.3470   -0.0070    0.0090 N   0  0  0  0  0  0  0  0  0  0  0  0
    1.7030    0.3260    0.2120 C   0  0  0  0  0  0  0  0  0  0  0  0
    2.1700    1.4790    0.8000 C   0  0  0  0  0  0  0  0  0  0  0  0
    3.5560    1.6490    0.9250 C   0  0  0  0  0  0  0  0  0  0  0  0
    4.4570    0.7210    0.4900 C   0  0  0  0  0  0  0  0  0  0  0  0
    5.8310    0.9070    0.6240 O   0  0  0  0  0  0  0  0  0  0  0  0
    3.9780   -0.3970   -0.0800 N   0  0  0  0  0  0  0  0  0  0  0  0
    2.6600   -0.6010   -0.2200 C   0  0  0  0  0  0  0  0  0  0  0  0
    2.1000   -2.0720   -0.9690 S   0  0  2  0  0  0  0  0  0  0  0  0
    1.5300   -2.9880    0.0790 O   0  0  0  0  0  0  0  0  0  0  0  0
    3.2720   -2.7180   -1.6470 O   0  0  0  0  0  0  0  0  0  0  0  0
   -2.1540    0.2740    0.0740 C   0  0  0  0  0  0  0  0  0  0  0  0
   -2.4580   -0.8570   -0.4910 C   0  0  0  0  0  0  0  0  0  0  0  0
   -3.9460   -1.0090   -0.6100 C   0  0  0  0  0  0  0  0  0  0  0  0
   -4.3970   -0.1040    0.5440 C   0  0  0  0  0  0  0  0  0  0  0  0
   -3.3850    1.0280    0.4080 C   0  0  0  0  0  0  0  0  0  0  0  0
  1  2  2  0
  2  3  1  0
  2 14  1  0
  3  4  1  0
  4  5  2  0
  4 10  1  0
  5  6  1  0
  6  7  2  0
  7  8  1  0
  7  9  1  0
  9 10  2  0
 11 10  1  1
 11 12  2  0
 11 13  2  0
 14 15  2  0
 14 18  1  0
 15 16  1  0
 16 17  1  0
 17 18  1  0
M  END
