
     RDKit          3D

 24 26  0  0  0  0  0  0  0  0999 V2000
   -3.7520    1.3400    2.7100 C   0  0  0  0  0  0  0  0  0  0  0  0
   -3.9550    1.0040    1.4550 C   0  0  0  0  0  0  0  0  0  0  0  0
   -2.8770    0.6220    0.5530 C   0  0  0  0  0  0  0  0  0  0  0  0
   -3.0660    0.2820   -0.7100 C   0  0  0  0  0  0  0  0  0  0  0  0
   -2.0010   -0.0740   -1.5240 C   0  0  0  0  0  0  0  0  0  0  0  0
   -0.7210   -0.0580   -0.9540 N   0  0  0  0  0  0  0  0  0  0  0  0
   -0.2720   -0.9700   -0.1540 C   0  0  0  0  0  0  0  0  0  0  0  0
   -1.1690   -2.0380    0.1370 N   0  0  0  0  0  0  0  0  0  0  0  0
    1.0370   -0.9140    0.4030 N   0  0  0  0  0  0  0  0  0  0  0  0
    1.2610   -1.6900    1.6130 C   0  0  0  0  0  0  0  0  0  0  0  0
    2.4330   -1.0120    2.3280 C   0  0  0  0  0  0  0  0  0  0  0  0
    3.6110   -1.1990    1.3610 C   0  0  0  0  0  0  0  0  0  0  0  0
    3.4280   -0.3940    0.1120 C   0  0  2  0  0  0  0  0  0  0  0  0
    4.1300    0.7900    0.0890 O   0  0  0  0  0  0  0  0  0  0  0  0
    5.0930    0.9100   -0.8640 C   0  0  0  0  0  0  0  0  0  0  0  0
    5.7370    2.2750   -0.7170 C   0  0  0  0  0  0  0  0  0  0  0  0
    2.0150   -0.1180   -0.2510 C   0  0  0  0  0  0  0  0  0  0  0  0
   -2.2620   -0.4190   -2.8330 C   0  0  0  0  0  0  0  0  0  0  0  0
   -3.5380   -0.4200   -3.3530 C   0  0  0  0  0  0  0  0  0  0  0  0
   -4.5510   -0.0720   -2.5440 N   0  0  0  0  0  0  0  0  0  0  0  0
   -4.3370    0.2760   -1.2420 C   0  0  0  0  0  0  0  0  0  0  0  0
   -5.3830    0.6060   -0.5110 C   0  0  0  0  0  0  0  0  0  0  0  0
   -6.9780    0.5720   -1.2750 Cl  0  0  0  0  0  0  0  0  0  0  0  0
   -5.3330    1.0090    0.9150 C   0  0  0  0  0  0  0  0  0  0  0  0
  1  2  2  0
  2  3  1  0
  2 24  1  0
  3  4  2  0
  4  5  1  0
  4 21  1  0
  5  6  1  0
  5 18  2  0
  6  7  2  3
  7  8  1  0
  7  9  1  0
  9 10  1  0
  9 17  1  0
 10 11  1  0
 11 12  1  0
 12 13  1  0
 13 14  1  1
 13 17  1  0
 14 15  1  0
 15 16  1  0
 18 19  1  0
 19 20  2  0
 20 21  1  0
 21 22  2  0
 22 23  1  0
 22 24  1  0
M  CHG  1   6   1
M  END
