
     RDKit          3D

 18 19  0  0  0  0  0  0  0  0999 V2000
    2.1050    1.9310    0.0620 C   0  0  0  0  0  0  0  0  0  0  0  0
    2.5900    0.5230   -0.0660 C   0  0  0  0  0  0  0  0  0  0  0  0
    1.7390   -0.5180    0.1580 C   0  0  0  0  0  0  0  0  0  0  0  0
    0.3290   -0.3830    0.5300 C   0  0  0  0  0  0  0  0  0  0  0  0
   -0.4770   -0.0040   -0.6740 C   0  0  0  0  0  0  0  0  0  0  0  0
   -1.9590    0.1520   -0.3270 C   0  0  0  0  0  0  0  0  0  0  0  0
   -2.4150   -0.0280    0.8600 C   0  0  0  0  0  0  0  0  0  0  0  0
   -3.8710    0.1490    1.0850 C   0  0  0  0  0  0  0  0  0  0  0  0
   -4.4560    0.0010   -0.6070 S   0  0  1  0  0  0  0  0  0  0  0  0
   -4.7490   -1.4140   -0.9620 O   0  0  0  0  0  0  0  0  0  0  0  0
   -5.5920    0.9340   -0.8760 O   0  0  0  0  0  0  0  0  0  0  0  0
   -2.9440    0.5310   -1.3770 C   0  0  0  0  0  0  0  0  0  0  0  0
    2.2660   -1.7640    0.0190 N   0  0  0  0  0  0  0  0  0  0  0  0
    3.5520   -1.9460   -0.3200 C   0  0  0  0  0  0  0  0  0  0  0  0
    4.0610   -3.1030   -0.4550 O   0  0  0  0  0  0  0  0  0  0  0  0
    4.3680   -0.9180   -0.5350 N   0  0  0  0  0  0  0  0  0  0  0  0
    3.9240    0.3290   -0.4180 C   0  0  0  0  0  0  0  0  0  0  0  0
    4.6430    1.3480   -0.6070 O   0  0  0  0  0  0  0  0  0  0  0  0
  1  2  1  0
  2  3  2  0
  2 17  1  0
  3  4  1  0
  3 13  1  0
  4  5  1  0
  5  6  1  0
  6  7  2  0
  6 12  1  0
  7  8  1  0
  9  8  1  1
  9 10  2  0
  9 11  2  0
  9 12  1  0
 13 14  1  0
 14 15  2  0
 14 16  1  0
 16 17  1  0
 17 18  2  0
M  END
