
     RDKit          3D

 25 26  0  0  0  0  0  0  0  0999 V2000
    1.2360    4.0420   -1.5810 C   0  0  0  0  0  0  0  0  0  0  0  0
    1.0950    2.7250   -1.4740 C   0  0  0  0  0  0  0  0  0  0  0  0
   -0.2170    2.0490   -1.4340 C   0  0  0  0  0  0  0  0  0  0  0  0
   -0.5870    1.4070   -0.1550 C   0  0  0  0  0  0  0  0  0  0  0  0
   -1.8040    1.6680    0.3560 C   0  0  0  0  0  0  0  0  0  0  0  0
   -2.6460    2.5560   -0.3920 O   0  0  0  0  0  0  0  0  0  0  0  0
   -2.4000    1.1870    1.5600 C   0  0  0  0  0  0  0  0  0  0  0  0
   -2.6420    2.1010    2.4650 O   0  0  0  0  0  0  0  0  0  0  0  0
   -2.7770   -0.0580    1.9700 O   0  0  0  0  0  0  0  0  0  0  0  0
   -3.6650   -0.9690    1.4020 C   0  0  0  0  0  0  0  0  0  0  0  0
   -3.2190   -2.3940    1.3750 C   0  0  0  0  0  0  0  0  0  0  0  0
   -3.3600   -2.8510    0.0710 O   0  0  0  0  0  0  0  0  0  0  0  0
   -2.1900   -2.9810   -0.6300 C   0  0  0  0  0  0  0  0  0  0  0  0
   -1.4130   -1.6670   -0.7230 C   0  0  0  0  0  0  0  0  0  0  0  0
   -0.6950   -1.5510    0.4500 O   0  0  0  0  0  0  0  0  0  0  0  0
    0.3740   -0.7050    0.7510 C   0  0  0  0  0  0  0  0  0  0  0  0
    0.4410    0.5610    0.4990 C   0  0  0  0  0  0  0  0  0  0  0  0
    1.7880    1.0420    0.9490 C   0  0  0  0  0  0  0  0  0  0  0  0
    2.1660    2.2440    1.0970 O   0  0  0  0  0  0  0  0  0  0  0  0
    2.6300   -0.1550    1.1980 C   0  0  2  0  0  0  0  0  0  0  0  0
    3.3150   -0.5190   -0.0200 N   0  0  0  0  0  0  0  0  0  0  0  0
    4.6980   -0.7210   -0.1220 C   0  0  0  0  0  0  0  0  0  0  0  0
    5.2490   -1.0760   -1.3800 N   0  0  0  0  0  0  0  0  0  0  0  0
    5.4200   -0.5810    0.9120 O   0  0  0  0  0  0  0  0  0  0  0  0
    1.5780   -1.1260    1.4050 N   0  0  0  0  0  0  0  0  0  0  0  0
  1  2  2  0
  2  3  1  0
  3  4  1  0
  4  5  2  0
  4 17  1  0
  5  6  1  0
  5  7  1  0
  7  8  2  0
  7  9  1  0
  9 10  1  0
 10 11  1  0
 11 12  1  0
 12 13  1  0
 13 14  1  0
 14 15  1  0
 15 16  1  0
 16 17  2  0
 16 25  1  0
 17 18  1  0
 18 19  2  0
 18 20  1  0
 20 21  1  6
 20 25  1  0
 21 22  1  0
 22 23  1  0
 22 24  2  0
M  END
