
     RDKit          3D

 25 26  0  0  0  0  0  0  0  0999 V2000
   -5.4980    1.1500   -1.5360 C   0  0  0  0  0  0  0  0  0  0  0  0
   -4.5660    0.3720   -0.6450 C   0  0  1  0  0  0  0  0  0  0  0  0
   -3.7080    1.2490   -0.0250 O   0  0  0  0  0  0  0  0  0  0  0  0
   -5.3700   -0.4570    0.3600 C   0  0  0  0  0  0  0  0  0  0  0  0
   -4.4890   -1.2540    1.2900 C   0  0  0  0  0  0  0  0  0  0  0  0
   -3.2400   -1.9610    0.6200 C   0  0  2  0  0  0  0  0  0  0  0  0
   -2.2460   -0.8940    0.8800 C   0  0  0  0  0  0  0  0  0  0  0  0
   -2.0460   -0.1340    1.8700 O   0  0  0  0  0  0  0  0  0  0  0  0
   -1.3240   -0.6340   -0.2820 O   0  0  0  0  0  0  0  0  0  0  0  0
   -0.4670    0.4230   -0.2070 C   0  0  0  0  0  0  0  0  0  0  0  0
    0.7330    0.7660    0.4480 C   0  0  0  0  0  0  0  0  0  0  0  0
    1.1080    1.8030    1.0200 O   0  0  0  0  0  0  0  0  0  0  0  0
    1.8770   -0.4920    0.4300 N   0  0  0  0  0  0  0  0  0  0  0  0
    2.9310    0.5290    0.5870 C   0  0  0  0  0  0  0  0  0  0  0  0
    3.4860    1.3880    0.6400 O   0  0  0  0  0  0  0  0  0  0  0  0
    4.1730   -0.6040    0.7710 N   0  0  0  0  0  0  0  0  0  0  0  0
    5.4250   -0.0150    0.5070 C   0  0  0  0  0  0  0  0  0  0  0  0
    5.8370    0.1540   -0.7520 C   0  0  0  0  0  0  0  0  0  0  0  0
    7.1400    0.8370   -1.0790 C   0  0  0  0  0  0  0  0  0  0  0  0
    8.0220    0.8460   -0.0060 O   0  0  0  0  0  0  0  0  0  0  0  0
    7.7110    0.7140    1.3020 C   0  0  0  0  0  0  0  0  0  0  0  0
    6.3580    0.2800    1.5650 C   0  0  0  0  0  0  0  0  0  0  0  0
   -3.5550   -1.9000   -0.8100 N   0  0  0  0  0  0  0  0  0  0  0  0
   -3.8790   -0.6870   -1.4880 C   0  0  0  0  0  0  0  0  0  0  0  0
   -3.5480   -0.4700   -2.7120 O   0  0  0  0  0  0  0  0  0  0  0  0
  2  1  1  6
  2  3  1  0
  2  4  1  0
  2 24  1  0
  4  5  1  0
  5  6  1  0
  6  7  1  6
  6 23  1  0
  7  8  2  0
  7  9  1  0
  9 10  1  0
 10 11  1  0
 11 12  2  0
 11 13  1  0
 13 14  1  0
 14 15  2  0
 14 16  1  0
 16 17  1  0
 17 18  2  0
 17 22  1  0
 18 19  1  0
 19 20  1  0
 20 21  1  0
 21 22  2  0
 23 24  1  0
 24 25  2  0
M  END
