
     RDKit          3D

 25 26  0  0  0  0  0  0  0  0999 V2000
    7.5650    0.8440   -0.3190 C   0  0  0  0  0  0  0  0  0  0  0  0
    6.4510    1.4330    0.5280 C   0  0  0  0  0  0  0  0  0  0  0  0
    5.1750    1.0220    0.0820 O   0  0  0  0  0  0  0  0  0  0  0  0
    4.8790   -0.3300    0.0690 C   0  0  0  0  0  0  0  0  0  0  0  0
    5.7650   -1.1310    0.4570 O   0  0  0  0  0  0  0  0  0  0  0  0
    3.5450   -0.8270   -0.3930 C   0  0  1  0  0  0  0  0  0  0  0  0
    2.8800   -1.4550    0.8130 C   0  0  0  0  0  0  0  0  0  0  0  0
    2.1950   -0.2750    1.4440 C   0  0  0  0  0  0  0  0  0  0  0  0
    2.2070    0.7780    0.3750 C   0  0  2  0  0  0  0  0  0  0  0  0
    0.8150    1.2640    0.0330 C   0  0  0  0  0  0  0  0  0  0  0  0
    0.0570    0.1060   -0.4150 N   0  0  0  0  0  0  0  0  0  0  0  0
   -1.2960    0.2900   -0.8000 C   0  0  0  0  0  0  0  0  0  0  0  0
   -1.8330    1.4480   -0.7540 O   0  0  0  0  0  0  0  0  0  0  0  0
   -2.0280   -0.8670   -1.2400 N   0  0  0  0  0  0  0  0  0  0  0  0
   -3.3970   -0.7770   -1.6290 C   0  0  0  0  0  0  0  0  0  0  0  0
   -4.2920   -0.3740   -0.5170 C   0  0  0  0  0  0  0  0  0  0  0  0
   -3.8770   -0.1940    0.7030 C   0  0  0  0  0  0  0  0  0  0  0  0
   -4.8060    0.2140    1.7890 C   0  0  2  0  0  0  0  0  0  0  0  0
   -4.6990   -0.7780    2.8430 N   0  0  0  0  0  0  0  0  0  0  0  0
   -6.1060    0.3610    1.3430 O   0  0  0  0  0  0  0  0  0  0  0  0
   -6.5620    0.1760    0.0620 C   0  0  0  0  0  0  0  0  0  0  0  0
   -7.9170    0.3580   -0.2830 O   0  0  0  0  0  0  0  0  0  0  0  0
   -5.7200   -0.1810   -0.8790 C   0  0  0  0  0  0  0  0  0  0  0  0
   -6.1390   -0.3830   -2.2090 O   0  0  0  0  0  0  0  0  0  0  0  0
    2.7500    0.2300   -0.7660 O   0  0  0  0  0  0  0  0  0  0  0  0
  1  2  1  0
  2  3  1  0
  3  4  1  0
  4  5  2  0
  6  4  1  1
  6  7  1  0
  6 25  1  0
  7  8  1  0
  8  9  1  0
  9 10  1  6
  9 25  1  0
 10 11  1  0
 11 12  1  0
 12 13  2  0
 12 14  1  0
 14 15  1  0
 15 16  1  0
 16 17  2  0
 16 23  1  0
 17 18  1  0
 18 19  1  1
 18 20  1  0
 20 21  1  0
 21 22  1  0
 21 23  2  0
 23 24  1  0
M  END
