
     RDKit          3D

 25 26  0  0  0  0  0  0  0  0999 V2000
   -2.2080    2.7330    1.2020 C   0  0  0  0  0  0  0  0  0  0  0  0
   -2.7560    1.7000    0.4600 O   0  0  0  0  0  0  0  0  0  0  0  0
   -2.7910    0.4690    1.0390 C   0  0  2  0  0  0  0  0  0  0  0  0
   -1.4140   -0.0710    1.3850 C   0  0  0  0  0  0  0  0  0  0  0  0
   -0.6680   -0.1620    0.1380 N   0  0  0  0  0  0  0  0  0  0  0  0
    0.6600   -0.6450    0.1610 C   0  0  0  0  0  0  0  0  0  0  0  0
    1.1820   -0.9770    1.2870 O   0  0  0  0  0  0  0  0  0  0  0  0
    1.4720   -0.7950   -1.0090 N   0  0  0  0  0  0  0  0  0  0  0  0
    2.7980   -1.2410   -0.9350 C   0  0  0  0  0  0  0  0  0  0  0  0
    3.0070   -2.5300   -0.5640 C   0  0  0  0  0  0  0  0  0  0  0  0
    4.3470   -3.1130   -0.4500 C   0  0  2  0  0  0  0  0  0  0  0  0
    4.9560   -2.8330    0.7890 O   0  0  0  0  0  0  0  0  0  0  0  0
    5.2320   -2.5160   -1.5080 C   0  0  0  0  0  0  0  0  0  0  0  0
    5.2320   -1.1220   -1.3090 O   0  0  0  0  0  0  0  0  0  0  0  0
    3.9410   -0.4710   -1.3280 C   0  0  0  0  0  0  0  0  0  0  0  0
    3.9080    0.7810   -1.6960 C   0  0  0  0  0  0  0  0  0  0  0  0
    2.9370    1.7910   -1.8540 C   0  0  0  0  0  0  0  0  0  0  0  0
    3.3180    2.9600   -2.2970 O   0  0  0  0  0  0  0  0  0  0  0  0
    1.5920    1.7650   -1.6090 O   0  0  0  0  0  0  0  0  0  0  0  0
    0.7470    2.8390   -1.7870 N   0  0  0  0  0  0  0  0  0  0  0  0
   -3.4430   -0.4900    0.0750 C   0  0  0  0  0  0  0  0  0  0  0  0
   -4.8490    0.0770   -0.1710 C   0  0  0  0  0  0  0  0  0  0  0  0
   -5.6080   -0.1200    0.9680 O   0  0  0  0  0  0  0  0  0  0  0  0
   -5.0860    0.6120    2.0500 C   0  0  0  0  0  0  0  0  0  0  0  0
   -3.6360    0.3530    2.2910 C   0  0  0  0  0  0  0  0  0  0  0  0
  1  2  1  0
  2  3  1  0
  3  4  1  1
  3 21  1  0
  3 25  1  0
  4  5  1  0
  5  6  1  0
  6  7  2  0
  6  8  1  0
  8  9  1  0
  9 10  2  0
  9 15  1  0
 10 11  1  0
 11 12  1  1
 11 13  1  0
 13 14  1  0
 14 15  1  0
 15 16  2  3
 16 17  1  0
 17 18  2  0
 17 19  1  0
 19 20  1  0
 21 22  1  0
 22 23  1  0
 23 24  1  0
 24 25  1  0
M  END
