
     RDKit          3D

 25 26  0  0  0  0  0  0  0  0999 V2000
   -3.4390    3.5910   -1.5600 C   0  0  0  0  0  0  0  0  0  0  0  0
   -3.0150    2.1900   -1.8310 C   0  0  0  0  0  0  0  0  0  0  0  0
   -2.7440    1.8170   -3.0020 O   0  0  0  0  0  0  0  0  0  0  0  0
   -2.9290    1.2840   -0.7120 N   0  0  0  0  0  0  0  0  0  0  0  0
   -2.5250   -0.0660   -0.9450 C   0  0  1  0  0  0  0  0  0  0  0  0
   -1.3130   -0.4660   -0.1720 C   0  0  0  0  0  0  0  0  0  0  0  0
   -0.2850    0.2850   -0.2350 N   0  0  0  0  0  0  0  0  0  0  0  0
    0.8450   -0.0270    0.4450 O   0  0  0  0  0  0  0  0  0  0  0  0
    2.0760    0.5320    0.0260 C   0  0  0  0  0  0  0  0  0  0  0  0
    2.1310    1.2980   -0.9480 O   0  0  0  0  0  0  0  0  0  0  0  0
    3.2540    0.2150    0.7250 N   0  0  0  0  0  0  0  0  0  0  0  0
    4.5590    0.6690    0.4610 C   0  0  0  0  0  0  0  0  0  0  0  0
    5.5820    0.1990    1.2730 C   0  0  0  0  0  0  0  0  0  0  0  0
    6.8990    0.5480    1.1450 C   0  0  0  0  0  0  0  0  0  0  0  0
    7.2210    1.4290    0.1330 C   0  0  0  0  0  0  0  0  0  0  0  0
    6.2270    1.9120   -0.6880 C   0  0  0  0  0  0  0  0  0  0  0  0
    4.8920    1.5330   -0.5280 C   0  0  0  0  0  0  0  0  0  0  0  0
   -1.2910   -1.6150    0.5950 O   0  0  0  0  0  0  0  0  0  0  0  0
   -2.4370   -2.1210    1.2510 C   0  0  2  0  0  0  0  0  0  0  0  0
   -2.6160   -3.6100    1.0840 C   0  0  0  0  0  0  0  0  0  0  0  0
   -1.5020   -4.3020    1.6150 O   0  0  0  0  0  0  0  0  0  0  0  0
   -3.6460   -1.3580    0.8170 C   0  0  1  0  0  0  0  0  0  0  0  0
   -3.6460   -0.1600    1.5460 O   0  0  0  0  0  0  0  0  0  0  0  0
   -3.5900   -1.1000   -0.6590 C   0  0  2  0  0  0  0  0  0  0  0  0
   -3.2160   -2.2390   -1.3900 O   0  0  0  0  0  0  0  0  0  0  0  0
  1  2  1  0
  2  3  2  0
  2  4  1  0
  5  4  1  1
  5  6  1  0
  5 24  1  0
  6  7  2  3
  6 18  1  0
  7  8  1  0
  8  9  1  0
  9 10  2  0
  9 11  1  0
 11 12  1  0
 12 13  2  0
 12 17  1  0
 13 14  1  0
 14 15  2  0
 15 16  1  0
 16 17  2  0
 18 19  1  0
 19 20  1  6
 19 22  1  0
 20 21  1  0
 22 23  1  1
 22 24  1  0
 24 25  1  6
M  END
