
     RDKit          3D

 25 26  0  0  0  0  0  0  0  0999 V2000
   -6.8150    1.3210    0.2290 C   0  0  0  0  0  0  0  0  0  0  0  0
   -6.5660    0.1650    0.8540 O   0  0  0  0  0  0  0  0  0  0  0  0
   -5.3210   -0.2550    1.1410 C   0  0  0  0  0  0  0  0  0  0  0  0
   -4.4850   -0.5520   -0.0360 C   0  0  2  0  0  0  0  0  0  0  0  0
   -3.3730   -1.3830    0.2860 N   0  0  0  0  0  0  0  0  0  0  0  0
   -1.9210   -0.9240    0.2030 C   0  0  0  0  0  0  0  0  0  0  0  0
   -1.9240    0.3110    0.1920 O   0  0  0  0  0  0  0  0  0  0  0  0
   -1.1500   -1.9730    0.1010 N   0  0  0  0  0  0  0  0  0  0  0  0
    0.2770   -1.3760    0.9070 C   0  0  0  0  0  0  0  0  0  0  0  0
    0.0510   -0.6220    1.7600 O   0  0  0  0  0  0  0  0  0  0  0  0
    1.4930   -1.9330    0.2900 C   0  0  0  0  0  0  0  0  0  0  0  0
    2.5680   -0.9470    0.3330 C   0  0  1  0  0  0  0  0  0  0  0  0
    2.9910   -0.5240    1.7320 C   0  0  0  0  0  0  0  0  0  0  0  0
    4.4980   -0.9030    1.5970 C   0  0  0  0  0  0  0  0  0  0  0  0
    4.6910   -0.3510    0.2650 C   0  0  0  0  0  0  0  0  0  0  0  0
    5.3360    0.6590   -0.2300 C   0  0  0  0  0  0  0  0  0  0  0  0
    6.0070    1.5400    0.6690 O   0  0  0  0  0  0  0  0  0  0  0  0
    6.6020    2.5610   -0.0140 C   0  0  0  0  0  0  0  0  0  0  0  0
    6.4310    2.4300   -1.3110 C   0  0  0  0  0  0  0  0  0  0  0  0
    5.5830    1.1860   -1.5430 C   0  0  0  0  0  0  0  0  0  0  0  0
    5.2170    0.7840   -2.6500 O   0  0  0  0  0  0  0  0  0  0  0  0
    3.8150   -1.3240   -0.4050 O   0  0  0  0  0  0  0  0  0  0  0  0
   -3.8830    0.7410   -0.5660 C   0  0  0  0  0  0  0  0  0  0  0  0
   -3.8620    1.0430   -1.9280 N   0  0  0  0  0  0  0  0  0  0  0  0
   -3.2960    1.5480    0.2650 O   0  0  0  0  0  0  0  0  0  0  0  0
  1  2  1  0
  2  3  1  0
  4  3  1  1
  4  5  1  0
  4 23  1  0
  5  6  1  0
  6  7  2  0
  6  8  1  0
  8  9  1  0
  9 10  2  0
  9 11  1  0
 12 11  1  1
 12 13  1  0
 12 22  1  0
 13 14  1  0
 14 15  1  0
 15 16  2  3
 15 22  1  0
 16 17  1  0
 16 20  1  0
 17 18  1  0
 18 19  2  0
 19 20  1  0
 20 21  2  0
 23 24  1  0
 23 25  2  0
M  END
