
     RDKit          3D

 25 26  0  0  0  0  0  0  0  0999 V2000
    3.4880   -0.2270    2.1140 C   0  0  0  0  0  0  0  0  0  0  0  0
    4.6420    0.3440    1.3430 C   0  0  0  0  0  0  0  0  0  0  0  0
    4.4940    0.0700   -0.1510 C   0  0  2  0  0  0  0  0  0  0  0  0
    5.6620    0.6650   -0.7090 O   0  0  0  0  0  0  0  0  0  0  0  0
    3.3420    0.7940   -0.7070 C   0  0  0  0  0  0  0  0  0  0  0  0
    3.5710    1.8410   -1.4040 O   0  0  0  0  0  0  0  0  0  0  0  0
    2.0150    0.3750   -0.5020 N   0  0  0  0  0  0  0  0  0  0  0  0
    0.9430    1.1460   -1.0820 C   0  0  0  0  0  0  0  0  0  0  0  0
   -0.3940    0.5580   -0.7630 C   0  0  0  0  0  0  0  0  0  0  0  0
   -1.2070    0.1580   -1.7210 C   0  0  0  0  0  0  0  0  0  0  0  0
   -0.7920    0.2900   -3.1570 C   0  0  0  0  0  0  0  0  0  0  0  0
   -2.4950   -0.4080   -1.4330 C   0  0  2  0  0  0  0  0  0  0  0  0
   -2.8140   -0.4970   -0.0050 C   0  0  0  0  0  0  0  0  0  0  0  0
   -1.9840   -0.0900    0.9150 C   0  0  0  0  0  0  0  0  0  0  0  0
   -2.4140   -0.2310    2.3210 C   0  0  0  0  0  0  0  0  0  0  0  0
   -3.5130   -0.7110    2.6310 O   0  0  0  0  0  0  0  0  0  0  0  0
   -1.5180    0.2070    3.2840 O   0  0  0  0  0  0  0  0  0  0  0  0
   -1.8190    0.1240    4.6610 C   0  0  0  0  0  0  0  0  0  0  0  0
   -0.7630    0.4440    0.5730 O   0  0  0  0  0  0  0  0  0  0  0  0
   -2.6300   -1.7880   -1.9490 N   0  0  0  0  0  0  0  0  0  0  0  0
   -4.0260   -2.0290   -1.9690 C   0  0  0  0  0  0  0  0  0  0  0  0
   -4.5810   -3.1740   -1.8610 O   0  0  0  0  0  0  0  0  0  0  0  0
   -4.6620   -0.7510   -2.1330 N   0  0  0  0  0  0  0  0  0  0  0  0
   -3.6150    0.2200   -2.2050 C   0  0  0  0  0  0  0  0  0  0  0  0
   -3.7040    1.3040   -2.7920 O   0  0  0  0  0  0  0  0  0  0  0  0
  1  2  1  0
  2  3  1  0
  3  4  1  6
  3  5  1  0
  5  6  2  0
  5  7  1  0
  7  8  1  0
  8  9  1  0
  9 10  2  0
  9 19  1  0
 10 11  1  0
 10 12  1  0
 12 13  1  0
 12 20  1  6
 12 24  1  0
 13 14  2  0
 14 15  1  0
 14 19  1  0
 15 16  2  0
 15 17  1  0
 17 18  1  0
 20 21  1  0
 21 22  2  0
 21 23  1  0
 23 24  1  0
 24 25  2  0
M  END
