
     RDKit          3D

 25 26  0  0  0  0  0  0  0  0999 V2000
   -2.9480   -0.4510   -2.2940 C   0  0  0  0  0  0  0  0  0  0  0  0
   -3.8360   -0.4240   -1.0790 C   0  0  1  0  0  0  0  0  0  0  0  0
   -3.2130   -0.9780    0.0590 O   0  0  0  0  0  0  0  0  0  0  0  0
   -2.6090    0.0110    0.8120 C   0  0  0  0  0  0  0  0  0  0  0  0
   -1.5510   -0.1690    1.8710 C   0  0  1  0  0  0  0  0  0  0  0  0
   -2.0570   -1.0460    2.9880 C   0  0  0  0  0  0  0  0  0  0  0  0
   -1.1060   -1.0840    3.9810 O   0  0  0  0  0  0  0  0  0  0  0  0
   -0.3150   -0.6500    1.2950 N   0  0  0  0  0  0  0  0  0  0  0  0
    0.8970    0.0700    1.3320 C   0  0  0  0  0  0  0  0  0  0  0  0
    0.9160    1.1840    1.8900 O   0  0  0  0  0  0  0  0  0  0  0  0
    2.1320   -0.4790    0.7220 C   0  0  0  0  0  0  0  0  0  0  0  0
    2.0780   -1.5810    0.1810 O   0  0  0  0  0  0  0  0  0  0  0  0
    3.3340    0.2370    0.7600 N   0  0  0  0  0  0  0  0  0  0  0  0
    4.5900   -0.1330    0.2350 C   0  0  0  0  0  0  0  0  0  0  0  0
    4.8590   -1.2580   -0.4050 C   0  0  0  0  0  0  0  0  0  0  0  0
    6.2320   -1.4280   -0.8620 C   0  0  0  0  0  0  0  0  0  0  0  0
    6.7840   -2.5490   -0.8370 O   0  0  0  0  0  0  0  0  0  0  0  0
    6.9460   -0.2330   -1.3530 C   0  0  0  0  0  0  0  0  0  0  0  0
    6.4630    0.9460   -0.8140 O   0  0  0  0  0  0  0  0  0  0  0  0
    5.7820    0.7650    0.3750 C   0  0  0  0  0  0  0  0  0  0  0  0
   -3.1250    1.1740    0.4420 C   0  0  0  0  0  0  0  0  0  0  0  0
   -4.1140    0.9520   -0.6020 C   0  0  0  0  0  0  0  0  0  0  0  0
   -5.0430    1.7700   -1.0330 C   0  0  0  0  0  0  0  0  0  0  0  0
   -5.9180    1.3530   -2.0750 N   0  0  0  0  0  0  0  0  0  0  0  0
   -6.5910    2.2500   -2.7980 O   0  0  0  0  0  0  0  0  0  0  0  0
  2  1  1  6
  2  3  1  0
  2 22  1  0
  3  4  1  0
  4  5  1  0
  4 21  2  0
  5  6  1  1
  5  8  1  0
  6  7  1  0
  8  9  1  0
  9 10  2  0
  9 11  1  0
 11 12  2  0
 11 13  1  0
 13 14  1  0
 14 15  2  0
 14 20  1  0
 15 16  1  0
 16 17  2  0
 16 18  1  0
 18 19  1  0
 19 20  1  0
 21 22  1  0
 22 23  2  3
 23 24  1  0
 24 25  1  0
M  END
