
     RDKit          3D

 13 14  0  0  0  0  0  0  0  0999 V2000
   -1.8620   -1.9850    0.1880 N   0  0  0  0  0  0  0  0  0  0  0  0
   -2.1570   -0.6570   -0.3080 C   0  0  0  0  0  0  0  0  0  0  0  0
   -0.9230    0.2110   -0.4040 C   0  0  1  0  0  0  0  0  0  0  0  0
   -1.3470    1.5440   -0.9540 C   0  0  0  0  0  0  0  0  0  0  0  0
   -2.2860    2.1630   -0.1330 O   0  0  0  0  0  0  0  0  0  0  0  0
   -0.1980    0.3140    0.9000 C   0  0  0  0  0  0  0  0  0  0  0  0
    1.2380    0.5750    0.4320 C   0  0  1  0  0  0  0  0  0  0  0  0
    1.5860    1.8750    0.7670 O   0  0  0  0  0  0  0  0  0  0  0  0
    2.1930   -0.4570    0.9310 C   0  0  0  0  0  0  0  0  0  0  0  0
    2.7110   -1.1160   -0.3130 C   0  0  0  0  0  0  0  0  0  0  0  0
    2.3200   -0.3690   -1.3970 O   0  0  0  0  0  0  0  0  0  0  0  0
    1.1860    0.3420   -1.0550 C   0  0  1  0  0  0  0  0  0  0  0  0
    0.0090   -0.3530   -1.2640 O   0  0  0  0  0  0  0  0  0  0  0  0
  1  2  1  0
  3  2  1  1
  3  4  1  0
  3  6  1  0
  3 13  1  0
  4  5  1  0
  6  7  1  0
  7  8  1  6
  7  9  1  0
  7 12  1  0
  9 10  1  0
 10 11  1  0
 12 11  1  1
 12 13  1  0
M  CHG  1   1   1
M  END
