
     RDKit          3D

 12 12  0  0  0  0  0  0  0  0999 V2000
    4.6790    0.5360   -0.2620 O   0  0  0  0  0  0  0  0  0  0  0  0
    3.4410    0.1830   -0.7880 C   0  0  0  0  0  0  0  0  0  0  0  0
    2.3330    0.4890    0.1750 C   0  0  0  0  0  0  0  0  0  0  0  0
    1.0720    0.1020   -0.4210 N   0  0  0  0  0  0  0  0  0  0  0  0
   -0.0210    0.1230    0.5430 C   0  0  1  0  0  0  0  0  0  0  0  0
   -0.9240    1.3000    0.3500 C   0  0  0  0  0  0  0  0  0  0  0  0
   -2.3380    0.8500    0.1980 C   0  0  1  0  0  0  0  0  0  0  0  0
   -3.2550    1.8550    0.0610 O   0  0  0  0  0  0  0  0  0  0  0  0
   -2.3360   -0.1100   -1.0010 C   0  0  0  0  0  0  0  0  0  0  0  0
   -1.7670   -1.4020   -0.4410 C   0  0  0  0  0  0  0  0  0  0  0  0
   -0.6840   -1.1990    0.5470 C   0  0  2  0  0  0  0  0  0  0  0  0
   -1.1040   -1.4830    1.8680 O   0  0  0  0  0  0  0  0  0  0  0  0
  1  2  1  0
  2  3  1  0
  3  4  1  0
  5  4  1  6
  5  6  1  0
  5 11  1  0
  6  7  1  0
  7  8  1  6
  7  9  1  0
  9 10  1  0
 10 11  1  0
 11 12  1  1
M  CHG  1   4   1
M  END
