
     RDKit          3D

 13 14  0  0  0  0  0  0  0  0999 V2000
    2.2810   -1.8280    0.2850 O   0  0  0  0  0  0  0  0  0  0  0  0
    1.7050   -0.9050   -0.6120 C   0  0  1  0  0  0  0  0  0  0  0  0
    0.2810   -1.2940   -0.7930 C   0  0  0  0  0  0  0  0  0  0  0  0
   -0.4210   -0.9530    0.4150 N   0  0  2  0  0  0  0  0  0  0  0  0
   -1.8220   -1.3070    0.3740 C   0  0  0  0  0  0  0  0  0  0  0  0
   -2.5560   -0.0920   -0.1780 C   0  0  0  0  0  0  0  0  0  0  0  0
   -1.5180    0.9910   -0.2440 C   0  0  2  0  0  0  0  0  0  0  0  0
   -1.0540    1.2570   -1.5020 O   0  0  0  0  0  0  0  0  0  0  0  0
   -0.4430    0.4440    0.6880 C   0  0  2  0  0  0  0  0  0  0  0  0
    0.8510    1.1480    0.5800 C   0  0  1  0  0  0  0  0  0  0  0  0
    1.3060    1.4110    1.8950 O   0  0  0  0  0  0  0  0  0  0  0  0
    1.9310    0.4960   -0.1680 C   0  0  2  0  0  0  0  0  0  0  0  0
    2.2410    1.2540   -1.3230 O   0  0  0  0  0  0  0  0  0  0  0  0
  2  1  1  1
  2  3  1  0
  2 12  1  0
  4  3  1  6
  4  5  1  0
  4  9  1  0
  5  6  1  0
  6  7  1  0
  7  8  1  6
  9  7  1  6
  9 10  1  0
 10 11  1  1
 10 12  1  0
 12 13  1  6
M  CHG  1   4   1
M  END
