
     RDKit          3D

 12 13  0  0  0  0  0  0  0  0999 V2000
   -0.9580   -1.3100   -0.9640 N   0  0  0  0  0  0  0  0  0  0  0  0
   -0.9870   -0.7480    0.3700 C   0  0  2  0  0  0  0  0  0  0  0  0
   -2.0010    0.3550    0.3760 C   0  0  0  0  0  0  0  0  0  0  0  0
   -1.4260    1.5750   -0.3020 C   0  0  0  0  0  0  0  0  0  0  0  0
   -1.9800    2.1240   -1.2250 O   0  0  0  0  0  0  0  0  0  0  0  0
   -0.1390    2.0510    0.2380 C   0  0  0  0  0  0  0  0  0  0  0  0
    0.8500    0.9720    0.3690 C   0  0  2  0  0  0  0  0  0  0  0  0
    1.5450    0.5840   -0.9160 C   0  0  0  0  0  0  0  0  0  0  0  0
    1.5100   -0.8080   -0.9890 O   0  0  0  0  0  0  0  0  0  0  0  0
    1.4740   -1.2220    0.3200 C   0  0  2  0  0  0  0  0  0  0  0  0
    1.2710   -2.5430    0.5290 O   0  0  0  0  0  0  0  0  0  0  0  0
    0.3530   -0.3340    0.8770 C   0  0  2  0  0  0  0  0  0  0  0  0
  2  1  1  6
  2  3  1  0
 12  2  1  6
  3  4  1  0
  4  5  2  0
  4  6  1  0
  7  6  1  6
  7  8  1  0
  7 12  1  0
  8  9  1  0
  9 10  1  0
 10 11  1  6
 10 12  1  0
M  CHG  1   1   1
M  END
