
     RDKit          3D

 12 13  0  0  0  0  0  0  0  0999 V2000
   -1.9900    1.6290   -0.2470 N   0  0  0  0  0  0  0  0  0  0  0  0
   -1.2370    0.6020    0.4090 C   0  0  1  0  0  0  0  0  0  0  0  0
   -1.7580   -0.7990    0.0750 C   0  0  1  0  0  0  0  0  0  0  0  0
   -1.6070   -1.0640   -1.2710 O   0  0  0  0  0  0  0  0  0  0  0  0
   -1.1050   -1.7960    0.9760 C   0  0  0  0  0  0  0  0  0  0  0  0
    0.1670   -1.3650    1.4200 O   0  0  0  0  0  0  0  0  0  0  0  0
    0.7820   -0.7750    0.3570 C   0  0  2  0  0  0  0  0  0  0  0  0
    2.2560   -0.5790    0.4940 C   0  0  0  0  0  0  0  0  0  0  0  0
    2.7920    0.5990   -0.2310 C   0  0  0  0  0  0  0  0  0  0  0  0
    2.0380    1.1880   -1.1640 O   0  0  0  0  0  0  0  0  0  0  0  0
    0.6930    1.0750   -1.1350 C   0  0  0  0  0  0  0  0  0  0  0  0
    0.2220    0.6510    0.2100 C   0  0  1  0  0  0  0  0  0  0  0  0
  2  1  1  6
  2  3  1  0
  2 12  1  0
  3  4  1  6
  3  5  1  0
  5  6  1  0
  6  7  1  0
  7  8  1  1
  7 12  1  0
  8  9  1  0
  9 10  1  0
 10 11  1  0
 12 11  1  6
M  CHG  1   1   1
M  END
