
     RDKit          3D

 12 13  0  0  0  0  0  0  0  0999 V2000
   -1.6910   -1.5570    0.2030 N   0  0  0  0  0  0  0  0  0  0  0  0
   -1.0770   -0.3870    0.7200 C   0  0  2  0  0  0  0  0  0  0  0  0
   -2.1850    0.5850    1.1240 C   0  0  0  0  0  0  0  0  0  0  0  0
   -2.3150    1.4970    0.1220 O   0  0  0  0  0  0  0  0  0  0  0  0
   -1.2300    1.4660   -0.7010 C   0  0  0  0  0  0  0  0  0  0  0  0
   -0.2700    0.4240   -0.2180 C   0  0  1  0  0  0  0  0  0  0  0  0
    0.8010    1.1540    0.6070 C   0  0  0  0  0  0  0  0  0  0  0  0
    1.9300    1.4050   -0.1460 O   0  0  0  0  0  0  0  0  0  0  0  0
    2.6600    0.2640   -0.4270 C   0  0  0  0  0  0  0  0  0  0  0  0
    1.7240   -0.9090   -0.6810 C   0  0  1  0  0  0  0  0  0  0  0  0
    1.4580   -1.5350    0.5210 O   0  0  0  0  0  0  0  0  0  0  0  0
    0.4510   -0.3060   -1.2880 C   0  0  0  0  0  0  0  0  0  0  0  0
  2  1  1  6
  2  3  1  0
  2  6  1  0
  3  4  1  0
  4  5  1  0
  6  5  1  6
  6  7  1  0
  6 12  1  0
  7  8  1  0
  8  9  1  0
  9 10  1  0
 10 11  1  1
 10 12  1  0
M  CHG  1   1   1
M  END
