
     RDKit          3D

 12 13  0  0  0  0  0  0  0  0999 V2000
    3.3400   -0.0950    0.0730 C   0  0  0  0  0  0  0  0  0  0  0  0
    1.9010   -0.0090   -0.3420 C   0  0  1  0  0  0  0  0  0  0  0  0
    1.2820   -1.3920   -0.4940 C   0  0  0  0  0  0  0  0  0  0  0  0
   -0.0360   -1.2260   -0.8170 O   0  0  0  0  0  0  0  0  0  0  0  0
   -0.8290   -0.7470    0.2070 C   0  0  2  0  0  0  0  0  0  0  0  0
   -2.0880   -0.1920   -0.4850 C   0  0  1  0  0  0  0  0  0  0  0  0
   -3.0720    0.2060    0.4770 N   0  0  0  0  0  0  0  0  0  0  0  0
   -1.4460    1.0990   -1.0160 C   0  0  0  0  0  0  0  0  0  0  0  0
   -0.8930    1.5850    0.1800 O   0  0  0  0  0  0  0  0  0  0  0  0
   -0.3090    0.5260    0.8230 C   0  0  2  0  0  0  0  0  0  0  0  0
    1.1500    0.6610    0.7630 C   0  0  0  0  0  0  0  0  0  0  0  0
    1.7180    1.3250    1.6280 O   0  0  0  0  0  0  0  0  0  0  0  0
  2  1  1  1
  2  3  1  0
  2 11  1  0
  3  4  1  0
  5  4  1  6
  5  6  1  0
  5 10  1  0
  6  7  1  1
  6  8  1  0
  8  9  1  0
 10  9  1  6
 10 11  1  0
 11 12  2  0
M  CHG  1   7   1
M  END
