
     RDKit          3D

 12 13  0  0  0  0  0  0  0  0999 V2000
   -1.3180   -1.3470   -1.0610 N   0  0  0  0  0  0  0  0  0  0  0  0
   -0.9960   -0.8800    0.2470 C   0  0  2  0  0  0  0  0  0  0  0  0
   -2.0520    0.0770    0.7930 C   0  0  2  0  0  0  0  0  0  0  0  0
   -3.3250   -0.4260    0.7030 O   0  0  0  0  0  0  0  0  0  0  0  0
   -1.9370    1.3470   -0.0260 C   0  0  0  0  0  0  0  0  0  0  0  0
   -0.7180    1.9640    0.1090 O   0  0  0  0  0  0  0  0  0  0  0  0
    0.3640    1.1790   -0.2220 C   0  0  1  0  0  0  0  0  0  0  0  0
    1.5010    1.8130    0.2230 O   0  0  0  0  0  0  0  0  0  0  0  0
    2.6760    1.1990   -0.1110 C   0  0  0  0  0  0  0  0  0  0  0  0
    2.7430   -0.2590    0.2220 C   0  0  0  0  0  0  0  0  0  0  0  0
    1.4670   -0.9910   -0.2000 C   0  0  0  0  0  0  0  0  0  0  0  0
    0.3250   -0.2000    0.3690 C   0  0  2  0  0  0  0  0  0  0  0  0
  2  1  1  6
  2  3  1  0
  2 12  1  0
  3  4  1  6
  3  5  1  0
  5  6  1  0
  7  6  1  1
  7  8  1  0
  7 12  1  0
  8  9  1  0
  9 10  1  0
 10 11  1  0
 12 11  1  6
M  CHG  1   1   1
M  END
