
     RDKit          3D

 12 12  0  0  0  0  0  0  0  0999 V2000
    0.8630   -2.0640   -0.0980 N   0  0  0  0  0  0  0  0  0  0  0  0
    0.0830   -0.8680   -0.2980 C   0  0  1  0  0  0  0  0  0  0  0  0
   -1.0840   -0.9350    0.6820 C   0  0  0  0  0  0  0  0  0  0  0  0
   -1.9070    0.3080    0.6610 C   0  0  2  0  0  0  0  0  0  0  0  0
   -3.3080    0.0380    0.0980 C   0  0  0  0  0  0  0  0  0  0  0  0
   -4.0520    1.1950    0.0760 O   0  0  0  0  0  0  0  0  0  0  0  0
   -1.3100    1.2570   -0.1840 O   0  0  0  0  0  0  0  0  0  0  0  0
   -0.0280    1.5550    0.3020 C   0  0  0  0  0  0  0  0  0  0  0  0
    0.8670    0.3970   -0.1560 C   0  0  1  0  0  0  0  0  0  0  0  0
    1.9620    0.2730    0.6690 O   0  0  0  0  0  0  0  0  0  0  0  0
    3.1490    0.5490   -0.0150 C   0  0  0  0  0  0  0  0  0  0  0  0
    4.2400    0.4250    0.8080 O   0  0  0  0  0  0  0  0  0  0  0  0
  2  1  1  1
  2  3  1  0
  2  9  1  0
  3  4  1  0
  4  5  1  6
  4  7  1  0
  5  6  1  0
  7  8  1  0
  8  9  1  0
  9 10  1  1
 10 11  1  0
 11 12  1  0
M  CHG  1   1   1
M  END
