
     RDKit          3D

 12 13  0  0  0  0  0  0  0  0999 V2000
   -1.2390   -1.6230    0.9410 O   0  0  0  0  0  0  0  0  0  0  0  0
   -0.8390   -0.5100    0.2000 C   0  0  1  0  0  0  0  0  0  0  0  0
    0.6050   -0.7170   -0.2570 C   0  0  1  0  0  0  0  0  0  0  0  0
    1.0330    0.5470   -0.9760 C   0  0  0  0  0  0  0  0  0  0  0  0
    2.4100    0.5130   -1.1900 O   0  0  0  0  0  0  0  0  0  0  0  0
    3.0300    0.5350    0.0520 C   0  0  0  0  0  0  0  0  0  0  0  0
    2.7000   -0.7770    0.7310 C   0  0  0  0  0  0  0  0  0  0  0  0
    1.3470   -0.8560    0.9140 O   0  0  0  0  0  0  0  0  0  0  0  0
   -1.8020   -0.3490   -0.9240 C   0  0  0  0  0  0  0  0  0  0  0  0
   -2.7970    0.5530   -0.3530 N   0  0  0  0  0  0  0  0  0  0  0  0
   -2.2020    1.1420    0.8110 C   0  0  0  0  0  0  0  0  0  0  0  0
   -0.9330    0.6260    0.9620 O   0  0  0  0  0  0  0  0  0  0  0  0
  2  1  1  1
  2  3  1  0
  2  9  1  0
  2 12  1  0
  3  4  1  1
  3  8  1  0
  4  5  1  0
  5  6  1  0
  6  7  1  0
  7  8  1  0
  9 10  1  0
 10 11  1  0
 11 12  1  0
M  CHG  1  10   1
M  END
