
     RDKit          3D

 11 11  0  0  0  0  0  0  0  0999 V2000
   -2.5070    2.1730   -0.0270 O   0  0  0  0  0  0  0  0  0  0  0  0
   -2.4130    0.8670    0.4520 C   0  0  0  0  0  0  0  0  0  0  0  0
   -1.2800    0.2430   -0.2570 N   0  0  2  0  0  0  0  0  0  0  0  0
   -1.4610   -1.1630   -0.1500 C   0  0  0  0  0  0  0  0  0  0  0  0
   -0.2710   -1.8890   -0.7640 C   0  0  0  0  0  0  0  0  0  0  0  0
    0.8940   -1.5540    0.1250 C   0  0  0  0  0  0  0  0  0  0  0  0
    1.1180   -0.0920    0.3030 C   0  0  1  0  0  0  0  0  0  0  0  0
    1.7600    0.0650    1.5560 O   0  0  0  0  0  0  0  0  0  0  0  0
    2.2000    0.3070   -0.7130 C   0  0  0  0  0  0  0  0  0  0  0  0
    2.5800    1.6370   -0.4640 O   0  0  0  0  0  0  0  0  0  0  0  0
   -0.0610    0.7780    0.1950 C   0  0  0  0  0  0  0  0  0  0  0  0
  1  2  1  0
  3  2  1  1
  3  4  1  0
  3 11  1  0
  4  5  1  0
  5  6  1  0
  6  7  1  0
  7  8  1  1
  7  9  1  0
  7 11  1  0
  9 10  1  0
M  CHG  1   3   1
M  END
