
     RDKit          3D

 12 13  0  0  0  0  0  0  0  0999 V2000
    1.3260   -1.9200    0.6460 O   0  0  0  0  0  0  0  0  0  0  0  0
    0.9540   -1.0580   -0.4120 C   0  0  1  0  0  0  0  0  0  0  0  0
   -0.4940   -1.2430   -0.6510 C   0  0  1  0  0  0  0  0  0  0  0  0
   -1.2200   -1.3470    0.6960 C   0  0  0  0  0  0  0  0  0  0  0  0
   -1.0720    0.1010    1.1740 C   0  0  0  0  0  0  0  0  0  0  0  0
   -0.9540    0.8790   -0.0980 C   0  0  2  0  0  0  0  0  0  0  0  0
   -1.8770    1.9050   -0.1220 O   0  0  0  0  0  0  0  0  0  0  0  0
   -1.1650   -0.0760   -1.1940 N   0  0  0  0  0  0  0  0  0  0  0  0
    0.4530    1.4040   -0.3370 C   0  0  1  0  0  0  0  0  0  0  0  0
    0.7280    2.5580    0.3360 O   0  0  0  0  0  0  0  0  0  0  0  0
    1.4120    0.2990   -0.0760 C   0  0  2  0  0  0  0  0  0  0  0  0
    2.5920    0.5900   -0.7990 O   0  0  0  0  0  0  0  0  0  0  0  0
  2  1  1  1
  2  3  1  0
  2 11  1  0
  3  4  1  1
  3  8  1  0
  4  5  1  0
  5  6  1  0
  6  7  1  1
  6  8  1  0
  6  9  1  0
  9 10  1  1
  9 11  1  0
 11 12  1  6
M  CHG  1   8   1
M  END
