
     RDKit          3D

 22 22  0  0  0  0  0  0  0  0999 V2000
   -3.3180   -2.3660   -1.2700 C   0  0  0  0  0  0  0  0  0  0  0  0
   -2.0370   -1.6180   -1.1010 C   0  0  0  0  0  0  0  0  0  0  0  0
   -0.9180   -2.0250   -1.6550 C   0  0  0  0  0  0  0  0  0  0  0  0
    0.3150   -1.2310   -1.4420 C   0  0  0  0  0  0  0  0  0  0  0  0
    0.4150   -0.8020    0.0050 C   0  0  1  0  0  0  0  0  0  0  0  0
    0.4230   -2.0700    0.8430 C   0  0  0  0  0  0  0  0  0  0  0  0
    0.5130   -1.8040    2.1970 O   0  0  0  0  0  0  0  0  0  0  0  0
    1.5810    0.0900    0.3010 C   0  0  0  0  0  0  0  0  0  0  0  0
    2.9020   -0.4550    0.0420 C   0  0  0  0  0  0  0  0  0  0  0  0
    3.0420   -1.6270   -0.3680 O   0  0  0  0  0  0  0  0  0  0  0  0
    4.0690    0.3240    0.2480 N   0  0  0  0  0  0  0  0  0  0  0  0
    5.4050   -0.1860   -0.0000 C   0  0  0  0  0  0  0  0  0  0  0  0
    6.4240    0.8370    0.2970 C   0  0  0  0  0  0  0  0  0  0  0  0
    5.9890    2.1090    0.7580 N   0  0  0  0  0  0  0  0  0  0  0  0
    7.6280    0.5430    0.1310 O   0  0  0  0  0  0  0  0  0  0  0  0
   -0.8250    0.0140    0.4010 C   0  0  0  0  0  0  0  0  0  0  0  0
   -2.0560   -0.3750   -0.2940 C   0  0  0  0  0  0  0  0  0  0  0  0
   -3.1910    0.2930   -0.2280 C   0  0  0  0  0  0  0  0  0  0  0  0
   -3.6090    1.5030    0.4240 C   0  0  1  0  0  0  0  0  0  0  0  0
   -4.9150    1.3170    1.2150 C   0  0  0  0  0  0  0  0  0  0  0  0
   -2.6340    2.3140    1.2040 C   0  0  0  0  0  0  0  0  0  0  0  0
   -3.3070    3.4490    1.7780 O   0  0  0  0  0  0  0  0  0  0  0  0
  1  2  1  0
  2  3  2  0
  2 17  1  0
  3  4  1  0
  4  5  1  0
  5  6  1  1
  5  8  1  0
  5 16  1  0
  6  7  1  0
  8  9  1  0
  9 10  2  0
  9 11  1  0
 11 12  1  0
 12 13  1  0
 13 14  1  0
 13 15  2  0
 16 17  1  0
 17 18  2  3
 18 19  1  0
 19 20  1  1
 19 21  1  0
 21 22  1  0
M  END
