
     RDKit          3D

 12 12  0  0  0  0  0  0  0  0999 V2000
    2.8700    0.9260    0.0130 N   0  0  0  0  0  0  0  0  0  0  0  0
    2.6320   -0.3560    0.6470 C   0  0  0  0  0  0  0  0  0  0  0  0
    1.3320   -0.9720    0.1370 C   0  0  0  0  0  0  0  0  0  0  0  0
    0.1580   -0.0760    0.4350 C   0  0  2  0  0  0  0  0  0  0  0  0
    0.0840    0.0900    1.8220 O   0  0  0  0  0  0  0  0  0  0  0  0
   -1.0960   -0.7360   -0.0710 C   0  0  2  0  0  0  0  0  0  0  0  0
   -1.3220   -1.9740    0.4720 O   0  0  0  0  0  0  0  0  0  0  0  0
   -1.1090   -0.7270   -1.5860 C   0  0  0  0  0  0  0  0  0  0  0  0
   -1.1830    0.6360   -1.8500 O   0  0  0  0  0  0  0  0  0  0  0  0
   -2.0590    1.2000   -0.9620 C   0  0  2  0  0  0  0  0  0  0  0  0
   -1.5730    2.3790   -0.3870 O   0  0  0  0  0  0  0  0  0  0  0  0
   -2.2740    0.2160    0.1710 C   0  0  0  0  0  0  0  0  0  0  0  0
  1  2  1  0
  2  3  1  0
  3  4  1  0
  4  5  1  1
  4  6  1  0
  6  7  1  1
  6  8  1  0
  6 12  1  0
  8  9  1  0
  9 10  1  0
 10 11  1  1
 10 12  1  0
M  CHG  1   1   1
M  END
