
     RDKit          3D

 27 30  0  0  0  0  0  0  0  0999 V2000
   -5.8550    1.4050   -2.7300 C   0  0  0  0  0  0  0  0  0  0  0  0
   -4.9590    1.5400   -1.5400 C   0  0  0  0  0  0  0  0  0  0  0  0
   -4.1360    2.5750   -1.4900 C   0  0  0  0  0  0  0  0  0  0  0  0
   -3.1930    2.9340   -0.4880 N   0  0  0  0  0  0  0  0  0  0  0  0
   -2.7370    2.2700    0.5350 C   0  0  0  0  0  0  0  0  0  0  0  0
   -1.7420    2.9540    1.3970 C   0  0  0  0  0  0  0  0  0  0  0  0
   -3.1340    0.9400    0.8740 N   0  0  0  0  0  0  0  0  0  0  0  0
   -2.2190    0.2290    1.6950 C   0  0  0  0  0  0  0  0  0  0  0  0
   -0.8860    0.0070    1.0810 C   0  0  0  0  0  0  0  0  0  0  0  0
    0.0920   -0.5420    1.8800 C   0  0  0  0  0  0  0  0  0  0  0  0
    1.3720   -0.7920    1.3920 C   0  0  0  0  0  0  0  0  0  0  0  0
    1.6950   -0.4940    0.0880 C   0  0  0  0  0  0  0  0  0  0  0  0
    3.0440   -0.7440   -0.4680 C   0  0  0  0  0  0  0  0  0  0  0  0
    4.0990   -1.2640    0.1520 N   0  0  0  0  0  0  0  0  0  0  0  0
    5.1180   -1.3160   -0.7170 C   0  0  0  0  0  0  0  0  0  0  0  0
    6.4830   -1.8150   -0.4790 C   0  0  0  0  0  0  0  0  0  0  0  0
    6.9900   -2.3340    0.6940 C   0  0  0  0  0  0  0  0  0  0  0  0
    8.3130   -2.6710    0.4460 C   0  0  0  0  0  0  0  0  0  0  0  0
    8.5740   -2.3540   -0.8540 C   0  0  0  0  0  0  0  0  0  0  0  0
    7.4660   -1.8410   -1.3960 N   0  0  0  0  0  0  0  0  0  0  0  0
    4.6510   -0.8150   -1.8730 N   0  0  0  0  0  0  0  0  0  0  0  0
    3.4120   -0.4820   -1.6960 O   0  0  0  0  0  0  0  0  0  0  0  0
    0.7070    0.0550   -0.6980 C   0  0  0  0  0  0  0  0  0  0  0  0
   -0.5620    0.3050   -0.2210 C   0  0  0  0  0  0  0  0  0  0  0  0
   -4.3110    0.2130    0.5110 C   0  0  0  0  0  0  0  0  0  0  0  0
   -4.7220   -0.9280    1.3330 C   0  0  0  0  0  0  0  0  0  0  0  0
   -5.0970    0.4700   -0.5260 C   0  0  0  0  0  0  0  0  0  0  0  0
  1  2  1  0
  2  3  2  0
  2 27  1  0
  3  4  1  0
  4  5  2  0
  5  6  1  0
  5  7  1  0
  7  8  1  0
  7 25  1  0
  8  9  1  0
  9 10  2  0
  9 24  1  0
 10 11  1  0
 11 12  2  0
 12 13  1  0
 12 23  1  0
 13 14  2  0
 13 22  1  0
 14 15  1  0
 15 16  1  0
 15 21  2  0
 16 17  2  0
 16 20  1  0
 17 18  1  0
 18 19  2  0
 19 20  1  0
 21 22  1  0
 23 24  2  0
 25 26  1  0
 25 27  2  0
M  END
