
     RDKit          3D

 27 31  0  0  0  0  0  0  0  0999 V2000
    5.3310    0.9820   -2.1640 C   0  0  0  0  0  0  0  0  0  0  0  0
    5.0030    1.8900   -1.2860 C   0  0  0  0  0  0  0  0  0  0  0  0
    4.0090    1.6470   -0.2660 C   0  0  0  0  0  0  0  0  0  0  0  0
    3.6990    2.5750    0.6010 C   0  0  0  0  0  0  0  0  0  0  0  0
    3.3710    0.3910   -0.2110 N   0  0  0  0  0  0  0  0  0  0  0  0
    4.1030   -0.7000    0.3790 C   0  0  0  0  0  0  0  0  0  0  0  0
    3.5770   -1.9850   -0.2190 C   0  0  0  0  0  0  0  0  0  0  0  0
    2.1300   -2.0200    0.0660 C   0  0  0  0  0  0  0  0  0  0  0  0
    1.5180   -3.1740    0.6060 N   0  0  0  0  0  0  0  0  0  0  0  0
    0.1080   -3.2090    0.8840 C   0  0  0  0  0  0  0  0  0  0  0  0
   -0.4770   -4.3020    1.3950 N   0  0  0  0  0  0  0  0  0  0  0  0
   -1.7960   -4.2920    1.6370 C   0  0  0  0  0  0  0  0  0  0  0  0
   -2.5250   -3.1930    1.3690 N   0  0  0  0  0  0  0  0  0  0  0  0
   -2.0080   -2.0640    0.8570 C   0  0  0  0  0  0  0  0  0  0  0  0
   -2.7410   -0.9750    0.5900 N   0  0  0  0  0  0  0  0  0  0  0  0
   -2.2240    0.1480    0.0780 C   0  0  0  0  0  0  0  0  0  0  0  0
   -3.0630    1.3440   -0.2110 C   0  0  2  0  0  0  0  0  0  0  0  0
   -3.8380    1.8230    0.9710 C   0  0  0  0  0  0  0  0  0  0  0  0
   -5.3260    1.6300    0.7190 C   0  0  0  0  0  0  0  0  0  0  0  0
   -5.7560    2.3350   -0.3910 O   0  0  0  0  0  0  0  0  0  0  0  0
   -5.0350    2.0640   -1.5350 C   0  0  0  0  0  0  0  0  0  0  0  0
   -4.0090    0.9740   -1.3530 C   0  0  0  0  0  0  0  0  0  0  0  0
   -0.8440    0.1440   -0.1760 C   0  0  0  0  0  0  0  0  0  0  0  0
   -0.0560   -0.9470    0.0820 C   0  0  0  0  0  0  0  0  0  0  0  0
    1.3940   -0.9560   -0.1870 C   0  0  0  0  0  0  0  0  0  0  0  0
    2.0230    0.2400   -0.7370 C   0  0  0  0  0  0  0  0  0  0  0  0
   -0.6410   -2.0770    0.6080 C   0  0  0  0  0  0  0  0  0  0  0  0
  1  2  2  0
  2  3  1  0
  3  4  2  0
  3  5  1  0
  5  6  1  0
  5 26  1  0
  6  7  1  0
  7  8  1  0
  8  9  1  0
  8 25  2  0
  9 10  1  0
 10 11  2  0
 10 27  1  0
 11 12  1  0
 12 13  2  0
 13 14  1  0
 14 15  2  0
 14 27  1  0
 15 16  1  0
 17 16  1  1
 16 23  2  0
 17 18  1  0
 17 22  1  0
 18 19  1  0
 19 20  1  0
 20 21  1  0
 21 22  1  0
 23 24  1  0
 24 25  1  0
 24 27  2  0
 25 26  1  0
M  END
