
     RDKit          3D

 27 31  0  0  0  0  0  0  0  0999 V2000
    7.8610    1.8380   -0.2840 C   0  0  0  0  0  0  0  0  0  0  0  0
    6.7310    1.0510    0.2380 C   0  0  0  0  0  0  0  0  0  0  0  0
    6.7840    0.1580    1.2870 C   0  0  0  0  0  0  0  0  0  0  0  0
    5.5360   -0.3290    1.4230 N   0  0  0  0  0  0  0  0  0  0  0  0
    4.7460    0.2140    0.5250 N   0  0  0  0  0  0  0  0  0  0  0  0
    3.3600   -0.0790    0.3900 C   0  0  0  0  0  0  0  0  0  0  0  0
    2.4400    0.9640    0.4890 C   0  0  0  0  0  0  0  0  0  0  0  0
    1.1040    0.6540    0.3550 C   0  0  0  0  0  0  0  0  0  0  0  0
    0.6710   -0.6230    0.1310 C   0  0  0  0  0  0  0  0  0  0  0  0
   -0.7390   -0.9610   -0.0120 C   0  0  0  0  0  0  0  0  0  0  0  0
   -1.8150   -0.0830    0.0520 C   0  0  0  0  0  0  0  0  0  0  0  0
   -2.9760   -0.8070   -0.1350 C   0  0  0  0  0  0  0  0  0  0  0  0
   -4.3410   -0.2920   -0.1450 C   0  0  0  0  0  0  0  0  0  0  0  0
   -4.7650    0.9730    0.0210 N   0  0  0  0  0  0  0  0  0  0  0  0
   -6.1130    1.0320   -0.0580 C   0  0  0  0  0  0  0  0  0  0  0  0
   -7.0470    2.0430    0.0360 C   0  0  0  0  0  0  0  0  0  0  0  0
   -8.3980    1.7760   -0.0930 C   0  0  0  0  0  0  0  0  0  0  0  0
   -8.7690    0.4660   -0.3180 C   0  0  0  0  0  0  0  0  0  0  0  0
   -7.8480   -0.5550   -0.4140 C   0  0  0  0  0  0  0  0  0  0  0  0
   -6.4990   -0.2940   -0.2860 C   0  0  0  0  0  0  0  0  0  0  0  0
   -5.4110   -1.0250   -0.3270 O   0  0  0  0  0  0  0  0  0  0  0  0
   -2.5680   -2.0720   -0.3020 N   0  0  0  0  0  0  0  0  0  0  0  0
   -1.2560   -2.1830   -0.2330 N   0  0  0  0  0  0  0  0  0  0  0  0
    1.6150   -1.6260    0.0400 C   0  0  0  0  0  0  0  0  0  0  0  0
    2.9640   -1.3810    0.1650 C   0  0  0  0  0  0  0  0  0  0  0  0
    3.9880   -2.4520    0.0680 C   0  0  0  0  0  0  0  0  0  0  0  0
    5.4210    1.0780   -0.2410 C   0  0  0  0  0  0  0  0  0  0  0  0
  1  2  1  0
  2  3  1  0
  2 27  2  0
  3  4  2  0
  4  5  1  0
  5  6  1  0
  5 27  1  0
  6  7  2  0
  6 25  1  0
  7  8  1  0
  8  9  2  0
  9 10  1  0
  9 24  1  0
 10 11  1  0
 10 23  2  0
 11 12  2  0
 12 13  1  0
 12 22  1  0
 13 14  2  0
 13 21  1  0
 14 15  1  0
 15 16  2  0
 15 20  1  0
 16 17  1  0
 17 18  2  0
 18 19  1  0
 19 20  2  0
 20 21  1  0
 22 23  1  0
 24 25  2  0
 25 26  1  0
M  END
