
     RDKit          3D

 18 20  0  0  0  0  0  0  0  0999 V2000
   -3.7200   -1.4710   -0.3910 C   0  0  0  0  0  0  0  0  0  0  0  0
   -2.4200   -0.7680   -0.2610 C   0  0  0  0  0  0  0  0  0  0  0  0
   -1.2140   -1.3630   -0.4880 C   0  0  0  0  0  0  0  0  0  0  0  0
   -0.0070   -0.7130   -0.3670 C   0  0  0  0  0  0  0  0  0  0  0  0
    1.1830   -1.2990   -0.5900 N   0  0  0  0  0  0  0  0  0  0  0  0
    2.3500   -0.6430   -0.4670 C   0  0  0  0  0  0  0  0  0  0  0  0
    3.5480   -1.2130   -0.6860 N   0  0  0  0  0  0  0  0  0  0  0  0
    4.6820   -0.5050   -0.5460 C   0  0  0  0  0  0  0  0  0  0  0  0
    5.8240   -1.0190   -0.7460 O   0  0  0  0  0  0  0  0  0  0  0  0
    4.6540    0.7940   -0.1820 N   0  0  0  0  0  0  0  0  0  0  0  0
    3.4600    1.3780    0.0410 C   0  0  0  0  0  0  0  0  0  0  0  0
    3.4460    2.5980    0.3820 O   0  0  0  0  0  0  0  0  0  0  0  0
    2.2880    0.6850   -0.0930 C   0  0  0  0  0  0  0  0  0  0  0  0
    1.1110    1.3130    0.1420 N   0  0  0  0  0  0  0  0  0  0  0  0
   -0.0570    0.6200    0.0070 C   0  0  0  0  0  0  0  0  0  0  0  0
   -1.2660    1.2520    0.2450 C   0  0  0  0  0  0  0  0  0  0  0  0
   -2.4400    0.5580    0.1100 C   0  0  0  0  0  0  0  0  0  0  0  0
   -3.7260    1.2760    0.3750 C   0  0  0  0  0  0  0  0  0  0  0  0
  1  2  1  0
  2  3  2  0
  2 17  1  0
  3  4  1  0
  4  5  2  0
  4 15  1  0
  5  6  1  0
  6  7  1  0
  6 13  2  0
  7  8  1  0
  8  9  2  0
  8 10  1  0
 10 11  1  0
 11 12  2  0
 11 13  1  0
 13 14  1  0
 14 15  2  0
 15 16  1  0
 16 17  2  0
 17 18  1  0
M  END
