
     RDKit          3D

 27 31  0  0  0  0  0  0  0  0999 V2000
   -2.5540    3.5030    1.7380 C   0  0  0  0  0  0  0  0  0  0  0  0
   -2.7450    2.4520    0.6930 C   0  0  0  0  0  0  0  0  0  0  0  0
   -2.3260    1.1430    0.8810 C   0  0  0  0  0  0  0  0  0  0  0  0
   -2.4860    0.1610   -0.0540 C   0  0  0  0  0  0  0  0  0  0  0  0
   -3.0930    0.4800   -1.2470 C   0  0  0  0  0  0  0  0  0  0  0  0
   -3.5100    1.7760   -1.4400 C   0  0  0  0  0  0  0  0  0  0  0  0
   -3.3310    2.7060   -0.4900 N   0  0  0  0  0  0  0  0  0  0  0  0
   -3.1170   -0.6790   -1.9790 C   0  0  0  0  0  0  0  0  0  0  0  0
   -3.5980   -0.7880   -3.1350 O   0  0  0  0  0  0  0  0  0  0  0  0
   -2.5340   -1.6260   -1.2060 N   0  0  0  0  0  0  0  0  0  0  0  0
   -2.1490   -1.1570   -0.0570 N   0  0  0  0  0  0  0  0  0  0  0  0
   -1.4930   -1.9330    0.9860 C   0  0  2  0  0  0  0  0  0  0  0  0
   -0.4820   -1.2200    1.6960 N   0  0  0  0  0  0  0  0  0  0  0  0
    0.6600   -0.6180    1.1300 C   0  0  0  0  0  0  0  0  0  0  0  0
    0.8800   -0.6180   -0.2390 C   0  0  0  0  0  0  0  0  0  0  0  0
    2.0190   -0.0150   -0.7430 C   0  0  0  0  0  0  0  0  0  0  0  0
    2.9650    0.5970    0.0450 C   0  0  0  0  0  0  0  0  0  0  0  0
    4.1690    1.2330   -0.4920 C   0  0  0  0  0  0  0  0  0  0  0  0
    4.3260    1.8670   -1.6920 C   0  0  0  0  0  0  0  0  0  0  0  0
    5.6150    2.3220   -1.8000 C   0  0  0  0  0  0  0  0  0  0  0  0
    6.2670    1.9780   -0.6760 N   0  0  0  0  0  0  0  0  0  0  0  0
    5.4080    1.3160    0.1320 C   0  0  0  0  0  0  0  0  0  0  0  0
    2.7450    0.5960    1.4060 C   0  0  0  0  0  0  0  0  0  0  0  0
    1.6130   -0.0030    1.9170 C   0  0  0  0  0  0  0  0  0  0  0  0
   -1.0710   -3.2810    0.4610 C   0  0  0  0  0  0  0  0  0  0  0  0
   -2.2690   -3.8330   -0.3250 C   0  0  0  0  0  0  0  0  0  0  0  0
   -2.3430   -3.0320   -1.5970 C   0  0  0  0  0  0  0  0  0  0  0  0
  1  2  1  0
  2  3  2  0
  2  7  1  0
  3  4  1  0
  4  5  2  0
  4 11  1  0
  5  6  1  0
  5  8  1  0
  6  7  2  0
  8  9  2  0
  8 10  1  0
 10 11  1  0
 10 27  1  0
 11 12  1  0
 12 13  1  6
 12 25  1  0
 13 14  1  0
 14 15  2  0
 14 24  1  0
 15 16  1  0
 16 17  2  0
 17 18  1  0
 17 23  1  0
 18 19  1  0
 18 22  2  0
 19 20  2  0
 20 21  1  0
 21 22  1  0
 23 24  2  0
 25 26  1  0
 26 27  1  0
M  END
