
     RDKit          3D

 26 30  0  0  0  0  0  0  0  0999 V2000
   -3.6020   -3.7480   -0.3560 C   0  0  0  0  0  0  0  0  0  0  0  0
   -2.8910   -4.8510   -0.6950 C   0  0  0  0  0  0  0  0  0  0  0  0
   -1.5690   -4.7670   -0.8930 N   0  0  0  0  0  0  0  0  0  0  0  0
   -0.9330   -3.5900   -0.7580 C   0  0  0  0  0  0  0  0  0  0  0  0
   -1.5960   -2.4060   -0.4090 C   0  0  0  0  0  0  0  0  0  0  0  0
   -0.8170   -1.2090   -0.2610 C   0  0  0  0  0  0  0  0  0  0  0  0
    0.5760   -1.2480   -0.2730 N   0  0  0  0  0  0  0  0  0  0  0  0
    0.9970   -0.0080   -0.1430 C   0  0  0  0  0  0  0  0  0  0  0  0
    2.4020    0.4340   -0.1020 C   0  0  0  0  0  0  0  0  0  0  0  0
    2.7050    1.7650    0.0390 C   0  0  0  0  0  0  0  0  0  0  0  0
    4.0120    2.1840    0.0770 C   0  0  0  0  0  0  0  0  0  0  0  0
    5.0400    1.2690   -0.0260 C   0  0  0  0  0  0  0  0  0  0  0  0
    6.4140    1.3720   -0.0220 C   0  0  0  0  0  0  0  0  0  0  0  0
    6.9260    0.0990   -0.1610 C   0  0  0  0  0  0  0  0  0  0  0  0
    5.9100   -0.7820   -0.2500 N   0  0  0  0  0  0  0  0  0  0  0  0
    4.7580   -0.0840   -0.1690 C   0  0  0  0  0  0  0  0  0  0  0  0
    3.4250   -0.4850   -0.2060 C   0  0  0  0  0  0  0  0  0  0  0  0
   -0.0470    0.7910   -0.0520 N   0  0  0  0  0  0  0  0  0  0  0  0
   -1.1880    0.0640   -0.1240 N   0  0  0  0  0  0  0  0  0  0  0  0
   -2.4900    0.6640   -0.0780 C   0  0  1  0  0  0  0  0  0  0  0  0
   -3.0920    0.7510    1.2900 C   0  0  0  0  0  0  0  0  0  0  0  0
   -3.3200    2.1660    1.7740 C   0  0  0  0  0  0  0  0  0  0  0  0
   -4.0900    2.9240    0.8980 O   0  0  0  0  0  0  0  0  0  0  0  0
   -3.6170    2.8650   -0.4030 C   0  0  0  0  0  0  0  0  0  0  0  0
   -2.2980    2.1690   -0.4820 C   0  0  0  0  0  0  0  0  0  0  0  0
   -2.9250   -2.5300   -0.2180 C   0  0  0  0  0  0  0  0  0  0  0  0
  1  2  2  0
  1 26  1  0
  2  3  1  0
  3  4  2  0
  4  5  1  0
  5  6  1  0
  5 26  2  0
  6  7  2  0
  6 19  1  0
  7  8  1  0
  8  9  1  0
  8 18  2  0
  9 10  2  0
  9 17  1  0
 10 11  1  0
 11 12  2  0
 12 13  1  0
 12 16  1  0
 13 14  2  0
 14 15  1  0
 15 16  1  0
 16 17  2  0
 18 19  1  0
 20 19  1  1
 20 21  1  0
 20 25  1  0
 21 22  1  0
 22 23  1  0
 23 24  1  0
 24 25  1  0
M  END
