
     RDKit          3D

 27 30  0  0  0  0  0  0  0  0999 V2000
   -2.7060    2.9540    0.0940 C   0  0  0  0  0  0  0  0  0  0  0  0
   -3.8300    2.2630   -0.5940 C   0  0  0  0  0  0  0  0  0  0  0  0
   -4.0720    0.9810   -0.3860 C   0  0  0  0  0  0  0  0  0  0  0  0
   -5.1890    0.3430   -1.0840 C   0  0  0  0  0  0  0  0  0  0  0  0
   -5.3410   -1.0960   -0.7540 C   0  0  0  0  0  0  0  0  0  0  0  0
   -4.5470   -1.7400    0.0870 C   0  0  0  0  0  0  0  0  0  0  0  0
   -4.7850   -3.1540    0.3390 C   0  0  0  0  0  0  0  0  0  0  0  0
   -3.4520   -1.0440    0.7480 C   0  0  0  0  0  0  0  0  0  0  0  0
   -2.6280   -1.7820    1.6440 N   0  0  0  0  0  0  0  0  0  0  0  0
   -1.3220   -1.2620    1.9980 C   0  0  0  0  0  0  0  0  0  0  0  0
   -0.5060   -1.1220    0.7660 C   0  0  0  0  0  0  0  0  0  0  0  0
   -0.8910   -1.4230   -0.4910 N   0  0  0  0  0  0  0  0  0  0  0  0
    0.0990   -1.1720   -1.3480 C   0  0  0  0  0  0  0  0  0  0  0  0
    1.1510   -0.6890   -0.5650 C   0  0  0  0  0  0  0  0  0  0  0  0
    2.4420   -0.2860   -1.0860 C   0  0  0  0  0  0  0  0  0  0  0  0
    2.7240   -0.3550   -2.4320 C   0  0  0  0  0  0  0  0  0  0  0  0
    3.9840    0.0450   -2.8870 C   0  0  0  0  0  0  0  0  0  0  0  0
    4.9140    0.5010   -1.9640 C   0  0  0  0  0  0  0  0  0  0  0  0
    4.6480    0.5760   -0.6160 C   0  0  0  0  0  0  0  0  0  0  0  0
    5.6140    1.0450    0.3120 N   0  0  0  0  0  0  0  0  0  0  0  0
    6.6740    1.8520    0.0310 C   0  0  0  0  0  0  0  0  0  0  0  0
    7.3920    2.0970    1.1830 C   0  0  0  0  0  0  0  0  0  0  0  0
    6.7630    1.4370    2.1640 N   0  0  0  0  0  0  0  0  0  0  0  0
    5.6980    0.8090    1.6320 C   0  0  0  0  0  0  0  0  0  0  0  0
    3.3940    0.1750   -0.1830 C   0  0  0  0  0  0  0  0  0  0  0  0
    0.7220   -0.6880    0.6690 O   0  0  0  0  0  0  0  0  0  0  0  0
   -3.2730    0.2000    0.5020 N   0  0  0  0  0  0  0  0  0  0  0  0
  1  2  1  0
  2  3  2  3
  3  4  1  0
  3 27  1  0
  4  5  1  0
  5  6  2  0
  6  7  1  0
  6  8  1  0
  8  9  1  0
  8 27  2  0
  9 10  1  0
 10 11  1  0
 11 12  2  0
 11 26  1  0
 12 13  1  0
 13 14  2  0
 14 15  1  0
 14 26  1  0
 15 16  2  0
 15 25  1  0
 16 17  1  0
 17 18  2  0
 18 19  1  0
 19 20  1  0
 19 25  2  0
 20 21  1  0
 20 24  1  0
 21 22  2  0
 22 23  1  0
 23 24  2  0
M  END
