
     RDKit          3D

 27 31  0  0  0  0  0  0  0  0999 V2000
   -8.8880   -0.6430   -0.2640 C   0  0  0  0  0  0  0  0  0  0  0  0
   -7.4810   -0.2970   -0.3330 N   0  0  0  0  0  0  0  0  0  0  0  0
   -7.0450    0.7040   -1.2470 C   0  0  0  0  0  0  0  0  0  0  0  0
   -5.8190    1.0730   -1.3760 N   0  0  0  0  0  0  0  0  0  0  0  0
   -4.8360    0.4280   -0.5390 C   0  0  0  0  0  0  0  0  0  0  0  0
   -3.5180    0.8080   -0.6610 C   0  0  0  0  0  0  0  0  0  0  0  0
   -2.5630    0.1830    0.1480 C   0  0  0  0  0  0  0  0  0  0  0  0
   -1.2450    0.6400    0.0050 N   0  0  0  0  0  0  0  0  0  0  0  0
   -0.0740   -0.1330   -0.0410 C   0  0  0  0  0  0  0  0  0  0  0  0
   -0.1350   -1.4990   -0.0690 C   0  0  0  0  0  0  0  0  0  0  0  0
    1.0340   -2.2700   -0.0820 C   0  0  0  0  0  0  0  0  0  0  0  0
    2.2340   -1.5800   -0.0670 C   0  0  0  0  0  0  0  0  0  0  0  0
    2.3070   -0.2100   -0.0410 C   0  0  0  0  0  0  0  0  0  0  0  0
    3.5610    0.4710   -0.0330 N   0  0  0  0  0  0  0  0  0  0  0  0
    3.5440    1.9050    0.1750 C   0  0  0  0  0  0  0  0  0  0  0  0
    4.9010    2.5310    0.2410 C   0  0  0  0  0  0  0  0  0  0  0  0
    5.8690    1.7250    1.0870 C   0  0  0  0  0  0  0  0  0  0  0  0
    6.0080    0.4200    0.3420 C   0  0  0  0  0  0  0  0  0  0  0  0
    7.0310   -0.3250    0.0690 C   0  0  0  0  0  0  0  0  0  0  0  0
    6.5560   -1.5010   -0.7000 C   0  0  0  0  0  0  0  0  0  0  0  0
    5.1290   -1.2830   -0.8120 N   0  0  0  0  0  0  0  0  0  0  0  0
    4.7860   -0.1930   -0.2220 C   0  0  0  0  0  0  0  0  0  0  0  0
    1.1440    0.4730   -0.0290 N   0  0  0  0  0  0  0  0  0  0  0  0
   -2.9410   -0.7790    1.0370 C   0  0  0  0  0  0  0  0  0  0  0  0
   -4.2830   -1.1590    1.1540 C   0  0  0  0  0  0  0  0  0  0  0  0
   -5.2260   -0.5440    0.3550 C   0  0  0  0  0  0  0  0  0  0  0  0
   -6.5620   -0.9230    0.4710 O   0  0  0  0  0  0  0  0  0  0  0  0
  1  2  1  0
  2  3  1  0
  2 27  1  0
  3  4  2  0
  4  5  1  0
  5  6  2  0
  5 26  1  0
  6  7  1  0
  7  8  1  0
  7 24  2  0
  8  9  1  0
  9 10  2  0
  9 23  1  0
 10 11  1  0
 11 12  2  0
 12 13  1  0
 13 14  1  0
 13 23  2  0
 14 15  1  0
 14 22  1  0
 15 16  1  0
 16 17  1  0
 17 18  1  0
 18 19  2  0
 18 22  1  0
 19 20  1  0
 20 21  1  0
 21 22  2  0
 24 25  1  0
 25 26  2  0
 26 27  1  0
M  END
