
     RDKit          3D

 27 31  0  0  0  0  0  0  0  0999 V2000
   -5.0180    1.9570    2.8590 C   0  0  0  0  0  0  0  0  0  0  0  0
   -4.9140    1.0310    1.7080 C   0  0  0  0  0  0  0  0  0  0  0  0
   -3.6630    0.7170    1.2080 C   0  0  0  0  0  0  0  0  0  0  0  0
   -3.5260   -0.1330    0.1470 C   0  0  0  0  0  0  0  0  0  0  0  0
   -4.6590   -0.6610   -0.4030 C   0  0  0  0  0  0  0  0  0  0  0  0
   -5.9060   -0.3400    0.1050 C   0  0  0  0  0  0  0  0  0  0  0  0
   -6.0080    0.4930    1.1420 N   0  0  0  0  0  0  0  0  0  0  0  0
   -4.2330   -1.4600   -1.4380 C   0  0  0  0  0  0  0  0  0  0  0  0
   -5.0250   -2.1180   -2.1830 O   0  0  0  0  0  0  0  0  0  0  0  0
   -2.9190   -1.3820   -1.4650 N   0  0  0  0  0  0  0  0  0  0  0  0
   -2.4440   -0.5720   -0.4990 N   0  0  0  0  0  0  0  0  0  0  0  0
   -1.0210   -0.4760   -0.5070 C   0  0  2  0  0  0  0  0  0  0  0  0
   -0.3320    0.1260    0.5390 N   0  0  0  0  0  0  0  0  0  0  0  0
    1.0930    0.1470    0.5590 C   0  0  0  0  0  0  0  0  0  0  0  0
    1.7800   -0.6650   -0.3080 C   0  0  0  0  0  0  0  0  0  0  0  0
    3.1530   -0.6300   -0.2970 C   0  0  0  0  0  0  0  0  0  0  0  0
    3.8890    0.1740    0.5340 C   0  0  0  0  0  0  0  0  0  0  0  0
    5.3380    0.2000    0.5350 C   0  0  0  0  0  0  0  0  0  0  0  0
    6.1840   -0.8440    0.2610 C   0  0  0  0  0  0  0  0  0  0  0  0
    7.5080   -0.4000    0.3710 C   0  0  0  0  0  0  0  0  0  0  0  0
    7.4440    0.9070    0.7100 N   0  0  0  0  0  0  0  0  0  0  0  0
    6.1340    1.2840    0.8130 C   0  0  0  0  0  0  0  0  0  0  0  0
    3.1540    0.9860    1.4030 C   0  0  0  0  0  0  0  0  0  0  0  0
    1.7850    0.9790    1.4210 C   0  0  0  0  0  0  0  0  0  0  0  0
   -0.6730    0.0930   -1.8830 C   0  0  0  0  0  0  0  0  0  0  0  0
   -0.9220   -1.0130   -2.8750 C   0  0  0  0  0  0  0  0  0  0  0  0
   -1.9620   -1.9970   -2.3480 C   0  0  0  0  0  0  0  0  0  0  0  0
  1  2  1  0
  2  3  2  0
  2  7  1  0
  3  4  1  0
  4  5  2  0
  4 11  1  0
  5  6  1  0
  5  8  1  0
  6  7  2  0
  8  9  2  0
  8 10  1  0
 10 11  1  0
 10 27  1  0
 11 12  1  0
 12 13  1  1
 12 25  1  0
 13 14  1  0
 14 15  2  0
 14 24  1  0
 15 16  1  0
 16 17  2  0
 17 18  1  0
 17 23  1  0
 18 19  1  0
 18 22  2  0
 19 20  2  0
 20 21  1  0
 21 22  1  0
 23 24  2  0
 25 26  1  0
 26 27  1  0
M  END
