
     RDKit          3D

 27 31  0  0  0  0  0  0  0  0999 V2000
    8.9010   -0.5040    0.4790 C   0  0  0  0  0  0  0  0  0  0  0  0
    7.5130   -0.4970    0.0730 N   0  0  0  0  0  0  0  0  0  0  0  0
    7.0800   -1.1280   -1.1250 C   0  0  0  0  0  0  0  0  0  0  0  0
    5.8440   -1.1300   -1.5020 N   0  0  0  0  0  0  0  0  0  0  0  0
    4.8320   -0.4930   -0.7300 C   0  0  0  0  0  0  0  0  0  0  0  0
    3.5160   -0.4760   -1.0950 C   0  0  0  0  0  0  0  0  0  0  0  0
    2.5230    0.1510   -0.3320 C   0  0  0  0  0  0  0  0  0  0  0  0
    1.1940    0.1700   -0.7840 N   0  0  0  0  0  0  0  0  0  0  0  0
    0.0720   -0.0840    0.0450 C   0  0  0  0  0  0  0  0  0  0  0  0
    0.1920   -0.4900    1.3520 C   0  0  0  0  0  0  0  0  0  0  0  0
   -0.9310   -0.7000    2.1420 C   0  0  0  0  0  0  0  0  0  0  0  0
   -2.2020   -0.5060    1.6320 C   0  0  0  0  0  0  0  0  0  0  0  0
   -2.3100   -0.1000    0.3200 C   0  0  0  0  0  0  0  0  0  0  0  0
   -3.5450    0.1200   -0.3070 N   0  0  0  0  0  0  0  0  0  0  0  0
   -3.5790    0.7470   -1.6430 C   0  0  0  0  0  0  0  0  0  0  0  0
   -4.6680    1.8160   -1.6590 C   0  0  0  0  0  0  0  0  0  0  0  0
   -6.0120    1.1880   -1.5590 C   0  0  0  0  0  0  0  0  0  0  0  0
   -6.0570    0.2870   -0.3610 C   0  0  0  0  0  0  0  0  0  0  0  0
   -7.0860   -0.1950    0.3400 C   0  0  0  0  0  0  0  0  0  0  0  0
   -6.5280   -1.0190    1.3990 C   0  0  0  0  0  0  0  0  0  0  0  0
   -5.1110   -0.9480    1.2060 N   0  0  0  0  0  0  0  0  0  0  0  0
   -4.8220   -0.2140    0.2210 C   0  0  0  0  0  0  0  0  0  0  0  0
   -1.1780    0.0920   -0.4120 N   0  0  0  0  0  0  0  0  0  0  0  0
    2.9130    0.7680    0.8260 C   0  0  0  0  0  0  0  0  0  0  0  0
    4.2590    0.7380    1.1810 C   0  0  0  0  0  0  0  0  0  0  0  0
    5.2240    0.1270    0.4390 C   0  0  0  0  0  0  0  0  0  0  0  0
    6.5720    0.1260    0.8440 O   0  0  0  0  0  0  0  0  0  0  0  0
  1  2  1  0
  2  3  1  0
  2 27  1  0
  3  4  2  0
  4  5  1  0
  5  6  2  0
  5 26  1  0
  6  7  1  0
  7  8  1  0
  7 24  2  0
  8  9  1  0
  9 10  2  0
  9 23  1  0
 10 11  1  0
 11 12  2  0
 12 13  1  0
 13 14  1  0
 13 23  2  0
 14 15  1  0
 14 22  1  0
 15 16  1  0
 16 17  1  0
 17 18  1  0
 18 19  2  0
 18 22  1  0
 19 20  1  0
 20 21  1  0
 21 22  2  0
 24 25  1  0
 25 26  2  0
 26 27  1  0
M  END
