
     RDKit          3D

 27 30  0  0  0  0  0  0  0  0999 V2000
   -6.1930   -1.8790   -1.0280 C   0  0  0  0  0  0  0  0  0  0  0  0
   -5.2130   -0.7730   -0.8930 C   0  0  0  0  0  0  0  0  0  0  0  0
   -4.4990   -0.4030   -1.9210 C   0  0  0  0  0  0  0  0  0  0  0  0
   -3.5150    0.6150   -2.0290 N   0  0  0  0  0  0  0  0  0  0  0  0
   -2.9120    1.3070   -1.0970 C   0  0  0  0  0  0  0  0  0  0  0  0
   -1.9180    2.3100   -1.5640 C   0  0  0  0  0  0  0  0  0  0  0  0
   -3.1250    1.1850    0.3040 N   0  0  0  0  0  0  0  0  0  0  0  0
   -2.1010    1.6600    1.1700 C   0  0  0  0  0  0  0  0  0  0  0  0
   -0.7820    0.9880    1.0050 C   0  0  0  0  0  0  0  0  0  0  0  0
   -0.6250   -0.3740    1.2230 C   0  0  0  0  0  0  0  0  0  0  0  0
    0.5970   -0.9990    1.0800 C   0  0  0  0  0  0  0  0  0  0  0  0
    1.7180   -0.2900    0.7110 C   0  0  0  0  0  0  0  0  0  0  0  0
    3.0230   -0.9370    0.5540 C   0  0  0  0  0  0  0  0  0  0  0  0
    4.1940   -0.3900    0.2050 N   0  0  0  0  0  0  0  0  0  0  0  0
    5.1590   -1.3250    0.1730 C   0  0  0  0  0  0  0  0  0  0  0  0
    6.5710   -1.1770   -0.1530 C   0  0  0  0  0  0  0  0  0  0  0  0
    7.1920    0.0150   -0.5060 C   0  0  0  0  0  0  0  0  0  0  0  0
    8.5210   -0.2530   -0.7380 C   0  0  0  0  0  0  0  0  0  0  0  0
    8.7220   -1.5990   -0.5310 C   0  0  0  0  0  0  0  0  0  0  0  0
    7.5340   -2.1120   -0.1840 N   0  0  0  0  0  0  0  0  0  0  0  0
    4.5420   -2.4690    0.5160 N   0  0  0  0  0  0  0  0  0  0  0  0
    3.2770   -2.2110    0.7370 O   0  0  0  0  0  0  0  0  0  0  0  0
    1.5790    1.0640    0.4900 C   0  0  0  0  0  0  0  0  0  0  0  0
    0.3440    1.6910    0.6350 C   0  0  0  0  0  0  0  0  0  0  0  0
   -4.2800    0.6260    0.9490 C   0  0  0  0  0  0  0  0  0  0  0  0
   -4.5150    1.0260    2.3700 C   0  0  0  0  0  0  0  0  0  0  0  0
   -5.1610   -0.2000    0.4460 C   0  0  0  0  0  0  0  0  0  0  0  0
  1  2  1  0
  2  3  2  0
  2 27  1  0
  3  4  1  0
  4  5  2  0
  5  6  1  0
  5  7  1  0
  7  8  1  0
  7 25  1  0
  8  9  1  0
  9 10  2  0
  9 24  1  0
 10 11  1  0
 11 12  2  0
 12 13  1  0
 12 23  1  0
 13 14  2  0
 13 22  1  0
 14 15  1  0
 15 16  1  0
 15 21  2  0
 16 17  2  0
 16 20  1  0
 17 18  1  0
 18 19  2  0
 19 20  1  0
 21 22  1  0
 23 24  2  0
 25 26  1  0
 25 27  2  0
M  END
