
     RDKit          3D

 27 30  0  0  0  0  0  0  0  0999 V2000
    4.5180   -0.7430    0.2700 C   0  0  0  0  0  0  0  0  0  0  0  0
    3.5080   -1.5590    0.4210 C   0  0  0  0  0  0  0  0  0  0  0  0
    3.5590   -2.9390    0.9610 C   0  0  0  0  0  0  0  0  0  0  0  0
    2.1310   -3.1800    1.3640 C   0  0  0  0  0  0  0  0  0  0  0  0
    1.3420   -2.1850    0.6160 C   0  0  0  0  0  0  0  0  0  0  0  0
    2.1140   -1.2630    0.0790 C   0  0  0  0  0  0  0  0  0  0  0  0
    1.7300   -0.1600   -0.7000 N   0  0  0  0  0  0  0  0  0  0  0  0
    0.8430    0.7090   -0.4800 C   0  0  0  0  0  0  0  0  0  0  0  0
    0.6780    1.7600   -1.5080 C   0  0  0  0  0  0  0  0  0  0  0  0
    1.3640    1.8840   -2.6460 C   0  0  0  0  0  0  0  0  0  0  0  0
    0.9050    3.0670   -3.4090 C   0  0  0  0  0  0  0  0  0  0  0  0
   -0.1240    3.6250   -2.5710 N   0  0  0  0  0  0  0  0  0  0  0  0
   -0.2870    2.8430   -1.4040 C   0  0  0  0  0  0  0  0  0  0  0  0
   -1.1140    3.0800   -0.4900 O   0  0  0  0  0  0  0  0  0  0  0  0
    0.0240    0.7220    0.6630 N   0  0  0  0  0  0  0  0  0  0  0  0
    0.3580    1.2360    1.8620 C   0  0  0  0  0  0  0  0  0  0  0  0
    1.6360    1.8720    2.2460 C   0  0  0  0  0  0  0  0  0  0  0  0
    2.6530    0.9370    2.8100 C   0  0  0  0  0  0  0  0  0  0  0  0
   -0.7200    1.0540    2.6530 N   0  0  0  0  0  0  0  0  0  0  0  0
   -1.6690    0.4550    1.9650 N   0  0  0  0  0  0  0  0  0  0  0  0
   -1.2360    0.2250    0.6930 C   0  0  0  0  0  0  0  0  0  0  0  0
   -2.0240   -0.4390   -0.3790 C   0  0  1  0  0  0  0  0  0  0  0  0
   -2.5450   -1.7210    0.1480 C   0  0  0  0  0  0  0  0  0  0  0  0
   -4.0180   -1.5020    0.5270 C   0  0  0  0  0  0  0  0  0  0  0  0
   -4.7270   -1.3850   -0.8150 C   0  0  0  0  0  0  0  0  0  0  0  0
   -4.2600   -0.1380   -1.5100 C   0  0  0  0  0  0  0  0  0  0  0  0
   -3.0640    0.5020   -0.9030 C   0  0  0  0  0  0  0  0  0  0  0  0
  1  2  2  0
  2  3  1  0
  2  6  1  0
  3  4  1  0
  4  5  1  0
  5  6  2  0
  6  7  1  0
  7  8  2  3
  8  9  1  0
  8 15  1  0
  9 10  2  0
  9 13  1  0
 10 11  1  0
 11 12  1  0
 12 13  1  0
 13 14  2  0
 15 16  1  0
 15 21  1  0
 16 17  1  0
 16 19  2  0
 17 18  1  0
 19 20  1  0
 20 21  2  0
 22 21  1  1
 22 23  1  0
 22 27  1  0
 23 24  1  0
 24 25  1  0
 25 26  1  0
 26 27  1  0
M  END
