
     RDKit          3D

 27 30  0  0  0  0  0  0  0  0999 V2000
    5.9140    2.8610   -1.2570 C   0  0  0  0  0  0  0  0  0  0  0  0
    6.5850    1.6520   -0.6870 C   0  0  0  0  0  0  0  0  0  0  0  0
    5.8390    0.6270   -0.2350 C   0  0  0  0  0  0  0  0  0  0  0  0
    6.5560   -0.5270    0.3110 C   0  0  0  0  0  0  0  0  0  0  0  0
    5.6230   -1.5720    0.7670 C   0  0  0  0  0  0  0  0  0  0  0  0
    4.3100   -1.4590    0.6840 C   0  0  0  0  0  0  0  0  0  0  0  0
    3.4460   -2.5900    1.1820 C   0  0  0  0  0  0  0  0  0  0  0  0
    3.6600   -0.2830    0.1300 C   0  0  0  0  0  0  0  0  0  0  0  0
    2.2470   -0.1710    0.0450 N   0  0  0  0  0  0  0  0  0  0  0  0
    1.7140    1.0490   -0.5260 C   0  0  0  0  0  0  0  0  0  0  0  0
    0.2210    1.0250   -0.5500 C   0  0  0  0  0  0  0  0  0  0  0  0
   -0.5520    2.0100   -1.0190 N   0  0  0  0  0  0  0  0  0  0  0  0
   -1.8390    1.6480   -0.8840 C   0  0  0  0  0  0  0  0  0  0  0  0
   -1.8410    0.3950   -0.3120 C   0  0  0  0  0  0  0  0  0  0  0  0
   -3.0360   -0.3840    0.0160 C   0  0  0  0  0  0  0  0  0  0  0  0
   -2.9450   -1.6340    0.5900 C   0  0  0  0  0  0  0  0  0  0  0  0
   -4.0710   -2.3650    0.8970 C   0  0  0  0  0  0  0  0  0  0  0  0
   -5.3260   -1.8170    0.6160 C   0  0  0  0  0  0  0  0  0  0  0  0
   -5.4440   -0.5700    0.0430 C   0  0  0  0  0  0  0  0  0  0  0  0
   -6.7070    0.0010   -0.2480 N   0  0  0  0  0  0  0  0  0  0  0  0
   -7.3690    0.9300    0.4900 C   0  0  0  0  0  0  0  0  0  0  0  0
   -8.5680    1.2360   -0.1190 C   0  0  0  0  0  0  0  0  0  0  0  0
   -8.6210    0.4810   -1.2310 N   0  0  0  0  0  0  0  0  0  0  0  0
   -7.5110   -0.2560   -1.3080 C   0  0  0  0  0  0  0  0  0  0  0  0
   -4.2980    0.1340   -0.2510 C   0  0  0  0  0  0  0  0  0  0  0  0
   -0.5860    0.0810   -0.1380 O   0  0  0  0  0  0  0  0  0  0  0  0
    4.4340    0.6550   -0.2810 N   0  0  0  0  0  0  0  0  0  0  0  0
  1  2  1  0
  2  3  2  3
  3  4  1  0
  3 27  1  0
  4  5  1  0
  5  6  2  0
  6  7  1  0
  6  8  1  0
  8  9  1  0
  8 27  2  0
  9 10  1  0
 10 11  1  0
 11 12  2  0
 11 26  1  0
 12 13  1  0
 13 14  2  0
 14 15  1  0
 14 26  1  0
 15 16  2  0
 15 25  1  0
 16 17  1  0
 17 18  2  0
 18 19  1  0
 19 20  1  0
 19 25  2  0
 20 21  1  0
 20 24  1  0
 21 22  2  0
 22 23  1  0
 23 24  2  0
M  END
