
     RDKit          3D

 26 30  0  0  0  0  0  0  0  0999 V2000
   -2.9650    4.5030    0.8440 C   0  0  0  0  0  0  0  0  0  0  0  0
   -4.2370    4.2660    0.3820 C   0  0  0  0  0  0  0  0  0  0  0  0
   -4.5490    3.0980   -0.1750 N   0  0  0  0  0  0  0  0  0  0  0  0
   -3.6290    2.1280   -0.2970 C   0  0  0  0  0  0  0  0  0  0  0  0
   -2.3600    2.2900    0.1360 C   0  0  0  0  0  0  0  0  0  0  0  0
   -1.2870    1.2960    0.1120 C   0  0  0  0  0  0  0  0  0  0  0  0
    0.0330    1.5720    0.3290 N   0  0  0  0  0  0  0  0  0  0  0  0
    0.7580    0.4500    0.2840 C   0  0  0  0  0  0  0  0  0  0  0  0
    2.1910    0.3130    0.4630 C   0  0  0  0  0  0  0  0  0  0  0  0
    2.9860    1.4010    0.7110 C   0  0  0  0  0  0  0  0  0  0  0  0
    4.3570    1.2390    0.8780 C   0  0  0  0  0  0  0  0  0  0  0  0
    4.9130   -0.0270    0.7910 C   0  0  0  0  0  0  0  0  0  0  0  0
    6.2090   -0.5120    0.9070 C   0  0  0  0  0  0  0  0  0  0  0  0
    6.1170   -1.8730    0.7200 C   0  0  0  0  0  0  0  0  0  0  0  0
    4.8530   -2.2510    0.4980 N   0  0  0  0  0  0  0  0  0  0  0  0
    4.1170   -1.1180    0.5430 C   0  0  0  0  0  0  0  0  0  0  0  0
    2.7630   -0.9280    0.3820 C   0  0  0  0  0  0  0  0  0  0  0  0
   -0.0910   -0.5300    0.0420 N   0  0  0  0  0  0  0  0  0  0  0  0
   -1.3470   -0.0060   -0.0620 N   0  0  0  0  0  0  0  0  0  0  0  0
   -2.4290   -0.9300   -0.2960 C   0  0  1  0  0  0  0  0  0  0  0  0
   -2.7500   -1.0940   -1.7370 C   0  0  0  0  0  0  0  0  0  0  0  0
   -2.1690   -2.2620   -2.4350 C   0  0  0  0  0  0  0  0  0  0  0  0
   -2.1500   -3.4260   -1.6740 O   0  0  0  0  0  0  0  0  0  0  0  0
   -1.2930   -3.1270   -0.5890 C   0  0  0  0  0  0  0  0  0  0  0  0
   -2.1040   -2.2830    0.3610 C   0  0  0  0  0  0  0  0  0  0  0  0
   -2.0230    3.5250    0.7250 C   0  0  0  0  0  0  0  0  0  0  0  0
  1  2  2  0
  1 26  1  0
  2  3  1  0
  3  4  2  0
  4  5  1  0
  5  6  1  0
  5 26  2  0
  6  7  2  0
  6 19  1  0
  7  8  1  0
  8  9  1  0
  8 18  2  0
  9 10  2  0
  9 17  1  0
 10 11  1  0
 11 12  2  0
 12 13  1  0
 12 16  1  0
 13 14  2  0
 14 15  1  0
 15 16  1  0
 16 17  2  0
 18 19  1  0
 20 19  1  6
 20 21  1  0
 20 25  1  0
 21 22  1  0
 22 23  1  0
 23 24  1  0
 24 25  1  0
M  END
