
     RDKit          3D

 27 31  0  0  0  0  0  0  0  0999 V2000
    7.0560    1.4750   -0.3650 C   0  0  0  0  0  0  0  0  0  0  0  0
    6.5930    0.6710    0.5720 C   0  0  0  0  0  0  0  0  0  0  0  0
    6.2800   -0.6090   -0.0260 C   0  0  0  0  0  0  0  0  0  0  0  0
    5.7280   -1.7660    0.7590 C   0  0  0  0  0  0  0  0  0  0  0  0
    4.4530   -1.3790    1.3560 N   0  0  0  0  0  0  0  0  0  0  0  0
    3.5110   -1.2150    0.2970 C   0  0  0  0  0  0  0  0  0  0  0  0
    2.1700   -0.8270    0.7410 C   0  0  0  0  0  0  0  0  0  0  0  0
    1.6860   -0.6030    1.9770 N   0  0  0  0  0  0  0  0  0  0  0  0
    0.4320   -0.2790    1.9090 O   0  0  0  0  0  0  0  0  0  0  0  0
    0.0080   -0.2680    0.6540 C   0  0  0  0  0  0  0  0  0  0  0  0
   -1.2460    0.0160    0.0900 C   0  0  0  0  0  0  0  0  0  0  0  0
   -2.3250    0.3310    1.0140 C   0  0  0  0  0  0  0  0  0  0  0  0
   -2.1390    0.6180    2.3450 N   0  0  0  0  0  0  0  0  0  0  0  0
   -3.2780    0.8400    2.9590 C   0  0  0  0  0  0  0  0  0  0  0  0
   -4.2620    0.7010    2.0300 C   0  0  0  0  0  0  0  0  0  0  0  0
   -3.6530    0.3870    0.8420 N   0  0  0  0  0  0  0  0  0  0  0  0
   -4.4220    0.1510   -0.3320 C   0  0  1  0  0  0  0  0  0  0  0  0
   -5.9010   -0.1560    0.0610 C   0  0  0  0  0  0  0  0  0  0  0  0
   -6.4600   -0.3040   -1.3590 C   0  0  0  0  0  0  0  0  0  0  0  0
   -5.7400    0.7920   -2.1420 C   0  0  0  0  0  0  0  0  0  0  0  0
   -4.7000    1.3740   -1.1760 C   0  0  0  0  0  0  0  0  0  0  0  0
   -1.3130   -0.0730   -1.2590 C   0  0  0  0  0  0  0  0  0  0  0  0
   -0.2330   -0.4190   -2.0670 C   0  0  0  0  0  0  0  0  0  0  0  0
    0.9770   -0.6900   -1.4810 C   0  0  0  0  0  0  0  0  0  0  0  0
    1.1020   -0.6140   -0.1030 C   0  0  0  0  0  0  0  0  0  0  0  0
    6.5460   -0.5690   -1.2680 N   0  0  0  0  0  0  0  0  0  0  0  0
    7.0620    0.7300   -1.6390 C   0  0  0  0  0  0  0  0  0  0  0  0
  1  2  2  0
  1 27  1  0
  2  3  1  0
  3  4  1  0
  3 26  2  0
  4  5  1  0
  5  6  1  0
  6  7  1  0
  7  8  2  0
  7 25  1  0
  8  9  1  0
  9 10  1  0
 10 11  2  0
 10 25  1  0
 11 12  1  0
 11 22  1  0
 12 13  2  0
 12 16  1  0
 13 14  1  0
 14 15  2  0
 15 16  1  0
 17 16  1  1
 17 18  1  0
 17 21  1  0
 18 19  1  0
 19 20  1  0
 20 21  1  0
 22 23  2  0
 23 24  1  0
 24 25  2  0
 26 27  1  0
M  END
