
     RDKit          3D

 27 29  0  0  0  0  0  0  0  0999 V2000
   -5.0970   -1.7370   -1.3160 C   0  0  0  0  0  0  0  0  0  0  0  0
   -3.8930   -1.0590   -0.7890 C   0  0  0  0  0  0  0  0  0  0  0  0
   -3.8300    0.3180   -0.7440 C   0  0  0  0  0  0  0  0  0  0  0  0
   -2.7030    0.9630   -0.2510 C   0  0  0  0  0  0  0  0  0  0  0  0
   -2.7110    2.3100   -0.2300 N   0  0  0  0  0  0  0  0  0  0  0  0
   -1.6440    2.9480    0.2440 C   0  0  0  0  0  0  0  0  0  0  0  0
   -1.5600    4.3180    0.3060 C   0  0  0  0  0  0  0  0  0  0  0  0
   -2.5060    5.0110   -0.0920 O   0  0  0  0  0  0  0  0  0  0  0  0
   -0.4660    4.8870    0.7910 N   0  0  0  0  0  0  0  0  0  0  0  0
    0.5570    4.1550    1.2200 C   0  0  0  0  0  0  0  0  0  0  0  0
    1.5690    4.7490    1.6700 O   0  0  0  0  0  0  0  0  0  0  0  0
    0.5390    2.8350    1.1880 N   0  0  0  0  0  0  0  0  0  0  0  0
   -0.5090    2.1740    0.7220 C   0  0  0  0  0  0  0  0  0  0  0  0
   -0.5330    0.8040    0.6860 N   0  0  0  0  0  0  0  0  0  0  0  0
    0.6090    0.1410    1.1710 C   0  0  0  0  0  0  0  0  0  0  0  0
    1.6030   -0.0040    0.0320 C   0  0  2  0  0  0  0  0  0  0  0  0
    1.0910   -0.7300   -1.0330 O   0  0  0  0  0  0  0  0  0  0  0  0
    2.8590   -0.7400    0.5050 C   0  0  2  0  0  0  0  0  0  0  0  0
    3.4250   -0.0620    1.5890 O   0  0  0  0  0  0  0  0  0  0  0  0
    3.8220   -0.8170   -0.6570 C   0  0  2  0  0  0  0  0  0  0  0  0
    3.2510   -1.4860   -1.7110 O   0  0  0  0  0  0  0  0  0  0  0  0
    5.1040   -1.4990   -0.2430 C   0  0  0  0  0  0  0  0  0  0  0  0
    5.6500   -0.7970    0.8210 O   0  0  0  0  0  0  0  0  0  0  0  0
   -1.6170    0.2060    0.2060 C   0  0  0  0  0  0  0  0  0  0  0  0
   -1.6740   -1.1650    0.1650 C   0  0  0  0  0  0  0  0  0  0  0  0
   -2.8220   -1.7780   -0.3370 C   0  0  0  0  0  0  0  0  0  0  0  0
   -2.9270   -3.2680   -0.4010 C   0  0  0  0  0  0  0  0  0  0  0  0
  1  2  1  0
  2  3  2  0
  2 26  1  0
  3  4  1  0
  4  5  1  0
  4 24  2  0
  5  6  2  0
  6  7  1  0
  6 13  1  0
  7  8  2  0
  7  9  1  0
  9 10  1  0
 10 11  2  0
 10 12  1  0
 12 13  2  0
 13 14  1  0
 14 15  1  0
 14 24  1  0
 15 16  1  0
 16 17  1  6
 16 18  1  0
 18 19  1  1
 18 20  1  0
 20 21  1  6
 20 22  1  0
 22 23  1  0
 24 25  1  0
 25 26  2  0
 26 27  1  0
M  END
