
     RDKit          3D

 26 28  0  0  0  0  0  0  0  0999 V2000
    5.2800   -3.6310    0.6300 C   0  0  0  0  0  0  0  0  0  0  0  0
    5.5620   -2.5370    1.6310 C   0  0  0  0  0  0  0  0  0  0  0  0
    5.1060   -1.2540    1.2060 N   0  0  0  0  0  0  0  0  0  0  0  0
    3.7480   -0.9770    0.9190 C   0  0  0  0  0  0  0  0  0  0  0  0
    2.9160   -1.8840    1.0410 O   0  0  0  0  0  0  0  0  0  0  0  0
    3.3020    0.3170    0.4930 N   0  0  0  0  0  0  0  0  0  0  0  0
    1.9360    0.5770    0.2090 C   0  0  0  0  0  0  0  0  0  0  0  0
    0.8720   -0.2370    0.2700 N   0  0  0  0  0  0  0  0  0  0  0  0
   -0.2450    0.4420   -0.0910 C   0  0  0  0  0  0  0  0  0  0  0  0
   -1.9260   -0.1440   -0.1890 S   0  0  0  0  0  0  0  0  0  0  0  0
   -1.9990   -1.8720    0.2770 C   0  0  0  0  0  0  0  0  0  0  0  0
   -3.4130   -2.3200    0.1830 C   0  0  0  0  0  0  0  0  0  0  0  0
   -4.2650   -2.2220    1.2670 C   0  0  0  0  0  0  0  0  0  0  0  0
   -5.5780   -2.6380    1.1790 C   0  0  0  0  0  0  0  0  0  0  0  0
   -6.0600   -3.1600   -0.0000 C   0  0  0  0  0  0  0  0  0  0  0  0
   -5.1880   -3.2460   -1.0660 C   0  0  0  0  0  0  0  0  0  0  0  0
   -3.9170   -2.8350   -0.9530 N   0  0  0  0  0  0  0  0  0  0  0  0
    0.1050    1.7090   -0.3870 N   0  0  0  0  0  0  0  0  0  0  0  0
   -0.7480    2.7700   -0.8120 C   0  0  0  0  0  0  0  0  0  0  0  0
   -0.9040    3.0330   -2.1380 C   0  0  0  0  0  0  0  0  0  0  0  0
   -1.7140    4.0470   -2.6330 C   0  0  0  0  0  0  0  0  0  0  0  0
   -2.3960    4.8270   -1.7210 C   0  0  0  0  0  0  0  0  0  0  0  0
   -2.2500    4.5740   -0.3610 C   0  0  0  0  0  0  0  0  0  0  0  0
   -1.4370    3.5590    0.0950 C   0  0  0  0  0  0  0  0  0  0  0  0
    1.4510    1.7970   -0.2030 C   0  0  0  0  0  0  0  0  0  0  0  0
    2.2780    3.0140   -0.4110 C   0  0  0  0  0  0  0  0  0  0  0  0
  1  2  1  0
  2  3  1  0
  3  4  1  0
  4  5  2  0
  4  6  1  0
  6  7  1  0
  7  8  1  0
  7 25  2  0
  8  9  2  0
  9 10  1  0
  9 18  1  0
 10 11  1  0
 11 12  1  0
 12 13  2  0
 12 17  1  0
 13 14  1  0
 14 15  2  0
 15 16  1  0
 16 17  2  0
 18 19  1  0
 18 25  1  0
 19 20  2  0
 19 24  1  0
 20 21  1  0
 21 22  2  0
 22 23  1  0
 23 24  2  0
 25 26  1  0
M  END
