
     RDKit          3D

 26 28  0  0  0  0  0  0  0  0999 V2000
    8.6110   -0.4490    2.1890 C   0  0  0  0  0  0  0  0  0  0  0  0
    7.5900   -0.0260    1.1910 C   0  0  0  0  0  0  0  0  0  0  0  0
    6.9450    1.1250    1.0070 C   0  0  0  0  0  0  0  0  0  0  0  0
    6.0510    1.2320   -0.0000 C   0  0  0  0  0  0  0  0  0  0  0  0
    5.8520    0.1450   -0.7850 C   0  0  0  0  0  0  0  0  0  0  0  0
    4.9800   -0.0280   -1.9080 N   0  0  0  0  0  0  0  0  0  0  0  0
    3.7180   -0.0310   -1.6500 C   0  0  0  0  0  0  0  0  0  0  0  0
    3.2090    0.1210   -0.3750 C   0  0  0  0  0  0  0  0  0  0  0  0
    1.8380    0.1250   -0.0980 C   0  0  0  0  0  0  0  0  0  0  0  0
    0.9400   -0.0250   -1.1100 C   0  0  0  0  0  0  0  0  0  0  0  0
   -0.4670   -0.0080   -0.9440 N   0  0  0  0  0  0  0  0  0  0  0  0
   -1.1560    0.4690    0.1850 C   0  0  0  0  0  0  0  0  0  0  0  0
   -0.5320    0.9400    1.1540 O   0  0  0  0  0  0  0  0  0  0  0  0
   -2.6160    0.4310    0.2570 C   0  0  0  0  0  0  0  0  0  0  0  0
   -3.3120   -0.1420   -0.8320 N   0  0  0  0  0  0  0  0  0  0  0  0
   -3.2210   -1.5470   -1.0150 C   0  0  0  0  0  0  0  0  0  0  0  0
   -4.5950    0.3890   -1.1400 C   0  0  0  0  0  0  0  0  0  0  0  0
   -5.5540    0.2780   -0.0040 C   0  0  0  0  0  0  0  0  0  0  0  0
   -6.4820   -0.7180    0.0460 C   0  0  0  0  0  0  0  0  0  0  0  0
   -7.3510   -0.7910    1.1230 C   0  0  0  0  0  0  0  0  0  0  0  0
   -7.2540    0.1440    2.1180 C   0  0  0  0  0  0  0  0  0  0  0  0
   -6.2960    1.1450    2.0350 C   0  0  0  0  0  0  0  0  0  0  0  0
   -5.4610    1.1940    0.9740 N   0  0  0  0  0  0  0  0  0  0  0  0
    1.4860   -0.1780   -2.3930 C   0  0  0  0  0  0  0  0  0  0  0  0
    2.8070   -0.1780   -2.6250 N   0  0  0  0  0  0  0  0  0  0  0  0
    6.9370   -1.0480   -0.0990 S   0  0  0  0  0  0  0  0  0  0  0  0
  1  2  1  0
  2  3  2  0
  2 26  1  0
  3  4  1  0
  4  5  2  0
  5  6  1  0
  5 26  1  0
  6  7  2  3
  7  8  1  0
  7 25  1  0
  8  9  2  0
  9 10  1  0
 10 11  1  0
 10 24  2  0
 11 12  1  0
 12 13  2  0
 12 14  1  0
 14 15  1  0
 15 16  1  0
 15 17  1  0
 17 18  1  0
 18 19  2  0
 18 23  1  0
 19 20  1  0
 20 21  2  0
 21 22  1  0
 22 23  2  0
 24 25  1  0
M  END
