
     RDKit          3D

 26 28  0  0  0  0  0  0  0  0999 V2000
   -7.8470    0.2770   -2.0440 C   0  0  0  0  0  0  0  0  0  0  0  0
   -7.6840   -0.1060   -0.7880 C   0  0  0  0  0  0  0  0  0  0  0  0
   -6.4220   -0.4790   -0.2910 N   0  0  0  0  0  0  0  0  0  0  0  0
   -6.3150   -1.3770    0.8320 C   0  0  0  0  0  0  0  0  0  0  0  0
   -4.9170   -1.7610    1.1420 C   0  0  0  0  0  0  0  0  0  0  0  0
   -3.9800   -0.6820    1.1660 N   0  0  0  0  0  0  0  0  0  0  0  0
   -2.6090   -1.1200    1.0810 C   0  0  0  0  0  0  0  0  0  0  0  0
   -1.6160   -0.0430    1.1320 C   0  0  0  0  0  0  0  0  0  0  0  0
   -0.3430   -0.2570    0.5910 C   0  0  0  0  0  0  0  0  0  0  0  0
    0.6060    0.7400    0.6340 C   0  0  0  0  0  0  0  0  0  0  0  0
    1.8900    0.5050    0.0800 N   0  0  0  0  0  0  0  0  0  0  0  0
    2.9360    1.5170    0.0940 C   0  0  0  0  0  0  0  0  0  0  0  0
    4.1760    1.0470   -0.5350 C   0  0  0  0  0  0  0  0  0  0  0  0
    4.6780    0.9870   -1.7810 C   0  0  0  0  0  0  0  0  0  0  0  0
    5.8830    0.4750   -1.9390 N   0  0  0  0  0  0  0  0  0  0  0  0
    6.5950    0.0570   -1.1460 C   0  0  0  0  0  0  0  0  0  0  0  0
    7.9680   -0.5710   -0.9800 C   0  0  1  0  0  0  0  0  0  0  0  0
    8.7520    0.3330   -0.0560 C   0  0  0  0  0  0  0  0  0  0  0  0
    7.8420   -1.9750   -0.4420 C   0  0  0  0  0  0  0  0  0  0  0  0
    5.5910    0.2980    0.4130 S   0  0  0  0  0  0  0  0  0  0  0  0
    0.3450    1.9750    1.2040 C   0  0  0  0  0  0  0  0  0  0  0  0
   -0.9180    2.1550    1.7280 C   0  0  0  0  0  0  0  0  0  0  0  0
   -1.2380    3.2660    2.2720 O   0  0  0  0  0  0  0  0  0  0  0  0
   -1.8350    1.1660    1.6770 N   0  0  0  0  0  0  0  0  0  0  0  0
   -4.2880    0.4020    0.2820 C   0  0  0  0  0  0  0  0  0  0  0  0
   -5.1900    0.0040   -0.8620 C   0  0  0  0  0  0  0  0  0  0  0  0
  1  2  2  0
  2  3  1  0
  3  4  1  0
  3 26  1  0
  4  5  1  0
  5  6  1  0
  6  7  1  0
  6 25  1  0
  7  8  1  0
  8  9  2  0
  8 24  1  0
  9 10  1  0
 10 11  1  0
 10 21  2  0
 11 12  1  0
 12 13  1  0
 13 14  2  0
 13 20  1  0
 14 15  1  0
 15 16  2  0
 16 17  1  0
 16 20  1  0
 17 18  1  1
 17 19  1  0
 21 22  1  0
 22 23  2  0
 22 24  1  0
 25 26  1  0
M  END
