
     RDKit          3D

 26 28  0  0  0  0  0  0  0  0999 V2000
    7.1020   -3.3500    3.1730 C   0  0  0  0  0  0  0  0  0  0  0  0
    6.0190   -3.1890    2.3990 C   0  0  0  0  0  0  0  0  0  0  0  0
    6.0340   -3.6450    1.0840 O   0  0  0  0  0  0  0  0  0  0  0  0
    4.8370   -2.5510    2.9010 C   0  0  0  0  0  0  0  0  0  0  0  0
    3.7570   -2.3820    2.1520 C   0  0  0  0  0  0  0  0  0  0  0  0
    2.5870   -1.7310    2.7030 C   0  0  0  0  0  0  0  0  0  0  0  0
    1.4830   -1.5190    1.9810 C   0  0  0  0  0  0  0  0  0  0  0  0
    0.3460   -0.8580    2.6000 C   0  0  0  0  0  0  0  0  0  0  0  0
    0.2650   -0.4620    3.8930 N   0  0  0  0  0  0  0  0  0  0  0  0
   -0.8820    0.1170    4.1350 N   0  0  0  0  0  0  0  0  0  0  0  0
   -1.5600    0.1030    2.9910 C   0  0  0  0  0  0  0  0  0  0  0  0
   -3.0640    0.6990    2.7280 S   0  0  0  0  0  0  0  0  0  0  0  0
   -0.7910   -0.5090    2.0260 N   0  0  0  0  0  0  0  0  0  0  0  0
   -1.2180   -0.6790    0.6820 C   0  0  0  0  0  0  0  0  0  0  0  0
   -1.2550   -1.8840    0.0550 C   0  0  0  0  0  0  0  0  0  0  0  0
   -1.6800   -2.0690   -1.2420 C   0  0  0  0  0  0  0  0  0  0  0  0
   -2.0980   -0.9290   -1.9500 C   0  0  0  0  0  0  0  0  0  0  0  0
   -2.0610    0.2890   -1.3250 C   0  0  0  0  0  0  0  0  0  0  0  0
   -2.4780    1.4720   -2.0450 N   0  0  0  0  0  0  0  0  0  0  0  0
   -2.8680    2.5740   -1.2380 C   0  0  0  0  0  0  0  0  0  0  0  0
   -2.6850    3.9390   -1.8270 C   0  0  0  0  0  0  0  0  0  0  0  0
   -1.9910    3.8650   -3.1760 C   0  0  0  0  0  0  0  0  0  0  0  0
   -2.6990    2.8260   -4.0210 C   0  0  0  0  0  0  0  0  0  0  0  0
   -2.4680    1.4440   -3.4580 C   0  0  1  0  0  0  0  0  0  0  0  0
   -1.1630    0.8670   -3.9620 C   0  0  0  0  0  0  0  0  0  0  0  0
   -1.6300    0.3980   -0.0400 N   0  0  0  0  0  0  0  0  0  0  0  0
  1  2  2  0
  2  3  1  0
  2  4  1  0
  4  5  2  3
  5  6  1  0
  6  7  2  3
  7  8  1  0
  8  9  2  0
  8 13  1  0
  9 10  1  0
 10 11  1  0
 11 12  2  0
 11 13  1  0
 13 14  1  0
 14 15  2  0
 14 26  1  0
 15 16  1  0
 16 17  2  0
 17 18  1  0
 18 19  1  0
 18 26  2  0
 19 20  1  0
 19 24  1  0
 20 21  1  0
 21 22  1  0
 22 23  1  0
 23 24  1  0
 24 25  1  1
M  END
