
     RDKit          3D

 23 25  0  0  0  0  0  0  0  0999 V2000
   -3.3380   -1.6930    0.2890 C   0  0  0  0  0  0  0  0  0  0  0  0
   -3.0850   -0.2010    0.3600 C   0  0  1  0  0  0  0  0  0  0  0  0
   -4.4080    0.4310    0.8080 C   0  0  0  0  0  0  0  0  0  0  0  0
   -2.0730    0.1490    1.4300 C   0  0  0  0  0  0  0  0  0  0  0  0
   -0.6860   -0.0880    0.9670 C   0  0  0  0  0  0  0  0  0  0  0  0
    0.1400   -0.6490    1.7010 O   0  0  0  0  0  0  0  0  0  0  0  0
   -0.3280    0.3590   -0.3710 C   0  0  0  0  0  0  0  0  0  0  0  0
    1.1100    0.5820   -0.7520 C   0  0  2  0  0  0  0  0  0  0  0  0
    1.8760   -0.6870   -0.7440 C   0  0  0  0  0  0  0  0  0  0  0  0
    2.9840   -0.8880   -0.0610 C   0  0  0  0  0  0  0  0  0  0  0  0
    3.7360   -2.1640   -0.0670 C   0  0  1  0  0  0  0  0  0  0  0  0
    3.8900   -2.6890    1.2090 O   0  0  0  0  0  0  0  0  0  0  0  0
    3.1600   -3.1590   -0.8730 O   0  0  0  0  0  0  0  0  0  0  0  0
    2.0000   -2.9600   -1.5920 C   0  0  0  0  0  0  0  0  0  0  0  0
    1.3760   -1.7990   -1.5460 C   0  0  0  0  0  0  0  0  0  0  0  0
    1.7390    1.6180    0.1100 C   0  0  0  0  0  0  0  0  0  0  0  0
    2.2700    2.8470   -0.3060 C   0  0  0  0  0  0  0  0  0  0  0  0
    2.7500    3.5010    0.7960 C   0  0  0  0  0  0  0  0  0  0  0  0
    2.4950    2.6430    1.8610 C   0  0  0  0  0  0  0  0  0  0  0  0
    1.9160    1.5860    1.4030 O   0  0  0  0  0  0  0  0  0  0  0  0
   -1.3080    0.5580   -1.2310 C   0  0  0  0  0  0  0  0  0  0  0  0
   -0.9130    0.9890   -2.5140 O   0  0  0  0  0  0  0  0  0  0  0  0
   -2.7480    0.3710   -0.9690 C   0  0  0  0  0  0  0  0  0  0  0  0
  2  1  1  6
  2  3  1  0
  2  4  1  0
  2 23  1  0
  4  5  1  0
  5  6  2  0
  5  7  1  0
  8  7  1  1
  7 21  2  0
  8  9  1  0
  8 16  1  0
  9 10  2  0
  9 15  1  0
 10 11  1  0
 11 12  1  1
 11 13  1  0
 13 14  1  0
 14 15  2  0
 16 17  2  0
 16 20  1  0
 17 18  1  0
 18 19  2  0
 19 20  1  0
 21 22  1  0
 21 23  1  0
M  END
