
     RDKit          3D

 23 25  0  0  0  0  0  0  0  0999 V2000
   -7.0120   -0.7440    1.2950 C   0  0  0  0  0  0  0  0  0  0  0  0
   -5.8590   -0.9280    0.3970 C   0  0  0  0  0  0  0  0  0  0  0  0
   -4.7280   -0.2330    0.3330 C   0  0  0  0  0  0  0  0  0  0  0  0
   -4.4370    0.9200    1.2230 C   0  0  0  0  0  0  0  0  0  0  0  0
   -3.8710   -0.7780   -0.7130 C   0  0  0  0  0  0  0  0  0  0  0  0
   -2.6210   -0.2580   -1.0160 O   0  0  0  0  0  0  0  0  0  0  0  0
   -1.4530   -0.6680   -0.4330 C   0  0  0  0  0  0  0  0  0  0  0  0
   -1.4880   -1.5730    0.4360 O   0  0  0  0  0  0  0  0  0  0  0  0
   -0.1470   -0.1070   -0.7650 C   0  0  0  0  0  0  0  0  0  0  0  0
    0.0900    0.8950   -1.6950 C   0  0  0  0  0  0  0  0  0  0  0  0
    1.4450    1.1430   -1.7170 C   0  0  0  0  0  0  0  0  0  0  0  0
    1.9960    0.2850   -0.8010 C   0  0  0  0  0  0  0  0  0  0  0  0
    3.4310    0.1710   -0.4600 C   0  0  0  0  0  0  0  0  0  0  0  0
    3.8490   -0.6960    0.4440 C   0  0  0  0  0  0  0  0  0  0  0  0
    5.3340   -0.7090    0.6940 C   0  0  0  0  0  0  0  0  0  0  0  0
    5.7100    0.7320    0.9930 C   0  0  1  0  0  0  0  0  0  0  0  0
    7.0670    0.8570    1.2400 O   0  0  0  0  0  0  0  0  0  0  0  0
    5.2670    1.6870   -0.0620 C   0  0  0  0  0  0  0  0  0  0  0  0
    4.4210    1.0230   -1.1250 C   0  0  0  0  0  0  0  0  0  0  0  0
    1.0260   -0.4150   -0.2800 O   0  0  0  0  0  0  0  0  0  0  0  0
   -4.4950   -1.8020   -1.2740 C   0  0  0  0  0  0  0  0  0  0  0  0
   -5.7910   -1.9750   -0.6190 C   0  0  0  0  0  0  0  0  0  0  0  0
   -6.6430   -2.8400   -0.8880 O   0  0  0  0  0  0  0  0  0  0  0  0
  1  2  1  0
  2  3  2  0
  2 22  1  0
  3  4  1  0
  3  5  1  0
  5  6  1  0
  5 21  2  0
  6  7  1  0
  7  8  2  0
  7  9  1  0
  9 10  2  0
  9 20  1  0
 10 11  1  0
 11 12  2  0
 12 13  1  0
 12 20  1  0
 13 14  2  0
 13 19  1  0
 14 15  1  0
 15 16  1  0
 16 17  1  6
 16 18  1  0
 18 19  1  0
 21 22  1  0
 22 23  2  0
M  END
