
     RDKit          3D

 23 26  0  0  0  0  0  0  0  0999 V2000
    7.2070    0.1130    0.4600 C   0  0  0  0  0  0  0  0  0  0  0  0
    6.1500   -0.8310    0.2790 O   0  0  0  0  0  0  0  0  0  0  0  0
    5.0100   -0.5330   -0.4520 C   0  0  0  0  0  0  0  0  0  0  0  0
    4.9270    0.6170   -0.9670 O   0  0  0  0  0  0  0  0  0  0  0  0
    3.9270   -1.5480   -0.6120 C   0  0  0  0  0  0  0  0  0  0  0  0
    2.6360   -0.9820   -0.1250 C   0  0  1  0  0  0  0  0  0  0  0  0
    2.2290    0.2590   -0.8730 C   0  0  0  0  0  0  0  0  0  0  0  0
    0.7370    0.2620   -0.6480 C   0  0  0  0  0  0  0  0  0  0  0  0
   -0.2110    1.2360   -0.6310 C   0  0  0  0  0  0  0  0  0  0  0  0
   -1.5430    0.8790   -0.3880 C   0  0  0  0  0  0  0  0  0  0  0  0
   -1.9100   -0.4230   -0.1690 C   0  0  0  0  0  0  0  0  0  0  0  0
   -0.9300   -1.4300   -0.1880 C   0  0  0  0  0  0  0  0  0  0  0  0
    0.3770   -1.0470   -0.4290 C   0  0  0  0  0  0  0  0  0  0  0  0
    1.5270   -1.8360   -0.4950 O   0  0  0  0  0  0  0  0  0  0  0  0
   -3.3490   -0.5060    0.0690 C   0  0  0  0  0  0  0  0  0  0  0  0
   -4.1350   -1.6180    0.3360 C   0  0  0  0  0  0  0  0  0  0  0  0
   -5.4780   -1.4220    0.5320 C   0  0  0  0  0  0  0  0  0  0  0  0
   -5.9910   -0.1440    0.4570 C   0  0  0  0  0  0  0  0  0  0  0  0
   -5.2040    0.9470    0.1920 C   0  0  0  0  0  0  0  0  0  0  0  0
   -5.7840    2.1990    0.1310 O   0  0  0  0  0  0  0  0  0  0  0  0
   -3.8490    0.7660   -0.0080 C   0  0  0  0  0  0  0  0  0  0  0  0
   -2.7640    1.7100   -0.3120 C   0  0  2  0  0  0  0  0  0  0  0  0
   -2.9830    2.3910   -1.5100 O   0  0  0  0  0  0  0  0  0  0  0  0
  1  2  1  0
  2  3  1  0
  3  4  2  0
  3  5  1  0
  6  5  1  6
  6  7  1  0
  6 14  1  0
  7  8  1  0
  8  9  2  0
  8 13  1  0
  9 10  1  0
 10 11  2  0
 10 22  1  0
 11 12  1  0
 11 15  1  0
 12 13  2  0
 13 14  1  0
 15 16  2  0
 15 21  1  0
 16 17  1  0
 17 18  2  0
 18 19  1  0
 19 20  1  0
 19 21  2  0
 21 22  1  0
 22 23  1  6
M  END
