
     RDKit          3D

 23 26  0  0  0  0  0  0  0  0999 V2000
   -5.0540    2.1650   -0.3790 C   0  0  0  0  0  0  0  0  0  0  0  0
   -4.2210    2.3450    0.6930 O   0  0  0  0  0  0  0  0  0  0  0  0
   -2.9150    2.0180    0.5360 C   0  0  0  0  0  0  0  0  0  0  0  0
   -2.5760    0.5900    0.4060 C   0  0  0  0  0  0  0  0  0  0  0  0
   -3.4920   -0.4130    0.5620 C   0  0  0  0  0  0  0  0  0  0  0  0
   -3.0200   -1.7220    0.4600 C   0  0  0  0  0  0  0  0  0  0  0  0
   -1.7010   -2.0330    0.2160 C   0  0  0  0  0  0  0  0  0  0  0  0
   -0.7920   -1.0110    0.0570 C   0  0  0  0  0  0  0  0  0  0  0  0
   -1.2310    0.2850    0.1570 C   0  0  0  0  0  0  0  0  0  0  0  0
   -0.3000    1.3330    0.0140 O   0  0  0  0  0  0  0  0  0  0  0  0
    1.0370    1.0450   -0.2240 C   0  0  0  0  0  0  0  0  0  0  0  0
    1.9350    2.0810   -0.3400 C   0  0  0  0  0  0  0  0  0  0  0  0
    3.2820    1.8870   -0.5630 C   0  0  0  0  0  0  0  0  0  0  0  0
    3.7520    0.5990   -0.6750 C   0  0  0  0  0  0  0  0  0  0  0  0
    5.2130    0.3580   -0.9160 C   0  0  0  0  0  0  0  0  0  0  0  0
    5.8050    0.2540    0.3510 O   0  0  0  0  0  0  0  0  0  0  0  0
    2.8630   -0.4450   -0.5620 C   0  0  0  0  0  0  0  0  0  0  0  0
    1.5210   -0.2540   -0.3410 C   0  0  0  0  0  0  0  0  0  0  0  0
    0.5940   -1.3690   -0.3150 C   0  0  1  0  0  0  0  0  0  0  0  0
    0.9900   -2.6040    0.4390 C   0  0  0  0  0  0  0  0  0  0  0  0
    0.0380   -3.6670   -0.0840 C   0  0  0  0  0  0  0  0  0  0  0  0
    0.4860   -4.6620   -0.6520 O   0  0  0  0  0  0  0  0  0  0  0  0
   -1.2970   -3.3910    0.1430 O   0  0  0  0  0  0  0  0  0  0  0  0
  1  2  1  0
  2  3  1  0
  3  4  1  0
  4  5  2  0
  4  9  1  0
  5  6  1  0
  6  7  2  0
  7  8  1  0
  7 23  1  0
  8  9  2  0
  8 19  1  0
  9 10  1  0
 10 11  1  0
 11 12  2  0
 11 18  1  0
 12 13  1  0
 13 14  2  0
 14 15  1  0
 14 17  1  0
 15 16  1  0
 17 18  2  0
 18 19  1  0
 19 20  1  1
 20 21  1  0
 21 22  2  0
 21 23  1  0
M  END
