
     RDKit          3D

 23 26  0  0  0  0  0  0  0  0999 V2000
   -5.7400    0.2680    1.7250 C   0  0  0  0  0  0  0  0  0  0  0  0
   -5.0970    1.1650    0.6940 C   0  0  0  0  0  0  0  0  0  0  0  0
   -3.8220    0.5720    0.1820 C   0  0  0  0  0  0  0  0  0  0  0  0
   -2.5820    1.0260    0.5770 C   0  0  0  0  0  0  0  0  0  0  0  0
   -1.4050    0.4700    0.0970 C   0  0  0  0  0  0  0  0  0  0  0  0
   -0.1330    0.7120    0.3100 O   0  0  0  0  0  0  0  0  0  0  0  0
    0.6310   -0.0950   -0.3870 C   0  0  0  0  0  0  0  0  0  0  0  0
   -0.1450   -0.9530   -1.1310 C   0  0  0  0  0  0  0  0  0  0  0  0
   -1.4500   -0.5760   -0.8070 C   0  0  0  0  0  0  0  0  0  0  0  0
   -2.6900   -1.0250   -1.1970 C   0  0  0  0  0  0  0  0  0  0  0  0
   -3.8610   -0.4720   -0.7210 C   0  0  0  0  0  0  0  0  0  0  0  0
   -5.1010   -0.9670   -1.1510 O   0  0  0  0  0  0  0  0  0  0  0  0
    0.3920   -2.0000   -2.0360 C   0  0  0  0  0  0  0  0  0  0  0  0
    1.7800   -1.9970   -2.0300 O   0  0  0  0  0  0  0  0  0  0  0  0
    2.6140   -1.1710   -1.3150 C   0  0  0  0  0  0  0  0  0  0  0  0
    4.0000   -1.2650   -1.3940 C   0  0  0  0  0  0  0  0  0  0  0  0
    4.8040   -0.4200   -0.6630 C   0  0  0  0  0  0  0  0  0  0  0  0
    4.2880    0.5470    0.1720 C   0  0  0  0  0  0  0  0  0  0  0  0
    5.1180    1.4030    0.9130 O   0  0  0  0  0  0  0  0  0  0  0  0
    6.5240    1.2850    0.8120 C   0  0  0  0  0  0  0  0  0  0  0  0
    2.9180    0.6360    0.2480 C   0  0  0  0  0  0  0  0  0  0  0  0
    2.3600    1.5900    1.0720 O   0  0  0  0  0  0  0  0  0  0  0  0
    2.0950   -0.2120   -0.4870 C   0  0  0  0  0  0  0  0  0  0  0  0
  1  2  1  0
  2  3  1  0
  3  4  2  0
  3 11  1  0
  4  5  1  0
  5  6  1  0
  5  9  2  0
  6  7  1  0
  7  8  2  0
  7 23  1  0
  8  9  1  0
  8 13  1  0
  9 10  1  0
 10 11  2  0
 11 12  1  0
 13 14  1  0
 14 15  1  0
 15 16  2  0
 15 23  1  0
 16 17  1  0
 17 18  2  0
 18 19  1  0
 18 21  1  0
 19 20  1  0
 21 22  1  0
 21 23  2  0
M  END
