
     RDKit          3D

 38 39  0  0  0  0  0  0  0  0999 V2000
  -10.3650    1.5110    2.9760 C   0  0  0  0  0  0  0  0  0  0  0  0
   -9.4650    2.0660    2.1180 O   0  0  0  0  0  0  0  0  0  0  0  0
   -8.8100    1.1370    1.3410 C   0  0  0  0  0  0  0  0  0  0  0  0
   -8.0220    0.1800    2.1860 C   0  0  0  0  0  0  0  0  0  0  0  0
   -7.3680   -0.7430    1.3450 O   0  0  0  0  0  0  0  0  0  0  0  0
   -6.4150   -0.4120    0.4080 C   0  0  0  0  0  0  0  0  0  0  0  0
   -6.0980    0.7920    0.2930 O   0  0  0  0  0  0  0  0  0  0  0  0
   -5.7880   -1.3680   -0.4200 N   0  0  0  0  0  0  0  0  0  0  0  0
   -4.7750   -1.1040   -1.4190 C   0  0  0  0  0  0  0  0  0  0  0  0
   -3.5400   -0.5520   -0.8290 C   0  0  2  0  0  0  0  0  0  0  0  0
   -3.6470    0.6510   -0.1640 O   0  0  0  0  0  0  0  0  0  0  0  0
   -2.3990   -0.4480   -1.8620 C   0  0  2  0  0  0  0  0  0  0  0  0
   -2.0370   -1.7630   -2.3710 C   0  0  0  0  0  0  0  0  0  0  0  0
   -1.4220    0.4850   -1.2950 C   0  0  0  0  0  0  0  0  0  0  0  0
   -0.1850    0.8340   -2.0090 C   0  0  2  0  0  0  0  0  0  0  0  0
    0.7330   -0.3400   -2.2170 C   0  0  0  0  0  0  0  0  0  0  0  0
    1.1880   -0.9720   -1.1090 O   0  0  0  0  0  0  0  0  0  0  0  0
    0.7960   -1.6210   -0.0330 C   0  0  0  0  0  0  0  0  0  0  0  0
    1.6110   -1.9490    0.9560 C   0  0  0  0  0  0  0  0  0  0  0  0
    3.0310   -1.6650    1.0340 C   0  0  0  0  0  0  0  0  0  0  0  0
    3.6480   -2.0710    2.0870 O   0  0  0  0  0  0  0  0  0  0  0  0
    3.8110   -0.9960    0.0920 N   0  0  0  0  0  0  0  0  0  0  0  0
    5.1900   -0.7160    0.1770 C   0  0  0  0  0  0  0  0  0  0  0  0
    5.8660   -0.3430   -0.9890 C   0  0  0  0  0  0  0  0  0  0  0  0
    7.2040   -0.0290   -1.0240 C   0  0  0  0  0  0  0  0  0  0  0  0
    7.9180   -0.0810    0.1380 C   0  0  0  0  0  0  0  0  0  0  0  0
    9.2630    0.2260    0.1470 O   0  0  0  0  0  0  0  0  0  0  0  0
    7.3140   -0.4390    1.3100 C   0  0  0  0  0  0  0  0  0  0  0  0
    8.0330   -0.5140    2.5900 C   0  0  1  0  0  0  0  0  0  0  0  0
    8.7520   -1.7260    2.5860 O   0  0  0  0  0  0  0  0  0  0  0  0
    8.9130    0.6370    2.8150 C   0  0  0  0  0  0  0  0  0  0  0  0
   10.3030    0.4300    2.9940 N   0  0  0  0  0  0  0  0  0  0  0  0
    8.4590    1.8010    2.8530 O   0  0  0  0  0  0  0  0  0  0  0  0
    5.9450   -0.7540    1.3140 C   0  0  0  0  0  0  0  0  0  0  0  0
    0.5840    1.9220   -1.3080 C   0  0  0  0  0  0  0  0  0  0  0  0
    0.3760    3.1900   -2.1210 C   0  0  0  0  0  0  0  0  0  0  0  0
   -0.7630    2.7540   -3.0210 C   0  0  0  0  0  0  0  0  0  0  0  0
   -0.4780    1.4330   -3.2620 O   0  0  0  0  0  0  0  0  0  0  0  0
  1  2  1  0
  2  3  1  0
  3  4  1  0
  4  5  1  0
  5  6  1  0
  6  7  2  0
  6  8  1  0
  8  9  1  0
  9 10  1  0
 10 11  1  6
 10 12  1  0
 12 13  1  1
 12 14  1  0
 15 14  1  1
 15 16  1  0
 15 35  1  0
 15 38  1  0
 16 17  1  0
 17 18  1  0
 18 19  2  3
 19 20  1  0
 20 21  2  0
 20 22  1  0
 22 23  1  0
 23 24  2  0
 23 34  1  0
 24 25  1  0
 25 26  2  0
 26 27  1  0
 26 28  1  0
 28 29  1  0
 28 34  2  0
 29 30  1  6
 29 31  1  0
 31 32  1  0
 31 33  2  0
 35 36  1  0
 36 37  1  0
 37 38  1  0
M  END
