
     RDKit          3D

 38 39  0  0  0  0  0  0  0  0999 V2000
   -3.7100    6.8960   -1.4210 C   0  0  0  0  0  0  0  0  0  0  0  0
   -4.4020    5.8280   -0.6160 C   0  0  0  0  0  0  0  0  0  0  0  0
   -3.5570    4.8840   -0.0500 O   0  0  0  0  0  0  0  0  0  0  0  0
   -2.5910    5.2530    0.8650 C   0  0  0  0  0  0  0  0  0  0  0  0
   -2.3910    6.5310    1.2930 C   0  0  0  0  0  0  0  0  0  0  0  0
   -1.3960    6.7790    2.2070 C   0  0  0  0  0  0  0  0  0  0  0  0
   -0.5970    5.7740    2.7020 C   0  0  0  0  0  0  0  0  0  0  0  0
   -0.8230    4.5010    2.2540 C   0  0  0  0  0  0  0  0  0  0  0  0
   -1.8080    4.1520    1.3270 C   0  0  0  0  0  0  0  0  0  0  0  0
   -1.9980    2.9470    0.9180 O   0  0  0  0  0  0  0  0  0  0  0  0
   -1.8170    1.6740    0.7950 C   0  0  0  0  0  0  0  0  0  0  0  0
   -0.4920    1.1270    0.1950 C   0  0  1  0  0  0  0  0  0  0  0  0
    0.6480    1.4900    1.0840 C   0  0  0  0  0  0  0  0  0  0  0  0
    1.8670    0.8750    0.8620 O   0  0  0  0  0  0  0  0  0  0  0  0
    2.2310   -0.4330    0.9890 C   0  0  0  0  0  0  0  0  0  0  0  0
    1.3710   -1.2510    1.3680 O   0  0  0  0  0  0  0  0  0  0  0  0
    3.6360   -0.9070    0.6850 C   0  0  1  0  0  0  0  0  0  0  0  0
    4.6200   -0.2870    1.6370 C   0  0  0  0  0  0  0  0  0  0  0  0
    3.5920   -2.2840    0.9420 O   0  0  0  0  0  0  0  0  0  0  0  0
    3.9780   -0.6130   -0.7200 C   0  0  0  0  0  0  0  0  0  0  0  0
    3.1280    0.2770   -1.4260 O   0  0  0  0  0  0  0  0  0  0  0  0
    4.9940   -1.0960   -1.3720 C   0  0  0  0  0  0  0  0  0  0  0  0
    5.9890   -2.0050   -0.8680 C   0  0  0  0  0  0  0  0  0  0  0  0
    7.0900   -2.4510   -1.8110 C   0  0  0  0  0  0  0  0  0  0  0  0
    6.0410   -2.4790    0.3020 N   0  0  0  0  0  0  0  0  0  0  0  0
    7.0150   -3.3580    0.7670 N   0  0  0  0  0  0  0  0  0  0  0  0
   -0.7110   -0.2750    0.2250 O   0  0  0  0  0  0  0  0  0  0  0  0
   -0.8040   -1.0250   -0.9450 C   0  0  0  0  0  0  0  0  0  0  0  0
   -0.6840   -0.4050   -2.0320 O   0  0  0  0  0  0  0  0  0  0  0  0
   -1.0370   -2.4890   -0.8620 C   0  0  2  0  0  0  0  0  0  0  0  0
   -2.3060   -2.8070   -1.6010 C   0  0  0  0  0  0  0  0  0  0  0  0
   -2.9110   -4.0520   -1.3320 N   0  0  0  0  0  0  0  0  0  0  0  0
   -4.3390   -3.9170   -1.4320 C   0  0  0  0  0  0  0  0  0  0  0  0
   -5.0690   -5.2110   -1.1620 C   0  0  0  0  0  0  0  0  0  0  0  0
   -4.6960   -6.2070   -2.0690 O   0  0  0  0  0  0  0  0  0  0  0  0
   -2.5180   -4.7410   -0.1640 C   0  0  0  0  0  0  0  0  0  0  0  0
   -1.2510   -4.2560    0.4840 C   0  0  0  0  0  0  0  0  0  0  0  0
   -1.1310   -2.8750    0.4500 O   0  0  0  0  0  0  0  0  0  0  0  0
  1  2  1  0
  2  3  1  0
  3  4  1  0
  4  5  2  0
  4  9  1  0
  5  6  1  0
  6  7  2  0
  7  8  1  0
  8  9  2  0
  9 10  1  0
 10 11  1  0
 12 11  1  1
 12 13  1  0
 12 27  1  0
 13 14  1  0
 14 15  1  0
 15 16  2  0
 15 17  1  0
 17 18  1  1
 17 19  1  0
 17 20  1  0
 20 21  1  0
 20 22  2  3
 22 23  1  0
 23 24  1  0
 23 25  2  3
 25 26  1  0
 27 28  1  0
 28 29  2  0
 30 28  1  1
 30 31  1  0
 30 38  1  0
 31 32  1  0
 32 33  1  0
 32 36  1  0
 33 34  1  0
 34 35  1  0
 36 37  1  0
 37 38  1  0
M  END
