
     RDKit          3D

 38 41  0  0  0  0  0  0  0  0999 V2000
   -0.5980   -3.9560   -0.1330 C   0  0  0  0  0  0  0  0  0  0  0  0
   -2.0560   -4.3170   -0.1360 C   0  0  0  0  0  0  0  0  0  0  0  0
   -2.8890   -3.1740   -0.2700 O   0  0  0  0  0  0  0  0  0  0  0  0
   -2.9040   -2.1200    0.6260 C   0  0  0  0  0  0  0  0  0  0  0  0
   -2.1400   -2.1770    1.6130 O   0  0  0  0  0  0  0  0  0  0  0  0
   -3.7730   -0.9570    0.4600 C   0  0  0  0  0  0  0  0  0  0  0  0
   -5.0370   -0.9860    1.0900 C   0  0  0  0  0  0  0  0  0  0  0  0
   -5.3490   -2.0650    1.8660 F   0  0  0  0  0  0  0  0  0  0  0  0
   -5.9050    0.0290    0.9240 C   0  0  0  0  0  0  0  0  0  0  0  0
   -7.2390   -0.0070    1.5900 C   0  0  0  0  0  0  0  0  0  0  0  0
   -5.5400    1.0940    0.1320 C   0  0  0  0  0  0  0  0  0  0  0  0
   -6.4700    2.1020    0.0160 C   0  0  0  0  0  0  0  0  0  0  0  0
   -6.2040    3.2130   -0.7360 C   0  0  0  0  0  0  0  0  0  0  0  0
   -7.2150    4.2830   -0.8510 C   0  0  0  0  0  0  0  0  0  0  0  0
   -7.0620    5.3290    0.2370 C   0  0  0  0  0  0  0  0  0  0  0  0
   -4.9850    3.2670   -1.3560 C   0  0  0  0  0  0  0  0  0  0  0  0
   -4.0300    2.2470   -1.2460 C   0  0  0  0  0  0  0  0  0  0  0  0
   -4.2930    1.1350   -0.4970 C   0  0  0  0  0  0  0  0  0  0  0  0
   -3.3750    0.0830   -0.3350 C   0  0  0  0  0  0  0  0  0  0  0  0
   -2.0990    0.1770   -0.9860 C   0  0  0  0  0  0  0  0  0  0  0  0
   -2.0960    0.5550   -2.2190 O   0  0  0  0  0  0  0  0  0  0  0  0
   -0.8170   -0.0900   -0.4480 N   0  0  0  0  0  0  0  0  0  0  0  0
    0.3630    0.0570   -1.2820 C   0  0  2  0  0  0  0  0  0  0  0  0
    1.1980   -1.0400   -1.3220 O   0  0  0  0  0  0  0  0  0  0  0  0
    2.2820   -1.0360   -0.5080 C   0  0  0  0  0  0  0  0  0  0  0  0
    2.7550   -2.0720    0.0520 O   0  0  0  0  0  0  0  0  0  0  0  0
    2.8800    0.2810   -0.3180 C   0  0  0  0  0  0  0  0  0  0  0  0
    4.0990    0.6370   -0.0050 C   0  0  0  0  0  0  0  0  0  0  0  0
    4.3860    2.1110    0.1140 C   0  0  0  0  0  0  0  0  0  0  0  0
    5.1300   -0.3100    0.2160 N   0  0  0  0  0  0  0  0  0  0  0  0
    5.6010   -1.2610   -0.7620 C   0  0  0  0  0  0  0  0  0  0  0  0
    7.1190   -1.1040   -0.8680 C   0  0  2  0  0  0  0  0  0  0  0  0
    7.8240   -2.4370   -0.7930 C   0  0  0  0  0  0  0  0  0  0  0  0
    7.6330   -0.1420   -0.0470 O   0  0  0  0  0  0  0  0  0  0  0  0
    7.2540   -0.1530    1.2620 C   0  0  2  0  0  0  0  0  0  0  0  0
    8.0560   -1.1410    2.1090 C   0  0  0  0  0  0  0  0  0  0  0  0
    5.8020   -0.3650    1.5130 C   0  0  0  0  0  0  0  0  0  0  0  0
    1.4660    1.3790   -0.6380 S   0  0  0  0  0  0  0  0  0  0  0  0
  1  2  1  0
  2  3  1  0
  3  4  1  0
  4  5  2  0
  4  6  1  0
  6  7  2  0
  6 19  1  0
  7  8  1  0
  7  9  1  0
  9 10  1  0
  9 11  2  0
 11 12  1  0
 11 18  1  0
 12 13  2  0
 13 14  1  0
 13 16  1  0
 14 15  1  0
 16 17  2  0
 17 18  1  0
 18 19  2  0
 19 20  1  0
 20 21  2  0
 20 22  1  0
 23 22  1  1
 23 24  1  0
 23 38  1  0
 24 25  1  0
 25 26  2  0
 25 27  1  0
 27 28  2  3
 27 38  1  0
 28 29  1  0
 28 30  1  0
 30 31  1  0
 30 37  1  0
 31 32  1  0
 32 33  1  1
 32 34  1  0
 34 35  1  0
 35 36  1  1
 35 37  1  0
M  END
