
     RDKit          3D

 38 39  0  0  0  0  0  0  0  0999 V2000
    8.6420   -1.9710    2.8380 N   0  0  0  0  0  0  0  0  0  0  0  0
    7.8890   -1.5850    1.6370 C   0  0  0  0  0  0  0  0  0  0  0  0
    7.1390   -0.3350    2.0030 C   0  0  0  0  0  0  0  0  0  0  0  0
    6.3610    0.1190    0.8930 N   0  0  0  0  0  0  0  0  0  0  0  0
    6.8170    1.0930   -0.0640 C   0  0  0  0  0  0  0  0  0  0  0  0
    7.4980    0.5330   -1.2670 C   0  0  0  0  0  0  0  0  0  0  0  0
    7.8840    1.7090   -2.1650 C   0  0  0  0  0  0  0  0  0  0  0  0
    8.5160    1.1900   -3.2830 O   0  0  0  0  0  0  0  0  0  0  0  0
    5.0310   -0.3950    0.7370 C   0  0  0  0  0  0  0  0  0  0  0  0
    4.6120   -1.2250    1.5740 O   0  0  0  0  0  0  0  0  0  0  0  0
    4.1750    0.0400   -0.3740 C   0  0  0  0  0  0  0  0  0  0  0  0
    2.9110   -0.6060   -0.2550 O   0  0  0  0  0  0  0  0  0  0  0  0
    2.1560   -0.3820    0.8800 C   0  0  0  0  0  0  0  0  0  0  0  0
    2.5370    0.3670    1.8080 O   0  0  0  0  0  0  0  0  0  0  0  0
    0.8450   -1.0580    0.9960 C   0  0  0  0  0  0  0  0  0  0  0  0
   -0.2210   -0.0930    0.5280 C   0  0  2  0  0  0  0  0  0  0  0  0
   -0.1650    1.1260    1.4080 C   0  0  0  0  0  0  0  0  0  0  0  0
   -1.3140    2.0360    1.0060 C   0  0  0  0  0  0  0  0  0  0  0  0
   -2.5970    1.3060    1.3100 C   0  0  0  0  0  0  0  0  0  0  0  0
   -2.7160    0.1440    0.3350 C   0  0  1  0  0  0  0  0  0  0  0  0
   -2.7590    0.5410   -0.9760 O   0  0  0  0  0  0  0  0  0  0  0  0
   -3.7820    0.2790   -1.8500 C   0  0  0  0  0  0  0  0  0  0  0  0
   -3.6580    0.7690   -3.1660 C   0  0  0  0  0  0  0  0  0  0  0  0
   -4.6510    0.5350   -4.0790 C   0  0  0  0  0  0  0  0  0  0  0  0
   -5.7970   -0.1730   -3.7740 C   0  0  0  0  0  0  0  0  0  0  0  0
   -6.7910   -0.4000   -4.7090 O   0  0  0  0  0  0  0  0  0  0  0  0
   -5.9390   -0.6600   -2.4970 C   0  0  0  0  0  0  0  0  0  0  0  0
   -7.1650   -1.4220   -2.1850 C   0  0  2  0  0  0  0  0  0  0  0  0
   -8.2880   -0.8230   -2.7510 O   0  0  0  0  0  0  0  0  0  0  0  0
   -7.3420   -1.7560   -0.7430 C   0  0  0  0  0  0  0  0  0  0  0  0
   -7.4280   -0.5840    0.1370 C   0  0  0  0  0  0  0  0  0  0  0  0
   -7.3900    0.5790   -0.3440 O   0  0  0  0  0  0  0  0  0  0  0  0
   -7.5550   -0.7060    1.5460 N   0  0  0  0  0  0  0  0  0  0  0  0
   -7.6330    0.4620    2.3530 C   0  0  0  0  0  0  0  0  0  0  0  0
   -7.5900    1.5990    1.8230 O   0  0  0  0  0  0  0  0  0  0  0  0
   -7.7590    0.3700    3.7500 O   0  0  0  0  0  0  0  0  0  0  0  0
   -4.9220   -0.4200   -1.5610 C   0  0  0  0  0  0  0  0  0  0  0  0
   -1.5560   -0.8010    0.6140 C   0  0  0  0  0  0  0  0  0  0  0  0
  1  2  1  0
  2  3  1  0
  3  4  1  0
  4  5  1  0
  4  9  1  0
  5  6  1  0
  6  7  1  0
  7  8  1  0
  9 10  2  0
  9 11  1  0
 11 12  1  0
 12 13  1  0
 13 14  2  0
 13 15  1  0
 16 15  1  1
 16 17  1  0
 16 38  1  0
 17 18  1  0
 18 19  1  0
 19 20  1  0
 20 21  1  6
 20 38  1  0
 21 22  1  0
 22 23  2  0
 22 37  1  0
 23 24  1  0
 24 25  2  0
 25 26  1  0
 25 27  1  0
 27 28  1  0
 27 37  2  0
 28 29  1  1
 28 30  1  0
 30 31  1  0
 31 32  2  0
 31 33  1  0
 33 34  1  0
 34 35  2  0
 34 36  1  0
M  END
