
     RDKit          3D

 38 39  0  0  0  0  0  0  0  0999 V2000
    3.2860   -3.1680    0.9150 C   0  0  0  0  0  0  0  0  0  0  0  0
    2.0210   -2.6360    0.2850 C   0  0  0  0  0  0  0  0  0  0  0  0
    1.7090   -1.3230    0.6570 O   0  0  0  0  0  0  0  0  0  0  0  0
    2.5980   -0.3090    0.3770 C   0  0  0  0  0  0  0  0  0  0  0  0
    3.7120   -0.0910    1.0210 C   0  0  0  0  0  0  0  0  0  0  0  0
    4.6970    0.9830    0.7780 C   0  0  1  0  0  0  0  0  0  0  0  0
    6.1030    0.4500    0.9210 C   0  0  0  0  0  0  0  0  0  0  0  0
    7.2070    1.4110    0.7640 C   0  0  0  0  0  0  0  0  0  0  0  0
    8.5430    0.7320    0.9390 C   0  0  0  0  0  0  0  0  0  0  0  0
    8.5370   -0.4920    1.1810 O   0  0  0  0  0  0  0  0  0  0  0  0
    9.7470    1.3940    0.8460 O   0  0  0  0  0  0  0  0  0  0  0  0
    4.3980    1.8060   -0.3820 C   0  0  1  0  0  0  0  0  0  0  0  0
    5.4220    1.5290   -1.4460 N   0  0  0  0  0  0  0  0  0  0  0  0
    3.1290    1.5540   -1.0540 C   0  0  0  0  0  0  0  0  0  0  0  0
    2.3070    0.6030   -0.7320 C   0  0  0  0  0  0  0  0  0  0  0  0
    1.1120    0.4540   -1.4720 O   0  0  0  0  0  0  0  0  0  0  0  0
    1.0560   -0.3490   -2.6050 C   0  0  0  0  0  0  0  0  0  0  0  0
    2.1110   -0.9640   -2.9810 O   0  0  0  0  0  0  0  0  0  0  0  0
   -0.1450   -0.5540   -3.4250 C   0  0  0  0  0  0  0  0  0  0  0  0
   -1.2100    0.1930   -2.8700 O   0  0  0  0  0  0  0  0  0  0  0  0
   -1.5960   -0.0930   -1.5730 C   0  0  0  0  0  0  0  0  0  0  0  0
   -1.0130   -1.0000   -0.8920 O   0  0  0  0  0  0  0  0  0  0  0  0
   -2.7070    0.6720   -0.9680 C   0  0  1  0  0  0  0  0  0  0  0  0
   -3.1830    1.6060   -1.9070 O   0  0  0  0  0  0  0  0  0  0  0  0
   -4.2470    2.4420   -1.5350 C   0  0  0  0  0  0  0  0  0  0  0  0
   -5.3750    2.3410   -2.2090 C   0  0  0  0  0  0  0  0  0  0  0  0
   -6.5490    3.1790   -1.8900 C   0  0  0  0  0  0  0  0  0  0  0  0
   -6.2590    4.0320   -0.8230 O   0  0  0  0  0  0  0  0  0  0  0  0
   -5.1040    4.1480   -0.1200 C   0  0  0  0  0  0  0  0  0  0  0  0
   -4.0860    3.3750   -0.4460 C   0  0  0  0  0  0  0  0  0  0  0  0
   -2.8570    3.4680    0.2680 N   0  0  0  0  0  0  0  0  0  0  0  0
   -3.7880   -0.2600   -0.5400 C   0  0  0  0  0  0  0  0  0  0  0  0
   -4.9390   -0.1680   -0.9950 O   0  0  0  0  0  0  0  0  0  0  0  0
   -3.5210   -1.2790    0.4020 N   0  0  0  0  0  0  0  0  0  0  0  0
   -4.5360   -2.1990    0.8400 C   0  0  1  0  0  0  0  0  0  0  0  0
   -4.0660   -3.5970    0.4890 C   0  0  0  0  0  0  0  0  0  0  0  0
   -4.7930   -2.1300    2.3290 C   0  0  0  0  0  0  0  0  0  0  0  0
   -5.8890   -3.1620    2.6210 C   0  0  0  0  0  0  0  0  0  0  0  0
  1  2  1  0
  2  3  1  0
  3  4  1  0
  4  5  2  0
  4 15  1  0
  5  6  1  0
  6  7  1  6
  6 12  1  0
  7  8  1  0
  8  9  1  0
  9 10  2  0
  9 11  1  0
 12 13  1  6
 12 14  1  0
 14 15  2  0
 15 16  1  0
 16 17  1  0
 17 18  2  0
 17 19  1  0
 19 20  1  0
 20 21  1  0
 21 22  2  0
 21 23  1  0
 23 24  1  6
 23 32  1  0
 24 25  1  0
 25 26  2  0
 25 30  1  0
 26 27  1  0
 27 28  1  0
 28 29  1  0
 29 30  2  0
 30 31  1  0
 32 33  2  0
 32 34  1  0
 34 35  1  0
 35 36  1  1
 35 37  1  0
 37 38  1  0
M  END
