
     RDKit          3D

 13 13  0  0  0  0  0  0  0  0999 V2000
   -2.1590    1.7400   -0.4990 C   0  0  0  0  0  0  0  0  0  0  0  0
   -2.9900    0.5370   -0.1570 C   0  0  0  0  0  0  0  0  0  0  0  0
   -2.1900   -0.6270    0.2640 C   0  0  0  0  0  0  0  0  0  0  0  0
   -0.8670   -0.6120    0.3320 C   0  0  0  0  0  0  0  0  0  0  0  0
   -0.0510    0.4660    0.0290 O   0  0  0  0  0  0  0  0  0  0  0  0
    1.1320   -0.0500   -0.5270 C   0  0  1  0  0  0  0  0  0  0  0  0
    2.3260    0.7340   -0.1700 C   0  0  0  0  0  0  0  0  0  0  0  0
    3.4340    0.3480   -0.6220 O   0  0  0  0  0  0  0  0  0  0  0  0
    2.2710    1.8580    0.6280 O   0  0  0  0  0  0  0  0  0  0  0  0
    3.3980    2.5990    0.9650 N   0  0  0  0  0  0  0  0  0  0  0  0
    1.2910   -1.4600   -0.0640 C   0  0  0  0  0  0  0  0  0  0  0  0
    0.0510   -1.7080    0.7380 C   0  0  2  0  0  0  0  0  0  0  0  0
   -0.4730   -3.0120    0.3970 N   0  0  0  0  0  0  0  0  0  0  0  0
  1  2  1  0
  2  3  1  0
  3  4  2  3
  4  5  1  0
  4 12  1  0
  5  6  1  0
  6  7  1  1
  6 11  1  0
  7  8  2  0
  7  9  1  0
  9 10  1  0
 11 12  1  0
 12 13  1  6
M  END
