
     RDKit          3D

 14 14  0  0  0  0  0  0  0  0999 V2000
    4.2730   -0.7930   -0.2690 C   0  0  0  0  0  0  0  0  0  0  0  0
    3.0600   -0.2620   -0.7620 O   0  0  0  0  0  0  0  0  0  0  0  0
    1.9340   -0.0730    0.0260 C   0  0  0  0  0  0  0  0  0  0  0  0
    2.0380   -0.4050    1.2350 O   0  0  0  0  0  0  0  0  0  0  0  0
    0.6700    0.4840   -0.5020 C   0  0  0  0  0  0  0  0  0  0  0  0
   -0.4060    0.5920    0.5180 C   0  0  2  0  0  0  0  0  0  0  0  0
    0.0190    1.4330    1.5670 O   0  0  0  0  0  0  0  0  0  0  0  0
   -0.8600   -0.6900    1.1180 C   0  0  0  0  0  0  0  0  0  0  0  0
   -1.1030   -1.7840    0.1240 C   0  0  0  0  0  0  0  0  0  0  0  0
   -1.7550   -1.3440   -1.0210 O   0  0  0  0  0  0  0  0  0  0  0  0
   -2.9050   -0.6230   -0.7570 C   0  0  0  0  0  0  0  0  0  0  0  0
   -2.5880    0.7860   -0.6620 N   0  0  0  0  0  0  0  0  0  0  0  0
   -1.5440    1.3250   -0.1310 C   0  0  0  0  0  0  0  0  0  0  0  0
   -1.4330    2.7400   -0.1470 N   0  0  0  0  0  0  0  0  0  0  0  0
  1  2  1  0
  2  3  1  0
  3  4  2  0
  3  5  1  0
  5  6  1  0
  6  7  1  1
  6  8  1  0
  6 13  1  0
  8  9  1  0
  9 10  1  0
 10 11  1  0
 11 12  1  0
 12 13  2  0
 13 14  1  0
M  END
