
     RDKit          3D

 14 15  0  0  0  0  0  0  0  0999 V2000
    3.8400    1.6980   -0.4620 O   0  0  0  0  0  0  0  0  0  0  0  0
    2.8970    0.8730   -0.3240 C   0  0  0  0  0  0  0  0  0  0  0  0
    1.6830    1.3660   -0.0330 N   0  0  0  0  0  0  0  0  0  0  0  0
    0.6660    0.5060    0.1180 C   0  0  0  0  0  0  0  0  0  0  0  0
    0.8760   -0.8410   -0.0230 C   0  0  0  0  0  0  0  0  0  0  0  0
    2.1460   -1.3120   -0.3240 C   0  0  0  0  0  0  0  0  0  0  0  0
    2.3220   -2.5470   -0.4500 O   0  0  0  0  0  0  0  0  0  0  0  0
    3.1520   -0.4380   -0.4720 N   0  0  0  0  0  0  0  0  0  0  0  0
   -0.2470   -1.7920    0.1440 C   0  0  0  0  0  0  0  0  0  0  0  0
   -1.4310   -1.1740   -0.1870 O   0  0  0  0  0  0  0  0  0  0  0  0
   -1.7010   -0.0490    0.5680 C   0  0  2  0  0  0  0  0  0  0  0  0
   -3.0650    0.4670    0.1370 C   0  0  0  0  0  0  0  0  0  0  0  0
   -3.0680    0.7910   -1.2090 O   0  0  0  0  0  0  0  0  0  0  0  0
   -0.6820    1.0330    0.4390 C   0  0  0  0  0  0  0  0  0  0  0  0
  1  2  2  0
  2  3  1  0
  2  8  1  0
  3  4  1  0
  4  5  2  0
  4 14  1  0
  5  6  1  0
  5  9  1  0
  6  7  2  0
  6  8  1  0
  9 10  1  0
 10 11  1  0
 11 12  1  6
 11 14  1  0
 12 13  1  0
M  END
