
     RDKit          3D

 14 15  0  0  0  0  0  0  0  0999 V2000
   -2.5120    2.4860   -1.0000 O   0  0  0  0  0  0  0  0  0  0  0  0
   -2.1430    1.3200   -0.7110 C   0  0  0  0  0  0  0  0  0  0  0  0
   -2.9320    0.5530    0.1920 N   0  0  0  0  0  0  0  0  0  0  0  0
   -2.6480   -0.8750    0.2030 C   0  0  0  0  0  0  0  0  0  0  0  0
   -1.1840   -1.0150    0.5230 C   0  0  0  0  0  0  0  0  0  0  0  0
   -0.2900   -0.1390   -0.3190 C   0  0  1  0  0  0  0  0  0  0  0  0
    0.5010    0.8190    0.5850 C   0  0  0  0  0  0  0  0  0  0  0  0
    1.9370    0.9280    0.1660 C   0  0  2  0  0  0  0  0  0  0  0  0
    2.0470    1.4300   -1.1320 O   0  0  0  0  0  0  0  0  0  0  0  0
    2.6380   -0.4270    0.2800 C   0  0  0  0  0  0  0  0  0  0  0  0
    1.8860   -1.3580   -0.5430 N   0  0  0  0  0  0  0  0  0  0  0  0
    0.6160   -1.0420   -1.0580 C   0  0  0  0  0  0  0  0  0  0  0  0
    0.2420   -1.5230   -2.1460 O   0  0  0  0  0  0  0  0  0  0  0  0
   -1.0060    0.7050   -1.2100 O   0  0  0  0  0  0  0  0  0  0  0  0
  1  2  2  0
  2  3  1  0
  2 14  1  0
  3  4  1  0
  4  5  1  0
  6  5  1  1
  6  7  1  0
  6 12  1  0
  6 14  1  0
  7  8  1  0
  8  9  1  6
  8 10  1  0
 10 11  1  0
 11 12  1  0
 12 13  2  0
M  END
