
     RDKit          3D

 14 14  0  0  0  0  0  0  0  0999 V2000
   -2.5130   -2.3970    0.9740 C   0  0  0  0  0  0  0  0  0  0  0  0
   -1.7780   -1.2470    0.3780 C   0  0  1  0  0  0  0  0  0  0  0  0
   -2.1140   -0.0860    1.1560 O   0  0  0  0  0  0  0  0  0  0  0  0
   -1.5130    1.1130    0.8250 C   0  0  0  0  0  0  0  0  0  0  0  0
   -2.0830    2.2150    1.0210 O   0  0  0  0  0  0  0  0  0  0  0  0
   -0.1500    1.0750    0.2210 C   0  0  0  0  0  0  0  0  0  0  0  0
    0.3900    2.2090   -0.0790 C   0  0  0  0  0  0  0  0  0  0  0  0
   -0.3560    3.4160    0.1890 N   0  0  0  0  0  0  0  0  0  0  0  0
    1.6520    2.3870   -0.6500 N   0  0  0  0  0  0  0  0  0  0  0  0
    0.3890   -0.2550    0.0510 C   0  0  0  0  0  0  0  0  0  0  0  0
    1.5800   -0.4370   -0.4680 C   0  0  0  0  0  0  0  0  0  0  0  0
    2.0650   -1.8520   -0.6090 C   0  0  0  0  0  0  0  0  0  0  0  0
    2.3190   -2.1440   -1.9300 O   0  0  0  0  0  0  0  0  0  0  0  0
   -0.3840   -1.3720    0.4530 O   0  0  0  0  0  0  0  0  0  0  0  0
  2  1  1  1
  2  3  1  0
  2 14  1  0
  3  4  1  0
  4  5  2  0
  4  6  1  0
  6  7  2  3
  6 10  1  0
  7  8  1  0
  7  9  1  0
 10 11  2  3
 10 14  1  0
 11 12  1  0
 12 13  1  0
M  END
