
     RDKit          3D

 13 13  0  0  0  0  0  0  0  0999 V2000
    2.8730   -1.1320    0.1510 C   0  0  0  0  0  0  0  0  0  0  0  0
    2.8390    0.2340    0.8410 C   0  0  0  0  0  0  0  0  0  0  0  0
    1.9100    1.0250    0.1160 O   0  0  0  0  0  0  0  0  0  0  0  0
    0.5830    0.6880   -0.0330 C   0  0  0  0  0  0  0  0  0  0  0  0
    0.0860    0.1580   -1.1320 C   0  0  0  0  0  0  0  0  0  0  0  0
    0.9400   -0.0770   -2.2040 O   0  0  0  0  0  0  0  0  0  0  0  0
   -1.3120   -0.1870   -1.2640 C   0  0  0  0  0  0  0  0  0  0  0  0
   -1.7010   -0.7060   -2.3930 N   0  0  0  0  0  0  0  0  0  0  0  0
   -2.2490    0.0440   -0.1560 C   0  0  1  0  0  0  0  0  0  0  0  0
   -2.9890   -1.1800    0.1400 N   0  0  0  0  0  0  0  0  0  0  0  0
   -1.6310    0.6280    1.0170 C   0  0  0  0  0  0  0  0  0  0  0  0
   -0.3510    0.9150    1.0630 C   0  0  0  0  0  0  0  0  0  0  0  0
    0.1550    1.4810    2.2500 O   0  0  0  0  0  0  0  0  0  0  0  0
  1  2  1  0
  2  3  1  0
  3  4  1  0
  4  5  2  0
  4 12  1  0
  5  6  1  0
  5  7  1  0
  7  8  2  0
  7  9  1  0
  9 10  1  1
  9 11  1  0
 11 12  2  0
 12 13  1  0
M  END
