
     RDKit          3D

 14 14  0  0  0  0  0  0  0  0999 V2000
   -1.3340    2.7780    0.0390 N   0  0  0  0  0  0  0  0  0  0  0  0
   -0.4140    1.6680    0.0330 C   0  0  0  0  0  0  0  0  0  0  0  0
   -0.8720    0.4790    0.2690 C   0  0  0  0  0  0  0  0  0  0  0  0
   -2.2680    0.2980    0.5260 O   0  0  0  0  0  0  0  0  0  0  0  0
   -2.9050   -0.7960   -0.1020 C   0  0  0  0  0  0  0  0  0  0  0  0
   -2.1790   -2.0730    0.1460 C   0  0  0  0  0  0  0  0  0  0  0  0
   -0.8660   -1.8900    0.5970 O   0  0  0  0  0  0  0  0  0  0  0  0
   -0.0870   -0.7200    0.3030 C   0  0  0  0  0  0  0  0  0  0  0  0
    1.1850   -0.8410    0.1040 C   0  0  0  0  0  0  0  0  0  0  0  0
    1.6790   -2.2280    0.2190 O   0  0  0  0  0  0  0  0  0  0  0  0
    2.3040    0.0290   -0.2120 C   0  0  2  0  0  0  0  0  0  0  0  0
    2.6500    0.9050    0.8860 N   0  0  0  0  0  0  0  0  0  0  0  0
    2.3580    0.6150   -1.5540 C   0  0  0  0  0  0  0  0  0  0  0  0
    2.7650    1.7390   -1.7110 O   0  0  0  0  0  0  0  0  0  0  0  0
  1  2  1  0
  2  3  2  3
  3  4  1  0
  3  8  1  0
  4  5  1  0
  5  6  1  0
  6  7  1  0
  7  8  1  0
  8  9  2  3
  9 10  1  0
  9 11  1  0
 11 12  1  1
 11 13  1  0
 13 14  2  0
M  END
