
     RDKit          3D

 18 19  0  0  0  0  0  0  0  0999 V2000
    3.0260   -1.1930   -1.2300 C   0  0  0  0  0  0  0  0  0  0  0  0
    2.6280   -0.2020   -0.2400 C   0  0  0  0  0  0  0  0  0  0  0  0
    3.4600    0.2930    0.6410 C   0  0  0  0  0  0  0  0  0  0  0  0
    4.8300   -0.0670    0.7400 C   0  0  0  0  0  0  0  0  0  0  0  0
    5.6450    0.5520    1.7570 N   0  0  0  0  0  0  0  0  0  0  0  0
    5.5490   -1.1390   -0.2240 S   0  0  0  0  0  0  0  0  0  0  0  0
    1.2340    0.2510   -0.2400 N   0  0  0  0  0  0  0  0  0  0  0  0
    0.2640   -0.7750   -0.0340 C   0  0  0  0  0  0  0  0  0  0  0  0
   -1.1260   -0.2520   -0.0450 C   0  0  0  0  0  0  0  0  0  0  0  0
   -2.2570   -1.0200    0.1290 C   0  0  0  0  0  0  0  0  0  0  0  0
   -3.3680   -0.2040    0.0590 C   0  0  0  0  0  0  0  0  0  0  0  0
   -4.7190   -0.4710    0.1670 C   0  0  0  0  0  0  0  0  0  0  0  0
   -5.1170   -1.7850    0.3880 O   0  0  0  0  0  0  0  0  0  0  0  0
   -5.6090    0.5320    0.0580 N   0  0  0  0  0  0  0  0  0  0  0  0
   -5.1620    1.7870   -0.1570 C   0  0  0  0  0  0  0  0  0  0  0  0
   -3.8230    2.0850   -0.2690 C   0  0  0  0  0  0  0  0  0  0  0  0
   -2.8850    1.0740   -0.1610 C   0  0  0  0  0  0  0  0  0  0  0  0
   -1.5390    1.0180   -0.2190 N   0  0  0  0  0  0  0  0  0  0  0  0
  1  2  1  0
  2  3  2  3
  2  7  1  0
  3  4  1  0
  4  5  1  0
  4  6  2  0
  7  8  1  0
  8  9  1  0
  9 10  2  0
  9 18  1  0
 10 11  1  0
 11 12  2  0
 11 17  1  0
 12 13  1  0
 12 14  1  0
 14 15  2  0
 15 16  1  0
 16 17  2  0
 17 18  1  0
M  END
