
     RDKit          3D

 19 19  0  0  0  0  0  0  0  0999 V2000
   -6.8160    0.3890    0.6890 C   0  0  0  0  0  0  0  0  0  0  0  0
   -5.5920   -0.0160    0.9630 C   0  0  0  0  0  0  0  0  0  0  0  0
   -4.4340    0.5210    0.1560 C   0  0  0  0  0  0  0  0  0  0  0  0
   -3.2570    0.1050    0.4500 C   0  0  0  0  0  0  0  0  0  0  0  0
   -3.1560   -0.8570    1.5490 N   0  0  0  0  0  0  0  0  0  0  0  0
   -2.0020    0.4820   -0.1850 C   0  0  0  0  0  0  0  0  0  0  0  0
   -0.7780   -0.1700    0.3740 C   0  0  0  0  0  0  0  0  0  0  0  0
    0.4490    0.1760   -0.2200 N   0  0  0  0  0  0  0  0  0  0  0  0
    1.6600   -0.4360    0.2950 C   0  0  0  0  0  0  0  0  0  0  0  0
    1.5460   -1.2420    1.2450 O   0  0  0  0  0  0  0  0  0  0  0  0
    2.9200   -0.1400   -0.2480 N   0  0  0  0  0  0  0  0  0  0  0  0
    4.1190   -0.7560    0.2740 C   0  0  0  0  0  0  0  0  0  0  0  0
    5.3220   -0.2630   -0.4870 C   0  0  0  0  0  0  0  0  0  0  0  0
    6.5790   -0.8630    0.0070 C   0  0  0  0  0  0  0  0  0  0  0  0
    7.8260   -0.5260   -0.5820 N   0  0  0  0  0  0  0  0  0  0  0  0
    6.5740   -1.6950    0.9700 O   0  0  0  0  0  0  0  0  0  0  0  0
   -1.9530    1.3390   -1.1830 C   0  0  0  0  0  0  0  0  0  0  0  0
   -3.4370    2.0780   -1.8020 S   0  0  0  0  0  0  0  0  0  0  0  0
   -4.8320    1.4760   -0.8880 C   0  0  0  0  0  0  0  0  0  0  0  0
  1  2  2  0
  2  3  1  0
  3  4  2  0
  3 19  1  0
  4  5  1  0
  4  6  1  0
  6  7  1  0
  6 17  2  0
  7  8  1  0
  8  9  1  0
  9 10  2  0
  9 11  1  0
 11 12  1  0
 12 13  1  0
 13 14  1  0
 14 15  1  0
 14 16  2  0
 17 18  1  0
 18 19  1  0
M  END
