
     RDKit          3D

 19 20  0  0  0  0  0  0  0  0999 V2000
   -0.3480   -1.9940   -2.5550 N   0  0  0  0  0  0  0  0  0  0  0  0
    0.3170   -1.1490   -1.6370 C   0  0  0  0  0  0  0  0  0  0  0  0
    1.6730   -0.9360   -1.7140 C   0  0  0  0  0  0  0  0  0  0  0  0
    2.3630   -0.1210   -0.8420 C   0  0  0  0  0  0  0  0  0  0  0  0
    3.7740    0.0830   -0.9450 N   0  0  0  0  0  0  0  0  0  0  0  0
    4.7000    0.0130    0.4940 S   0  0  1  0  0  0  0  0  0  0  0  0
    4.8360    1.5560    1.2470 N   0  0  0  0  0  0  0  0  0  0  0  0
    4.0550   -0.9390    1.4430 O   0  0  0  0  0  0  0  0  0  0  0  0
    6.0670   -0.5150    0.1700 O   0  0  0  0  0  0  0  0  0  0  0  0
    1.6260    0.4940    0.1440 C   0  0  0  0  0  0  0  0  0  0  0  0
    0.2510    0.3140    0.2680 C   0  0  0  0  0  0  0  0  0  0  0  0
   -0.4060   -0.5050   -0.6190 C   0  0  0  0  0  0  0  0  0  0  0  0
   -1.7910   -0.7840   -0.5630 N   0  0  0  0  0  0  0  0  0  0  0  0
   -2.7530   -0.1260    0.2370 C   0  0  0  0  0  0  0  0  0  0  0  0
   -2.7300    1.2050    0.5000 C   0  0  0  0  0  0  0  0  0  0  0  0
   -3.6720    1.8180    1.3190 C   0  0  0  0  0  0  0  0  0  0  0  0
   -4.6480    1.0470    1.8710 C   0  0  0  0  0  0  0  0  0  0  0  0
   -4.7070   -0.3090    1.6290 C   0  0  0  0  0  0  0  0  0  0  0  0
   -3.7650   -0.8890    0.8170 C   0  0  0  0  0  0  0  0  0  0  0  0
  1  2  1  0
  2  3  2  0
  2 12  1  0
  3  4  1  0
  4  5  1  0
  4 10  2  0
  5  6  1  0
  6  7  1  1
  6  8  2  0
  6  9  2  0
 10 11  1  0
 11 12  2  0
 12 13  1  0
 13 14  1  0
 14 15  2  0
 14 19  1  0
 15 16  1  0
 16 17  2  0
 17 18  1  0
 18 19  2  0
M  END
