
     RDKit          3D

 15 15  0  0  0  0  0  0  0  0999 V2000
    4.2730   -0.3900   -0.3160 N   0  0  0  0  0  0  0  0  0  0  0  0
    3.6660    0.8660   -0.6020 C   0  0  0  0  0  0  0  0  0  0  0  0
    4.2310    2.2470    0.0400 S   0  0  0  0  0  0  0  0  0  0  0  0
    2.4830    0.8350   -1.5280 C   0  0  0  0  0  0  0  0  0  0  0  0
    1.4560   -0.0570   -0.8460 C   0  0  0  0  0  0  0  0  0  0  0  0
    1.1210    0.5670    0.4890 C   0  0  0  0  0  0  0  0  0  0  0  0
    0.1420   -0.2640    1.1630 N   0  0  0  0  0  0  0  0  0  0  0  0
   -1.1690   -0.3410    0.6180 C   0  0  0  0  0  0  0  0  0  0  0  0
   -2.0220    0.6110    0.8930 C   0  0  0  0  0  0  0  0  0  0  0  0
   -3.4130    0.7620    0.4610 C   0  0  0  0  0  0  0  0  0  0  0  0
   -3.9240   -0.5540   -0.5580 S   0  0  2  0  0  0  0  0  0  0  0  0
   -4.4880   -0.0740   -1.8810 O   0  0  0  0  0  0  0  0  0  0  0  0
   -5.0110   -1.2960    0.2040 O   0  0  0  0  0  0  0  0  0  0  0  0
   -2.6350   -1.6590   -0.7650 C   0  0  0  0  0  0  0  0  0  0  0  0
   -1.4750   -1.4840   -0.2170 C   0  0  0  0  0  0  0  0  0  0  0  0
  1  2  1  0
  2  3  2  0
  2  4  1  0
  4  5  1  0
  5  6  1  0
  6  7  1  0
  7  8  1  0
  8  9  2  0
  8 15  1  0
  9 10  1  0
 11 10  1  1
 11 12  2  0
 11 13  2  0
 11 14  1  0
 14 15  2  0
M  END
