
     RDKit          3D

 19 20  0  0  0  0  0  0  0  0999 V2000
   -4.3930   -0.5340   -1.2010 C   0  0  0  0  0  0  0  0  0  0  0  0
   -3.9150   -0.2130    0.2030 C   0  0  2  0  0  0  0  0  0  0  0  0
   -2.5370   -0.6610    0.6170 C   0  0  0  0  0  0  0  0  0  0  0  0
   -1.4940   -0.0920   -0.2140 N   0  0  0  0  0  0  0  0  0  0  0  0
   -0.1270   -0.3920    0.0190 C   0  0  0  0  0  0  0  0  0  0  0  0
    0.1540   -1.1590    0.9530 O   0  0  0  0  0  0  0  0  0  0  0  0
    0.8720    0.2400   -0.8800 C   0  0  0  0  0  0  0  0  0  0  0  0
    2.2600   -0.1220   -0.5490 C   0  0  0  0  0  0  0  0  0  0  0  0
    2.8900   -1.3150   -0.8630 C   0  0  0  0  0  0  0  0  0  0  0  0
    2.2660   -2.3900   -1.5750 N   0  0  0  0  0  0  0  0  0  0  0  0
    4.1490   -1.2890   -0.3960 N   0  0  0  0  0  0  0  0  0  0  0  0
    4.4000   -0.1250    0.2220 C   0  0  0  0  0  0  0  0  0  0  0  0
    5.9390    0.3910    1.0100 S   0  0  0  0  0  0  0  0  0  0  0  0
    3.2230    0.6120    0.1320 C   0  0  0  0  0  0  0  0  0  0  0  0
    3.0390    1.9330    0.6750 C   0  0  0  0  0  0  0  0  0  0  0  0
    4.1140    2.5700    1.3510 N   0  0  0  0  0  0  0  0  0  0  0  0
    1.9350    2.5360    0.5600 O   0  0  0  0  0  0  0  0  0  0  0  0
   -4.9320   -0.2080    1.2590 C   0  0  0  0  0  0  0  0  0  0  0  0
   -4.3720    1.1100    0.8080 C   0  0  0  0  0  0  0  0  0  0  0  0
  2  1  1  6
  2  3  1  0
  2 18  1  0
  2 19  1  0
  3  4  1  0
  4  5  1  0
  5  6  2  0
  5  7  1  0
  7  8  1  0
  8  9  2  0
  8 14  1  0
  9 10  1  0
  9 11  1  0
 11 12  1  0
 12 13  1  0
 12 14  2  0
 14 15  1  0
 15 16  1  0
 15 17  2  0
 18 19  1  0
M  END
