
     RDKit          3D

 19 20  0  0  0  0  0  0  0  0999 V2000
    3.8990   -2.1920    1.1150 N   0  0  0  0  0  0  0  0  0  0  0  0
    3.2080   -1.4410    0.1360 C   0  0  0  0  0  0  0  0  0  0  0  0
    3.6200   -1.3970   -1.0490 O   0  0  0  0  0  0  0  0  0  0  0  0
    1.9750   -0.6830    0.4750 C   0  0  0  0  0  0  0  0  0  0  0  0
    1.4430    0.0230   -0.7380 C   0  0  0  0  0  0  0  0  0  0  0  0
    0.2280    0.7960   -0.5180 C   0  0  0  0  0  0  0  0  0  0  0  0
    0.2400    2.1190   -0.6950 C   0  0  0  0  0  0  0  0  0  0  0  0
    1.5000    2.6200   -1.0970 N   0  0  0  0  0  0  0  0  0  0  0  0
   -0.7790    3.1140   -0.5390 N   0  0  0  0  0  0  0  0  0  0  0  0
   -1.9260    3.0050    0.3310 C   0  0  0  0  0  0  0  0  0  0  0  0
   -2.5200    4.0610    0.5760 O   0  0  0  0  0  0  0  0  0  0  0  0
   -2.4450    1.8280    0.9330 N   0  0  0  0  0  0  0  0  0  0  0  0
   -2.1200    0.4880    0.5190 C   0  0  0  0  0  0  0  0  0  0  0  0
   -3.1180   -0.4090    0.8030 C   0  0  0  0  0  0  0  0  0  0  0  0
   -2.9940   -1.7410    0.4670 C   0  0  0  0  0  0  0  0  0  0  0  0
   -1.8600   -2.2050   -0.1660 C   0  0  0  0  0  0  0  0  0  0  0  0
   -1.6570   -3.9150   -0.6200 S   0  0  0  0  0  0  0  0  0  0  0  0
   -0.8650   -1.2550   -0.4380 C   0  0  0  0  0  0  0  0  0  0  0  0
   -0.9670    0.0590   -0.1150 C   0  0  0  0  0  0  0  0  0  0  0  0
  1  2  1  0
  2  3  2  0
  2  4  1  0
  4  5  1  0
  5  6  1  0
  6  7  2  0
  6 19  1  0
  7  8  1  0
  7  9  1  0
  9 10  1  0
 10 11  2  0
 10 12  1  0
 12 13  1  0
 13 14  2  0
 13 19  1  0
 14 15  1  0
 15 16  2  0
 16 17  1  0
 16 18  1  0
 18 19  2  0
M  END
