
     RDKit          3D

 22 24  0  0  0  0  0  0  0  0999 V2000
   -2.7360   -0.9530   -2.3920 O   0  0  0  0  0  0  0  0  0  0  0  0
   -3.1390   -1.5430   -1.2220 C   0  0  0  0  0  0  0  0  0  0  0  0
   -3.0730   -0.6430   -0.0290 C   0  0  2  0  0  0  0  0  0  0  0  0
   -3.9160    0.5790   -0.1360 C   0  0  1  0  0  0  0  0  0  0  0  0
   -5.1760    0.3460   -0.6770 O   0  0  0  0  0  0  0  0  0  0  0  0
   -4.0350    1.2060    1.2330 C   0  0  2  0  0  0  0  0  0  0  0  0
   -4.0970    2.6020    1.0460 O   0  0  0  0  0  0  0  0  0  0  0  0
   -2.8970    0.9160    2.1490 C   0  0  1  0  0  0  0  0  0  0  0  0
   -3.1910   -0.1150    3.0630 O   0  0  0  0  0  0  0  0  0  0  0  0
   -1.6350    0.5400    1.4120 C   0  0  0  0  0  0  0  0  0  0  0  0
   -0.3600    0.8330    1.6210 N   0  0  0  0  0  0  0  0  0  0  0  0
    0.4050    0.2550    0.6790 C   0  0  0  0  0  0  0  0  0  0  0  0
    1.8750    0.3580    0.5870 C   0  0  0  0  0  0  0  0  0  0  0  0
    2.4210   -0.4150   -0.5940 C   0  0  0  0  0  0  0  0  0  0  0  0
    3.8990   -0.3050   -0.6780 C   0  0  0  0  0  0  0  0  0  0  0  0
    4.4620    0.7310   -1.4130 C   0  0  0  0  0  0  0  0  0  0  0  0
    5.8450    0.8750   -1.5210 C   0  0  0  0  0  0  0  0  0  0  0  0
    6.6710   -0.0230   -0.8890 C   0  0  0  0  0  0  0  0  0  0  0  0
    6.1280   -1.0560   -0.1550 C   0  0  0  0  0  0  0  0  0  0  0  0
    4.7460   -1.1900   -0.0550 C   0  0  0  0  0  0  0  0  0  0  0  0
   -0.4840   -0.4180   -0.1290 C   0  0  0  0  0  0  0  0  0  0  0  0
   -1.7350   -0.2410    0.3240 N   0  0  0  0  0  0  0  0  0  0  0  0
  1  2  1  0
  3  2  1  6
  3  4  1  0
  3 22  1  0
  4  5  1  1
  4  6  1  0
  6  7  1  6
  6  8  1  0
  8  9  1  1
  8 10  1  0
 10 11  2  0
 10 22  1  0
 11 12  1  0
 12 13  1  0
 12 21  2  0
 13 14  1  0
 14 15  1  0
 15 16  2  0
 15 20  1  0
 16 17  1  0
 17 18  2  0
 18 19  1  0
 19 20  2  0
 21 22  1  0
M  END
