
     RDKit          3D

 13 13  0  0  0  0  0  0  0  0999 V2000
    3.9150    0.2480   -0.2150 C   0  0  0  0  0  0  0  0  0  0  0  0
    2.4870   -0.0370   -0.6980 C   0  0  0  0  0  0  0  0  0  0  0  0
    1.6540    0.0810    0.4150 O   0  0  0  0  0  0  0  0  0  0  0  0
    0.2890   -0.0960    0.4210 C   0  0  0  0  0  0  0  0  0  0  0  0
   -0.5050    0.9510    0.3140 C   0  0  0  0  0  0  0  0  0  0  0  0
    0.0780    2.2040    0.1970 O   0  0  0  0  0  0  0  0  0  0  0  0
   -1.9550    0.8590    0.3110 C   0  0  0  0  0  0  0  0  0  0  0  0
   -2.7130    1.9240    0.2020 N   0  0  0  0  0  0  0  0  0  0  0  0
   -2.6360   -0.4500    0.4320 C   0  0  1  0  0  0  0  0  0  0  0  0
   -3.4280   -0.6180   -0.7940 N   0  0  0  0  0  0  0  0  0  0  0  0
   -1.6600   -1.5430    0.5460 C   0  0  0  0  0  0  0  0  0  0  0  0
   -0.3480   -1.4020    0.5420 C   0  0  0  0  0  0  0  0  0  0  0  0
    0.5000   -2.4990    0.6550 O   0  0  0  0  0  0  0  0  0  0  0  0
  1  2  1  0
  2  3  1  0
  3  4  1  0
  4  5  2  0
  4 12  1  0
  5  6  1  0
  5  7  1  0
  7  8  2  0
  7  9  1  0
  9 10  1  6
  9 11  1  0
 11 12  2  0
 12 13  1  0
M  END
