
     RDKit          3D

 14 15  0  0  0  0  0  0  0  0999 V2000
    0.6360   -1.6530    0.8040 C   0  0  0  0  0  0  0  0  0  0  0  0
   -0.0600   -0.6100   -0.0730 C   0  0  1  0  0  0  0  0  0  0  0  0
   -0.3980   -1.3020   -1.3690 C   0  0  0  0  0  0  0  0  0  0  0  0
   -1.2280   -0.0360    0.6260 C   0  0  2  0  0  0  0  0  0  0  0  0
   -2.5410   -0.2220   -0.0780 C   0  0  0  0  0  0  0  0  0  0  0  0
   -2.5410    0.4250   -1.3140 O   0  0  0  0  0  0  0  0  0  0  0  0
   -1.0120    1.3140    0.8260 O   0  0  0  0  0  0  0  0  0  0  0  0
   -0.0660    1.7360   -0.0890 C   0  0  1  0  0  0  0  0  0  0  0  0
    0.8870    2.6850    0.5550 C   0  0  0  0  0  0  0  0  0  0  0  0
    0.6720    3.9210    0.6110 O   0  0  0  0  0  0  0  0  0  0  0  0
    1.9740    1.9140    1.0320 N   0  0  0  0  0  0  0  0  0  0  0  0
    1.9530    0.7290    0.5240 C   0  0  0  0  0  0  0  0  0  0  0  0
    2.9200   -0.2710    0.8180 N   0  0  0  0  0  0  0  0  0  0  0  0
    0.8190    0.5560   -0.3790 C   0  0  1  0  0  0  0  0  0  0  0  0
  2  1  1  1
  2  3  1  0
  2  4  1  0
  2 14  1  0
  4  5  1  6
  4  7  1  0
  5  6  1  0
  8  7  1  1
  8  9  1  0
  8 14  1  0
  9 10  2  0
  9 11  1  0
 11 12  2  0
 12 13  1  0
 14 12  1  1
M  END
