
     RDKit          3D

 14 15  0  0  0  0  0  0  0  0999 V2000
   -2.1960   -1.0290    0.9480 O   0  0  0  0  0  0  0  0  0  0  0  0
   -2.1180   -0.9310   -0.4450 C   0  0  0  0  0  0  0  0  0  0  0  0
   -0.7490   -0.3780   -0.7660 C   0  0  2  0  0  0  0  0  0  0  0  0
    0.2650   -1.3550   -0.2110 C   0  0  1  0  0  0  0  0  0  0  0  0
    0.2330   -2.5440   -0.9270 O   0  0  0  0  0  0  0  0  0  0  0  0
    1.5980   -0.6860   -0.2280 C   0  0  2  0  0  0  0  0  0  0  0  0
    2.6670   -1.5320   -0.1200 O   0  0  0  0  0  0  0  0  0  0  0  0
    1.5590    0.3470    0.9050 C   0  0  1  0  0  0  0  0  0  0  0  0
    2.7760    0.9300    1.1260 O   0  0  0  0  0  0  0  0  0  0  0  0
    0.4950    1.3120    0.5210 C   0  0  0  0  0  0  0  0  0  0  0  0
    0.3780    2.6160    0.8350 N   0  0  0  0  0  0  0  0  0  0  0  0
   -0.7380    3.1040    0.2760 C   0  0  0  0  0  0  0  0  0  0  0  0
   -1.3040    2.0440   -0.3970 C   0  0  0  0  0  0  0  0  0  0  0  0
   -0.5420    0.9390   -0.2440 N   0  0  0  0  0  0  0  0  0  0  0  0
  1  2  1  0
  3  2  1  1
  3  4  1  0
  3 14  1  0
  4  5  1  6
  4  6  1  0
  6  7  1  1
  6  8  1  0
  8  9  1  6
  8 10  1  0
 10 11  2  0
 10 14  1  0
 11 12  1  0
 12 13  2  0
 13 14  1  0
M  END
