
     RDKit          3D

 14 15  0  0  0  0  0  0  0  0999 V2000
   -2.2780    2.0000   -0.9170 N   0  0  0  0  0  0  0  0  0  0  0  0
   -1.8460    0.8630   -0.4870 C   0  0  0  0  0  0  0  0  0  0  0  0
   -2.6240    0.1620    0.3970 O   0  0  0  0  0  0  0  0  0  0  0  0
   -2.2480   -1.0510    1.0050 C   0  0  0  0  0  0  0  0  0  0  0  0
   -0.9230   -1.5620    0.5300 C   0  0  0  0  0  0  0  0  0  0  0  0
    0.0540   -0.4520    0.1950 C   0  0  2  0  0  0  0  0  0  0  0  0
    1.3610   -1.1120   -0.1580 C   0  0  0  0  0  0  0  0  0  0  0  0
    2.4950   -0.1660   -0.3320 C   0  0  0  0  0  0  0  0  0  0  0  0
    2.3310    1.0880    0.3460 N   0  0  0  0  0  0  0  0  0  0  0  0
    1.2110    1.4030    1.1550 C   0  0  0  0  0  0  0  0  0  0  0  0
    1.1360    2.5300    1.7200 O   0  0  0  0  0  0  0  0  0  0  0  0
    0.2290    0.4280    1.2860 O   0  0  0  0  0  0  0  0  0  0  0  0
   -0.5350    0.3370   -0.9450 C   0  0  2  0  0  0  0  0  0  0  0  0
    0.2910    1.3750   -1.3640 O   0  0  0  0  0  0  0  0  0  0  0  0
  1  2  2  0
  2  3  1  0
  2 13  1  0
  3  4  1  0
  4  5  1  0
  6  5  1  1
  6  7  1  0
  6 12  1  0
  6 13  1  0
  7  8  1  0
  8  9  1  0
  9 10  1  0
 10 11  2  0
 10 12  1  0
 13 14  1  1
M  END
