
     RDKit          3D

 14 15  0  0  0  0  0  0  0  0999 V2000
    3.2820    2.3850    0.8630 O   0  0  0  0  0  0  0  0  0  0  0  0
    2.5520    1.3830    0.5600 C   0  0  0  0  0  0  0  0  0  0  0  0
    1.2660    1.3850    0.8840 N   0  0  0  0  0  0  0  0  0  0  0  0
    0.5220    0.3020    0.5450 C   0  0  0  0  0  0  0  0  0  0  0  0
    1.0840   -0.7690   -0.1170 C   0  0  0  0  0  0  0  0  0  0  0  0
    2.4160   -0.7580   -0.4470 C   0  0  0  0  0  0  0  0  0  0  0  0
    2.9570   -1.7250   -1.0530 O   0  0  0  0  0  0  0  0  0  0  0  0
    3.1170    0.3320   -0.0940 N   0  0  0  0  0  0  0  0  0  0  0  0
    0.1970   -1.9130   -0.4510 C   0  0  0  0  0  0  0  0  0  0  0  0
   -0.9630   -1.3390   -0.9890 O   0  0  0  0  0  0  0  0  0  0  0  0
   -1.7010   -0.6320   -0.0700 C   0  0  2  0  0  0  0  0  0  0  0  0
   -2.6860    0.2490   -0.8100 C   0  0  0  0  0  0  0  0  0  0  0  0
   -3.4600    0.9880    0.0760 O   0  0  0  0  0  0  0  0  0  0  0  0
   -0.9220    0.2210    0.8710 C   0  0  0  0  0  0  0  0  0  0  0  0
  1  2  2  0
  2  3  1  0
  2  8  1  0
  3  4  1  0
  4  5  2  0
  4 14  1  0
  5  6  1  0
  5  9  1  0
  6  7  2  0
  6  8  1  0
  9 10  1  0
 10 11  1  0
 11 12  1  6
 11 14  1  0
 12 13  1  0
M  END
