
     RDKit          3D

 18 19  0  0  0  0  0  0  0  0999 V2000
   -1.3620    1.0940    1.1440 C   0  0  0  0  0  0  0  0  0  0  0  0
   -0.7650   -0.0620    0.3530 C   0  0  0  0  0  0  0  0  0  0  0  0
   -1.4460   -0.9530   -0.3100 C   0  0  0  0  0  0  0  0  0  0  0  0
   -2.9020   -1.0340   -0.3790 C   0  0  0  0  0  0  0  0  0  0  0  0
   -3.5260   -2.2490   -0.4290 C   0  0  0  0  0  0  0  0  0  0  0  0
   -5.2650   -1.7140   -0.3580 S   0  0  0  0  0  0  0  0  0  0  0  0
   -4.9090    0.0170   -0.2820 C   0  0  0  0  0  0  0  0  0  0  0  0
   -5.9260    0.9890   -0.1930 N   0  0  0  0  0  0  0  0  0  0  0  0
   -3.6500    0.0380   -0.3090 N   0  0  0  0  0  0  0  0  0  0  0  0
    0.5390   -0.1100    0.3650 O   0  0  0  0  0  0  0  0  0  0  0  0
    1.8280   -0.1590    0.3780 C   0  0  0  0  0  0  0  0  0  0  0  0
    2.7400   -1.0590    0.7880 C   0  0  0  0  0  0  0  0  0  0  0  0
    4.1010   -0.7570    0.6790 C   0  0  0  0  0  0  0  0  0  0  0  0
    5.0810   -1.7560    1.0200 N   0  0  0  0  0  0  0  0  0  0  0  0
    4.5940    0.4260    0.1750 C   0  0  0  0  0  0  0  0  0  0  0  0
    3.6580    1.3380   -0.2550 C   0  0  0  0  0  0  0  0  0  0  0  0
    2.3620    1.1120   -0.1880 C   0  0  0  0  0  0  0  0  0  0  0  0
    1.3200    1.9260   -0.7370 N   0  0  0  0  0  0  0  0  0  0  0  0
  1  2  1  0
  2  3  2  3
  2 10  1  0
  3  4  1  0
  4  5  2  0
  4  9  1  0
  5  6  1  0
  6  7  1  0
  7  8  1  0
  7  9  2  0
 10 11  1  0
 11 12  2  0
 11 17  1  0
 12 13  1  0
 13 14  1  0
 13 15  2  0
 15 16  1  0
 16 17  2  0
 17 18  1  0
M  END
