
     RDKit          3D

 22 24  0  0  0  0  0  0  0  0999 V2000
   -2.9210   -1.5670    2.7270 O   0  0  0  0  0  0  0  0  0  0  0  0
   -3.5390   -1.6910    1.5010 C   0  0  0  0  0  0  0  0  0  0  0  0
   -3.2860   -0.4450    0.6960 C   0  0  2  0  0  0  0  0  0  0  0  0
   -3.9570   -0.5360   -0.6810 C   0  0  1  0  0  0  0  0  0  0  0  0
   -5.2100   -1.0800   -0.5810 O   0  0  0  0  0  0  0  0  0  0  0  0
   -3.9700    0.8760   -1.2240 C   0  0  2  0  0  0  0  0  0  0  0  0
   -4.5940    0.9370   -2.4710 O   0  0  0  0  0  0  0  0  0  0  0  0
   -2.6100    1.4790   -1.2210 C   0  0  1  0  0  0  0  0  0  0  0  0
   -2.6000    2.8000   -0.7220 O   0  0  0  0  0  0  0  0  0  0  0  0
   -1.5840    0.6940   -0.5000 C   0  0  0  0  0  0  0  0  0  0  0  0
   -0.2550    0.7540   -0.6210 N   0  0  0  0  0  0  0  0  0  0  0  0
    0.3080   -0.1150    0.2040 C   0  0  0  0  0  0  0  0  0  0  0  0
    1.7460   -0.4210    0.4360 C   0  0  0  0  0  0  0  0  0  0  0  0
    2.5880    0.4730   -0.4800 C   0  0  0  0  0  0  0  0  0  0  0  0
    4.0340    0.2030   -0.2830 C   0  0  0  0  0  0  0  0  0  0  0  0
    4.8110    0.8710    0.6400 C   0  0  0  0  0  0  0  0  0  0  0  0
    6.1570    0.5970    0.7990 C   0  0  0  0  0  0  0  0  0  0  0  0
    6.7710   -0.3750    0.0230 C   0  0  0  0  0  0  0  0  0  0  0  0
    6.0080   -1.0530   -0.9050 C   0  0  0  0  0  0  0  0  0  0  0  0
    4.6640   -0.7590   -1.0460 C   0  0  0  0  0  0  0  0  0  0  0  0
   -0.7220   -0.7440    0.8690 C   0  0  0  0  0  0  0  0  0  0  0  0
   -1.8790   -0.2360    0.4260 N   0  0  0  0  0  0  0  0  0  0  0  0
  1  2  1  0
  3  2  1  6
  3  4  1  0
  3 22  1  0
  4  5  1  1
  4  6  1  0
  6  7  1  6
  6  8  1  0
  8  9  1  1
  8 10  1  0
 10 11  2  0
 10 22  1  0
 11 12  1  0
 12 13  1  0
 12 21  2  0
 13 14  1  0
 14 15  1  0
 15 16  2  0
 15 20  1  0
 16 17  1  0
 17 18  2  0
 18 19  1  0
 19 20  2  0
 21 22  1  0
M  END
