
     RDKit          3D

 18 19  0  0  0  0  0  0  0  0999 V2000
   -1.0450   -1.5870   -1.1980 C   0  0  0  0  0  0  0  0  0  0  0  0
   -2.0420   -0.6510   -0.6280 C   0  0  0  0  0  0  0  0  0  0  0  0
   -2.9490   -0.0600   -1.3860 C   0  0  0  0  0  0  0  0  0  0  0  0
   -3.9410    0.8570   -0.8900 C   0  0  0  0  0  0  0  0  0  0  0  0
   -4.0140    1.1960    0.4890 N   0  0  0  0  0  0  0  0  0  0  0  0
   -5.0310    1.5530   -1.8810 S   0  0  0  0  0  0  0  0  0  0  0  0
   -1.9770   -0.4160    0.7890 N   0  0  0  0  0  0  0  0  0  0  0  0
   -1.0870    0.5480    1.3490 C   0  0  0  0  0  0  0  0  0  0  0  0
    0.3380    0.2670    1.0490 C   0  0  0  0  0  0  0  0  0  0  0  0
    0.9790    0.7450   -0.0720 C   0  0  0  0  0  0  0  0  0  0  0  0
    2.2850    0.3230   -0.0800 C   0  0  0  0  0  0  0  0  0  0  0  0
    3.3190    0.5230   -0.9560 C   0  0  0  0  0  0  0  0  0  0  0  0
    3.0810    1.2980   -2.0930 O   0  0  0  0  0  0  0  0  0  0  0  0
    4.5160   -0.0210   -0.7060 N   0  0  0  0  0  0  0  0  0  0  0  0
    4.6750   -0.7520    0.4010 C   0  0  0  0  0  0  0  0  0  0  0  0
    3.6730   -0.9830    1.3120 C   0  0  0  0  0  0  0  0  0  0  0  0
    2.4300   -0.4360    1.0810 C   0  0  0  0  0  0  0  0  0  0  0  0
    1.2490   -0.4460    1.7260 N   0  0  0  0  0  0  0  0  0  0  0  0
  1  2  1  0
  2  3  2  3
  2  7  1  0
  3  4  1  0
  4  5  1  0
  4  6  2  0
  7  8  1  0
  8  9  1  0
  9 10  2  0
  9 18  1  0
 10 11  1  0
 11 12  2  0
 11 17  1  0
 12 13  1  0
 12 14  1  0
 14 15  2  0
 15 16  1  0
 16 17  2  0
 17 18  1  0
M  END
