
     RDKit          3D

 19 20  0  0  0  0  0  0  0  0999 V2000
    0.5740    1.8170   -1.9320 N   0  0  0  0  0  0  0  0  0  0  0  0
    0.7470    0.9120   -0.8620 C   0  0  0  0  0  0  0  0  0  0  0  0
    2.0340    0.5560   -0.5260 C   0  0  0  0  0  0  0  0  0  0  0  0
    2.2980   -0.3240    0.5070 C   0  0  0  0  0  0  0  0  0  0  0  0
    3.5930   -0.7220    0.8910 N   0  0  0  0  0  0  0  0  0  0  0  0
    4.8430   -1.1880   -0.1660 S   0  0  2  0  0  0  0  0  0  0  0  0
    5.7920    0.1790   -0.6360 N   0  0  0  0  0  0  0  0  0  0  0  0
    4.3200   -1.8070   -1.4430 O   0  0  0  0  0  0  0  0  0  0  0  0
    5.7820   -2.1410    0.5370 O   0  0  0  0  0  0  0  0  0  0  0  0
    1.1970   -0.8180    1.1760 C   0  0  0  0  0  0  0  0  0  0  0  0
   -0.1070   -0.4650    0.8460 C   0  0  0  0  0  0  0  0  0  0  0  0
   -0.3540    0.3950   -0.1660 C   0  0  0  0  0  0  0  0  0  0  0  0
   -1.6370    0.8400   -0.5550 N   0  0  0  0  0  0  0  0  0  0  0  0
   -2.8820    0.3490   -0.1420 C   0  0  0  0  0  0  0  0  0  0  0  0
   -3.9310    1.2170    0.0350 C   0  0  0  0  0  0  0  0  0  0  0  0
   -5.1840    0.7480    0.4070 C   0  0  0  0  0  0  0  0  0  0  0  0
   -5.3790   -0.5880    0.5990 C   0  0  0  0  0  0  0  0  0  0  0  0
   -4.3420   -1.4750    0.4260 C   0  0  0  0  0  0  0  0  0  0  0  0
   -3.0940   -0.9810    0.0530 C   0  0  0  0  0  0  0  0  0  0  0  0
  1  2  1  0
  2  3  2  0
  2 12  1  0
  3  4  1  0
  4  5  1  0
  4 10  2  0
  5  6  1  0
  6  7  1  6
  6  8  2  0
  6  9  2  0
 10 11  1  0
 11 12  2  0
 12 13  1  0
 13 14  1  0
 14 15  2  0
 14 19  1  0
 15 16  1  0
 16 17  2  0
 17 18  1  0
 18 19  2  0
M  END
