
     RDKit          3D

 19 19  0  0  0  0  0  0  0  0999 V2000
   -6.3750    0.6850    0.2240 C   0  0  0  0  0  0  0  0  0  0  0  0
   -5.3530   -0.1390    0.0620 C   0  0  0  0  0  0  0  0  0  0  0  0
   -3.9650    0.3330    0.3950 C   0  0  0  0  0  0  0  0  0  0  0  0
   -3.0050   -0.5070    0.2190 C   0  0  0  0  0  0  0  0  0  0  0  0
   -3.3840   -1.8260   -0.2850 N   0  0  0  0  0  0  0  0  0  0  0  0
   -1.5840   -0.2930    0.4570 C   0  0  0  0  0  0  0  0  0  0  0  0
   -0.6710   -1.4410    0.1410 C   0  0  0  0  0  0  0  0  0  0  0  0
    0.7170   -1.1460    0.2990 N   0  0  0  0  0  0  0  0  0  0  0  0
    1.4370   -0.1940   -0.4460 C   0  0  0  0  0  0  0  0  0  0  0  0
    0.8650    0.4660   -1.3480 O   0  0  0  0  0  0  0  0  0  0  0  0
    2.8230    0.0410   -0.1950 N   0  0  0  0  0  0  0  0  0  0  0  0
    3.5900    1.0060   -0.9370 C   0  0  0  0  0  0  0  0  0  0  0  0
    5.0040    1.0120   -0.4350 C   0  0  0  0  0  0  0  0  0  0  0  0
    5.5940   -0.3350   -0.6150 C   0  0  0  0  0  0  0  0  0  0  0  0
    6.9210   -0.6450   -0.2360 N   0  0  0  0  0  0  0  0  0  0  0  0
    4.9150   -1.2680   -1.1250 O   0  0  0  0  0  0  0  0  0  0  0  0
   -1.1390    0.8560    0.9010 C   0  0  0  0  0  0  0  0  0  0  0  0
   -2.2230    2.2130    1.2340 S   0  0  0  0  0  0  0  0  0  0  0  0
   -3.8950    1.7230    0.8950 C   0  0  0  0  0  0  0  0  0  0  0  0
  1  2  2  0
  2  3  1  0
  3  4  2  0
  3 19  1  0
  4  5  1  0
  4  6  1  0
  6  7  1  0
  6 17  2  0
  7  8  1  0
  8  9  1  0
  9 10  2  0
  9 11  1  0
 11 12  1  0
 12 13  1  0
 13 14  1  0
 14 15  1  0
 14 16  2  0
 17 18  1  0
 18 19  1  0
M  END
