
     RDKit          3D

 19 20  0  0  0  0  0  0  0  0999 V2000
    4.5220   -1.0080    0.6650 C   0  0  0  0  0  0  0  0  0  0  0  0
    2.9760   -0.7810    0.5420 C   0  0  1  0  0  0  0  0  0  0  0  0
    2.3650   -1.5280   -0.5630 C   0  0  0  0  0  0  0  0  0  0  0  0
    0.9920   -1.4660   -0.8450 N   0  0  0  0  0  0  0  0  0  0  0  0
    0.2250   -0.3740   -1.3010 C   0  0  0  0  0  0  0  0  0  0  0  0
    0.7770    0.7160   -1.5280 O   0  0  0  0  0  0  0  0  0  0  0  0
   -1.2520   -0.4990   -1.5130 C   0  0  0  0  0  0  0  0  0  0  0  0
   -2.0110    0.1390   -0.4160 C   0  0  0  0  0  0  0  0  0  0  0  0
   -2.1790   -0.4260    0.8610 C   0  0  0  0  0  0  0  0  0  0  0  0
   -1.6040   -1.6790    1.1980 N   0  0  0  0  0  0  0  0  0  0  0  0
   -2.9190    0.4210    1.5660 N   0  0  0  0  0  0  0  0  0  0  0  0
   -3.2460    1.5000    0.8500 C   0  0  0  0  0  0  0  0  0  0  0  0
   -4.2160    2.8780    1.4200 S   0  0  0  0  0  0  0  0  0  0  0  0
   -2.6670    1.3250   -0.4260 C   0  0  0  0  0  0  0  0  0  0  0  0
   -2.8160    2.3160   -1.4660 C   0  0  0  0  0  0  0  0  0  0  0  0
   -2.1110    2.1520   -2.6930 N   0  0  0  0  0  0  0  0  0  0  0  0
   -3.5430    3.3010   -1.3060 O   0  0  0  0  0  0  0  0  0  0  0  0
    2.3390   -0.6200    1.8830 C   0  0  0  0  0  0  0  0  0  0  0  0
    2.5150    0.5980    0.9640 C   0  0  0  0  0  0  0  0  0  0  0  0
  2  1  1  1
  2  3  1  0
  2 18  1  0
  2 19  1  0
  3  4  1  0
  4  5  1  0
  5  6  2  0
  5  7  1  0
  7  8  1  0
  8  9  2  0
  8 14  1  0
  9 10  1  0
  9 11  1  0
 11 12  1  0
 12 13  1  0
 12 14  2  0
 14 15  1  0
 15 16  1  0
 15 17  2  0
 18 19  1  0
M  END
