
     RDKit          3D

 19 20  0  0  0  0  0  0  0  0999 V2000
    7.2420   -0.2710    0.3860 N   0  0  0  0  0  0  0  0  0  0  0  0
    5.9830   -0.4980   -0.2410 C   0  0  0  0  0  0  0  0  0  0  0  0
    5.9870   -0.9320   -1.4070 O   0  0  0  0  0  0  0  0  0  0  0  0
    4.6960   -0.2350    0.4460 C   0  0  0  0  0  0  0  0  0  0  0  0
    3.6550   -0.5630   -0.4470 O   0  0  0  0  0  0  0  0  0  0  0  0
    2.3240   -0.4470   -0.1550 C   0  0  0  0  0  0  0  0  0  0  0  0
    1.9560    0.0170    1.0870 C   0  0  0  0  0  0  0  0  0  0  0  0
    0.6470    0.1480    1.4200 C   0  0  0  0  0  0  0  0  0  0  0  0
   -0.3470   -0.1970    0.4770 C   0  0  0  0  0  0  0  0  0  0  0  0
   -1.7100   -0.0870    0.8540 N   0  0  0  0  0  0  0  0  0  0  0  0
   -2.7310    0.2070   -0.0520 C   0  0  0  0  0  0  0  0  0  0  0  0
   -2.5110    0.5180   -1.6120 S   0  0  0  0  0  0  0  0  0  0  0  0
   -4.0840    0.2760    0.4330 N   0  0  0  0  0  0  0  0  0  0  0  0
   -5.2070    0.5700   -0.4060 C   0  0  1  0  0  0  0  0  0  0  0  0
   -6.5530    0.5980    0.2920 C   0  0  0  0  0  0  0  0  0  0  0  0
   -5.9690    1.8350   -0.2600 C   0  0  0  0  0  0  0  0  0  0  0  0
    0.0450   -0.6580   -0.7520 C   0  0  0  0  0  0  0  0  0  0  0  0
    1.3890   -0.7920   -1.0940 C   0  0  0  0  0  0  0  0  0  0  0  0
    1.7490   -1.2790   -2.3940 N   0  0  0  0  0  0  0  0  0  0  0  0
  1  2  1  0
  2  3  2  0
  2  4  1  0
  4  5  1  0
  5  6  1  0
  6  7  2  0
  6 18  1  0
  7  8  1  0
  8  9  2  0
  9 10  1  0
  9 17  1  0
 10 11  1  0
 11 12  2  0
 11 13  1  0
 14 13  1  1
 14 15  1  0
 14 16  1  0
 15 16  1  0
 17 18  2  0
 18 19  1  0
M  END
