
     RDKit          3D

 23 24  0  0  0  0  0  0  0  0999 V2000
   -7.3000    2.7040    0.1520 C   0  0  0  0  0  0  0  0  0  0  0  0
   -6.4350    1.9970    0.8560 C   0  0  0  0  0  0  0  0  0  0  0  0
   -6.4680    0.5270    0.8770 C   0  0  0  0  0  0  0  0  0  0  0  0
   -5.2640   -0.0510    0.3980 O   0  0  0  0  0  0  0  0  0  0  0  0
   -4.0330    0.1590    0.9620 C   0  0  0  0  0  0  0  0  0  0  0  0
   -3.9760    0.9150    1.9710 O   0  0  0  0  0  0  0  0  0  0  0  0
   -2.8030   -0.4330    0.4710 C   0  0  0  0  0  0  0  0  0  0  0  0
   -1.5380   -0.2760    0.9690 C   0  0  0  0  0  0  0  0  0  0  0  0
   -0.6720   -1.0160    0.1980 C   0  0  0  0  0  0  0  0  0  0  0  0
    0.7790   -1.1370    0.3740 C   0  0  0  0  0  0  0  0  0  0  0  0
    1.3300   -0.5230    1.3090 O   0  0  0  0  0  0  0  0  0  0  0  0
    1.5260   -1.9100   -0.4700 O   0  0  0  0  0  0  0  0  0  0  0  0
    2.9150   -2.0240   -0.3050 C   0  0  0  0  0  0  0  0  0  0  0  0
    3.6580   -0.7220   -0.4320 C   0  0  0  0  0  0  0  0  0  0  0  0
    5.0610   -0.9170   -0.2540 O   0  0  0  0  0  0  0  0  0  0  0  0
    5.9250    0.2150   -0.3400 C   0  0  0  0  0  0  0  0  0  0  0  0
    6.7510    0.4880    0.5970 C   0  0  0  0  0  0  0  0  0  0  0  0
    7.6180    1.6750    0.4460 C   0  0  0  0  0  0  0  0  0  0  0  0
    6.7040    2.5790   -0.8420 S   0  0  0  0  0  0  0  0  0  0  0  0
    5.8720    1.0870   -1.5240 C   0  0  0  0  0  0  0  0  0  0  0  0
   -1.4260   -1.6020   -0.7460 N   0  0  0  0  0  0  0  0  0  0  0  0
   -2.7200   -1.2690   -0.6080 C   0  0  0  0  0  0  0  0  0  0  0  0
   -3.8070   -1.7630   -1.5080 C   0  0  0  0  0  0  0  0  0  0  0  0
  1  2  2  0
  2  3  1  0
  3  4  1  0
  4  5  1  0
  5  6  2  0
  5  7  1  0
  7  8  1  0
  7 22  2  0
  8  9  2  0
  9 10  1  0
  9 21  1  0
 10 11  2  0
 10 12  1  0
 12 13  1  0
 13 14  1  0
 14 15  1  0
 15 16  1  0
 16 17  2  0
 16 20  1  0
 17 18  1  0
 18 19  1  0
 19 20  1  0
 21 22  1  0
 22 23  1  0
M  END
