
     RDKit          3D

 20 20  0  0  0  0  0  0  0  0999 V2000
    4.8030    0.5050    0.3890 O   0  0  0  0  0  0  0  0  0  0  0  0
    4.6010   -0.3560   -0.4930 C   0  0  0  0  0  0  0  0  0  0  0  0
    3.4990   -0.2200   -1.3470 N   0  0  0  0  0  0  0  0  0  0  0  0
    2.5070    0.8030   -1.3620 C   0  0  0  0  0  0  0  0  0  0  0  0
    1.7160    0.7920   -0.0860 C   0  0  1  0  0  0  0  0  0  0  0  0
    2.4810    1.0250    1.0300 O   0  0  0  0  0  0  0  0  0  0  0  0
    0.6150    1.8420   -0.0970 C   0  0  0  0  0  0  0  0  0  0  0  0
   -0.4790    1.3330    0.8170 C   0  0  0  0  0  0  0  0  0  0  0  0
   -1.2600    0.2450    0.0890 C   0  0  2  0  0  0  0  0  0  0  0  0
   -2.1610    0.8900   -0.7370 O   0  0  0  0  0  0  0  0  0  0  0  0
   -1.8450   -0.7530    1.0290 C   0  0  0  0  0  0  0  0  0  0  0  0
   -2.7600   -0.3130    1.9230 O   0  0  0  0  0  0  0  0  0  0  0  0
   -3.9210    0.1980    1.4610 C   0  0  0  0  0  0  0  0  0  0  0  0
   -4.8170   -0.7380    0.6940 C   0  0  0  0  0  0  0  0  0  0  0  0
   -4.2660   -1.2750   -0.4420 O   0  0  0  0  0  0  0  0  0  0  0  0
   -0.2410   -0.4950   -0.7790 C   0  0  2  0  0  0  0  0  0  0  0  0
   -0.7180   -1.7570   -1.1290 O   0  0  0  0  0  0  0  0  0  0  0  0
    1.0460   -0.5850    0.0010 C   0  0  0  0  0  0  0  0  0  0  0  0
    5.5000   -1.4290   -0.5810 O   0  0  0  0  0  0  0  0  0  0  0  0
    6.5430   -1.5290    0.2520 O   0  0  0  0  0  0  0  0  0  0  0  0
  1  2  2  0
  2  3  1  0
  2 19  1  0
  3  4  1  0
  4  5  1  0
  5  6  1  1
  5  7  1  0
  5 18  1  0
  7  8  1  0
  8  9  1  0
  9 10  1  6
  9 11  1  0
  9 16  1  0
 11 12  1  0
 12 13  1  0
 13 14  1  0
 14 15  1  0
 16 17  1  1
 16 18  1  0
 19 20  1  0
M  END
