
     RDKit          3D

 19 19  0  0  0  0  0  0  0  0999 V2000
   -1.2570   -0.2190   -1.8470 C   0  0  0  0  0  0  0  0  0  0  0  0
   -0.9310    0.3110   -0.5030 C   0  0  2  0  0  0  0  0  0  0  0  0
   -2.1360    0.9620    0.0450 C   0  0  1  0  0  0  0  0  0  0  0  0
   -2.4750    2.0060   -0.9290 O   0  0  0  0  0  0  0  0  0  0  0  0
   -3.4450    0.2200   -0.0110 C   0  0  0  0  0  0  0  0  0  0  0  0
   -3.6330   -0.8500    0.7750 O   0  0  0  0  0  0  0  0  0  0  0  0
    0.0040    1.3920   -0.6870 O   0  0  0  0  0  0  0  0  0  0  0  0
    0.3060    2.0340    0.4770 C   0  0  0  0  0  0  0  0  0  0  0  0
    0.8700    1.2820    1.4750 O   0  0  0  0  0  0  0  0  0  0  0  0
    0.1880    0.1240    1.6690 C   0  0  0  0  0  0  0  0  0  0  0  0
   -0.1300   -0.6220    0.3820 C   0  0  1  0  0  0  0  0  0  0  0  0
   -0.8980   -1.8260    0.8340 C   0  0  0  0  0  0  0  0  0  0  0  0
    1.0580   -1.1860   -0.3150 C   0  0  2  0  0  0  0  0  0  0  0  0
    1.7310   -2.0510    0.5320 O   0  0  0  0  0  0  0  0  0  0  0  0
    2.0090   -0.3930   -1.0670 C   0  0  0  0  0  0  0  0  0  0  0  0
    2.9690    0.4380   -0.4520 N   0  0  0  0  0  0  0  0  0  0  0  0
    4.0220    0.0470    0.4190 C   0  0  0  0  0  0  0  0  0  0  0  0
    4.1760   -1.1640    0.7110 O   0  0  0  0  0  0  0  0  0  0  0  0
    4.9180    0.9580    0.9810 O   0  0  0  0  0  0  0  0  0  0  0  0
  2  1  1  6
  2  3  1  0
  2  7  1  0
  2 11  1  0
  3  4  1  6
  3  5  1  0
  5  6  1  0
  7  8  1  0
  8  9  1  0
  9 10  1  0
 10 11  1  0
 11 12  1  1
 11 13  1  0
 13 14  1  1
 13 15  1  0
 15 16  1  0
 16 17  1  0
 17 18  2  0
 17 19  1  0
M  END
