
     RDKit          3D

 19 19  0  0  0  0  0  0  0  0999 V2000
    5.0420    1.2590   -1.2140 N   0  0  0  0  0  0  0  0  0  0  0  0
    3.8050    0.5150   -1.0920 C   0  0  0  0  0  0  0  0  0  0  0  0
    3.5170    0.3010    0.3580 C   0  0  2  0  0  0  0  0  0  0  0  0
    4.6010   -0.4250    0.8890 O   0  0  0  0  0  0  0  0  0  0  0  0
    2.2530   -0.4940    0.5980 C   0  0  2  0  0  0  0  0  0  0  0  0
    2.0680   -0.6910    1.9550 O   0  0  0  0  0  0  0  0  0  0  0  0
    2.2690   -1.8270   -0.0940 C   0  0  0  0  0  0  0  0  0  0  0  0
    3.2930   -2.6500    0.3720 O   0  0  0  0  0  0  0  0  0  0  0  0
    1.1040    0.3090    0.0600 C   0  0  0  0  0  0  0  0  0  0  0  0
   -0.1300   -0.3410    0.2520 O   0  0  0  0  0  0  0  0  0  0  0  0
   -1.0490    0.5290   -0.2940 C   0  0  0  0  0  0  0  0  0  0  0  0
   -2.4680    0.0770   -0.2230 C   0  0  2  0  0  0  0  0  0  0  0  0
   -2.5570   -1.1440   -0.9270 O   0  0  0  0  0  0  0  0  0  0  0  0
   -3.2690    1.1160   -0.9770 C   0  0  0  0  0  0  0  0  0  0  0  0
   -4.6800    1.2320   -0.5540 C   0  0  0  0  0  0  0  0  0  0  0  0
   -4.9000    1.0920    0.7980 O   0  0  0  0  0  0  0  0  0  0  0  0
   -4.4930   -0.2170    1.1390 C   0  0  0  0  0  0  0  0  0  0  0  0
   -2.9690   -0.1720    1.1580 C   0  0  1  0  0  0  0  0  0  0  0  0
   -2.5420   -1.4170    1.6200 O   0  0  0  0  0  0  0  0  0  0  0  0
  1  2  1  0
  2  3  1  0
  3  4  1  6
  3  5  1  0
  5  6  1  1
  5  7  1  0
  5  9  1  0
  7  8  1  0
  9 10  1  0
 10 11  1  0
 11 12  1  0
 12 13  1  6
 12 14  1  0
 12 18  1  0
 14 15  1  0
 15 16  1  0
 16 17  1  0
 17 18  1  0
 18 19  1  6
M  END
