
     RDKit          3D

 20 20  0  0  0  0  0  0  0  0999 V2000
    0.9030    0.2640   -1.9820 C   0  0  0  0  0  0  0  0  0  0  0  0
    1.0540   -0.4610   -0.6910 C   0  0  2  0  0  0  0  0  0  0  0  0
    0.9410   -1.8610   -0.8520 O   0  0  0  0  0  0  0  0  0  0  0  0
   -0.0610   -0.0670    0.2490 C   0  0  0  0  0  0  0  0  0  0  0  0
   -1.3610   -0.4330   -0.3850 C   0  0  2  0  0  0  0  0  0  0  0  0
   -1.5960    0.1870   -1.5930 O   0  0  0  0  0  0  0  0  0  0  0  0
   -2.5520   -0.1130    0.5170 C   0  0  0  0  0  0  0  0  0  0  0  0
   -3.6530   -0.6180   -0.1270 O   0  0  0  0  0  0  0  0  0  0  0  0
   -4.8670   -0.5250    0.4560 C   0  0  2  0  0  0  0  0  0  0  0  0
   -4.9110   -1.1780    1.6990 O   0  0  0  0  0  0  0  0  0  0  0  0
   -5.7920   -1.1660   -0.4240 O   0  0  0  0  0  0  0  0  0  0  0  0
   -5.3300    0.8280    0.5510 N   0  0  0  0  0  0  0  0  0  0  0  0
   -4.5650    1.5190    1.4010 O   0  0  0  0  0  0  0  0  0  0  0  0
    2.4160   -0.2340   -0.0760 C   0  0  1  0  0  0  0  0  0  0  0  0
    3.4420   -0.6610   -1.1030 C   0  0  0  0  0  0  0  0  0  0  0  0
    2.6500    1.2650    0.1650 C   0  0  0  0  0  0  0  0  0  0  0  0
    4.0470    1.3630    0.3610 O   0  0  0  0  0  0  0  0  0  0  0  0
    4.3890    0.6880    1.5040 C   0  0  0  0  0  0  0  0  0  0  0  0
    3.7950   -0.6670    1.6710 C   0  0  0  0  0  0  0  0  0  0  0  0
    2.5510   -0.8610    1.1370 O   0  0  0  0  0  0  0  0  0  0  0  0
  2  1  1  6
  2  3  1  0
  2  4  1  0
  2 14  1  0
  4  5  1  0
  5  6  1  6
  5  7  1  0
  7  8  1  0
  8  9  1  0
  9 10  1  1
  9 11  1  0
  9 12  1  0
 12 13  1  0
 14 15  1  6
 14 16  1  0
 14 20  1  0
 16 17  1  0
 17 18  1  0
 18 19  1  0
 19 20  1  0
M  END
