
     RDKit          3D

 19 19  0  0  0  0  0  0  0  0999 V2000
    0.5260   -1.8260    1.7420 C   0  0  0  0  0  0  0  0  0  0  0  0
    0.1640   -0.4330    1.1150 C   0  0  1  0  0  0  0  0  0  0  0  0
    0.0090    0.3340    2.2460 O   0  0  0  0  0  0  0  0  0  0  0  0
    1.3940   -0.0900    0.3260 C   0  0  2  0  0  0  0  0  0  0  0  0
    1.5630    1.3690    0.0160 C   0  0  0  0  0  0  0  0  0  0  0  0
    2.9200    1.6150   -0.2280 O   0  0  0  0  0  0  0  0  0  0  0  0
    3.5840    0.5050   -0.6970 C   0  0  2  0  0  0  0  0  0  0  0  0
    4.6150    1.0040   -1.6210 N   0  0  0  0  0  0  0  0  0  0  0  0
    2.6590   -0.3240   -1.5210 C   0  0  0  0  0  0  0  0  0  0  0  0
    1.5600   -0.8320   -0.8300 O   0  0  0  0  0  0  0  0  0  0  0  0
   -1.0530   -0.7440    0.3360 C   0  0  1  0  0  0  0  0  0  0  0  0
   -1.9760   -1.4600    1.1560 O   0  0  0  0  0  0  0  0  0  0  0  0
   -1.8060    0.2820   -0.3600 C   0  0  2  0  0  0  0  0  0  0  0  0
   -2.4110    1.4080    0.4090 C   0  0  0  0  0  0  0  0  0  0  0  0
   -1.4350    2.1380    1.0740 O   0  0  0  0  0  0  0  0  0  0  0  0
   -2.8640   -0.3520   -1.2360 C   0  0  0  0  0  0  0  0  0  0  0  0
   -3.8530   -1.1760   -0.5230 C   0  0  0  0  0  0  0  0  0  0  0  0
   -3.7010   -2.4220   -0.4710 O   0  0  0  0  0  0  0  0  0  0  0  0
   -4.9760   -0.6690    0.1150 O   0  0  0  0  0  0  0  0  0  0  0  0
  2  1  1  1
  2  3  1  0
  2  4  1  0
  2 11  1  0
  4  5  1  6
  4 10  1  0
  5  6  1  0
  6  7  1  0
  7  8  1  6
  7  9  1  0
  9 10  1  0
 11 12  1  1
 11 13  1  0
 13 14  1  1
 13 16  1  0
 14 15  1  0
 16 17  1  0
 17 18  2  0
 17 19  1  0
M  END
