
     RDKit          3D

 19 19  0  0  0  0  0  0  0  0999 V2000
    1.0490    1.1290   -1.3670 O   0  0  0  0  0  0  0  0  0  0  0  0
    1.2550   -0.0210   -0.9030 C   0  0  0  0  0  0  0  0  0  0  0  0
    0.3280   -0.5470   -0.0460 O   0  0  0  0  0  0  0  0  0  0  0  0
   -0.8620    0.0760    0.3860 C   0  0  1  0  0  0  0  0  0  0  0  0
   -0.5710    1.3780    1.1210 C   0  0  0  0  0  0  0  0  0  0  0  0
   -1.7420    1.9880    1.5470 O   0  0  0  0  0  0  0  0  0  0  0  0
   -1.8310    0.2680   -0.7340 C   0  0  0  0  0  0  0  0  0  0  0  0
   -3.2620    0.1660   -0.3240 C   0  0  1  0  0  0  0  0  0  0  0  0
   -4.0550    0.5350   -1.4020 O   0  0  0  0  0  0  0  0  0  0  0  0
   -3.5760   -1.2750    0.0970 C   0  0  0  0  0  0  0  0  0  0  0  0
   -2.6270   -1.6100    1.1280 N   0  0  0  0  0  0  0  0  0  0  0  0
   -1.4690   -0.8440    1.4070 C   0  0  0  0  0  0  0  0  0  0  0  0
   -0.9530   -0.9540    2.5490 O   0  0  0  0  0  0  0  0  0  0  0  0
    2.4970   -0.7780   -1.2970 C   0  0  2  0  0  0  0  0  0  0  0  0
    2.5030   -2.0180   -0.6600 O   0  0  0  0  0  0  0  0  0  0  0  0
    3.6540   -0.0100   -0.7830 C   0  0  0  0  0  0  0  0  0  0  0  0
    3.8270    1.2890   -1.2330 O   0  0  0  0  0  0  0  0  0  0  0  0
    4.5200   -0.5160    0.0810 C   0  0  0  0  0  0  0  0  0  0  0  0
    5.6020    0.2120    0.5570 O   0  0  0  0  0  0  0  0  0  0  0  0
  1  2  2  0
  2  3  1  0
  2 14  1  0
  3  4  1  0
  4  5  1  1
  4  7  1  0
  4 12  1  0
  5  6  1  0
  7  8  1  0
  8  9  1  6
  8 10  1  0
 10 11  1  0
 11 12  1  0
 12 13  2  0
 14 15  1  1
 14 16  1  0
 16 17  1  0
 16 18  2  3
 18 19  1  0
M  END
