
     RDKit          3D

 33 37  0  0  0  0  0  0  0  0999 V2000
   -5.3910    1.3690   -1.0110 O   0  0  0  0  0  0  0  0  0  0  0  0
   -5.6700    0.5370   -0.0310 C   0  0  0  0  0  0  0  0  0  0  0  0
   -4.5030   -0.1780    0.4690 C   0  0  0  0  0  0  0  0  0  0  0  0
   -3.3710    0.0950   -0.0680 N   0  0  0  0  0  0  0  0  0  0  0  0
   -2.1170   -0.4100    0.2000 C   0  0  0  0  0  0  0  0  0  0  0  0
   -1.9090   -1.3190    1.1330 C   0  0  0  0  0  0  0  0  0  0  0  0
   -0.5460   -1.7850    1.3320 C   0  0  0  0  0  0  0  0  0  0  0  0
    0.0470   -2.1900    0.0480 N   0  0  0  0  0  0  0  0  0  0  0  0
   -0.2980   -1.3460   -1.0390 C   0  0  2  0  0  0  0  0  0  0  0  0
    0.6270   -1.1910   -2.1750 C   0  0  0  0  0  0  0  0  0  0  0  0
    1.9790   -0.6880   -1.8900 C   0  0  0  0  0  0  0  0  0  0  0  0
    2.2190    0.6940   -1.8300 C   0  0  0  0  0  0  0  0  0  0  0  0
    3.4360    1.2150   -1.4930 C   0  0  0  0  0  0  0  0  0  0  0  0
    4.5360    0.3900   -1.1810 C   0  0  0  0  0  0  0  0  0  0  0  0
    5.7390    0.9770   -0.8440 O   0  0  0  0  0  0  0  0  0  0  0  0
    6.9050    0.3080   -0.5350 C   0  0  1  0  0  0  0  0  0  0  0  0
    8.0520    0.7650   -1.4100 C   0  0  0  0  0  0  0  0  0  0  0  0
    9.0500    1.5900   -0.7040 C   0  0  0  0  0  0  0  0  0  0  0  0
    8.9530    2.1070    0.4900 C   0  0  0  0  0  0  0  0  0  0  0  0
    7.6930    1.8530    1.2670 C   0  0  0  0  0  0  0  0  0  0  0  0
    7.2870    0.4390    0.9350 C   0  0  0  0  0  0  0  0  0  0  0  0
    4.3050   -0.9600   -1.2410 C   0  0  0  0  0  0  0  0  0  0  0  0
    3.0500   -1.4800   -1.5900 C   0  0  0  0  0  0  0  0  0  0  0  0
    2.8830   -3.2320   -1.7240 Cl  0  0  0  0  0  0  0  0  0  0  0  0
   -0.8680   -0.0010   -0.5450 C   0  0  0  0  0  0  0  0  0  0  0  0
   -3.2520   -1.9140    2.1460 S   0  0  0  0  0  0  0  0  0  0  0  0
   -4.7650   -1.1920    1.5140 C   0  0  0  0  0  0  0  0  0  0  0  0
   -7.0030    0.4850    0.3590 N   0  0  0  0  0  0  0  0  0  0  0  0
   -7.7020   -0.2530    1.3400 C   0  0  0  0  0  0  0  0  0  0  0  0
   -7.9800    0.7420    2.4950 C   0  0  0  0  0  0  0  0  0  0  0  0
   -8.2690    1.9920    1.9430 O   0  0  0  0  0  0  0  0  0  0  0  0
   -8.8570    1.9190    0.6950 C   0  0  0  0  0  0  0  0  0  0  0  0
   -7.9250    1.4360   -0.3900 C   0  0  0  0  0  0  0  0  0  0  0  0
  1  2  2  0
  2  3  1  0
  2 28  1  0
  3  4  2  0
  3 27  1  0
  4  5  1  0
  5  6  2  0
  5 25  1  0
  6  7  1  0
  6 26  1  0
  7  8  1  0
  8  9  1  0
  9 10  1  1
  9 25  1  0
 10 11  1  0
 11 12  2  0
 11 23  1  0
 12 13  1  0
 13 14  2  0
 14 15  1  0
 14 22  1  0
 16 15  1  1
 16 17  1  0
 16 21  1  0
 17 18  1  0
 18 19  2  0
 19 20  1  0
 20 21  1  0
 22 23  2  0
 23 24  1  0
 26 27  1  0
 28 29  1  0
 28 33  1  0
 29 30  1  0
 30 31  1  0
 31 32  1  0
 32 33  1  0
M  CHG  1   8   1
M  END
