
     RDKit          3D

 33 37  0  0  0  0  0  0  0  0999 V2000
    2.0340   -2.7200    1.1060 O   0  0  0  0  0  0  0  0  0  0  0  0
    1.7570   -1.5460    0.5990 C   0  0  0  0  0  0  0  0  0  0  0  0
    0.3730   -1.2240    0.4000 C   0  0  0  0  0  0  0  0  0  0  0  0
   -0.1750   -0.0140    0.1000 C   0  0  0  0  0  0  0  0  0  0  0  0
   -1.5390    0.1860   -0.1340 C   0  0  0  0  0  0  0  0  0  0  0  0
   -2.3990   -0.8740   -0.0640 C   0  0  0  0  0  0  0  0  0  0  0  0
   -3.8720   -0.7020   -0.3170 C   0  0  0  0  0  0  0  0  0  0  0  0
   -4.4270    0.0690    0.7690 N   0  0  2  0  0  0  0  0  0  0  0  0
   -4.1610   -0.7670    1.9790 C   0  0  0  0  0  0  0  0  0  0  0  0
   -5.1140   -1.9350    1.8490 C   0  0  0  0  0  0  0  0  0  0  0  0
   -6.2270   -1.3160    0.9910 C   0  0  0  0  0  0  0  0  0  0  0  0
   -5.8380    0.1130    0.8230 C   0  0  2  0  0  0  0  0  0  0  0  0
   -6.5280    0.7630   -0.3490 C   0  0  0  0  0  0  0  0  0  0  0  0
   -6.0660    1.7260   -1.0570 C   0  0  0  0  0  0  0  0  0  0  0  0
   -4.4950    2.5480   -0.8360 Cl  0  0  0  0  0  0  0  0  0  0  0  0
   -6.9030    2.2140   -2.1790 C   0  0  0  0  0  0  0  0  0  0  0  0
   -8.5030    1.5590   -1.6820 S   0  0  1  0  0  0  0  0  0  0  0  0
   -9.2160    2.5890   -0.8600 O   0  0  0  0  0  0  0  0  0  0  0  0
   -9.2910    1.0690   -2.8280 O   0  0  0  0  0  0  0  0  0  0  0  0
   -7.8490    0.3130   -0.6930 N   0  0  0  0  0  0  0  0  0  0  0  0
   -1.8730   -2.1060    0.2380 C   0  0  0  0  0  0  0  0  0  0  0  0
   -0.5420   -2.2970    0.4650 C   0  0  0  0  0  0  0  0  0  0  0  0
    2.9310   -0.7910    0.3330 N   0  0  0  0  0  0  0  0  0  0  0  0
    4.2180   -1.4040    0.7350 C   0  0  0  0  0  0  0  0  0  0  0  0
    5.2520   -1.2210   -0.3100 C   0  0  0  0  0  0  0  0  0  0  0  0
    5.5000    0.2720   -0.5330 C   0  0  1  0  0  0  0  0  0  0  0  0
    5.9960    0.8740    0.7580 C   0  0  0  0  0  0  0  0  0  0  0  0
    6.9750    1.9880    0.5520 C   0  0  0  0  0  0  0  0  0  0  0  0
    8.1610    1.6250   -0.2880 C   0  0  0  0  0  0  0  0  0  0  0  0
    7.9470    0.3190   -1.0020 C   0  0  0  0  0  0  0  0  0  0  0  0
    6.5510    0.3740   -1.6140 C   0  0  0  0  0  0  0  0  0  0  0  0
    4.2230    0.8740   -1.0170 C   0  0  0  0  0  0  0  0  0  0  0  0
    2.9750    0.4810   -0.3180 C   0  0  0  0  0  0  0  0  0  0  0  0
  1  2  2  0
  2  3  1  0
  2 23  1  0
  3  4  2  0
  3 22  1  0
  4  5  1  0
  5  6  2  0
  6  7  1  0
  6 21  1  0
  8  7  1  6
  8  9  1  0
  8 12  1  0
  9 10  1  0
 10 11  1  0
 11 12  1  0
 12 13  1  6
 13 14  2  0
 13 20  1  0
 14 15  1  0
 14 16  1  0
 17 16  1  6
 17 18  2  0
 17 19  2  0
 17 20  1  0
 21 22  2  0
 23 24  1  0
 23 33  1  0
 24 25  1  0
 26 25  1  1
 26 27  1  0
 26 31  1  0
 26 32  1  0
 27 28  1  0
 28 29  1  0
 29 30  1  0
 30 31  1  0
 32 33  1  0
M  CHG  1   8   1
M  END
