
     RDKit          3D

 33 37  0  0  0  0  0  0  0  0999 V2000
   10.8900   -1.4940   -1.5650 C   0  0  0  0  0  0  0  0  0  0  0  0
    9.5590   -1.2940   -0.9410 C   0  0  0  0  0  0  0  0  0  0  0  0
    8.9710   -2.2430   -0.1280 C   0  0  0  0  0  0  0  0  0  0  0  0
    7.7360   -2.0120    0.4290 C   0  0  0  0  0  0  0  0  0  0  0  0
    7.0090   -0.8290    0.2150 C   0  0  0  0  0  0  0  0  0  0  0  0
    5.7580   -0.7150    0.8450 N   0  0  0  0  0  0  0  0  0  0  0  0
    4.8450    0.3580    0.7050 C   0  0  0  0  0  0  0  0  0  0  0  0
    5.1440    1.3120   -0.0410 O   0  0  0  0  0  0  0  0  0  0  0  0
    3.5380    0.3640    1.4330 C   0  0  0  0  0  0  0  0  0  0  0  0
    2.8200    1.6420    1.0490 C   0  0  1  0  0  0  0  0  0  0  0  0
    2.6430    1.6130   -0.3240 O   0  0  0  0  0  0  0  0  0  0  0  0
    1.2890    1.5720   -0.6130 C   0  0  0  0  0  0  0  0  0  0  0  0
    0.8730    1.5300   -1.8140 O   0  0  0  0  0  0  0  0  0  0  0  0
    0.4850    1.5840    0.6390 C   0  0  0  0  0  0  0  0  0  0  0  0
    1.4110    1.6310    1.5930 C   0  0  0  0  0  0  0  0  0  0  0  0
    0.5600    1.6520    3.0790 S   0  0  0  0  0  0  0  0  0  0  0  0
   -1.0920    1.5940    2.3420 C   0  0  0  0  0  0  0  0  0  0  0  0
   -2.6320    1.6380    3.2820 Cl  0  0  0  0  0  0  0  0  0  0  0  0
   -0.8310    1.5620    0.9810 C   0  0  0  0  0  0  0  0  0  0  0  0
   -1.9680    1.5610   -0.0390 C   0  0  0  0  0  0  0  0  0  0  0  0
   -3.2410    1.4320    0.5750 N   0  0  0  0  0  0  0  0  0  0  0  0
   -4.2160    1.7550   -0.4950 C   0  0  0  0  0  0  0  0  0  0  0  0
   -5.5660    1.5640    0.1020 C   0  0  0  0  0  0  0  0  0  0  0  0
   -6.1470    0.1960   -0.1760 C   0  0  1  0  0  0  0  0  0  0  0  0
   -7.3760    0.4150   -1.0480 C   0  0  0  0  0  0  0  0  0  0  0  0
   -7.7940   -0.8560   -1.7330 C   0  0  0  0  0  0  0  0  0  0  0  0
   -7.2070   -2.0080   -0.9540 C   0  0  0  0  0  0  0  0  0  0  0  0
   -5.7820   -2.0050   -1.0210 N   0  0  0  0  0  0  0  0  0  0  0  0
   -5.1920   -0.6700   -0.9540 C   0  0  2  0  0  0  0  0  0  0  0  0
   -3.8340   -0.7900   -0.3740 C   0  0  0  0  0  0  0  0  0  0  0  0
   -3.5510    0.0170    0.8500 C   0  0  0  0  0  0  0  0  0  0  0  0
    7.6150    0.0890   -0.5920 C   0  0  0  0  0  0  0  0  0  0  0  0
    8.8700   -0.1260   -1.1680 C   0  0  0  0  0  0  0  0  0  0  0  0
  1  2  1  0
  2  3  2  0
  2 33  1  0
  3  4  1  0
  4  5  2  0
  5  6  1  0
  5 32  1  0
  6  7  1  0
  7  8  2  0
  7  9  1  0
 10  9  1  1
 10 11  1  0
 10 15  1  0
 11 12  1  0
 12 13  2  0
 12 14  1  0
 14 15  2  0
 14 19  1  0
 15 16  1  0
 16 17  1  0
 17 18  1  0
 17 19  2  0
 19 20  1  0
 20 21  1  0
 21 22  1  0
 21 31  1  0
 22 23  1  0
 24 23  1  6
 24 25  1  0
 24 29  1  0
 25 26  1  0
 26 27  1  0
 27 28  1  0
 28 29  1  0
 29 30  1  1
 30 31  1  0
 32 33  2  0
M  CHG  1  28   1
M  END
