
     RDKit          3D

 33 37  0  0  0  0  0  0  0  0999 V2000
    8.5470    4.1160   -0.0950 O   0  0  0  0  0  0  0  0  0  0  0  0
    7.6390    3.6910    1.0310 S   0  0  0  0  0  0  0  0  0  0  0  0
    6.4860    2.5050    0.4200 C   0  0  0  0  0  0  0  0  0  0  0  0
    5.6140    1.8030    1.2340 C   0  0  0  0  0  0  0  0  0  0  0  0
    4.7230    0.8870    0.6920 C   0  0  0  0  0  0  0  0  0  0  0  0
    4.6480    0.6230   -0.6460 C   0  0  0  0  0  0  0  0  0  0  0  0
    3.7290   -0.3370   -1.2320 C   0  0  0  0  0  0  0  0  0  0  0  0
    3.3970   -0.1290   -2.4630 O   0  0  0  0  0  0  0  0  0  0  0  0
    3.1620   -1.4810   -0.5820 C   0  0  0  0  0  0  0  0  0  0  0  0
    1.7770   -1.6490   -0.4260 C   0  0  0  0  0  0  0  0  0  0  0  0
    1.2170   -2.7500    0.1640 C   0  0  0  0  0  0  0  0  0  0  0  0
   -0.2340   -2.9210    0.2930 C   0  0  0  0  0  0  0  0  0  0  0  0
   -0.7460   -4.1320    0.7840 C   0  0  0  0  0  0  0  0  0  0  0  0
   -2.1100   -4.2420    0.9130 C   0  0  0  0  0  0  0  0  0  0  0  0
   -2.9470   -3.1870    0.5670 C   0  0  0  0  0  0  0  0  0  0  0  0
   -2.4410   -1.9970    0.0830 C   0  0  0  0  0  0  0  0  0  0  0  0
   -3.2140   -0.9120   -0.2630 N   0  0  0  0  0  0  0  0  0  0  0  0
   -2.6810    0.4700   -0.3030 C   0  0  0  0  0  0  0  0  0  0  0  0
   -3.8270    1.3050    0.1000 C   0  0  1  0  0  0  0  0  0  0  0  0
   -3.5370    2.7550    0.4060 C   0  0  0  0  0  0  0  0  0  0  0  0
   -4.9800    3.3000    0.3550 C   0  0  0  0  0  0  0  0  0  0  0  0
   -5.7870    2.2240   -0.3860 C   0  0  0  0  0  0  0  0  0  0  0  0
   -4.7650    1.4060   -1.0190 N   0  0  2  0  0  0  0  0  0  0  0  0
   -5.1950    0.1210   -1.4460 C   0  0  0  0  0  0  0  0  0  0  0  0
   -4.5720   -0.9850   -0.6160 C   0  0  0  0  0  0  0  0  0  0  0  0
   -5.3350   -1.9130   -0.2960 O   0  0  0  0  0  0  0  0  0  0  0  0
   -1.0490   -1.8900   -0.0460 C   0  0  0  0  0  0  0  0  0  0  0  0
    2.0590   -3.6950    0.6040 N   0  0  0  0  0  0  0  0  0  0  0  0
    3.3900   -3.5650    0.4710 C   0  0  0  0  0  0  0  0  0  0  0  0
    4.0070   -2.4850   -0.1110 C   0  0  0  0  0  0  0  0  0  0  0  0
    5.7350   -2.3640   -0.2690 Cl  0  0  0  0  0  0  0  0  0  0  0  0
    5.5350    1.3380   -1.4670 C   0  0  0  0  0  0  0  0  0  0  0  0
    6.4250    2.2500   -0.9430 C   0  0  0  0  0  0  0  0  0  0  0  0
  1  2  2  0
  2  3  1  0
  3  4  2  0
  3 33  1  0
  4  5  1  0
  5  6  2  0
  6  7  1  0
  6 32  1  0
  7  8  2  0
  7  9  1  0
  9 10  2  0
  9 30  1  0
 10 11  1  0
 11 12  1  0
 11 28  2  0
 12 13  2  0
 12 27  1  0
 13 14  1  0
 14 15  2  0
 15 16  1  0
 16 17  1  0
 16 27  2  0
 17 18  1  0
 17 25  1  0
 19 18  1  6
 19 20  1  0
 19 23  1  0
 20 21  1  0
 21 22  1  0
 23 22  1  1
 23 24  1  0
 24 25  1  0
 25 26  2  0
 28 29  1  0
 29 30  2  0
 30 31  1  0
 32 33  2  0
M  CHG  1  23   1
M  END
