
     RDKit          3D

 33 37  0  0  0  0  0  0  0  0999 V2000
    6.7580   -2.2370    1.3080 C   0  0  0  0  0  0  0  0  0  0  0  0
    5.7800   -1.2240    0.8320 C   0  0  0  0  0  0  0  0  0  0  0  0
    4.4750   -1.2630    0.7430 O   0  0  0  0  0  0  0  0  0  0  0  0
    3.9880   -0.1710    0.2660 C   0  0  0  0  0  0  0  0  0  0  0  0
    2.6040    0.2540    0.0010 C   0  0  0  0  0  0  0  0  0  0  0  0
    2.3590    1.4740   -0.5900 C   0  0  0  0  0  0  0  0  0  0  0  0
    1.1030    1.9770   -0.8110 C   0  0  0  0  0  0  0  0  0  0  0  0
    0.0490    1.1800   -0.4000 C   0  0  0  0  0  0  0  0  0  0  0  0
    0.1910   -0.0520    0.1950 C   0  0  0  0  0  0  0  0  0  0  0  0
    1.5030   -0.4870    0.3800 C   0  0  0  0  0  0  0  0  0  0  0  0
   -0.7410   -1.0420    0.6940 C   0  0  0  0  0  0  0  0  0  0  0  0
   -2.1180   -0.8160    0.7260 N   0  0  2  0  0  0  0  0  0  0  0  0
   -2.7630   -2.1490    0.6130 C   0  0  2  0  0  0  0  0  0  0  0  0
   -2.8590   -2.6240   -0.7950 C   0  0  0  0  0  0  0  0  0  0  0  0
   -3.8990   -3.7390   -0.6790 C   0  0  0  0  0  0  0  0  0  0  0  0
   -4.9100   -3.1560    0.2620 C   0  0  0  0  0  0  0  0  0  0  0  0
   -4.1310   -2.2030    1.1790 C   0  0  0  0  0  0  0  0  0  0  0  0
   -2.7650    0.0790   -0.1560 C   0  0  0  0  0  0  0  0  0  0  0  0
   -2.4530    1.5110    0.1760 C   0  0  2  0  0  0  0  0  0  0  0  0
   -3.4390    2.5260   -0.0920 C   0  0  0  0  0  0  0  0  0  0  0  0
   -4.1980    3.0670    0.9240 C   0  0  0  0  0  0  0  0  0  0  0  0
   -5.1250    4.0850    0.6900 C   0  0  0  0  0  0  0  0  0  0  0  0
   -5.2910    4.5640   -0.5820 C   0  0  0  0  0  0  0  0  0  0  0  0
   -4.5460    4.0440   -1.6130 C   0  0  0  0  0  0  0  0  0  0  0  0
   -4.7800    4.7020   -3.2080 Cl  0  0  0  0  0  0  0  0  0  0  0  0
   -3.6290    3.0330   -1.3640 C   0  0  0  0  0  0  0  0  0  0  0  0
   -1.2210    1.8180   -0.5880 N   0  0  0  0  0  0  0  0  0  0  0  0
    5.0340    0.6450    0.0150 N   0  0  0  0  0  0  0  0  0  0  0  0
    6.1650    0.0310    0.3580 C   0  0  0  0  0  0  0  0  0  0  0  0
    7.4920    0.6920    0.4080 C   0  0  0  0  0  0  0  0  0  0  0  0
    8.7950   -0.2090   -0.3350 S   0  0  1  0  0  0  0  0  0  0  0  0
    8.3990   -0.9920   -1.5220 O   0  0  0  0  0  0  0  0  0  0  0  0
    9.8900    0.7490   -0.7140 O   0  0  0  0  0  0  0  0  0  0  0  0
  1  2  1  0
  2  3  1  0
  2 29  2  0
  3  4  1  0
  4  5  1  0
  4 28  2  0
  5  6  2  0
  5 10  1  0
  6  7  1  0
  7  8  2  0
  8  9  1  0
  8 27  1  0
  9 10  2  0
  9 11  1  0
 12 11  1  6
 12 13  1  0
 12 18  1  0
 13 14  1  6
 13 17  1  0
 14 15  1  0
 15 16  1  0
 16 17  1  0
 18 19  1  0
 19 20  1  6
 19 27  1  0
 20 21  2  0
 20 26  1  0
 21 22  1  0
 22 23  2  0
 23 24  1  0
 24 25  1  0
 24 26  2  0
 28 29  1  0
 29 30  1  0
 31 30  1  6
 31 32  2  0
 31 33  2  0
M  CHG  1  12   1
M  END
