
     RDKit          3D

 33 37  0  0  0  0  0  0  0  0999 V2000
   -6.0950    1.0160    2.8030 C   0  0  0  0  0  0  0  0  0  0  0  0
   -4.8640    0.4590    2.1860 C   0  0  0  0  0  0  0  0  0  0  0  0
   -4.9360   -0.1040    1.0110 C   0  0  0  0  0  0  0  0  0  0  0  0
   -3.7320   -0.6450    0.4130 C   0  0  0  0  0  0  0  0  0  0  0  0
   -3.5130   -1.1210   -0.7980 C   0  0  0  0  0  0  0  0  0  0  0  0
   -4.3780   -1.2800   -1.9710 C   0  0  0  0  0  0  0  0  0  0  0  0
   -5.2890   -0.0720   -2.0520 C   0  0  0  0  0  0  0  0  0  0  0  0
   -6.5690   -0.4760   -1.3570 C   0  0  0  0  0  0  0  0  0  0  0  0
   -6.5600   -0.0990    0.3570 S   0  0  2  0  0  0  0  0  0  0  0  0
   -7.1170    1.2840    0.5190 O   0  0  0  0  0  0  0  0  0  0  0  0
   -7.4360   -1.1480    1.0280 O   0  0  0  0  0  0  0  0  0  0  0  0
   -2.5070   -0.7150    1.2230 C   0  0  1  0  0  0  0  0  0  0  0  0
   -1.3760   -0.9040    0.3700 N   0  0  0  0  0  0  0  0  0  0  0  0
   -0.1270   -1.2250    0.9980 C   0  0  0  0  0  0  0  0  0  0  0  0
    0.4760   -0.0050    0.3480 C   0  0  1  0  0  0  0  0  0  0  0  0
    1.6070   -0.2750   -0.5790 C   0  0  0  0  0  0  0  0  0  0  0  0
    1.9780   -1.4540   -0.7400 O   0  0  0  0  0  0  0  0  0  0  0  0
    2.2640    0.7600   -1.2720 N   0  0  0  0  0  0  0  0  0  0  0  0
    3.3690    0.5840   -2.1840 C   0  0  0  0  0  0  0  0  0  0  0  0
    4.6100    0.3560   -1.4180 C   0  0  0  0  0  0  0  0  0  0  0  0
    4.6150    0.2740   -0.0440 C   0  0  0  0  0  0  0  0  0  0  0  0
    5.7640    0.0690    0.6340 N   0  0  0  0  0  0  0  0  0  0  0  0
    6.9540   -0.0640    0.0190 C   0  0  0  0  0  0  0  0  0  0  0  0
    8.1120   -0.2700    0.7260 C   0  0  0  0  0  0  0  0  0  0  0  0
    9.3400   -0.4060    0.0880 C   0  0  0  0  0  0  0  0  0  0  0  0
   10.8230   -0.6700    0.9920 Cl  0  0  0  0  0  0  0  0  0  0  0  0
    9.4090   -0.3340   -1.2800 C   0  0  0  0  0  0  0  0  0  0  0  0
    8.2250   -0.1240   -1.9920 C   0  0  0  0  0  0  0  0  0  0  0  0
    7.0030    0.0120   -1.3760 C   0  0  0  0  0  0  0  0  0  0  0  0
    5.8290    0.2200   -2.0690 C   0  0  0  0  0  0  0  0  0  0  0  0
   -0.8610    0.2420   -0.3130 C   0  0  0  0  0  0  0  0  0  0  0  0
   -2.3820    0.4080    2.1800 C   0  0  0  0  0  0  0  0  0  0  0  0
   -3.6170    0.5960    2.9880 C   0  0  0  0  0  0  0  0  0  0  0  0
  1  2  1  0
  2  3  2  0
  2 33  1  0
  3  4  1  0
  3  9  1  0
  4  5  2  0
  4 12  1  0
  5  6  1  0
  6  7  1  0
  7  8  1  0
  9  8  1  6
  9 10  2  0
  9 11  2  0
 12 13  1  6
 12 32  1  0
 13 14  1  0
 13 31  1  0
 14 15  1  0
 15 16  1  6
 15 31  1  0
 16 17  2  0
 16 18  1  0
 18 19  1  0
 19 20  1  0
 20 21  2  0
 20 30  1  0
 21 22  1  0
 22 23  2  0
 23 24  1  0
 23 29  1  0
 24 25  2  0
 25 26  1  0
 25 27  1  0
 27 28  2  0
 28 29  1  0
 29 30  2  0
 32 33  1  0
M  CHG  1  22   1
M  END
