
     RDKit          3D

 32 34  0  0  0  0  0  0  0  0999 V2000
   -3.3310    2.2590   -1.6650 C   0  0  0  0  0  0  0  0  0  0  0  0
   -3.7020    1.9680   -0.4260 C   0  0  0  0  0  0  0  0  0  0  0  0
   -2.7360    1.6770    0.6200 C   0  0  0  0  0  0  0  0  0  0  0  0
   -2.7010    0.3940    1.1950 N   0  0  0  0  0  0  0  0  0  0  0  0
   -1.7930    0.4070    2.2950 C   0  0  0  0  0  0  0  0  0  0  0  0
   -0.4320    0.8780    2.0360 C   0  0  0  0  0  0  0  0  0  0  0  0
    0.0610    2.1540    2.2070 C   0  0  0  0  0  0  0  0  0  0  0  0
    1.3500    2.1040    1.8550 N   0  0  0  0  0  0  0  0  0  0  0  0
    1.6940    0.8770    1.4750 C   0  0  0  0  0  0  0  0  0  0  0  0
    2.9810    0.3750    1.0060 C   0  0  0  0  0  0  0  0  0  0  0  0
    3.1310   -0.9400    0.6310 C   0  0  0  0  0  0  0  0  0  0  0  0
    4.3160   -1.4600    0.1750 C   0  0  0  0  0  0  0  0  0  0  0  0
    5.4160   -0.6540    0.0790 C   0  0  0  0  0  0  0  0  0  0  0  0
    6.6510   -1.1660   -0.4020 N   0  0  0  0  0  0  0  0  0  0  0  0
    7.8290   -0.3520   -0.3980 C   0  0  0  0  0  0  0  0  0  0  0  0
    8.9440   -1.0870   -1.0070 C   0  0  0  0  0  0  0  0  0  0  0  0
    9.8110   -1.6660   -1.4670 N   0  0  0  0  0  0  0  0  0  0  0  0
    5.2670    0.6790    0.4590 C   0  0  0  0  0  0  0  0  0  0  0  0
    4.0800    1.1450    0.9020 N   0  0  0  0  0  0  0  0  0  0  0  0
    0.5840    0.1350    1.5930 N   0  0  0  0  0  0  0  0  0  0  0  0
   -2.7550   -0.7680    0.4010 C   0  0  2  0  0  0  0  0  0  0  0  0
   -2.4840   -2.0340    1.2710 C   0  0  0  0  0  0  0  0  0  0  0  0
   -1.7200   -0.7550   -0.6560 C   0  0  0  0  0  0  0  0  0  0  0  0
   -2.0880   -1.0010   -2.0600 C   0  0  0  0  0  0  0  0  0  0  0  0
   -3.4050   -1.5970   -2.3680 C   0  0  0  0  0  0  0  0  0  0  0  0
   -4.3490   -1.0030   -1.4680 O   0  0  0  0  0  0  0  0  0  0  0  0
   -4.1270   -1.0500   -0.1070 C   0  0  0  0  0  0  0  0  0  0  0  0
   -5.0280   -1.3210    0.6820 O   0  0  0  0  0  0  0  0  0  0  0  0
   -5.1620    2.0520   -0.1490 C   0  0  1  0  0  0  0  0  0  0  0  0
   -5.9340    1.5710   -1.1970 F   0  0  0  0  0  0  0  0  0  0  0  0
   -5.5510    1.5480    1.0590 F   0  0  0  0  0  0  0  0  0  0  0  0
   -5.5170    3.4380   -0.0490 F   0  0  0  0  0  0  0  0  0  0  0  0
  1  2  2  0
  2  3  1  0
  2 29  1  0
  3  4  1  0
  4  5  1  0
  4 21  1  0
  5  6  1  0
  6  7  2  0
  6 20  1  0
  7  8  1  0
  8  9  2  0
  9 10  1  0
  9 20  1  0
 10 11  2  0
 10 19  1  0
 11 12  1  0
 12 13  2  0
 13 14  1  0
 13 18  1  0
 14 15  1  0
 15 16  1  0
 16 17  3  0
 18 19  2  0
 21 22  1  1
 21 23  1  0
 21 27  1  0
 23 24  1  0
 24 25  1  0
 25 26  1  0
 26 27  1  0
 27 28  2  0
 29 30  1  6
 29 31  1  0
 29 32  1  0
M  END
