
     RDKit          3D

 32 34  0  0  0  0  0  0  0  0999 V2000
    5.4800   -3.5080    2.0280 C   0  0  0  0  0  0  0  0  0  0  0  0
    5.5910   -2.3940    1.4120 O   0  0  0  0  0  0  0  0  0  0  0  0
    5.8760   -1.2690    0.8130 C   0  0  0  0  0  0  0  0  0  0  0  0
    7.2010   -0.8060    0.7380 C   0  0  0  0  0  0  0  0  0  0  0  0
    7.5200    0.3650    0.1130 C   0  0  0  0  0  0  0  0  0  0  0  0
    6.5450    1.1400   -0.4710 C   0  0  0  0  0  0  0  0  0  0  0  0
    6.8670    2.3640   -1.1220 N   0  0  0  0  0  0  0  0  0  0  0  0
    8.4890    3.0000   -1.2120 S   0  0  0  0  0  0  0  0  0  0  0  0
    5.2320    0.6830   -0.3960 C   0  0  0  0  0  0  0  0  0  0  0  0
    4.8640   -0.4920    0.2240 C   0  0  0  0  0  0  0  0  0  0  0  0
    3.5510   -0.9810    0.3440 N   0  0  0  0  0  0  0  0  0  0  0  0
    2.4500   -0.4480   -0.3400 C   0  0  0  0  0  0  0  0  0  0  0  0
    2.5340    0.5060   -1.1280 O   0  0  0  0  0  0  0  0  0  0  0  0
    1.1210   -1.0000   -0.1650 N   0  0  0  0  0  0  0  0  0  0  0  0
    0.0620   -0.4510   -0.8890 N   0  0  0  0  0  0  0  0  0  0  0  0
   -1.2970   -0.6900   -0.5850 C   0  0  0  0  0  0  0  0  0  0  0  0
   -1.5630   -1.4120    0.3900 O   0  0  0  0  0  0  0  0  0  0  0  0
   -2.4360   -0.1180   -1.3920 C   0  0  0  0  0  0  0  0  0  0  0  0
   -3.7470   -0.5840   -0.8910 C   0  0  2  0  0  0  0  0  0  0  0  0
   -4.8780   -0.0510   -1.6770 C   0  0  0  0  0  0  0  0  0  0  0  0
   -5.1030    1.3980   -1.6990 C   0  0  0  0  0  0  0  0  0  0  0  0
   -4.4560    2.3430   -1.0810 C   0  0  0  0  0  0  0  0  0  0  0  0
   -5.0540    3.6470   -1.4170 C   0  0  0  0  0  0  0  0  0  0  0  0
   -6.1480    3.2980   -2.3150 C   0  0  0  0  0  0  0  0  0  0  0  0
   -6.1840    2.0130   -2.4860 C   0  0  0  0  0  0  0  0  0  0  0  0
   -3.8730   -0.2210    0.4890 O   0  0  0  0  0  0  0  0  0  0  0  0
   -4.1430   -1.0830    1.5010 C   0  0  0  0  0  0  0  0  0  0  0  0
   -4.3410   -2.4590    1.5250 C   0  0  0  0  0  0  0  0  0  0  0  0
   -4.5680   -2.8000    2.7430 O   0  0  0  0  0  0  0  0  0  0  0  0
   -4.5410   -1.7820    3.5590 C   0  0  0  0  0  0  0  0  0  0  0  0
   -4.2770   -0.6600    2.8300 C   0  0  0  0  0  0  0  0  0  0  0  0
   -4.1520    0.6790    3.2600 O   0  0  0  0  0  0  0  0  0  0  0  0
  1  2  1  0
  2  3  1  0
  3  4  2  0
  3 10  1  0
  4  5  1  0
  5  6  2  0
  6  7  1  0
  6  9  1  0
  7  8  1  0
  9 10  2  0
 10 11  1  0
 11 12  1  0
 12 13  2  0
 12 14  1  0
 14 15  1  0
 15 16  1  0
 16 17  2  0
 16 18  1  0
 19 18  1  6
 19 20  1  0
 19 26  1  0
 20 21  1  0
 21 22  2  0
 21 25  1  0
 22 23  1  0
 23 24  1  0
 24 25  2  0
 26 27  1  0
 27 28  2  0
 27 31  1  0
 28 29  1  0
 29 30  1  0
 30 31  2  0
 31 32  1  0
M  END
