
     RDKit          3D

 32 34  0  0  0  0  0  0  0  0999 V2000
   -6.6000    1.5470    0.4100 C   0  0  0  0  0  0  0  0  0  0  0  0
   -5.1820    1.8380    0.3670 C   0  0  0  0  0  0  0  0  0  0  0  0
   -4.7160    2.9570    1.0080 C   0  0  0  0  0  0  0  0  0  0  0  0
   -5.5530    3.7870    1.7160 O   0  0  0  0  0  0  0  0  0  0  0  0
   -3.3620    3.3220    0.9860 C   0  0  0  0  0  0  0  0  0  0  0  0
   -2.4950    2.5200    0.2950 C   0  0  0  0  0  0  0  0  0  0  0  0
   -2.9330    1.3810   -0.3640 C   0  0  0  0  0  0  0  0  0  0  0  0
   -2.0310    0.6110   -1.0410 O   0  0  0  0  0  0  0  0  0  0  0  0
   -0.6440    0.8570   -1.1470 C   0  0  0  0  0  0  0  0  0  0  0  0
   -0.0880   -0.2420   -2.0160 C   0  0  0  0  0  0  0  0  0  0  0  0
    1.2530   -0.2290   -2.2610 O   0  0  0  0  0  0  0  0  0  0  0  0
    2.2910   -0.4080   -1.4200 C   0  0  0  0  0  0  0  0  0  0  0  0
    2.1700   -0.6860   -0.0900 C   0  0  0  0  0  0  0  0  0  0  0  0
    3.2720   -0.8540    0.7140 C   0  0  0  0  0  0  0  0  0  0  0  0
    4.5490   -0.7420    0.1800 C   0  0  0  0  0  0  0  0  0  0  0  0
    5.6360   -0.9180    1.0520 N   0  0  0  0  0  0  0  0  0  0  0  0
    6.9840   -1.0050    0.6290 C   0  0  0  0  0  0  0  0  0  0  0  0
    7.3800   -0.9410   -0.5370 O   0  0  0  0  0  0  0  0  0  0  0  0
    7.9950   -1.1870    1.6880 C   0  0  0  0  0  0  0  0  0  0  0  0
    9.3470   -1.2650    1.4940 C   0  0  0  0  0  0  0  0  0  0  0  0
    9.9160   -1.4380    2.7070 N   0  0  0  0  0  0  0  0  0  0  0  0
    8.9660   -1.4710    3.6540 C   0  0  0  0  0  0  0  0  0  0  0  0
    7.7900   -1.3160    3.0220 N   0  0  0  0  0  0  0  0  0  0  0  0
    4.6940   -0.4660   -1.1400 C   0  0  0  0  0  0  0  0  0  0  0  0
    3.5640   -0.3000   -1.9380 C   0  0  0  0  0  0  0  0  0  0  0  0
   -4.2880    1.0220   -0.3360 C   0  0  0  0  0  0  0  0  0  0  0  0
   -4.7890   -0.1760   -0.9720 C   0  0  1  0  0  0  0  0  0  0  0  0
   -3.8080   -0.8630   -1.9240 C   0  0  0  0  0  0  0  0  0  0  0  0
   -5.2170   -1.1970   -0.0110 N   0  0  0  0  0  0  0  0  0  0  0  0
   -6.7630   -1.8150   -0.2870 S   0  0  1  0  0  0  0  0  0  0  0  0
   -7.0830   -1.7660   -1.7560 O   0  0  0  0  0  0  0  0  0  0  0  0
   -6.8500   -3.2270    0.2390 O   0  0  0  0  0  0  0  0  0  0  0  0
  1  2  1  0
  2  3  2  0
  2 26  1  0
  3  4  1  0
  3  5  1  0
  5  6  2  0
  6  7  1  0
  7  8  1  0
  7 26  2  0
  8  9  1  0
  9 10  1  0
 10 11  1  0
 11 12  1  0
 12 13  2  0
 12 25  1  0
 13 14  1  0
 14 15  2  0
 15 16  1  0
 15 24  1  0
 16 17  1  0
 17 18  2  0
 17 19  1  0
 19 20  2  0
 19 23  1  0
 20 21  1  0
 21 22  1  0
 22 23  2  0
 24 25  2  0
 26 27  1  0
 27 28  1  1
 27 29  1  0
 30 29  1  6
 30 31  2  0
 30 32  2  0
M  END
