
     RDKit          3D

 32 34  0  0  0  0  0  0  0  0999 V2000
    0.7630   -0.5230    2.9180 C   0  0  0  0  0  0  0  0  0  0  0  0
    0.8280   -0.2000    1.5440 O   0  0  0  0  0  0  0  0  0  0  0  0
    2.0570    0.1890    1.0130 C   0  0  0  0  0  0  0  0  0  0  0  0
    3.1710    0.2520    1.8180 C   0  0  0  0  0  0  0  0  0  0  0  0
    4.4090    0.6300    1.3430 C   0  0  0  0  0  0  0  0  0  0  0  0
    4.5180    0.9530    0.0100 C   0  0  0  0  0  0  0  0  0  0  0  0
    3.3880    0.8860   -0.7950 C   0  0  0  0  0  0  0  0  0  0  0  0
    2.1390    0.5120   -0.3490 C   0  0  0  0  0  0  0  0  0  0  0  0
    0.9730    0.4340   -1.1370 N   0  0  0  0  0  0  0  0  0  0  0  0
    0.8110    0.7030   -2.4930 C   0  0  0  0  0  0  0  0  0  0  0  0
    1.8460    1.0790   -3.1440 O   0  0  0  0  0  0  0  0  0  0  0  0
   -0.4680    0.5840   -3.2230 C   0  0  0  0  0  0  0  0  0  0  0  0
   -1.5550    0.1350   -2.3940 N   0  0  0  0  0  0  0  0  0  0  0  0
   -1.5200   -1.1750   -1.8080 C   0  0  0  0  0  0  0  0  0  0  0  0
   -0.5250   -2.0250   -2.2460 N   0  0  0  0  0  0  0  0  0  0  0  0
   -0.4600   -3.3090   -1.8940 C   0  0  0  0  0  0  0  0  0  0  0  0
   -1.4420   -3.7780   -1.0570 C   0  0  0  0  0  0  0  0  0  0  0  0
   -2.4630   -2.9380   -0.5940 C   0  0  0  0  0  0  0  0  0  0  0  0
   -2.5020   -1.5910   -0.9810 C   0  0  0  0  0  0  0  0  0  0  0  0
   -3.4660   -0.6940   -0.3320 C   0  0  0  0  0  0  0  0  0  0  0  0
   -3.1280    0.5560   -0.0200 C   0  0  0  0  0  0  0  0  0  0  0  0
   -4.0950    1.4590    0.6230 C   0  0  2  0  0  0  0  0  0  0  0  0
   -3.4790    2.8850    0.6490 C   0  0  0  0  0  0  0  0  0  0  0  0
   -4.3420    1.0380    2.3620 S   0  0  0  0  0  0  0  0  0  0  0  0
   -4.8390    2.2930    3.0640 O   0  0  0  0  0  0  0  0  0  0  0  0
   -4.8000   -1.1910   -0.0750 C   0  0  0  0  0  0  0  0  0  0  0  0
   -5.1710   -2.5040   -0.4280 N   0  0  0  0  0  0  0  0  0  0  0  0
   -5.6640   -0.4830    0.4640 O   0  0  0  0  0  0  0  0  0  0  0  0
    5.7520    1.3340   -0.4820 O   0  0  0  0  0  0  0  0  0  0  0  0
    6.8800    1.5920    0.3340 C   0  0  0  0  0  0  0  0  0  0  0  0
    6.8440    0.8420    1.6300 C   0  0  0  0  0  0  0  0  0  0  0  0
    5.5340    0.6980    2.1400 O   0  0  0  0  0  0  0  0  0  0  0  0
  1  2  1  0
  2  3  1  0
  3  4  2  0
  3  8  1  0
  4  5  1  0
  5  6  2  0
  5 32  1  0
  6  7  1  0
  6 29  1  0
  7  8  2  0
  8  9  1  0
  9 10  1  0
 10 11  2  0
 10 12  1  0
 12 13  1  0
 13 14  1  0
 14 15  2  0
 14 19  1  0
 15 16  1  0
 16 17  2  0
 17 18  1  0
 18 19  2  0
 19 20  1  0
 20 21  2  3
 20 26  1  0
 21 22  1  0
 22 23  1  1
 22 24  1  0
 24 25  2  0
 26 27  1  0
 26 28  2  0
 29 30  1  0
 30 31  1  0
 31 32  1  0
M  END
