
     RDKit          3D

 32 34  0  0  0  0  0  0  0  0999 V2000
   -3.1840   -1.1540   -2.0410 C   0  0  0  0  0  0  0  0  0  0  0  0
   -4.2510   -0.7490   -1.0840 C   0  0  0  0  0  0  0  0  0  0  0  0
   -4.0280   -0.1770    0.1090 C   0  0  0  0  0  0  0  0  0  0  0  0
   -2.6840    0.0830    0.5110 C   0  0  0  0  0  0  0  0  0  0  0  0
   -2.6170    0.1410    1.8540 O   0  0  0  0  0  0  0  0  0  0  0  0
   -1.4200    0.3100    0.0110 N   0  0  0  0  0  0  0  0  0  0  0  0
   -0.8430    0.5940   -1.2510 C   0  0  0  0  0  0  0  0  0  0  0  0
    0.1900   -0.4500   -1.5760 C   0  0  0  0  0  0  0  0  0  0  0  0
    1.3570   -0.1680   -0.7170 N   0  0  0  0  0  0  0  0  0  0  0  0
    2.2690    0.6210   -1.5410 C   0  0  2  0  0  0  0  0  0  0  0  0
    2.6680   -0.2450   -2.7460 C   0  0  0  0  0  0  0  0  0  0  0  0
    3.4690    1.0360   -0.7870 C   0  0  0  0  0  0  0  0  0  0  0  0
    3.8270    2.3740   -0.6200 C   0  0  0  0  0  0  0  0  0  0  0  0
    4.9500    2.4570    0.0760 N   0  0  0  0  0  0  0  0  0  0  0  0
    5.3190    1.2110    0.3580 C   0  0  0  0  0  0  0  0  0  0  0  0
    4.4120    0.3280   -0.1710 N   0  0  0  0  0  0  0  0  0  0  0  0
    4.5090   -1.0920   -0.0800 C   0  0  0  0  0  0  0  0  0  0  0  0
    3.8650   -1.7450    1.0860 C   0  0  0  0  0  0  0  0  0  0  0  0
    4.3750   -1.2900    2.3630 N   0  0  0  0  0  0  0  0  0  0  0  0
    5.7250   -1.4150    2.7530 C   0  0  0  0  0  0  0  0  0  0  0  0
    6.5530   -1.9380    1.9880 O   0  0  0  0  0  0  0  0  0  0  0  0
    0.9470    0.6060    0.4400 C   0  0  0  0  0  0  0  0  0  0  0  0
   -0.3190    0.2100    1.0630 C   0  0  0  0  0  0  0  0  0  0  0  0
   -5.1530    0.1720    1.0100 C   0  0  0  0  0  0  0  0  0  0  0  0
   -5.1500    1.0290    1.9920 C   0  0  0  0  0  0  0  0  0  0  0  0
   -4.2190    1.9450    2.5920 C   0  0  1  0  0  0  0  0  0  0  0  0
   -5.0750    3.0750    3.1000 F   0  0  0  0  0  0  0  0  0  0  0  0
   -3.6380    1.6070    3.7890 F   0  0  0  0  0  0  0  0  0  0  0  0
   -3.3480    2.6250    1.7780 F   0  0  0  0  0  0  0  0  0  0  0  0
   -6.4890   -0.1750    0.5230 N   0  0  0  0  0  0  0  0  0  0  0  0
   -6.6520   -0.7810   -0.7220 C   0  0  0  0  0  0  0  0  0  0  0  0
   -5.6330   -1.0540   -1.4870 C   0  0  0  0  0  0  0  0  0  0  0  0
  1  2  1  0
  2  3  2  0
  2 32  1  0
  3  4  1  0
  3 24  1  0
  4  5  2  0
  4  6  1  0
  6  7  1  0
  6 23  1  0
  7  8  1  0
  8  9  1  0
  9 10  1  0
  9 22  1  0
 10 11  1  6
 10 12  1  0
 12 13  2  0
 12 16  1  0
 13 14  1  0
 14 15  2  0
 15 16  1  0
 16 17  1  0
 17 18  1  0
 18 19  1  0
 19 20  1  0
 20 21  2  0
 22 23  1  0
 24 25  2  3
 24 30  1  0
 25 26  1  0
 26 27  1  1
 26 28  1  0
 26 29  1  0
 30 31  1  0
 31 32  2  0
M  END
