
     RDKit          3D

 32 34  0  0  0  0  0  0  0  0999 V2000
    4.5950   -2.1610    0.0350 C   0  0  0  0  0  0  0  0  0  0  0  0
    5.3050   -1.0850    0.2960 C   0  0  0  0  0  0  0  0  0  0  0  0
    4.6540    0.1470    0.6810 C   0  0  0  0  0  0  0  0  0  0  0  0
    5.3910    1.2030    0.9490 C   0  0  0  0  0  0  0  0  0  0  0  0
    4.7550    2.4710    1.3440 C   0  0  0  0  0  0  0  0  0  0  0  0
    3.2540    0.2570    0.7870 N   0  0  0  0  0  0  0  0  0  0  0  0
    2.3370    0.1370   -0.2910 C   0  0  0  0  0  0  0  0  0  0  0  0
    2.7950   -0.0790   -1.4400 O   0  0  0  0  0  0  0  0  0  0  0  0
    0.8690    0.2590   -0.0850 C   0  0  0  0  0  0  0  0  0  0  0  0
    0.1920    0.0860   -1.3920 C   0  0  0  0  0  0  0  0  0  0  0  0
   -1.2520    0.1680   -1.3820 N   0  0  0  0  0  0  0  0  0  0  0  0
   -1.8450    1.4460   -1.6480 C   0  0  0  0  0  0  0  0  0  0  0  0
   -2.2160    2.2510   -0.4730 C   0  0  0  0  0  0  0  0  0  0  0  0
   -2.0960    1.8970    0.7800 C   0  0  0  0  0  0  0  0  0  0  0  0
   -2.4560    2.6830    1.9710 C   0  0  2  0  0  0  0  0  0  0  0  0
   -1.3410    2.8920    2.7880 F   0  0  0  0  0  0  0  0  0  0  0  0
   -3.3860    1.9710    2.7560 F   0  0  0  0  0  0  0  0  0  0  0  0
   -3.0330    4.0130    1.6520 C   0  0  0  0  0  0  0  0  0  0  0  0
   -3.1380    4.3470    0.2320 C   0  0  0  0  0  0  0  0  0  0  0  0
   -2.7800    3.5780   -0.7510 C   0  0  0  0  0  0  0  0  0  0  0  0
   -2.9220    3.9890   -2.0700 F   0  0  0  0  0  0  0  0  0  0  0  0
   -2.0590   -0.9550   -1.1760 C   0  0  0  0  0  0  0  0  0  0  0  0
   -3.3280   -0.7940   -1.1860 O   0  0  0  0  0  0  0  0  0  0  0  0
   -1.5720   -2.3090   -0.9500 C   0  0  0  0  0  0  0  0  0  0  0  0
   -0.3050   -2.7730   -0.8860 N   0  0  0  0  0  0  0  0  0  0  0  0
   -0.2600   -4.0560   -0.6670 N   0  0  0  0  0  0  0  0  0  0  0  0
   -1.5120   -4.5250   -0.5710 C   0  0  0  0  0  0  0  0  0  0  0  0
   -2.0430   -5.7360   -0.3560 N   0  0  0  0  0  0  0  0  0  0  0  0
   -3.3620   -5.9500   -0.3030 C   0  0  0  0  0  0  0  0  0  0  0  0
   -4.1930   -4.9140   -0.4700 N   0  0  0  0  0  0  0  0  0  0  0  0
   -3.6940   -3.6630   -0.6900 C   0  0  0  0  0  0  0  0  0  0  0  0
   -2.3380   -3.4350   -0.7470 C   0  0  0  0  0  0  0  0  0  0  0  0
  1  2  2  0
  2  3  1  0
  3  4  2  3
  3  6  1  0
  4  5  1  0
  6  7  1  0
  7  8  2  0
  7  9  1  0
  9 10  1  0
 10 11  1  0
 11 12  1  0
 11 22  1  0
 12 13  1  0
 13 14  2  0
 13 20  1  0
 14 15  1  0
 15 16  1  1
 15 17  1  0
 15 18  1  0
 18 19  1  0
 19 20  2  0
 20 21  1  0
 22 23  2  0
 22 24  1  0
 24 25  2  0
 24 32  1  0
 25 26  1  0
 26 27  1  0
 27 28  2  0
 27 32  1  0
 28 29  1  0
 29 30  2  0
 30 31  1  0
 31 32  2  0
M  END
