
     RDKit          3D

 32 34  0  0  0  0  0  0  0  0999 V2000
   -4.6910    0.0870   -2.2340 C   0  0  0  0  0  0  0  0  0  0  0  0
   -3.6180   -0.9100   -2.5940 C   0  0  0  0  0  0  0  0  0  0  0  0
   -3.0860   -1.5510   -1.4230 O   0  0  0  0  0  0  0  0  0  0  0  0
   -2.4870   -0.7630   -0.4470 C   0  0  0  0  0  0  0  0  0  0  0  0
   -1.3150   -0.1500   -0.5520 C   0  0  0  0  0  0  0  0  0  0  0  0
   -1.0090    0.5850    0.6660 C   0  0  0  0  0  0  0  0  0  0  0  0
    0.1790    1.3660    0.9090 N   0  0  0  0  0  0  0  0  0  0  0  0
    0.4420    2.4640    0.0450 C   0  0  0  0  0  0  0  0  0  0  0  0
   -0.3770    2.7050   -0.8910 O   0  0  0  0  0  0  0  0  0  0  0  0
    1.5560    3.3010    0.1640 N   0  0  0  0  0  0  0  0  0  0  0  0
    2.7430    2.8560   -0.0320 C   0  0  0  0  0  0  0  0  0  0  0  0
    3.9800    3.5280    0.0390 N   0  0  0  0  0  0  0  0  0  0  0  0
    5.1230    2.7380   -0.0930 C   0  0  0  0  0  0  0  0  0  0  0  0
    6.2870    3.2890   -0.0390 O   0  0  0  0  0  0  0  0  0  0  0  0
    4.9260    1.3420   -0.2840 C   0  0  0  0  0  0  0  0  0  0  0  0
    5.7350    0.3340   -0.3330 C   0  0  0  0  0  0  0  0  0  0  0  0
    7.1600    0.4520   -0.1860 C   0  0  0  0  0  0  0  0  0  0  0  0
    8.0350   -0.5070   -0.2260 C   0  0  0  0  0  0  0  0  0  0  0  0
    7.7790   -1.8910   -0.4240 C   0  0  0  0  0  0  0  0  0  0  0  0
    8.8790   -2.8420   -0.4440 N   0  0  0  0  0  0  0  0  0  0  0  0
    6.6280   -2.3460   -0.5880 O   0  0  0  0  0  0  0  0  0  0  0  0
    3.1300    1.1740   -0.4730 S   0  0  0  0  0  0  0  0  0  0  0  0
   -2.0200    0.3960    1.4950 C   0  0  0  0  0  0  0  0  0  0  0  0
   -3.0350   -0.4700    0.8610 C   0  0  0  0  0  0  0  0  0  0  0  0
   -4.1510   -0.8370    1.4400 C   0  0  0  0  0  0  0  0  0  0  0  0
   -4.4580   -0.4180    2.7220 O   0  0  0  0  0  0  0  0  0  0  0  0
   -4.9790    0.8610    3.0220 C   0  0  0  0  0  0  0  0  0  0  0  0
   -5.1260   -1.7040    0.7710 C   0  0  0  0  0  0  0  0  0  0  0  0
   -6.5020   -1.5620    0.8610 C   0  0  0  0  0  0  0  0  0  0  0  0
   -7.0340   -2.5390    0.1150 N   0  0  0  0  0  0  0  0  0  0  0  0
   -6.0440   -3.2650   -0.4220 C   0  0  0  0  0  0  0  0  0  0  0  0
   -4.9250   -2.7330   -0.0050 O   0  0  0  0  0  0  0  0  0  0  0  0
  1  2  1  0
  2  3  1  0
  3  4  1  0
  4  5  2  0
  4 24  1  0
  5  6  1  0
  6  7  1  0
  6 23  2  0
  7  8  1  0
  8  9  2  0
  8 10  1  0
 10 11  2  3
 11 12  1  0
 11 22  1  0
 12 13  1  0
 13 14  2  0
 13 15  1  0
 15 16  2  3
 15 22  1  0
 16 17  1  0
 17 18  2  3
 18 19  1  0
 19 20  1  0
 19 21  2  0
 23 24  1  0
 24 25  2  3
 25 26  1  0
 25 28  1  0
 26 27  1  0
 28 29  2  0
 28 32  1  0
 29 30  1  0
 30 31  2  0
 31 32  1  0
M  END
