
     RDKit          3D

 32 34  0  0  0  0  0  0  0  0999 V2000
   -7.6600    0.9360   -2.2630 C   0  0  0  0  0  0  0  0  0  0  0  0
   -7.3580   -0.2730   -1.8490 C   0  0  0  0  0  0  0  0  0  0  0  0
   -6.9470   -0.4380   -0.4450 C   0  0  0  0  0  0  0  0  0  0  0  0
   -6.8900    0.6950    0.3990 N   0  0  0  0  0  0  0  0  0  0  0  0
   -5.6530    1.4450    0.4330 C   0  0  0  0  0  0  0  0  0  0  0  0
   -4.5450    0.7190    1.1030 C   0  0  0  0  0  0  0  0  0  0  0  0
   -3.6350    0.1980    0.4030 N   0  0  0  0  0  0  0  0  0  0  0  0
   -2.5710   -0.4940    0.9540 N   0  0  0  0  0  0  0  0  0  0  0  0
   -1.5680   -1.0760    0.1420 C   0  0  0  0  0  0  0  0  0  0  0  0
   -0.2620   -0.3770    0.3280 C   0  0  0  0  0  0  0  0  0  0  0  0
   -0.2020    0.5910    1.1280 O   0  0  0  0  0  0  0  0  0  0  0  0
    0.8850   -0.7840   -0.3740 N   0  0  0  0  0  0  0  0  0  0  0  0
    2.1470   -0.1230   -0.2120 C   0  0  0  0  0  0  0  0  0  0  0  0
    3.2220   -0.7790   -1.0890 C   0  0  0  0  0  0  0  0  0  0  0  0
    4.5180   -0.1040   -0.9300 C   0  0  0  0  0  0  0  0  0  0  0  0
    4.7250    0.9570   -0.1250 N   0  0  0  0  0  0  0  0  0  0  0  0
    5.9850    1.3040   -0.2170 O   0  0  0  0  0  0  0  0  0  0  0  0
    6.5980    0.5060   -1.0520 C   0  0  0  0  0  0  0  0  0  0  0  0
    8.0410    0.6170   -1.3910 C   0  0  0  0  0  0  0  0  0  0  0  0
    8.7130   -0.1590   -2.2130 C   0  0  0  0  0  0  0  0  0  0  0  0
   10.1160    0.2830   -2.2760 C   0  0  0  0  0  0  0  0  0  0  0  0
   10.1770    1.4480   -1.3640 C   0  0  0  0  0  0  0  0  0  0  0  0
   11.3030    2.1610   -1.1280 F   0  0  0  0  0  0  0  0  0  0  0  0
    8.9670    1.6100   -0.8740 C   0  0  0  0  0  0  0  0  0  0  0  0
    5.7060   -0.3710   -1.5030 N   0  0  0  0  0  0  0  0  0  0  0  0
   -2.5020   -0.6220    2.3620 C   0  0  0  0  0  0  0  0  0  0  0  0
   -1.3870   -1.3430    2.9640 C   0  0  0  0  0  0  0  0  0  0  0  0
   -3.4310   -0.0960    3.1600 C   0  0  0  0  0  0  0  0  0  0  0  0
   -4.5710    0.6440    2.5650 C   0  0  0  0  0  0  0  0  0  0  0  0
   -6.6340   -1.6220    0.0280 C   0  0  0  0  0  0  0  0  0  0  0  0
   -6.7030   -2.6870   -0.8230 F   0  0  0  0  0  0  0  0  0  0  0  0
   -6.2610   -1.7630    1.3110 F   0  0  0  0  0  0  0  0  0  0  0  0
  1  2  2  0
  2  3  1  0
  3  4  1  0
  3 30  2  3
  4  5  1  0
  5  6  1  0
  6  7  2  0
  6 29  1  0
  7  8  1  0
  8  9  1  0
  8 26  1  0
  9 10  1  0
 10 11  2  0
 10 12  1  0
 12 13  1  0
 13 14  1  0
 14 15  1  0
 15 16  2  0
 15 25  1  0
 16 17  1  0
 17 18  1  0
 18 19  1  0
 18 25  2  0
 19 20  2  0
 19 24  1  0
 20 21  1  0
 21 22  1  0
 22 23  1  0
 22 24  2  0
 26 27  1  0
 26 28  2  0
 28 29  1  0
 30 31  1  0
 30 32  1  0
M  END
