
     RDKit          3D

 19 20  0  0  0  0  0  0  0  0999 V2000
   -2.2150    0.5560    1.6680 C   0  0  0  0  0  0  0  0  0  0  0  0
   -2.1840    0.5650    0.1590 C   0  0  2  0  0  0  0  0  0  0  0  0
   -0.9200    1.0230   -0.3720 N   0  0  0  0  0  0  0  0  0  0  0  0
    0.2800    0.2880   -0.0350 C   0  0  0  0  0  0  0  0  0  0  0  0
    0.2330   -0.7180    0.6950 O   0  0  0  0  0  0  0  0  0  0  0  0
    1.5100    0.7360   -0.5550 N   0  0  0  0  0  0  0  0  0  0  0  0
    2.7580    0.1250   -0.3140 C   0  0  0  0  0  0  0  0  0  0  0  0
    3.0050   -0.9760    0.4380 C   0  0  0  0  0  0  0  0  0  0  0  0
    4.3010   -1.4820    0.5950 C   0  0  0  0  0  0  0  0  0  0  0  0
    5.3610   -0.9060    0.0110 N   0  0  0  0  0  0  0  0  0  0  0  0
    5.1590    0.1870   -0.7430 C   0  0  0  0  0  0  0  0  0  0  0  0
    6.1670    0.7130   -1.2830 O   0  0  0  0  0  0  0  0  0  0  0  0
    3.8900    0.7000   -0.9090 C   0  0  0  0  0  0  0  0  0  0  0  0
   -3.2710    1.4390   -0.3270 C   0  0  0  0  0  0  0  0  0  0  0  0
   -3.2560    2.6950   -0.2520 O   0  0  0  0  0  0  0  0  0  0  0  0
   -4.3230    0.6710   -0.8830 N   0  0  0  0  0  0  0  0  0  0  0  0
   -3.9940   -0.7190   -0.7710 C   0  0  0  0  0  0  0  0  0  0  0  0
   -2.5530   -0.8000   -0.3520 C   0  0  1  0  0  0  0  0  0  0  0  0
   -1.7590   -1.1520   -1.4590 O   0  0  0  0  0  0  0  0  0  0  0  0
  2  1  1  1
  2  3  1  0
  2 14  1  0
  2 18  1  0
  3  4  1  0
  4  5  2  0
  4  6  1  0
  6  7  1  0
  7  8  1  0
  7 13  2  0
  8  9  2  0
  9 10  1  0
 10 11  1  0
 11 12  2  0
 11 13  1  0
 14 15  2  0
 14 16  1  0
 16 17  1  0
 17 18  1  0
 18 19  1  6
M  END
