
     RDKit          3D

 20 21  0  0  0  0  0  0  0  0999 V2000
   -0.4090   -0.0900    3.7850 N   0  0  0  0  0  0  0  0  0  0  0  0
   -0.4010    0.5620    2.5240 C   0  0  0  0  0  0  0  0  0  0  0  0
   -1.4400    1.1600    2.1120 O   0  0  0  0  0  0  0  0  0  0  0  0
    0.8050    0.5130    1.7590 N   0  0  0  0  0  0  0  0  0  0  0  0
    0.8340    1.1620    0.4910 C   0  0  0  0  0  0  0  0  0  0  0  0
    0.3510    0.5540   -0.6500 C   0  0  0  0  0  0  0  0  0  0  0  0
   -0.1050   -0.8270   -0.7220 C   0  0  0  0  0  0  0  0  0  0  0  0
    0.5230   -1.7640   -0.0060 C   0  0  0  0  0  0  0  0  0  0  0  0
    0.1030   -3.1670   -0.0360 C   0  0  0  0  0  0  0  0  0  0  0  0
   -0.9290   -3.4640   -0.8000 C   0  0  0  0  0  0  0  0  0  0  0  0
   -1.6090   -2.5320   -1.5470 O   0  0  0  0  0  0  0  0  0  0  0  0
   -1.2400   -1.1690   -1.5480 C   0  0  0  0  0  0  0  0  0  0  0  0
   -1.9700   -0.3670   -2.2770 C   0  0  0  0  0  0  0  0  0  0  0  0
   -3.0090   -0.9210   -2.9960 F   0  0  0  0  0  0  0  0  0  0  0  0
    0.4200    1.2640   -1.8040 N   0  0  0  0  0  0  0  0  0  0  0  0
    0.9340    2.5070   -1.8260 C   0  0  0  0  0  0  0  0  0  0  0  0
    0.9570    3.0940   -2.9380 O   0  0  0  0  0  0  0  0  0  0  0  0
    1.3970    3.0830   -0.7130 N   0  0  0  0  0  0  0  0  0  0  0  0
    1.3590    2.4370    0.4450 C   0  0  0  0  0  0  0  0  0  0  0  0
    1.8050    2.9830    1.5270 O   0  0  0  0  0  0  0  0  0  0  0  0
  1  2  1  0
  2  3  2  0
  2  4  1  0
  4  5  1  0
  5  6  2  0
  5 19  1  0
  6  7  1  0
  6 15  1  0
  7  8  2  0
  7 12  1  0
  8  9  1  0
  9 10  2  0
 10 11  1  0
 11 12  1  0
 12 13  2  3
 13 14  1  0
 15 16  1  0
 16 17  2  0
 16 18  1  0
 18 19  1  0
 19 20  2  0
M  END
