
     RDKit          3D

 20 21  0  0  0  0  0  0  0  0999 V2000
   -4.9360   -0.1250    0.3240 C   0  0  0  0  0  0  0  0  0  0  0  0
   -3.6400   -0.1310    0.1890 C   0  0  0  0  0  0  0  0  0  0  0  0
   -2.7790   -0.8610    1.1370 C   0  0  0  0  0  0  0  0  0  0  0  0
   -3.2510   -1.4980    2.0960 O   0  0  0  0  0  0  0  0  0  0  0  0
   -1.3390   -0.8300    0.9340 N   0  0  0  0  0  0  0  0  0  0  0  0
   -0.5450   -1.8680    1.3870 N   0  0  0  0  0  0  0  0  0  0  0  0
    0.8640   -1.8680    1.1100 C   0  0  0  0  0  0  0  0  0  0  0  0
    1.6260   -2.7900    1.4930 O   0  0  0  0  0  0  0  0  0  0  0  0
    1.3880   -0.7440    0.3590 C   0  0  0  0  0  0  0  0  0  0  0  0
    2.7240   -0.6820    0.0470 O   0  0  0  0  0  0  0  0  0  0  0  0
    3.5380    0.4420    0.1120 C   0  0  0  0  0  0  0  0  0  0  0  0
    4.9090    0.0650   -0.3120 C   0  0  0  0  0  0  0  0  0  0  0  0
    5.9830    1.0040   -0.3540 N   0  0  0  0  0  0  0  0  0  0  0  0
    5.1760   -1.1160   -0.6540 O   0  0  0  0  0  0  0  0  0  0  0  0
    0.6050    0.2280   -0.0360 C   0  0  0  0  0  0  0  0  0  0  0  0
   -0.8280    0.2900    0.2340 C   0  0  1  0  0  0  0  0  0  0  0  0
   -1.5750    0.5360   -0.9880 N   0  0  0  0  0  0  0  0  0  0  0  0
   -3.0060    0.6000   -0.9240 C   0  0  0  0  0  0  0  0  0  0  0  0
   -3.6860    1.2810   -1.8220 C   0  0  0  0  0  0  0  0  0  0  0  0
   -3.0200    1.9160   -2.8020 F   0  0  0  0  0  0  0  0  0  0  0  0
  1  2  2  0
  2  3  1  0
  2 18  1  0
  3  4  2  0
  3  5  1  0
  5  6  1  0
  5 16  1  0
  6  7  1  0
  7  8  2  0
  7  9  1  0
  9 10  1  0
  9 15  2  0
 10 11  1  0
 11 12  1  0
 12 13  1  0
 12 14  2  0
 15 16  1  0
 16 17  1  6
 17 18  1  0
 18 19  2  3
 19 20  1  0
M  END
