
     RDKit          3D

 19 20  0  0  0  0  0  0  0  0999 V2000
    5.8360   -0.4520   -0.9040 N   0  0  0  0  0  0  0  0  0  0  0  0
    5.1220    0.6730   -0.3290 C   0  0  0  0  0  0  0  0  0  0  0  0
    3.7730    0.3790   -0.1420 O   0  0  0  0  0  0  0  0  0  0  0  0
    3.1810    1.5020    0.4050 C   0  0  0  0  0  0  0  0  0  0  0  0
    1.7190    1.2950    0.6500 C   0  0  0  0  0  0  0  0  0  0  0  0
    1.0570    2.2300    1.1430 O   0  0  0  0  0  0  0  0  0  0  0  0
    1.0540    0.0840    0.3460 N   0  0  0  0  0  0  0  0  0  0  0  0
   -0.3560   -0.1120    0.5830 C   0  0  2  0  0  0  0  0  0  0  0  0
   -0.6450   -1.2330    1.5270 C   0  0  0  0  0  0  0  0  0  0  0  0
   -2.1080   -1.4920    1.5930 C   0  0  0  0  0  0  0  0  0  0  0  0
   -2.9580   -0.4900    0.8680 C   0  0  0  0  0  0  0  0  0  0  0  0
   -2.5620   -0.3050   -0.5680 C   0  0  2  0  0  0  0  0  0  0  0  0
   -1.0660   -0.2980   -0.7540 C   0  0  0  0  0  0  0  0  0  0  0  0
   -3.0400    1.0200   -0.9870 N   0  0  0  0  0  0  0  0  0  0  0  0
   -4.0180    0.8780   -2.0080 C   0  0  0  0  0  0  0  0  0  0  0  0
   -4.6710    1.8070   -2.5790 O   0  0  0  0  0  0  0  0  0  0  0  0
   -4.1460   -0.5320   -2.2920 N   0  0  0  0  0  0  0  0  0  0  0  0
   -3.2580   -1.2540   -1.4560 C   0  0  0  0  0  0  0  0  0  0  0  0
   -3.1010   -2.4900   -1.4790 O   0  0  0  0  0  0  0  0  0  0  0  0
  1  2  1  0
  2  3  1  0
  3  4  1  0
  4  5  1  0
  5  6  2  0
  5  7  1  0
  8  7  1  6
  8  9  1  0
  8 13  1  0
  9 10  1  0
 10 11  1  0
 12 11  1  1
 12 13  1  0
 12 14  1  0
 12 18  1  0
 14 15  1  0
 15 16  2  0
 15 17  1  0
 17 18  1  0
 18 19  2  0
M  END
