
     RDKit          3D

 20 21  0  0  0  0  0  0  0  0999 V2000
    4.6310   -0.3520   -0.0890 N   0  0  0  0  0  0  0  0  0  0  0  0
    3.6290    0.1530   -0.9650 C   0  0  0  0  0  0  0  0  0  0  0  0
    3.9810    0.6990   -2.0170 O   0  0  0  0  0  0  0  0  0  0  0  0
    2.1750    0.0320   -0.6320 C   0  0  0  0  0  0  0  0  0  0  0  0
    1.9360   -0.5900    0.5350 C   0  0  0  0  0  0  0  0  0  0  0  0
    0.5360   -0.7990    1.0090 C   0  0  0  0  0  0  0  0  0  0  0  0
    0.3370   -0.2820    2.2520 F   0  0  0  0  0  0  0  0  0  0  0  0
   -0.3120   -1.5250    0.3370 C   0  0  0  0  0  0  0  0  0  0  0  0
   -1.1120   -2.4450   -0.6590 C   0  0  0  0  0  0  0  0  0  0  0  0
   -1.6800   -1.2260   -0.1350 C   0  0  1  0  0  0  0  0  0  0  0  0
   -2.7330   -1.2300    0.8380 N   0  0  0  0  0  0  0  0  0  0  0  0
   -3.1710    0.0770    1.3250 C   0  0  0  0  0  0  0  0  0  0  0  0
   -3.8170    0.1710    2.3610 O   0  0  0  0  0  0  0  0  0  0  0  0
   -2.8080    1.2650    0.5310 C   0  0  0  0  0  0  0  0  0  0  0  0
   -1.4570    1.7020    0.7150 N   0  0  0  0  0  0  0  0  0  0  0  0
   -0.4740    2.0960   -0.1900 C   0  0  0  0  0  0  0  0  0  0  0  0
   -0.0370    3.3280    0.0840 O   0  0  0  0  0  0  0  0  0  0  0  0
    0.1810    1.5380   -1.3250 C   0  0  0  0  0  0  0  0  0  0  0  0
   -0.2760    2.0970   -2.4590 O   0  0  0  0  0  0  0  0  0  0  0  0
    1.1800    0.5540   -1.4930 N   0  0  0  0  0  0  0  0  0  0  0  0
  1  2  1  0
  2  3  2  0
  2  4  1  0
  4  5  2  0
  4 20  1  0
  5  6  1  0
  6  7  1  0
  6  8  2  0
  8  9  1  0
  8 10  1  0
 10  9  1  6
 10 11  1  0
 11 12  1  0
 12 13  2  0
 12 14  1  0
 14 15  1  0
 15 16  1  0
 16 17  2  0
 16 18  1  0
 18 19  2  0
 18 20  1  0
M  END
