
     RDKit          3D

 20 21  0  0  0  0  0  0  0  0999 V2000
   -2.7770   -1.2260   -2.4580 C   0  0  0  0  0  0  0  0  0  0  0  0
   -2.9820    0.0060   -2.0570 C   0  0  0  0  0  0  0  0  0  0  0  0
   -3.7930    0.8360   -2.8380 O   0  0  0  0  0  0  0  0  0  0  0  0
   -2.3660    0.5050   -0.8040 C   0  0  0  0  0  0  0  0  0  0  0  0
   -2.6300    1.7370   -0.4960 C   0  0  0  0  0  0  0  0  0  0  0  0
   -2.1460    2.3220    0.6030 F   0  0  0  0  0  0  0  0  0  0  0  0
   -1.5460   -0.4700   -0.0730 C   0  0  2  0  0  0  0  0  0  0  0  0
   -2.4010   -1.4850    0.3470 O   0  0  0  0  0  0  0  0  0  0  0  0
   -1.9760   -2.0060    1.5310 C   0  0  0  0  0  0  0  0  0  0  0  0
   -0.6430   -1.3720    1.8610 C   0  0  0  0  0  0  0  0  0  0  0  0
   -0.8520   -0.0140    1.1440 C   0  0  1  0  0  0  0  0  0  0  0  0
    0.4650    0.6150    0.8960 C   0  0  0  0  0  0  0  0  0  0  0  0
    0.6780    1.7600    1.3480 O   0  0  0  0  0  0  0  0  0  0  0  0
    1.5010   -0.0190    0.1710 N   0  0  0  0  0  0  0  0  0  0  0  0
    2.7480    0.6800   -0.0130 C   0  0  1  0  0  0  0  0  0  0  0  0
    3.8960   -0.1050    0.4170 N   0  0  0  0  0  0  0  0  0  0  0  0
    4.9600    0.5580   -0.2120 N   0  0  0  0  0  0  0  0  0  0  0  0
    4.4870    1.0040   -1.4580 C   0  0  0  0  0  0  0  0  0  0  0  0
    5.1840    1.4270   -2.4210 O   0  0  0  0  0  0  0  0  0  0  0  0
    3.0570    0.8850   -1.4230 N   0  0  0  0  0  0  0  0  0  0  0  0
  1  2  2  0
  2  3  1  0
  2  4  1  0
  4  5  2  3
  7  4  1  1
  5  6  1  0
  7  8  1  0
  7 11  1  0
  8  9  1  0
  9 10  1  0
 10 11  1  0
 11 12  1  6
 12 13  2  0
 12 14  1  0
 15 14  1  6
 15 16  1  0
 15 20  1  0
 16 17  1  0
 17 18  1  0
 18 19  2  0
 18 20  1  0
M  END
