
     RDKit          3D

 20 21  0  0  0  0  0  0  0  0999 V2000
   -3.8820    1.2320    1.2800 N   0  0  0  0  0  0  0  0  0  0  0  0
   -4.3390    0.2080    0.4430 C   0  0  0  0  0  0  0  0  0  0  0  0
   -5.8060    0.0870    0.4330 N   0  0  0  0  0  0  0  0  0  0  0  0
   -3.6910   -0.6160   -0.2930 C   0  0  0  0  0  0  0  0  0  0  0  0
   -2.3120   -0.7910   -0.5280 N   0  0  0  0  0  0  0  0  0  0  0  0
   -1.2620   -0.0630    0.0220 C   0  0  0  0  0  0  0  0  0  0  0  0
   -1.4580    0.8690    0.8210 O   0  0  0  0  0  0  0  0  0  0  0  0
    0.1230   -0.3910   -0.3430 N   0  0  0  0  0  0  0  0  0  0  0  0
    1.1410    0.4170    0.2760 C   0  0  0  0  0  0  0  0  0  0  0  0
    2.5130    0.1000   -0.0780 C   0  0  0  0  0  0  0  0  0  0  0  0
    2.8860   -0.8370   -0.8930 C   0  0  0  0  0  0  0  0  0  0  0  0
    4.3060   -1.1590   -1.2550 C   0  0  0  0  0  0  0  0  0  0  0  0
    5.2450   -0.3390   -0.6200 O   0  0  0  0  0  0  0  0  0  0  0  0
    4.8680    0.6570    0.2450 C   0  0  0  0  0  0  0  0  0  0  0  0
    3.6060    0.9020    0.5300 C   0  0  0  0  0  0  0  0  0  0  0  0
    3.9480    1.9390    1.3860 O   0  0  0  0  0  0  0  0  0  0  0  0
    5.3140    1.7470    1.1380 C   0  0  0  0  0  0  0  0  0  0  0  0
   -4.5200   -1.6140   -1.0840 C   0  0  0  0  0  0  0  0  0  0  0  0
   -5.7490   -1.5440   -0.9480 O   0  0  0  0  0  0  0  0  0  0  0  0
   -3.9690   -2.5150   -1.8810 F   0  0  0  0  0  0  0  0  0  0  0  0
  1  2  1  0
  2  3  1  0
  2  4  2  3
  4  5  1  0
  4 18  1  0
  5  6  1  0
  6  7  2  0
  6  8  1  0
  8  9  1  0
  9 10  1  0
 10 11  2  0
 10 15  1  0
 11 12  1  0
 12 13  1  0
 13 14  1  0
 14 15  2  0
 14 17  1  0
 15 16  1  0
 16 17  1  0
 18 19  2  0
 18 20  1  0
M  END
