
     RDKit          3D

 29 32  0  0  0  0  0  0  0  0999 V2000
    5.1680   -3.5800    1.0260 C   0  0  0  0  0  0  0  0  0  0  0  0
    4.3000   -2.4150    0.6710 C   0  0  0  0  0  0  0  0  0  0  0  0
    4.5350   -1.0990    0.9910 C   0  0  0  0  0  0  0  0  0  0  0  0
    3.4880   -0.3430    0.4730 C   0  0  0  0  0  0  0  0  0  0  0  0
    2.6500   -1.1970   -0.1410 N   0  0  0  0  0  0  0  0  0  0  0  0
    3.1550   -2.4220   -0.0100 N   0  0  0  0  0  0  0  0  0  0  0  0
    1.5050   -0.7600   -0.7590 C   0  0  0  0  0  0  0  0  0  0  0  0
    0.7380   -1.7870   -1.4560 C   0  0  0  0  0  0  0  0  0  0  0  0
    1.2530    0.5890   -0.7170 C   0  0  0  0  0  0  0  0  0  0  0  0
    0.1020    1.1950   -1.3190 C   0  0  1  0  0  0  0  0  0  0  0  0
   -0.9970    0.4510   -1.7970 N   0  0  0  0  0  0  0  0  0  0  0  0
   -1.9850   -0.2910   -1.1600 C   0  0  0  0  0  0  0  0  0  0  0  0
   -3.0740   -0.7550   -1.8910 C   0  0  0  0  0  0  0  0  0  0  0  0
   -4.0970   -1.4960   -1.3380 C   0  0  0  0  0  0  0  0  0  0  0  0
   -4.0690   -1.8090    0.0040 C   0  0  0  0  0  0  0  0  0  0  0  0
   -5.1350   -2.5850    0.6000 N   0  0  0  0  0  0  0  0  0  0  0  0
   -3.0110   -1.3680    0.7510 C   0  0  0  0  0  0  0  0  0  0  0  0
   -1.9800   -0.6160    0.1670 C   0  0  0  0  0  0  0  0  0  0  0  0
   -0.5360    2.2160   -0.3610 C   0  0  0  0  0  0  0  0  0  0  0  0
   -0.3470    2.2580    0.9100 C   0  0  0  0  0  0  0  0  0  0  0  0
   -0.9460    3.2360    1.8410 C   0  0  0  0  0  0  0  0  0  0  0  0
   -1.9600    2.4310    3.0650 Cl  0  0  0  0  0  0  0  0  0  0  0  0
   -1.5170    3.1230   -1.0500 C   0  0  0  0  0  0  0  0  0  0  0  0
   -2.5080    2.3940   -1.7110 O   0  0  0  0  0  0  0  0  0  0  0  0
    2.1440    1.4690   -0.0720 C   0  0  0  0  0  0  0  0  0  0  0  0
    2.1890    2.8220    0.1080 N   0  0  0  0  0  0  0  0  0  0  0  0
    3.2970    3.1550    0.7900 C   0  0  0  0  0  0  0  0  0  0  0  0
    3.9260    1.9900    1.0230 N   0  0  0  0  0  0  0  0  0  0  0  0
    3.2360    0.9770    0.5050 N   0  0  0  0  0  0  0  0  0  0  0  0
  1  2  1  0
  2  3  1  0
  2  6  2  0
  3  4  2  0
  4  5  1  0
  4 29  1  0
  5  6  1  0
  5  7  1  0
  7  8  1  0
  7  9  2  0
  9 10  1  0
  9 25  1  0
 10 11  1  1
 10 19  1  0
 11 12  1  0
 12 13  2  0
 12 18  1  0
 13 14  1  0
 14 15  2  0
 15 16  1  0
 15 17  1  0
 17 18  2  0
 19 20  2  3
 19 23  1  0
 20 21  1  0
 21 22  1  0
 23 24  1  0
 25 26  2  0
 25 29  1  0
 26 27  1  0
 27 28  2  0
 28 29  1  0
M  CHG  1  16   1
M  END
