
     RDKit          3D

 29 32  0  0  0  0  0  0  0  0999 V2000
   -2.3160    0.7420   -2.2840 C   0  0  0  0  0  0  0  0  0  0  0  0
   -1.8520    0.1040   -1.0340 C   0  0  0  0  0  0  0  0  0  0  0  0
   -2.3130   -1.0990   -0.6260 C   0  0  0  0  0  0  0  0  0  0  0  0
   -3.5260   -1.7840   -1.7230 Cl  0  0  0  0  0  0  0  0  0  0  0  0
   -1.7180   -1.8690    0.4290 C   0  0  0  0  0  0  0  0  0  0  0  0
   -2.2030   -3.1600    0.9010 C   0  0  0  0  0  0  0  0  0  0  0  0
   -1.4100   -3.8880    1.7920 C   0  0  0  0  0  0  0  0  0  0  0  0
   -1.8580   -5.0790    2.2820 C   0  0  0  0  0  0  0  0  0  0  0  0
   -3.0600   -5.5580    1.9130 N   0  0  0  0  0  0  0  0  0  0  0  0
   -3.8270   -4.9060    1.0850 N   0  0  0  0  0  0  0  0  0  0  0  0
   -3.4110   -3.7050    0.5720 C   0  0  0  0  0  0  0  0  0  0  0  0
   -0.6390   -1.3560    0.9890 N   0  0  0  0  0  0  0  0  0  0  0  0
   -0.0910   -0.1180    0.5530 N   0  0  0  0  0  0  0  0  0  0  0  0
    1.3300   -0.0150    0.7100 C   0  0  0  0  0  0  0  0  0  0  0  0
    2.1090   -0.2080   -0.5570 C   0  0  1  0  0  0  0  0  0  0  0  0
    1.7860    0.6900   -1.5450 O   0  0  0  0  0  0  0  0  0  0  0  0
    3.5880   -0.1520   -0.2680 C   0  0  0  0  0  0  0  0  0  0  0  0
    4.3270   -1.3170   -0.1650 C   0  0  0  0  0  0  0  0  0  0  0  0
    5.6630   -1.2280    0.1030 C   0  0  0  0  0  0  0  0  0  0  0  0
    6.2660   -0.0230    0.2690 N   0  0  0  0  0  0  0  0  0  0  0  0
    5.5510    1.1030    0.1690 C   0  0  0  0  0  0  0  0  0  0  0  0
    4.2000    1.0600   -0.1010 C   0  0  0  0  0  0  0  0  0  0  0  0
   -1.0010    0.7880   -0.0220 C   0  0  1  0  0  0  0  0  0  0  0  0
   -0.6130    2.1130   -0.3060 N   0  0  0  0  0  0  0  0  0  0  0  0
   -1.6690    3.1120   -0.3890 C   0  0  0  0  0  0  0  0  0  0  0  0
   -2.4000    3.4650    0.6530 C   0  0  0  0  0  0  0  0  0  0  0  0
   -3.3680    4.4950    0.2150 C   0  0  0  0  0  0  0  0  0  0  0  0
   -3.0740    4.6580   -1.1810 N   0  0  0  0  0  0  0  0  0  0  0  0
   -2.1210    3.8820   -1.5220 C   0  0  0  0  0  0  0  0  0  0  0  0
  1  2  1  0
  2  3  2  0
  2 23  1  0
  3  4  1  0
  3  5  1  0
  5  6  1  0
  5 12  2  0
  6  7  2  0
  6 11  1  0
  7  8  1  0
  8  9  2  0
  9 10  1  0
 10 11  2  0
 12 13  1  0
 13 14  1  0
 13 23  1  0
 14 15  1  0
 15 16  1  6
 15 17  1  0
 17 18  2  0
 17 22  1  0
 18 19  1  0
 19 20  2  0
 20 21  1  0
 21 22  2  0
 23 24  1  6
 24 25  1  0
 25 26  2  0
 25 29  1  0
 26 27  1  0
 27 28  1  0
 28 29  2  0
M  CHG  1  20   1
M  END
