
     RDKit          3D

 29 31  0  0  0  0  0  0  0  0999 V2000
    7.6450   -2.6670   -0.7360 N   0  0  0  0  0  0  0  0  0  0  0  0
    6.7630   -2.2610   -0.4330 C   0  0  0  0  0  0  0  0  0  0  0  0
    5.4340   -1.6400    0.0520 C   0  0  0  0  0  0  0  0  0  0  0  0
    5.0250   -0.4820   -0.6170 C   0  0  0  0  0  0  0  0  0  0  0  0
    3.7520   -0.0030   -0.2690 C   0  0  0  0  0  0  0  0  0  0  0  0
    2.9730   -0.6060    0.6430 C   0  0  0  0  0  0  0  0  0  0  0  0
    1.6160   -0.2330    0.9610 N   0  0  0  0  0  0  0  0  0  0  0  0
    0.7170    0.1260   -0.1050 C   0  0  0  0  0  0  0  0  0  0  0  0
   -0.3360    1.0670    0.2940 N   0  0  0  0  0  0  0  0  0  0  0  0
   -1.6740    0.8720   -0.2110 C   0  0  1  0  0  0  0  0  0  0  0  0
   -2.4150   -0.2570    0.3920 C   0  0  0  0  0  0  0  0  0  0  0  0
   -3.7750   -0.0900    0.5610 C   0  0  0  0  0  0  0  0  0  0  0  0
   -4.5750   -1.0410    1.1290 C   0  0  0  0  0  0  0  0  0  0  0  0
   -3.9990   -2.2100    1.5490 C   0  0  0  0  0  0  0  0  0  0  0  0
   -2.6370   -2.4010    1.3890 C   0  0  0  0  0  0  0  0  0  0  0  0
   -1.8550   -1.4220    0.8110 C   0  0  0  0  0  0  0  0  0  0  0  0
   -2.4040    2.1240    0.1320 C   0  0  0  0  0  0  0  0  0  0  0  0
   -3.1920    2.7360   -0.7920 C   0  0  0  0  0  0  0  0  0  0  0  0
   -3.8490    3.9310   -0.5120 C   0  0  0  0  0  0  0  0  0  0  0  0
   -3.7040    4.5000    0.7120 C   0  0  0  0  0  0  0  0  0  0  0  0
   -2.9210    3.9020    1.6550 C   0  0  0  0  0  0  0  0  0  0  0  0
   -2.2470    2.6970    1.3940 C   0  0  0  0  0  0  0  0  0  0  0  0
    0.6270   -0.3260   -1.2410 N   0  0  0  0  0  0  0  0  0  0  0  0
    1.4540   -1.4050   -1.7910 C   0  0  0  0  0  0  0  0  0  0  0  0
    2.1690   -1.1020   -2.9940 C   0  0  0  0  0  0  0  0  0  0  0  0
    2.6670    0.0010   -3.2750 O   0  0  0  0  0  0  0  0  0  0  0  0
    2.3420   -2.1100   -3.9630 O   0  0  0  0  0  0  0  0  0  0  0  0
    3.4360   -1.7830    1.3100 C   0  0  0  0  0  0  0  0  0  0  0  0
    4.6750   -2.2150    0.9440 C   0  0  0  0  0  0  0  0  0  0  0  0
  1  2  3  0
  2  3  1  0
  3  4  2  0
  3 29  1  0
  4  5  1  0
  5  6  2  0
  6  7  1  0
  6 28  1  0
  7  8  1  0
  8  9  1  0
  8 23  2  3
 10  9  1  1
 10 11  1  0
 10 17  1  0
 11 12  2  0
 11 16  1  0
 12 13  1  0
 13 14  2  0
 14 15  1  0
 15 16  2  0
 17 18  2  0
 17 22  1  0
 18 19  1  0
 19 20  2  0
 20 21  1  0
 21 22  2  0
 23 24  1  0
 24 25  1  0
 25 26  2  0
 25 27  1  0
 28 29  2  0
M  CHG  1  23   1
M  END
