
     RDKit          3D

 29 31  0  0  0  0  0  0  0  0999 V2000
   -5.2900    2.3170    1.4180 C   0  0  0  0  0  0  0  0  0  0  0  0
   -5.2990    0.7510    1.3020 C   0  0  1  0  0  0  0  0  0  0  0  0
   -6.2600    0.4910    0.2000 C   0  0  0  0  0  0  0  0  0  0  0  0
   -5.8670    1.0740   -1.0580 N   0  0  0  0  0  0  0  0  0  0  0  0
   -3.8830    0.3930    1.1400 C   0  0  0  0  0  0  0  0  0  0  0  0
   -3.4610   -1.0170    1.0200 C   0  0  1  0  0  0  0  0  0  0  0  0
   -3.9300   -1.8390   -0.1090 C   0  0  0  0  0  0  0  0  0  0  0  0
   -3.3020   -1.4430   -1.4300 C   0  0  0  0  0  0  0  0  0  0  0  0
   -1.9720   -0.7930   -1.2880 C   0  0  0  0  0  0  0  0  0  0  0  0
   -1.2060   -1.2870   -0.0710 C   0  0  1  0  0  0  0  0  0  0  0  0
    0.0760   -0.6160   -0.1110 N   0  0  0  0  0  0  0  0  0  0  0  0
    0.9770   -1.0020    0.9010 C   0  0  0  0  0  0  0  0  0  0  0  0
    2.2580   -0.2290    0.8200 C   0  0  0  0  0  0  0  0  0  0  0  0
    2.9770   -0.4290   -0.4660 C   0  0  0  0  0  0  0  0  0  0  0  0
    4.2300    0.3060   -0.5250 N   0  0  0  0  0  0  0  0  0  0  0  0
    5.4060   -0.3450   -0.0630 C   0  0  0  0  0  0  0  0  0  0  0  0
    6.5910    0.2460   -0.0780 C   0  0  0  0  0  0  0  0  0  0  0  0
    7.7640   -0.4280    0.3910 N   0  0  0  0  0  0  0  0  0  0  0  0
    9.0270    0.1840    0.3820 C   0  0  0  0  0  0  0  0  0  0  0  0
   10.0310   -0.4570    0.8080 O   0  0  0  0  0  0  0  0  0  0  0  0
    9.1560    1.5130   -0.1070 N   0  0  0  0  0  0  0  0  0  0  0  0
    8.0270    2.2200   -0.5820 C   0  0  0  0  0  0  0  0  0  0  0  0
    8.1410    3.3940   -1.0140 O   0  0  0  0  0  0  0  0  0  0  0  0
    6.7440    1.5780   -0.5640 N   0  0  0  0  0  0  0  0  0  0  0  0
    5.6180    2.2440   -1.0230 O   0  0  0  0  0  0  0  0  0  0  0  0
    4.3580    1.6260   -1.0100 C   0  0  0  0  0  0  0  0  0  0  0  0
    3.3590    2.2290   -1.4210 O   0  0  0  0  0  0  0  0  0  0  0  0
   -1.9330   -1.1560    1.2100 C   0  0  2  0  0  0  0  0  0  0  0  0
   -1.7110   -2.3110    1.9590 O   0  0  0  0  0  0  0  0  0  0  0  0
  2  1  1  6
  2  3  1  0
  2  5  1  0
  3  4  1  0
  6  5  1  6
  6  7  1  0
  6 28  1  0
  7  8  1  0
  8  9  1  0
  9 10  1  0
 10 11  1  1
 10 28  1  0
 11 12  1  0
 12 13  1  0
 13 14  1  0
 14 15  1  0
 15 16  1  0
 15 26  1  0
 16 17  2  0
 17 18  1  0
 17 24  1  0
 18 19  1  0
 19 20  2  0
 19 21  1  0
 21 22  1  0
 22 23  2  0
 22 24  1  0
 24 25  1  0
 25 26  1  0
 26 27  2  0
 28 29  1  1
M  CHG  1   4   1
M  END
