
     RDKit          3D

 29 32  0  0  0  0  0  0  0  0999 V2000
   -4.9320    3.4770    0.8160 C   0  0  0  0  0  0  0  0  0  0  0  0
   -4.6240    2.9700   -0.5610 C   0  0  0  0  0  0  0  0  0  0  0  0
   -3.3070    2.5690   -0.6690 O   0  0  0  0  0  0  0  0  0  0  0  0
   -2.6870    1.5600    0.0340 C   0  0  0  0  0  0  0  0  0  0  0  0
   -1.5180    1.1380   -0.4770 C   0  0  0  0  0  0  0  0  0  0  0  0
   -0.8090    0.0740    0.2080 C   0  0  0  0  0  0  0  0  0  0  0  0
   -1.2920   -0.4780    1.3060 C   0  0  0  0  0  0  0  0  0  0  0  0
   -0.4890   -1.5580    1.9210 C   0  0  0  0  0  0  0  0  0  0  0  0
   -0.3070   -2.5320    0.8000 C   0  0  2  0  0  0  0  0  0  0  0  0
    0.2150   -3.8690    1.0950 C   0  0  0  0  0  0  0  0  0  0  0  0
    0.1140   -4.6800   -0.1030 N   0  0  0  0  0  0  0  0  0  0  0  0
   -0.1690   -3.9570   -1.2900 C   0  0  0  0  0  0  0  0  0  0  0  0
   -0.7020   -4.6160   -2.2360 O   0  0  0  0  0  0  0  0  0  0  0  0
    0.1070   -2.5820   -1.4630 N   0  0  0  0  0  0  0  0  0  0  0  0
    0.5970   -1.9190   -0.2840 C   0  0  1  0  0  0  0  0  0  0  0  0
    0.5140   -0.4560   -0.2290 C   0  0  1  0  0  0  0  0  0  0  0  0
    0.9750    0.2660   -1.3920 N   0  0  0  0  0  0  0  0  0  0  0  0
    2.3600    0.1740   -1.6220 C   0  0  0  0  0  0  0  0  0  0  0  0
    3.3700    0.9190   -1.0560 C   0  0  0  0  0  0  0  0  0  0  0  0
    3.2790    1.9980   -0.0830 C   0  0  0  0  0  0  0  0  0  0  0  0
    2.1700    2.3640    0.3510 O   0  0  0  0  0  0  0  0  0  0  0  0
    4.4060    2.6470    0.3890 O   0  0  0  0  0  0  0  0  0  0  0  0
    4.3320    3.7000    1.3370 C   0  0  0  0  0  0  0  0  0  0  0  0
    4.5270    0.4450   -1.6070 N   0  0  0  0  0  0  0  0  0  0  0  0
    4.3140   -0.5140   -2.4500 N   0  0  0  0  0  0  0  0  0  0  0  0
    2.9640   -0.7080   -2.4820 C   0  0  0  0  0  0  0  0  0  0  0  0
    2.4920   -1.5970   -3.2360 O   0  0  0  0  0  0  0  0  0  0  0  0
   -2.5070   -0.0740    1.8490 N   0  0  0  0  0  0  0  0  0  0  0  0
   -3.2970    1.0190    1.2480 C   0  0  0  0  0  0  0  0  0  0  0  0
  1  2  1  0
  2  3  1  0
  3  4  1  0
  4  5  2  0
  4 29  1  0
  5  6  1  0
  6  7  2  0
  6 16  1  0
  7  8  1  0
  7 28  1  0
  9  8  1  1
  9 10  1  0
  9 15  1  0
 10 11  1  0
 11 12  1  0
 12 13  2  0
 12 14  1  0
 15 14  1  6
 15 16  1  0
 16 17  1  6
 17 18  1  0
 18 19  2  0
 18 26  1  0
 19 20  1  0
 19 24  1  0
 20 21  2  0
 20 22  1  0
 22 23  1  0
 24 25  1  0
 25 26  1  0
 26 27  2  0
 28 29  1  0
M  CHG  2  11   1  17   1
M  END
