
     RDKit          3D

 29 31  0  0  0  0  0  0  0  0999 V2000
    1.5990   -1.6620   -1.3820 C   0  0  0  0  0  0  0  0  0  0  0  0
    0.5420   -0.6110   -1.4570 C   0  0  1  0  0  0  0  0  0  0  0  0
   -0.4130   -0.6570   -0.3850 N   0  0  0  0  0  0  0  0  0  0  0  0
   -1.7880   -0.8970   -0.5670 C   0  0  0  0  0  0  0  0  0  0  0  0
   -2.1760   -1.0800   -1.7690 O   0  0  0  0  0  0  0  0  0  0  0  0
   -2.7530   -0.9520    0.4420 N   0  0  0  0  0  0  0  0  0  0  0  0
   -4.1690   -1.2030    0.2150 C   0  0  2  0  0  0  0  0  0  0  0  0
   -4.4160   -2.5360   -0.4400 C   0  0  0  0  0  0  0  0  0  0  0  0
   -4.6430   -0.1330   -0.7430 C   0  0  0  0  0  0  0  0  0  0  0  0
   -6.1300    0.1110   -0.6230 C   0  0  0  0  0  0  0  0  0  0  0  0
   -6.3850    0.7860    0.7110 C   0  0  0  0  0  0  0  0  0  0  0  0
   -5.4010    0.3180    1.7580 C   0  0  2  0  0  0  0  0  0  0  0  0
   -6.0040    0.3880    3.0050 O   0  0  0  0  0  0  0  0  0  0  0  0
   -4.3070    1.1790    1.7610 O   0  0  0  0  0  0  0  0  0  0  0  0
   -4.9320   -1.0940    1.5030 C   0  0  0  0  0  0  0  0  0  0  0  0
    1.1720    0.7500   -1.6300 C   0  0  1  0  0  0  0  0  0  0  0  0
    0.1620    1.7900   -1.7060 N   0  0  0  0  0  0  0  0  0  0  0  0
    2.1910    1.0350   -0.5870 C   0  0  0  0  0  0  0  0  0  0  0  0
    1.9220    1.4610    0.6430 N   0  0  0  0  0  0  0  0  0  0  0  0
    3.0560    1.6120    1.3030 N   0  0  0  0  0  0  0  0  0  0  0  0
    4.0820    1.2720    0.4690 C   0  0  0  0  0  0  0  0  0  0  0  0
    5.5000    1.2920    0.7910 C   0  0  0  0  0  0  0  0  0  0  0  0
    6.0300    1.6440    1.9440 C   0  0  0  0  0  0  0  0  0  0  0  0
    7.4750    1.5250    1.8520 C   0  0  0  0  0  0  0  0  0  0  0  0
    8.3230    1.9860    2.6570 O   0  0  0  0  0  0  0  0  0  0  0  0
    7.7840    0.7980    0.6950 N   0  0  1  0  0  0  0  0  0  0  0  0
    7.9840   -0.6180    0.9460 C   0  0  0  0  0  0  0  0  0  0  0  0
    6.5970    0.9160   -0.1310 C   0  0  0  0  0  0  0  0  0  0  0  0
    3.4960    0.9330   -0.6560 O   0  0  0  0  0  0  0  0  0  0  0  0
  2  1  1  1
  2  3  1  0
  2 16  1  0
  3  4  1  0
  4  5  2  0
  4  6  1  0
  6  7  1  0
  7  8  1  6
  7  9  1  0
  7 15  1  0
  9 10  1  0
 10 11  1  0
 11 12  1  0
 12 13  1  1
 12 14  1  0
 12 15  1  0
 16 17  1  1
 16 18  1  0
 18 19  2  0
 18 29  1  0
 19 20  1  0
 20 21  2  0
 21 22  1  0
 21 29  1  0
 22 23  2  0
 22 28  1  0
 23 24  1  0
 24 25  2  0
 24 26  1  0
 26 27  1  1
 26 28  1  0
M  CHG  1  26   1
M  END
