
     RDKit          3D

 29 31  0  0  0  0  0  0  0  0999 V2000
    5.0620   -1.5990    3.9280 C   0  0  0  0  0  0  0  0  0  0  0  0
    4.7190   -1.7540    2.5090 N   0  0  0  0  0  0  0  0  0  0  0  0
    3.9540   -0.7420    1.8650 C   0  0  0  0  0  0  0  0  0  0  0  0
    3.5470    0.2950    2.4490 O   0  0  0  0  0  0  0  0  0  0  0  0
    3.5970   -0.8510    0.4870 N   0  0  0  0  0  0  0  0  0  0  0  0
    2.8300    0.1460   -0.1920 C   0  0  1  0  0  0  0  0  0  0  0  0
    3.6240    0.6310   -1.3260 C   0  0  0  0  0  0  0  0  0  0  0  0
    4.8460    0.3600   -1.3990 O   0  0  0  0  0  0  0  0  0  0  0  0
    2.9890    1.4030   -2.3230 N   0  0  0  0  0  0  0  0  0  0  0  0
    3.7340    2.3240   -3.1810 C   0  0  0  0  0  0  0  0  0  0  0  0
    1.6380    1.2680   -2.4720 N   0  0  0  0  0  0  0  0  0  0  0  0
    0.9240    0.4880   -1.7630 C   0  0  0  0  0  0  0  0  0  0  0  0
   -0.5540    0.4190   -2.0180 C   0  0  0  0  0  0  0  0  0  0  0  0
   -0.9690    0.8640   -3.0900 O   0  0  0  0  0  0  0  0  0  0  0  0
   -1.3870   -0.1640   -0.9940 C   0  0  0  0  0  0  0  0  0  0  0  0
   -2.8270   -0.2770   -1.1030 C   0  0  0  0  0  0  0  0  0  0  0  0
   -3.5530    0.0500   -2.1860 C   0  0  0  0  0  0  0  0  0  0  0  0
   -4.9940   -0.1650   -2.1800 C   0  0  0  0  0  0  0  0  0  0  0  0
   -5.6230   -0.7090   -1.1760 C   0  0  0  0  0  0  0  0  0  0  0  0
   -4.8910   -1.1770    0.0380 C   0  0  2  0  0  0  0  0  0  0  0  0
   -5.6870   -1.0240    1.2250 N   0  0  0  0  0  0  0  0  0  0  0  0
   -3.6390   -0.3540    0.1350 C   0  0  0  0  0  0  0  0  0  0  0  0
   -3.4730    0.4010    1.1750 C   0  0  0  0  0  0  0  0  0  0  0  0
   -2.5730    1.4650    1.4470 C   0  0  0  0  0  0  0  0  0  0  0  0
   -1.7370    1.9680    0.6840 O   0  0  0  0  0  0  0  0  0  0  0  0
   -2.6150    2.0460    2.7580 O   0  0  0  0  0  0  0  0  0  0  0  0
   -0.8010   -0.5950    0.1020 C   0  0  0  0  0  0  0  0  0  0  0  0
    0.5600   -0.5240    0.3480 N   0  0  0  0  0  0  0  0  0  0  0  0
    1.4970   -0.3580   -0.6980 C   0  0  2  0  0  0  0  0  0  0  0  0
  1  2  1  0
  2  3  1  0
  3  4  2  0
  3  5  1  0
  6  5  1  6
  6  7  1  0
  6 29  1  0
  7  8  2  0
  7  9  1  0
  9 10  1  0
  9 11  1  0
 11 12  2  0
 12 13  1  0
 12 29  1  0
 13 14  2  0
 13 15  1  0
 15 16  1  0
 15 27  2  0
 16 17  2  0
 16 22  1  0
 17 18  1  0
 18 19  2  0
 19 20  1  0
 20 21  1  1
 20 22  1  0
 22 23  2  3
 23 24  1  0
 24 25  2  0
 24 26  1  0
 27 28  1  0
 29 28  1  1
M  CHG  1  28   1
M  END
