
     RDKit          3D

 27 27  0  0  0  0  0  0  0  0999 V2000
   -2.6450    2.2840    0.1840 C   0  0  0  0  0  0  0  0  0  0  0  0
   -4.1020    2.6140    0.1000 C   0  0  0  0  0  0  0  0  0  0  0  0
   -4.8870    1.9190    1.1440 C   0  0  2  0  0  0  0  0  0  0  0  0
   -4.4000    2.2750    2.4210 O   0  0  0  0  0  0  0  0  0  0  0  0
   -5.2550    0.5190    0.9850 C   0  0  0  0  0  0  0  0  0  0  0  0
   -4.2950   -0.5820    0.8750 C   0  0  1  0  0  0  0  0  0  0  0  0
   -3.4330   -0.8070    1.9150 O   0  0  0  0  0  0  0  0  0  0  0  0
   -2.2790   -1.4720    1.6820 C   0  0  0  0  0  0  0  0  0  0  0  0
   -1.3690   -0.8300    0.7070 C   0  0  0  0  0  0  0  0  0  0  0  0
   -0.1750   -1.6880    0.5680 N   0  0  0  0  0  0  0  0  0  0  0  0
    0.8780   -1.3280   -0.3010 C   0  0  0  0  0  0  0  0  0  0  0  0
    0.8070   -0.2780   -0.9600 O   0  0  0  0  0  0  0  0  0  0  0  0
    2.0580   -2.2040   -0.4230 C   0  0  2  0  0  0  0  0  0  0  0  0
    1.5940   -3.5230   -1.0020 C   0  0  0  0  0  0  0  0  0  0  0  0
    2.6220   -2.4740    0.9580 C   0  0  0  0  0  0  0  0  0  0  0  0
    3.0780   -1.6150   -1.3210 C   0  0  0  0  0  0  0  0  0  0  0  0
    3.3320   -2.2150   -2.3950 O   0  0  0  0  0  0  0  0  0  0  0  0
    3.7740   -0.4210   -1.0330 N   0  0  0  0  0  0  0  0  0  0  0  0
    4.7560    0.0710   -2.0140 C   0  0  0  0  0  0  0  0  0  0  0  0
    4.6400    1.5460   -2.2340 C   0  0  0  0  0  0  0  0  0  0  0  0
    4.5660    2.3500   -0.9650 C   0  0  1  0  0  0  0  0  0  0  0  0
    4.4090    3.7980   -1.2910 C   0  0  0  0  0  0  0  0  0  0  0  0
    3.3700    1.8380   -0.1750 C   0  0  0  0  0  0  0  0  0  0  0  0
    3.6180    0.3760    0.1580 C   0  0  0  0  0  0  0  0  0  0  0  0
   -5.2610   -1.8430    0.9080 C   0  0  0  0  0  0  0  0  0  0  0  0
   -5.0890   -2.8330    1.8610 N   0  0  0  0  0  0  0  0  0  0  0  0
   -6.1210   -1.8170    0.0290 O   0  0  0  0  0  0  0  0  0  0  0  0
  1  2  1  0
  2  3  1  0
  3  4  1  1
  3  5  1  0
  6  5  1  1
  6  7  1  0
  6 25  1  0
  7  8  1  0
  8  9  1  0
  9 10  1  0
 10 11  1  0
 11 12  2  0
 11 13  1  0
 13 14  1  6
 13 15  1  0
 13 16  1  0
 16 17  2  0
 16 18  1  0
 18 19  1  0
 18 24  1  0
 19 20  1  0
 20 21  1  0
 21 22  1  6
 21 23  1  0
 23 24  1  0
 25 26  1  0
 25 27  2  0
M  END
