
     RDKit          3D

 27 27  0  0  0  0  0  0  0  0999 V2000
    9.0280    2.1490   -1.5670 C   0  0  0  0  0  0  0  0  0  0  0  0
    8.4390    0.9410   -2.0190 O   0  0  0  0  0  0  0  0  0  0  0  0
    7.2550    0.4770   -1.4020 C   0  0  0  0  0  0  0  0  0  0  0  0
    6.7800    1.1750   -0.4760 O   0  0  0  0  0  0  0  0  0  0  0  0
    6.6380   -0.7090   -1.8070 N   0  0  0  0  0  0  0  0  0  0  0  0
    5.4330   -1.2150   -1.2000 C   0  0  0  0  0  0  0  0  0  0  0  0
    5.7140   -1.4710    0.2580 C   0  0  0  0  0  0  0  0  0  0  0  0
    4.5660   -1.9830    0.9920 N   0  0  0  0  0  0  0  0  0  0  0  0
    3.3350   -1.2910    1.1000 C   0  0  0  0  0  0  0  0  0  0  0  0
    3.2020   -0.1870    0.5300 O   0  0  0  0  0  0  0  0  0  0  0  0
    2.2560   -1.9000    1.8880 C   0  0  0  0  0  0  0  0  0  0  0  0
    1.0540   -1.1290    1.8480 O   0  0  0  0  0  0  0  0  0  0  0  0
    0.3110   -0.9110    0.7250 C   0  0  0  0  0  0  0  0  0  0  0  0
    0.7140   -1.4380   -0.3590 O   0  0  0  0  0  0  0  0  0  0  0  0
   -0.9700   -0.0740    0.7110 C   0  0  1  0  0  0  0  0  0  0  0  0
   -1.6790   -0.5320   -0.3560 N   0  0  0  0  0  0  0  0  0  0  0  0
   -2.9120   -0.1600   -0.8480 C   0  0  2  0  0  0  0  0  0  0  0  0
   -3.1440    1.2390   -1.2830 C   0  0  0  0  0  0  0  0  0  0  0  0
   -4.2260    1.9790   -0.5740 C   0  0  1  0  0  0  0  0  0  0  0  0
   -4.8150    3.0400   -1.5060 C   0  0  0  0  0  0  0  0  0  0  0  0
   -5.3430    1.1710   -0.0500 C   0  0  0  0  0  0  0  0  0  0  0  0
   -5.3890   -0.2610   -0.4750 C   0  0  1  0  0  0  0  0  0  0  0  0
   -5.8450   -0.5150   -1.8630 C   0  0  0  0  0  0  0  0  0  0  0  0
   -4.0350   -0.8470   -0.1290 C   0  0  0  0  0  0  0  0  0  0  0  0
   -1.4600   -0.1270    2.1260 C   0  0  2  0  0  0  0  0  0  0  0  0
   -1.7840   -1.5000    2.6350 C   0  0  0  0  0  0  0  0  0  0  0  0
   -2.3870    0.9590    2.5400 C   0  0  0  0  0  0  0  0  0  0  0  0
  1  2  1  0
  2  3  1  0
  3  4  2  0
  3  5  1  0
  5  6  1  0
  6  7  1  0
  7  8  1  0
  8  9  1  0
  9 10  2  0
  9 11  1  0
 11 12  1  0
 12 13  1  0
 13 14  2  0
 13 15  1  0
 15 16  1  6
 15 25  1  0
 17 16  1  1
 17 18  1  0
 17 24  1  0
 18 19  1  0
 19 20  1  6
 19 21  1  0
 21 22  1  0
 22 23  1  6
 22 24  1  0
 25 26  1  6
 25 27  1  0
M  END
