
     RDKit          3D

 27 27  0  0  0  0  0  0  0  0999 V2000
   -5.5540   -1.9720    0.3920 C   0  0  0  0  0  0  0  0  0  0  0  0
   -5.1370   -0.4830    0.2640 C   0  0  1  0  0  0  0  0  0  0  0  0
   -3.6720   -0.4880    0.0240 C   0  0  0  0  0  0  0  0  0  0  0  0
   -2.9370   -1.1960    1.1940 C   0  0  0  0  0  0  0  0  0  0  0  0
   -1.5360   -1.1510    0.8710 N   0  0  0  0  0  0  0  0  0  0  0  0
   -0.5510   -1.7150    1.7360 C   0  0  0  0  0  0  0  0  0  0  0  0
   -0.9610   -2.2510    2.7860 O   0  0  0  0  0  0  0  0  0  0  0  0
    0.7980   -1.6980    1.4760 O   0  0  0  0  0  0  0  0  0  0  0  0
    1.6730   -2.2940    2.4170 C   0  0  0  0  0  0  0  0  0  0  0  0
    3.0780   -2.1050    1.8330 C   0  0  0  0  0  0  0  0  0  0  0  0
    3.3750   -0.6270    1.6600 C   0  0  0  0  0  0  0  0  0  0  0  0
    4.7110   -0.4990    1.1070 N   0  0  0  0  0  0  0  0  0  0  0  0
    5.9340   -0.3870    1.8330 C   0  0  0  0  0  0  0  0  0  0  0  0
    5.9800   -0.3890    3.1080 O   0  0  0  0  0  0  0  0  0  0  0  0
    7.0320   -0.2800    0.9360 N   0  0  0  0  0  0  0  0  0  0  0  0
    6.4850    0.0770   -0.3640 C   0  0  2  0  0  0  0  0  0  0  0  0
    7.2040   -0.6980   -1.4180 C   0  0  0  0  0  0  0  0  0  0  0  0
    6.5280    1.5560   -0.5380 C   0  0  0  0  0  0  0  0  0  0  0  0
    5.9900    2.0320   -1.8450 C   0  0  0  0  0  0  0  0  0  0  0  0
    4.6760    1.6870   -2.0330 O   0  0  0  0  0  0  0  0  0  0  0  0
    5.0800   -0.4580   -0.2710 C   0  0  0  0  0  0  0  0  0  0  0  0
    4.3860   -0.7960   -1.2430 O   0  0  0  0  0  0  0  0  0  0  0  0
   -5.9000    0.1420   -0.8430 C   0  0  0  0  0  0  0  0  0  0  0  0
   -5.6810    1.5630   -1.1580 C   0  0  2  0  0  0  0  0  0  0  0  0
   -5.9320    2.5100   -0.0050 C   0  0  0  0  0  0  0  0  0  0  0  0
   -6.8280    1.9450   -2.1740 C   0  0  0  0  0  0  0  0  0  0  0  0
   -4.3750    1.8630   -1.8180 C   0  0  0  0  0  0  0  0  0  0  0  0
  2  1  1  6
  2  3  1  0
  2 23  1  0
  3  4  1  0
  4  5  1  0
  5  6  1  0
  6  7  2  0
  6  8  1  0
  8  9  1  0
  9 10  1  0
 10 11  1  0
 11 12  1  0
 12 13  1  0
 12 21  1  0
 13 14  2  0
 13 15  1  0
 15 16  1  0
 16 17  1  6
 16 18  1  0
 16 21  1  0
 18 19  1  0
 19 20  1  0
 21 22  2  0
 23 24  1  0
 24 25  1  1
 24 26  1  0
 24 27  1  0
M  END
