
     RDKit          3D

 27 27  0  0  0  0  0  0  0  0999 V2000
   -1.9060    0.7090   -0.8850 C   0  0  0  0  0  0  0  0  0  0  0  0
   -2.3100   -0.4110    0.0110 C   0  0  0  0  0  0  0  0  0  0  0  0
   -2.9780   -0.1010    1.1010 C   0  0  0  0  0  0  0  0  0  0  0  0
   -3.3260    1.2690    1.4520 C   0  0  0  0  0  0  0  0  0  0  0  0
   -4.0020    1.5470    2.5630 C   0  0  0  0  0  0  0  0  0  0  0  0
   -4.3460    2.9110    2.9070 C   0  0  0  0  0  0  0  0  0  0  0  0
   -3.9790    3.9950    2.0800 N   0  0  0  0  0  0  0  0  0  0  0  0
   -4.9830    3.1410    3.9600 O   0  0  0  0  0  0  0  0  0  0  0  0
   -2.0080   -1.8160   -0.2530 C   0  0  1  0  0  0  0  0  0  0  0  0
   -2.7090   -2.1150   -1.4370 O   0  0  0  0  0  0  0  0  0  0  0  0
   -0.6110   -2.2580   -0.2650 C   0  0  0  0  0  0  0  0  0  0  0  0
    0.3130   -1.7450   -1.2110 N   0  0  0  0  0  0  0  0  0  0  0  0
    1.0830   -0.6170   -0.8910 C   0  0  0  0  0  0  0  0  0  0  0  0
    1.8770   -0.1310   -1.7220 O   0  0  0  0  0  0  0  0  0  0  0  0
    0.9900   -0.0000    0.3760 N   0  0  0  0  0  0  0  0  0  0  0  0
    1.7830    1.1720    0.7310 C   0  0  0  0  0  0  0  0  0  0  0  0
    1.4490    1.5740    2.1330 C   0  0  0  0  0  0  0  0  0  0  0  0
    2.1210    2.6660    2.6040 O   0  0  0  0  0  0  0  0  0  0  0  0
    3.4910    2.5100    2.6440 C   0  0  1  0  0  0  0  0  0  0  0  0
    4.0890    3.6100    1.7740 C   0  0  0  0  0  0  0  0  0  0  0  0
    3.9720    2.6990    4.0710 C   0  0  0  0  0  0  0  0  0  0  0  0
    0.5610   -2.3270   -2.5140 C   0  0  1  0  0  0  0  0  0  0  0  0
    1.1480   -3.7210   -2.4140 C   0  0  0  0  0  0  0  0  0  0  0  0
    1.0030   -4.3840   -3.7810 C   0  0  0  0  0  0  0  0  0  0  0  0
    1.1050   -3.4570   -4.8020 O   0  0  0  0  0  0  0  0  0  0  0  0
    0.0480   -2.5610   -4.8590 C   0  0  0  0  0  0  0  0  0  0  0  0
   -0.5750   -2.3760   -3.4560 C   0  0  0  0  0  0  0  0  0  0  0  0
  1  2  1  0
  2  3  2  3
  2  9  1  0
  3  4  1  0
  4  5  2  3
  5  6  1  0
  6  7  1  0
  6  8  2  0
  9 10  1  6
  9 11  1  0
 11 12  1  0
 12 13  1  0
 22 12  1  1
 13 14  2  0
 13 15  1  0
 15 16  1  0
 16 17  1  0
 17 18  1  0
 18 19  1  0
 19 20  1  6
 19 21  1  0
 22 23  1  0
 22 27  1  0
 23 24  1  0
 24 25  1  0
 25 26  1  0
 26 27  1  0
M  END
