
     RDKit          3D

 27 27  0  0  0  0  0  0  0  0999 V2000
    3.0710    2.5080    3.5920 C   0  0  0  0  0  0  0  0  0  0  0  0
    4.0280    3.4500    2.9210 C   0  0  0  0  0  0  0  0  0  0  0  0
    4.4350    3.0930    1.6990 C   0  0  0  0  0  0  0  0  0  0  0  0
    3.9010    1.8700    1.2180 N   0  0  0  0  0  0  0  0  0  0  0  0
    2.9780    1.7410    0.1640 C   0  0  0  0  0  0  0  0  0  0  0  0
    2.5560    2.7480   -0.4440 O   0  0  0  0  0  0  0  0  0  0  0  0
    2.4710    0.4020   -0.2540 C   0  0  0  0  0  0  0  0  0  0  0  0
    1.2070    0.4310   -1.0310 C   0  0  0  0  0  0  0  0  0  0  0  0
    0.7970   -0.9750   -1.2880 N   0  0  0  0  0  0  0  0  0  0  0  0
    0.5300   -1.8330   -0.2190 C   0  0  0  0  0  0  0  0  0  0  0  0
    0.6370   -1.4500    1.0020 O   0  0  0  0  0  0  0  0  0  0  0  0
    0.0910   -3.2690   -0.3880 C   0  0  0  0  0  0  0  0  0  0  0  0
   -1.2800   -3.3050   -0.2530 O   0  0  0  0  0  0  0  0  0  0  0  0
   -1.9770   -2.7410   -1.3110 C   0  0  0  0  0  0  0  0  0  0  0  0
   -3.4870   -2.8020   -1.1390 C   0  0  2  0  0  0  0  0  0  0  0  0
   -3.8810   -4.1250   -1.2450 O   0  0  0  0  0  0  0  0  0  0  0  0
   -4.2130   -1.9620   -2.0910 C   0  0  0  0  0  0  0  0  0  0  0  0
   -5.2690   -1.0290   -1.6290 C   0  0  0  0  0  0  0  0  0  0  0  0
   -5.4280   -0.9020   -0.1570 C   0  0  0  0  0  0  0  0  0  0  0  0
   -4.0180   -0.9760    0.4180 C   0  0  1  0  0  0  0  0  0  0  0  0
   -3.8570   -0.4180    1.7830 C   0  0  0  0  0  0  0  0  0  0  0  0
   -3.7070   -2.4740    0.3400 C   0  0  0  0  0  0  0  0  0  0  0  0
    5.4360    3.8920    0.9430 C   0  0  0  0  0  0  0  0  0  0  0  0
    6.0450    4.7590    2.2870 C   0  0  0  0  0  0  0  0  0  0  0  0
    6.4380    5.3500    3.1750 N   0  0  0  0  0  0  0  0  0  0  0  0
    6.1130    4.2010    0.1170 C   0  0  0  0  0  0  0  0  0  0  0  0
    6.4700    3.6990   -1.2070 O   0  0  0  0  0  0  0  0  0  0  0  0
  1  2  1  0
  2  3  2  3
  3  4  1  0
  3 23  1  0
  4  5  1  0
  5  6  2  0
  5  7  1  0
  7  8  1  0
  8  9  1  0
  9 10  1  0
 10 11  2  0
 10 12  1  0
 12 13  1  0
 13 14  1  0
 14 15  1  0
 15 16  1  1
 15 17  1  0
 15 22  1  0
 17 18  1  0
 18 19  1  0
 19 20  1  0
 20 21  1  1
 20 22  1  0
 23 24  1  0
 23 26  2  3
 24 25  3  0
 26 27  1  0
M  END
