
     RDKit          3D

 27 28  0  0  0  0  0  0  0  0999 V2000
   -6.7240   -2.4280   -1.7870 C   0  0  0  0  0  0  0  0  0  0  0  0
   -6.8550   -0.9360   -1.6740 C   0  0  0  0  0  0  0  0  0  0  0  0
   -5.9530   -0.3380   -0.6040 C   0  0  1  0  0  0  0  0  0  0  0  0
   -4.5430   -0.6800   -0.9910 C   0  0  0  0  0  0  0  0  0  0  0  0
   -3.5560   -0.1790   -0.0140 N   0  0  0  0  0  0  0  0  0  0  0  0
   -2.3600    0.0090   -0.7530 C   0  0  0  0  0  0  0  0  0  0  0  0
   -1.1040    0.2980    0.1110 C   0  0  2  0  0  0  0  0  0  0  0  0
   -0.0230    0.4840   -0.9120 C   0  0  0  0  0  0  0  0  0  0  0  0
    1.3040    0.7640   -0.5340 N   0  0  0  0  0  0  0  0  0  0  0  0
    2.2320   -0.0610    0.0950 C   0  0  0  0  0  0  0  0  0  0  0  0
    1.9630   -1.2420    0.3610 O   0  0  0  0  0  0  0  0  0  0  0  0
    3.5510    0.4070    0.4690 N   0  0  0  0  0  0  0  0  0  0  0  0
    4.4410   -0.5310    1.1140 C   0  0  0  0  0  0  0  0  0  0  0  0
    5.7730    0.0690    1.4450 C   0  0  1  0  0  0  0  0  0  0  0  0
    6.5140   -0.9680    2.0670 O   0  0  0  0  0  0  0  0  0  0  0  0
    6.5510    0.4590    0.2610 C   0  0  0  0  0  0  0  0  0  0  0  0
    6.1150    0.2700   -0.9530 C   0  0  0  0  0  0  0  0  0  0  0  0
    6.9000    0.6650   -2.1340 C   0  0  0  0  0  0  0  0  0  0  0  0
    8.1390    1.2230   -1.8080 O   0  0  0  0  0  0  0  0  0  0  0  0
    8.6260    1.4370   -0.5460 C   0  0  0  0  0  0  0  0  0  0  0  0
    7.8580    1.0670    0.4680 C   0  0  0  0  0  0  0  0  0  0  0  0
   -0.9040   -0.8110    1.0310 C   0  0  0  0  0  0  0  0  0  0  0  0
   -1.8770   -1.1230    1.9520 O   0  0  0  0  0  0  0  0  0  0  0  0
   -2.1150   -0.2430    2.9440 C   0  0  0  0  0  0  0  0  0  0  0  0
   -4.0790    1.0920    0.5090 C   0  0  0  0  0  0  0  0  0  0  0  0
   -4.9780    1.7410   -0.4950 C   0  0  0  0  0  0  0  0  0  0  0  0
   -6.1770    1.0450   -0.6610 O   0  0  0  0  0  0  0  0  0  0  0  0
  1  2  1  0
  3  2  1  6
  3  4  1  0
  3 27  1  0
  4  5  1  0
  5  6  1  0
  5 25  1  0
  7  6  1  6
  7  8  1  0
  7 22  1  0
  8  9  1  0
  9 10  1  0
 10 11  2  0
 10 12  1  0
 12 13  1  0
 13 14  1  0
 14 15  1  6
 14 16  1  0
 16 17  2  0
 16 21  1  0
 17 18  1  0
 18 19  1  0
 19 20  1  0
 20 21  2  0
 22 23  1  0
 23 24  1  0
 25 26  1  0
 26 27  1  0
M  END
