
     RDKit          3D

 27 27  0  0  0  0  0  0  0  0999 V2000
   -2.4080    3.0170    0.1180 C   0  0  0  0  0  0  0  0  0  0  0  0
   -3.6200    2.3200   -0.4040 C   0  0  1  0  0  0  0  0  0  0  0  0
   -4.1760    3.1940   -1.5490 C   0  0  0  0  0  0  0  0  0  0  0  0
   -3.3440    0.9640   -0.9410 C   0  0  0  0  0  0  0  0  0  0  0  0
   -2.7770    0.0070   -0.0280 N   0  0  0  0  0  0  0  0  0  0  0  0
   -1.3710   -0.2480    0.0980 C   0  0  0  0  0  0  0  0  0  0  0  0
   -1.0260   -1.0880    1.0060 O   0  0  0  0  0  0  0  0  0  0  0  0
   -0.3070    0.3390   -0.6970 C   0  0  0  0  0  0  0  0  0  0  0  0
    0.9470   -0.2250   -0.2800 O   0  0  0  0  0  0  0  0  0  0  0  0
    1.2540   -1.5560   -0.3600 C   0  0  0  0  0  0  0  0  0  0  0  0
    0.3760   -2.3170   -0.8320 O   0  0  0  0  0  0  0  0  0  0  0  0
    2.5660   -2.1170    0.0850 C   0  0  1  0  0  0  0  0  0  0  0  0
    2.8070   -1.9700    1.5520 C   0  0  0  0  0  0  0  0  0  0  0  0
    2.4550   -3.5860   -0.1430 N   0  0  0  0  0  0  0  0  0  0  0  0
    3.7010   -1.6900   -0.7950 C   0  0  0  0  0  0  0  0  0  0  0  0
    3.9340   -0.2220   -0.9020 C   0  0  1  0  0  0  0  0  0  0  0  0
    4.2510    0.4910    0.3460 C   0  0  0  0  0  0  0  0  0  0  0  0
    5.3080    1.5380    0.2520 C   0  0  0  0  0  0  0  0  0  0  0  0
    5.7000    1.9910   -1.1010 C   0  0  0  0  0  0  0  0  0  0  0  0
    4.8260    1.3770   -2.1550 C   0  0  0  0  0  0  0  0  0  0  0  0
    4.8610   -0.0200   -1.9260 O   0  0  0  0  0  0  0  0  0  0  0  0
   -3.6860   -0.7570    0.8080 C   0  0  2  0  0  0  0  0  0  0  0  0
   -5.1290   -0.4310    0.6510 C   0  0  0  0  0  0  0  0  0  0  0  0
   -3.3260   -0.6410    2.2740 C   0  0  0  0  0  0  0  0  0  0  0  0
   -3.4760   -2.2100    0.4650 C   0  0  0  0  0  0  0  0  0  0  0  0
   -4.1700   -3.2290    1.1820 N   0  0  0  0  0  0  0  0  0  0  0  0
   -2.6800   -2.4770   -0.4590 O   0  0  0  0  0  0  0  0  0  0  0  0
  2  1  1  6
  2  3  1  0
  2  4  1  0
  4  5  1  0
  5  6  1  0
  5 22  1  0
  6  7  2  0
  6  8  1  0
  8  9  1  0
  9 10  1  0
 10 11  2  0
 10 12  1  0
 12 13  1  1
 12 14  1  0
 12 15  1  0
 16 15  1  1
 16 17  1  0
 16 21  1  0
 17 18  1  0
 18 19  1  0
 19 20  1  0
 20 21  1  0
 22 23  1  1
 22 24  1  0
 22 25  1  0
 25 26  1  0
 25 27  2  0
M  END
