
     RDKit          3D

 16 17  0  0  0  0  0  0  0  0999 V2000
   -2.3680   -1.8330    2.5060 O   0  0  0  0  0  0  0  0  0  0  0  0
   -2.1460   -1.1940    1.4520 C   0  0  0  0  0  0  0  0  0  0  0  0
   -2.9340   -0.2260    0.8120 O   0  0  0  0  0  0  0  0  0  0  0  0
   -2.3790   -0.0210   -0.4660 C   0  0  1  0  0  0  0  0  0  0  0  0
   -2.3240    1.4250   -0.8840 C   0  0  0  0  0  0  0  0  0  0  0  0
   -1.2160    2.0070   -0.1920 O   0  0  0  0  0  0  0  0  0  0  0  0
   -0.6750    1.0080    0.6570 C   0  0  0  0  0  0  0  0  0  0  0  0
   -0.2050    1.3210    1.7680 O   0  0  0  0  0  0  0  0  0  0  0  0
   -0.8480   -0.2280   -0.1000 C   0  0  2  0  0  0  0  0  0  0  0  0
   -0.1830   -0.4130   -1.2470 O   0  0  0  0  0  0  0  0  0  0  0  0
    1.0790   -0.8750   -1.1820 C   0  0  0  0  0  0  0  0  0  0  0  0
    2.0020    0.0130   -0.4170 C   0  0  0  0  0  0  0  0  0  0  0  0
    3.3130   -0.5130   -0.4020 O   0  0  0  0  0  0  0  0  0  0  0  0
    4.0510    0.3320    0.2900 O   0  0  0  0  0  0  0  0  0  0  0  0
    3.6260    0.2820    1.5360 O   0  0  0  0  0  0  0  0  0  0  0  0
   -0.9790   -1.3650    0.6920 O   0  0  0  0  0  0  0  0  0  0  0  0
  1  2  2  0
  2  3  1  0
  2 16  1  0
  3  4  1  0
  4  5  1  1
  4  9  1  0
  5  6  1  0
  6  7  1  0
  7  8  2  0
  7  9  1  0
  9 10  1  6
  9 16  1  0
 10 11  1  0
 11 12  1  0
 12 13  1  0
 13 14  1  0
 14 15  1  0
M  END
