
     RDKit          3D

 16 16  0  0  0  0  0  0  0  0999 V2000
    5.1870   -1.4870    1.2860 O   0  0  0  0  0  0  0  0  0  0  0  0
    4.5210   -0.8090    0.4820 C   0  0  0  0  0  0  0  0  0  0  0  0
    3.6860    0.3670    0.8350 C   0  0  0  0  0  0  0  0  0  0  0  0
    2.9940    0.6810   -0.4620 C   0  0  2  0  0  0  0  0  0  0  0  0
    1.6650    0.0310   -0.5040 C   0  0  0  0  0  0  0  0  0  0  0  0
    1.3770   -0.8760   -1.3170 O   0  0  0  0  0  0  0  0  0  0  0  0
    0.7020    0.4600    0.4100 O   0  0  0  0  0  0  0  0  0  0  0  0
   -0.5590   -0.0730    0.4570 C   0  0  0  0  0  0  0  0  0  0  0  0
   -0.9020   -0.9840   -0.3340 O   0  0  0  0  0  0  0  0  0  0  0  0
   -1.4840    0.3770    1.3740 O   0  0  0  0  0  0  0  0  0  0  0  0
   -2.7890   -0.0890    1.5120 C   0  0  0  0  0  0  0  0  0  0  0  0
   -3.6230    0.0930    0.2510 C   0  0  0  0  0  0  0  0  0  0  0  0
   -4.8970   -0.4270    0.5670 O   0  0  0  0  0  0  0  0  0  0  0  0
   -5.6640   -0.2860   -0.5150 O   0  0  0  0  0  0  0  0  0  0  0  0
    3.8500    0.1680   -1.4120 O   0  0  0  0  0  0  0  0  0  0  0  0
    4.3760   -0.9500   -0.9030 O   0  0  0  0  0  0  0  0  0  0  0  0
  1  2  2  0
  2  3  1  0
  2 16  1  0
  3  4  1  0
  4  5  1  1
  4 15  1  0
  5  6  2  0
  5  7  1  0
  7  8  1  0
  8  9  2  0
  8 10  1  0
 10 11  1  0
 11 12  1  0
 12 13  1  0
 13 14  1  0
 15 16  1  0
M  END
