
     RDKit          3D

 16 16  0  0  0  0  0  0  0  0999 V2000
    0.3510   -2.6490   -0.4950 O   0  0  0  0  0  0  0  0  0  0  0  0
    0.4370   -1.9240   -1.5210 C   0  0  0  0  0  0  0  0  0  0  0  0
    0.5430   -0.5370   -1.4090 O   0  0  0  0  0  0  0  0  0  0  0  0
    0.5490    0.0200   -0.0940 C   0  0  2  0  0  0  0  0  0  0  0  0
   -0.7070   -0.3320    0.5940 C   0  0  0  0  0  0  0  0  0  0  0  0
   -0.9030    0.0630    1.7720 O   0  0  0  0  0  0  0  0  0  0  0  0
   -1.7140   -1.0910    0.0150 O   0  0  0  0  0  0  0  0  0  0  0  0
   -2.8730   -1.4080    0.6710 O   0  0  0  0  0  0  0  0  0  0  0  0
   -3.9870   -0.6450    0.3530 C   0  0  0  0  0  0  0  0  0  0  0  0
   -3.9190    0.2820   -0.4920 O   0  0  0  0  0  0  0  0  0  0  0  0
   -5.2190   -0.8670    0.9480 O   0  0  0  0  0  0  0  0  0  0  0  0
    0.6190    1.5440   -0.2210 C   0  0  0  0  0  0  0  0  0  0  0  0
    1.7340    2.0390    0.4880 O   0  0  0  0  0  0  0  0  0  0  0  0
    2.8910    1.5160   -0.1320 C   0  0  0  0  0  0  0  0  0  0  0  0
    2.7780    0.0150   -0.2120 C   0  0  0  0  0  0  0  0  0  0  0  0
    1.6790   -0.4320    0.5490 O   0  0  0  0  0  0  0  0  0  0  0  0
  1  2  2  0
  2  3  1  0
  4  3  1  6
  4  5  1  0
  4 12  1  0
  4 16  1  0
  5  6  2  0
  5  7  1  0
  7  8  1  0
  8  9  1  0
  9 10  2  0
  9 11  1  0
 12 13  1  0
 13 14  1  0
 14 15  1  0
 15 16  1  0
M  END
