
     RDKit          3D

 16 16  0  0  0  0  0  0  0  0999 V2000
   -2.2850    2.3760   -0.3970 O   0  0  0  0  0  0  0  0  0  0  0  0
   -2.9430    1.8590    0.5460 C   0  0  0  0  0  0  0  0  0  0  0  0
   -2.7680    0.4910    0.7310 O   0  0  0  0  0  0  0  0  0  0  0  0
   -1.8820   -0.2470   -0.1240 C   0  0  2  0  0  0  0  0  0  0  0  0
   -2.6720   -1.3430   -0.7230 C   0  0  0  0  0  0  0  0  0  0  0  0
   -3.3960   -1.2650   -1.7260 O   0  0  0  0  0  0  0  0  0  0  0  0
   -2.4310   -2.4520    0.0640 O   0  0  0  0  0  0  0  0  0  0  0  0
   -1.6900   -2.1080    1.1310 O   0  0  0  0  0  0  0  0  0  0  0  0
   -0.9380   -0.9890    0.7690 C   0  0  1  0  0  0  0  0  0  0  0  0
    0.3660   -1.3710    0.1500 C   0  0  0  0  0  0  0  0  0  0  0  0
    1.1150   -0.1720   -0.2950 C   0  0  0  0  0  0  0  0  0  0  0  0
    0.6880    0.9990   -0.1310 O   0  0  0  0  0  0  0  0  0  0  0  0
    2.3550   -0.2800   -0.9300 O   0  0  0  0  0  0  0  0  0  0  0  0
    3.0510    0.8950   -1.3450 C   0  0  0  0  0  0  0  0  0  0  0  0
    3.3170    1.7100   -0.2410 O   0  0  0  0  0  0  0  0  0  0  0  0
    4.0610    1.0360    0.6130 O   0  0  0  0  0  0  0  0  0  0  0  0
  1  2  2  0
  2  3  1  0
  4  3  1  1
  4  5  1  0
  4  9  1  0
  5  6  2  0
  5  7  1  0
  7  8  1  0
  8  9  1  0
  9 10  1  6
 10 11  1  0
 11 12  2  0
 11 13  1  0
 13 14  1  0
 14 15  1  0
 15 16  1  0
M  END
