
     RDKit          3D

 16 17  0  0  0  0  0  0  0  0999 V2000
   -1.9580    3.7330    0.8350 O   0  0  0  0  0  0  0  0  0  0  0  0
   -1.7060    2.5700    0.4310 C   0  0  0  0  0  0  0  0  0  0  0  0
   -0.5110    2.3380   -0.3140 O   0  0  0  0  0  0  0  0  0  0  0  0
   -0.5840    1.3050   -1.1360 O   0  0  0  0  0  0  0  0  0  0  0  0
   -0.7040    0.1230   -0.5050 C   0  0  2  0  0  0  0  0  0  0  0  0
    0.1800   -0.0860    0.5480 O   0  0  0  0  0  0  0  0  0  0  0  0
    1.3970    0.2360    0.0990 C   0  0  0  0  0  0  0  0  0  0  0  0
    2.6030   -0.3970    0.7880 C   0  0  0  0  0  0  0  0  0  0  0  0
    3.5750    0.5280    0.5180 O   0  0  0  0  0  0  0  0  0  0  0  0
    4.0680    0.6190   -0.6260 O   0  0  0  0  0  0  0  0  0  0  0  0
   -0.7120   -1.0690   -1.1780 O   0  0  0  0  0  0  0  0  0  0  0  0
   -0.7190   -2.0630   -0.1720 C   0  0  0  0  0  0  0  0  0  0  0  0
   -1.8830   -2.0910    0.5670 O   0  0  0  0  0  0  0  0  0  0  0  0
   -2.2060   -0.9080    1.1570 C   0  0  0  0  0  0  0  0  0  0  0  0
   -2.1460    0.1920    0.1690 C   0  0  1  0  0  0  0  0  0  0  0  0
   -2.4570    1.4520    0.6960 O   0  0  0  0  0  0  0  0  0  0  0  0
  1  2  2  0
  2  3  1  0
  2 16  1  0
  3  4  1  0
  4  5  1  0
  5  6  1  1
  5 11  1  0
  5 15  1  0
  6  7  1  0
  7  8  1  0
  8  9  1  0
  9 10  1  0
 11 12  1  0
 12 13  1  0
 13 14  1  0
 15 14  1  1
 15 16  1  0
M  END
