
     RDKit          3D

 16 16  0  0  0  0  0  0  0  0999 V2000
    3.4140   -1.3340    1.3950 O   0  0  0  0  0  0  0  0  0  0  0  0
    3.5010   -1.2500    0.1490 C   0  0  0  0  0  0  0  0  0  0  0  0
    2.9260   -0.1290   -0.4420 O   0  0  0  0  0  0  0  0  0  0  0  0
    2.2740    0.8750    0.3010 C   0  0  1  0  0  0  0  0  0  0  0  0
    2.9950    2.0530    0.1030 O   0  0  0  0  0  0  0  0  0  0  0  0
    0.8920    1.1110   -0.1960 C   0  0  0  0  0  0  0  0  0  0  0  0
    0.5330    2.2020   -0.6860 O   0  0  0  0  0  0  0  0  0  0  0  0
   -0.0500    0.0990   -0.1230 O   0  0  0  0  0  0  0  0  0  0  0  0
   -1.3940    0.2670   -0.5840 C   0  0  2  0  0  0  0  0  0  0  0  0
   -2.3270    0.1430    0.6000 C   0  0  0  0  0  0  0  0  0  0  0  0
   -3.0150   -1.1800    0.6160 C   0  0  0  0  0  0  0  0  0  0  0  0
   -2.9720   -1.9250    1.6450 O   0  0  0  0  0  0  0  0  0  0  0  0
   -3.6850   -1.5230   -0.5510 O   0  0  0  0  0  0  0  0  0  0  0  0
   -3.0100   -1.2660   -1.7270 O   0  0  0  0  0  0  0  0  0  0  0  0
   -1.7490   -0.7010   -1.6180 C   0  0  0  0  0  0  0  0  0  0  0  0
   -0.8450   -1.0370   -2.4600 O   0  0  0  0  0  0  0  0  0  0  0  0
  1  2  2  0
  2  3  1  0
  3  4  1  0
  4  5  1  6
  4  6  1  0
  6  7  2  0
  6  8  1  0
  9  8  1  1
  9 10  1  0
  9 15  1  0
 10 11  1  0
 11 12  2  0
 11 13  1  0
 13 14  1  0
 14 15  1  0
 15 16  2  0
M  END
