
     RDKit          3D

 16 16  0  0  0  0  0  0  0  0999 V2000
   -2.7900    2.5470   -0.0790 O   0  0  0  0  0  0  0  0  0  0  0  0
   -1.6160    2.8010    0.2280 C   0  0  0  0  0  0  0  0  0  0  0  0
   -0.8640    1.9030    0.8460 O   0  0  0  0  0  0  0  0  0  0  0  0
   -0.9750    0.6360    1.3060 C   0  0  0  0  0  0  0  0  0  0  0  0
   -1.2560   -0.4070    0.2900 C   0  0  1  0  0  0  0  0  0  0  0  0
   -0.5150   -0.3730   -0.8050 O   0  0  0  0  0  0  0  0  0  0  0  0
    0.7820   -0.4470   -0.9450 C   0  0  0  0  0  0  0  0  0  0  0  0
    1.7340    0.5300   -0.3870 C   0  0  0  0  0  0  0  0  0  0  0  0
    3.0340    0.0960   -0.7630 O   0  0  0  0  0  0  0  0  0  0  0  0
    3.9460    0.9180   -0.3020 O   0  0  0  0  0  0  0  0  0  0  0  0
    5.1010    0.4970   -0.7660 O   0  0  0  0  0  0  0  0  0  0  0  0
   -1.0140   -1.7080    0.9570 O   0  0  0  0  0  0  0  0  0  0  0  0
   -1.4980   -2.5880    0.0160 C   0  0  0  0  0  0  0  0  0  0  0  0
   -2.6100   -1.9370   -0.6190 O   0  0  0  0  0  0  0  0  0  0  0  0
   -2.6640   -0.6590    0.0470 C   0  0  0  0  0  0  0  0  0  0  0  0
   -3.7610   -0.1020    0.2560 O   0  0  0  0  0  0  0  0  0  0  0  0
  1  2  2  0
  2  3  1  0
  3  4  1  0
  5  4  1  1
  5  6  1  0
  5 12  1  0
  5 15  1  0
  6  7  1  0
  7  8  1  0
  8  9  1  0
  9 10  1  0
 10 11  1  0
 12 13  1  0
 13 14  1  0
 14 15  1  0
 15 16  2  0
M  END
