
     RDKit          3D

 16 16  0  0  0  0  0  0  0  0999 V2000
    4.7800    0.2490    1.4940 O   0  0  0  0  0  0  0  0  0  0  0  0
    4.0190    0.4750    0.1950 P   0  0  1  0  0  0  0  0  0  0  0  0
    4.3840    2.0460   -0.3130 O   0  0  0  0  0  0  0  0  0  0  0  0
    4.5790   -0.6500   -0.9140 O   0  0  0  0  0  0  0  0  0  0  0  0
    2.3880    0.3290    0.5390 O   0  0  0  0  0  0  0  0  0  0  0  0
    1.6400   -0.2230   -0.4860 C   0  0  0  0  0  0  0  0  0  0  0  0
    0.1920   -0.0190   -0.1500 C   0  0  1  0  0  0  0  0  0  0  0  0
   -0.4140    0.9780   -0.9160 O   0  0  0  0  0  0  0  0  0  0  0  0
   -1.6100    1.3330   -0.3110 C   0  0  1  0  0  0  0  0  0  0  0  0
   -2.1210    2.4570   -0.9330 O   0  0  0  0  0  0  0  0  0  0  0  0
   -2.5870    0.1670   -0.3930 C   0  0  2  0  0  0  0  0  0  0  0  0
   -3.8400    0.5120    0.0700 O   0  0  0  0  0  0  0  0  0  0  0  0
   -1.9500   -0.9550    0.4160 C   0  0  1  0  0  0  0  0  0  0  0  0
   -2.7660   -2.0560    0.5400 O   0  0  0  0  0  0  0  0  0  0  0  0
   -0.6480   -1.2630   -0.3170 C   0  0  2  0  0  0  0  0  0  0  0  0
   -0.0370   -2.4060    0.1570 O   0  0  0  0  0  0  0  0  0  0  0  0
  1  2  2  0
  2  3  1  6
  2  4  1  0
  2  5  1  0
  5  6  1  0
  7  6  1  6
  7  8  1  0
  7 15  1  0
  8  9  1  0
  9 10  1  6
  9 11  1  0
 11 12  1  1
 11 13  1  0
 13 14  1  6
 13 15  1  0
 15 16  1  1
M  END
