
     RDKit          3D

 16 17  0  0  0  0  0  0  0  0999 V2000
    1.6130   -0.0120    1.9810 O   0  0  0  0  0  0  0  0  0  0  0  0
    1.7110   -0.4140    0.7930 C   0  0  0  0  0  0  0  0  0  0  0  0
    2.9350   -0.5570    0.1760 O   0  0  0  0  0  0  0  0  0  0  0  0
    4.0240   -0.2470    0.9010 O   0  0  0  0  0  0  0  0  0  0  0  0
    5.0230   -0.0670    0.0490 O   0  0  0  0  0  0  0  0  0  0  0  0
    6.1530   -0.0600    0.7190 O   0  0  0  0  0  0  0  0  0  0  0  0
    0.4810   -0.7350    0.0610 C   0  0  2  0  0  0  0  0  0  0  0  0
    0.4410   -0.0350   -1.2800 C   0  0  0  0  0  0  0  0  0  0  0  0
   -0.7700   -0.3400   -1.8690 O   0  0  0  0  0  0  0  0  0  0  0  0
   -1.8310    0.1660   -1.0980 C   0  0  1  0  0  0  0  0  0  0  0  0
   -2.7910   -1.0080   -0.9030 C   0  0  0  0  0  0  0  0  0  0  0  0
   -3.6420   -0.8100    0.1550 O   0  0  0  0  0  0  0  0  0  0  0  0
   -3.6960    0.4750    0.4390 O   0  0  0  0  0  0  0  0  0  0  0  0
   -2.5540    0.9180    1.1070 C   0  0  0  0  0  0  0  0  0  0  0  0
   -1.3610    0.5650    0.2800 C   0  0  1  0  0  0  0  0  0  0  0  0
   -0.6670   -0.5470    0.7970 O   0  0  0  0  0  0  0  0  0  0  0  0
  1  2  2  0
  2  3  1  0
  7  2  1  1
  3  4  1  0
  4  5  1  0
  5  6  1  0
  7  8  1  0
  7 16  1  0
  8  9  1  0
  9 10  1  0
 10 11  1  1
 10 15  1  0
 11 12  1  0
 12 13  1  0
 13 14  1  0
 15 14  1  1
 15 16  1  0
M  END
