
     RDKit          3D

 10  9  0  0  0  0  0  0  0  0999 V2000
   -1.9750   -1.7470    2.0340 C   0  0  0  0  0  0  0  0  0  0  0  0
   -2.2860   -0.7280    1.2690 C   0  0  0  0  0  0  0  0  0  0  0  0
   -1.2790    0.1530    0.7190 C   0  0  0  0  0  0  0  0  0  0  0  0
   -1.6460    1.1520   -0.0260 C   0  0  0  0  0  0  0  0  0  0  0  0
   -0.7820    2.1590   -0.6750 C   0  0  0  0  0  0  0  0  0  0  0  0
    0.0920   -0.0800    0.9830 N   0  0  0  0  0  0  0  0  0  0  0  0
    0.8650   -1.0850    0.3360 C   0  0  0  0  0  0  0  0  0  0  0  0
    1.2160   -0.8600   -1.0950 C   0  0  0  0  0  0  0  0  0  0  0  0
    2.0960    0.3070   -1.3740 C   0  0  0  0  0  0  0  0  0  0  0  0
    2.3050    0.3840   -2.7710 O   0  0  0  0  0  0  0  0  0  0  0  0
  1  2  2  0
  2  3  1  0
  3  4  2  3
  3  6  1  0
  4  5  1  0
  6  7  1  0
  7  8  1  0
  8  9  1  0
  9 10  1  0
M  END
