
     RDKit          3D

 10  9  0  0  0  0  0  0  0  0999 V2000
   -1.7690    2.1900   -0.6170 C   0  0  0  0  0  0  0  0  0  0  0  0
   -1.6390    0.9340   -1.0170 C   0  0  0  0  0  0  0  0  0  0  0  0
   -0.7390    0.0180   -0.3520 C   0  0  0  0  0  0  0  0  0  0  0  0
    0.0390    0.4590    0.7710 N   0  0  0  0  0  0  0  0  0  0  0  0
    1.2940    1.1540    0.6140 C   0  0  0  0  0  0  0  0  0  0  0  0
    2.0250    1.3090    1.9160 C   0  0  0  0  0  0  0  0  0  0  0  0
    2.3080    0.0340    2.4790 O   0  0  0  0  0  0  0  0  0  0  0  0
   -0.6290   -1.2480   -0.7570 C   0  0  0  0  0  0  0  0  0  0  0  0
    0.2900   -2.2030   -0.0920 C   0  0  0  0  0  0  0  0  0  0  0  0
   -1.4520   -1.7500   -1.8680 C   0  0  0  0  0  0  0  0  0  0  0  0
  1  2  2  0
  2  3  1  0
  3  4  1  0
  3  8  2  3
  4  5  1  0
  5  6  1  0
  6  7  1  0
  8  9  1  0
  8 10  1  0
M  END
