
     RDKit          3D

 10  9  0  0  0  0  0  0  0  0999 V2000
    3.6190   -0.1280    0.5930 C   0  0  0  0  0  0  0  0  0  0  0  0
    2.4440   -0.8050    0.7830 O   0  0  0  0  0  0  0  0  0  0  0  0
    1.7360   -1.0850   -0.3850 C   0  0  0  0  0  0  0  0  0  0  0  0
    1.3460    0.1300   -1.1390 C   0  0  0  0  0  0  0  0  0  0  0  0
    0.4790    1.1150   -0.4710 C   0  0  0  0  0  0  0  0  0  0  0  0
   -0.8900    0.7330   -0.1270 C   0  0  0  0  0  0  0  0  0  0  0  0
   -1.6750    1.7920    0.6380 C   0  0  0  0  0  0  0  0  0  0  0  0
   -1.5380   -0.3710   -0.3730 C   0  0  0  0  0  0  0  0  0  0  0  0
   -2.9370   -0.5730    0.0680 C   0  0  0  0  0  0  0  0  0  0  0  0
   -3.0410   -1.7170    0.9630 N   0  0  0  0  0  0  0  0  0  0  0  0
  1  2  1  0
  2  3  1  0
  3  4  1  0
  4  5  1  0
  5  6  1  0
  6  7  1  0
  6  8  2  3
  8  9  1  0
  9 10  1  0
M  END
