
     RDKit          3D

 10  9  0  0  0  0  0  0  0  0999 V2000
    1.4300    2.5210    0.8480 C   0  0  0  0  0  0  0  0  0  0  0  0
    1.7970    1.2730    0.6240 C   0  0  0  0  0  0  0  0  0  0  0  0
    0.9460    0.2920   -0.0370 C   0  0  0  0  0  0  0  0  0  0  0  0
    1.4290   -0.9140   -0.2010 C   0  0  0  0  0  0  0  0  0  0  0  0
    2.7960   -1.2700    0.2710 C   0  0  0  0  0  0  0  0  0  0  0  0
   -0.4050    0.7320   -0.4580 C   0  0  0  0  0  0  0  0  0  0  0  0
   -1.2090   -0.2950   -1.0120 N   0  0  0  0  0  0  0  0  0  0  0  0
   -1.7170   -1.2540   -0.0910 C   0  0  0  0  0  0  0  0  0  0  0  0
   -2.8060   -0.5320    0.7280 C   0  0  0  0  0  0  0  0  0  0  0  0
   -3.7580   -0.1260   -0.2410 O   0  0  0  0  0  0  0  0  0  0  0  0
  1  2  2  0
  2  3  1  0
  3  4  2  3
  3  6  1  0
  4  5  1  0
  6  7  1  0
  7  8  1  0
  8  9  1  0
  9 10  1  0
M  END
