
     RDKit          3D

 10  9  0  0  0  0  0  0  0  0999 V2000
    3.1530   -1.0270    0.3700 C   0  0  0  0  0  0  0  0  0  0  0  0
    1.6940   -1.0580   -0.1390 C   0  0  0  0  0  0  0  0  0  0  0  0
    1.2130    0.3230   -0.2890 C   0  0  0  0  0  0  0  0  0  0  0  0
   -0.1170    0.6410   -0.7900 C   0  0  1  0  0  0  0  0  0  0  0  0
   -1.3620    0.2380   -0.1350 C   0  0  0  0  0  0  0  0  0  0  0  0
   -1.5950   -1.2260    0.0230 C   0  0  0  0  0  0  0  0  0  0  0  0
   -3.0100   -1.3390    0.6620 C   0  0  0  0  0  0  0  0  0  0  0  0
   -0.1760    2.1710   -0.8520 C   0  0  0  0  0  0  0  0  0  0  0  0
    0.0220    2.8460    0.3830 N   0  0  0  0  0  0  0  0  0  0  0  0
   -0.3850    2.7320   -1.9310 O   0  0  0  0  0  0  0  0  0  0  0  0
  1  2  1  0
  2  3  1  0
  4  3  1  1
  4  5  1  0
  4  8  1  0
  5  6  1  0
  6  7  1  0
  8  9  1  0
  8 10  2  0
M  END
