
     RDKit          3D

 10  9  0  0  0  0  0  0  0  0999 V2000
    4.0050    1.2520   -0.1130 C   0  0  0  0  0  0  0  0  0  0  0  0
    3.0460    0.1610   -0.2500 C   0  0  0  0  0  0  0  0  0  0  0  0
    1.7430    0.3420   -0.2090 C   0  0  0  0  0  0  0  0  0  0  0  0
    0.8530   -0.8110   -0.3570 C   0  0  0  0  0  0  0  0  0  0  0  0
   -0.4460   -0.7710   -0.3290 C   0  0  0  0  0  0  0  0  0  0  0  0
   -1.1800   -2.0680   -0.5000 C   0  0  0  0  0  0  0  0  0  0  0  0
   -0.2900   -3.1180   -0.6630 O   0  0  0  0  0  0  0  0  0  0  0  0
   -1.2120    0.4160   -0.1740 N   0  0  0  0  0  0  0  0  0  0  0  0
   -2.3070    0.3990    0.7830 C   0  0  0  0  0  0  0  0  0  0  0  0
   -3.2280    1.5990    0.6260 C   0  0  0  0  0  0  0  0  0  0  0  0
  1  2  1  0
  2  3  2  3
  3  4  1  0
  4  5  2  3
  5  6  1  0
  5  8  1  0
  6  7  1  0
  8  9  1  0
  9 10  1  0
M  END
