
     RDKit          3D

 10  9  0  0  0  0  0  0  0  0999 V2000
   -1.7800    2.7200   -0.7760 C   0  0  0  0  0  0  0  0  0  0  0  0
   -1.9500    1.9650    0.3190 C   0  0  0  0  0  0  0  0  0  0  0  0
   -1.5650    0.5640    0.3000 C   0  0  0  0  0  0  0  0  0  0  0  0
   -1.7480   -0.1570    1.3930 C   0  0  0  0  0  0  0  0  0  0  0  0
   -1.3940   -1.6010    1.4950 C   0  0  0  0  0  0  0  0  0  0  0  0
   -1.0050    0.0360   -0.8910 N   0  0  0  0  0  0  0  0  0  0  0  0
    0.3710    0.1940   -1.2250 C   0  0  0  0  0  0  0  0  0  0  0  0
    1.3140   -0.5940   -0.3050 C   0  0  0  0  0  0  0  0  0  0  0  0
    2.5970   -0.3250   -0.7740 O   0  0  0  0  0  0  0  0  0  0  0  0
    3.5930   -0.9530   -0.0450 C   0  0  0  0  0  0  0  0  0  0  0  0
  1  2  2  0
  2  3  1  0
  3  4  2  3
  3  6  1  0
  4  5  1  0
  6  7  1  0
  7  8  1  0
  8  9  1  0
  9 10  1  0
M  END
