
     RDKit          3D

 10  9  0  0  0  0  0  0  0  0999 V2000
    3.9110   -0.9980   -0.4510 N   0  0  0  0  0  0  0  0  0  0  0  0
    2.7770   -0.2170   -0.9490 C   0  0  0  0  0  0  0  0  0  0  0  0
    2.6150    0.9490   -0.0780 C   0  0  0  0  0  0  0  0  0  0  0  0
    1.5640    1.2700    0.6410 C   0  0  0  0  0  0  0  0  0  0  0  0
    0.3360    0.4830    0.6920 C   0  0  0  0  0  0  0  0  0  0  0  0
   -0.6770    0.8540    1.4260 C   0  0  0  0  0  0  0  0  0  0  0  0
   -1.9760    0.2560    1.6350 C   0  0  0  0  0  0  0  0  0  0  0  0
   -2.3480   -0.9570    0.8820 C   0  0  0  0  0  0  0  0  0  0  0  0
   -2.4690   -0.7290   -0.5900 C   0  0  0  0  0  0  0  0  0  0  0  0
   -3.4920    0.2390   -0.7560 O   0  0  0  0  0  0  0  0  0  0  0  0
  1  2  1  0
  2  3  1  0
  3  4  2  3
  4  5  1  0
  5  6  2  3
  6  7  1  0
  7  8  1  0
  8  9  1  0
  9 10  1  0
M  END
