
     RDKit          3D

 37 42  0  0  0  0  0  0  0  0999 V2000
    7.3450   -4.0670   -0.5370 C   0  0  0  0  0  0  0  0  0  0  0  0
    6.0050   -4.0890   -0.2240 C   0  0  0  0  0  0  0  0  0  0  0  0
    5.2980   -2.9170   -0.0210 C   0  0  0  0  0  0  0  0  0  0  0  0
    5.9610   -1.7140   -0.1380 C   0  0  0  0  0  0  0  0  0  0  0  0
    5.2690   -0.5400    0.0610 C   0  0  0  0  0  0  0  0  0  0  0  0
    3.8940   -0.4650    0.3860 N   0  0  0  0  0  0  0  0  0  0  0  0
    2.9550   -0.3900   -0.7160 C   0  0  0  0  0  0  0  0  0  0  0  0
    1.5210   -0.3140   -0.2340 C   0  0  0  0  0  0  0  0  0  0  0  0
    1.1650   -1.5250    0.5780 C   0  0  0  0  0  0  0  0  0  0  0  0
   -0.2770   -1.4210    1.0510 C   0  0  0  0  0  0  0  0  0  0  0  0
   -1.2300   -1.3340   -0.1030 C   0  0  0  0  0  0  0  0  0  0  0  0
   -2.6410   -1.2570    0.4140 C   0  0  0  0  0  0  0  0  0  0  0  0
   -2.9040   -0.0820    1.2810 C   0  0  0  0  0  0  0  0  0  0  0  0
   -4.2380    0.0680    1.7710 N   0  0  0  0  0  0  0  0  0  0  0  0
   -5.3810    0.2160    0.9250 C   0  0  0  0  0  0  0  0  0  0  0  0
   -5.7280    1.4660    0.4170 C   0  0  0  0  0  0  0  0  0  0  0  0
   -6.8300    1.6040   -0.3930 C   0  0  0  0  0  0  0  0  0  0  0  0
   -7.5390    0.4950   -0.6610 N   0  0  0  0  0  0  0  0  0  0  0  0
   -7.2380   -0.7280   -0.1910 C   0  0  0  0  0  0  0  0  0  0  0  0
   -8.0110   -1.8400   -0.4930 C   0  0  0  0  0  0  0  0  0  0  0  0
   -7.7290   -3.1030   -0.0160 C   0  0  0  0  0  0  0  0  0  0  0  0
   -6.6320   -3.2810    0.8010 C   0  0  0  0  0  0  0  0  0  0  0  0
   -5.8510   -2.1670    1.1080 C   0  0  0  0  0  0  0  0  0  0  0  0
   -6.1240   -0.9010    0.6350 C   0  0  0  0  0  0  0  0  0  0  0  0
   -7.2300    2.9410   -0.9560 C   0  0  0  0  0  0  0  0  0  0  0  0
   -6.0870    3.9040   -0.8540 C   0  0  0  0  0  0  0  0  0  0  0  0
   -5.6280    3.9140    0.6100 C   0  0  0  0  0  0  0  0  0  0  0  0
   -4.8590    2.6120    0.7910 C   0  0  0  0  0  0  0  0  0  0  0  0
    5.9850    0.6260   -0.0690 C   0  0  0  0  0  0  0  0  0  0  0  0
    7.3270    0.6370   -0.3830 C   0  0  0  0  0  0  0  0  0  0  0  0
    7.9720   -0.5250   -0.5710 N   0  0  0  0  0  0  0  0  0  0  0  0
    7.3190   -1.6860   -0.4550 C   0  0  0  0  0  0  0  0  0  0  0  0
    8.0100   -2.8590   -0.6540 C   0  0  0  0  0  0  0  0  0  0  0  0
    7.9810    1.9670   -0.4940 C   0  0  0  0  0  0  0  0  0  0  0  0
    7.1470    2.8490   -1.3690 C   0  0  0  0  0  0  0  0  0  0  0  0
    5.7000    2.8900   -1.0050 C   0  0  0  0  0  0  0  0  0  0  0  0
    5.3440    1.9670    0.1240 C   0  0  0  0  0  0  0  0  0  0  0  0
  1  2  2  0
  1 33  1  0
  2  3  1  0
  3  4  2  0
  4  5  1  0
  4 32  1  0
  5  6  1  0
  5 29  2  0
  6  7  1  0
  7  8  1  0
  8  9  1  0
  9 10  1  0
 10 11  1  0
 11 12  1  0
 12 13  1  0
 13 14  1  0
 14 15  1  0
 15 16  2  0
 15 24  1  0
 16 17  1  0
 16 28  1  0
 17 18  2  0
 17 25  1  0
 18 19  1  0
 19 20  2  0
 19 24  1  0
 20 21  1  0
 21 22  2  0
 22 23  1  0
 23 24  2  0
 25 26  1  0
 26 27  1  0
 27 28  1  0
 29 30  1  0
 29 37  1  0
 30 31  2  0
 30 34  1  0
 31 32  1  0
 32 33  2  0
 34 35  1  0
 35 36  1  0
 36 37  1  0
M  END
