
     RDKit          3D

 36 39  0  0  0  0  0  0  0  0999 V2000
   -4.7020   -0.0810   -2.6470 C   0  0  0  0  0  0  0  0  0  0  0  0
   -5.6600    0.4220   -1.5870 C   0  0  0  0  0  0  0  0  0  0  0  0
   -6.3120   -0.6690   -1.0130 O   0  0  0  0  0  0  0  0  0  0  0  0
   -5.3850   -1.5470   -0.4210 C   0  0  0  0  0  0  0  0  0  0  0  0
   -4.6150   -0.8460    0.6430 C   0  0  0  0  0  0  0  0  0  0  0  0
   -3.3240   -0.7850    0.4800 N   0  0  0  0  0  0  0  0  0  0  0  0
   -2.3430   -0.1740    1.3410 C   0  0  0  0  0  0  0  0  0  0  0  0
   -0.9540   -0.4820    1.0590 C   0  0  0  0  0  0  0  0  0  0  0  0
    0.3010    0.1990    2.0530 Cl  0  0  0  0  0  0  0  0  0  0  0  0
   -0.6420   -1.2800    0.0650 C   0  0  0  0  0  0  0  0  0  0  0  0
    0.7070   -1.6590   -0.3130 C   0  0  0  0  0  0  0  0  0  0  0  0
    1.7670   -0.8020   -0.3350 C   0  0  0  0  0  0  0  0  0  0  0  0
    3.0360   -1.2290   -0.7000 C   0  0  0  0  0  0  0  0  0  0  0  0
    4.1490   -0.3430   -0.7260 N   0  0  0  0  0  0  0  0  0  0  0  0
    5.4430   -0.7750   -1.1010 C   0  0  0  0  0  0  0  0  0  0  0  0
    5.5110   -2.0190   -1.4090 O   0  0  0  0  0  0  0  0  0  0  0  0
    6.6270    0.0630   -1.1540 C   0  0  0  0  0  0  0  0  0  0  0  0
    6.8380    1.3860   -0.8730 C   0  0  0  0  0  0  0  0  0  0  0  0
    5.6190    2.4990   -0.3280 Cl  0  0  0  0  0  0  0  0  0  0  0  0
    8.1300    1.7300   -1.0740 N   0  0  0  0  0  0  0  0  0  0  0  0
    8.7800    0.6330   -1.4880 C   0  0  0  0  0  0  0  0  0  0  0  0
   10.2440    0.5700   -1.8290 C   0  0  0  0  0  0  0  0  0  0  0  0
    7.8830   -0.4090   -1.5470 C   0  0  0  0  0  0  0  0  0  0  0  0
    8.2700   -2.0450   -2.0370 Cl  0  0  0  0  0  0  0  0  0  0  0  0
    3.1640   -2.5250   -1.0300 N   0  0  0  0  0  0  0  0  0  0  0  0
    2.1570   -3.3940   -1.0220 C   0  0  0  0  0  0  0  0  0  0  0  0
    0.9220   -2.9530   -0.6610 N   0  0  0  0  0  0  0  0  0  0  0  0
   -2.5510    0.6360    2.3610 C   0  0  0  0  0  0  0  0  0  0  0  0
   -3.8290    1.1650    2.9310 C   0  0  0  0  0  0  0  0  0  0  0  0
   -3.6890    2.2010    3.8540 C   0  0  0  0  0  0  0  0  0  0  0  0
   -5.3480    2.6010    4.3390 S   0  0  0  0  0  0  0  0  0  0  0  0
   -6.1380    1.3340    3.2570 C   0  0  0  0  0  0  0  0  0  0  0  0
   -7.5820    1.1610    3.2020 C   0  0  0  0  0  0  0  0  0  0  0  0
   -8.1800    0.3350    2.4890 O   0  0  0  0  0  0  0  0  0  0  0  0
   -5.0700    0.7550    2.6540 C   0  0  0  0  0  0  0  0  0  0  0  0
   -5.3930   -0.3310    1.7080 N   0  0  0  0  0  0  0  0  0  0  0  0
  1  2  1  0
  2  3  1  0
  3  4  1  0
  4  5  1  0
  5  6  2  0
  5 36  1  0
  6  7  1  0
  7  8  1  0
  7 28  2  0
  8  9  1  0
  8 10  2  3
 10 11  1  0
 11 12  2  0
 11 27  1  0
 12 13  1  0
 13 14  1  0
 13 25  2  0
 14 15  1  0
 15 16  2  0
 15 17  1  0
 17 18  2  0
 17 23  1  0
 18 19  1  0
 18 20  1  0
 20 21  1  0
 21 22  1  0
 21 23  2  0
 23 24  1  0
 25 26  1  0
 26 27  2  0
 28 29  1  0
 29 30  2  0
 29 35  1  0
 30 31  1  0
 31 32  1  0
 32 33  1  0
 32 35  2  0
 33 34  2  0
 35 36  1  0
M  END
