
     RDKit          3D

 36 39  0  0  0  0  0  0  0  0999 V2000
   10.6530    0.4780   -0.2570 C   0  0  0  0  0  0  0  0  0  0  0  0
   10.5560   -0.8010   -0.9610 C   0  0  0  0  0  0  0  0  0  0  0  0
    9.4170   -1.3070   -1.2560 N   0  0  0  0  0  0  0  0  0  0  0  0
    8.2570   -0.6880   -0.9190 N   0  0  0  0  0  0  0  0  0  0  0  0
    7.6050   -1.0340    0.4220 C   0  0  0  0  0  0  0  0  0  0  0  0
    8.2260   -1.8450    1.0680 O   0  0  0  0  0  0  0  0  0  0  0  0
    6.4480   -0.3330    0.5780 N   0  0  0  0  0  0  0  0  0  0  0  0
    6.1860   -0.6970    2.2490 C   0  0  0  0  0  0  0  0  0  0  0  0
    7.0570   -1.3050    2.7630 O   0  0  0  0  0  0  0  0  0  0  0  0
    4.9270   -0.2220    2.7690 C   0  0  0  0  0  0  0  0  0  0  0  0
    3.6530   -1.3990    2.1000 S   0  0  0  0  0  0  0  0  0  0  0  0
    3.0500   -0.7000    0.5540 C   0  0  0  0  0  0  0  0  0  0  0  0
    3.4660   -0.5630   -0.6290 N   0  0  0  0  0  0  0  0  0  0  0  0
    2.5000    0.0470   -1.3620 N   0  0  0  0  0  0  0  0  0  0  0  0
    1.4900    0.2860   -0.6420 C   0  0  0  0  0  0  0  0  0  0  0  0
    0.1450    0.8780   -0.9100 C   0  0  0  0  0  0  0  0  0  0  0  0
   -0.0790    1.7400   -1.9250 C   0  0  0  0  0  0  0  0  0  0  0  0
   -1.4200    2.0970   -2.2050 C   0  0  0  0  0  0  0  0  0  0  0  0
   -1.7170    3.1900   -3.5250 Cl  0  0  0  0  0  0  0  0  0  0  0  0
   -2.4360    1.5630   -1.4660 C   0  0  0  0  0  0  0  0  0  0  0  0
   -2.2050    0.6710   -0.4340 C   0  0  0  0  0  0  0  0  0  0  0  0
   -3.1870   -0.0610    0.2120 N   0  0  0  0  0  0  0  0  0  0  0  0
   -4.5820   -0.0910    0.0570 C   0  0  0  0  0  0  0  0  0  0  0  0
   -5.4090    0.9860    0.0530 C   0  0  0  0  0  0  0  0  0  0  0  0
   -6.8160    0.8810    0.0210 C   0  0  0  0  0  0  0  0  0  0  0  0
   -7.3460   -0.3910   -0.0120 C   0  0  0  0  0  0  0  0  0  0  0  0
   -6.5220   -1.4840   -0.0110 C   0  0  0  0  0  0  0  0  0  0  0  0
   -5.1750   -1.3890    0.0240 C   0  0  0  0  0  0  0  0  0  0  0  0
   -4.2790   -2.5560   -0.0440 C   0  0  0  0  0  0  0  0  0  0  0  0
   -8.8150   -0.2710   -0.0870 C   0  0  1  0  0  0  0  0  0  0  0  0
   -9.3510    0.0950   -1.7720 Cl  0  0  0  0  0  0  0  0  0  0  0  0
   -9.6990   -1.6280    0.5550 Cl  0  0  0  0  0  0  0  0  0  0  0  0
   -8.9920    0.9890    0.7890 C   0  0  0  0  0  0  0  0  0  0  0  0
   -7.9060    1.8780    0.0990 C   0  0  0  0  0  0  0  0  0  0  0  0
   -0.8640    0.3620   -0.1810 C   0  0  0  0  0  0  0  0  0  0  0  0
    1.7820   -0.1760    0.6110 O   0  0  0  0  0  0  0  0  0  0  0  0
  1  2  1  0
  2  3  2  3
  3  4  1  0
  4  5  1  0
  5  6  2  0
  5  7  1  0
  7  8  1  0
  8  9  2  0
  8 10  1  0
 10 11  1  0
 11 12  1  0
 12 13  2  0
 12 36  1  0
 13 14  1  0
 14 15  2  0
 15 16  1  0
 15 36  1  0
 16 17  2  0
 16 35  1  0
 17 18  1  0
 18 19  1  0
 18 20  2  0
 20 21  1  0
 21 22  1  0
 21 35  2  0
 22 23  1  0
 23 24  2  0
 23 28  1  0
 24 25  1  0
 25 26  2  0
 25 34  1  0
 26 27  1  0
 26 30  1  0
 27 28  2  0
 28 29  1  0
 30 31  1  6
 30 32  1  0
 30 33  1  0
 33 34  1  0
M  END
