
     RDKit          3D

 36 40  0  0  0  0  0  0  0  0999 V2000
   10.2640    1.0770   -1.1920 C   0  0  0  0  0  0  0  0  0  0  0  0
    9.0980    0.7610   -0.2890 C   0  0  0  0  0  0  0  0  0  0  0  0
    7.8330    1.2930   -0.3820 C   0  0  0  0  0  0  0  0  0  0  0  0
    7.0550    0.7130    0.6330 C   0  0  0  0  0  0  0  0  0  0  0  0
    5.6260    1.0190    0.7070 C   0  0  0  0  0  0  0  0  0  0  0  0
    5.3200    2.2230    0.9010 O   0  0  0  0  0  0  0  0  0  0  0  0
    4.6220    0.0640    0.5650 N   0  0  0  0  0  0  0  0  0  0  0  0
    3.2260    0.2160    0.6060 C   0  0  0  0  0  0  0  0  0  0  0  0
    2.6170    1.3510    1.0660 C   0  0  0  0  0  0  0  0  0  0  0  0
    1.2200    1.4860    1.0910 C   0  0  0  0  0  0  0  0  0  0  0  0
    0.4350    0.4530    0.6410 C   0  0  0  0  0  0  0  0  0  0  0  0
   -0.9390    0.5140    0.5840 C   0  0  0  0  0  0  0  0  0  0  0  0
   -1.5000    1.5590    1.0050 O   0  0  0  0  0  0  0  0  0  0  0  0
   -1.6870   -0.5110    0.0890 N   0  0  0  0  0  0  0  0  0  0  0  0
   -3.0910   -0.3540    0.0010 C   0  0  0  0  0  0  0  0  0  0  0  0
   -3.6360    0.6430   -0.8200 C   0  0  0  0  0  0  0  0  0  0  0  0
   -4.9730    0.8210   -0.9750 C   0  0  0  0  0  0  0  0  0  0  0  0
   -5.8870    0.0020   -0.3130 C   0  0  0  0  0  0  0  0  0  0  0  0
   -5.3690   -0.9780    0.4980 C   0  0  0  0  0  0  0  0  0  0  0  0
   -3.9950   -1.1410    0.6440 C   0  0  0  0  0  0  0  0  0  0  0  0
   -3.5900   -2.1190    1.5090 F   0  0  0  0  0  0  0  0  0  0  0  0
   -7.2980    0.2710   -0.5780 C   0  0  2  0  0  0  0  0  0  0  0  0
   -8.2840   -0.7100   -0.0650 C   0  0  0  0  0  0  0  0  0  0  0  0
   -8.2360   -0.8450    1.3560 N   0  0  0  0  0  0  0  0  0  0  0  0
   -7.4750    0.4980   -2.0760 C   0  0  0  0  0  0  0  0  0  0  0  0
   -6.8060    1.8270   -2.3760 C   0  0  0  0  0  0  0  0  0  0  0  0
   -5.4820    1.8730   -1.8040 N   0  0  0  0  0  0  0  0  0  0  0  0
   -1.0360   -1.5970   -0.3410 C   0  0  0  0  0  0  0  0  0  0  0  0
   -1.7070   -2.5730   -0.8450 N   0  0  0  0  0  0  0  0  0  0  0  0
    0.3270   -1.7050   -0.3030 N   0  0  0  0  0  0  0  0  0  0  0  0
    1.0640   -0.6880    0.1820 C   0  0  0  0  0  0  0  0  0  0  0  0
    2.4200   -0.8200    0.1590 C   0  0  0  0  0  0  0  0  0  0  0  0
    3.0210   -1.9380   -0.2970 F   0  0  0  0  0  0  0  0  0  0  0  0
    7.8460   -0.1390    1.3120 C   0  0  0  0  0  0  0  0  0  0  0  0
    7.4590   -0.9530    2.4840 C   0  0  0  0  0  0  0  0  0  0  0  0
    9.0820   -0.1060    0.7480 N   0  0  0  0  0  0  0  0  0  0  0  0
  1  2  1  0
  2  3  2  0
  2 36  1  0
  3  4  1  0
  4  5  1  0
  4 34  2  0
  5  6  2  0
  5  7  1  0
  7  8  1  0
  8  9  2  0
  8 32  1  0
  9 10  1  0
 10 11  2  0
 11 12  1  0
 11 31  1  0
 12 13  2  0
 12 14  1  0
 14 15  1  0
 14 28  1  0
 15 16  2  0
 15 20  1  0
 16 17  1  0
 17 18  2  0
 17 27  1  0
 18 19  1  0
 18 22  1  0
 19 20  2  0
 20 21  1  0
 22 23  1  6
 22 25  1  0
 23 24  1  0
 25 26  1  0
 26 27  1  0
 28 29  2  0
 28 30  1  0
 30 31  1  0
 31 32  2  0
 32 33  1  0
 34 35  1  0
 34 36  1  0
M  END
