
     RDKit          3D

 36 39  0  0  0  0  0  0  0  0999 V2000
   -3.7420    4.4140    0.1900 C   0  0  0  0  0  0  0  0  0  0  0  0
   -4.7400    3.4720   -0.3160 C   0  0  0  0  0  0  0  0  0  0  0  0
   -4.5390    2.1590   -0.5570 C   0  0  0  0  0  0  0  0  0  0  0  0
   -5.6690    1.4440   -1.0480 C   0  0  0  0  0  0  0  0  0  0  0  0
   -6.8000    1.9750   -1.2300 N   0  0  0  0  0  0  0  0  0  0  0  0
   -5.6000    0.1050   -1.3680 O   0  0  0  0  0  0  0  0  0  0  0  0
   -3.1840    1.6950   -0.3170 C   0  0  0  0  0  0  0  0  0  0  0  0
   -2.1200    2.5660   -0.0890 N   0  0  0  0  0  0  0  0  0  0  0  0
   -1.0240    1.8970    0.1400 N   0  0  0  0  0  0  0  0  0  0  0  0
   -1.3270    0.6010    0.0720 C   0  0  0  0  0  0  0  0  0  0  0  0
   -0.2610   -0.8090    0.3080 S   0  0  0  0  0  0  0  0  0  0  0  0
    1.4060   -0.3060    0.7320 C   0  0  0  0  0  0  0  0  0  0  0  0
    2.2220   -1.5640    0.8750 C   0  0  0  0  0  0  0  0  0  0  0  0
    1.7800   -2.8400    0.6740 N   0  0  0  0  0  0  0  0  0  0  0  0
    2.7400   -3.6850    0.8650 O   0  0  0  0  0  0  0  0  0  0  0  0
    3.8360   -3.0310    1.1930 C   0  0  0  0  0  0  0  0  0  0  0  0
    5.1570   -3.6870    1.4890 C   0  0  0  0  0  0  0  0  0  0  0  0
    3.5530   -1.6820    1.2120 C   0  0  0  0  0  0  0  0  0  0  0  0
    4.4490   -0.5970    1.5580 C   0  0  0  0  0  0  0  0  0  0  0  0
    4.9260    0.2440    0.4640 C   0  0  0  0  0  0  0  0  0  0  0  0
    4.8650   -0.0810   -0.8600 C   0  0  0  0  0  0  0  0  0  0  0  0
    4.1860   -1.6360   -1.3510 Cl  0  0  0  0  0  0  0  0  0  0  0  0
    5.3390    0.7940   -1.8160 C   0  0  0  0  0  0  0  0  0  0  0  0
    5.8560    1.9610   -1.4280 N   0  0  0  0  0  0  0  0  0  0  0  0
    5.9450    2.3370   -0.1420 C   0  0  0  0  0  0  0  0  0  0  0  0
    6.5040    3.5830    0.2070 O   0  0  0  0  0  0  0  0  0  0  0  0
    5.4800    1.4840    0.8220 C   0  0  0  0  0  0  0  0  0  0  0  0
    5.5870    1.9500    2.5050 Cl  0  0  0  0  0  0  0  0  0  0  0  0
   -2.6820    0.4840   -0.2140 N   0  0  0  0  0  0  0  0  0  0  0  0
   -3.2520   -0.7920   -0.2920 C   0  0  0  0  0  0  0  0  0  0  0  0
   -3.9640   -1.2940    0.8050 C   0  0  0  0  0  0  0  0  0  0  0  0
   -4.4830   -2.5570    0.8110 C   0  0  0  0  0  0  0  0  0  0  0  0
   -4.3350   -3.4100   -0.2660 C   0  0  0  0  0  0  0  0  0  0  0  0
   -5.0060   -5.0260   -0.2440 Cl  0  0  0  0  0  0  0  0  0  0  0  0
   -3.6270   -2.9090   -1.3560 C   0  0  0  0  0  0  0  0  0  0  0  0
   -3.1040   -1.6420   -1.3660 C   0  0  0  0  0  0  0  0  0  0  0  0
  1  2  1  0
  2  3  2  3
  3  4  1  0
  3  7  1  0
  4  5  2  0
  4  6  1  0
  7  8  2  0
  7 29  1  0
  8  9  1  0
  9 10  2  0
 10 11  1  0
 10 29  1  0
 11 12  1  0
 12 13  1  0
 13 14  2  0
 13 18  1  0
 14 15  1  0
 15 16  1  0
 16 17  1  0
 16 18  2  0
 18 19  1  0
 19 20  1  0
 20 21  2  0
 20 27  1  0
 21 22  1  0
 21 23  1  0
 23 24  2  0
 24 25  1  0
 25 26  1  0
 25 27  2  0
 27 28  1  0
 29 30  1  0
 30 31  2  0
 30 36  1  0
 31 32  1  0
 32 33  2  0
 33 34  1  0
 33 35  1  0
 35 36  2  0
M  END
