
     RDKit          3D

 36 39  0  0  0  0  0  0  0  0999 V2000
   -3.4740   -4.8650   -2.1530 C   0  0  0  0  0  0  0  0  0  0  0  0
   -3.4860   -3.6670   -2.9410 O   0  0  0  0  0  0  0  0  0  0  0  0
   -3.9830   -2.5250   -2.2260 C   0  0  0  0  0  0  0  0  0  0  0  0
   -2.9590   -1.7230   -1.5940 C   0  0  0  0  0  0  0  0  0  0  0  0
   -1.7440   -2.1240   -1.7460 O   0  0  0  0  0  0  0  0  0  0  0  0
   -3.2200   -0.5600   -0.8430 N   0  0  0  0  0  0  0  0  0  0  0  0
   -2.2520    0.2450   -0.2140 C   0  0  0  0  0  0  0  0  0  0  0  0
   -0.9120    0.0100   -0.2500 C   0  0  0  0  0  0  0  0  0  0  0  0
    0.0460    0.8160    0.3780 C   0  0  0  0  0  0  0  0  0  0  0  0
    1.4390    0.5990    0.3600 N   0  0  0  0  0  0  0  0  0  0  0  0
    2.1240   -0.4380   -0.2840 C   0  0  0  0  0  0  0  0  0  0  0  0
    1.4830   -1.2970   -0.9320 O   0  0  0  0  0  0  0  0  0  0  0  0
    3.6030   -0.5860   -0.2460 C   0  0  0  0  0  0  0  0  0  0  0  0
    4.3630    0.2320    0.3860 C   0  0  0  0  0  0  0  0  0  0  0  0
    5.7930    0.2600    0.5390 C   0  0  0  0  0  0  0  0  0  0  0  0
    6.4670    1.2340    1.3000 C   0  0  0  0  0  0  0  0  0  0  0  0
    7.7620    0.9880    1.2380 N   0  0  0  0  0  0  0  0  0  0  0  0
    7.9910   -0.0960    0.4800 C   0  0  0  0  0  0  0  0  0  0  0  0
    9.1540   -0.6870    0.1570 N   0  0  0  0  0  0  0  0  0  0  0  0
    9.1120   -1.7550   -0.6170 N   0  0  0  0  0  0  0  0  0  0  0  0
    7.9710   -2.2460   -1.0720 C   0  0  0  0  0  0  0  0  0  0  0  0
    6.7730   -1.6100   -0.7200 C   0  0  0  0  0  0  0  0  0  0  0  0
    6.7750   -0.5250    0.0630 N   0  0  0  0  0  0  0  0  0  0  0  0
   -0.4540    1.9220    1.0730 C   0  0  0  0  0  0  0  0  0  0  0  0
    0.6920    2.9880    1.8910 Cl  0  0  0  0  0  0  0  0  0  0  0  0
   -1.7920    2.1540    1.1070 C   0  0  0  0  0  0  0  0  0  0  0  0
   -2.7260    1.3650    0.4930 C   0  0  0  0  0  0  0  0  0  0  0  0
   -4.1790    1.6620    0.5590 C   0  0  0  0  0  0  0  0  0  0  0  0
   -4.3030    2.9410    1.3930 C   0  0  0  0  0  0  0  0  0  0  0  0
   -4.4610    2.9530    2.7070 C   0  0  0  0  0  0  0  0  0  0  0  0
   -4.5660    4.1290    3.4010 C   0  0  0  0  0  0  0  0  0  0  0  0
   -4.4320    5.3410    2.0780 S   0  0  0  0  0  0  0  0  0  0  0  0
   -4.2520    4.2140    0.7550 C   0  0  0  0  0  0  0  0  0  0  0  0
   -5.2740   -2.3950   -2.2610 C   0  0  0  0  0  0  0  0  0  0  0  0
   -6.2530   -1.1530   -1.5250 Cl  0  0  0  0  0  0  0  0  0  0  0  0
   -6.2510   -3.6090   -3.1650 Cl  0  0  0  0  0  0  0  0  0  0  0  0
  1  2  1  0
  2  3  1  0
  3  4  1  0
  3 34  2  3
  4  5  2  0
  4  6  1  0
  6  7  1  0
  7  8  2  0
  7 27  1  0
  8  9  1  0
  9 10  1  0
  9 24  2  0
 10 11  1  0
 11 12  2  0
 11 13  1  0
 13 14  2  3
 14 15  1  0
 15 16  2  0
 15 23  1  0
 16 17  1  0
 17 18  2  0
 18 19  1  0
 18 23  1  0
 19 20  2  0
 20 21  1  0
 21 22  2  0
 22 23  1  0
 24 25  1  0
 24 26  1  0
 26 27  2  0
 27 28  1  0
 28 29  1  0
 29 30  1  0
 29 33  2  0
 30 31  2  0
 31 32  1  0
 32 33  1  0
 34 35  1  0
 34 36  1  0
M  END
