
     RDKit          3D

 37 41  0  0  0  0  0  0  0  0999 V2000
   -6.5720   -2.2290   -1.1360 C   0  0  0  0  0  0  0  0  0  0  0  0
   -5.3060   -1.4940   -0.9440 C   0  0  0  0  0  0  0  0  0  0  0  0
   -4.1240   -1.9990   -1.4050 N   0  0  0  0  0  0  0  0  0  0  0  0
   -2.9730   -1.3950   -1.2640 N   0  0  0  0  0  0  0  0  0  0  0  0
   -2.8580   -0.1920   -0.6350 C   0  0  0  0  0  0  0  0  0  0  0  0
   -1.5760    0.3870   -0.4480 N   0  0  0  0  0  0  0  0  0  0  0  0
   -0.4500   -0.4860   -0.6390 N   0  0  0  0  0  0  0  0  0  0  0  0
    0.6130   -0.4650    0.2660 C   0  0  0  0  0  0  0  0  0  0  0  0
    0.5150    0.4100    1.2320 O   0  0  0  0  0  0  0  0  0  0  0  0
    1.8120   -1.2910    0.2750 C   0  0  2  0  0  0  0  0  0  0  0  0
    2.9910   -0.7410    0.8210 N   0  0  0  0  0  0  0  0  0  0  0  0
    3.7470    0.3270    0.2450 C   0  0  0  0  0  0  0  0  0  0  0  0
    3.3040    0.7880   -0.8380 O   0  0  0  0  0  0  0  0  0  0  0  0
    4.9160    0.8350    0.8420 N   0  0  0  0  0  0  0  0  0  0  0  0
    5.7390    1.8460    0.3080 C   0  0  0  0  0  0  0  0  0  0  0  0
    5.7870    2.1690   -1.0180 C   0  0  0  0  0  0  0  0  0  0  0  0
    6.6170    3.1920   -1.4660 C   0  0  0  0  0  0  0  0  0  0  0  0
    6.6400    3.4750   -2.7710 F   0  0  0  0  0  0  0  0  0  0  0  0
    7.4020    3.8910   -0.5770 C   0  0  0  0  0  0  0  0  0  0  0  0
    8.1850    4.8690   -1.0490 F   0  0  0  0  0  0  0  0  0  0  0  0
    7.3650    3.5790    0.7500 C   0  0  0  0  0  0  0  0  0  0  0  0
    8.1450    4.2760    1.6080 F   0  0  0  0  0  0  0  0  0  0  0  0
    6.5390    2.5640    1.1800 C   0  0  0  0  0  0  0  0  0  0  0  0
    2.0130   -1.8100   -1.1490 C   0  0  0  0  0  0  0  0  0  0  0  0
    3.2120   -2.7490   -1.1820 C   0  0  0  0  0  0  0  0  0  0  0  0
    2.9560   -3.9290   -0.3050 C   0  0  0  0  0  0  0  0  0  0  0  0
    2.6170   -3.4840    1.0960 C   0  0  0  0  0  0  0  0  0  0  0  0
    1.4570   -2.5540    1.0640 C   0  0  0  0  0  0  0  0  0  0  0  0
   -4.0010    0.3730   -0.1500 C   0  0  0  0  0  0  0  0  0  0  0  0
   -4.2900    1.5350    0.5360 C   0  0  0  0  0  0  0  0  0  0  0  0
   -5.6080    1.6090    0.7970 N   0  0  0  0  0  0  0  0  0  0  0  0
   -6.2020    0.5100    0.2930 C   0  0  0  0  0  0  0  0  0  0  0  0
   -7.6700    0.1970    0.3770 C   0  0  0  0  0  0  0  0  0  0  0  0
   -5.2340   -0.2740   -0.3000 C   0  0  0  0  0  0  0  0  0  0  0  0
   -5.8800    2.8350    1.5190 C   0  0  0  0  0  0  0  0  0  0  0  0
   -4.5650    3.4920    1.6620 C   0  0  0  0  0  0  0  0  0  0  0  0
   -3.6620    2.7090    1.0800 C   0  0  0  0  0  0  0  0  0  0  0  0
  1  2  1  0
  2  3  2  0
  2 34  1  0
  3  4  1  0
  4  5  2  0
  5  6  1  0
  5 29  1  0
  6  7  1  0
  7  8  1  0
  8  9  2  0
  8 10  1  0
 10 11  1  1
 10 24  1  0
 10 28  1  0
 11 12  1  0
 12 13  2  0
 12 14  1  0
 14 15  1  0
 15 16  2  0
 15 23  1  0
 16 17  1  0
 17 18  1  0
 17 19  2  0
 19 20  1  0
 19 21  1  0
 21 22  1  0
 21 23  2  0
 24 25  1  0
 25 26  1  0
 26 27  1  0
 27 28  1  0
 29 30  2  0
 29 34  1  0
 30 31  1  0
 30 37  1  0
 31 32  1  0
 31 35  1  0
 32 33  1  0
 32 34  2  0
 35 36  1  0
 36 37  2  0
M  END
