
     RDKit          3D

 36 39  0  0  0  0  0  0  0  0999 V2000
   -2.7530    2.3490    3.0180 C   0  0  0  0  0  0  0  0  0  0  0  0
   -3.9370    2.0090    2.7130 C   0  0  0  0  0  0  0  0  0  0  0  0
   -4.9650    2.2970    3.6440 O   0  0  0  0  0  0  0  0  0  0  0  0
   -4.3150    1.3280    1.4390 C   0  0  0  0  0  0  0  0  0  0  0  0
   -5.6000    1.0650    1.3530 C   0  0  0  0  0  0  0  0  0  0  0  0
   -6.3350    0.4260    0.2690 C   0  0  0  0  0  0  0  0  0  0  0  0
   -3.2930    0.9460    0.5370 N   0  0  0  0  0  0  0  0  0  0  0  0
   -2.1310    1.6370    0.3980 N   0  0  0  0  0  0  0  0  0  0  0  0
   -1.3010    1.0310   -0.4270 C   0  0  0  0  0  0  0  0  0  0  0  0
    0.3440    1.6120   -0.8900 S   0  0  0  0  0  0  0  0  0  0  0  0
    1.5130    0.9140    0.3140 C   0  0  0  0  0  0  0  0  0  0  0  0
    2.8970    1.3170    0.0280 C   0  0  0  0  0  0  0  0  0  0  0  0
    3.1090    2.0590   -0.9650 O   0  0  0  0  0  0  0  0  0  0  0  0
    3.9330    0.8530    0.8840 N   0  0  0  0  0  0  0  0  0  0  0  0
    5.2510    1.2500    0.5930 C   0  0  0  0  0  0  0  0  0  0  0  0
    5.6610    2.4560    1.1960 C   0  0  0  0  0  0  0  0  0  0  0  0
    4.5610    3.3110    2.2410 Cl  0  0  0  0  0  0  0  0  0  0  0  0
    6.9250    2.9130    0.9300 C   0  0  0  0  0  0  0  0  0  0  0  0
    7.4680    4.4230    1.6700 Cl  0  0  0  0  0  0  0  0  0  0  0  0
    7.7510    2.2440    0.1280 N   0  0  0  0  0  0  0  0  0  0  0  0
    7.3830    1.0820   -0.4630 C   0  0  0  0  0  0  0  0  0  0  0  0
    8.2010    0.5100   -1.1970 O   0  0  0  0  0  0  0  0  0  0  0  0
    6.0960    0.5740   -0.2210 C   0  0  0  0  0  0  0  0  0  0  0  0
    5.7000   -0.7170   -0.8220 C   0  0  0  0  0  0  0  0  0  0  0  0
    4.6490   -1.4660   -0.6180 C   0  0  0  0  0  0  0  0  0  0  0  0
    4.6570   -2.6990   -1.4570 C   0  0  2  0  0  0  0  0  0  0  0  0
    4.6490   -4.1060   -0.3700 Cl  0  0  0  0  0  0  0  0  0  0  0  0
    5.8930   -2.5620   -2.2110 C   0  0  0  0  0  0  0  0  0  0  0  0
    6.4920   -1.4220   -1.8430 C   0  0  0  0  0  0  0  0  0  0  0  0
   -1.9250   -0.0730   -0.8350 N   0  0  0  0  0  0  0  0  0  0  0  0
   -3.1710   -0.1190   -0.2250 C   0  0  0  0  0  0  0  0  0  0  0  0
   -3.9750   -1.2720   -0.4900 N   0  0  0  0  0  0  0  0  0  0  0  0
   -4.5440   -1.5910   -1.7790 C   0  0  0  0  0  0  0  0  0  0  0  0
   -5.6430   -2.5890   -1.5090 C   0  0  0  0  0  0  0  0  0  0  0  0
   -5.3370   -3.1870   -0.1740 C   0  0  0  0  0  0  0  0  0  0  0  0
   -4.3110   -2.3160    0.4470 C   0  0  0  0  0  0  0  0  0  0  0  0
  1  2  2  0
  2  3  1  0
  2  4  1  0
  4  5  2  3
  4  7  1  0
  5  6  1  0
  7  8  1  0
  7 31  1  0
  8  9  2  0
  9 10  1  0
  9 30  1  0
 10 11  1  0
 11 12  1  0
 12 13  2  0
 12 14  1  0
 14 15  1  0
 15 16  1  0
 15 23  2  0
 16 17  1  0
 16 18  2  0
 18 19  1  0
 18 20  1  0
 20 21  1  0
 21 22  2  0
 21 23  1  0
 23 24  1  0
 24 25  2  0
 24 29  1  0
 25 26  1  0
 26 27  1  1
 26 28  1  0
 28 29  2  0
 30 31  2  0
 31 32  1  0
 32 33  1  0
 32 36  1  0
 33 34  1  0
 34 35  1  0
 35 36  1  0
M  END
