
     RDKit          3D

 20 20  0  0  0  0  0  0  0  0999 V2000
    3.2860    2.8360    0.2980 C   0  0  0  0  0  0  0  0  0  0  0  0
    2.7930    1.7830   -0.3280 C   0  0  0  0  0  0  0  0  0  0  0  0
    2.3770    1.9360   -1.6360 O   0  0  0  0  0  0  0  0  0  0  0  0
    2.6870    0.4680    0.3550 C   0  0  1  0  0  0  0  0  0  0  0  0
    3.1920    0.6000    1.6780 O   0  0  0  0  0  0  0  0  0  0  0  0
    1.2400    0.0660    0.4750 C   0  0  2  0  0  0  0  0  0  0  0  0
    1.0270   -1.0700    1.4010 C   0  0  0  0  0  0  0  0  0  0  0  0
   -0.2140   -1.3130    1.7190 C   0  0  0  0  0  0  0  0  0  0  0  0
   -1.0770   -0.9220    0.8050 C   0  0  0  0  0  0  0  0  0  0  0  0
   -2.3260   -0.4580    1.2130 N   0  0  0  0  0  0  0  0  0  0  0  0
   -3.2590    0.2800    0.4190 C   0  0  0  0  0  0  0  0  0  0  0  0
   -2.8160    1.6770    0.0620 C   0  0  0  0  0  0  0  0  0  0  0  0
   -2.6020    2.4480    1.2010 O   0  0  0  0  0  0  0  0  0  0  0  0
   -0.5860   -1.0320   -0.5860 C   0  0  2  0  0  0  0  0  0  0  0  0
   -1.5620   -0.8280   -1.5170 O   0  0  0  0  0  0  0  0  0  0  0  0
   -0.1530   -2.3640   -0.7350 O   0  0  0  0  0  0  0  0  0  0  0  0
   -1.2250   -3.2440   -0.5230 C   0  0  0  0  0  0  0  0  0  0  0  0
    0.5420   -0.1400   -0.7370 N   0  0  0  0  0  0  0  0  0  0  0  0
    1.3100   -0.4420   -1.7930 O   0  0  0  0  0  0  0  0  0  0  0  0
    1.6460   -1.6980   -1.8780 O   0  0  0  0  0  0  0  0  0  0  0  0
  1  2  2  0
  2  3  1  0
  2  4  1  0
  4  5  1  1
  4  6  1  0
  6  7  1  0
  6 18  1  6
  7  8  2  0
  8  9  2  0
  9 10  1  0
  9 14  1  0
 10 11  1  0
 11 12  1  0
 12 13  1  0
 14 15  1  6
 14 16  1  0
 14 18  1  0
 16 17  1  0
 18 19  1  0
 19 20  1  0
M  END
