
     RDKit          3D

 21 20  0  0  0  0  0  0  0  0999 V2000
   -2.2640   -2.7670    1.5690 C   0  0  0  0  0  0  0  0  0  0  0  0
   -1.6480   -2.2670    0.2770 C   0  0  2  0  0  0  0  0  0  0  0  0
   -0.2790   -2.7640    0.2830 N   0  0  0  0  0  0  0  0  0  0  0  0
   -1.7820   -0.8610    0.0930 N   0  0  0  0  0  0  0  0  0  0  0  0
   -2.6850   -0.4530   -0.9330 N   0  0  0  0  0  0  0  0  0  0  0  0
   -1.1740    0.1430    0.8570 C   0  0  0  0  0  0  0  0  0  0  0  0
   -1.5970    0.4620    2.1370 O   0  0  0  0  0  0  0  0  0  0  0  0
   -1.2690   -0.1940    3.2420 O   0  0  0  0  0  0  0  0  0  0  0  0
   -0.1140    0.8950    0.4080 C   0  0  0  0  0  0  0  0  0  0  0  0
    0.3570    1.8580    1.3290 C   0  0  0  0  0  0  0  0  0  0  0  0
    1.1720    2.7790    1.6010 C   0  0  0  0  0  0  0  0  0  0  0  0
    2.2610    3.4720    1.0090 C   0  0  0  0  0  0  0  0  0  0  0  0
    2.7280    3.2820   -0.1190 O   0  0  0  0  0  0  0  0  0  0  0  0
    2.9220    4.5230    1.7790 O   0  0  0  0  0  0  0  0  0  0  0  0
    0.3390    0.5900   -0.9030 C   0  0  0  0  0  0  0  0  0  0  0  0
   -0.3030   -0.3680   -1.5310 O   0  0  0  0  0  0  0  0  0  0  0  0
    1.4090    1.1300   -1.7470 C   0  0  0  0  0  0  0  0  0  0  0  0
    1.4860    0.4450   -3.0850 C   0  0  0  0  0  0  0  0  0  0  0  0
    0.7320    0.7650   -4.0140 O   0  0  0  0  0  0  0  0  0  0  0  0
    2.4170   -0.5500   -3.2540 O   0  0  0  0  0  0  0  0  0  0  0  0
    2.5740   -1.2220   -4.3890 O   0  0  0  0  0  0  0  0  0  0  0  0
  2  1  1  1
  2  3  1  0
  2  4  1  0
  4  5  1  0
  4  6  1  0
  6  7  1  0
  6  9  2  3
  7  8  1  0
  9 10  1  0
  9 15  1  0
 10 11  2  3
 11 12  1  0
 12 13  2  0
 12 14  1  0
 15 16  2  0
 15 17  1  0
 17 18  1  0
 18 19  2  0
 18 20  1  0
 20 21  1  0
M  END
