
     RDKit          3D

 27 28  0  0  0  0  0  0  0  0999 V2000
   -1.6070   -0.1220   -1.4610 C   0  0  0  0  0  0  0  0  0  0  0  0
   -1.8190   -1.2190   -0.4480 C   0  0  2  0  0  0  0  0  0  0  0  0
   -3.1710   -1.8630   -0.6380 C   0  0  0  0  0  0  0  0  0  0  0  0
   -4.2530   -0.9390   -0.4920 N   0  0  0  0  0  0  0  0  0  0  0  0
   -5.4060   -1.6430   -0.6910 O   0  0  0  0  0  0  0  0  0  0  0  0
   -5.4710   -3.0310    0.3360 P   0  0  0  0  0  0  0  0  0  0  0  0
   -6.5170   -3.1580    1.4630 O   0  0  0  0  0  0  0  0  0  0  0  0
   -1.6970   -0.6760    0.9530 C   0  0  0  0  0  0  0  0  0  0  0  0
   -0.4190   -0.0940    1.2460 N   0  0  0  0  0  0  0  0  0  0  0  0
    0.5930   -0.8990    1.7580 N   0  0  0  0  0  0  0  0  0  0  0  0
    1.7560   -0.9790    1.2740 C   0  0  0  0  0  0  0  0  0  0  0  0
    2.2170   -0.2700    0.1430 O   0  0  0  0  0  0  0  0  0  0  0  0
    3.1440   -0.9250   -0.6550 N   0  0  0  0  0  0  0  0  0  0  0  0
    4.4610   -0.9710   -0.0800 C   0  0  2  0  0  0  0  0  0  0  0  0
    5.4040   -1.3440   -1.0310 O   0  0  0  0  0  0  0  0  0  0  0  0
    5.9200   -2.5150   -0.8280 O   0  0  0  0  0  0  0  0  0  0  0  0
    6.6620   -2.5890    0.2820 O   0  0  0  0  0  0  0  0  0  0  0  0
    5.7320   -2.5550    1.2780 O   0  0  0  0  0  0  0  0  0  0  0  0
    4.5250   -1.9070    1.0650 C   0  0  0  0  0  0  0  0  0  0  0  0
    3.1200   -2.0400    1.9350 P   0  0  0  0  0  0  0  0  0  0  0  0
   -0.1460    1.2780    1.0320 C   0  0  0  0  0  0  0  0  0  0  0  0
    1.0020    1.7640    1.2940 O   0  0  0  0  0  0  0  0  0  0  0  0
   -1.0660    2.1910    0.5350 O   0  0  0  0  0  0  0  0  0  0  0  0
   -0.7470    3.5620    0.3370 C   0  0  0  0  0  0  0  0  0  0  0  0
    0.6420    3.7850   -0.8490 P   0  0  0  0  0  0  0  0  0  0  0  0
    0.1180    4.6620   -2.2680 O   0  0  0  0  0  0  0  0  0  0  0  0
    1.9220    4.6460   -0.0970 O   0  0  0  0  0  0  0  0  0  0  0  0
  2  1  1  6
  2  3  1  0
  2  8  1  0
  3  4  1  0
  4  5  1  0
  5  6  1  0
  6  7  2  0
  8  9  1  0
  9 10  1  0
  9 21  1  0
 10 11  2  3
 11 12  1  0
 11 20  1  0
 12 13  1  0
 14 13  1  6
 14 15  1  0
 14 19  1  0
 15 16  1  0
 16 17  1  0
 17 18  1  0
 18 19  1  0
 19 20  2  0
 21 22  2  0
 21 23  1  0
 23 24  1  0
 24 25  1  0
 25 26  1  0
 25 27  1  0
M  END
