
     RDKit          3D

 21 22  0  0  0  0  0  0  0  0999 V2000
    2.8830    1.5350    0.9390 C   0  0  0  0  0  0  0  0  0  0  0  0
    3.7380    0.5680    0.1820 C   0  0  0  0  0  0  0  0  0  0  0  0
    3.3290   -0.6780    0.0860 C   0  0  0  0  0  0  0  0  0  0  0  0
    4.1780   -1.6360   -0.6650 C   0  0  0  0  0  0  0  0  0  0  0  0
    2.1350   -1.0350    0.6830 O   0  0  0  0  0  0  0  0  0  0  0  0
    0.9120   -0.9670    0.0260 C   0  0  0  0  0  0  0  0  0  0  0  0
    0.9170   -0.5670   -1.1390 O   0  0  0  0  0  0  0  0  0  0  0  0
   -0.2850   -1.3050    0.5640 O   0  0  0  0  0  0  0  0  0  0  0  0
   -1.4430   -1.2580   -0.0120 N   0  0  0  0  0  0  0  0  0  0  0  0
   -1.5880   -2.1170   -1.0280 O   0  0  0  0  0  0  0  0  0  0  0  0
   -1.2760   -1.5060   -2.1410 O   0  0  0  0  0  0  0  0  0  0  0  0
   -2.0770   -0.4240   -2.3840 C   0  0  0  0  0  0  0  0  0  0  0  0
   -2.0430    0.5510   -1.3840 O   0  0  0  0  0  0  0  0  0  0  0  0
   -2.2640   -0.1560   -0.1630 C   0  0  1  0  0  0  0  0  0  0  0  0
   -3.5730   -0.6830   -0.4280 O   0  0  0  0  0  0  0  0  0  0  0  0
   -4.2530    0.5110   -0.4340 N   0  0  0  0  0  0  0  0  0  0  0  0
   -3.8220    1.1270    0.7740 C   0  0  0  0  0  0  0  0  0  0  0  0
   -2.5520    0.7110    0.9630 C   0  0  0  0  0  0  0  0  0  0  0  0
   -1.7980    1.1570    2.1250 C   0  0  0  0  0  0  0  0  0  0  0  0
   -2.2770    1.9350    2.9940 O   0  0  0  0  0  0  0  0  0  0  0  0
   -0.4930    0.7440    2.3450 O   0  0  0  0  0  0  0  0  0  0  0  0
  1  2  1  0
  2  3  2  3
  3  4  1  0
  3  5  1  0
  5  6  1  0
  6  7  2  0
  6  8  1  0
  8  9  1  0
  9 10  1  0
  9 14  1  0
 10 11  1  0
 11 12  1  0
 12 13  1  0
 14 13  1  6
 14 15  1  0
 14 18  1  0
 15 16  1  0
 16 17  1  0
 17 18  2  0
 18 19  1  0
 19 20  2  0
 19 21  1  0
M  END
