
     RDKit          3D

 28 29  0  0  0  0  0  0  0  0999 V2000
   -0.7670   -1.2980    3.3750 C   0  0  0  0  0  0  0  0  0  0  0  0
   -1.4250    0.0640    3.3280 C   0  0  0  0  0  0  0  0  0  0  0  0
   -1.4060    0.5300    1.8970 C   0  0  1  0  0  0  0  0  0  0  0  0
   -0.1130    0.6360    1.3970 O   0  0  0  0  0  0  0  0  0  0  0  0
   -0.2980    0.6010    0.0350 C   0  0  1  0  0  0  0  0  0  0  0  0
   -1.1570    1.5870   -0.3620 O   0  0  0  0  0  0  0  0  0  0  0  0
   -0.8540    2.7890   -0.0720 O   0  0  0  0  0  0  0  0  0  0  0  0
   -0.8040    3.6580   -1.1270 C   0  0  2  0  0  0  0  0  0  0  0  0
    0.3040    4.6490   -0.9480 C   0  0  0  0  0  0  0  0  0  0  0  0
   -2.1120    4.3800   -1.1370 N   0  0  0  0  0  0  0  0  0  0  0  0
    1.1800    0.5010   -1.0020 P   0  0  0  0  0  0  0  0  0  0  0  0
    2.0540    1.9700   -0.9990 O   0  0  0  0  0  0  0  0  0  0  0  0
    2.8700    1.9970    0.0340 O   0  0  0  0  0  0  0  0  0  0  0  0
    2.2640   -0.9110   -0.6150 C   0  0  0  0  0  0  0  0  0  0  0  0
    2.6440   -1.0810    0.5980 N   0  0  0  0  0  0  0  0  0  0  0  0
    3.4920   -2.1300    1.0890 C   0  0  0  0  0  0  0  0  0  0  0  0
    4.6670   -2.2750    0.3480 O   0  0  0  0  0  0  0  0  0  0  0  0
    4.1480   -2.8190   -1.2450 P   0  0  0  0  0  0  0  0  0  0  0  0
    5.3550   -2.4630   -2.4400 O   0  0  0  0  0  0  0  0  0  0  0  0
    2.7040   -1.8190   -1.5700 O   0  0  0  0  0  0  0  0  0  0  0  0
   -1.1020   -0.6530   -0.0490 N   0  0  0  0  0  0  0  0  0  0  0  0
   -0.9840   -1.9420   -1.2530 P   0  0  0  0  0  0  0  0  0  0  0  0
   -1.7840   -1.5880   -2.7350 O   0  0  0  0  0  0  0  0  0  0  0  0
   -2.6250   -2.6500   -3.0610 C   0  0  0  0  0  0  0  0  0  0  0  0
   -1.4510   -3.4990   -0.6720 O   0  0  0  0  0  0  0  0  0  0  0  0
   -2.5570   -3.4990    0.0210 O   0  0  0  0  0  0  0  0  0  0  0  0
   -1.9800   -0.5560    1.0610 C   0  0  0  0  0  0  0  0  0  0  0  0
   -3.0120   -1.2470    1.2690 O   0  0  0  0  0  0  0  0  0  0  0  0
  1  2  1  0
  3  2  1  1
  3  4  1  0
  3 27  1  0
  4  5  1  0
  5  6  1  6
  5 11  1  0
  5 21  1  0
  6  7  1  0
  7  8  1  0
  8  9  1  1
  8 10  1  0
 11 12  1  0
 11 14  1  0
 12 13  1  0
 14 15  2  0
 14 20  1  0
 15 16  1  0
 16 17  1  0
 17 18  1  0
 18 19  1  0
 18 20  1  0
 21 22  1  0
 21 27  1  0
 22 23  1  0
 22 25  1  0
 23 24  1  0
 25 26  1  0
 27 28  2  0
M  END
