
     RDKit          3D

 21 21  0  0  0  0  0  0  0  0999 V2000
   -1.2140   -4.2040   -0.4650 C   0  0  0  0  0  0  0  0  0  0  0  0
   -2.0260   -3.2860   -0.1480 N   0  0  0  0  0  0  0  0  0  0  0  0
   -1.6630   -2.0760    0.4800 C   0  0  0  0  0  0  0  0  0  0  0  0
   -1.1580   -1.1060   -0.4200 O   0  0  0  0  0  0  0  0  0  0  0  0
   -0.8810   -0.0430    0.2910 N   0  0  0  0  0  0  0  0  0  0  0  0
   -1.5930    1.1560    0.0590 C   0  0  0  0  0  0  0  0  0  0  0  0
   -2.9970    0.9980   -0.4060 C   0  0  0  0  0  0  0  0  0  0  0  0
   -3.5870    2.2530   -0.5980 O   0  0  0  0  0  0  0  0  0  0  0  0
   -3.1520    3.1720   -1.5110 C   0  0  0  0  0  0  0  0  0  0  0  0
   -2.1800    2.9300   -2.2440 O   0  0  0  0  0  0  0  0  0  0  0  0
   -3.7660    4.4290   -1.6760 O   0  0  0  0  0  0  0  0  0  0  0  0
    0.4410    0.1670    0.7500 C   0  0  2  0  0  0  0  0  0  0  0  0
    0.3090    0.8680    2.1130 C   0  0  0  0  0  0  0  0  0  0  0  0
    1.1620    1.0290   -0.1110 O   0  0  0  0  0  0  0  0  0  0  0  0
    1.5840    0.3250   -1.1340 O   0  0  0  0  0  0  0  0  0  0  0  0
    2.6260   -0.5380   -0.7460 C   0  0  2  0  0  0  0  0  0  0  0  0
    3.9760   -0.0780   -1.1970 C   0  0  0  0  0  0  0  0  0  0  0  0
    2.3780   -1.8110   -1.2890 O   0  0  0  0  0  0  0  0  0  0  0  0
    2.5100   -0.6750    0.7600 C   0  0  1  0  0  0  0  0  0  0  0  0
    2.8380    0.5280    1.3810 O   0  0  0  0  0  0  0  0  0  0  0  0
    1.1520   -1.0010    0.9900 O   0  0  0  0  0  0  0  0  0  0  0  0
  1  2  2  0
  2  3  1  0
  3  4  1  0
  4  5  1  0
  5  6  1  0
  5 12  1  0
  6  7  1  0
  7  8  1  0
  8  9  1  0
  9 10  2  0
  9 11  1  0
 12 13  1  1
 12 14  1  0
 12 21  1  0
 14 15  1  0
 15 16  1  0
 16 17  1  1
 16 18  1  0
 16 19  1  0
 19 20  1  1
 19 21  1  0
M  END
