
     RDKit          3D

 21 21  0  0  0  0  0  0  0  0999 V2000
    0.7210   -1.8450   -0.2760 O   0  0  0  0  0  0  0  0  0  0  0  0
   -0.0920   -0.9220   -0.6310 C   0  0  0  0  0  0  0  0  0  0  0  0
    0.1850   -0.2820   -1.8570 N   0  0  0  0  0  0  0  0  0  0  0  0
    1.2960   -0.5810   -2.7230 C   0  0  0  0  0  0  0  0  0  0  0  0
    2.6540   -0.3560   -2.0360 C   0  0  0  0  0  0  0  0  0  0  0  0
    2.6920    0.9420   -1.6840 O   0  0  0  0  0  0  0  0  0  0  0  0
    4.0070    1.5540   -0.9400 P   0  0  0  0  0  0  0  0  0  0  0  0
    3.8470    2.5320    0.3560 O   0  0  0  0  0  0  0  0  0  0  0  0
    5.5470    1.4480   -1.6240 O   0  0  0  0  0  0  0  0  0  0  0  0
    4.2790    0.2760   -0.1680 O   0  0  0  0  0  0  0  0  0  0  0  0
   -1.2320   -0.5990    0.2410 C   0  0  0  0  0  0  0  0  0  0  0  0
   -2.1030    0.4160   -0.0700 C   0  0  0  0  0  0  0  0  0  0  0  0
   -3.1760    0.6980    0.7750 C   0  0  0  0  0  0  0  0  0  0  0  0
   -3.3900   -0.0230    1.9270 C   0  0  0  0  0  0  0  0  0  0  0  0
   -4.4380    0.2280    2.7820 O   0  0  0  0  0  0  0  0  0  0  0  0
   -5.7060   -0.3860    2.6710 C   0  0  2  0  0  0  0  0  0  0  0  0
   -5.4900   -1.7570    2.7940 F   0  0  0  0  0  0  0  0  0  0  0  0
   -6.3020   -0.1820    1.4610 F   0  0  0  0  0  0  0  0  0  0  0  0
   -6.4940   -0.0240    3.7450 F   0  0  0  0  0  0  0  0  0  0  0  0
   -2.5120   -1.0440    2.2370 C   0  0  0  0  0  0  0  0  0  0  0  0
   -1.4490   -1.3260    1.4040 C   0  0  0  0  0  0  0  0  0  0  0  0
  1  2  2  0
  2  3  1  0
  2 11  1  0
  3  4  1  0
  4  5  1  0
  5  6  1  0
  6  7  1  0
  7  8  1  0
  7  9  1  0
  7 10  1  0
 11 12  2  0
 11 21  1  0
 12 13  1  0
 13 14  2  0
 14 15  1  0
 14 20  1  0
 15 16  1  0
 16 17  1  1
 16 18  1  0
 16 19  1  0
 20 21  2  0
M  END
