
     RDKit          3D

 14 13  0  0  0  0  0  0  0  0999 V2000
   -2.9650    1.2900    1.1270 C   0  0  0  0  0  0  0  0  0  0  0  0
   -2.1540    0.1720   -0.0850 P   0  0  0  0  0  0  0  0  0  0  0  0
   -1.1950    0.9920   -1.2460 O   0  0  0  0  0  0  0  0  0  0  0  0
   -1.2630   -1.0370    0.7800 O   0  0  0  0  0  0  0  0  0  0  0  0
   -0.3920   -1.6980   -0.0940 C   0  0  2  0  0  0  0  0  0  0  0  0
   -1.2650   -2.3340   -1.1750 C   0  0  0  0  0  0  0  0  0  0  0  0
    0.3520   -2.6430    0.5710 O   0  0  0  0  0  0  0  0  0  0  0  0
    0.3920   -0.7190   -0.7420 O   0  0  0  0  0  0  0  0  0  0  0  0
    1.2170    0.1460   -0.0080 C   0  0  0  0  0  0  0  0  0  0  0  0
    1.2660    0.0580    1.2260 O   0  0  0  0  0  0  0  0  0  0  0  0
    1.9850    1.1030   -0.6380 O   0  0  0  0  0  0  0  0  0  0  0  0
    2.9940    2.1530    0.3280 P   0  0  0  0  0  0  0  0  0  0  0  0
    3.8170    1.3150    1.5890 O   0  0  0  0  0  0  0  0  0  0  0  0
    4.1090    2.9410   -0.7530 O   0  0  0  0  0  0  0  0  0  0  0  0
  1  2  1  0
  2  3  1  0
  2  4  1  0
  4  5  1  0
  5  6  1  6
  5  7  1  0
  5  8  1  0
  8  9  1  0
  9 10  2  0
  9 11  1  0
 11 12  1  0
 12 13  1  0
 12 14  1  0
M  END
