
     RDKit          3D

 13 14  0  0  0  0  0  0  0  0999 V2000
    4.3880    1.3830   -0.0000 O   0  0  0  0  0  0  0  0  0  0  0  0
    3.7410    0.4880    0.6970 O   0  0  0  0  0  0  0  0  0  0  0  0
    2.4250    0.6410    0.6280 O   0  0  0  0  0  0  0  0  0  0  0  0
    1.9200   -0.5520    0.1490 C   0  0  0  0  0  0  0  0  0  0  0  0
    0.4320   -0.6230    0.0930 C   0  0  2  0  0  0  0  0  0  0  0  0
    0.0370   -0.7670   -1.2480 O   0  0  0  0  0  0  0  0  0  0  0  0
   -1.3560   -0.6950   -1.0870 C   0  0  0  0  0  0  0  0  0  0  0  0
   -1.4500    0.4130   -0.0510 C   0  0  2  0  0  0  0  0  0  0  0  0
   -2.5930    0.0870    0.8550 C   0  0  0  0  0  0  0  0  0  0  0  0
   -3.6050    0.8970    0.3130 O   0  0  0  0  0  0  0  0  0  0  0  0
   -2.9970    1.9440   -0.1670 O   0  0  0  0  0  0  0  0  0  0  0  0
   -1.8560    1.5720   -0.6730 O   0  0  0  0  0  0  0  0  0  0  0  0
   -0.2220    0.4930    0.5720 O   0  0  0  0  0  0  0  0  0  0  0  0
  1  2  1  0
  2  3  1  0
  3  4  1  0
  5  4  1  6
  5  6  1  0
  5 13  1  0
  6  7  1  0
  8  7  1  6
  8  9  1  0
  8 12  1  0
  8 13  1  0
  9 10  1  0
 10 11  1  0
 11 12  1  0
M  END
