
     RDKit          3D

 15 15  0  0  0  0  0  0  0  0999 V2000
    3.1530    0.1020    1.6010 O   0  0  0  0  0  0  0  0  0  0  0  0
    2.7710    0.8530    0.6890 C   0  0  0  0  0  0  0  0  0  0  0  0
    3.2500    2.1570    0.5800 O   0  0  0  0  0  0  0  0  0  0  0  0
    1.8580    0.4340   -0.2530 O   0  0  0  0  0  0  0  0  0  0  0  0
    1.1950   -1.1280   -0.2360 S   0  0  2  0  0  0  0  0  0  0  0  0
    1.7050   -1.9680    0.8700 O   0  0  0  0  0  0  0  0  0  0  0  0
    1.5170   -1.7720   -1.5500 O   0  0  0  0  0  0  0  0  0  0  0  0
   -0.5900   -0.9380   -0.1360 C   0  0  2  0  0  0  0  0  0  0  0  0
   -1.1250   -2.2460   -0.1230 O   0  0  0  0  0  0  0  0  0  0  0  0
   -1.0210   -0.3020   -1.4170 C   0  0  0  0  0  0  0  0  0  0  0  0
   -2.4280   -0.3150   -1.5590 O   0  0  0  0  0  0  0  0  0  0  0  0
   -2.9660    1.0150   -0.5390 P   0  0  0  0  0  0  0  0  0  0  0  0
   -1.7360    1.0450    0.8510 C   0  0  0  0  0  0  0  0  0  0  0  0
   -1.6090    2.0680    1.4680 O   0  0  0  0  0  0  0  0  0  0  0  0
   -0.9960   -0.2110    1.0950 C   0  0  0  0  0  0  0  0  0  0  0  0
  1  2  2  0
  2  3  1  0
  2  4  1  0
  5  4  1  6
  5  6  2  0
  5  7  2  0
  5  8  1  0
  8  9  1  1
  8 10  1  0
  8 15  1  0
 10 11  1  0
 11 12  1  0
 12 13  1  0
 13 14  2  0
 13 15  1  0
M  END
