
     RDKit          3D

 12 12  0  0  0  0  0  0  0  0999 V2000
   -3.1240   -0.2080   -1.0220 O   0  0  0  0  0  0  0  0  0  0  0  0
   -2.3370    0.3030   -0.1800 C   0  0  0  0  0  0  0  0  0  0  0  0
   -2.8900    1.0420    0.8360 O   0  0  0  0  0  0  0  0  0  0  0  0
   -0.8650    0.1240   -0.2700 C   0  0  2  0  0  0  0  0  0  0  0  0
   -0.5930   -1.3580   -0.2870 C   0  0  0  0  0  0  0  0  0  0  0  0
    0.7210   -1.6700   -0.5850 O   0  0  0  0  0  0  0  0  0  0  0  0
    1.8630   -0.8840    0.4310 P   0  0  0  0  0  0  0  0  0  0  0  0
    3.2070   -0.3820   -0.5380 O   0  0  0  0  0  0  0  0  0  0  0  0
    3.6800    0.7220   -0.0380 O   0  0  0  0  0  0  0  0  0  0  0  0
    1.0420    0.5990    1.1760 C   0  0  0  0  0  0  0  0  0  0  0  0
    1.6780    1.3200    1.9590 O   0  0  0  0  0  0  0  0  0  0  0  0
   -0.2680    0.7990    0.7900 O   0  0  0  0  0  0  0  0  0  0  0  0
  1  2  2  0
  2  3  1  0
  4  2  1  1
  4  5  1  0
  4 12  1  0
  5  6  1  0
  6  7  1  0
  7  8  1  0
  7 10  1  0
  8  9  1  0
 10 11  2  0
 10 12  1  0
M  END
