
     RDKit          3D

 13 12  0  0  0  0  0  0  0  0999 V2000
   -2.8640   -0.0840   -1.3310 C   0  0  0  0  0  0  0  0  0  0  0  0
   -1.6690   -0.9570   -0.2600 P   0  0  0  0  0  0  0  0  0  0  0  0
   -2.1180   -0.8340    1.4020 O   0  0  0  0  0  0  0  0  0  0  0  0
   -3.6110   -0.0150    1.6350 P   0  0  0  0  0  0  0  0  0  0  0  0
   -3.9020    1.4260    1.1770 O   0  0  0  0  0  0  0  0  0  0  0  0
    0.0340   -0.2520   -0.4450 C   0  0  0  0  0  0  0  0  0  0  0  0
    0.2480    0.7260   -1.2080 O   0  0  0  0  0  0  0  0  0  0  0  0
    1.0970   -0.7740    0.2400 O   0  0  0  0  0  0  0  0  0  0  0  0
    2.3740   -0.2510    0.1060 C   0  0  0  0  0  0  0  0  0  0  0  0
    2.5880    0.7370   -0.6650 O   0  0  0  0  0  0  0  0  0  0  0  0
    3.5120   -0.8020    0.8330 C   0  0  0  0  0  0  0  0  0  0  0  0
    3.3000   -1.7780    1.5940 O   0  0  0  0  0  0  0  0  0  0  0  0
    4.7850   -0.2890    0.7060 O   0  0  0  0  0  0  0  0  0  0  0  0
  1  2  1  0
  2  3  1  0
  2  6  1  0
  3  4  1  0
  4  5  2  0
  6  7  2  0
  6  8  1  0
  8  9  1  0
  9 10  2  0
  9 11  1  0
 11 12  2  0
 11 13  1  0
M  END
