
     RDKit          3D

 15 14  0  0  0  0  0  0  0  0999 V2000
   -0.1440    2.2260    0.5960 O   0  0  0  0  0  0  0  0  0  0  0  0
   -0.2530    1.1820    1.1610 C   0  0  0  0  0  0  0  0  0  0  0  0
   -0.2530   -0.2430    0.1040 S   0  0  0  0  0  0  0  0  0  0  0  0
   -0.4690   -1.6680    0.6340 O   0  0  0  0  0  0  0  0  0  0  0  0
   -0.0840    0.2070   -1.4960 O   0  0  0  0  0  0  0  0  0  0  0  0
    1.3570   -0.4440    0.3240 C   0  0  0  0  0  0  0  0  0  0  0  0
    1.9030   -0.4370    1.5030 O   0  0  0  0  0  0  0  0  0  0  0  0
    2.3480   -0.6460   -0.6290 O   0  0  0  0  0  0  0  0  0  0  0  0
    3.6800   -0.8140   -0.3600 C   0  0  0  0  0  0  0  0  0  0  0  0
    3.9890   -0.7760    0.8600 O   0  0  0  0  0  0  0  0  0  0  0  0
    4.6270   -1.0130   -1.3680 O   0  0  0  0  0  0  0  0  0  0  0  0
   -1.7310   -0.0860   -0.0630 C   0  0  1  0  0  0  0  0  0  0  0  0
   -2.4250   -0.9350   -0.9740 O   0  0  0  0  0  0  0  0  0  0  0  0
   -2.7480   -0.3140    1.5210 P   0  0  0  0  0  0  0  0  0  0  0  0
   -2.3390    1.6150   -0.6580 P   0  0  0  0  0  0  0  0  0  0  0  0
  1  2  2  0
  2  3  1  0
  3  4  2  0
  3  5  1  0
  3  6  1  0
  3 12  1  0
  6  7  2  0
  6  8  1  0
  8  9  1  0
  9 10  2  0
  9 11  1  0
 12 13  1  6
 12 14  1  0
 12 15  1  0
M  END
