
     RDKit          3D

 10  9  0  0  0  0  0  0  0  0999 V2000
   -3.3260   -0.9350    0.9910 O   0  0  0  0  0  0  0  0  0  0  0  0
   -2.8940   -0.0850    0.0770 C   0  0  0  0  0  0  0  0  0  0  0  0
   -3.7320    0.7850   -0.5150 O   0  0  0  0  0  0  0  0  0  0  0  0
   -1.5440   -0.2510   -0.1180 O   0  0  0  0  0  0  0  0  0  0  0  0
   -0.6510   -0.9580    0.3560 O   0  0  0  0  0  0  0  0  0  0  0  0
    0.3540   -1.5210   -0.4000 C   0  0  0  0  0  0  0  0  0  0  0  0
    1.6010   -0.8330    0.0590 C   0  0  0  0  0  0  0  0  0  0  0  0
    1.5620    0.9430   -0.5520 P   0  0  0  0  0  0  0  0  0  0  0  0
    3.1700    1.5960   -0.6160 O   0  0  0  0  0  0  0  0  0  0  0  0
    0.4860    1.9910    0.1560 O   0  0  0  0  0  0  0  0  0  0  0  0
  1  2  2  0
  2  3  1  0
  2  4  1  0
  4  5  1  0
  5  6  1  0
  6  7  1  0
  7  8  1  0
  8  9  1  0
  8 10  1  0
M  END
