
     RDKit          3D

  9  8  0  0  0  0  0  0  0  0999 V2000
   -1.2680   -0.2760    1.0120 O   0  0  0  0  0  0  0  0  0  0  0  0
   -1.3290   -0.0480   -0.2220 C   0  0  0  0  0  0  0  0  0  0  0  0
   -0.2240   -0.4870   -1.0960 C   0  0  0  0  0  0  0  0  0  0  0  0
    0.8720   -1.1780   -0.3620 C   0  0  0  0  0  0  0  0  0  0  0  0
    1.5670   -0.0060    0.8970 P   0  0  0  0  0  0  0  0  0  0  0  0
    0.8610    1.5670    0.7720 O   0  0  0  0  0  0  0  0  0  0  0  0
    3.2810    0.0280    0.9000 O   0  0  0  0  0  0  0  0  0  0  0  0
   -2.4530    0.6150   -0.6860 O   0  0  0  0  0  0  0  0  0  0  0  0
   -3.4480    1.0060    0.1260 O   0  0  0  0  0  0  0  0  0  0  0  0
  1  2  2  0
  2  3  1  0
  2  8  1  0
  3  4  1  0
  4  5  1  0
  5  6  1  0
  5  7  1  0
  8  9  1  0
M  END
