
     RDKit          3D

 10  9  0  0  0  0  0  0  0  0999 V2000
    4.2860    1.3230   -0.0280 O   0  0  0  0  0  0  0  0  0  0  0  0
    3.8180   -0.1430    0.2760 P   0  0  0  0  0  0  0  0  0  0  0  0
    2.1960   -0.3330    0.8800 O   0  0  0  0  0  0  0  0  0  0  0  0
    1.3250    0.2750    0.0800 O   0  0  0  0  0  0  0  0  0  0  0  0
    0.6110   -0.7180   -0.6020 C   0  0  0  0  0  0  0  0  0  0  0  0
   -0.3760   -0.0140   -1.5090 C   0  0  0  0  0  0  0  0  0  0  0  0
   -1.2640    0.7870   -0.7880 O   0  0  0  0  0  0  0  0  0  0  0  0
   -2.1390    0.3730    0.1770 C   0  0  0  0  0  0  0  0  0  0  0  0
   -2.1790   -0.8410    0.4720 O   0  0  0  0  0  0  0  0  0  0  0  0
   -3.0050    1.2180    0.8670 O   0  0  0  0  0  0  0  0  0  0  0  0
  1  2  2  0
  2  3  1  0
  3  4  1  0
  4  5  1  0
  5  6  1  0
  6  7  1  0
  7  8  1  0
  8  9  2  0
  8 10  1  0
M  END
