
     RDKit          3D

 10  9  0  0  0  0  0  0  0  0999 V2000
   -3.0620    0.9690    0.4640 C   0  0  0  0  0  0  0  0  0  0  0  0
   -1.9670    0.8500   -0.3820 O   0  0  0  0  0  0  0  0  0  0  0  0
   -1.4950   -0.7760   -0.6470 P   0  0  0  0  0  0  0  0  0  0  0  0
   -2.6340   -1.9300   -0.0770 O   0  0  0  0  0  0  0  0  0  0  0  0
    0.0320   -1.1040    0.1180 O   0  0  0  0  0  0  0  0  0  0  0  0
    0.9600   -0.1230   -0.2590 C   0  0  0  0  0  0  0  0  0  0  0  0
    2.1730   -0.4320    0.3840 O   0  0  0  0  0  0  0  0  0  0  0  0
    3.3220    0.3000    0.2610 C   0  0  0  0  0  0  0  0  0  0  0  0
    3.3330    1.3080   -0.4540 O   0  0  0  0  0  0  0  0  0  0  0  0
    4.4650   -0.1160    0.9560 O   0  0  0  0  0  0  0  0  0  0  0  0
  1  2  1  0
  2  3  1  0
  3  4  1  0
  3  5  1  0
  5  6  1  0
  6  7  1  0
  7  8  1  0
  8  9  2  0
  8 10  1  0
M  END
