
     RDKit          3D

  9  8  0  0  0  0  0  0  0  0999 V2000
   -4.4250   -0.1440   -0.0320 O   0  0  0  0  0  0  0  0  0  0  0  0
   -2.9790   -0.6550    0.2290 P   0  0  0  0  0  0  0  0  0  0  0  0
   -1.5750    0.2880   -0.5050 C   0  0  0  0  0  0  0  0  0  0  0  0
   -0.2650   -0.1220    0.0660 C   0  0  0  0  0  0  0  0  0  0  0  0
   -0.2900   -1.0200    0.9370 O   0  0  0  0  0  0  0  0  0  0  0  0
    0.9280    0.4310   -0.3150 O   0  0  0  0  0  0  0  0  0  0  0  0
    2.1430    0.0130    0.2510 C   0  0  0  0  0  0  0  0  0  0  0  0
    2.1800   -0.8860    1.1300 O   0  0  0  0  0  0  0  0  0  0  0  0
    3.3250    0.6100   -0.1760 O   0  0  0  0  0  0  0  0  0  0  0  0
  1  2  2  0
  2  3  1  0
  3  4  1  0
  4  5  2  0
  4  6  1  0
  6  7  1  0
  7  8  2  0
  7  9  1  0
M  END
