
     RDKit          3D

 10  9  0  0  0  0  0  0  0  0999 V2000
    2.5750    0.4280   -0.6860 O   0  0  0  0  0  0  0  0  0  0  0  0
    2.4660    0.1550    0.5180 C   0  0  0  0  0  0  0  0  0  0  0  0
    3.3150    0.8090    1.4350 O   0  0  0  0  0  0  0  0  0  0  0  0
    1.5310   -0.7680    0.9120 O   0  0  0  0  0  0  0  0  0  0  0  0
    0.6590   -1.4480    0.0390 C   0  0  0  0  0  0  0  0  0  0  0  0
   -0.2450   -0.4960   -0.7180 C   0  0  0  0  0  0  0  0  0  0  0  0
   -1.2810    0.4860    0.4910 P   0  0  0  0  0  0  0  0  0  0  0  0
   -1.4970    2.0830   -0.1040 O   0  0  0  0  0  0  0  0  0  0  0  0
   -2.8370   -0.2550    0.6440 O   0  0  0  0  0  0  0  0  0  0  0  0
   -3.7730    0.6630    0.6330 O   0  0  0  0  0  0  0  0  0  0  0  0
  1  2  2  0
  2  3  1  0
  2  4  1  0
  4  5  1  0
  5  6  1  0
  6  7  1  0
  7  8  1  0
  7  9  1  0
  9 10  1  0
M  END
