
     RDKit          3D

 10 10  0  0  0  0  0  0  0  0999 V2000
    2.4520   -1.2690    0.0430 O   0  0  0  0  0  0  0  0  0  0  0  0
    1.8590   -0.2070   -0.2760 C   0  0  0  0  0  0  0  0  0  0  0  0
    2.6230    0.9160   -0.4650 O   0  0  0  0  0  0  0  0  0  0  0  0
    0.0990   -0.2180   -0.4590 P   0  0  0  0  0  0  0  0  0  0  0  0
   -1.0490    1.0150   -0.8800 O   0  0  0  0  0  0  0  0  0  0  0  0
   -2.1940    0.6920   -0.1650 C   0  0  0  0  0  0  0  0  0  0  0  0
   -3.2250    1.4900   -0.3170 O   0  0  0  0  0  0  0  0  0  0  0  0
   -2.1100   -0.3150    0.5360 O   0  0  0  0  0  0  0  0  0  0  0  0
   -1.1270   -1.0930    0.6930 C   0  0  0  0  0  0  0  0  0  0  0  0
   -0.8410   -2.1070    1.3140 O   0  0  0  0  0  0  0  0  0  0  0  0
  1  2  2  0
  2  3  1  0
  2  4  1  0
  4  5  1  0
  4  9  1  0
  5  6  1  0
  6  7  2  0
  6  8  1  0
  8  9  1  0
  9 10  2  0
M  END
