
     RDKit          3D

 24 24  0  0  0  0  0  0  0  0999 V2000
    5.0970   -2.0480    0.2400 O   0  0  0  0  0  0  0  0  0  0  0  0
    5.4830   -1.1940   -0.5970 C   0  0  0  0  0  0  0  0  0  0  0  0
    4.8920    0.0940   -0.6840 N   0  0  0  0  0  0  0  0  0  0  0  0
    5.3580    1.0300   -1.6470 C   0  0  0  0  0  0  0  0  0  0  0  0
    4.8350    2.1710   -1.7260 O   0  0  0  0  0  0  0  0  0  0  0  0
    3.8190    0.4180    0.2190 C   0  0  2  0  0  0  0  0  0  0  0  0
    4.2980    0.3100    1.6290 C   0  0  0  0  0  0  0  0  0  0  0  0
    3.5490    0.5330    2.6100 O   0  0  0  0  0  0  0  0  0  0  0  0
    5.5990   -0.0450    1.8690 O   0  0  0  0  0  0  0  0  0  0  0  0
    2.6670   -0.4930    0.0850 C   0  0  0  0  0  0  0  0  0  0  0  0
    2.6840   -1.4000   -0.7200 O   0  0  0  0  0  0  0  0  0  0  0  0
    1.1810   -0.2770    1.1310 P   0  0  0  0  0  0  0  0  0  0  0  0
    1.0150    1.3760    1.6000 O   0  0  0  0  0  0  0  0  0  0  0  0
   -0.1900   -0.8070    0.2270 O   0  0  0  0  0  0  0  0  0  0  0  0
   -0.1860   -0.1620   -0.9860 C   0  0  0  0  0  0  0  0  0  0  0  0
   -1.3180   -0.5070   -1.9070 C   0  0  0  0  0  0  0  0  0  0  0  0
   -2.5770   -0.1940   -1.3410 N   0  0  0  0  0  0  0  0  0  0  0  0
   -3.1700   -0.7320   -0.1750 C   0  0  0  0  0  0  0  0  0  0  0  0
   -2.5590   -1.5940    0.4690 O   0  0  0  0  0  0  0  0  0  0  0  0
   -4.5020   -0.2820    0.2870 C   0  0  0  0  0  0  0  0  0  0  0  0
   -5.2910    0.6090   -0.2550 C   0  0  0  0  0  0  0  0  0  0  0  0
   -6.5440    0.7600    0.5350 C   0  0  0  0  0  0  0  0  0  0  0  0
   -6.3470   -0.2000    1.6290 C   0  0  0  0  0  0  0  0  0  0  0  0
   -5.1720   -0.7870    1.4710 C   0  0  0  0  0  0  0  0  0  0  0  0
  1  2  2  0
  2  3  1  0
  3  4  1  0
  6  3  1  6
  4  5  2  0
  6  7  1  0
  6 10  1  0
  7  8  2  0
  7  9  1  0
 10 11  2  0
 10 12  1  0
 12 13  1  0
 12 14  1  0
 14 15  1  0
 15 16  1  0
 16 17  1  0
 17 18  1  0
 18 19  2  0
 18 20  1  0
 20 21  2  0
 20 24  1  0
 21 22  1  0
 22 23  1  0
 23 24  2  0
M  END
