
     RDKit          3D

 21 21  0  0  0  0  0  0  0  0999 V2000
    4.9680   -2.1900   -0.4640 C   0  0  0  0  0  0  0  0  0  0  0  0
    4.6600   -1.2990   -1.4640 O   0  0  0  0  0  0  0  0  0  0  0  0
    3.8710    0.1260   -0.9160 P   0  0  0  0  0  0  0  0  0  0  0  0
    2.9980   -0.0740    0.6780 C   0  0  0  0  0  0  0  0  0  0  0  0
    1.5120   -0.3480    0.5050 C   0  0  0  0  0  0  0  0  0  0  0  0
    0.8630    0.7860   -0.2240 C   0  0  2  0  0  0  0  0  0  0  0  0
    1.4260    0.9630   -1.4810 F   0  0  0  0  0  0  0  0  0  0  0  0
    1.0490    1.9420    0.5200 F   0  0  0  0  0  0  0  0  0  0  0  0
   -0.5120    0.5320   -0.3820 O   0  0  0  0  0  0  0  0  0  0  0  0
   -1.4230    0.3520    0.6220 C   0  0  0  0  0  0  0  0  0  0  0  0
   -1.0330    0.4160    1.8150 O   0  0  0  0  0  0  0  0  0  0  0  0
   -2.7720    0.1010    0.3390 N   0  0  0  0  0  0  0  0  0  0  0  0
   -3.8200   -0.1040    1.2950 C   0  0  0  0  0  0  0  0  0  0  0  0
   -4.9220    0.7720    0.7360 C   0  0  0  0  0  0  0  0  0  0  0  0
   -4.7820    0.5440   -0.7510 C   0  0  0  0  0  0  0  0  0  0  0  0
   -3.3690    0.0000   -0.9610 C   0  0  2  0  0  0  0  0  0  0  0  0
   -3.4120   -1.4030   -1.4460 C   0  0  0  0  0  0  0  0  0  0  0  0
   -3.9070   -1.6580   -2.5730 O   0  0  0  0  0  0  0  0  0  0  0  0
   -2.9250   -2.4700   -0.7040 O   0  0  0  0  0  0  0  0  0  0  0  0
    5.0660    1.3750   -0.7510 O   0  0  0  0  0  0  0  0  0  0  0  0
    4.4460    2.5130   -0.2300 C   0  0  0  0  0  0  0  0  0  0  0  0
  1  2  1  0
  2  3  1  0
  3  4  1  0
  3 20  1  0
  4  5  1  0
  5  6  1  0
  6  7  1  6
  6  8  1  0
  6  9  1  0
  9 10  1  0
 10 11  2  0
 10 12  1  0
 12 13  1  0
 12 16  1  0
 13 14  1  0
 14 15  1  0
 15 16  1  0
 16 17  1  1
 17 18  2  0
 17 19  1  0
 20 21  1  0
M  END
