
     RDKit          3D

 24 24  0  0  0  0  0  0  0  0999 V2000
   -4.8150   -0.8830   -1.2600 C   0  0  0  0  0  0  0  0  0  0  0  0
   -4.6540   -0.4970    0.0760 O   0  0  0  0  0  0  0  0  0  0  0  0
   -3.3920    0.0300    0.3110 C   0  0  1  0  0  0  0  0  0  0  0  0
   -3.5050    1.4390    0.8140 C   0  0  0  0  0  0  0  0  0  0  0  0
   -4.3000    1.6200    1.7740 O   0  0  0  0  0  0  0  0  0  0  0  0
   -2.7530    2.4960    0.2320 N   0  0  0  0  0  0  0  0  0  0  0  0
   -2.3490    2.5080   -1.1560 C   0  0  0  0  0  0  0  0  0  0  0  0
   -0.8450    2.3020   -1.2590 C   0  0  0  0  0  0  0  0  0  0  0  0
   -0.2540    2.6630   -0.0580 O   0  0  0  0  0  0  0  0  0  0  0  0
    0.5670    1.9360    0.7710 C   0  0  0  0  0  0  0  0  0  0  0  0
    1.4560    2.5800    1.3780 O   0  0  0  0  0  0  0  0  0  0  0  0
    0.3490    0.5910    0.8620 O   0  0  0  0  0  0  0  0  0  0  0  0
    0.3790   -0.6980   -0.2240 P   0  0  0  0  0  0  0  0  0  0  0  0
    1.8980   -1.5080   -0.3700 O   0  0  0  0  0  0  0  0  0  0  0  0
    2.9420   -0.5530   -0.4960 C   0  0  0  0  0  0  0  0  0  0  0  0
    4.1970   -1.3550   -0.6150 C   0  0  0  0  0  0  0  0  0  0  0  0
    5.4050   -0.5100   -0.8070 C   0  0  0  0  0  0  0  0  0  0  0  0
    5.6740    0.4290    0.2990 C   0  0  0  0  0  0  0  0  0  0  0  0
    4.6750    1.3550    0.4780 O   0  0  0  0  0  0  0  0  0  0  0  0
   -1.0550   -1.8010   -0.2930 C   0  0  0  0  0  0  0  0  0  0  0  0
   -1.7680   -1.8360    0.9700 N   0  0  0  0  0  0  0  0  0  0  0  0
   -1.6440   -2.9250    1.9170 C   0  0  0  0  0  0  0  0  0  0  0  0
   -2.6340   -0.7630    1.3160 C   0  0  0  0  0  0  0  0  0  0  0  0
   -2.8060   -0.4220    2.5350 O   0  0  0  0  0  0  0  0  0  0  0  0
  1  2  1  0
  3  2  1  1
  3  4  1  0
  3 23  1  0
  4  5  2  0
  4  6  1  0
  6  7  1  0
  7  8  1  0
  8  9  1  0
  9 10  1  0
 10 11  2  0
 10 12  1  0
 12 13  1  0
 13 14  1  0
 13 20  1  0
 14 15  1  0
 15 16  1  0
 16 17  1  0
 17 18  1  0
 18 19  1  0
 20 21  1  0
 21 22  1  0
 21 23  1  0
 23 24  2  0
M  END
