
     RDKit          3D

 10  9  0  0  0  0  0  0  0  0999 V2000
    3.8630    0.5620    0.4520 O   0  0  0  0  0  0  0  0  0  0  0  0
    2.8230    0.3050    1.0170 C   0  0  0  0  0  0  0  0  0  0  0  0
    1.8250   -0.5500    0.3490 C   0  0  2  0  0  0  0  0  0  0  0  0
    2.3180   -0.9200   -0.8930 O   0  0  0  0  0  0  0  0  0  0  0  0
    0.5100    0.1630    0.1960 C   0  0  0  0  0  0  0  0  0  0  0  0
   -0.3490   -0.7280   -0.4230 O   0  0  0  0  0  0  0  0  0  0  0  0
   -1.7950    0.0540   -0.5910 P   0  0  0  0  0  0  0  0  0  0  0  0
   -1.7980    1.6870   -0.8150 O   0  0  0  0  0  0  0  0  0  0  0  0
   -1.9890    0.1630    0.9120 O   0  0  0  0  0  0  0  0  0  0  0  0
   -3.2070   -0.7910   -0.7800 O   0  0  0  0  0  0  0  0  0  0  0  0
  1  2  2  0
  2  3  1  0
  3  4  1  6
  3  5  1  0
  5  6  1  0
  6  7  1  0
  7  8  1  0
  7  9  1  0
  7 10  1  0
M  END
