
     RDKit          3D

 32 33  0  0  0  0  0  0  0  0999 V2000
    1.1460   -3.0180   -1.8820 C   0  0  0  0  0  0  0  0  0  0  0  0
   -0.0810   -2.4240   -1.2460 C   0  0  0  0  0  0  0  0  0  0  0  0
   -1.3160   -2.9740   -1.0890 C   0  0  0  0  0  0  0  0  0  0  0  0
   -2.1570   -2.0670   -0.4420 C   0  0  0  0  0  0  0  0  0  0  0  0
   -3.5510   -2.3190   -0.0910 C   0  0  0  0  0  0  0  0  0  0  0  0
   -3.8030   -2.6840    1.3360 C   0  0  2  0  0  0  0  0  0  0  0  0
   -3.1190   -3.8520    1.6910 F   0  0  0  0  0  0  0  0  0  0  0  0
   -5.1550   -2.8940    1.5600 F   0  0  0  0  0  0  0  0  0  0  0  0
   -1.3900   -0.9590   -0.2160 C   0  0  0  0  0  0  0  0  0  0  0  0
   -1.8370    0.2980    0.4370 C   0  0  0  0  0  0  0  0  0  0  0  0
   -3.0070    0.4160    0.8260 O   0  0  0  0  0  0  0  0  0  0  0  0
   -0.9500    1.3360    0.6090 O   0  0  0  0  0  0  0  0  0  0  0  0
   -1.2060    2.5540    1.1820 C   0  0  0  0  0  0  0  0  0  0  0  0
   -2.2060    3.3960    0.4660 C   0  0  1  0  0  0  0  0  0  0  0  0
   -1.7410    3.6340   -0.8230 F   0  0  0  0  0  0  0  0  0  0  0  0
   -3.4310    2.8240    0.3920 F   0  0  0  0  0  0  0  0  0  0  0  0
   -2.3230    4.5940    1.1640 F   0  0  0  0  0  0  0  0  0  0  0  0
   -0.1460   -1.1940   -0.7060 N   0  0  0  0  0  0  0  0  0  0  0  0
    0.9410   -0.2610   -0.6540 C   0  0  0  0  0  0  0  0  0  0  0  0
    1.3720    0.4120   -1.7730 C   0  0  0  0  0  0  0  0  0  0  0  0
    2.4160    1.3130   -1.7410 C   0  0  0  0  0  0  0  0  0  0  0  0
    3.0780    1.5720   -0.5440 C   0  0  0  0  0  0  0  0  0  0  0  0
    4.1660    2.5080   -0.4970 N   0  0  2  0  0  0  0  0  0  0  0  0
    3.7390    3.7090   -0.0510 F   0  0  0  0  0  0  0  0  0  0  0  0
    4.6430    2.7170   -1.7640 F   0  0  0  0  0  0  0  0  0  0  0  0
    5.2110    2.0300    0.2080 F   0  0  0  0  0  0  0  0  0  0  0  0
    2.6470    0.8990    0.5770 C   0  0  0  0  0  0  0  0  0  0  0  0
    3.3360    1.1620    1.8480 C   0  0  0  0  0  0  0  0  0  0  0  0
    4.3710    0.5040    2.1220 O   0  0  0  0  0  0  0  0  0  0  0  0
    2.9000    2.1030    2.7580 O   0  0  0  0  0  0  0  0  0  0  0  0
    1.5880   -0.0140    0.5380 C   0  0  0  0  0  0  0  0  0  0  0  0
    1.1960   -0.6640    1.7000 O   0  0  0  0  0  0  0  0  0  0  0  0
  1  2  1  0
  2  3  2  0
  2 18  1  0
  3  4  1  0
  4  5  1  0
  4  9  2  0
  5  6  1  0
  6  7  1  6
  6  8  1  0
  9 10  1  0
  9 18  1  0
 10 11  2  0
 10 12  1  0
 12 13  1  0
 13 14  1  0
 14 15  1  6
 14 16  1  0
 14 17  1  0
 18 19  1  0
 19 20  2  0
 19 31  1  0
 20 21  1  0
 21 22  2  0
 22 23  1  0
 22 27  1  0
 23 24  1  1
 23 25  1  0
 23 26  1  0
 27 28  1  0
 27 31  2  0
 28 29  2  0
 28 30  1  0
 31 32  1  0
M  CHG  2  23   1  30  -1
M  END
