
     RDKit          3D

 33 35  0  0  0  0  0  0  0  0999 V2000
   -7.6140    2.4520    0.2110 C   0  0  0  0  0  0  0  0  0  0  0  0
   -6.3720    2.8590    0.2660 C   0  0  0  0  0  0  0  0  0  0  0  0
   -5.9400    4.0670   -0.4530 C   0  0  0  0  0  0  0  0  0  0  0  0
   -5.4230    2.1590    1.1230 C   0  0  0  0  0  0  0  0  0  0  0  0
   -4.1640    2.4980    1.1990 C   0  0  0  0  0  0  0  0  0  0  0  0
   -3.2410    1.7260    2.1240 C   0  0  2  0  0  0  0  0  0  0  0  0
   -2.5260    2.8770    2.7900 C   0  0  0  0  0  0  0  0  0  0  0  0
   -1.2910    2.8760    2.3150 C   0  0  0  0  0  0  0  0  0  0  0  0
    0.2710    3.7200    2.4010 S   0  0  0  0  0  0  0  0  0  0  0  0
    1.0930    2.4520    1.3090 C   0  0  0  0  0  0  0  0  0  0  0  0
    2.4780    2.5960    0.9900 N   0  0  0  0  0  0  0  0  0  0  0  0
    3.0440    1.4010    0.2760 C   0  0  0  0  0  0  0  0  0  0  0  0
    2.2740    0.4980    0.0800 O   0  0  0  0  0  0  0  0  0  0  0  0
    4.3800    1.6330    0.0210 N   0  0  0  0  0  0  0  0  0  0  0  0
    4.8400   -0.0110   -0.2520 C   0  0  0  0  0  0  0  0  0  0  0  0
    3.9860   -0.7730   -0.0820 O   0  0  0  0  0  0  0  0  0  0  0  0
    6.2210   -0.1890   -0.6420 C   0  0  0  0  0  0  0  0  0  0  0  0
    6.4690   -1.6710   -0.4690 C   0  0  0  0  0  0  0  0  0  0  0  0
    7.1520   -2.0460    0.6790 C   0  0  0  0  0  0  0  0  0  0  0  0
    7.2240   -3.4080    0.9230 C   0  0  0  0  0  0  0  0  0  0  0  0
    6.6490   -4.3450    0.0740 C   0  0  0  0  0  0  0  0  0  0  0  0
    5.9960   -3.9000   -1.0420 C   0  0  0  0  0  0  0  0  0  0  0  0
    5.8950   -2.5400   -1.3380 C   0  0  0  0  0  0  0  0  0  0  0  0
    5.2000   -2.1480   -2.5900 C   0  0  0  0  0  0  0  0  0  0  0  0
    0.1970    1.7350    1.0980 N   0  0  0  0  0  0  0  0  0  0  0  0
   -1.0370    1.7850    1.5000 C   0  0  0  0  0  0  0  0  0  0  0  0
   -2.1550    1.0350    1.4340 C   0  0  0  0  0  0  0  0  0  0  0  0
   -2.2520   -0.2880    0.8070 C   0  0  0  0  0  0  0  0  0  0  0  0
   -1.2220   -0.7540    0.2750 O   0  0  0  0  0  0  0  0  0  0  0  0
   -3.4410   -1.0010    0.8070 N   0  0  0  0  0  0  0  0  0  0  0  0
   -3.7090   -1.9330   -0.2170 C   0  0  0  0  0  0  0  0  0  0  0  0
   -2.7600   -2.0250   -1.3710 C   0  0  0  0  0  0  0  0  0  0  0  0
   -3.2650   -3.0230   -2.3490 N   0  0  0  0  0  0  0  0  0  0  0  0
  1  2  2  0
  2  3  1  0
  2  4  1  0
  4  5  2  3
  6  5  1  6
  6  7  1  0
  6 27  1  0
  7  8  2  0
  8  9  1  0
  8 26  1  0
  9 10  1  0
 10 11  1  0
 10 25  2  0
 11 12  1  0
 12 13  2  0
 12 14  1  0
 14 15  1  0
 15 16  2  0
 15 17  1  0
 17 18  1  0
 18 19  2  0
 18 23  1  0
 19 20  1  0
 20 21  2  0
 21 22  1  0
 22 23  2  0
 23 24  1  0
 25 26  1  0
 26 27  2  0
 27 28  1  0
 28 29  2  0
 28 30  1  0
 30 31  1  0
 31 32  1  0
 32 33  1  0
M  CHG  2  30   1  33   1
M  END
