
     RDKit          3D

 33 35  0  0  0  0  0  0  0  0999 V2000
    6.0880    3.9790   -1.0850 C   0  0  0  0  0  0  0  0  0  0  0  0
    5.9810    2.6970   -0.6970 C   0  0  0  0  0  0  0  0  0  0  0  0
    4.8330    2.0900   -0.5610 N   0  0  0  0  0  0  0  0  0  0  0  0
    4.6060    0.9910   -0.2330 C   0  0  0  0  0  0  0  0  0  0  0  0
    3.5350    0.0490    0.0100 N   0  0  0  0  0  0  0  0  0  0  0  0
    2.2340    0.5380   -0.1930 C   0  0  0  0  0  0  0  0  0  0  0  0
    2.0520    1.7160   -0.5600 O   0  0  0  0  0  0  0  0  0  0  0  0
    1.0730   -0.3450    0.0280 C   0  0  2  0  0  0  0  0  0  0  0  0
    1.2320   -1.5390   -0.8650 C   0  0  0  0  0  0  0  0  0  0  0  0
    0.0780   -2.4730   -0.8940 C   0  0  1  0  0  0  0  0  0  0  0  0
    0.3660   -3.7850   -0.3770 N   0  0  0  0  0  0  0  0  0  0  0  0
    0.5180   -3.8720    1.0350 C   0  0  0  0  0  0  0  0  0  0  0  0
   -0.4610   -4.8460    1.6650 C   0  0  0  0  0  0  0  0  0  0  0  0
   -0.2940   -6.2390    1.1310 C   0  0  0  0  0  0  0  0  0  0  0  0
   -1.2370   -7.0470    1.7720 O   0  0  0  0  0  0  0  0  0  0  0  0
   -1.1120   -1.8080   -0.2760 C   0  0  0  0  0  0  0  0  0  0  0  0
   -1.1600   -0.3980   -0.8410 C   0  0  1  0  0  0  0  0  0  0  0  0
   -2.5240    0.1560   -0.7420 C   0  0  0  0  0  0  0  0  0  0  0  0
   -3.4590   -0.5460   -1.1960 O   0  0  0  0  0  0  0  0  0  0  0  0
   -2.8260    1.3970   -0.1820 N   0  0  0  0  0  0  0  0  0  0  0  0
   -4.0920    2.0090   -0.0400 C   0  0  0  0  0  0  0  0  0  0  0  0
   -4.1540    3.3040    0.4910 C   0  0  0  0  0  0  0  0  0  0  0  0
   -5.3430    3.9720    0.6670 C   0  0  0  0  0  0  0  0  0  0  0  0
   -5.4200    5.3360    1.2250 C   0  0  0  0  0  0  0  0  0  0  0  0
   -6.5400    3.3640    0.3150 C   0  0  0  0  0  0  0  0  0  0  0  0
   -6.5280    2.0960   -0.2090 C   0  0  0  0  0  0  0  0  0  0  0  0
   -7.8060    1.4160   -0.5980 C   0  0  0  0  0  0  0  0  0  0  0  0
   -5.3050    1.4650   -0.3670 C   0  0  0  0  0  0  0  0  0  0  0  0
   -0.1320    0.4070   -0.2430 N   0  0  0  0  0  0  0  0  0  0  0  0
    6.3720    0.3550    0.0390 S   0  0  0  0  0  0  0  0  0  0  0  0
    7.0880    1.9350   -0.4140 C   0  0  0  0  0  0  0  0  0  0  0  0
    8.3600    2.2190   -0.4460 C   0  0  0  0  0  0  0  0  0  0  0  0
    9.3590    1.1990   -0.0890 C   0  0  0  0  0  0  0  0  0  0  0  0
  1  2  2  0
  2  3  1  0
  2 31  1  0
  3  4  2  0
  4  5  1  0
  4 30  1  0
  5  6  1  0
  6  7  2  0
  8  6  1  6
  8  9  1  0
  8 29  1  0
  9 10  1  0
 10 11  1  1
 10 16  1  0
 11 12  1  0
 12 13  1  0
 13 14  1  0
 14 15  1  0
 16 17  1  0
 17 18  1  1
 17 29  1  0
 18 19  2  0
 18 20  1  0
 20 21  1  0
 21 22  2  0
 21 28  1  0
 22 23  1  0
 23 24  1  0
 23 25  2  0
 25 26  1  0
 26 27  1  0
 26 28  2  0
 30 31  1  0
 31 32  2  3
 32 33  1  0
M  CHG  2  11   1  29   1
M  END
