
     RDKit          3D

 32 36  0  0  0  0  0  0  0  0999 V2000
   -5.3310    3.1140    2.6120 N   0  0  0  0  0  0  0  0  0  0  0  0
   -4.9370    3.1420    1.2500 C   0  0  0  0  0  0  0  0  0  0  0  0
   -5.4170    4.0450    0.4860 N   0  0  0  0  0  0  0  0  0  0  0  0
   -4.0030    2.1660    0.7180 C   0  0  0  0  0  0  0  0  0  0  0  0
   -3.5580    2.1030   -0.5760 C   0  0  0  0  0  0  0  0  0  0  0  0
   -2.6670    1.1400   -1.0000 C   0  0  0  0  0  0  0  0  0  0  0  0
   -2.1640    0.1730   -0.1480 C   0  0  0  0  0  0  0  0  0  0  0  0
   -1.2260   -0.8580   -0.5970 C   0  0  1  0  0  0  0  0  0  0  0  0
    0.2180   -0.5210   -0.5280 C   0  0  1  0  0  0  0  0  0  0  0  0
    0.6670    0.1890    0.6820 C   0  0  0  0  0  0  0  0  0  0  0  0
    0.0060    1.0120    1.4120 O   0  0  0  0  0  0  0  0  0  0  0  0
    2.0120   -0.2250    0.8890 N   0  0  0  0  0  0  0  0  0  0  0  0
    3.0680    0.5880    1.4480 C   0  0  0  0  0  0  0  0  0  0  0  0
    3.8220    1.3490    0.4630 C   0  0  0  0  0  0  0  0  0  0  0  0
    5.2000    1.3560    0.4980 C   0  0  0  0  0  0  0  0  0  0  0  0
    5.9270    2.0770   -0.4380 C   0  0  0  0  0  0  0  0  0  0  0  0
    5.2770    2.8040   -1.4240 C   0  0  0  0  0  0  0  0  0  0  0  0
    5.9690    3.5220   -2.3560 F   0  0  0  0  0  0  0  0  0  0  0  0
    3.8930    2.8050   -1.4700 C   0  0  0  0  0  0  0  0  0  0  0  0
    3.1790    2.0720   -0.5180 C   0  0  0  0  0  0  0  0  0  0  0  0
    2.1320   -1.5950    0.4490 C   0  0  2  0  0  0  0  0  0  0  0  0
    3.3070   -1.8300   -0.4560 C   0  0  1  0  0  0  0  0  0  0  0  0
    3.1880   -1.0450   -1.5780 F   0  0  0  0  0  0  0  0  0  0  0  0
    4.5160   -1.7500    0.1610 F   0  0  0  0  0  0  0  0  0  0  0  0
    0.8720   -1.8760   -0.3360 C   0  0  1  0  0  0  0  0  0  0  0  0
   -0.1810   -2.6060    0.4560 C   0  0  2  0  0  0  0  0  0  0  0  0
   -0.0810   -4.0840    0.2210 C   0  0  0  0  0  0  0  0  0  0  0  0
   -1.2410   -4.4510   -0.6640 C   0  0  0  0  0  0  0  0  0  0  0  0
   -1.8480   -3.1340   -1.0700 C   0  0  0  0  0  0  0  0  0  0  0  0
   -1.4580   -2.1650   -0.0780 N   0  0  2  0  0  0  0  0  0  0  0  0
   -2.6120    0.2360    1.1570 C   0  0  0  0  0  0  0  0  0  0  0  0
   -3.5010    1.1960    1.5830 C   0  0  0  0  0  0  0  0  0  0  0  0
  1  2  1  0
  2  3  2  0
  2  4  1  0
  4  5  2  0
  4 32  1  0
  5  6  1  0
  6  7  2  0
  8  7  1  1
  7 31  1  0
  8  9  1  0
  8 30  1  0
  9 10  1  1
  9 25  1  0
 10 11  2  0
 10 12  1  0
 12 13  1  0
 21 12  1  6
 13 14  1  0
 14 15  2  0
 14 20  1  0
 15 16  1  0
 16 17  2  0
 17 18  1  0
 17 19  1  0
 19 20  2  0
 21 22  1  0
 25 21  1  1
 22 23  1  6
 22 24  1  0
 25 26  1  0
 26 27  1  6
 26 30  1  0
 27 28  1  0
 28 29  1  0
 30 29  1  6
 31 32  2  0
M  CHG  2   3   1  30   1
M  END
