
     RDKit          3D

 33 36  0  0  0  0  0  0  0  0999 V2000
    8.9140   -1.6090    1.3910 C   0  0  0  0  0  0  0  0  0  0  0  0
    8.2540   -1.3310    0.0370 C   0  0  2  0  0  0  0  0  0  0  0  0
    9.5600   -0.9070   -1.1460 S   0  0  0  0  0  0  0  0  0  0  0  0
    9.8540    0.5780   -0.9420 O   0  0  0  0  0  0  0  0  0  0  0  0
    7.3550   -0.1590    0.2130 C   0  0  0  0  0  0  0  0  0  0  0  0
    5.9360   -0.3970   -0.2580 C   0  0  1  0  0  0  0  0  0  0  0  0
    5.3420    0.9280   -0.4230 N   0  0  0  0  0  0  0  0  0  0  0  0
    4.7460    1.4490    0.7600 C   0  0  0  0  0  0  0  0  0  0  0  0
    3.2780    1.2900    0.7000 C   0  0  0  0  0  0  0  0  0  0  0  0
    2.4140    2.1370    1.3800 C   0  0  0  0  0  0  0  0  0  0  0  0
    1.0490    1.9680    1.3140 C   0  0  0  0  0  0  0  0  0  0  0  0
    0.4910    0.9390    0.5610 C   0  0  0  0  0  0  0  0  0  0  0  0
   -0.9510    0.7770    0.5020 C   0  0  0  0  0  0  0  0  0  0  0  0
   -1.5380    0.2660   -0.6260 C   0  0  0  0  0  0  0  0  0  0  0  0
   -2.9290    0.1160   -0.6740 C   0  0  0  0  0  0  0  0  0  0  0  0
   -3.7330    0.4590    0.3630 C   0  0  0  0  0  0  0  0  0  0  0  0
   -5.1220    0.3240    0.3700 N   0  0  0  0  0  0  0  0  0  0  0  0
   -5.9560   -0.2500   -0.6050 C   0  0  0  0  0  0  0  0  0  0  0  0
   -5.4560   -0.7250   -1.6410 O   0  0  0  0  0  0  0  0  0  0  0  0
   -7.4330   -0.3320   -0.4800 C   0  0  2  0  0  0  0  0  0  0  0  0
   -7.8770   -1.0560    0.7680 C   0  0  0  0  0  0  0  0  0  0  0  0
   -9.3410   -0.8380    0.9240 C   0  0  0  0  0  0  0  0  0  0  0  0
  -10.0560   -0.3630   -0.2810 C   0  0  0  0  0  0  0  0  0  0  0  0
   -9.4480   -0.6760   -1.5920 C   0  0  0  0  0  0  0  0  0  0  0  0
   -8.0530   -0.9690   -1.5970 N   0  0  0  0  0  0  0  0  0  0  0  0
   -3.1120    0.9720    1.4900 C   0  0  0  0  0  0  0  0  0  0  0  0
   -1.7270    1.1330    1.5640 C   0  0  0  0  0  0  0  0  0  0  0  0
    1.3540    0.1050   -0.1090 C   0  0  0  0  0  0  0  0  0  0  0  0
    2.7390    0.2710   -0.0460 C   0  0  0  0  0  0  0  0  0  0  0  0
    5.9950   -1.1540   -1.5170 C   0  0  0  0  0  0  0  0  0  0  0  0
    5.2910   -0.9240   -2.5270 O   0  0  0  0  0  0  0  0  0  0  0  0
    6.9320   -2.2390   -1.5940 N   0  0  0  0  0  0  0  0  0  0  0  0
    7.6150   -2.5310   -0.4020 N   0  0  0  0  0  0  0  0  0  0  0  0
  2  1  1  1
  2  3  1  0
  2  5  1  0
  2 33  1  0
  3  4  2  0
  5  6  1  0
  6  7  1  6
  6 30  1  0
  7  8  1  0
  8  9  1  0
  9 10  2  0
  9 29  1  0
 10 11  1  0
 11 12  2  0
 12 13  1  0
 12 28  1  0
 13 14  2  0
 13 27  1  0
 14 15  1  0
 15 16  2  0
 16 17  1  0
 16 26  1  0
 17 18  1  0
 18 19  2  0
 20 18  1  6
 20 21  1  0
 20 25  1  0
 21 22  1  0
 22 23  1  0
 23 24  1  0
 24 25  1  0
 26 27  2  0
 28 29  2  0
 30 31  2  0
 30 32  1  0
 32 33  1  0
M  CHG  2   7   1  25   1
M  END
