
     RDKit          3D

 32 33  0  0  0  0  0  0  0  0999 V2000
    0.2180    0.7250    1.9290 O   0  0  0  0  0  0  0  0  0  0  0  0
    0.8120   -0.2650    1.4780 C   0  0  0  0  0  0  0  0  0  0  0  0
    0.1570   -1.4710    1.4110 O   0  0  0  0  0  0  0  0  0  0  0  0
   -1.1720   -1.6480    1.8320 C   0  0  0  0  0  0  0  0  0  0  0  0
   -1.4070   -2.0060    3.1490 C   0  0  0  0  0  0  0  0  0  0  0  0
   -2.7020   -2.1780    3.5600 C   0  0  0  0  0  0  0  0  0  0  0  0
   -3.7320   -1.9940    2.6670 C   0  0  0  0  0  0  0  0  0  0  0  0
   -3.4780   -1.6350    1.3530 C   0  0  0  0  0  0  0  0  0  0  0  0
   -2.1800   -1.4580    0.9250 C   0  0  0  0  0  0  0  0  0  0  0  0
   -1.8480   -1.1000   -0.3700 O   0  0  0  0  0  0  0  0  0  0  0  0
   -2.8910   -0.9020   -1.3170 C   0  0  0  0  0  0  0  0  0  0  0  0
   -3.6600    0.1080   -1.1290 C   0  0  0  0  0  0  0  0  0  0  0  0
   -4.8080    0.5860   -1.9070 C   0  0  0  0  0  0  0  0  0  0  0  0
   -5.9790    0.5870   -1.1030 O   0  0  0  0  0  0  0  0  0  0  0  0
   -2.9730   -1.8730   -2.4040 C   0  0  1  0  0  0  0  0  0  0  0  0
   -1.8240   -1.8270   -3.2060 F   0  0  0  0  0  0  0  0  0  0  0  0
   -2.9720   -3.1880   -1.9070 F   0  0  0  0  0  0  0  0  0  0  0  0
   -4.0270   -1.7380   -3.2320 F   0  0  0  0  0  0  0  0  0  0  0  0
    2.1200   -0.0600    1.0710 O   0  0  0  0  0  0  0  0  0  0  0  0
    2.8020    1.1530    1.1300 C   0  0  2  0  0  0  0  0  0  0  0  0
    3.1640    1.5440   -0.2460 C   0  0  0  0  0  0  0  0  0  0  0  0
    3.0330    2.7850   -0.8050 C   0  0  0  0  0  0  0  0  0  0  0  0
    3.4850    2.6830   -2.0690 N   0  0  0  0  0  0  0  0  0  0  0  0
    3.8840    1.4190   -2.2920 C   0  0  0  0  0  0  0  0  0  0  0  0
    4.4530    0.8680   -3.5620 C   0  0  1  0  0  0  0  0  0  0  0  0
    3.5060    1.0630   -4.5460 F   0  0  0  0  0  0  0  0  0  0  0  0
    5.6320    1.5190   -3.8940 F   0  0  0  0  0  0  0  0  0  0  0  0
    3.6840    0.7210   -1.1620 N   0  0  0  0  0  0  0  0  0  0  0  0
    4.0600    1.1290    1.9490 C   0  0  1  0  0  0  0  0  0  0  0  0
    3.7970    0.7780    3.2790 F   0  0  0  0  0  0  0  0  0  0  0  0
    5.0520    0.3590    1.4120 F   0  0  0  0  0  0  0  0  0  0  0  0
    4.5340    2.4290    2.0020 F   0  0  0  0  0  0  0  0  0  0  0  0
  1  2  2  0
  2  3  1  0
  2 19  1  0
  3  4  1  0
  4  5  2  0
  4  9  1  0
  5  6  1  0
  6  7  2  0
  7  8  1  0
  8  9  2  0
  9 10  1  0
 10 11  1  0
 11 12  2  3
 11 15  1  0
 12 13  1  0
 13 14  1  0
 15 16  1  6
 15 17  1  0
 15 18  1  0
 20 19  1  6
 20 21  1  0
 20 29  1  0
 21 22  2  0
 21 28  1  0
 22 23  1  0
 23 24  1  0
 24 25  1  0
 24 28  2  0
 25 26  1  6
 25 27  1  0
 29 30  1  1
 29 31  1  0
 29 32  1  0
M  CHG  2  14  -1  28   1
M  END
