
     RDKit          3D

 26 28  0  0  0  0  0  0  0  0999 V2000
    3.5770   -0.1050    2.7170 C   0  0  0  0  0  0  0  0  0  0  0  0
    2.7720    0.3590    1.5530 C   0  0  0  0  0  0  0  0  0  0  0  0
    3.2450    0.8640    0.4280 C   0  0  0  0  0  0  0  0  0  0  0  0
    4.6700    1.0960    0.0370 C   0  0  0  0  0  0  0  0  0  0  0  0
    4.9210    0.2690   -1.2250 C   0  0  0  0  0  0  0  0  0  0  0  0
    6.3550    0.4670   -1.6690 C   0  0  0  0  0  0  0  0  0  0  0  0
    6.5770   -0.2910   -2.8240 O   0  0  0  0  0  0  0  0  0  0  0  0
    2.1360    1.1930   -0.4580 C   0  0  0  0  0  0  0  0  0  0  0  0
    2.2140    1.6920   -1.6100 O   0  0  0  0  0  0  0  0  0  0  0  0
    0.9260    0.8500    0.2110 N   0  0  0  0  0  0  0  0  0  0  0  0
    1.2960    0.3260    1.4700 C   0  0  0  0  0  0  0  0  0  0  0  0
    0.4660   -0.1120    2.4010 C   0  0  0  0  0  0  0  0  0  0  0  0
   -0.9760   -0.0750    2.1590 C   0  0  0  0  0  0  0  0  0  0  0  0
   -1.9540    0.1980    3.0810 C   0  0  0  0  0  0  0  0  0  0  0  0
   -3.1900    0.1300    2.4460 C   0  0  0  0  0  0  0  0  0  0  0  0
   -2.9520   -0.1770    1.1770 N   0  0  0  0  0  0  0  0  0  0  0  0
   -3.9420   -0.3550    0.1470 C   0  0  0  0  0  0  0  0  0  0  0  0
   -3.5520   -0.6500   -1.0630 C   0  0  0  0  0  0  0  0  0  0  0  0
   -4.3430   -0.8780   -2.2660 C   0  0  1  0  0  0  0  0  0  0  0  0
   -4.0220   -2.1610   -2.8970 N   0  0  0  0  0  0  0  0  0  0  0  0
   -6.0640   -0.7330   -1.9570 S   0  0  1  0  0  0  0  0  0  0  0  0
   -6.7090    0.2750   -2.8880 O   0  0  0  0  0  0  0  0  0  0  0  0
   -6.7100   -2.1000   -2.1880 O   0  0  0  0  0  0  0  0  0  0  0  0
   -6.3310   -0.3410   -0.3050 C   0  0  0  0  0  0  0  0  0  0  0  0
   -5.3380   -0.2000    0.5250 C   0  0  0  0  0  0  0  0  0  0  0  0
   -1.6280   -0.2970    1.0150 N   0  0  0  0  0  0  0  0  0  0  0  0
  1  2  1  0
  2  3  2  0
  2 11  1  0
  3  4  1  0
  3  8  1  0
  4  5  1  0
  5  6  1  0
  6  7  1  0
  8  9  2  0
  8 10  1  0
 10 11  1  0
 11 12  2  3
 12 13  1  0
 13 14  1  0
 13 26  2  0
 14 15  2  0
 15 16  1  0
 16 17  1  0
 16 26  1  0
 17 18  2  0
 17 25  1  0
 18 19  1  0
 19 20  1  1
 19 21  1  0
 21 22  2  0
 21 23  2  0
 21 24  1  1
 24 25  2  0
M  END
