
     RDKit          3D

 18 19  0  0  0  0  0  0  0  0999 V2000
    1.6960    1.2900   -1.4190 O   0  0  0  0  0  0  0  0  0  0  0  0
    2.1960    0.3370   -0.8440 C   0  0  0  0  0  0  0  0  0  0  0  0
    1.4010   -0.8050   -0.4420 N   0  0  0  0  0  0  0  0  0  0  0  0
    0.1260   -0.7850   -0.3530 N   0  0  0  0  0  0  0  0  0  0  0  0
   -1.2140   -0.7590   -0.3480 C   0  0  0  0  0  0  0  0  0  0  0  0
   -1.7570    0.4780   -0.7520 C   0  0  0  0  0  0  0  0  0  0  0  0
   -3.0500    0.7710   -0.4980 C   0  0  0  0  0  0  0  0  0  0  0  0
   -3.8220   -0.1170    0.1740 C   0  0  0  0  0  0  0  0  0  0  0  0
   -5.3280    0.4440    0.9360 S   0  0  1  0  0  0  0  0  0  0  0  0
   -5.7190    1.7100    0.3540 O   0  0  0  0  0  0  0  0  0  0  0  0
   -6.2840   -0.6390    1.0680 O   0  0  0  0  0  0  0  0  0  0  0  0
   -3.3390   -1.3670    0.5880 C   0  0  0  0  0  0  0  0  0  0  0  0
   -2.0220   -1.6620    0.3080 C   0  0  0  0  0  0  0  0  0  0  0  0
    3.5960    0.2520   -0.4000 C   0  0  0  0  0  0  0  0  0  0  0  0
    4.3220    1.3850   -0.1110 C   0  0  0  0  0  0  0  0  0  0  0  0
    5.5480    0.9850    0.3440 C   0  0  0  0  0  0  0  0  0  0  0  0
    5.5190   -0.3760    0.2910 C   0  0  0  0  0  0  0  0  0  0  0  0
    4.3260   -0.7670   -0.1580 O   0  0  0  0  0  0  0  0  0  0  0  0
  1  2  2  0
  2  3  1  0
  2 14  1  0
  3  4  1  0
  4  5  1  0
  5  6  2  0
  5 13  1  0
  6  7  1  0
  7  8  2  0
  9  8  1  6
  8 12  1  0
  9 10  2  0
  9 11  2  0
 12 13  2  0
 14 15  2  0
 14 18  1  0
 15 16  1  0
 16 17  2  0
 17 18  1  0
M  END
