
     RDKit          3D

 18 19  0  0  0  0  0  0  0  0999 V2000
    4.6970    1.3250    0.0350 C   0  0  0  0  0  0  0  0  0  0  0  0
    3.9820    0.3790   -0.7330 O   0  0  0  0  0  0  0  0  0  0  0  0
    2.9180   -0.3380   -0.1690 C   0  0  0  0  0  0  0  0  0  0  0  0
    2.6560   -0.0890    1.0190 O   0  0  0  0  0  0  0  0  0  0  0  0
    2.2460   -1.2950   -1.0530 C   0  0  0  0  0  0  0  0  0  0  0  0
    0.8680   -2.1740   -0.3060 S   0  0  0  0  0  0  0  0  0  0  0  0
   -0.5070   -1.1310    0.0550 C   0  0  0  0  0  0  0  0  0  0  0  0
   -1.3960   -0.7830   -0.9620 C   0  0  0  0  0  0  0  0  0  0  0  0
   -2.5040    0.0110   -0.7070 C   0  0  0  0  0  0  0  0  0  0  0  0
   -3.3810    0.3500   -1.7240 C   0  0  0  0  0  0  0  0  0  0  0  0
   -3.1760   -0.0650   -2.9070 O   0  0  0  0  0  0  0  0  0  0  0  0
   -4.4140    1.1040   -1.4250 O   0  0  0  0  0  0  0  0  0  0  0  0
   -4.6370    1.5400   -0.2060 C   0  0  0  0  0  0  0  0  0  0  0  0
   -3.7960    1.2220    0.8010 N   0  0  0  0  0  0  0  0  0  0  0  0
   -2.7160    0.4560    0.5810 C   0  0  0  0  0  0  0  0  0  0  0  0
   -1.8590    0.1310    1.6140 C   0  0  0  0  0  0  0  0  0  0  0  0
   -0.7500   -0.6750    1.3130 C   0  0  0  0  0  0  0  0  0  0  0  0
    0.1120   -1.0350    2.3760 N   0  0  0  0  0  0  0  0  0  0  0  0
  1  2  1  0
  2  3  1  0
  3  4  2  0
  3  5  1  0
  5  6  1  0
  6  7  1  0
  7  8  2  0
  7 17  1  0
  8  9  1  0
  9 10  1  0
  9 15  2  0
 10 11  2  0
 10 12  1  0
 12 13  1  0
 13 14  2  0
 14 15  1  0
 15 16  1  0
 16 17  2  0
 17 18  1  0
M  END
