
     RDKit          3D

 26 28  0  0  0  0  0  0  0  0999 V2000
   -4.2660    2.0190    2.4340 C   0  0  0  0  0  0  0  0  0  0  0  0
   -3.9900    1.3850    1.3350 C   0  0  0  0  0  0  0  0  0  0  0  0
   -4.9440    1.5120    0.2640 N   0  0  0  0  0  0  0  0  0  0  0  0
   -4.5670    1.2290   -1.1200 C   0  0  0  0  0  0  0  0  0  0  0  0
   -3.6210    0.0850   -1.1310 C   0  0  0  0  0  0  0  0  0  0  0  0
   -3.6770   -0.8300   -2.0460 C   0  0  0  0  0  0  0  0  0  0  0  0
   -4.7290   -0.7130   -3.1120 C   0  0  0  0  0  0  0  0  0  0  0  0
   -2.5770   -0.0380   -0.0600 C   0  0  0  0  0  0  0  0  0  0  0  0
   -1.3370   -0.4430   -0.5430 N   0  0  0  0  0  0  0  0  0  0  0  0
   -0.0660   -0.2260   -0.0020 C   0  0  0  0  0  0  0  0  0  0  0  0
    0.1780    0.5010    0.9920 O   0  0  0  0  0  0  0  0  0  0  0  0
    1.1110   -0.8440   -0.5650 N   0  0  0  0  0  0  0  0  0  0  0  0
    2.3890   -0.5920    0.0230 C   0  0  1  0  0  0  0  0  0  0  0  0
    3.0190   -1.8840    0.5420 C   0  0  0  0  0  0  0  0  0  0  0  0
    4.0960   -1.5020    1.5060 C   0  0  0  0  0  0  0  0  0  0  0  0
    5.0480   -0.5440    0.8360 C   0  0  0  0  0  0  0  0  0  0  0  0
    4.7970   -0.4400   -0.6520 C   0  0  2  0  0  0  0  0  0  0  0  0
    5.7000    0.5400   -1.1740 N   0  0  0  0  0  0  0  0  0  0  0  0
    5.3650    1.8680   -0.8020 C   0  0  0  0  0  0  0  0  0  0  0  0
    6.0820    2.8730   -0.6280 O   0  0  0  0  0  0  0  0  0  0  0  0
    3.5620    1.8070   -0.6180 S   0  0  0  0  0  0  0  0  0  0  0  0
    3.3770    0.0060   -0.9460 C   0  0  2  0  0  0  0  0  0  0  0  0
   -2.8020    0.5720    1.0920 C   0  0  0  0  0  0  0  0  0  0  0  0
   -2.0800    0.0720    2.2870 C   0  0  0  0  0  0  0  0  0  0  0  0
   -1.3950   -0.9780    2.2280 O   0  0  0  0  0  0  0  0  0  0  0  0
   -2.1270    0.7230    3.4750 O   0  0  0  0  0  0  0  0  0  0  0  0
  1  2  2  0
  2  3  1  0
  2 23  1  0
  3  4  1  0
  4  5  1  0
  5  6  2  3
  5  8  1  0
  6  7  1  0
  8  9  1  0
  8 23  2  0
  9 10  1  0
 10 11  2  0
 10 12  1  0
 13 12  1  6
 13 14  1  0
 13 22  1  0
 14 15  1  0
 15 16  1  0
 17 16  1  1
 17 18  1  0
 17 22  1  0
 18 19  1  0
 19 20  2  0
 19 21  1  0
 22 21  1  1
 23 24  1  0
 24 25  2  0
 24 26  1  0
M  END
