
     RDKit          3D

 18 18  0  0  0  0  0  0  0  0999 V2000
   -2.4210   -1.3490    1.6490 C   0  0  0  0  0  0  0  0  0  0  0  0
   -3.3110   -0.8650    0.8110 C   0  0  0  0  0  0  0  0  0  0  0  0
   -4.7430   -0.8730    1.0700 C   0  0  0  0  0  0  0  0  0  0  0  0
   -5.2770   -1.5100    2.4600 S   0  0  0  0  0  0  0  0  0  0  0  0
   -5.6230   -0.3150    0.0790 N   0  0  0  0  0  0  0  0  0  0  0  0
   -5.1990    0.1910   -1.0250 C   0  0  0  0  0  0  0  0  0  0  0  0
   -3.7810    0.2080   -1.2990 C   0  0  0  0  0  0  0  0  0  0  0  0
   -2.8650   -0.2850   -0.4480 C   0  0  0  0  0  0  0  0  0  0  0  0
   -1.5110   -0.2580   -0.7320 O   0  0  0  0  0  0  0  0  0  0  0  0
   -0.7040    0.8160   -0.2840 C   0  0  0  0  0  0  0  0  0  0  0  0
    0.7170    0.6300   -0.7080 C   0  0  0  0  0  0  0  0  0  0  0  0
    1.0260   -0.3900   -1.3720 O   0  0  0  0  0  0  0  0  0  0  0  0
    1.7280    1.5730   -0.3820 N   0  0  0  0  0  0  0  0  0  0  0  0
    3.1020    1.4380   -0.7650 C   0  0  0  0  0  0  0  0  0  0  0  0
    3.7320    0.2050   -0.2270 C   0  0  0  0  0  0  0  0  0  0  0  0
    3.1360   -0.6260    0.4820 O   0  0  0  0  0  0  0  0  0  0  0  0
    5.0630   -0.0240   -0.5390 O   0  0  0  0  0  0  0  0  0  0  0  0
    5.7860   -1.1440   -0.1010 C   0  0  0  0  0  0  0  0  0  0  0  0
  1  2  2  0
  2  3  1  0
  2  8  1  0
  3  4  2  0
  3  5  1  0
  5  6  2  0
  6  7  1  0
  7  8  2  0
  8  9  1  0
  9 10  1  0
 10 11  1  0
 11 12  2  0
 11 13  1  0
 13 14  1  0
 14 15  1  0
 15 16  2  0
 15 17  1  0
 17 18  1  0
M  END
