
     RDKit          3D

 18 18  0  0  0  0  0  0  0  0999 V2000
    6.2110   -1.8760    1.0420 C   0  0  0  0  0  0  0  0  0  0  0  0
    5.2470   -1.6910    0.0000 O   0  0  0  0  0  0  0  0  0  0  0  0
    4.0940   -1.0050    0.2760 C   0  0  0  0  0  0  0  0  0  0  0  0
    3.9210   -0.5590    1.4390 O   0  0  0  0  0  0  0  0  0  0  0  0
    3.0780   -0.7900   -0.7560 C   0  0  0  0  0  0  0  0  0  0  0  0
    3.2230   -1.2170   -1.9070 O   0  0  0  0  0  0  0  0  0  0  0  0
    1.8840   -0.0710   -0.4460 N   0  0  0  0  0  0  0  0  0  0  0  0
    0.8500    0.1680   -1.4320 C   0  0  0  0  0  0  0  0  0  0  0  0
   -0.2470    0.9400   -0.7830 C   0  0  1  0  0  0  0  0  0  0  0  0
   -1.3410    1.2360   -1.6820 N   0  0  0  0  0  0  0  0  0  0  0  0
   -2.5650    1.4490   -1.0450 C   0  0  0  0  0  0  0  0  0  0  0  0
   -3.4480    2.3900   -1.3660 C   0  0  0  0  0  0  0  0  0  0  0  0
   -4.6610    2.5340   -0.6660 O   0  0  0  0  0  0  0  0  0  0  0  0
   -2.7910    0.4870    0.0470 C   0  0  0  0  0  0  0  0  0  0  0  0
   -3.9100    0.0640    0.5930 C   0  0  0  0  0  0  0  0  0  0  0  0
   -3.8240   -0.9230    1.6940 C   0  0  0  0  0  0  0  0  0  0  0  0
   -2.5010   -1.2500    1.9750 O   0  0  0  0  0  0  0  0  0  0  0  0
   -1.1070   -0.0180    0.4930 S   0  0  0  0  0  0  0  0  0  0  0  0
  1  2  1  0
  2  3  1  0
  3  4  2  0
  3  5  1  0
  5  6  2  0
  5  7  1  0
  7  8  1  0
  9  8  1  6
  9 10  1  0
  9 18  1  0
 10 11  1  0
 11 12  2  3
 11 14  1  0
 12 13  1  0
 14 15  2  3
 14 18  1  0
 15 16  1  0
 16 17  1  0
M  END
