
     RDKit          3D

 18 19  0  0  0  0  0  0  0  0999 V2000
   -5.6570    0.8080    0.1030 N   0  0  0  0  0  0  0  0  0  0  0  0
   -4.7620   -0.0760    0.7610 C   0  0  0  0  0  0  0  0  0  0  0  0
   -3.3360    0.1420    0.2190 C   0  0  0  0  0  0  0  0  0  0  0  0
   -3.0980    1.0440   -0.8020 C   0  0  0  0  0  0  0  0  0  0  0  0
   -1.2720    0.8590   -0.9930 S   0  0  0  0  0  0  0  0  0  0  0  0
   -1.0710   -0.3390    0.2550 C   0  0  0  0  0  0  0  0  0  0  0  0
    0.1860   -0.9250    0.6180 N   0  0  0  0  0  0  0  0  0  0  0  0
    1.3750   -0.5610   -0.0270 C   0  0  0  0  0  0  0  0  0  0  0  0
    1.3620    0.2940   -0.9440 O   0  0  0  0  0  0  0  0  0  0  0  0
    2.5910   -1.1200    0.3160 O   0  0  0  0  0  0  0  0  0  0  0  0
    3.7800   -0.7560   -0.3290 C   0  0  0  0  0  0  0  0  0  0  0  0
    4.6050    0.2180    0.0190 C   0  0  0  0  0  0  0  0  0  0  0  0
    4.4100    1.0500    1.1090 O   0  0  0  0  0  0  0  0  0  0  0  0
    5.7360    0.2560   -0.9340 C   0  0  0  0  0  0  0  0  0  0  0  0
    5.4900   -0.7660   -1.8440 O   0  0  0  0  0  0  0  0  0  0  0  0
    4.3110   -1.4080   -1.5140 C   0  0  0  0  0  0  0  0  0  0  0  0
    3.8420   -2.3760   -2.1690 O   0  0  0  0  0  0  0  0  0  0  0  0
   -2.2890   -0.5330    0.7230 C   0  0  0  0  0  0  0  0  0  0  0  0
  1  2  1  0
  2  3  1  0
  3  4  2  0
  3 18  1  0
  4  5  1  0
  5  6  1  0
  6  7  1  0
  6 18  2  0
  7  8  1  0
  8  9  2  0
  8 10  1  0
 10 11  1  0
 11 12  2  0
 11 16  1  0
 12 13  1  0
 12 14  1  0
 14 15  1  0
 15 16  1  0
 16 17  2  0
M  CHG  1   1   1
M  END
