
     RDKit          3D

 17 18  0  0  0  0  0  0  0  0999 V2000
   -3.0540    2.7790   -0.0970 N   0  0  0  0  0  0  0  0  0  0  0  0
   -2.7240    1.5240    0.3570 O   0  0  0  0  0  0  0  0  0  0  0  0
   -1.5800    0.8870   -0.1990 C   0  0  0  0  0  0  0  0  0  0  0  0
   -0.9740    1.5500   -1.0670 O   0  0  0  0  0  0  0  0  0  0  0  0
   -1.2430   -0.4540    0.2980 C   0  0  1  0  0  0  0  0  0  0  0  0
   -2.2450   -0.7930    1.3210 N   0  0  0  0  0  0  0  0  0  0  0  0
   -1.4310   -1.4860   -0.7670 C   0  0  0  0  0  0  0  0  0  0  0  0
   -1.1960   -2.7430   -0.1440 O   0  0  0  0  0  0  0  0  0  0  0  0
    0.1400   -0.4980    0.9370 C   0  0  0  0  0  0  0  0  0  0  0  0
    0.1970   -0.7480    2.2960 C   0  0  0  0  0  0  0  0  0  0  0  0
    1.9640   -0.6590    2.6630 S   0  0  0  0  0  0  0  0  0  0  0  0
    2.4700   -0.3100    1.0440 C   0  0  0  0  0  0  0  0  0  0  0  0
    1.2620   -0.2750    0.2780 C   0  0  0  0  0  0  0  0  0  0  0  0
    1.7070    0.0000   -1.1620 C   0  0  0  0  0  0  0  0  0  0  0  0
    2.4960    1.2940   -0.9890 C   0  0  0  0  0  0  0  0  0  0  0  0
    3.7480    0.9710   -0.5490 O   0  0  0  0  0  0  0  0  0  0  0  0
    3.7620   -0.0630    0.3530 C   0  0  0  0  0  0  0  0  0  0  0  0
  1  2  1  0
  2  3  1  0
  3  4  2  0
  3  5  1  0
  5  6  1  1
  5  7  1  0
  5  9  1  0
  7  8  1  0
  9 10  2  0
  9 13  1  0
 10 11  1  0
 11 12  1  0
 12 13  2  0
 12 17  1  0
 13 14  1  0
 14 15  1  0
 15 16  1  0
 16 17  1  0
M  CHG  1   6   1
M  END
