
     RDKit          3D

  9  8  0  0  0  0  0  0  0  0999 V2000
    1.5360    0.3710    0.8880 C   0  0  0  0  0  0  0  0  0  0  0  0
    0.9150   -0.4480   -0.1850 C   0  0  1  0  0  0  0  0  0  0  0  0
    1.6680   -0.2520   -1.3610 O   0  0  0  0  0  0  0  0  0  0  0  0
    0.9330   -1.7870    0.2060 O   0  0  0  0  0  0  0  0  0  0  0  0
   -0.5220   -0.0900   -0.4610 C   0  0  1  0  0  0  0  0  0  0  0  0
   -0.6950    1.3420   -0.8820 C   0  0  0  0  0  0  0  0  0  0  0  0
   -1.0310   -0.8920   -1.4740 O   0  0  0  0  0  0  0  0  0  0  0  0
   -1.3520   -0.3460    0.7740 C   0  0  0  0  0  0  0  0  0  0  0  0
   -0.8780    0.4330    1.8040 O   0  0  0  0  0  0  0  0  0  0  0  0
  2  1  1  1
  2  3  1  0
  2  4  1  0
  2  5  1  0
  5  6  1  6
  5  7  1  0
  5  8  1  0
  8  9  1  0
M  END
