
     RDKit          3D

 12 12  0  0  0  0  0  0  0  0999 V2000
   -3.7260   -1.1640    0.6600 O   0  0  0  0  0  0  0  0  0  0  0  0
   -3.0300   -0.1490    0.5230 C   0  0  0  0  0  0  0  0  0  0  0  0
   -3.5490    1.0620    0.0920 O   0  0  0  0  0  0  0  0  0  0  0  0
   -1.5710   -0.1970    0.8260 C   0  0  1  0  0  0  0  0  0  0  0  0
   -1.1780   -1.4580    1.2460 O   0  0  0  0  0  0  0  0  0  0  0  0
   -0.8500    0.1720   -0.4770 C   0  0  0  0  0  0  0  0  0  0  0  0
    0.6010    0.1500   -0.2730 C   0  0  0  0  0  0  0  0  0  0  0  0
    1.3230   -1.0030   -0.4840 C   0  0  0  0  0  0  0  0  0  0  0  0
    2.6750   -1.0080   -0.2890 C   0  0  0  0  0  0  0  0  0  0  0  0
    3.3390    0.1250    0.1180 C   0  0  0  0  0  0  0  0  0  0  0  0
    2.6200    1.2810    0.3310 C   0  0  0  0  0  0  0  0  0  0  0  0
    1.2420    1.2820    0.1310 C   0  0  0  0  0  0  0  0  0  0  0  0
  1  2  2  0
  2  3  1  0
  2  4  1  0
  4  5  1  6
  4  6  1  0
  6  7  1  0
  7  8  2  0
  7 12  1  0
  8  9  1  0
  9 10  2  0
 10 11  1  0
 11 12  2  0
M  END
