
     RDKit          3D

 18 18  0  0  0  0  0  0  0  0999 V2000
    3.5950   -1.1530    1.5020 N   0  0  0  0  0  0  0  0  0  0  0  0
    2.4010   -1.7730    1.0750 C   0  0  0  0  0  0  0  0  0  0  0  0
    2.2120   -2.9700    1.4250 O   0  0  0  0  0  0  0  0  0  0  0  0
    1.4130   -1.0210    0.2420 C   0  0  0  0  0  0  0  0  0  0  0  0
    1.7750    0.2360   -0.0300 C   0  0  0  0  0  0  0  0  0  0  0  0
    1.0900    1.2510   -0.7820 C   0  0  0  0  0  0  0  0  0  0  0  0
    1.4440    1.4230   -2.1660 O   0  0  0  0  0  0  0  0  0  0  0  0
    0.1380    2.1030   -0.3710 C   0  0  0  0  0  0  0  0  0  0  0  0
   -0.5430    3.2870   -1.5970 S   0  0  0  0  0  0  0  0  0  0  0  0
   -0.3750    2.2590    0.9770 C   0  0  0  0  0  0  0  0  0  0  0  0
   -1.1080    1.4630    1.7090 C   0  0  0  0  0  0  0  0  0  0  0  0
   -1.6190    0.2280    1.4040 O   0  0  0  0  0  0  0  0  0  0  0  0
   -2.5290   -0.1150    0.4130 C   0  0  0  0  0  0  0  0  0  0  0  0
   -2.6780   -1.6230    0.4130 C   0  0  0  0  0  0  0  0  0  0  0  0
   -2.0020   -2.2190   -0.7210 N   0  0  0  0  0  0  0  0  0  0  0  0
   -0.6170   -1.8850   -1.0520 C   0  0  0  0  0  0  0  0  0  0  0  0
   -0.4860   -1.8300   -2.3080 O   0  0  0  0  0  0  0  0  0  0  0  0
    0.3110   -1.6860   -0.1260 O   0  0  0  0  0  0  0  0  0  0  0  0
  1  2  1  0
  2  3  2  0
  2  4  1  0
  4  5  2  0
  4 18  1  0
  5  6  1  0
  6  7  1  0
  6  8  2  0
  8  9  1  0
  8 10  1  0
 10 11  2  0
 11 12  1  0
 12 13  1  0
 13 14  1  0
 14 15  1  0
 15 16  1  0
 16 17  2  0
 16 18  1  0
M  END
