
     RDKit          3D

 32 36  0  0  0  0  0  0  0  0999 V2000
   -8.8950   -1.6300    2.7880 O   0  0  0  0  0  0  0  0  0  0  0  0
   -7.8840   -0.8990    2.9330 C   0  0  0  0  0  0  0  0  0  0  0  0
   -7.1280   -0.4950    1.7750 C   0  0  0  0  0  0  0  0  0  0  0  0
   -6.0360    0.2770    1.7740 N   0  0  0  0  0  0  0  0  0  0  0  0
   -5.5940    0.4470    0.5060 C   0  0  0  0  0  0  0  0  0  0  0  0
   -4.4090    1.2370    0.0810 C   0  0  0  0  0  0  0  0  0  0  0  0
   -3.2720    0.3440    0.0470 N   0  0  0  0  0  0  0  0  0  0  0  0
   -1.9740    0.8170   -0.3370 C   0  0  0  0  0  0  0  0  0  0  0  0
   -1.8080    2.0270   -0.6520 O   0  0  0  0  0  0  0  0  0  0  0  0
   -0.8850   -0.1500   -0.3440 C   0  0  0  0  0  0  0  0  0  0  0  0
   -1.1180   -1.3450    0.0160 O   0  0  0  0  0  0  0  0  0  0  0  0
    0.4400    0.1400   -0.7290 N   0  0  0  0  0  0  0  0  0  0  0  0
    0.8050    1.4550   -1.1830 C   0  0  0  0  0  0  0  0  0  0  0  0
    2.1890    1.3230   -1.8460 C   0  0  0  0  0  0  0  0  0  0  0  0
    3.1450    0.8790   -0.7670 C   0  0  0  0  0  0  0  0  0  0  0  0
    2.6220   -0.2130    0.1070 C   0  0  2  0  0  0  0  0  0  0  0  0
    3.7150   -1.2040    0.3970 C   0  0  0  0  0  0  0  0  0  0  0  0
    4.8250   -0.5440    1.0690 N   0  0  0  0  0  0  0  0  0  0  0  0
    4.9030    0.0350    2.3790 C   0  0  0  0  0  0  0  0  0  0  0  0
    5.8760    1.2140    2.2490 C   0  0  0  0  0  0  0  0  0  0  0  0
    6.7970    0.7320    1.2030 C   0  0  0  0  0  0  0  0  0  0  0  0
    7.9860    0.9030    0.6660 C   0  0  0  0  0  0  0  0  0  0  0  0
    8.1530   -0.0610   -0.4260 C   0  0  0  0  0  0  0  0  0  0  0  0
    6.8890   -0.8370   -0.4700 C   0  0  0  0  0  0  0  0  0  0  0  0
    6.1300   -0.3480    0.4890 C   0  0  0  0  0  0  0  0  0  0  0  0
    1.4730   -0.8680   -0.6660 C   0  0  0  0  0  0  0  0  0  0  0  0
   -6.4290   -0.2330   -0.3120 N   0  0  0  0  0  0  0  0  0  0  0  0
   -6.4790   -0.4170   -1.6360 C   0  0  0  0  0  0  0  0  0  0  0  0
   -7.4530   -1.1740   -2.2470 C   0  0  0  0  0  0  0  0  0  0  0  0
   -8.4190   -1.7680   -1.4490 C   0  0  0  0  0  0  0  0  0  0  0  0
   -8.3940   -1.5990   -0.0910 C   0  0  0  0  0  0  0  0  0  0  0  0
   -7.3810   -0.8190    0.4680 C   0  0  0  0  0  0  0  0  0  0  0  0
  1  2  2  0
  2  3  1  0
  3  4  1  0
  3 32  2  0
  4  5  2  0
  5  6  1  0
  5 27  1  0
  6  7  1  0
  7  8  1  0
  8  9  2  0
  8 10  1  0
 10 11  2  0
 10 12  1  0
 12 13  1  0
 12 26  1  0
 13 14  1  0
 14 15  1  0
 15 16  1  0
 16 17  1  6
 16 26  1  0
 17 18  1  0
 18 19  1  0
 18 25  1  0
 19 20  1  0
 20 21  1  0
 21 22  2  0
 21 25  1  0
 22 23  1  0
 23 24  1  0
 24 25  2  0
 27 28  1  0
 27 32  1  0
 28 29  2  0
 29 30  1  0
 30 31  2  0
 31 32  1  0
M  END
