
     RDKit          3D

 32 35  0  0  0  0  0  0  0  0999 V2000
   -5.7250   -1.6150   -1.1130 C   0  0  0  0  0  0  0  0  0  0  0  0
   -4.9370   -0.3910   -1.1650 C   0  0  0  0  0  0  0  0  0  0  0  0
   -5.4880    0.7850   -1.3930 C   0  0  0  0  0  0  0  0  0  0  0  0
   -4.6450    2.0030   -1.4360 C   0  0  0  0  0  0  0  0  0  0  0  0
   -3.4610    2.0040   -0.5150 C   0  0  0  0  0  0  0  0  0  0  0  0
   -3.1780    0.6980   -0.0250 N   0  0  0  0  0  0  0  0  0  0  0  0
   -2.6920    0.3220    1.2300 C   0  0  0  0  0  0  0  0  0  0  0  0
   -3.5450    0.2480    2.2730 C   0  0  0  0  0  0  0  0  0  0  0  0
   -4.9430    0.5280    2.2200 C   0  0  0  0  0  0  0  0  0  0  0  0
   -5.9840   -0.2370    2.7780 C   0  0  0  0  0  0  0  0  0  0  0  0
   -7.1460    0.4210    2.4780 C   0  0  0  0  0  0  0  0  0  0  0  0
   -6.7990    1.5250    1.7740 C   0  0  0  0  0  0  0  0  0  0  0  0
   -5.5180    1.5410    1.6520 O   0  0  0  0  0  0  0  0  0  0  0  0
   -1.3220    0.0040    1.5140 C   0  0  0  0  0  0  0  0  0  0  0  0
   -1.0090   -0.3220    2.7440 O   0  0  0  0  0  0  0  0  0  0  0  0
   -0.2420   -0.0010    0.6060 N   0  0  0  0  0  0  0  0  0  0  0  0
   -0.2030    0.2750   -0.8070 C   0  0  0  0  0  0  0  0  0  0  0  0
    1.2290    0.2220   -1.1820 C   0  0  0  0  0  0  0  0  0  0  0  0
    1.9400   -0.1300   -0.1390 C   0  0  0  0  0  0  0  0  0  0  0  0
    3.4170   -0.2910   -0.1440 C   0  0  0  0  0  0  0  0  0  0  0  0
    4.0060   -0.6450    0.9580 C   0  0  0  0  0  0  0  0  0  0  0  0
    5.4170   -0.8480    1.1400 C   0  0  0  0  0  0  0  0  0  0  0  0
    5.8490   -1.1960    2.2830 O   0  0  0  0  0  0  0  0  0  0  0  0
    6.3350   -0.6710    0.0830 N   0  0  0  0  0  0  0  0  0  0  0  0
    6.1440   -0.3090   -1.1750 N   0  0  0  0  0  0  0  0  0  0  0  0
    7.2880   -0.2660   -1.8590 C   0  0  0  0  0  0  0  0  0  0  0  0
    7.5080    0.0910   -3.2830 C   0  0  0  0  0  0  0  0  0  0  0  0
    8.2730   -0.6290   -0.9600 C   0  0  0  0  0  0  0  0  0  0  0  0
    7.6750   -0.8790    0.2410 C   0  0  0  0  0  0  0  0  0  0  0  0
    8.3960   -1.2980    1.4610 C   0  0  0  0  0  0  0  0  0  0  0  0
    1.1060   -0.2860    0.9840 N   0  0  0  0  0  0  0  0  0  0  0  0
   -3.4740   -0.4070   -0.9700 C   0  0  0  0  0  0  0  0  0  0  0  0
  1  2  1  0
  2  3  2  0
  2 32  1  0
  3  4  1  0
  4  5  1  0
  5  6  1  0
  6  7  1  0
  6 32  1  0
  7  8  2  3
  7 14  1  0
  8  9  1  0
  9 10  2  0
  9 13  1  0
 10 11  1  0
 11 12  2  0
 12 13  1  0
 14 15  2  0
 14 16  1  0
 16 17  1  0
 16 31  1  0
 17 18  1  0
 18 19  2  0
 19 20  1  0
 19 31  1  0
 20 21  2  3
 21 22  1  0
 22 23  2  0
 22 24  1  0
 24 25  1  0
 24 29  1  0
 25 26  2  0
 26 27  1  0
 26 28  1  0
 28 29  2  0
 29 30  1  0
M  END
