
     RDKit          3D

 32 36  0  0  0  0  0  0  0  0999 V2000
    7.0370    0.8470   -2.8780 C   0  0  0  0  0  0  0  0  0  0  0  0
    6.1080    0.8440   -1.9450 C   0  0  0  0  0  0  0  0  0  0  0  0
    4.9670    1.5310   -2.0130 O   0  0  0  0  0  0  0  0  0  0  0  0
    4.2480    1.3350   -0.9510 C   0  0  0  0  0  0  0  0  0  0  0  0
    3.0000    1.8090   -0.5380 C   0  0  0  0  0  0  0  0  0  0  0  0
    2.4750    1.4070    0.6940 C   0  0  0  0  0  0  0  0  0  0  0  0
    3.1300    0.5520    1.5420 C   0  0  0  0  0  0  0  0  0  0  0  0
    2.6340    0.1340    2.7630 O   0  0  0  0  0  0  0  0  0  0  0  0
    1.3840    0.5570    3.2000 C   0  0  0  0  0  0  0  0  0  0  0  0
    0.3540    0.0210    2.2280 C   0  0  0  0  0  0  0  0  0  0  0  0
    0.7020   -0.7250    1.2890 O   0  0  0  0  0  0  0  0  0  0  0  0
   -0.9940    0.3980    2.4280 N   0  0  0  0  0  0  0  0  0  0  0  0
   -2.0380   -0.0200    1.6020 C   0  0  0  0  0  0  0  0  0  0  0  0
   -3.3340    0.1370    2.0640 C   0  0  0  0  0  0  0  0  0  0  0  0
   -4.4180   -0.2320    1.3020 C   0  0  0  0  0  0  0  0  0  0  0  0
   -4.2860   -0.7770    0.0430 C   0  0  0  0  0  0  0  0  0  0  0  0
   -5.4250   -1.1510   -0.7250 N   0  0  0  0  0  0  0  0  0  0  0  0
   -5.4690   -2.1680   -1.5660 N   0  0  0  0  0  0  0  0  0  0  0  0
   -6.6780   -2.2720   -2.1440 C   0  0  0  0  0  0  0  0  0  0  0  0
   -7.4670   -1.2400   -1.6310 C   0  0  0  0  0  0  0  0  0  0  0  0
   -8.7440   -0.8620   -1.8470 N   0  0  0  0  0  0  0  0  0  0  0  0
   -9.2610    0.1960   -1.2020 C   0  0  0  0  0  0  0  0  0  0  0  0
   -8.4510    0.8760   -0.3210 C   0  0  0  0  0  0  0  0  0  0  0  0
   -7.1690    0.4840   -0.1140 N   0  0  0  0  0  0  0  0  0  0  0  0
   -6.6390   -0.5720   -0.7530 C   0  0  0  0  0  0  0  0  0  0  0  0
   -2.9980   -0.9310   -0.4130 C   0  0  0  0  0  0  0  0  0  0  0  0
   -1.8810   -0.5570    0.3590 C   0  0  0  0  0  0  0  0  0  0  0  0
    4.3800    0.0900    1.1070 C   0  0  0  0  0  0  0  0  0  0  0  0
    4.9050    0.4780   -0.1010 C   0  0  0  0  0  0  0  0  0  0  0  0
    6.1170    0.1660   -0.7620 C   0  0  0  0  0  0  0  0  0  0  0  0
    6.9860   -0.6460   -0.2020 C   0  0  0  0  0  0  0  0  0  0  0  0
    8.2710   -1.0510   -0.7730 C   0  0  0  0  0  0  0  0  0  0  0  0
  1  2  2  0
  2  3  1  0
  2 30  1  0
  3  4  1  0
  4  5  2  0
  4 29  1  0
  5  6  1  0
  6  7  2  0
  7  8  1  0
  7 28  1  0
  8  9  1  0
  9 10  1  0
 10 11  2  0
 10 12  1  0
 12 13  1  0
 13 14  2  0
 13 27  1  0
 14 15  1  0
 15 16  2  0
 16 17  1  0
 16 26  1  0
 17 18  1  0
 17 25  1  0
 18 19  2  0
 19 20  1  0
 20 21  2  0
 20 25  1  0
 21 22  1  0
 22 23  2  0
 23 24  1  0
 24 25  2  0
 26 27  2  0
 28 29  2  0
 29 30  1  0
 30 31  2  3
 31 32  1  0
M  END
