
     RDKit          3D

 32 36  0  0  0  0  0  0  0  0999 V2000
   -2.9460   -3.9260   -0.9520 C   0  0  0  0  0  0  0  0  0  0  0  0
   -3.0830   -2.5690   -0.3110 C   0  0  0  0  0  0  0  0  0  0  0  0
   -2.7570   -1.5160   -1.2290 O   0  0  0  0  0  0  0  0  0  0  0  0
   -2.8500   -0.2250   -0.7400 C   0  0  0  0  0  0  0  0  0  0  0  0
   -4.0320    0.4070   -0.7430 N   0  0  0  0  0  0  0  0  0  0  0  0
   -4.3900    1.5990   -0.1800 C   0  0  0  0  0  0  0  0  0  0  0  0
   -5.8250    1.9680   -0.3670 C   0  0  0  0  0  0  0  0  0  0  0  0
   -6.6570    1.4170    0.7950 C   0  0  0  0  0  0  0  0  0  0  0  0
   -3.5920    2.4800    0.5250 C   0  0  0  0  0  0  0  0  0  0  0  0
   -2.3170    2.3430    0.9520 N   0  0  0  0  0  0  0  0  0  0  0  0
   -1.4320    1.4300    0.4710 C   0  0  0  0  0  0  0  0  0  0  0  0
   -0.1610    1.7800    0.8340 C   0  0  0  0  0  0  0  0  0  0  0  0
    0.8850    0.9810    0.4380 C   0  0  0  0  0  0  0  0  0  0  0  0
    0.6820   -0.1780   -0.3210 C   0  0  0  0  0  0  0  0  0  0  0  0
   -0.5930   -0.5070   -0.6710 C   0  0  0  0  0  0  0  0  0  0  0  0
   -1.6540    0.2870   -0.2820 C   0  0  0  0  0  0  0  0  0  0  0  0
    1.5850   -1.0540   -0.7780 O   0  0  0  0  0  0  0  0  0  0  0  0
    2.7120   -1.3980   -0.1620 C   0  0  0  0  0  0  0  0  0  0  0  0
    3.4140   -0.6260    0.7360 C   0  0  0  0  0  0  0  0  0  0  0  0
    4.5770   -1.0030    1.3600 C   0  0  0  0  0  0  0  0  0  0  0  0
    4.9470    0.0180    2.1530 N   0  0  0  0  0  0  0  0  0  0  0  0
    4.0770    1.0360    2.0700 N   0  0  0  0  0  0  0  0  0  0  0  0
    3.1210    0.7180    1.2300 C   0  0  0  0  0  0  0  0  0  0  0  0
    2.0420    1.4880    0.8600 N   0  0  0  0  0  0  0  0  0  0  0  0
    2.2620    2.8920    0.9460 C   0  0  0  0  0  0  0  0  0  0  0  0
    2.8470    3.3030   -0.4020 C   0  0  0  0  0  0  0  0  0  0  0  0
    3.2140    4.7110   -0.7040 C   0  0  0  0  0  0  0  0  0  0  0  0
    3.0290    2.4810   -1.2740 O   0  0  0  0  0  0  0  0  0  0  0  0
    5.1250   -2.3400    1.0490 C   0  0  0  0  0  0  0  0  0  0  0  0
    4.3250   -3.1070    0.0840 C   0  0  0  0  0  0  0  0  0  0  0  0
    4.7850   -4.4900   -0.3130 C   0  0  0  0  0  0  0  0  0  0  0  0
    3.2060   -2.7160   -0.5010 C   0  0  0  0  0  0  0  0  0  0  0  0
  1  2  1  0
  2  3  1  0
  3  4  1  0
  4  5  1  0
  4 16  2  0
  5  6  1  0
  6  7  1  0
  6  9  2  0
  7  8  1  0
  9 10  1  0
 10 11  2  0
 11 12  1  0
 11 16  1  0
 12 13  2  0
 13 14  1  0
 13 24  1  0
 14 15  2  0
 14 17  1  0
 15 16  1  0
 17 18  1  0
 18 19  2  0
 18 32  1  0
 19 20  1  0
 19 23  1  0
 20 21  2  0
 20 29  1  0
 21 22  1  0
 22 23  2  0
 23 24  1  0
 24 25  1  0
 25 26  1  0
 26 27  1  0
 26 28  2  0
 29 30  1  0
 30 31  1  0
 30 32  2  0
M  END
