
     RDKit          3D

 32 36  0  0  0  0  0  0  0  0999 V2000
    7.8580    1.2140    2.2210 C   0  0  0  0  0  0  0  0  0  0  0  0
    6.5750    1.6700    1.5280 C   0  0  1  0  0  0  0  0  0  0  0  0
    6.8700    3.0930    1.0360 C   0  0  0  0  0  0  0  0  0  0  0  0
    6.2620    0.8860    0.4280 O   0  0  0  0  0  0  0  0  0  0  0  0
    5.1240    0.1560    0.1970 C   0  0  0  0  0  0  0  0  0  0  0  0
    4.0510    0.0730    1.0570 C   0  0  0  0  0  0  0  0  0  0  0  0
    2.9230   -0.6790    0.7790 C   0  0  0  0  0  0  0  0  0  0  0  0
    2.8910   -1.3670   -0.4140 C   0  0  0  0  0  0  0  0  0  0  0  0
    3.9470   -1.3280   -1.3350 C   0  0  0  0  0  0  0  0  0  0  0  0
    5.0370   -0.5570   -0.9870 C   0  0  0  0  0  0  0  0  0  0  0  0
    3.9000   -2.0280   -2.5390 O   0  0  0  0  0  0  0  0  0  0  0  0
    2.9480   -3.0460   -2.7440 C   0  0  0  0  0  0  0  0  0  0  0  0
    1.6230   -2.5640   -2.1780 C   0  0  0  0  0  0  0  0  0  0  0  0
    1.7800   -2.1710   -0.7920 N   0  0  0  0  0  0  0  0  0  0  0  0
    0.8030   -2.6060    0.1690 C   0  0  0  0  0  0  0  0  0  0  0  0
   -0.4980   -2.0450   -0.1850 N   0  0  0  0  0  0  0  0  0  0  0  0
   -0.9300   -0.8600    0.2700 C   0  0  0  0  0  0  0  0  0  0  0  0
   -2.2080   -0.5910   -0.2400 C   0  0  0  0  0  0  0  0  0  0  0  0
   -3.0020    0.6030   -0.0200 C   0  0  0  0  0  0  0  0  0  0  0  0
   -2.4470    1.8390   -0.2270 N   0  0  0  0  0  0  0  0  0  0  0  0
   -3.1130    2.9800   -0.0380 C   0  0  0  0  0  0  0  0  0  0  0  0
   -2.5400    4.1010   -0.2480 O   0  0  0  0  0  0  0  0  0  0  0  0
   -4.3870    2.9280    0.3750 N   0  0  0  0  0  0  0  0  0  0  0  0
   -5.0000    1.7650    0.6000 C   0  0  0  0  0  0  0  0  0  0  0  0
   -4.3050    0.5880    0.4030 C   0  0  0  0  0  0  0  0  0  0  0  0
   -4.8650   -0.7830    0.6490 C   0  0  0  0  0  0  0  0  0  0  0  0
   -6.0100   -0.9630   -0.2940 C   0  0  0  0  0  0  0  0  0  0  0  0
   -6.4570    0.3350   -0.9250 C   0  0  0  0  0  0  0  0  0  0  0  0
   -7.2600    1.1820    0.0360 C   0  0  0  0  0  0  0  0  0  0  0  0
   -6.4060    1.9010    1.0470 C   0  0  0  0  0  0  0  0  0  0  0  0
   -2.4850   -1.6890   -1.0140 C   0  0  0  0  0  0  0  0  0  0  0  0
   -1.4220   -2.5480   -0.9540 N   0  0  0  0  0  0  0  0  0  0  0  0
  2  1  1  6
  2  3  1  0
  2  4  1  0
  4  5  1  0
  5  6  2  0
  5 10  1  0
  6  7  1  0
  7  8  2  0
  8  9  1  0
  8 14  1  0
  9 10  2  0
  9 11  1  0
 11 12  1  0
 12 13  1  0
 13 14  1  0
 14 15  1  0
 15 16  1  0
 16 17  1  0
 16 32  1  0
 17 18  2  0
 18 19  1  0
 18 31  1  0
 19 20  2  0
 19 25  1  0
 20 21  1  0
 21 22  2  0
 21 23  1  0
 23 24  1  0
 24 25  2  0
 24 30  1  0
 25 26  1  0
 26 27  1  0
 27 28  1  0
 28 29  1  0
 29 30  1  0
 31 32  2  0
M  END
