
     RDKit          3D

 32 36  0  0  0  0  0  0  0  0999 V2000
   -4.5440   -0.2970    4.1610 C   0  0  0  0  0  0  0  0  0  0  0  0
   -4.3590   -0.3850    2.6880 C   0  0  0  0  0  0  0  0  0  0  0  0
   -5.3060    0.0640    1.8740 C   0  0  0  0  0  0  0  0  0  0  0  0
   -6.5730    0.6650    2.2880 C   0  0  0  0  0  0  0  0  0  0  0  0
   -7.2590    0.9910    1.1950 C   0  0  0  0  0  0  0  0  0  0  0  0
   -6.4550    0.6100    0.0420 C   0  0  0  0  0  0  0  0  0  0  0  0
   -5.3150    0.0690    0.4370 C   0  0  0  0  0  0  0  0  0  0  0  0
   -4.2630   -0.4290   -0.4480 C   0  0  0  0  0  0  0  0  0  0  0  0
   -3.0910   -0.9850   -0.0780 N   0  0  0  0  0  0  0  0  0  0  0  0
   -2.4210   -1.3020   -1.1600 O   0  0  0  0  0  0  0  0  0  0  0  0
   -3.0900   -0.9850   -2.2300 C   0  0  0  0  0  0  0  0  0  0  0  0
   -2.6360   -1.1990   -3.6290 C   0  0  0  0  0  0  0  0  0  0  0  0
   -1.3190   -1.6090   -3.7100 O   0  0  0  0  0  0  0  0  0  0  0  0
   -0.2900   -0.8090   -3.2440 C   0  0  0  0  0  0  0  0  0  0  0  0
    1.0390   -1.2510   -3.3240 C   0  0  0  0  0  0  0  0  0  0  0  0
    2.0950   -0.4980   -2.8790 C   0  0  0  0  0  0  0  0  0  0  0  0
    1.8420    0.7410   -2.3300 C   0  0  0  0  0  0  0  0  0  0  0  0
    2.9640    1.4790   -1.8840 N   0  0  0  0  0  0  0  0  0  0  0  0
    3.6960    1.0410   -0.9500 C   0  0  0  0  0  0  0  0  0  0  0  0
    3.5820   -0.2200   -0.1650 C   0  0  0  0  0  0  0  0  0  0  0  0
    2.7360   -1.1220   -0.2500 O   0  0  0  0  0  0  0  0  0  0  0  0
    4.7100   -0.2100    0.7840 N   0  0  0  0  0  0  0  0  0  0  0  0
    5.3410   -1.3640    1.2850 C   0  0  0  0  0  0  0  0  0  0  0  0
    4.7180   -1.8860    2.5640 C   0  0  0  0  0  0  0  0  0  0  0  0
    4.9460    1.1680    1.0200 C   0  0  1  0  0  0  0  0  0  0  0  0
    6.1130    1.7430    1.5860 C   0  0  0  0  0  0  0  0  0  0  0  0
    6.6630    2.5410    0.6890 N   0  0  0  0  0  0  0  0  0  0  0  0
    5.9090    2.5150   -0.5110 C   0  0  0  0  0  0  0  0  0  0  0  0
    4.9020    1.7120   -0.4090 C   0  0  0  0  0  0  0  0  0  0  0  0
    0.5550    1.2200   -2.2280 C   0  0  0  0  0  0  0  0  0  0  0  0
   -0.5000    0.4260   -2.6930 C   0  0  0  0  0  0  0  0  0  0  0  0
   -4.2390   -0.4400   -1.7930 N   0  0  0  0  0  0  0  0  0  0  0  0
  1  2  1  0
  2  3  2  3
  3  4  1  0
  3  7  1  0
  4  5  2  0
  5  6  1  0
  6  7  2  0
  7  8  1  0
  8  9  2  0
  8 32  1  0
  9 10  1  0
 10 11  1  0
 11 12  1  0
 11 32  2  0
 12 13  1  0
 13 14  1  0
 14 15  2  0
 14 31  1  0
 15 16  1  0
 16 17  2  0
 17 18  1  0
 17 30  1  0
 18 19  2  3
 19 20  1  0
 19 29  1  0
 20 21  2  0
 20 22  1  0
 22 23  1  0
 25 22  1  6
 23 24  1  0
 25 26  1  0
 25 29  1  0
 26 27  2  0
 27 28  1  0
 28 29  2  0
 30 31  2  0
M  END
