
     RDKit          3D

 33 35  0  0  0  0  0  0  0  0999 V2000
    5.4430   -1.3170    2.3420 C   0  0  0  0  0  0  0  0  0  0  0  0
    4.7110   -0.2950    1.4810 C   0  0  0  0  0  0  0  0  0  0  0  0
    3.3530   -0.8600    1.0840 C   0  0  2  0  0  0  0  0  0  0  0  0
    3.5460   -2.1020    0.3230 C   0  0  0  0  0  0  0  0  0  0  0  0
    3.9320   -2.0040   -1.1130 C   0  0  0  0  0  0  0  0  0  0  0  0
    3.3710   -2.9900   -1.9120 O   0  0  0  0  0  0  0  0  0  0  0  0
    2.2560   -3.1040   -2.6430 C   0  0  0  0  0  0  0  0  0  0  0  0
    2.3060   -3.2560   -3.9030 O   0  0  0  0  0  0  0  0  0  0  0  0
    0.8850   -3.0650   -2.0700 C   0  0  0  0  0  0  0  0  0  0  0  0
    0.3730   -1.6170   -1.9440 C   0  0  0  0  0  0  0  0  0  0  0  0
   -0.7920   -1.5970   -1.0120 C   0  0  0  0  0  0  0  0  0  0  0  0
   -1.1540   -0.3500   -0.2820 C   0  0  2  0  0  0  0  0  0  0  0  0
   -1.2660   -0.8710    1.0800 O   0  0  0  0  0  0  0  0  0  0  0  0
   -2.5160    0.0660   -0.5230 C   0  0  2  0  0  0  0  0  0  0  0  0
   -3.0700    1.3530    0.0190 C   0  0  0  0  0  0  0  0  0  0  0  0
   -3.6280   -0.9410   -0.1860 C   0  0  1  0  0  0  0  0  0  0  0  0
   -3.6980   -2.2200   -0.8930 C   0  0  0  0  0  0  0  0  0  0  0  0
   -3.7590   -1.1670    1.2940 C   0  0  0  0  0  0  0  0  0  0  0  0
   -5.2350   -1.3670    1.5360 C   0  0  0  0  0  0  0  0  0  0  0  0
   -5.8390   -0.8500    0.2750 C   0  0  0  0  0  0  0  0  0  0  0  0
   -4.8490   -0.2780   -0.4670 O   0  0  0  0  0  0  0  0  0  0  0  0
    0.0000    0.6000   -0.0870 C   0  0  1  0  0  0  0  0  0  0  0  0
    0.4560    1.2720   -1.3090 C   0  0  0  0  0  0  0  0  0  0  0  0
   -0.0560    2.6080   -1.2710 O   0  0  0  0  0  0  0  0  0  0  0  0
    0.0980    3.0250    0.0270 C   0  0  1  0  0  0  0  0  0  0  0  0
   -0.7310    4.0950    0.2730 O   0  0  0  0  0  0  0  0  0  0  0  0
   -0.0420    5.2350    0.5780 C   0  0  0  0  0  0  0  0  0  0  0  0
    0.8870    5.7230   -0.5130 C   0  0  0  0  0  0  0  0  0  0  0  0
    0.1660    5.9970   -1.6730 O   0  0  0  0  0  0  0  0  0  0  0  0
   -0.2730    1.7850    0.8070 C   0  0  0  0  0  0  0  0  0  0  0  0
    1.0650   -0.1640    0.7170 C   0  0  1  0  0  0  0  0  0  0  0  0
    0.8730   -1.5030    0.8050 O   0  0  0  0  0  0  0  0  0  0  0  0
    2.4780    0.2090    0.4930 C   0  0  0  0  0  0  0  0  0  0  0  0
  1  2  1  0
  3  2  1  6
  3  4  1  0
  3 33  1  0
  4  5  1  0
  5  6  1  0
  6  7  1  0
  7  8  2  0
  7  9  1  0
  9 10  1  0
 10 11  1  0
 11 12  1  0
 12 13  1  1
 12 14  1  0
 12 22  1  0
 14 15  1  1
 14 16  1  0
 16 17  1  6
 16 18  1  0
 16 21  1  0
 18 19  1  0
 19 20  1  0
 20 21  1  0
 22 23  1  6
 22 30  1  0
 22 31  1  0
 23 24  1  0
 24 25  1  0
 25 26  1  1
 25 30  1  0
 26 27  1  0
 27 28  1  0
 28 29  1  0
 31 32  1  6
 31 33  1  0
M  END
