
     RDKit          3D

 32 34  0  0  0  0  0  0  0  0999 V2000
   -3.4210    4.4580   -0.7130 C   0  0  0  0  0  0  0  0  0  0  0  0
   -2.9050    3.0400   -0.7560 C   0  0  0  0  0  0  0  0  0  0  0  0
   -1.3730    3.0230   -0.7730 C   0  0  0  0  0  0  0  0  0  0  0  0
   -0.9710    1.6170   -0.8140 N   0  0  0  0  0  0  0  0  0  0  0  0
   -0.7630    0.9030   -2.0150 C   0  0  0  0  0  0  0  0  0  0  0  0
   -1.3020   -0.1600   -2.5740 C   0  0  0  0  0  0  0  0  0  0  0  0
   -2.3070   -1.0950   -2.2980 C   0  0  0  0  0  0  0  0  0  0  0  0
   -2.5800   -2.2220   -1.6260 C   0  0  0  0  0  0  0  0  0  0  0  0
   -3.9500   -2.6590   -1.8220 O   0  0  0  0  0  0  0  0  0  0  0  0
   -4.5530   -3.7440   -1.2980 C   0  0  0  0  0  0  0  0  0  0  0  0
   -3.8330   -4.5140   -0.5120 C   0  0  0  0  0  0  0  0  0  0  0  0
   -4.3840   -5.6150    0.0410 F   0  0  0  0  0  0  0  0  0  0  0  0
   -2.4670   -4.1610   -0.2610 C   0  0  0  0  0  0  0  0  0  0  0  0
   -1.8170   -3.0640   -0.7750 C   0  0  0  0  0  0  0  0  0  0  0  0
   -0.4250   -3.0530   -0.2400 C   0  0  0  0  0  0  0  0  0  0  0  0
    0.6410   -2.2980   -0.8480 C   0  0  0  0  0  0  0  0  0  0  0  0
    1.6190   -1.7190    0.0640 N   0  0  2  0  0  0  0  0  0  0  0  0
    2.1380   -2.6540    0.9870 C   0  0  0  0  0  0  0  0  0  0  0  0
    2.0120   -2.4280    2.4370 C   0  0  0  0  0  0  0  0  0  0  0  0
    2.6640   -3.6510    3.1250 C   0  0  0  0  0  0  0  0  0  0  0  0
    1.3030   -0.3950    0.6000 C   0  0  1  0  0  0  0  0  0  0  0  0
    1.8880    0.6580   -0.2570 C   0  0  0  0  0  0  0  0  0  0  0  0
    2.2810    0.3290   -1.4380 O   0  0  0  0  0  0  0  0  0  0  0  0
    2.0800    2.0130    0.0680 N   0  0  0  0  0  0  0  0  0  0  0  0
    1.7710    2.4930    1.3890 C   0  0  0  0  0  0  0  0  0  0  0  0
    2.9990    3.1870    2.0150 C   0  0  0  0  0  0  0  0  0  0  0  0
    3.3980    4.6580    0.9780 S   0  0  0  0  0  0  0  0  0  0  0  0
    2.3500    4.4050   -0.5170 C   0  0  0  0  0  0  0  0  0  0  0  0
    2.5850    2.9620   -0.8990 C   0  0  0  0  0  0  0  0  0  0  0  0
   -0.1480   -0.2060    0.7760 C   0  0  0  0  0  0  0  0  0  0  0  0
   -0.8130    1.0790    0.5170 C   0  0  0  0  0  0  0  0  0  0  0  0
   -1.2560    1.7050    1.5430 O   0  0  0  0  0  0  0  0  0  0  0  0
  1  2  1  0
  2  3  1  0
  3  4  1  0
  4  5  1  0
  4 31  1  0
  5  6  2  0
  6  7  1  0
  7  8  2  0
  8  9  1  0
  8 14  1  0
  9 10  1  0
 10 11  2  0
 11 12  1  0
 11 13  1  0
 13 14  2  0
 14 15  1  0
 15 16  1  0
 16 17  1  0
 17 18  1  1
 17 21  1  0
 18 19  1  0
 19 20  1  0
 21 22  1  6
 21 30  1  0
 22 23  2  0
 22 24  1  0
 24 25  1  0
 24 29  1  0
 25 26  1  0
 26 27  1  0
 27 28  1  0
 28 29  1  0
 30 31  1  0
 31 32  2  0
M  CHG  1  17   1
M  END
