
     RDKit          3D

 32 35  0  0  0  0  0  0  0  0999 V2000
   -7.0110    1.7270   -0.7570 C   0  0  0  0  0  0  0  0  0  0  0  0
   -7.0830    0.4140   -0.6270 C   0  0  0  0  0  0  0  0  0  0  0  0
   -7.1660   -0.5650   -1.7380 C   0  0  0  0  0  0  0  0  0  0  0  0
   -7.8780   -1.7220   -1.0920 C   0  0  0  0  0  0  0  0  0  0  0  0
   -7.5570   -1.5900    0.3330 C   0  0  0  0  0  0  0  0  0  0  0  0
   -7.0990   -0.3610    0.6060 C   0  0  0  0  0  0  0  0  0  0  0  0
   -6.6760    0.1570    1.9390 C   0  0  0  0  0  0  0  0  0  0  0  0
   -5.2230    0.5630    1.8270 C   0  0  0  0  0  0  0  0  0  0  0  0
   -4.4390   -0.6740    1.4370 C   0  0  0  0  0  0  0  0  0  0  0  0
   -3.0280   -0.3580    1.3100 N   0  0  0  0  0  0  0  0  0  0  0  0
   -2.1000   -0.4450    2.3870 C   0  0  0  0  0  0  0  0  0  0  0  0
   -2.3260   -0.7930    3.5750 O   0  0  0  0  0  0  0  0  0  0  0  0
   -0.8090   -0.0540    1.8730 N   0  0  0  0  0  0  0  0  0  0  0  0
   -1.0440    0.6980    0.6630 C   0  0  1  0  0  0  0  0  0  0  0  0
    0.0800    0.5770   -0.3370 C   0  0  0  0  0  0  0  0  0  0  0  0
    1.3700    1.0950    0.2880 C   0  0  0  0  0  0  0  0  0  0  0  0
    2.4610    0.9800   -0.6720 N   0  0  0  0  0  0  0  0  0  0  0  0
    3.2780   -0.0930   -0.8180 C   0  0  0  0  0  0  0  0  0  0  0  0
    4.1970    0.1410   -1.8180 C   0  0  0  0  0  0  0  0  0  0  0  0
    5.2860   -0.7670   -2.3140 C   0  0  2  0  0  0  0  0  0  0  0  0
    4.8220   -2.0710   -2.4860 O   0  0  0  0  0  0  0  0  0  0  0  0
    6.3750   -0.7980   -1.3210 C   0  0  0  0  0  0  0  0  0  0  0  0
    7.5230   -0.0940   -1.5520 C   0  0  0  0  0  0  0  0  0  0  0  0
    8.5310   -0.1260   -0.6260 C   0  0  0  0  0  0  0  0  0  0  0  0
    8.3740   -0.8580    0.5100 C   0  0  0  0  0  0  0  0  0  0  0  0
    9.4930   -0.8780    1.5100 C   0  0  0  0  0  0  0  0  0  0  0  0
    7.2250   -1.5740    0.7610 C   0  0  0  0  0  0  0  0  0  0  0  0
    6.2250   -1.5320   -0.1760 C   0  0  0  0  0  0  0  0  0  0  0  0
    3.9000    1.4150   -2.2780 C   0  0  0  0  0  0  0  0  0  0  0  0
    2.8610    1.8590   -1.5590 N   0  0  0  0  0  0  0  0  0  0  0  0
   -2.2980    0.0790    0.1700 C   0  0  0  0  0  0  0  0  0  0  0  0
   -2.7230   -0.0770   -1.0020 O   0  0  0  0  0  0  0  0  0  0  0  0
  1  2  2  0
  2  3  1  0
  2  6  1  0
  3  4  1  0
  4  5  1  0
  5  6  2  0
  6  7  1  0
  7  8  1  0
  8  9  1  0
  9 10  1  0
 10 11  1  0
 10 31  1  0
 11 12  2  0
 11 13  1  0
 13 14  1  0
 14 15  1  6
 14 31  1  0
 15 16  1  0
 16 17  1  0
 17 18  1  0
 17 30  1  0
 18 19  2  0
 19 20  1  0
 19 29  1  0
 20 21  1  1
 20 22  1  0
 22 23  2  0
 22 28  1  0
 23 24  1  0
 24 25  2  0
 25 26  1  0
 25 27  1  0
 27 28  2  0
 29 30  2  0
 31 32  2  0
M  END
