
     RDKit          3D

 32 35  0  0  0  0  0  0  0  0999 V2000
   -4.0530   -5.5430   -0.9570 C   0  0  0  0  0  0  0  0  0  0  0  0
   -3.6920   -4.6010    0.1920 C   0  0  1  0  0  0  0  0  0  0  0  0
   -3.2440   -5.5070    1.3460 C   0  0  0  0  0  0  0  0  0  0  0  0
   -2.6560   -3.7550   -0.1550 O   0  0  0  0  0  0  0  0  0  0  0  0
   -2.6280   -2.3890   -0.0910 C   0  0  0  0  0  0  0  0  0  0  0  0
   -3.6840   -1.6530    0.3530 C   0  0  0  0  0  0  0  0  0  0  0  0
   -3.6350   -0.2560    0.4100 C   0  0  0  0  0  0  0  0  0  0  0  0
   -2.5090    0.4170    0.0180 C   0  0  0  0  0  0  0  0  0  0  0  0
   -2.4360    1.8070    0.0650 C   0  0  0  0  0  0  0  0  0  0  0  0
   -3.5040    2.5960    0.5100 N   0  0  0  0  0  0  0  0  0  0  0  0
   -3.5770    3.9870    0.6210 C   0  0  0  0  0  0  0  0  0  0  0  0
   -2.5330    4.8390    0.3880 C   0  0  0  0  0  0  0  0  0  0  0  0
   -2.6270    6.2200    0.4980 C   0  0  0  0  0  0  0  0  0  0  0  0
   -3.8090    6.7920    0.8560 C   0  0  0  0  0  0  0  0  0  0  0  0
   -4.8880    5.9800    1.1010 C   0  0  0  0  0  0  0  0  0  0  0  0
   -4.7760    4.6160    0.9870 C   0  0  0  0  0  0  0  0  0  0  0  0
   -1.2630    2.3270   -0.3540 N   0  0  0  0  0  0  0  0  0  0  0  0
   -0.2080    1.6790   -0.7930 C   0  0  0  0  0  0  0  0  0  0  0  0
    1.0100    2.4390   -1.2230 C   0  0  0  0  0  0  0  0  0  0  0  0
    2.1060    1.5810   -1.5380 N   0  0  0  0  0  0  0  0  0  0  0  0
    2.8350    0.9980   -0.4570 C   0  0  0  0  0  0  0  0  0  0  0  0
    2.4920    1.2550    0.7270 O   0  0  0  0  0  0  0  0  0  0  0  0
    3.9510    0.1240   -0.6610 N   0  0  0  0  0  0  0  0  0  0  0  0
    4.6280   -0.4140    0.4970 C   0  0  0  0  0  0  0  0  0  0  0  0
    5.7660   -1.3030    0.0460 C   0  0  2  0  0  0  0  0  0  0  0  0
    6.5120   -1.8930    1.2240 C   0  0  0  0  0  0  0  0  0  0  0  0
    7.9190   -1.9510    0.6670 C   0  0  0  0  0  0  0  0  0  0  0  0
    8.0520   -0.9620   -0.2660 O   0  0  0  0  0  0  0  0  0  0  0  0
    6.8220   -0.4870   -0.6200 C   0  0  0  0  0  0  0  0  0  0  0  0
   -0.2790    0.3040   -0.8400 C   0  0  0  0  0  0  0  0  0  0  0  0
   -1.4240   -0.3300   -0.4370 C   0  0  0  0  0  0  0  0  0  0  0  0
   -1.4770   -1.6950   -0.4920 C   0  0  0  0  0  0  0  0  0  0  0  0
  2  1  1  6
  2  3  1  0
  2  4  1  0
  4  5  1  0
  5  6  2  0
  5 32  1  0
  6  7  1  0
  7  8  2  0
  8  9  1  0
  8 31  1  0
  9 10  1  0
  9 17  2  0
 10 11  1  0
 11 12  2  0
 11 16  1  0
 12 13  1  0
 13 14  2  0
 14 15  1  0
 15 16  2  0
 17 18  1  0
 18 19  1  0
 18 30  2  0
 19 20  1  0
 20 21  1  0
 21 22  2  0
 21 23  1  0
 23 24  1  0
 25 24  1  1
 25 26  1  0
 25 29  1  0
 26 27  1  0
 27 28  1  0
 28 29  1  0
 30 31  1  0
 31 32  2  0
M  END
