
     RDKit          3D

 32 34  0  0  0  0  0  0  0  0999 V2000
   -8.5860    0.9860   -0.9090 C   0  0  0  0  0  0  0  0  0  0  0  0
   -7.1510    1.0000   -0.5320 C   0  0  0  0  0  0  0  0  0  0  0  0
   -6.5760   -0.3940   -0.3050 C   0  0  1  0  0  0  0  0  0  0  0  0
   -7.3320   -1.0860    0.8250 C   0  0  0  0  0  0  0  0  0  0  0  0
   -6.7260   -1.2530   -1.5110 C   0  0  0  0  0  0  0  0  0  0  0  0
   -5.1850   -0.1880    0.0960 C   0  0  0  0  0  0  0  0  0  0  0  0
   -4.0690   -0.5390   -0.6110 C   0  0  0  0  0  0  0  0  0  0  0  0
   -2.7590   -0.3170   -0.1720 C   0  0  0  0  0  0  0  0  0  0  0  0
   -2.5610    0.2810    1.0250 C   0  0  0  0  0  0  0  0  0  0  0  0
   -1.2800    0.5680    1.6460 C   0  0  0  0  0  0  0  0  0  0  0  0
   -1.0220    1.7860    2.2040 N   0  0  0  0  0  0  0  0  0  0  0  0
    0.1740    1.7580    2.7860 N   0  0  0  0  0  0  0  0  0  0  0  0
    0.7350    0.5730    2.6440 C   0  0  0  0  0  0  0  0  0  0  0  0
   -0.1990   -0.2150    1.8990 C   0  0  0  0  0  0  0  0  0  0  0  0
    0.1420   -1.5720    1.5080 C   0  0  0  0  0  0  0  0  0  0  0  0
    0.8970   -1.7770    0.2170 C   0  0  0  0  0  0  0  0  0  0  0  0
    2.1420   -0.9640    0.3630 C   0  0  0  0  0  0  0  0  0  0  0  0
    1.9840    0.2830    0.3170 O   0  0  0  0  0  0  0  0  0  0  0  0
    3.4390   -1.4710    0.5660 N   0  0  0  0  0  0  0  0  0  0  0  0
    4.5230   -0.5730    0.7310 C   0  0  0  0  0  0  0  0  0  0  0  0
    5.0440    0.2050   -0.3690 C   0  0  0  0  0  0  0  0  0  0  0  0
    4.3040    0.9180   -1.4320 C   0  0  0  0  0  0  0  0  0  0  0  0
    5.2370    1.4630   -2.3230 O   0  0  0  0  0  0  0  0  0  0  0  0
    6.4000    0.2140   -0.4880 C   0  0  0  0  0  0  0  0  0  0  0  0
    7.1750   -0.5130    0.4400 N   0  0  0  0  0  0  0  0  0  0  0  0
    8.4500   -0.5410    0.3940 C   0  0  0  0  0  0  0  0  0  0  0  0
    9.1640    0.2050   -0.6580 C   0  0  0  0  0  0  0  0  0  0  0  0
    8.4740    0.8820   -1.5270 C   0  0  0  0  0  0  0  0  0  0  0  0
    9.1520    1.6450   -2.6010 C   0  0  0  0  0  0  0  0  0  0  0  0
    7.0820    0.9040   -1.4650 O   0  0  0  0  0  0  0  0  0  0  0  0
   -3.7090    0.6530    1.7710 C   0  0  0  0  0  0  0  0  0  0  0  0
   -4.9650    0.4240    1.3170 C   0  0  0  0  0  0  0  0  0  0  0  0
  1  2  1  0
  2  3  1  0
  3  4  1  1
  3  5  1  0
  3  6  1  0
  6  7  2  0
  6 32  1  0
  7  8  1  0
  8  9  2  0
  9 10  1  0
  9 31  1  0
 10 11  2  0
 10 14  1  0
 11 12  1  0
 12 13  1  0
 13 14  2  0
 14 15  1  0
 15 16  1  0
 16 17  1  0
 17 18  2  0
 17 19  1  0
 19 20  1  0
 20 21  1  0
 21 22  1  0
 21 24  2  3
 22 23  1  0
 24 25  1  0
 24 30  1  0
 25 26  2  0
 26 27  1  0
 27 28  2  0
 28 29  1  0
 28 30  1  0
 31 32  2  0
M  END
