
     RDKit          3D

 32 35  0  0  0  0  0  0  0  0999 V2000
   -8.3250    0.8910   -2.3870 C   0  0  0  0  0  0  0  0  0  0  0  0
   -8.0900    0.0980   -1.0960 C   0  0  0  0  0  0  0  0  0  0  0  0
   -6.8990    0.6220   -0.3720 C   0  0  0  0  0  0  0  0  0  0  0  0
   -6.5780   -0.0650    0.9000 C   0  0  0  0  0  0  0  0  0  0  0  0
   -6.2780   -1.5170    0.8270 C   0  0  1  0  0  0  0  0  0  0  0  0
   -7.2590   -2.3280    0.3390 O   0  0  0  0  0  0  0  0  0  0  0  0
   -6.7030   -3.4590   -0.1920 C   0  0  0  0  0  0  0  0  0  0  0  0
   -5.2030   -3.3510   -0.1250 C   0  0  0  0  0  0  0  0  0  0  0  0
   -5.0230   -1.8360    0.0500 C   0  0  2  0  0  0  0  0  0  0  0  0
   -3.8170   -1.5510    0.7870 N   0  0  0  0  0  0  0  0  0  0  0  0
   -2.7590   -0.7940    0.1980 C   0  0  0  0  0  0  0  0  0  0  0  0
   -2.9040   -0.3860   -0.9680 O   0  0  0  0  0  0  0  0  0  0  0  0
   -1.5670   -0.5000    0.8940 N   0  0  0  0  0  0  0  0  0  0  0  0
   -0.4630    0.2190    0.4400 C   0  0  0  0  0  0  0  0  0  0  0  0
   -0.3400    0.7030   -0.8200 C   0  0  0  0  0  0  0  0  0  0  0  0
    0.7840    1.4290   -1.2400 C   0  0  0  0  0  0  0  0  0  0  0  0
    1.8010    1.6620   -0.3490 C   0  0  0  0  0  0  0  0  0  0  0  0
    2.9580    2.3250   -0.5290 N   0  0  0  0  0  0  0  0  0  0  0  0
    3.6030    2.2660    0.6570 C   0  0  0  0  0  0  0  0  0  0  0  0
    4.9340    2.8820    0.8910 C   0  0  0  0  0  0  0  0  0  0  0  0
    5.9650    1.8690    0.5440 C   0  0  0  0  0  0  0  0  0  0  0  0
    6.4720    1.7720   -0.7120 C   0  0  0  0  0  0  0  0  0  0  0  0
    7.4410    0.8090   -1.0100 C   0  0  0  0  0  0  0  0  0  0  0  0
    7.8950   -0.0550   -0.0340 C   0  0  0  0  0  0  0  0  0  0  0  0
    8.9350   -1.1020   -0.3170 C   0  0  0  0  0  0  0  0  0  0  0  0
   10.2770   -0.4370   -0.0400 C   0  0  0  0  0  0  0  0  0  0  0  0
   10.4230    0.6620   -0.8780 O   0  0  0  0  0  0  0  0  0  0  0  0
    7.3700    0.0540    1.2420 C   0  0  0  0  0  0  0  0  0  0  0  0
    6.4150    1.0090    1.5190 C   0  0  0  0  0  0  0  0  0  0  0  0
    2.8500    1.5780    1.5440 N   0  0  0  0  0  0  0  0  0  0  0  0
    1.7120    1.1890    0.9310 C   0  0  0  0  0  0  0  0  0  0  0  0
    0.5980    0.4820    1.3110 C   0  0  0  0  0  0  0  0  0  0  0  0
  1  2  1  0
  2  3  1  0
  3  4  1  0
  5  4  1  6
  5  6  1  0
  5  9  1  0
  6  7  1  0
  7  8  1  0
  8  9  1  0
  9 10  1  1
 10 11  1  0
 11 12  2  0
 11 13  1  0
 13 14  1  0
 14 15  2  0
 14 32  1  0
 15 16  1  0
 16 17  2  0
 17 18  1  0
 17 31  1  0
 18 19  2  0
 19 20  1  0
 19 30  1  0
 20 21  1  0
 21 22  2  0
 21 29  1  0
 22 23  1  0
 23 24  2  0
 24 25  1  0
 24 28  1  0
 25 26  1  0
 26 27  1  0
 28 29  2  0
 30 31  1  0
 31 32  2  0
M  END
