
     RDKit          3D

 32 34  0  0  0  0  0  0  0  0999 V2000
    7.4470    1.1890    1.6630 C   0  0  0  0  0  0  0  0  0  0  0  0
    7.1580    2.1820    0.8240 C   0  0  0  0  0  0  0  0  0  0  0  0
    8.1010    2.5670   -0.0410 F   0  0  0  0  0  0  0  0  0  0  0  0
    5.8670    2.8390    0.8300 C   0  0  0  0  0  0  0  0  0  0  0  0
    5.6160    3.8140   -0.0120 C   0  0  0  0  0  0  0  0  0  0  0  0
    4.8430    2.4100    1.7820 C   0  0  0  0  0  0  0  0  0  0  0  0
    4.4480    1.0290    1.6530 N   0  0  0  0  0  0  0  0  0  0  0  0
    3.4350    0.7810    2.6640 C   0  0  0  0  0  0  0  0  0  0  0  0
    2.1990    0.2930    1.9210 C   0  0  0  0  0  0  0  0  0  0  0  0
    2.8720   -0.3460    0.7380 C   0  0  1  0  0  0  0  0  0  0  0  0
    2.0270   -0.8320   -0.2970 N   0  0  0  0  0  0  0  0  0  0  0  0
    2.1630   -2.2620   -0.6040 C   0  0  0  0  0  0  0  0  0  0  0  0
    1.6980   -3.1380    0.5350 C   0  0  0  0  0  0  0  0  0  0  0  0
    0.4740   -4.2840   -0.0650 S   0  0  0  0  0  0  0  0  0  0  0  0
   -0.9900   -4.4070    0.9440 C   0  0  0  0  0  0  0  0  0  0  0  0
   -1.8310   -3.4180    1.2030 C   0  0  0  0  0  0  0  0  0  0  0  0
   -1.6980   -2.0260    0.6960 C   0  0  0  0  0  0  0  0  0  0  0  0
   -2.6260   -1.8020   -0.3480 O   0  0  0  0  0  0  0  0  0  0  0  0
   -2.3060   -1.1480   -1.5160 C   0  0  0  0  0  0  0  0  0  0  0  0
   -3.2350   -0.5160   -2.1820 C   0  0  0  0  0  0  0  0  0  0  0  0
   -4.6140   -0.4920   -1.7060 C   0  0  1  0  0  0  0  0  0  0  0  0
   -5.1760   -1.8580   -1.3830 C   0  0  0  0  0  0  0  0  0  0  0  0
   -4.8120    0.3770   -0.5590 N   0  0  2  0  0  0  0  0  0  0  0  0
   -6.2150    0.7080   -0.5130 C   0  0  0  0  0  0  0  0  0  0  0  0
   -6.3490    2.1910   -0.5900 C   0  0  0  0  0  0  0  0  0  0  0  0
   -4.9850    2.6960   -0.2090 C   0  0  0  0  0  0  0  0  0  0  0  0
   -4.0850    1.6100   -0.7790 C   0  0  0  0  0  0  0  0  0  0  0  0
   -0.8960   -1.1840   -1.9850 C   0  0  0  0  0  0  0  0  0  0  0  0
   -0.1900   -0.2350   -1.3000 O   0  0  0  0  0  0  0  0  0  0  0  0
    1.0960   -0.0030   -1.0080 C   0  0  0  0  0  0  0  0  0  0  0  0
    1.6030    1.1150   -1.4040 O   0  0  0  0  0  0  0  0  0  0  0  0
    3.8210    0.7630    0.3610 C   0  0  0  0  0  0  0  0  0  0  0  0
  1  2  2  0
  2  3  1  0
  2  4  1  0
  4  5  2  0
  4  6  1  0
  6  7  1  0
  7  8  1  0
  7 32  1  0
  8  9  1  0
  9 10  1  0
 10 11  1  6
 10 32  1  0
 11 12  1  0
 11 30  1  0
 12 13  1  0
 13 14  1  0
 14 15  1  0
 15 16  2  0
 16 17  1  0
 17 18  1  0
 18 19  1  0
 19 20  2  3
 19 28  1  0
 20 21  1  0
 21 22  1  1
 21 23  1  0
 23 24  1  6
 23 27  1  0
 24 25  1  0
 25 26  1  0
 26 27  1  0
 28 29  1  0
 29 30  1  0
 30 31  2  0
M  CHG  1  23   1
M  END
