
     RDKit          3D

 33 33  0  0  0  0  0  0  0  0999 V2000
   10.3080   -2.2310   -0.9290 N   0  0  0  0  0  0  0  0  0  0  0  0
    9.1230   -1.4830   -1.1360 C   0  0  0  0  0  0  0  0  0  0  0  0
    9.1680   -0.3730   -2.0140 N   0  0  0  0  0  0  0  0  0  0  0  0
    8.0190   -1.7820   -0.5560 N   0  0  0  0  0  0  0  0  0  0  0  0
    6.7770   -1.0350   -0.7440 C   0  0  0  0  0  0  0  0  0  0  0  0
    6.5100   -0.2820    0.4950 C   0  0  0  0  0  0  0  0  0  0  0  0
    7.4360   -0.3840    1.5450 C   0  0  0  0  0  0  0  0  0  0  0  0
    7.2630    0.3140    2.7160 C   0  0  0  0  0  0  0  0  0  0  0  0
    6.1510    1.1210    2.8310 C   0  0  0  0  0  0  0  0  0  0  0  0
    5.2360    1.2270    1.8060 C   0  0  0  0  0  0  0  0  0  0  0  0
    5.4020    0.5170    0.6050 C   0  0  0  0  0  0  0  0  0  0  0  0
    4.4130    0.6090   -0.4650 C   0  0  0  0  0  0  0  0  0  0  0  0
    3.4000   -0.4830   -0.5190 C   0  0  0  0  0  0  0  0  0  0  0  0
    2.4750   -0.2470   -1.6910 C   0  0  0  0  0  0  0  0  0  0  0  0
    1.7110    1.0290   -1.6400 C   0  0  0  0  0  0  0  0  0  0  0  0
    0.8340    1.1500   -0.4220 C   0  0  0  0  0  0  0  0  0  0  0  0
   -0.1910    0.0780   -0.2880 C   0  0  0  0  0  0  0  0  0  0  0  0
   -1.1280    0.0690   -1.4500 C   0  0  0  0  0  0  0  0  0  0  0  0
   -1.8880    1.3540   -1.6120 C   0  0  0  0  0  0  0  0  0  0  0  0
   -2.7310    1.6940   -0.4170 C   0  0  0  0  0  0  0  0  0  0  0  0
   -3.7500    0.6760   -0.1190 C   0  0  0  0  0  0  0  0  0  0  0  0
   -3.9440   -0.3490   -0.8060 O   0  0  0  0  0  0  0  0  0  0  0  0
   -4.5590    0.8860    1.0300 N   0  0  0  0  0  0  0  0  0  0  0  0
   -5.5830   -0.1170    1.3470 C   0  0  2  0  0  0  0  0  0  0  0  0
   -6.8860    0.6590    1.4830 C   0  0  0  0  0  0  0  0  0  0  0  0
   -7.2640    1.3740    0.2410 C   0  0  0  0  0  0  0  0  0  0  0  0
   -7.5330    0.5930   -0.9800 C   0  0  0  0  0  0  0  0  0  0  0  0
   -8.7020   -0.3360   -0.9690 C   0  0  0  0  0  0  0  0  0  0  0  0
   -8.6670   -1.3840   -0.0180 N   0  0  0  0  0  0  0  0  0  0  0  0
   -5.2930   -0.6950    2.6820 C   0  0  0  0  0  0  0  0  0  0  0  0
   -4.2990   -0.3000    3.3300 O   0  0  0  0  0  0  0  0  0  0  0  0
   -6.1280   -1.6920    3.2370 N   0  0  0  0  0  0  0  0  0  0  0  0
   -5.8700   -2.2290    4.4610 O   0  0  0  0  0  0  0  0  0  0  0  0
  1  2  1  0
  2  3  1  0
  2  4  2  3
  4  5  1  0
  5  6  1  0
  6  7  2  0
  6 11  1  0
  7  8  1  0
  8  9  2  0
  9 10  1  0
 10 11  2  0
 11 12  1  0
 12 13  1  0
 13 14  1  0
 14 15  1  0
 15 16  1  0
 16 17  1  0
 17 18  1  0
 18 19  1  0
 19 20  1  0
 20 21  1  0
 21 22  2  0
 21 23  1  0
 23 24  1  0
 24 25  1  1
 24 30  1  0
 25 26  1  0
 26 27  1  0
 27 28  1  0
 28 29  1  0
 30 31  2  0
 30 32  1  0
 32 33  1  0
M  CHG  2   4   1  29   1
M  END
