
     RDKit          3D

 32 34  0  0  0  0  0  0  0  0999 V2000
   -8.4240   -0.2680    0.5360 C   0  0  0  0  0  0  0  0  0  0  0  0
   -8.2690    0.8280   -0.1550 C   0  0  0  0  0  0  0  0  0  0  0  0
   -9.2890    1.4190   -0.8060 F   0  0  0  0  0  0  0  0  0  0  0  0
   -6.9340    1.4400   -0.2230 C   0  0  0  0  0  0  0  0  0  0  0  0
   -6.7660    2.5440   -0.9170 C   0  0  0  0  0  0  0  0  0  0  0  0
   -5.7950    0.8170    0.4590 C   0  0  0  0  0  0  0  0  0  0  0  0
   -4.5610    1.5050    0.2200 N   0  0  0  0  0  0  0  0  0  0  0  0
   -4.0650    1.3620   -1.1130 C   0  0  0  0  0  0  0  0  0  0  0  0
   -2.9760    0.3090   -1.1100 C   0  0  0  0  0  0  0  0  0  0  0  0
   -2.8020   -0.0630    0.3130 C   0  0  1  0  0  0  0  0  0  0  0  0
   -1.4420   -0.2900    0.7090 N   0  0  0  0  0  0  0  0  0  0  0  0
   -1.1100   -1.5980    1.2940 C   0  0  0  0  0  0  0  0  0  0  0  0
   -1.6640   -2.6620    0.4130 C   0  0  0  0  0  0  0  0  0  0  0  0
   -0.4770   -4.0350    0.3270 S   0  0  0  0  0  0  0  0  0  0  0  0
    0.6450   -3.8740    1.7120 C   0  0  0  0  0  0  0  0  0  0  0  0
    1.8990   -3.4920    1.6070 C   0  0  0  0  0  0  0  0  0  0  0  0
    2.5430   -3.1440    0.3120 C   0  0  0  0  0  0  0  0  0  0  0  0
    3.0880   -1.8300    0.3040 O   0  0  0  0  0  0  0  0  0  0  0  0
    2.7450   -0.8190   -0.5470 C   0  0  0  0  0  0  0  0  0  0  0  0
    3.5850   -0.0510   -1.2180 C   0  0  0  0  0  0  0  0  0  0  0  0
    5.0360   -0.2710   -1.0620 C   0  0  1  0  0  0  0  0  0  0  0  0
    5.7020   -0.4760   -2.4080 C   0  0  0  0  0  0  0  0  0  0  0  0
    5.7340    0.7720   -0.3800 N   0  0  1  0  0  0  0  0  0  0  0  0
    5.3810    2.0830   -0.8850 C   0  0  0  0  0  0  0  0  0  0  0  0
    5.8990    2.9630    0.2450 C   0  0  0  0  0  0  0  0  0  0  0  0
    5.4910    2.2120    1.4760 C   0  0  0  0  0  0  0  0  0  0  0  0
    5.3990    0.7730    1.0190 C   0  0  0  0  0  0  0  0  0  0  0  0
    1.2930   -0.5590   -0.7360 C   0  0  0  0  0  0  0  0  0  0  0  0
    0.8800    0.3460    0.2570 O   0  0  0  0  0  0  0  0  0  0  0  0
   -0.4180    0.6830    0.5680 C   0  0  0  0  0  0  0  0  0  0  0  0
   -0.7040    1.8920    0.7320 O   0  0  0  0  0  0  0  0  0  0  0  0
   -3.5200    1.0000    1.1000 C   0  0  0  0  0  0  0  0  0  0  0  0
  1  2  2  0
  2  3  1  0
  2  4  1  0
  4  5  2  0
  4  6  1  0
  6  7  1  0
  7  8  1  0
  7 32  1  0
  8  9  1  0
  9 10  1  0
 10 11  1  1
 10 32  1  0
 11 12  1  0
 11 30  1  0
 12 13  1  0
 13 14  1  0
 14 15  1  0
 15 16  2  0
 16 17  1  0
 17 18  1  0
 18 19  1  0
 19 20  2  3
 19 28  1  0
 20 21  1  0
 21 22  1  6
 21 23  1  0
 23 24  1  6
 23 27  1  0
 24 25  1  0
 25 26  1  0
 26 27  1  0
 28 29  1  0
 29 30  1  0
 30 31  2  0
M  CHG  1  23   1
M  END
