
     RDKit          3D

 33 33  0  0  0  0  0  0  0  0999 V2000
    6.9920   -3.3280   -0.5350 N   0  0  0  0  0  0  0  0  0  0  0  0
    7.5490   -2.7850    0.6630 C   0  0  0  0  0  0  0  0  0  0  0  0
    8.0250   -3.6530    1.6740 N   0  0  0  0  0  0  0  0  0  0  0  0
    7.5160   -1.5110    0.8060 N   0  0  0  0  0  0  0  0  0  0  0  0
    6.9090   -0.7480   -0.2190 C   0  0  0  0  0  0  0  0  0  0  0  0
    6.9110    0.7130   -0.1000 C   0  0  0  0  0  0  0  0  0  0  0  0
    8.0300    1.4600   -0.4840 C   0  0  0  0  0  0  0  0  0  0  0  0
    7.9310    2.8490   -0.6590 C   0  0  0  0  0  0  0  0  0  0  0  0
    6.7460    3.5150   -0.4660 C   0  0  0  0  0  0  0  0  0  0  0  0
    5.6420    2.7850   -0.0810 C   0  0  0  0  0  0  0  0  0  0  0  0
    5.7100    1.3930    0.1090 C   0  0  0  0  0  0  0  0  0  0  0  0
    4.6000    0.7370    0.7910 C   0  0  0  0  0  0  0  0  0  0  0  0
    3.8820   -0.4200    0.2560 C   0  0  0  0  0  0  0  0  0  0  0  0
    2.6870   -0.6920    1.1660 C   0  0  0  0  0  0  0  0  0  0  0  0
    1.5060    0.1410    0.8520 C   0  0  0  0  0  0  0  0  0  0  0  0
    1.5290    1.5970    0.8230 C   0  0  0  0  0  0  0  0  0  0  0  0
    0.2240    2.2250    0.4980 C   0  0  0  0  0  0  0  0  0  0  0  0
   -0.3480    2.0260   -0.8180 C   0  0  0  0  0  0  0  0  0  0  0  0
   -0.7760    0.7510   -1.3890 C   0  0  0  0  0  0  0  0  0  0  0  0
   -1.7220   -0.0730   -0.5670 C   0  0  0  0  0  0  0  0  0  0  0  0
   -2.9030    0.6760   -0.1250 C   0  0  0  0  0  0  0  0  0  0  0  0
   -3.0400    1.8980   -0.1360 O   0  0  0  0  0  0  0  0  0  0  0  0
   -3.9880   -0.1050    0.3600 N   0  0  0  0  0  0  0  0  0  0  0  0
   -5.1980    0.4740    0.8630 C   0  0  2  0  0  0  0  0  0  0  0  0
   -6.2470   -0.5730    1.1340 C   0  0  0  0  0  0  0  0  0  0  0  0
   -6.4950   -1.2950   -0.1860 C   0  0  0  0  0  0  0  0  0  0  0  0
   -7.5280   -2.3390   -0.1270 C   0  0  0  0  0  0  0  0  0  0  0  0
   -8.8570   -1.6890    0.2180 C   0  0  0  0  0  0  0  0  0  0  0  0
   -9.9050   -2.7330    0.2170 N   0  0  0  0  0  0  0  0  0  0  0  0
   -5.8050    1.4450   -0.1110 C   0  0  0  0  0  0  0  0  0  0  0  0
   -5.3580    1.6090   -1.2660 O   0  0  0  0  0  0  0  0  0  0  0  0
   -6.9190    2.2060    0.3220 N   0  0  0  0  0  0  0  0  0  0  0  0
   -7.5010    3.1080   -0.4840 O   0  0  0  0  0  0  0  0  0  0  0  0
  1  2  1  0
  2  3  1  0
  2  4  2  3
  4  5  1  0
  5  6  1  0
  6  7  2  0
  6 11  1  0
  7  8  1  0
  8  9  2  0
  9 10  1  0
 10 11  2  0
 11 12  1  0
 12 13  1  0
 13 14  1  0
 14 15  1  0
 15 16  1  0
 16 17  1  0
 17 18  1  0
 18 19  1  0
 19 20  1  0
 20 21  1  0
 21 22  2  0
 21 23  1  0
 23 24  1  0
 24 25  1  6
 24 30  1  0
 25 26  1  0
 26 27  1  0
 27 28  1  0
 28 29  1  0
 30 31  2  0
 30 32  1  0
 32 33  1  0
M  CHG  2   4   1  29   1
M  END
