
     RDKit          3D

 32 35  0  0  0  0  0  0  0  0999 V2000
    9.7390   -0.5510    0.0790 C   0  0  0  0  0  0  0  0  0  0  0  0
    8.7790    0.6320   -0.0180 C   0  0  0  0  0  0  0  0  0  0  0  0
    7.8540    0.5860    1.1600 C   0  0  0  0  0  0  0  0  0  0  0  0
    6.8860    1.6950    1.2860 C   0  0  0  0  0  0  0  0  0  0  0  0
    5.9670    1.8530    0.1210 C   0  0  1  0  0  0  0  0  0  0  0  0
    6.6300    2.1140   -1.0750 O   0  0  0  0  0  0  0  0  0  0  0  0
    5.8220    1.5730   -2.0770 C   0  0  0  0  0  0  0  0  0  0  0  0
    5.3140    0.2750   -1.5010 C   0  0  0  0  0  0  0  0  0  0  0  0
    5.0400    0.7080   -0.0390 C   0  0  2  0  0  0  0  0  0  0  0  0
    3.6410    1.1020    0.0530 N   0  0  0  0  0  0  0  0  0  0  0  0
    2.6100    0.1430   -0.0520 C   0  0  0  0  0  0  0  0  0  0  0  0
    2.9430   -1.0480   -0.2410 O   0  0  0  0  0  0  0  0  0  0  0  0
    1.2480    0.4640    0.0360 N   0  0  0  0  0  0  0  0  0  0  0  0
    0.1970   -0.4400   -0.1840 C   0  0  0  0  0  0  0  0  0  0  0  0
    0.2700   -1.3710   -1.2350 C   0  0  0  0  0  0  0  0  0  0  0  0
   -0.7540   -2.2350   -1.5210 C   0  0  0  0  0  0  0  0  0  0  0  0
   -1.9200   -2.2060   -0.7480 C   0  0  0  0  0  0  0  0  0  0  0  0
   -3.0900   -2.9000   -0.7910 N   0  0  0  0  0  0  0  0  0  0  0  0
   -3.9100   -2.4600    0.1930 C   0  0  0  0  0  0  0  0  0  0  0  0
   -5.2830   -2.9060    0.4720 C   0  0  0  0  0  0  0  0  0  0  0  0
   -6.2450   -1.7720    0.2130 C   0  0  0  0  0  0  0  0  0  0  0  0
   -6.6750   -0.9850    1.2580 C   0  0  0  0  0  0  0  0  0  0  0  0
   -7.5300    0.0890    1.0650 C   0  0  0  0  0  0  0  0  0  0  0  0
   -7.9880    0.4150   -0.2060 C   0  0  0  0  0  0  0  0  0  0  0  0
   -8.8970    1.5680   -0.4630 C   0  0  0  0  0  0  0  0  0  0  0  0
  -10.3460    1.2180   -0.3980 C   0  0  0  0  0  0  0  0  0  0  0  0
  -11.1030    2.3410   -0.6470 O   0  0  0  0  0  0  0  0  0  0  0  0
   -7.5520   -0.3780   -1.2430 C   0  0  0  0  0  0  0  0  0  0  0  0
   -6.6890   -1.4660   -1.0520 C   0  0  0  0  0  0  0  0  0  0  0  0
   -3.2450   -1.5080    0.8260 N   0  0  0  0  0  0  0  0  0  0  0  0
   -2.0270   -1.3200    0.2840 C   0  0  0  0  0  0  0  0  0  0  0  0
   -0.9690   -0.4490    0.5520 C   0  0  0  0  0  0  0  0  0  0  0  0
  1  2  1  0
  2  3  1  0
  3  4  1  0
  5  4  1  1
  5  6  1  0
  5  9  1  0
  6  7  1  0
  7  8  1  0
  8  9  1  0
  9 10  1  6
 10 11  1  0
 11 12  2  0
 11 13  1  0
 13 14  1  0
 14 15  2  0
 14 32  1  0
 15 16  1  0
 16 17  2  0
 17 18  1  0
 17 31  1  0
 18 19  2  0
 19 20  1  0
 19 30  1  0
 20 21  1  0
 21 22  2  0
 21 29  1  0
 22 23  1  0
 23 24  2  0
 24 25  1  0
 24 28  1  0
 25 26  1  0
 26 27  1  0
 28 29  2  0
 30 31  1  0
 31 32  2  0
M  END
