
     RDKit          3D

 32 34  0  0  0  0  0  0  0  0999 V2000
   -4.8720    2.7950    0.1080 C   0  0  0  0  0  0  0  0  0  0  0  0
   -6.0250    2.1420   -0.6520 C   0  0  0  0  0  0  0  0  0  0  0  0
   -6.3300    0.8120   -0.0230 C   0  0  2  0  0  0  0  0  0  0  0  0
   -7.5040    0.2100   -0.8240 C   0  0  0  0  0  0  0  0  0  0  0  0
   -6.8080    1.0370    1.3860 C   0  0  0  0  0  0  0  0  0  0  0  0
   -5.2290   -0.1510   -0.0300 C   0  0  0  0  0  0  0  0  0  0  0  0
   -4.9380   -0.8770    1.0970 C   0  0  0  0  0  0  0  0  0  0  0  0
   -3.9100   -1.8310    1.0580 C   0  0  0  0  0  0  0  0  0  0  0  0
   -3.1870   -2.0600   -0.0750 C   0  0  0  0  0  0  0  0  0  0  0  0
   -2.1850   -3.1160   -0.1880 C   0  0  0  0  0  0  0  0  0  0  0  0
   -2.4560   -4.4030    0.2150 N   0  0  0  0  0  0  0  0  0  0  0  0
   -1.4580   -5.1870   -0.0480 N   0  0  0  0  0  0  0  0  0  0  0  0
   -0.5030   -4.4830   -0.6180 C   0  0  0  0  0  0  0  0  0  0  0  0
   -0.9390   -3.1520   -0.7190 C   0  0  0  0  0  0  0  0  0  0  0  0
   -0.0690   -2.0690   -1.2090 C   0  0  0  0  0  0  0  0  0  0  0  0
    0.8770   -1.5470   -0.1610 C   0  0  0  0  0  0  0  0  0  0  0  0
    1.6990   -0.4790   -0.7800 C   0  0  0  0  0  0  0  0  0  0  0  0
    1.2380    0.3150   -1.6760 O   0  0  0  0  0  0  0  0  0  0  0  0
    3.0770   -0.2780   -0.4170 N   0  0  0  0  0  0  0  0  0  0  0  0
    3.9070    0.7570   -0.9940 C   0  0  0  0  0  0  0  0  0  0  0  0
    5.2970    0.6020   -0.5240 C   0  0  0  0  0  0  0  0  0  0  0  0
    6.0230   -0.6610   -0.8840 C   0  0  0  0  0  0  0  0  0  0  0  0
    7.3290   -0.6420   -0.3620 O   0  0  0  0  0  0  0  0  0  0  0  0
    5.9190    1.5180    0.1830 C   0  0  0  0  0  0  0  0  0  0  0  0
    5.2990    2.7400    0.5560 N   0  0  0  0  0  0  0  0  0  0  0  0
    5.9470    3.6320    1.2580 C   0  0  0  0  0  0  0  0  0  0  0  0
    7.3170    3.3730    1.6620 C   0  0  0  0  0  0  0  0  0  0  0  0
    7.9370    2.2470    1.3340 C   0  0  0  0  0  0  0  0  0  0  0  0
    9.3440    2.0410    1.7760 C   0  0  0  0  0  0  0  0  0  0  0  0
    7.2360    1.3270    0.6000 O   0  0  0  0  0  0  0  0  0  0  0  0
   -3.4720   -1.3280   -1.2190 C   0  0  0  0  0  0  0  0  0  0  0  0
   -4.4770   -0.3990   -1.1730 C   0  0  0  0  0  0  0  0  0  0  0  0
  1  2  1  0
  2  3  1  0
  3  4  1  6
  3  5  1  0
  3  6  1  0
  6  7  2  0
  6 32  1  0
  7  8  1  0
  8  9  2  0
  9 10  1  0
  9 31  1  0
 10 11  2  0
 10 14  1  0
 11 12  1  0
 12 13  1  0
 13 14  2  0
 14 15  1  0
 15 16  1  0
 16 17  1  0
 17 18  2  0
 17 19  1  0
 19 20  1  0
 20 21  1  0
 21 22  1  0
 21 24  2  3
 22 23  1  0
 24 25  1  0
 24 30  1  0
 25 26  2  0
 26 27  1  0
 27 28  2  0
 28 29  1  0
 28 30  1  0
 31 32  2  0
M  END
