
     RDKit          3D

 32 35  0  0  0  0  0  0  0  0999 V2000
   -9.6490    0.4210    0.1880 C   0  0  0  0  0  0  0  0  0  0  0  0
   -8.3200   -0.0860   -0.2270 C   0  0  0  0  0  0  0  0  0  0  0  0
   -7.8310    0.1790   -1.4900 C   0  0  0  0  0  0  0  0  0  0  0  0
   -6.5990   -0.2750   -1.9150 C   0  0  0  0  0  0  0  0  0  0  0  0
   -5.7900   -1.0300   -1.0750 C   0  0  0  0  0  0  0  0  0  0  0  0
   -4.4660   -1.5340   -1.5130 C   0  0  0  0  0  0  0  0  0  0  0  0
   -3.3410   -0.5690   -1.2250 C   0  0  0  0  0  0  0  0  0  0  0  0
   -3.2890   -0.3310    0.2480 C   0  0  0  0  0  0  0  0  0  0  0  0
   -2.2170    0.5880    0.6380 N   0  0  0  0  0  0  0  0  0  0  0  0
   -2.5450    1.8580    1.1390 C   0  0  0  0  0  0  0  0  0  0  0  0
   -1.6320    2.7240    1.5370 C   0  0  0  0  0  0  0  0  0  0  0  0
   -0.2520    2.2960    1.4260 C   0  0  0  0  0  0  0  0  0  0  0  0
    0.1130    1.1210    0.9600 C   0  0  0  0  0  0  0  0  0  0  0  0
    1.5640    0.8000    0.9010 C   0  0  0  0  0  0  0  0  0  0  0  0
    2.5180    1.6460    1.2990 N   0  0  0  0  0  0  0  0  0  0  0  0
    3.8400    1.2980    1.2260 C   0  0  0  0  0  0  0  0  0  0  0  0
    4.7370    2.0900    1.6000 O   0  0  0  0  0  0  0  0  0  0  0  0
    4.1780    0.0820    0.7440 N   0  0  0  0  0  0  0  0  0  0  0  0
    5.5930   -0.2480    0.6860 C   0  0  0  0  0  0  0  0  0  0  0  0
    6.1630    0.1820   -0.6540 C   0  0  2  0  0  0  0  0  0  0  0  0
    5.4960   -0.4780   -1.6780 O   0  0  0  0  0  0  0  0  0  0  0  0
    7.5960   -0.2040   -0.6460 C   0  0  0  0  0  0  0  0  0  0  0  0
    8.1750   -1.0250   -1.4870 C   0  0  0  0  0  0  0  0  0  0  0  0
    9.6200   -1.1310   -1.1200 C   0  0  0  0  0  0  0  0  0  0  0  0
    9.7520   -0.2420    0.0550 C   0  0  0  0  0  0  0  0  0  0  0  0
    8.5680    0.2890    0.3180 C   0  0  0  0  0  0  0  0  0  0  0  0
    3.2240   -0.7710    0.3410 C   0  0  0  0  0  0  0  0  0  0  0  0
    3.5290   -1.9020   -0.1080 O   0  0  0  0  0  0  0  0  0  0  0  0
    1.9160   -0.3960    0.4270 N   0  0  0  0  0  0  0  0  0  0  0  0
   -0.8760    0.1460    0.4920 C   0  0  0  0  0  0  0  0  0  0  0  0
   -6.2900   -1.2920    0.1930 C   0  0  0  0  0  0  0  0  0  0  0  0
   -7.5220   -0.8350    0.6130 C   0  0  0  0  0  0  0  0  0  0  0  0
  1  2  1  0
  2  3  2  0
  2 32  1  0
  3  4  1  0
  4  5  2  0
  5  6  1  0
  5 31  1  0
  6  7  1  0
  7  8  1  0
  8  9  1  0
  9 10  1  0
  9 30  1  0
 10 11  2  0
 11 12  1  0
 12 13  2  0
 13 14  1  0
 13 30  1  0
 14 15  2  0
 14 29  1  0
 15 16  1  0
 16 17  2  0
 16 18  1  0
 18 19  1  0
 18 27  1  0
 19 20  1  0
 20 21  1  6
 20 22  1  0
 22 23  2  0
 22 26  1  0
 23 24  1  0
 24 25  1  0
 25 26  2  0
 27 28  2  0
 27 29  1  0
 31 32  2  0
M  END
