
     RDKit          3D

 32 35  0  0  0  0  0  0  0  0999 V2000
   -7.1150   -4.4370   -0.0370 C   0  0  0  0  0  0  0  0  0  0  0  0
   -6.4440   -3.6030    1.0450 C   0  0  2  0  0  0  0  0  0  0  0  0
   -7.1200   -3.8650    2.3920 C   0  0  0  0  0  0  0  0  0  0  0  0
   -6.4170   -2.2570    0.7250 O   0  0  0  0  0  0  0  0  0  0  0  0
   -5.3410   -1.4330    0.5390 C   0  0  0  0  0  0  0  0  0  0  0  0
   -5.5110   -0.0840    0.2180 C   0  0  0  0  0  0  0  0  0  0  0  0
   -4.4210    0.7480    0.0310 C   0  0  0  0  0  0  0  0  0  0  0  0
   -3.1200    0.3010    0.1480 C   0  0  0  0  0  0  0  0  0  0  0  0
   -2.0140    1.1270   -0.0370 C   0  0  0  0  0  0  0  0  0  0  0  0
   -2.1990    2.4810   -0.3830 N   0  0  0  0  0  0  0  0  0  0  0  0
   -1.1610    3.4470   -0.5770 C   0  0  0  0  0  0  0  0  0  0  0  0
   -1.4360    4.6130   -1.3020 C   0  0  0  0  0  0  0  0  0  0  0  0
   -0.4730    5.5650   -1.4870 C   0  0  0  0  0  0  0  0  0  0  0  0
    0.7910    5.3940   -0.9630 C   0  0  0  0  0  0  0  0  0  0  0  0
    1.0650    4.2540   -0.2520 C   0  0  0  0  0  0  0  0  0  0  0  0
    0.0920    3.2860   -0.0610 C   0  0  0  0  0  0  0  0  0  0  0  0
   -0.8080    0.5560    0.1100 N   0  0  0  0  0  0  0  0  0  0  0  0
   -0.5720   -0.7090    0.4120 C   0  0  0  0  0  0  0  0  0  0  0  0
    0.7360   -1.3370    0.5700 C   0  0  0  0  0  0  0  0  0  0  0  0
    1.8520   -0.4930    0.2890 N   0  0  0  0  0  0  0  0  0  0  0  0
    3.1930   -0.9520    0.4030 C   0  0  0  0  0  0  0  0  0  0  0  0
    3.3290   -2.1670    0.7720 O   0  0  0  0  0  0  0  0  0  0  0  0
    4.3240   -0.1360    0.1290 N   0  0  0  0  0  0  0  0  0  0  0  0
    5.6490   -0.6980    0.2740 C   0  0  0  0  0  0  0  0  0  0  0  0
    6.7300    0.2990   -0.0530 C   0  0  2  0  0  0  0  0  0  0  0  0
    6.6290    0.8060   -1.4740 C   0  0  0  0  0  0  0  0  0  0  0  0
    8.0870    1.0940   -1.7670 C   0  0  0  0  0  0  0  0  0  0  0  0
    8.7780    0.0610   -1.1480 O   0  0  0  0  0  0  0  0  0  0  0  0
    8.0980   -0.2900   -0.0150 C   0  0  0  0  0  0  0  0  0  0  0  0
   -1.6850   -1.5250    0.5950 C   0  0  0  0  0  0  0  0  0  0  0  0
   -2.9760   -1.0470    0.4690 C   0  0  0  0  0  0  0  0  0  0  0  0
   -4.0660   -1.8900    0.6590 C   0  0  0  0  0  0  0  0  0  0  0  0
  2  1  1  6
  2  3  1  0
  2  4  1  0
  4  5  1  0
  5  6  2  0
  5 32  1  0
  6  7  1  0
  7  8  2  0
  8  9  1  0
  8 31  1  0
  9 10  1  0
  9 17  2  0
 10 11  1  0
 11 12  2  0
 11 16  1  0
 12 13  1  0
 13 14  2  0
 14 15  1  0
 15 16  2  0
 17 18  1  0
 18 19  1  0
 18 30  2  0
 19 20  1  0
 20 21  1  0
 21 22  2  0
 21 23  1  0
 23 24  1  0
 25 24  1  6
 25 26  1  0
 25 29  1  0
 26 27  1  0
 27 28  1  0
 28 29  1  0
 30 31  1  0
 31 32  2  0
M  END
