
     RDKit          3D

 32 35  0  0  0  0  0  0  0  0999 V2000
   -7.1560   -0.5130   -0.9130 C   0  0  0  0  0  0  0  0  0  0  0  0
   -7.0630    0.3080    0.1190 C   0  0  0  0  0  0  0  0  0  0  0  0
   -7.5810    1.7180    0.2070 C   0  0  0  0  0  0  0  0  0  0  0  0
   -7.8080    1.8470    1.7000 C   0  0  0  0  0  0  0  0  0  0  0  0
   -6.8490    0.8970    2.3240 C   0  0  0  0  0  0  0  0  0  0  0  0
   -6.4370    0.0290    1.4050 C   0  0  0  0  0  0  0  0  0  0  0  0
   -5.4580   -1.0800    1.6820 C   0  0  0  0  0  0  0  0  0  0  0  0
   -4.2130   -0.9220    0.7980 C   0  0  0  0  0  0  0  0  0  0  0  0
   -3.3070   -2.0800    1.1580 C   0  0  0  0  0  0  0  0  0  0  0  0
   -2.0720   -2.0750    0.4000 N   0  0  0  0  0  0  0  0  0  0  0  0
   -1.8310   -2.7110   -0.8630 C   0  0  0  0  0  0  0  0  0  0  0  0
   -2.6740   -3.3810   -1.5120 O   0  0  0  0  0  0  0  0  0  0  0  0
   -0.4910   -2.4670   -1.2670 N   0  0  0  0  0  0  0  0  0  0  0  0
   -0.0380   -1.3350   -0.5050 C   0  0  1  0  0  0  0  0  0  0  0  0
   -0.4760   -0.0500   -1.2000 C   0  0  0  0  0  0  0  0  0  0  0  0
    0.0060    1.1090   -0.3890 C   0  0  0  0  0  0  0  0  0  0  0  0
    1.4510    1.0710   -0.2880 N   0  0  0  0  0  0  0  0  0  0  0  0
    2.2820    1.6760   -1.1820 C   0  0  0  0  0  0  0  0  0  0  0  0
    3.5690    1.4390   -0.7800 C   0  0  0  0  0  0  0  0  0  0  0  0
    4.8060    1.9290   -1.4840 C   0  0  2  0  0  0  0  0  0  0  0  0
    4.6220    1.6900   -2.8450 O   0  0  0  0  0  0  0  0  0  0  0  0
    5.9460    1.2000   -0.9290 C   0  0  0  0  0  0  0  0  0  0  0  0
    6.8290    1.8190   -0.1000 C   0  0  0  0  0  0  0  0  0  0  0  0
    7.8880    1.1300    0.4120 C   0  0  0  0  0  0  0  0  0  0  0  0
    8.0730   -0.1920    0.0970 C   0  0  0  0  0  0  0  0  0  0  0  0
    9.2220   -0.9570    0.6470 C   0  0  0  0  0  0  0  0  0  0  0  0
    7.1660   -0.8100   -0.7490 C   0  0  0  0  0  0  0  0  0  0  0  0
    6.0900   -0.1360   -1.2780 C   0  0  0  0  0  0  0  0  0  0  0  0
    3.5120    0.6820    0.3710 C   0  0  0  0  0  0  0  0  0  0  0  0
    2.2210    0.4930    0.6160 N   0  0  0  0  0  0  0  0  0  0  0  0
   -0.8430   -1.4450    0.7400 C   0  0  0  0  0  0  0  0  0  0  0  0
   -0.5130   -1.0550    1.9090 O   0  0  0  0  0  0  0  0  0  0  0  0
  1  2  2  0
  2  3  1  0
  2  6  1  0
  3  4  1  0
  4  5  1  0
  5  6  2  0
  6  7  1  0
  7  8  1  0
  8  9  1  0
  9 10  1  0
 10 11  1  0
 10 31  1  0
 11 12  2  0
 11 13  1  0
 13 14  1  0
 14 15  1  6
 14 31  1  0
 15 16  1  0
 16 17  1  0
 17 18  1  0
 17 30  1  0
 18 19  2  0
 19 20  1  0
 19 29  1  0
 20 21  1  6
 20 22  1  0
 22 23  2  0
 22 28  1  0
 23 24  1  0
 24 25  2  0
 25 26  1  0
 25 27  1  0
 27 28  2  0
 29 30  2  0
 31 32  2  0
M  END
