
     RDKit          3D

 23 23  0  0  0  0  0  0  0  0999 V2000
    8.2040   -0.3370    0.3720 C   0  0  0  0  0  0  0  0  0  0  0  0
    6.9380   -0.5000   -0.2370 O   0  0  0  0  0  0  0  0  0  0  0  0
    5.8250   -0.1190    0.4520 C   0  0  0  0  0  0  0  0  0  0  0  0
    5.9280    0.3650    1.6000 O   0  0  0  0  0  0  0  0  0  0  0  0
    4.4800   -0.2700   -0.1430 C   0  0  2  0  0  0  0  0  0  0  0  0
    4.2700   -1.7600   -0.4360 C   0  0  0  0  0  0  0  0  0  0  0  0
    4.4680    0.4340   -1.4680 C   0  0  0  0  0  0  0  0  0  0  0  0
    3.4220    0.2370    0.8030 C   0  0  0  0  0  0  0  0  0  0  0  0
    2.0300    0.1030    0.2370 C   0  0  0  0  0  0  0  0  0  0  0  0
    1.0700    0.6380    1.2620 C   0  0  1  0  0  0  0  0  0  0  0  0
    1.3150    2.0720    1.5960 C   0  0  0  0  0  0  0  0  0  0  0  0
   -0.3770    0.3520    0.8680 C   0  0  0  0  0  0  0  0  0  0  0  0
   -0.7330    0.9730   -0.4320 C   0  0  0  0  0  0  0  0  0  0  0  0
   -2.1520    0.6730   -0.8350 C   0  0  0  0  0  0  0  0  0  0  0  0
   -3.0990    1.2080    0.1740 C   0  0  0  0  0  0  0  0  0  0  0  0
   -4.5400    0.9880   -0.0760 C   0  0  0  0  0  0  0  0  0  0  0  0
   -5.0130   -0.3970   -0.0200 C   0  0  0  0  0  0  0  0  0  0  0  0
   -4.2420   -1.3970    0.3280 C   0  0  0  0  0  0  0  0  0  0  0  0
   -4.7330   -2.7900    0.3740 C   0  0  0  0  0  0  0  0  0  0  0  0
   -6.0660   -2.9340    0.0320 O   0  0  0  0  0  0  0  0  0  0  0  0
   -6.8750   -1.8880   -0.3340 C   0  0  0  0  0  0  0  0  0  0  0  0
   -6.4230   -0.6630   -0.3740 C   0  0  0  0  0  0  0  0  0  0  0  0
   -7.2590    0.4970   -0.7620 C   0  0  0  0  0  0  0  0  0  0  0  0
  1  2  1  0
  2  3  1  0
  3  4  2  0
  3  5  1  0
  5  6  1  6
  5  7  1  0
  5  8  1  0
  8  9  1  0
  9 10  1  0
 10 11  1  6
 10 12  1  0
 12 13  1  0
 13 14  1  0
 14 15  1  0
 15 16  1  0
 16 17  1  0
 17 18  2  0
 17 22  1  0
 18 19  1  0
 19 20  1  0
 20 21  1  0
 21 22  2  0
 22 23  1  0
M  END
