
     RDKit          3D

 23 22  0  0  0  0  0  0  0  0999 V2000
   -3.1060    1.5070    2.0590 C   0  0  0  0  0  0  0  0  0  0  0  0
   -3.0010    2.0380    0.8600 C   0  0  0  0  0  0  0  0  0  0  0  0
   -3.7150    3.3400    0.6360 C   0  0  0  0  0  0  0  0  0  0  0  0
   -2.2580    1.4780   -0.2590 C   0  0  0  0  0  0  0  0  0  0  0  0
   -2.2410    2.1530   -1.3860 C   0  0  0  0  0  0  0  0  0  0  0  0
   -1.5330    1.7160   -2.6030 C   0  0  0  0  0  0  0  0  0  0  0  0
   -1.5920    0.1900   -0.1350 C   0  0  2  0  0  0  0  0  0  0  0  0
   -0.2910    0.2250   -0.7560 O   0  0  0  0  0  0  0  0  0  0  0  0
    0.8950    0.1310   -0.0760 C   0  0  0  0  0  0  0  0  0  0  0  0
    0.8250    0.0070    1.1710 O   0  0  0  0  0  0  0  0  0  0  0  0
    2.2010    0.1720   -0.7460 C   0  0  0  0  0  0  0  0  0  0  0  0
    3.3950    0.0990    0.1360 C   0  0  1  0  0  0  0  0  0  0  0  0
    4.6100    0.1460   -0.8160 C   0  0  0  0  0  0  0  0  0  0  0  0
    3.4550    1.2980    1.0630 C   0  0  0  0  0  0  0  0  0  0  0  0
    4.6530    1.2750    1.9780 C   0  0  0  0  0  0  0  0  0  0  0  0
    3.4830   -1.1380    0.9640 C   0  0  1  0  0  0  0  0  0  0  0  0
    3.5330   -2.3950    0.0850 C   0  0  0  0  0  0  0  0  0  0  0  0
    4.6850   -1.1910    1.7010 O   0  0  0  0  0  0  0  0  0  0  0  0
   -2.2970   -1.0650   -0.4730 C   0  0  2  0  0  0  0  0  0  0  0  0
   -3.5640   -1.3930    0.2230 C   0  0  0  0  0  0  0  0  0  0  0  0
   -4.7140   -0.4630   -0.0110 C   0  0  0  0  0  0  0  0  0  0  0  0
   -1.2990   -2.1960   -0.0630 C   0  0  0  0  0  0  0  0  0  0  0  0
   -1.9440   -3.5150   -0.3760 C   0  0  0  0  0  0  0  0  0  0  0  0
  1  2  2  0
  2  3  1  0
  2  4  1  0
  4  5  2  3
  4  7  1  0
  5  6  1  0
  7  8  1  6
  7 19  1  0
  8  9  1  0
  9 10  2  0
  9 11  1  0
 11 12  1  0
 12 13  1  6
 12 14  1  0
 12 16  1  0
 14 15  1  0
 16 17  1  6
 16 18  1  0
 19 20  1  1
 19 22  1  0
 20 21  1  0
 22 23  1  0
M  END
