
     RDKit          3D

 15 15  0  0  0  0  0  0  0  0999 V2000
   -1.5470   -2.7850   -0.0560 C   0  0  0  0  0  0  0  0  0  0  0  0
   -2.3250   -1.8900   -0.9280 C   0  0  0  0  0  0  0  0  0  0  0  0
   -3.5740   -2.4940   -1.5720 C   0  0  0  0  0  0  0  0  0  0  0  0
   -2.0800   -0.6490   -1.2210 C   0  0  0  0  0  0  0  0  0  0  0  0
   -1.0150    0.2460   -0.8200 C   0  0  0  0  0  0  0  0  0  0  0  0
   -1.0280    1.4890   -1.2780 C   0  0  0  0  0  0  0  0  0  0  0  0
   -2.0650    1.9100   -2.1380 N   0  0  0  0  0  0  0  0  0  0  0  0
   -0.0060    2.4460   -0.9110 C   0  0  0  0  0  0  0  0  0  0  0  0
    1.2220    1.9380   -0.2840 C   0  0  0  0  0  0  0  0  0  0  0  0
    1.2850    0.5720    0.0110 N   0  0  0  0  0  0  0  0  0  0  0  0
    2.0510    0.3390    1.2110 C   0  0  2  0  0  0  0  0  0  0  0  0
    1.4500    0.9620    2.4400 C   0  0  0  0  0  0  0  0  0  0  0  0
    3.4190    0.9530    0.9900 C   0  0  0  0  0  0  0  0  0  0  0  0
    2.2430   -1.1330    1.4910 C   0  0  0  0  0  0  0  0  0  0  0  0
    0.0660   -0.1830    0.0540 C   0  0  0  0  0  0  0  0  0  0  0  0
  1  2  1  0
  2  3  1  0
  2  4  2  3
  4  5  1  0
  5  6  2  0
  5 15  1  0
  6  7  1  0
  6  8  1  0
  8  9  1  0
  9 10  1  0
 10 11  1  0
 10 15  1  0
 11 12  1  1
 11 13  1  0
 11 14  1  0
M  END
