
     RDKit          3D

 16 17  0  0  0  0  0  0  0  0999 V2000
    4.6100    0.4640   -1.4830 C   0  0  0  0  0  0  0  0  0  0  0  0
    3.7470    0.8270   -0.2770 C   0  0  0  0  0  0  0  0  0  0  0  0
    3.3200   -0.3480    0.4660 C   0  0  0  0  0  0  0  0  0  0  0  0
    4.4150   -1.2190    1.0410 C   0  0  0  0  0  0  0  0  0  0  0  0
    2.1040   -0.7060    0.6750 C   0  0  0  0  0  0  0  0  0  0  0  0
    0.9370   -0.0020    0.2060 C   0  0  0  0  0  0  0  0  0  0  0  0
   -0.3100   -0.4450    0.4690 C   0  0  0  0  0  0  0  0  0  0  0  0
   -0.4800   -1.8990    1.3940 Cl  0  0  0  0  0  0  0  0  0  0  0  0
   -1.4320    0.3280   -0.0430 C   0  0  0  0  0  0  0  0  0  0  0  0
   -1.3720    1.4600   -0.7650 N   0  0  0  0  0  0  0  0  0  0  0  0
   -2.5630    1.8960   -1.0620 N   0  0  0  0  0  0  0  0  0  0  0  0
   -3.4970    1.0670   -0.5490 C   0  0  0  0  0  0  0  0  0  0  0  0
   -2.7840    0.0800    0.0930 C   0  0  0  0  0  0  0  0  0  0  0  0
   -3.7210   -0.9010    0.6990 C   0  0  0  0  0  0  0  0  0  0  0  0
   -4.9610   -0.7240   -0.1930 C   0  0  0  0  0  0  0  0  0  0  0  0
   -4.9430    0.7720   -0.3800 C   0  0  0  0  0  0  0  0  0  0  0  0
  1  2  1  0
  2  3  1  0
  3  4  1  0
  3  5  2  3
  5  6  1  0
  6  7  2  3
  7  8  1  0
  7  9  1  0
  9 10  2  0
  9 13  1  0
 10 11  1  0
 11 12  1  0
 12 13  2  0
 12 16  1  0
 13 14  1  0
 14 15  1  0
 15 16  1  0
M  END
