
     RDKit          3D

 16 17  0  0  0  0  0  0  0  0999 V2000
   -3.4400    1.1240    0.4410 C   0  0  0  0  0  0  0  0  0  0  0  0
   -3.2010   -0.0400    0.9910 C   0  0  0  0  0  0  0  0  0  0  0  0
   -2.5460   -1.1310    0.2910 C   0  0  0  0  0  0  0  0  0  0  0  0
   -2.3550   -2.2690    0.9310 C   0  0  0  0  0  0  0  0  0  0  0  0
   -2.8850   -2.4390    2.5860 Cl  0  0  0  0  0  0  0  0  0  0  0  0
   -2.0970   -1.0050   -1.0970 C   0  0  0  0  0  0  0  0  0  0  0  0
   -1.1390    0.0200   -1.3690 N   0  0  0  0  0  0  0  0  0  0  0  0
    0.1550   -0.0120   -0.8290 C   0  0  0  0  0  0  0  0  0  0  0  0
    0.7280   -1.1190   -0.2490 C   0  0  0  0  0  0  0  0  0  0  0  0
    1.9990   -1.1030    0.2850 C   0  0  0  0  0  0  0  0  0  0  0  0
    2.7550    0.0530    0.2540 C   0  0  0  0  0  0  0  0  0  0  0  0
    4.0150    0.4050    0.6810 C   0  0  0  0  0  0  0  0  0  0  0  0
    4.2200    1.7210    0.3660 C   0  0  0  0  0  0  0  0  0  0  0  0
    3.1080    2.1610   -0.2390 N   0  0  0  0  0  0  0  0  0  0  0  0
    2.2190    1.1630   -0.3120 C   0  0  0  0  0  0  0  0  0  0  0  0
    0.9480    1.1290   -0.8410 C   0  0  0  0  0  0  0  0  0  0  0  0
  1  2  2  0
  2  3  1  0
  3  4  2  3
  3  6  1  0
  4  5  1  0
  6  7  1  0
  7  8  1  0
  8  9  2  0
  8 16  1  0
  9 10  1  0
 10 11  2  0
 11 12  1  0
 11 15  1  0
 12 13  2  0
 13 14  1  0
 14 15  1  0
 15 16  2  0
M  END
