
     RDKit          3D

 16 16  0  0  0  0  0  0  0  0999 V2000
   -4.3990    0.4090    0.2710 C   0  0  0  0  0  0  0  0  0  0  0  0
   -3.5450   -0.3210    0.7910 C   0  0  0  0  0  0  0  0  0  0  0  0
   -3.9740   -1.6010    1.4900 C   0  0  0  0  0  0  0  0  0  0  0  0
   -2.1240   -0.1830    0.7630 N   0  0  0  0  0  0  0  0  0  0  0  0
   -1.4880    0.1600   -0.4640 C   0  0  0  0  0  0  0  0  0  0  0  0
   -0.0590    0.4210   -0.5090 C   0  0  0  0  0  0  0  0  0  0  0  0
    0.4270    1.7780   -0.6080 C   0  0  0  0  0  0  0  0  0  0  0  0
   -0.4210    2.9200   -0.3290 C   0  0  0  0  0  0  0  0  0  0  0  0
    1.7250    1.6780   -0.8500 N   0  0  0  0  0  0  0  0  0  0  0  0
    2.1260    0.3860   -0.9150 C   0  0  0  0  0  0  0  0  0  0  0  0
    3.4710   -0.0680   -1.1980 C   0  0  0  0  0  0  0  0  0  0  0  0
    4.2970   -0.4130   -0.2420 C   0  0  0  0  0  0  0  0  0  0  0  0
    3.8500   -0.3370    1.1700 C   0  0  0  0  0  0  0  0  0  0  0  0
    4.7370    0.8670    2.1140 Cl  0  0  0  0  0  0  0  0  0  0  0  0
    1.0110   -0.4080   -0.7040 C   0  0  0  0  0  0  0  0  0  0  0  0
    0.9700   -1.8790   -0.8050 C   0  0  0  0  0  0  0  0  0  0  0  0
  1  2  2  0
  2  3  1  0
  2  4  1  0
  4  5  1  0
  5  6  1  0
  6  7  2  0
  6 15  1  0
  7  8  1  0
  7  9  1  0
  9 10  1  0
 10 11  1  0
 10 15  2  0
 11 12  2  3
 12 13  1  0
 13 14  1  0
 15 16  1  0
M  END
