
     RDKit          3D

 16 17  0  0  0  0  0  0  0  0999 V2000
   -5.3160    0.6650    1.0830 C   0  0  0  0  0  0  0  0  0  0  0  0
   -3.8160    0.7210    1.1270 C   0  0  0  0  0  0  0  0  0  0  0  0
   -3.0240    1.7530    2.2920 Cl  0  0  0  0  0  0  0  0  0  0  0  0
   -3.0830    0.0110    0.3090 C   0  0  0  0  0  0  0  0  0  0  0  0
   -3.7520   -0.8640   -0.6780 C   0  0  0  0  0  0  0  0  0  0  0  0
   -1.6770    0.0850    0.3760 N   0  0  0  0  0  0  0  0  0  0  0  0
   -0.9450    0.2670   -0.8630 C   0  0  0  0  0  0  0  0  0  0  0  0
    0.5260    0.3250   -0.6210 C   0  0  0  0  0  0  0  0  0  0  0  0
    1.1720    1.5210   -0.3720 C   0  0  0  0  0  0  0  0  0  0  0  0
    2.5380    1.5790   -0.1470 C   0  0  0  0  0  0  0  0  0  0  0  0
    3.2910    0.4380   -0.1650 C   0  0  0  0  0  0  0  0  0  0  0  0
    2.6720   -0.7770   -0.4120 C   0  0  0  0  0  0  0  0  0  0  0  0
    1.3110   -0.8180   -0.6340 C   0  0  0  0  0  0  0  0  0  0  0  0
    3.6490   -1.8130   -0.3810 N   0  0  0  0  0  0  0  0  0  0  0  0
    4.9630   -1.2510   -0.1440 C   0  0  0  0  0  0  0  0  0  0  0  0
    4.7360    0.2140    0.0380 C   0  0  0  0  0  0  0  0  0  0  0  0
  1  2  1  0
  2  3  1  0
  2  4  2  3
  4  5  1  0
  4  6  1  0
  6  7  1  0
  7  8  1  0
  8  9  2  0
  8 13  1  0
  9 10  1  0
 10 11  2  0
 11 12  1  0
 11 16  1  0
 12 13  2  0
 12 14  1  0
 14 15  1  0
 15 16  1  0
M  END
