
     RDKit          3D

 43 45  0  0  0  0  0  0  0  0999 V2000
    6.3950    2.0320    1.3940 C   0  0  0  0  0  0  0  0  0  0  0  0
    5.0130    2.6240    1.3180 C   0  0  1  0  0  0  0  0  0  0  0  0
    5.2160    4.0280    1.3150 O   0  0  0  0  0  0  0  0  0  0  0  0
    4.2390    2.2880    0.0960 C   0  0  0  0  0  0  0  0  0  0  0  0
    3.9070    0.9090   -0.0960 N   0  0  0  0  0  0  0  0  0  0  0  0
    4.9100   -0.0970   -0.3940 C   0  0  0  0  0  0  0  0  0  0  0  0
    5.5070    0.1350   -1.7830 C   0  0  0  0  0  0  0  0  0  0  0  0
    4.5040    0.0640   -2.7440 O   0  0  0  0  0  0  0  0  0  0  0  0
    2.5610    0.4220   -0.0060 C   0  0  0  0  0  0  0  0  0  0  0  0
    1.9580    0.3830   -1.1820 N   0  0  0  0  0  0  0  0  0  0  0  0
    0.5600   -0.0970   -1.2350 C   0  0  0  0  0  0  0  0  0  0  0  0
   -0.1900    0.6090   -0.5510 N   0  0  0  0  0  0  0  0  0  0  0  0
   -1.2720    0.9940   -0.0320 N   0  0  0  0  0  0  0  0  0  0  0  0
   -2.4930    0.8540    0.2270 C   0  0  0  0  0  0  0  0  0  0  0  0
   -3.0870    1.9320    1.0090 N   0  0  0  0  0  0  0  0  0  0  0  0
   -2.4060    3.1170    1.4540 C   0  0  0  0  0  0  0  0  0  0  0  0
   -3.2690    4.0360    2.2480 C   0  0  0  0  0  0  0  0  0  0  0  0
   -4.3650    4.4640    1.5000 O   0  0  0  0  0  0  0  0  0  0  0  0
   -5.0910    5.2720    2.2520 O   0  0  0  0  0  0  0  0  0  0  0  0
   -3.3900   -0.2690   -0.1850 C   0  0  0  0  0  0  0  0  0  0  0  0
   -4.6150    0.2190   -0.5500 C   0  0  0  0  0  0  0  0  0  0  0  0
   -5.6890   -0.6370   -0.9980 C   0  0  0  0  0  0  0  0  0  0  0  0
   -5.5680   -1.8850   -1.0810 O   0  0  0  0  0  0  0  0  0  0  0  0
   -6.9040   -0.0920   -1.3560 O   0  0  0  0  0  0  0  0  0  0  0  0
   -3.1630   -1.6280   -0.2620 N   0  0  0  0  0  0  0  0  0  0  0  0
   -2.8820   -2.7720    0.5130 C   0  0  2  0  0  0  0  0  0  0  0  0
   -2.0010   -2.7650    1.7090 C   0  0  0  0  0  0  0  0  0  0  0  0
   -1.0170   -1.6600    1.7820 C   0  0  0  0  0  0  0  0  0  0  0  0
    0.4250   -1.9400    2.1350 C   0  0  0  0  0  0  0  0  0  0  0  0
    1.3360   -1.1130    1.5900 O   0  0  0  0  0  0  0  0  0  0  0  0
    1.9560   -0.0080    1.2760 C   0  0  0  0  0  0  0  0  0  0  0  0
    2.1300    0.9400    2.1540 O   0  0  0  0  0  0  0  0  0  0  0  0
   -2.6150   -3.9810   -0.3980 C   0  0  0  0  0  0  0  0  0  0  0  0
   -2.4870   -5.0270    0.3030 O   0  0  0  0  0  0  0  0  0  0  0  0
   -2.5270   -3.9720   -1.7120 O   0  0  0  0  0  0  0  0  0  0  0  0
   -1.7730   -3.9120   -2.8400 C   0  0  0  0  0  0  0  0  0  0  0  0
   -1.0490   -2.6780   -2.9880 C   0  0  2  0  0  0  0  0  0  0  0  0
    0.0990   -2.6030   -3.8850 O   0  0  0  0  0  0  0  0  0  0  0  0
    0.5500   -1.2860   -3.4890 C   0  0  0  0  0  0  0  0  0  0  0  0
    1.0280   -0.3650   -4.1760 O   0  0  0  0  0  0  0  0  0  0  0  0
    0.3300   -1.2480   -2.0450 N   0  0  0  0  0  0  0  0  0  0  0  0
   -0.1860   -2.5230   -1.7400 C   0  0  0  0  0  0  0  0  0  0  0  0
   -0.1200   -3.4180   -0.8510 O   0  0  0  0  0  0  0  0  0  0  0  0
  2  1  1  6
  2  3  1  0
  2  4  1  0
  4  5  1  0
  5  6  1  0
  5  9  1  0
  6  7  1  0
  7  8  1  0
  9 10  2  0
  9 31  1  0
 10 11  1  0
 11 12  2  0
 11 41  1  0
 12 13  1  0
 13 14  2  0
 14 15  1  0
 14 20  1  0
 15 16  1  0
 16 17  1  0
 17 18  1  0
 18 19  1  0
 20 21  2  3
 20 25  1  0
 21 22  1  0
 22 23  2  0
 22 24  1  0
 25 26  1  0
 26 27  1  6
 26 33  1  0
 27 28  1  0
 28 29  1  0
 29 30  1  0
 30 31  1  0
 31 32  2  0
 33 34  2  0
 33 35  1  0
 35 36  1  0
 37 36  1  1
 37 38  1  0
 37 42  1  0
 38 39  1  0
 39 40  2  0
 39 41  1  0
 41 42  1  0
 42 43  2  0
M  END
