
     RDKit          3D

 43 45  0  0  0  0  0  0  0  0999 V2000
   -4.4750    3.4190    3.6600 C   0  0  0  0  0  0  0  0  0  0  0  0
   -3.3360    3.7660    2.8450 N   0  0  0  0  0  0  0  0  0  0  0  0
   -3.3440    3.2560    1.6080 N   0  0  0  0  0  0  0  0  0  0  0  0
   -2.3730    2.1500    1.2860 C   0  0  0  0  0  0  0  0  0  0  0  0
   -1.6690    1.8370    2.2080 O   0  0  0  0  0  0  0  0  0  0  0  0
   -2.5440    1.7660   -0.0470 N   0  0  0  0  0  0  0  0  0  0  0  0
   -1.2310    0.6760   -0.1400 C   0  0  0  0  0  0  0  0  0  0  0  0
   -0.7340    0.4550    0.9080 O   0  0  0  0  0  0  0  0  0  0  0  0
   -0.8880    0.2050   -1.4010 C   0  0  2  0  0  0  0  0  0  0  0  0
   -0.5250    1.3490   -2.3000 C   0  0  0  0  0  0  0  0  0  0  0  0
    0.6800    1.9910   -1.7920 O   0  0  0  0  0  0  0  0  0  0  0  0
    1.3240    1.4590   -0.6830 C   0  0  0  0  0  0  0  0  0  0  0  0
    1.7770    2.0440    0.3000 O   0  0  0  0  0  0  0  0  0  0  0  0
    1.4790    0.0230   -0.6970 N   0  0  0  0  0  0  0  0  0  0  0  0
    2.5450   -0.6240   -0.0700 C   0  0  0  0  0  0  0  0  0  0  0  0
    3.8100    0.0490    0.1450 C   0  0  0  0  0  0  0  0  0  0  0  0
    4.6750   -0.6930    0.7760 O   0  0  0  0  0  0  0  0  0  0  0  0
    4.2650    1.3720   -0.2270 C   0  0  0  0  0  0  0  0  0  0  0  0
    5.7440    1.4170   -0.1780 O   0  0  0  0  0  0  0  0  0  0  0  0
    6.3370    2.6240   -0.5180 C   0  0  0  0  0  0  0  0  0  0  0  0
    5.5770    3.5820   -0.8400 O   0  0  0  0  0  0  0  0  0  0  0  0
    7.7790    2.8760   -0.5300 C   0  0  0  0  0  0  0  0  0  0  0  0
    8.5460    1.7740   -0.1270 O   0  0  0  0  0  0  0  0  0  0  0  0
    9.8220    2.0930   -0.1500 O   0  0  0  0  0  0  0  0  0  0  0  0
   10.5010    1.4270    0.7610 O   0  0  0  0  0  0  0  0  0  0  0  0
    2.4080   -1.8820    0.2450 N   0  0  0  0  0  0  0  0  0  0  0  0
    1.3790   -2.7500    0.0700 N   0  0  0  0  0  0  0  0  0  0  0  0
    1.2390   -3.8300   -0.6060 C   0  0  0  0  0  0  0  0  0  0  0  0
   -0.0230   -4.5550   -0.6010 C   0  0  0  0  0  0  0  0  0  0  0  0
   -1.2610   -4.4030   -0.3280 C   0  0  0  0  0  0  0  0  0  0  0  0
   -2.2550   -3.5050    0.1350 C   0  0  0  0  0  0  0  0  0  0  0  0
   -2.8750   -2.3850   -0.2120 C   0  0  0  0  0  0  0  0  0  0  0  0
   -3.9100   -1.8700    0.7350 C   0  0  0  0  0  0  0  0  0  0  0  0
   -4.5730   -0.7920    0.5260 C   0  0  0  0  0  0  0  0  0  0  0  0
   -5.5410   -0.3100    1.4140 O   0  0  0  0  0  0  0  0  0  0  0  0
   -4.2140   -2.5810    1.9300 O   0  0  0  0  0  0  0  0  0  0  0  0
   -5.4490   -3.3530    1.8640 C   0  0  0  0  0  0  0  0  0  0  0  0
   -2.7210   -1.5880   -1.4240 C   0  0  0  0  0  0  0  0  0  0  0  0
   -3.7730   -1.4390   -2.1930 O   0  0  0  0  0  0  0  0  0  0  0  0
   -1.6190   -0.8990   -1.9860 N   0  0  0  0  0  0  0  0  0  0  0  0
   -0.8890   -1.1050   -3.2500 C   0  0  0  0  0  0  0  0  0  0  0  0
    0.5790   -0.8980   -2.8350 C   0  0  0  0  0  0  0  0  0  0  0  0
    0.4320   -0.6340   -1.3700 C   0  0  2  0  0  0  0  0  0  0  0  0
  1  2  1  0
  2  3  1  0
  3  4  1  0
  4  5  2  0
  4  6  1  0
  6  7  1  0
  7  8  2  0
  9  7  1  1
  9 10  1  0
  9 40  1  0
  9 43  1  0
 10 11  1  0
 11 12  1  0
 12 13  2  0
 12 14  1  0
 14 15  1  0
 14 43  1  0
 15 16  1  0
 15 26  2  0
 16 17  2  0
 16 18  1  0
 18 19  1  0
 19 20  1  0
 20 21  2  0
 20 22  1  0
 22 23  1  0
 23 24  1  0
 24 25  1  0
 26 27  1  0
 27 28  2  0
 28 29  1  0
 29 30  2  0
 30 31  1  0
 31 32  2  0
 32 33  1  0
 32 38  1  0
 33 34  2  3
 33 36  1  0
 34 35  1  0
 36 37  1  0
 38 39  2  0
 38 40  1  0
 40 41  1  0
 41 42  1  0
 43 42  1  6
M  END
