
     RDKit          3D

 43 45  0  0  0  0  0  0  0  0999 V2000
   -1.0330   -1.8300   -3.6340 O   0  0  0  0  0  0  0  0  0  0  0  0
   -1.1090   -1.8750   -2.3500 C   0  0  0  0  0  0  0  0  0  0  0  0
   -1.9280   -2.9190   -1.8390 N   0  0  0  0  0  0  0  0  0  0  0  0
   -1.7410   -3.5320   -0.5260 C   0  0  0  0  0  0  0  0  0  0  0  0
   -0.7320   -4.6570   -0.5640 C   0  0  0  0  0  0  0  0  0  0  0  0
    0.4950   -4.2870   -0.0380 O   0  0  0  0  0  0  0  0  0  0  0  0
    0.3830   -4.1120    1.3200 C   0  0  0  0  0  0  0  0  0  0  0  0
    0.3640   -2.7000    1.5570 O   0  0  0  0  0  0  0  0  0  0  0  0
    1.2790   -1.9510    0.8950 N   0  0  0  0  0  0  0  0  0  0  0  0
    1.0870   -0.7310    0.4690 C   0  0  0  0  0  0  0  0  0  0  0  0
    2.1310   -0.1010   -0.1930 N   0  0  0  0  0  0  0  0  0  0  0  0
    3.2990    0.2160    0.0920 C   0  0  0  0  0  0  0  0  0  0  0  0
    3.8870   -0.0430    1.3470 N   0  0  0  0  0  0  0  0  0  0  0  0
    3.2120    0.2110    2.6100 C   0  0  0  0  0  0  0  0  0  0  0  0
    4.0660   -0.2770    3.7720 C   0  0  0  0  0  0  0  0  0  0  0  0
    5.2950    0.3720    3.7980 O   0  0  0  0  0  0  0  0  0  0  0  0
    5.9690   -0.1080    4.8300 O   0  0  0  0  0  0  0  0  0  0  0  0
    4.1030    0.8710   -0.9370 C   0  0  0  0  0  0  0  0  0  0  0  0
    3.6240    1.1110   -2.0920 O   0  0  0  0  0  0  0  0  0  0  0  0
    5.4470    1.2790   -0.7340 N   0  0  0  0  0  0  0  0  0  0  0  0
    6.2780    1.9220   -1.7000 C   0  0  0  0  0  0  0  0  0  0  0  0
    6.4780    1.0710   -2.9180 C   0  0  0  0  0  0  0  0  0  0  0  0
    7.0830   -0.1150   -2.4930 O   0  0  0  0  0  0  0  0  0  0  0  0
    7.2520   -0.8560   -3.5920 O   0  0  0  0  0  0  0  0  0  0  0  0
   -0.2730   -0.1060    0.7040 C   0  0  1  0  0  0  0  0  0  0  0  0
   -0.0400    1.1950    1.1800 O   0  0  0  0  0  0  0  0  0  0  0  0
   -0.3400    1.6910    2.4380 C   0  0  0  0  0  0  0  0  0  0  0  0
    0.6230    2.1040    3.1990 O   0  0  0  0  0  0  0  0  0  0  0  0
   -1.6780    1.7660    2.9340 N   0  0  0  0  0  0  0  0  0  0  0  0
   -2.7900    2.3830    2.2580 C   0  0  0  0  0  0  0  0  0  0  0  0
   -4.0980    1.6780    2.5500 C   0  0  0  0  0  0  0  0  0  0  0  0
   -4.9020    1.7780    1.4390 O   0  0  0  0  0  0  0  0  0  0  0  0
   -5.4080    0.5670    1.0090 C   0  0  0  0  0  0  0  0  0  0  0  0
   -5.1720    0.3840   -0.4940 C   0  0  0  0  0  0  0  0  0  0  0  0
   -4.3300    1.4880   -1.0300 C   0  0  2  0  0  0  0  0  0  0  0  0
   -4.9800    1.9850   -2.3280 C   0  0  0  0  0  0  0  0  0  0  0  0
   -4.1620    3.0030   -2.8130 O   0  0  0  0  0  0  0  0  0  0  0  0
   -3.0400    2.4060   -3.3600 C   0  0  0  0  0  0  0  0  0  0  0  0
   -2.6860    1.0960   -2.6940 C   0  0  0  0  0  0  0  0  0  0  0  0
   -2.9630    1.1900   -1.2740 N   0  0  0  0  0  0  0  0  0  0  0  0
   -2.4510    0.0370   -0.5580 C   0  0  0  0  0  0  0  0  0  0  0  0
   -0.9510   -0.0280   -0.6710 C   0  0  2  0  0  0  0  0  0  0  0  0
   -0.4660   -1.0040   -1.5360 O   0  0  0  0  0  0  0  0  0  0  0  0
  1  2  2  0
  2  3  1  0
  2 43  1  0
  3  4  1  0
  4  5  1  0
  5  6  1  0
  6  7  1  0
  7  8  1  0
  8  9  1  0
  9 10  2  0
 10 11  1  0
 10 25  1  0
 11 12  2  3
 12 13  1  0
 12 18  1  0
 13 14  1  0
 14 15  1  0
 15 16  1  0
 16 17  1  0
 18 19  2  0
 18 20  1  0
 20 21  1  0
 21 22  1  0
 22 23  1  0
 23 24  1  0
 25 26  1  6
 25 42  1  0
 26 27  1  0
 27 28  2  0
 27 29  1  0
 29 30  1  0
 30 31  1  0
 31 32  1  0
 32 33  1  0
 33 34  1  0
 35 34  1  6
 35 36  1  0
 35 40  1  0
 36 37  1  0
 37 38  1  0
 38 39  1  0
 39 40  1  0
 40 41  1  0
 42 41  1  1
 42 43  1  0
M  END
