
     RDKit          3D

 43 45  0  0  0  0  0  0  0  0999 V2000
   -5.2630    2.4400   -1.6070 C   0  0  0  0  0  0  0  0  0  0  0  0
   -4.7890    1.7340   -0.3600 C   0  0  0  0  0  0  0  0  0  0  0  0
   -5.5020    0.6140   -0.1540 N   0  0  0  0  0  0  0  0  0  0  0  0
   -5.2300   -0.2290    0.9810 C   0  0  0  0  0  0  0  0  0  0  0  0
   -4.0530   -0.8180    1.1810 C   0  0  0  0  0  0  0  0  0  0  0  0
   -3.0730   -0.6260    0.2890 O   0  0  0  0  0  0  0  0  0  0  0  0
   -2.2180   -1.3260   -0.5090 C   0  0  2  0  0  0  0  0  0  0  0  0
   -1.9310   -0.6150   -1.8310 C   0  0  0  0  0  0  0  0  0  0  0  0
   -2.9530   -2.6120   -0.9540 C   0  0  0  0  0  0  0  0  0  0  0  0
   -4.1150   -2.2130   -1.6610 O   0  0  0  0  0  0  0  0  0  0  0  0
   -4.9650   -3.1770   -2.1770 C   0  0  0  0  0  0  0  0  0  0  0  0
   -4.7110   -4.3760   -2.0190 O   0  0  0  0  0  0  0  0  0  0  0  0
   -0.9460   -1.7320    0.1300 C   0  0  0  0  0  0  0  0  0  0  0  0
   -0.8110   -2.9620    0.3700 O   0  0  0  0  0  0  0  0  0  0  0  0
    0.1430   -0.8440    0.4960 N   0  0  0  0  0  0  0  0  0  0  0  0
    1.3380   -1.4830    1.0460 C   0  0  0  0  0  0  0  0  0  0  0  0
    2.0260   -0.9230    1.8760 N   0  0  0  0  0  0  0  0  0  0  0  0
    3.0180   -0.7000    2.7500 C   0  0  0  0  0  0  0  0  0  0  0  0
    2.8850   -0.3900    4.1400 O   0  0  0  0  0  0  0  0  0  0  0  0
    4.2800   -0.7520    2.3720 C   0  0  0  0  0  0  0  0  0  0  0  0
    4.8420   -1.0330    1.0730 C   0  0  0  0  0  0  0  0  0  0  0  0
    4.5950   -0.5660   -0.1230 C   0  0  0  0  0  0  0  0  0  0  0  0
    5.4270   -1.1420   -1.2310 C   0  0  0  0  0  0  0  0  0  0  0  0
    5.3450   -0.8080   -2.4740 C   0  0  0  0  0  0  0  0  0  0  0  0
    6.1640   -1.4080   -3.4130 O   0  0  0  0  0  0  0  0  0  0  0  0
    6.3640   -2.1200   -0.8770 O   0  0  0  0  0  0  0  0  0  0  0  0
    7.6570   -1.8950   -0.7610 O   0  0  0  0  0  0  0  0  0  0  0  0
    3.5960    0.4190   -0.5200 C   0  0  0  0  0  0  0  0  0  0  0  0
    2.8750    0.0310   -1.5540 O   0  0  0  0  0  0  0  0  0  0  0  0
    3.2260    1.6720   -0.0610 N   0  0  0  0  0  0  0  0  0  0  0  0
    2.6900    2.1640    1.1410 C   0  0  0  0  0  0  0  0  0  0  0  0
    3.4010    3.0700    1.7290 O   0  0  0  0  0  0  0  0  0  0  0  0
    1.4930    1.8280    1.8120 N   0  0  0  0  0  0  0  0  0  0  0  0
    0.1920    1.5710    1.3320 C   0  0  1  0  0  0  0  0  0  0  0  0
   -0.7260    1.2190    2.4660 C   0  0  0  0  0  0  0  0  0  0  0  0
   -1.5300    2.1390    3.0290 O   0  0  0  0  0  0  0  0  0  0  0  0
   -2.7110    2.3080    2.3390 O   0  0  0  0  0  0  0  0  0  0  0  0
   -2.7570    2.5370    0.9000 C   0  0  0  0  0  0  0  0  0  0  0  0
   -3.8060    2.0810    0.4880 N   0  0  0  0  0  0  0  0  0  0  0  0
   -1.6440    3.1990    0.2940 N   0  0  0  0  0  0  0  0  0  0  0  0
   -0.2950    2.8140    0.5640 C   0  0  0  0  0  0  0  0  0  0  0  0
    0.6620    3.5030    0.1680 O   0  0  0  0  0  0  0  0  0  0  0  0
   -0.0090    0.5370    0.2750 C   0  0  0  0  0  0  0  0  0  0  0  0
  1  2  1  0
  2  3  2  0
  2 39  1  0
  3  4  1  0
  4  5  2  0
  5  6  1  0
  6  7  1  0
  7  8  1  6
  7  9  1  0
  7 13  1  0
  9 10  1  0
 10 11  1  0
 11 12  2  0
 13 14  2  0
 13 15  1  0
 15 16  1  0
 15 43  1  0
 16 17  2  0
 17 18  1  0
 18 19  1  0
 18 20  2  0
 20 21  1  0
 21 22  2  0
 22 23  1  0
 22 28  1  0
 23 24  2  3
 23 26  1  0
 24 25  1  0
 26 27  1  0
 28 29  2  0
 28 30  1  0
 30 31  1  0
 31 32  2  0
 31 33  1  0
 33 34  1  0
 34 35  1  1
 34 41  1  0
 34 43  1  0
 35 36  1  0
 36 37  1  0
 37 38  1  0
 38 39  2  0
 38 40  1  0
 40 41  1  0
 41 42  2  0
M  END
