
     RDKit          3D

 43 46  0  0  0  0  0  0  0  0999 V2000
    7.6210   -2.8440    1.8220 O   0  0  0  0  0  0  0  0  0  0  0  0
    6.5110   -3.2760    2.1490 C   0  0  0  0  0  0  0  0  0  0  0  0
    6.4000   -4.4230    2.8950 O   0  0  0  0  0  0  0  0  0  0  0  0
    5.3350   -2.5450    1.7250 N   0  0  0  0  0  0  0  0  0  0  0  0
    5.4880   -1.3420    1.0280 C   0  0  0  0  0  0  0  0  0  0  0  0
    6.7040   -0.6810    0.9740 N   0  0  0  0  0  0  0  0  0  0  0  0
    6.5020    0.4840    0.3930 C   0  0  0  0  0  0  0  0  0  0  0  0
    7.4220    1.4940    0.1190 O   0  0  0  0  0  0  0  0  0  0  0  0
    5.2550    0.5550    0.1000 O   0  0  0  0  0  0  0  0  0  0  0  0
    4.5820   -0.5410    0.4630 C   0  0  0  0  0  0  0  0  0  0  0  0
    3.1670   -0.6480    0.1880 C   0  0  0  0  0  0  0  0  0  0  0  0
    2.5230    0.4410   -0.1810 N   0  0  0  0  0  0  0  0  0  0  0  0
    1.1720    0.4030   -0.5510 C   0  0  0  0  0  0  0  0  0  0  0  0
    0.4430   -0.6500   -0.5720 N   0  0  0  0  0  0  0  0  0  0  0  0
    1.0110   -1.8800   -0.2050 C   0  0  0  0  0  0  0  0  0  0  0  0
    0.3060   -3.0260   -0.2080 C   0  0  0  0  0  0  0  0  0  0  0  0
   -1.0980   -3.1000   -0.5880 C   0  0  0  0  0  0  0  0  0  0  0  0
   -1.4850   -4.0610   -1.4070 C   0  0  0  0  0  0  0  0  0  0  0  0
   -0.6300   -5.0160   -1.9350 O   0  0  0  0  0  0  0  0  0  0  0  0
   -2.1480   -2.1560   -0.0950 C   0  0  2  0  0  0  0  0  0  0  0  0
   -2.6860   -2.7280    1.0810 O   0  0  0  0  0  0  0  0  0  0  0  0
   -3.1680   -2.0180   -0.9950 O   0  0  0  0  0  0  0  0  0  0  0  0
   -4.3910   -2.3990   -0.5120 C   0  0  0  0  0  0  0  0  0  0  0  0
   -5.4040   -1.3900   -0.9660 C   0  0  0  0  0  0  0  0  0  0  0  0
   -6.1380   -1.6690   -1.9410 O   0  0  0  0  0  0  0  0  0  0  0  0
   -5.4850   -0.1580   -0.2680 N   0  0  0  0  0  0  0  0  0  0  0  0
   -4.3980    0.3650    0.5190 C   0  0  0  0  0  0  0  0  0  0  0  0
   -4.7340    1.7220    1.1210 C   0  0  0  0  0  0  0  0  0  0  0  0
   -3.8200    2.7430    0.7350 N   0  0  0  0  0  0  0  0  0  0  0  0
   -3.3980    2.8580   -0.6710 C   0  0  0  0  0  0  0  0  0  0  0  0
   -3.7480    2.1620   -1.6560 O   0  0  0  0  0  0  0  0  0  0  0  0
   -2.4980    3.9250   -0.7290 O   0  0  0  0  0  0  0  0  0  0  0  0
   -1.8520    3.8290    0.5620 C   0  0  2  0  0  0  0  0  0  0  0  0
   -1.0290    2.5990    0.6760 C   0  0  0  0  0  0  0  0  0  0  0  0
   -0.7780    2.0060   -0.7130 C   0  0  0  0  0  0  0  0  0  0  0  0
    0.6210    1.6930   -0.9300 N   0  0  0  0  0  0  0  0  0  0  0  0
    1.4810    2.6730   -1.5350 C   0  0  0  0  0  0  0  0  0  0  0  0
    1.7470    3.8780   -0.6930 C   0  0  0  0  0  0  0  0  0  0  0  0
    2.5980    4.7130   -1.4450 O   0  0  0  0  0  0  0  0  0  0  0  0
   -3.1300    3.7620    1.3920 C   0  0  0  0  0  0  0  0  0  0  0  0
   -3.2090    4.5690    2.3510 O   0  0  0  0  0  0  0  0  0  0  0  0
    2.4440   -1.8850    0.1940 C   0  0  0  0  0  0  0  0  0  0  0  0
    2.8890   -3.0090    0.4980 O   0  0  0  0  0  0  0  0  0  0  0  0
  1  2  2  0
  2  3  1  0
  2  4  1  0
  4  5  1  0
  5  6  1  0
  5 10  2  0
  6  7  2  0
  7  8  1  0
  7  9  1  0
  9 10  1  0
 10 11  1  0
 11 12  2  0
 11 42  1  0
 12 13  1  0
 13 14  2  0
 13 36  1  0
 14 15  1  0
 15 16  2  0
 15 42  1  0
 16 17  1  0
 17 18  2  3
 17 20  1  0
 18 19  1  0
 20 21  1  1
 20 22  1  0
 22 23  1  0
 23 24  1  0
 24 25  2  0
 24 26  1  0
 26 27  1  0
 27 28  1  0
 28 29  1  0
 29 30  1  0
 29 40  1  0
 30 31  2  0
 30 32  1  0
 32 33  1  0
 33 34  1  6
 33 40  1  0
 34 35  1  0
 35 36  1  0
 36 37  1  0
 37 38  1  0
 38 39  1  0
 40 41  2  0
 42 43  2  0
M  END
