
     RDKit          3D

 43 45  0  0  0  0  0  0  0  0999 V2000
   -6.4320   -0.6540   -2.2190 N   0  0  0  0  0  0  0  0  0  0  0  0
   -6.6720    0.2930   -1.1740 C   0  0  0  0  0  0  0  0  0  0  0  0
   -7.1250    1.4070   -1.5380 O   0  0  0  0  0  0  0  0  0  0  0  0
   -6.4160    0.0100    0.2440 C   0  0  1  0  0  0  0  0  0  0  0  0
   -4.9590   -0.3060    0.4480 C   0  0  0  0  0  0  0  0  0  0  0  0
   -4.0830    0.8230    0.0400 C   0  0  0  0  0  0  0  0  0  0  0  0
   -4.6240    1.8550   -0.4110 O   0  0  0  0  0  0  0  0  0  0  0  0
   -2.6710    0.7660    0.1460 N   0  0  0  0  0  0  0  0  0  0  0  0
   -1.8870    1.8840   -0.2630 C   0  0  0  0  0  0  0  0  0  0  0  0
   -0.5310    1.5630   -0.7770 C   0  0  1  0  0  0  0  0  0  0  0  0
    0.4080    2.7410   -0.5960 C   0  0  0  0  0  0  0  0  0  0  0  0
    1.7490    2.3520   -0.1110 C   0  0  0  0  0  0  0  0  0  0  0  0
    1.9470    2.2610    1.0790 O   0  0  0  0  0  0  0  0  0  0  0  0
    2.8270    2.0800   -1.0670 C   0  0  0  0  0  0  0  0  0  0  0  0
    3.9950    1.4440   -0.4920 N   0  0  0  0  0  0  0  0  0  0  0  0
    5.0140    2.2760    0.0400 C   0  0  0  0  0  0  0  0  0  0  0  0
    4.8840    3.5260    0.0240 O   0  0  0  0  0  0  0  0  0  0  0  0
    6.2210    1.7640    0.6120 N   0  0  0  0  0  0  0  0  0  0  0  0
    7.2120    2.6590    1.1390 C   0  0  0  0  0  0  0  0  0  0  0  0
    7.0100    3.8980    1.0950 O   0  0  0  0  0  0  0  0  0  0  0  0
    8.3870    2.2240    1.6990 O   0  0  0  0  0  0  0  0  0  0  0  0
    4.0870    0.0030   -0.4810 C   0  0  0  0  0  0  0  0  0  0  0  0
    3.7860   -0.6250    0.8340 C   0  0  0  0  0  0  0  0  0  0  0  0
    4.1490   -1.9290    1.0160 O   0  0  0  0  0  0  0  0  0  0  0  0
    4.0630   -3.0910    0.3500 C   0  0  0  0  0  0  0  0  0  0  0  0
    5.0530   -3.5920   -0.3160 O   0  0  0  0  0  0  0  0  0  0  0  0
    2.8590   -3.9100    0.3050 C   0  0  0  0  0  0  0  0  0  0  0  0
    2.9990   -5.2220    0.0910 C   0  0  0  0  0  0  0  0  0  0  0  0
    1.9040   -6.0870    0.0310 O   0  0  0  0  0  0  0  0  0  0  0  0
    1.4990   -3.3560    0.4920 C   0  0  0  0  0  0  0  0  0  0  0  0
    1.0880   -2.2190   -0.0620 N   0  0  0  0  0  0  0  0  0  0  0  0
   -0.1760   -2.0060    0.3020 C   0  0  0  0  0  0  0  0  0  0  0  0
   -0.5200   -3.0380    1.0870 N   0  0  0  0  0  0  0  0  0  0  0  0
    0.4970   -3.8350    1.1890 O   0  0  0  0  0  0  0  0  0  0  0  0
   -0.8780   -0.7820   -0.1830 C   0  0  2  0  0  0  0  0  0  0  0  0
   -1.3320   -0.8880   -1.5860 C   0  0  0  0  0  0  0  0  0  0  0  0
   -2.5410   -0.7920   -1.9040 O   0  0  0  0  0  0  0  0  0  0  0  0
   -0.4140   -1.0990   -2.5990 O   0  0  0  0  0  0  0  0  0  0  0  0
    0.0750    0.3870   -0.0760 C   0  0  0  0  0  0  0  0  0  0  0  0
   -2.0790   -0.4650    0.6840 C   0  0  0  0  0  0  0  0  0  0  0  0
   -6.7910    1.1950    1.0430 C   0  0  0  0  0  0  0  0  0  0  0  0
   -6.6240    1.1550    2.4500 N   0  0  0  0  0  0  0  0  0  0  0  0
   -7.2490    2.2260    0.5080 O   0  0  0  0  0  0  0  0  0  0  0  0
  1  2  1  0
  2  3  2  0
  2  4  1  0
  4  5  1  6
  4 41  1  0
  5  6  1  0
  6  7  2  0
  6  8  1  0
  8  9  1  0
  8 40  1  0
 10  9  1  1
 10 11  1  0
 10 39  1  0
 11 12  1  0
 12 13  2  0
 12 14  1  0
 14 15  1  0
 15 16  1  0
 15 22  1  0
 16 17  2  0
 16 18  1  0
 18 19  1  0
 19 20  2  0
 19 21  1  0
 22 23  1  0
 23 24  1  0
 24 25  1  0
 25 26  2  0
 25 27  1  0
 27 28  2  3
 27 30  1  0
 28 29  1  0
 30 31  2  0
 30 34  1  0
 31 32  1  0
 32 33  2  0
 32 35  1  0
 33 34  1  0
 35 36  1  6
 35 39  1  0
 35 40  1  0
 36 37  2  0
 36 38  1  0
 41 42  1  0
 41 43  2  0
M  END
