
     RDKit          3D

 17 18  0  0  0  0  0  0  0  0999 V2000
    3.7370   -2.2960   -0.3230 N   0  0  0  0  0  0  0  0  0  0  0  0
    3.9840   -1.5560    0.9220 C   0  0  0  0  0  0  0  0  0  0  0  0
    3.0800   -0.3580    0.9990 C   0  0  0  0  0  0  0  0  0  0  0  0
    3.2480    0.7000    2.3670 Cl  0  0  0  0  0  0  0  0  0  0  0  0
    2.2010   -0.1740    0.0490 C   0  0  0  0  0  0  0  0  0  0  0  0
    1.3140    0.9630    0.0510 C   0  0  0  0  0  0  0  0  0  0  0  0
    1.7340    2.2250    0.2520 N   0  0  0  0  0  0  0  0  0  0  0  0
    0.6900    3.0500    0.1590 C   0  0  0  0  0  0  0  0  0  0  0  0
    0.6590    4.4830    0.2890 N   0  0  0  0  0  0  0  0  0  0  0  0
   -0.4000    2.2810   -0.1040 N   0  0  0  0  0  0  0  0  0  0  0  0
   -0.0530    0.9850   -0.1760 C   0  0  0  0  0  0  0  0  0  0  0  0
   -0.9450   -0.2110   -0.3830 C   0  0  2  0  0  0  0  0  0  0  0  0
   -2.1680    0.2370   -1.0680 C   0  0  0  0  0  0  0  0  0  0  0  0
   -3.4240   -0.5480   -0.8360 C   0  0  0  0  0  0  0  0  0  0  0  0
   -3.0510   -1.8400   -0.1240 C   0  0  0  0  0  0  0  0  0  0  0  0
   -2.4990   -1.3920    1.2220 C   0  0  0  0  0  0  0  0  0  0  0  0
   -1.1720   -0.7630    0.9990 C   0  0  0  0  0  0  0  0  0  0  0  0
  1  2  1  0
  2  3  1  0
  3  4  1  0
  3  5  2  3
  5  6  1  0
  6  7  1  0
  6 11  2  0
  7  8  2  0
  8  9  1  0
  8 10  1  0
 10 11  1  0
 12 11  1  1
 12 13  1  0
 12 17  1  0
 13 14  1  0
 14 15  1  0
 15 16  1  0
 16 17  1  0
M  END
