
     RDKit          3D

 17 18  0  0  0  0  0  0  0  0999 V2000
    2.4640    1.1960    1.2020 N   0  0  0  0  0  0  0  0  0  0  0  0
    3.0190    0.0230    1.0910 C   0  0  0  0  0  0  0  0  0  0  0  0
    3.7600   -0.4830    2.1970 N   0  0  0  0  0  0  0  0  0  0  0  0
    2.8530   -0.6480   -0.1150 N   0  0  0  0  0  0  0  0  0  0  0  0
    1.6410   -0.7170   -0.8240 C   0  0  0  0  0  0  0  0  0  0  0  0
    1.5620   -1.2630   -2.0980 C   0  0  0  0  0  0  0  0  0  0  0  0
    0.3520   -1.3140   -2.7360 C   0  0  0  0  0  0  0  0  0  0  0  0
   -0.8170   -0.8400   -2.1680 C   0  0  0  0  0  0  0  0  0  0  0  0
   -0.7440   -0.2940   -0.8970 C   0  0  0  0  0  0  0  0  0  0  0  0
   -1.9200    0.2270   -0.2220 C   0  0  0  0  0  0  0  0  0  0  0  0
   -3.1300   -0.3490   -0.4660 C   0  0  0  0  0  0  0  0  0  0  0  0
   -4.2360    0.1240    0.1540 N   0  0  0  0  0  0  0  0  0  0  0  0
   -4.1820    1.1530    1.0120 C   0  0  0  0  0  0  0  0  0  0  0  0
   -2.9830    1.7630    1.2880 C   0  0  0  0  0  0  0  0  0  0  0  0
   -2.9030    3.0970    2.3980 Cl  0  0  0  0  0  0  0  0  0  0  0  0
   -1.8370    1.2900    0.6590 C   0  0  0  0  0  0  0  0  0  0  0  0
    0.4770   -0.2490   -0.2650 C   0  0  0  0  0  0  0  0  0  0  0  0
  1  2  2  0
  2  3  1  0
  2  4  1  0
  4  5  1  0
  5  6  2  0
  5 17  1  0
  6  7  1  0
  7  8  2  0
  8  9  1  0
  9 10  1  0
  9 17  2  0
 10 11  2  0
 10 16  1  0
 11 12  1  0
 12 13  2  0
 13 14  1  0
 14 15  1  0
 14 16  2  0
M  END
