
     RDKit          3D

 17 18  0  0  0  0  0  0  0  0999 V2000
   -3.1060    1.5370    0.9930 C   0  0  0  0  0  0  0  0  0  0  0  0
   -3.3400    0.7090   -0.2320 C   0  0  0  0  0  0  0  0  0  0  0  0
   -2.4660   -0.5600   -0.2660 C   0  0  2  0  0  0  0  0  0  0  0  0
   -1.0310   -0.3020   -0.2590 C   0  0  0  0  0  0  0  0  0  0  0  0
   -0.5960    0.9790   -0.1810 N   0  0  0  0  0  0  0  0  0  0  0  0
    0.6720    1.3660   -0.1460 C   0  0  0  0  0  0  0  0  0  0  0  0
    1.6370    0.3850   -0.1920 C   0  0  0  0  0  0  0  0  0  0  0  0
    3.0310    0.7950   -0.1480 C   0  0  0  0  0  0  0  0  0  0  0  0
    3.4580    1.9700   -0.8150 N   0  0  0  0  0  0  0  0  0  0  0  0
    3.9070    0.0720    0.5150 C   0  0  0  0  0  0  0  0  0  0  0  0
    5.3210    0.5090    0.5450 C   0  0  0  0  0  0  0  0  0  0  0  0
    3.3720   -1.3850    1.3410 Cl  0  0  0  0  0  0  0  0  0  0  0  0
    1.2670   -0.8990   -0.2700 N   0  0  0  0  0  0  0  0  0  0  0  0
   -0.0540   -1.2620   -0.3060 C   0  0  0  0  0  0  0  0  0  0  0  0
   -0.3480   -2.6370   -0.4180 N   0  0  0  0  0  0  0  0  0  0  0  0
   -3.1380   -1.7650   -0.7260 C   0  0  0  0  0  0  0  0  0  0  0  0
   -3.0030   -1.5620    0.7740 C   0  0  0  0  0  0  0  0  0  0  0  0
  1  2  1  0
  3  2  1  1
  3  4  1  0
  3 16  1  0
  3 17  1  0
  4  5  2  0
  4 14  1  0
  5  6  1  0
  6  7  2  0
  7  8  1  0
  7 13  1  0
  8  9  1  0
  8 10  2  3
 10 11  1  0
 10 12  1  0
 13 14  2  0
 14 15  1  0
 16 17  1  0
M  END
