
     RDKit          3D

 17 18  0  0  0  0  0  0  0  0999 V2000
    2.3430   -2.1220   -0.6450 N   0  0  0  0  0  0  0  0  0  0  0  0
    2.8810   -1.1090   -0.0690 C   0  0  0  0  0  0  0  0  0  0  0  0
    4.2810   -1.3210    0.3080 N   0  0  0  0  0  0  0  0  0  0  0  0
    2.2570    0.1540    0.2230 C   0  0  0  0  0  0  0  0  0  0  0  0
    1.0380    0.4680   -0.0660 C   0  0  0  0  0  0  0  0  0  0  0  0
    0.2030   -0.4820   -0.7350 N   0  0  0  0  0  0  0  0  0  0  0  0
   -1.1980   -0.6640   -0.4850 C   0  0  0  0  0  0  0  0  0  0  0  0
   -1.5640   -1.9450   -0.7870 C   0  0  0  0  0  0  0  0  0  0  0  0
   -2.8810   -2.3050   -0.6190 C   0  0  0  0  0  0  0  0  0  0  0  0
   -3.7920   -1.3620   -0.1520 C   0  0  0  0  0  0  0  0  0  0  0  0
   -3.4300   -0.0680    0.1540 C   0  0  0  0  0  0  0  0  0  0  0  0
   -2.0860    0.2810   -0.0220 C   0  0  0  0  0  0  0  0  0  0  0  0
   -1.8490    1.6400    0.3280 N   0  0  0  0  0  0  0  0  0  0  0  0
   -0.6830    2.2360    0.9090 C   0  0  0  0  0  0  0  0  0  0  0  0
    0.6050    1.8270    0.3460 C   0  0  0  0  0  0  0  0  0  0  0  0
    1.5280    2.7930    0.1740 C   0  0  0  0  0  0  0  0  0  0  0  0
    1.1200    4.4300    0.6290 Cl  0  0  0  0  0  0  0  0  0  0  0  0
  1  2  2  0
  2  3  1  0
  2  4  1  0
  4  5  2  3
  5  6  1  0
  5 15  1  0
  6  7  1  0
  7  8  2  0
  7 12  1  0
  8  9  1  0
  9 10  2  0
 10 11  1  0
 11 12  2  0
 12 13  1  0
 13 14  1  0
 14 15  1  0
 15 16  2  3
 16 17  1  0
M  END
