
     RDKit          3D

 17 18  0  0  0  0  0  0  0  0999 V2000
   -4.5720    1.0810    1.3080 C   0  0  0  0  0  0  0  0  0  0  0  0
   -3.5090    0.5990    0.7240 C   0  0  0  0  0  0  0  0  0  0  0  0
   -2.2990    1.0200    1.2400 N   0  0  0  0  0  0  0  0  0  0  0  0
   -1.1640    0.6190    0.7550 N   0  0  0  0  0  0  0  0  0  0  0  0
   -1.0630   -0.2290   -0.2760 C   0  0  0  0  0  0  0  0  0  0  0  0
    0.1470   -0.6960   -0.8410 N   0  0  0  0  0  0  0  0  0  0  0  0
    1.4400   -0.3520   -0.4080 C   0  0  0  0  0  0  0  0  0  0  0  0
    1.7660    0.4240    0.6700 C   0  0  0  0  0  0  0  0  0  0  0  0
    3.0940    0.7070    1.0030 C   0  0  0  0  0  0  0  0  0  0  0  0
    4.1570    0.2250    0.2730 C   0  0  0  0  0  0  0  0  0  0  0  0
    5.4950    0.5200    0.6240 N   0  0  0  0  0  0  0  0  0  0  0  0
    3.8370   -0.5580   -0.8150 C   0  0  0  0  0  0  0  0  0  0  0  0
    2.5310   -0.8340   -1.1400 C   0  0  0  0  0  0  0  0  0  0  0  0
   -2.2680   -0.6660   -0.8120 C   0  0  0  0  0  0  0  0  0  0  0  0
   -3.5120   -0.2640   -0.3260 C   0  0  0  0  0  0  0  0  0  0  0  0
   -4.5720   -0.7360   -0.9040 C   0  0  0  0  0  0  0  0  0  0  0  0
   -6.2110   -0.4050   -0.5060 Cl  0  0  0  0  0  0  0  0  0  0  0  0
  1  2  2  0
  2  3  1  0
  2 15  1  0
  3  4  2  0
  4  5  1  0
  5  6  1  0
  5 14  2  0
  6  7  1  0
  7  8  2  0
  7 13  1  0
  8  9  1  0
  9 10  2  0
 10 11  1  0
 10 12  1  0
 12 13  2  0
 14 15  1  0
 15 16  2  3
 16 17  1  0
M  END
