
     RDKit          3D

 17 18  0  0  0  0  0  0  0  0999 V2000
    2.7960   -0.3600   -0.9300 C   0  0  0  0  0  0  0  0  0  0  0  0
    2.1670   -0.5090    0.4630 C   0  0  0  0  0  0  0  0  0  0  0  0
    0.8070    0.0560    0.4300 C   0  0  0  0  0  0  0  0  0  0  0  0
    0.7590    1.4330    0.4380 C   0  0  0  0  0  0  0  0  0  0  0  0
    2.0110    2.1010    0.8200 C   0  0  0  0  0  0  0  0  0  0  0  0
   -0.2930    2.2170    0.1410 N   0  0  0  0  0  0  0  0  0  0  0  0
   -1.5310    1.8990   -0.3000 C   0  0  0  0  0  0  0  0  0  0  0  0
   -2.3240    2.8710   -0.5560 N   0  0  0  0  0  0  0  0  0  0  0  0
   -2.0840    0.6490   -0.5230 C   0  0  0  0  0  0  0  0  0  0  0  0
   -3.2830    0.3280   -1.0760 C   0  0  0  0  0  0  0  0  0  0  0  0
   -4.4400    1.5230   -1.6470 Cl  0  0  0  0  0  0  0  0  0  0  0  0
   -3.4190   -1.0140   -1.1060 N   0  0  0  0  0  0  0  0  0  0  0  0
   -2.3170   -1.6160   -0.5750 C   0  0  0  0  0  0  0  0  0  0  0  0
   -2.0920   -3.0060   -0.4400 N   0  0  0  0  0  0  0  0  0  0  0  0
   -1.4550   -0.6410   -0.1950 C   0  0  0  0  0  0  0  0  0  0  0  0
   -0.2170   -0.8570    0.3920 C   0  0  0  0  0  0  0  0  0  0  0  0
    0.0190   -2.1520    1.0270 C   0  0  0  0  0  0  0  0  0  0  0  0
  1  2  1  0
  2  3  1  0
  3  4  2  0
  3 16  1  0
  4  5  1  0
  4  6  1  0
  6  7  1  0
  7  8  2  0
  7  9  1  0
  9 10  2  0
  9 15  1  0
 10 11  1  0
 10 12  1  0
 12 13  2  0
 13 14  1  0
 13 15  1  0
 15 16  2  0
 16 17  1  0
M  END
