
     RDKit          3D

 17 18  0  0  0  0  0  0  0  0999 V2000
    4.1720    0.4230    0.6940 C   0  0  0  0  0  0  0  0  0  0  0  0
    3.2880   -0.5330   -0.0700 C   0  0  0  0  0  0  0  0  0  0  0  0
    2.0540    0.1460   -0.5820 C   0  0  0  0  0  0  0  0  0  0  0  0
    0.8160   -0.1940   -0.2700 C   0  0  0  0  0  0  0  0  0  0  0  0
   -0.0760    0.7130   -0.9770 C   0  0  0  0  0  0  0  0  0  0  0  0
   -1.3760    0.6630   -0.8980 N   0  0  0  0  0  0  0  0  0  0  0  0
   -2.0340   -0.3020   -0.0970 C   0  0  0  0  0  0  0  0  0  0  0  0
   -2.7440    0.1380    0.9940 C   0  0  0  0  0  0  0  0  0  0  0  0
   -2.7940    1.5260    1.2790 N   0  0  0  0  0  0  0  0  0  0  0  0
   -3.3800   -0.8170    1.7650 C   0  0  0  0  0  0  0  0  0  0  0  0
   -3.3060   -2.1580    1.4510 C   0  0  0  0  0  0  0  0  0  0  0  0
   -2.6000   -2.5760    0.3690 N   0  0  0  0  0  0  0  0  0  0  0  0
   -1.9670   -1.6430   -0.4000 C   0  0  0  0  0  0  0  0  0  0  0  0
   -1.2100   -2.0120   -1.5490 N   0  0  0  0  0  0  0  0  0  0  0  0
    0.7640    1.6110   -1.7290 C   0  0  0  0  0  0  0  0  0  0  0  0
    0.2200    2.9030   -2.7580 Cl  0  0  0  0  0  0  0  0  0  0  0  0
    2.0240    1.2800   -1.4990 C   0  0  0  0  0  0  0  0  0  0  0  0
  1  2  1  0
  2  3  1  0
  3  4  2  0
  3 17  1  0
  4  5  1  0
  5  6  2  3
  5 15  1  0
  6  7  1  0
  7  8  2  0
  7 13  1  0
  8  9  1  0
  8 10  1  0
 10 11  2  0
 11 12  1  0
 12 13  2  0
 13 14  1  0
 15 16  1  0
 15 17  2  0
M  END
