
     RDKit          3D

 33 36  0  0  0  0  0  0  0  0999 V2000
   -5.5820    0.2390   -3.7680 C   0  0  0  0  0  0  0  0  0  0  0  0
   -5.4700    0.7930   -2.3870 C   0  0  0  0  0  0  0  0  0  0  0  0
   -6.2920    1.8030   -1.9800 C   0  0  0  0  0  0  0  0  0  0  0  0
   -6.1560    2.2780   -0.7080 C   0  0  0  0  0  0  0  0  0  0  0  0
   -7.0240    3.3690   -0.2250 C   0  0  0  0  0  0  0  0  0  0  0  0
   -5.2000    1.7340    0.1370 C   0  0  0  0  0  0  0  0  0  0  0  0
   -4.3720    0.7270   -0.2500 C   0  0  0  0  0  0  0  0  0  0  0  0
   -3.3610    0.0760    0.6040 C   0  0  0  0  0  0  0  0  0  0  0  0
   -2.1930   -1.1360   -0.1070 S   0  0  0  0  0  0  0  0  0  0  0  0
   -1.3630   -1.4780    1.4070 C   0  0  0  0  0  0  0  0  0  0  0  0
   -0.2250   -2.4330    1.5830 C   0  0  0  0  0  0  0  0  0  0  0  0
    0.7920   -1.7810    2.3420 N   0  0  0  0  0  0  0  0  0  0  0  0
    1.9530   -2.5480    2.6050 C   0  0  0  0  0  0  0  0  0  0  0  0
    3.1130   -2.2690    1.6810 C   0  0  0  0  0  0  0  0  0  0  0  0
    3.2020   -0.8810    1.3470 N   0  0  0  0  0  0  0  0  0  0  0  0
    4.2200   -0.4710    0.4170 C   0  0  0  0  0  0  0  0  0  0  0  0
    4.2750    0.7500    0.1840 O   0  0  0  0  0  0  0  0  0  0  0  0
    5.0910   -1.4690   -0.1810 C   0  0  0  0  0  0  0  0  0  0  0  0
    6.4030   -1.0380   -0.6990 C   0  0  0  0  0  0  0  0  0  0  0  0
    6.3400   -0.0370   -1.7260 N   0  0  0  0  0  0  0  0  0  0  0  0
    6.4630    1.3690   -1.6830 C   0  0  0  0  0  0  0  0  0  0  0  0
    6.7160    2.0850   -0.6550 O   0  0  0  0  0  0  0  0  0  0  0  0
    6.2740    1.9460   -2.9790 N   0  0  0  0  0  0  0  0  0  0  0  0
    6.0200    0.8920   -3.8930 C   0  0  0  0  0  0  0  0  0  0  0  0
    5.8040    0.9750   -5.1240 O   0  0  0  0  0  0  0  0  0  0  0  0
    6.0620   -0.3550   -3.1130 C   0  0  0  0  0  0  0  0  0  0  0  0
    5.8800   -1.5040   -3.5870 O   0  0  0  0  0  0  0  0  0  0  0  0
    2.3060    0.1100    1.9030 C   0  0  0  0  0  0  0  0  0  0  0  0
    0.9260   -0.4020    2.1870 C   0  0  0  0  0  0  0  0  0  0  0  0
   -2.0090   -0.6820    2.2980 C   0  0  0  0  0  0  0  0  0  0  0  0
   -3.0160    0.1000    1.8850 C   0  0  0  0  0  0  0  0  0  0  0  0
   -3.7660    0.9950    2.8800 C   0  0  0  0  0  0  0  0  0  0  0  0
   -4.5120    0.2480   -1.5400 C   0  0  0  0  0  0  0  0  0  0  0  0
  1  2  1  0
  2  3  2  0
  2 33  1  0
  3  4  1  0
  4  5  1  0
  4  6  2  0
  6  7  1  0
  7  8  1  0
  7 33  2  0
  8  9  1  0
  8 31  2  0
  9 10  1  0
 10 11  1  0
 10 30  2  0
 11 12  1  0
 12 13  1  0
 12 29  1  0
 13 14  1  0
 14 15  1  0
 15 16  1  0
 15 28  1  0
 16 17  2  0
 16 18  1  0
 18 19  1  0
 19 20  1  0
 20 21  1  0
 20 26  1  0
 21 22  2  0
 21 23  1  0
 23 24  1  0
 24 25  2  0
 24 26  1  0
 26 27  2  0
 28 29  1  0
 30 31  1  0
 31 32  1  0
M  END
