
     RDKit          3D

 33 36  0  0  0  0  0  0  0  0999 V2000
   -7.0130   -0.6420    1.5170 C   0  0  0  0  0  0  0  0  0  0  0  0
   -5.6690   -0.5240    1.1570 O   0  0  0  0  0  0  0  0  0  0  0  0
   -4.8630   -1.5440    0.7050 C   0  0  0  0  0  0  0  0  0  0  0  0
   -5.3450   -2.8270    0.5650 C   0  0  0  0  0  0  0  0  0  0  0  0
   -4.5470   -3.8570    0.1140 C   0  0  0  0  0  0  0  0  0  0  0  0
   -3.2570   -3.5520   -0.1910 C   0  0  0  0  0  0  0  0  0  0  0  0
   -2.7620   -2.2610   -0.0540 C   0  0  0  0  0  0  0  0  0  0  0  0
   -3.5340   -1.2160    0.3940 C   0  0  0  0  0  0  0  0  0  0  0  0
   -3.0980    0.1080    0.5490 N   0  0  0  0  0  0  0  0  0  0  0  0
   -1.7590    0.5210    0.2970 C   0  0  0  0  0  0  0  0  0  0  0  0
   -0.8420   -0.2130    0.8350 N   0  0  0  0  0  0  0  0  0  0  0  0
    0.5350    0.1080    0.6650 C   0  0  0  0  0  0  0  0  0  0  0  0
    1.8280   -0.9090    1.4010 S   0  0  0  0  0  0  0  0  0  0  0  0
    3.4340   -0.2380    1.0030 C   0  0  0  0  0  0  0  0  0  0  0  0
    4.4920   -1.0840    1.6120 C   0  0  0  0  0  0  0  0  0  0  0  0
    4.1290   -2.0940    2.2750 O   0  0  0  0  0  0  0  0  0  0  0  0
    5.8640   -0.8160    1.4860 N   0  0  0  0  0  0  0  0  0  0  0  0
    6.8370   -1.6840    2.1030 C   0  0  0  0  0  0  0  0  0  0  0  0
    8.2010   -1.0660    1.8900 C   0  0  0  0  0  0  0  0  0  0  0  0
    8.3840   -0.9220    0.5180 O   0  0  0  0  0  0  0  0  0  0  0  0
    7.5980    0.0950   -0.0120 C   0  0  1  0  0  0  0  0  0  0  0  0
    7.3290   -0.1400   -1.5000 C   0  0  0  0  0  0  0  0  0  0  0  0
    6.3380    0.3290    0.7430 C   0  0  0  0  0  0  0  0  0  0  0  0
    0.8570    1.1450   -0.0310 N   0  0  0  0  0  0  0  0  0  0  0  0
   -0.0380    2.0180   -0.6600 C   0  0  0  0  0  0  0  0  0  0  0  0
    0.2800    3.0200   -1.3280 O   0  0  0  0  0  0  0  0  0  0  0  0
   -1.4990    1.7140   -0.5100 C   0  0  0  0  0  0  0  0  0  0  0  0
   -2.3780    2.3890   -1.1410 C   0  0  0  0  0  0  0  0  0  0  0  0
   -3.7910    2.2270   -1.2830 C   0  0  0  0  0  0  0  0  0  0  0  0
   -4.5220    3.1180   -2.0060 C   0  0  0  0  0  0  0  0  0  0  0  0
   -5.9620    2.9330   -2.1370 C   0  0  0  0  0  0  0  0  0  0  0  0
   -3.8120    4.2440   -2.6310 C   0  0  0  0  0  0  0  0  0  0  0  0
   -3.6590   -4.9690   -0.3820 C   0  0  0  0  0  0  0  0  0  0  0  0
  1  2  1  0
  2  3  1  0
  3  4  2  0
  3  8  1  0
  4  5  1  0
  5  6  2  0
  5 33  1  0
  6  7  1  0
  6 33  1  0
  7  8  2  0
  8  9  1  0
  9 10  1  0
 10 11  2  0
 10 27  1  0
 11 12  1  0
 12 13  1  0
 12 24  2  0
 13 14  1  0
 14 15  1  0
 15 16  2  0
 15 17  1  0
 17 18  1  0
 17 23  1  0
 18 19  1  0
 19 20  1  0
 20 21  1  0
 21 22  1  6
 21 23  1  0
 24 25  1  0
 25 26  2  0
 25 27  1  0
 27 28  2  3
 28 29  1  0
 29 30  2  3
 30 31  1  0
 30 32  1  0
M  END
