
     RDKit          3D

 33 36  0  0  0  0  0  0  0  0999 V2000
   -3.3600   -3.2930    1.3800 C   0  0  0  0  0  0  0  0  0  0  0  0
   -2.4190   -4.0710    0.5820 N   0  0  0  0  0  0  0  0  0  0  0  0
   -1.2680   -3.4520    0.0180 C   0  0  0  0  0  0  0  0  0  0  0  0
   -1.0520   -2.1000    0.2230 C   0  0  0  0  0  0  0  0  0  0  0  0
    0.0350   -1.4470   -0.2810 C   0  0  0  0  0  0  0  0  0  0  0  0
    0.3110   -0.0340   -0.1010 N   0  0  0  0  0  0  0  0  0  0  0  0
   -0.7420    0.9160   -0.3130 C   0  0  0  0  0  0  0  0  0  0  0  0
   -1.5860    1.1650    0.9010 C   0  0  0  0  0  0  0  0  0  0  0  0
   -1.3410    0.6430    1.9970 O   0  0  0  0  0  0  0  0  0  0  0  0
   -2.6960    2.0190    0.7700 N   0  0  0  0  0  0  0  0  0  0  0  0
   -2.9500    2.6690   -0.5010 C   0  0  0  0  0  0  0  0  0  0  0  0
   -4.3560    3.2050   -0.4740 C   0  0  0  0  0  0  0  0  0  0  0  0
   -4.6130    4.0900    0.5440 O   0  0  0  0  0  0  0  0  0  0  0  0
   -4.0410    3.7320    1.7680 C   0  0  0  0  0  0  0  0  0  0  0  0
   -3.6620    2.2870    1.8170 C   0  0  0  0  0  0  0  0  0  0  0  0
    1.5800    0.3280    0.3520 C   0  0  0  0  0  0  0  0  0  0  0  0
    2.2270   -0.7250    0.8740 O   0  0  0  0  0  0  0  0  0  0  0  0
    2.3830    1.4830    0.4410 C   0  0  0  0  0  0  0  0  0  0  0  0
    1.9320    2.0000   -1.1150 C   0  0  0  0  0  0  0  0  0  0  0  0
    2.7290    3.4490   -1.3990 S   0  0  0  0  0  0  0  0  0  0  0  0
    3.5970    3.4200    0.3380 C   0  0  0  0  0  0  0  0  0  0  0  0
    4.5120    4.5570    0.6650 C   0  0  1  0  0  0  0  0  0  0  0  0
    4.9570    4.3720    2.0860 C   0  0  0  0  0  0  0  0  0  0  0  0
    5.7860    4.4430   -0.1910 C   0  0  0  0  0  0  0  0  0  0  0  0
    3.0760    2.4850    0.5160 N   0  0  0  0  0  0  0  0  0  0  0  0
    0.9110   -2.2080   -1.0110 C   0  0  0  0  0  0  0  0  0  0  0  0
    0.7110   -3.5660   -1.2310 C   0  0  0  0  0  0  0  0  0  0  0  0
   -0.3850   -4.2130   -0.7190 C   0  0  0  0  0  0  0  0  0  0  0  0
   -0.6230   -5.6390   -0.9430 C   0  0  0  0  0  0  0  0  0  0  0  0
    0.3190   -6.3890   -1.7590 C   0  0  0  0  0  0  0  0  0  0  0  0
    1.2530   -5.6120   -2.6650 C   0  0  0  0  0  0  0  0  0  0  0  0
    1.6550   -4.3470   -2.0220 C   0  0  0  0  0  0  0  0  0  0  0  0
    2.8260   -3.9310   -2.1530 O   0  0  0  0  0  0  0  0  0  0  0  0
  1  2  1  0
  2  3  1  0
  3  4  2  0
  3 28  1  0
  4  5  1  0
  5  6  1  0
  5 26  2  0
  6  7  1  0
  6 16  1  0
  7  8  1  0
  8  9  2  0
  8 10  1  0
 10 11  1  0
 10 15  1  0
 11 12  1  0
 12 13  1  0
 13 14  1  0
 14 15  1  0
 16 17  2  0
 16 18  1  0
 18 19  2  0
 18 25  1  0
 19 20  1  0
 20 21  1  0
 21 22  1  0
 21 25  2  0
 22 23  1  1
 22 24  1  0
 26 27  1  0
 27 28  2  0
 27 32  1  0
 28 29  1  0
 29 30  1  0
 30 31  1  0
 31 32  1  0
 32 33  2  0
M  END
