
     RDKit          3D

 26 28  0  0  0  0  0  0  0  0999 V2000
   -0.2650    0.5130    1.8850 C   0  0  0  0  0  0  0  0  0  0  0  0
   -1.1930    0.0580    0.8500 C   0  0  0  0  0  0  0  0  0  0  0  0
   -0.9840   -0.5090   -0.2600 C   0  0  0  0  0  0  0  0  0  0  0  0
    0.2430   -0.9040   -0.8920 C   0  0  0  0  0  0  0  0  0  0  0  0
    0.1080   -1.4730   -2.0510 O   0  0  0  0  0  0  0  0  0  0  0  0
    1.5520   -0.7460   -0.4040 N   0  0  0  0  0  0  0  0  0  0  0  0
    2.7510   -1.1520   -1.0640 C   0  0  0  0  0  0  0  0  0  0  0  0
    2.8090   -1.7480   -2.2940 C   0  0  0  0  0  0  0  0  0  0  0  0
    4.0100   -2.1290   -2.9110 C   0  0  0  0  0  0  0  0  0  0  0  0
    5.1990   -1.9110   -2.2830 C   0  0  0  0  0  0  0  0  0  0  0  0
    5.1770   -1.3120   -1.0410 C   0  0  0  0  0  0  0  0  0  0  0  0
    6.3900   -1.0840   -0.3880 C   0  0  0  0  0  0  0  0  0  0  0  0
    6.4420   -0.4910    0.8510 C   0  0  0  0  0  0  0  0  0  0  0  0
    5.2640   -0.1190    1.4520 C   0  0  0  0  0  0  0  0  0  0  0  0
    4.0260   -0.3380    0.8140 C   0  0  0  0  0  0  0  0  0  0  0  0
    3.9860   -0.9300   -0.4230 C   0  0  0  0  0  0  0  0  0  0  0  0
   -2.6080    0.3120    1.1750 N   0  0  0  0  0  0  0  0  0  0  0  0
   -3.2750    0.8940    0.2230 C   0  0  0  0  0  0  0  0  0  0  0  0
   -4.6830    1.1770    0.4730 C   0  0  0  0  0  0  0  0  0  0  0  0
   -5.2220    0.8430    1.6310 C   0  0  0  0  0  0  0  0  0  0  0  0
   -6.6190    1.1270    1.8730 C   0  0  0  0  0  0  0  0  0  0  0  0
   -7.3850    1.7250    0.9470 C   0  0  0  0  0  0  0  0  0  0  0  0
   -6.8410    2.0800   -0.2640 O   0  0  0  0  0  0  0  0  0  0  0  0
   -5.4900    1.8220   -0.5400 C   0  0  0  0  0  0  0  0  0  0  0  0
   -5.0410    2.1850   -1.7070 C   0  0  0  0  0  0  0  0  0  0  0  0
   -6.1050    2.9590   -2.8570 Cl  0  0  0  0  0  0  0  0  0  0  0  0
  1  2  1  0
  2  3  2  3
  2 17  1  0
  3  4  1  0
  4  5  2  0
  4  6  1  0
  6  7  1  0
  7  8  2  0
  7 16  1  0
  8  9  1  0
  9 10  2  0
 10 11  1  0
 11 12  2  0
 11 16  1  0
 12 13  1  0
 13 14  2  0
 14 15  1  0
 15 16  2  0
 17 18  2  3
 18 19  1  0
 19 20  2  0
 19 24  1  0
 20 21  1  0
 21 22  2  0
 22 23  1  0
 23 24  1  0
 24 25  2  3
 25 26  1  0
M  END
