
     RDKit          3D

 26 29  0  0  0  0  0  0  0  0999 V2000
    6.1190    1.0100    0.7890 C   0  0  0  0  0  0  0  0  0  0  0  0
    5.9310    0.6020   -0.5160 O   0  0  0  0  0  0  0  0  0  0  0  0
    4.8260   -0.1960   -0.6520 C   0  0  0  0  0  0  0  0  0  0  0  0
    3.5280    0.4330   -0.2610 C   0  0  0  0  0  0  0  0  0  0  0  0
    2.3990   -0.4930   -0.4430 N   0  0  0  0  0  0  0  0  0  0  0  0
    1.1220   -0.0160   -0.1310 C   0  0  0  0  0  0  0  0  0  0  0  0
    0.9620    1.2270    0.4160 N   0  0  0  0  0  0  0  0  0  0  0  0
   -0.2310    1.7160    0.7870 C   0  0  0  0  0  0  0  0  0  0  0  0
   -0.3470    2.9400    1.4320 C   0  0  0  0  0  0  0  0  0  0  0  0
   -1.5590    3.3920    1.9010 C   0  0  0  0  0  0  0  0  0  0  0  0
   -1.6320    4.9610    2.6990 Cl  0  0  0  0  0  0  0  0  0  0  0  0
   -2.6960    2.6230    1.7400 C   0  0  0  0  0  0  0  0  0  0  0  0
   -2.6420    1.3910    1.1010 C   0  0  0  0  0  0  0  0  0  0  0  0
   -1.4270    0.9860    0.6390 C   0  0  0  0  0  0  0  0  0  0  0  0
   -1.2690   -0.2330    0.0830 C   0  0  0  0  0  0  0  0  0  0  0  0
   -0.0060   -0.7640   -0.3000 C   0  0  0  0  0  0  0  0  0  0  0  0
    0.2180   -2.0590   -0.7340 C   0  0  0  0  0  0  0  0  0  0  0  0
    1.1880   -2.1780   -1.4810 O   0  0  0  0  0  0  0  0  0  0  0  0
   -0.5860   -3.1570   -0.3610 C   0  0  0  0  0  0  0  0  0  0  0  0
   -1.9280   -3.1810   -0.0080 C   0  0  0  0  0  0  0  0  0  0  0  0
   -2.7910   -2.1220   -0.2420 C   0  0  0  0  0  0  0  0  0  0  0  0
   -4.0470   -2.5100   -0.6420 C   0  0  0  0  0  0  0  0  0  0  0  0
   -4.9480   -1.5670   -1.0780 C   0  0  0  0  0  0  0  0  0  0  0  0
   -4.6050   -0.2080   -1.1230 C   0  0  0  0  0  0  0  0  0  0  0  0
   -3.3310    0.2310   -0.7210 C   0  0  0  0  0  0  0  0  0  0  0  0
   -2.4980   -0.7590   -0.2950 C   0  0  0  0  0  0  0  0  0  0  0  0
  1  2  1  0
  2  3  1  0
  3  4  1  0
  4  5  1  0
  5  6  1  0
  6  7  2  0
  6 16  1  0
  7  8  1  0
  8  9  2  0
  8 14  1  0
  9 10  1  0
 10 11  1  0
 10 12  2  0
 12 13  1  0
 13 14  2  0
 14 15  1  0
 15 16  2  0
 15 26  1  0
 16 17  1  0
 17 18  2  0
 17 19  1  0
 19 20  2  0
 20 21  1  0
 21 22  2  0
 21 26  1  0
 22 23  1  0
 23 24  2  0
 24 25  1  0
 25 26  2  0
M  END
