
     RDKit          3D

 26 28  0  0  0  0  0  0  0  0999 V2000
   -4.8190   -1.5960   -1.3430 C   0  0  0  0  0  0  0  0  0  0  0  0
   -4.0640   -0.8830   -0.5560 C   0  0  0  0  0  0  0  0  0  0  0  0
   -2.9000   -1.5320    0.0940 C   0  0  0  0  0  0  0  0  0  0  0  0
   -1.9170   -0.9370    0.8300 C   0  0  0  0  0  0  0  0  0  0  0  0
   -0.8870   -1.7130    1.3830 C   0  0  0  0  0  0  0  0  0  0  0  0
    0.0470   -1.3920    2.1850 C   0  0  0  0  0  0  0  0  0  0  0  0
    0.3690    0.1590    2.9100 Cl  0  0  0  0  0  0  0  0  0  0  0  0
   -1.8180    0.5080    0.9180 C   0  0  0  0  0  0  0  0  0  0  0  0
   -0.7640    1.0720    0.4130 C   0  0  0  0  0  0  0  0  0  0  0  0
    0.3910    0.5620   -0.2650 C   0  0  0  0  0  0  0  0  0  0  0  0
    1.6280    1.1130   -0.0500 C   0  0  0  0  0  0  0  0  0  0  0  0
    2.7780    0.6730   -0.6860 C   0  0  0  0  0  0  0  0  0  0  0  0
    4.0290    1.2130   -0.4760 C   0  0  0  0  0  0  0  0  0  0  0  0
    5.1280    0.7230   -1.1360 C   0  0  0  0  0  0  0  0  0  0  0  0
    6.3590    1.2630   -0.9210 O   0  0  0  0  0  0  0  0  0  0  0  0
    6.5830    2.3260   -0.0420 C   0  0  0  0  0  0  0  0  0  0  0  0
    5.0070   -0.3240   -2.0270 C   0  0  0  0  0  0  0  0  0  0  0  0
    3.7650   -0.8600   -2.2360 C   0  0  0  0  0  0  0  0  0  0  0  0
    2.6330   -0.3720   -1.5710 C   0  0  0  0  0  0  0  0  0  0  0  0
    1.3920   -0.9210   -1.7830 C   0  0  0  0  0  0  0  0  0  0  0  0
    1.3140   -1.8710   -2.5990 O   0  0  0  0  0  0  0  0  0  0  0  0
    0.2920   -0.4450   -1.1270 N   0  0  0  0  0  0  0  0  0  0  0  0
   -2.8980    1.4350    1.4010 C   0  0  0  0  0  0  0  0  0  0  0  0
   -4.1960    0.9010    1.0300 N   0  0  0  0  0  0  0  0  0  0  0  0
   -4.6890   -0.0680    1.9750 C   0  0  0  0  0  0  0  0  0  0  0  0
   -4.3880    0.5620   -0.3260 C   0  0  0  0  0  0  0  0  0  0  0  0
  1  2  2  0
  2  3  1  0
  2 26  1  0
  3  4  2  0
  4  5  1  0
  4  8  1  0
  5  6  2  3
  6  7  1  0
  8  9  2  3
  8 23  1  0
  9 10  1  0
 10 11  2  0
 10 22  1  0
 11 12  1  0
 12 13  2  0
 12 19  1  0
 13 14  1  0
 14 15  1  0
 14 17  2  0
 15 16  1  0
 17 18  1  0
 18 19  2  0
 19 20  1  0
 20 21  2  0
 20 22  1  0
 23 24  1  0
 24 25  1  0
 24 26  1  0
M  END
