
     RDKit          3D

 23 24  0  0  0  0  0  0  0  0999 V2000
    4.2010    0.9030   -2.0740 C   0  0  0  0  0  0  0  0  0  0  0  0
    3.1820    0.5520   -1.0500 C   0  0  0  0  0  0  0  0  0  0  0  0
    1.8550    0.5790   -1.3490 C   0  0  0  0  0  0  0  0  0  0  0  0
    0.8830    0.2540   -0.4040 C   0  0  0  0  0  0  0  0  0  0  0  0
   -0.4750    0.2870   -0.7650 N   0  0  0  0  0  0  0  0  0  0  0  0
   -1.6000    0.1810    0.0520 C   0  0  0  0  0  0  0  0  0  0  0  0
   -1.4620    0.0370    1.2890 O   0  0  0  0  0  0  0  0  0  0  0  0
   -2.9900    0.2350   -0.5300 C   0  0  2  0  0  0  0  0  0  0  0  0
   -2.8740    0.4000   -1.9000 O   0  0  0  0  0  0  0  0  0  0  0  0
   -3.6900    1.3770    0.1500 C   0  0  0  0  0  0  0  0  0  0  0  0
   -5.1780    1.1630    0.2930 C   0  0  0  0  0  0  0  0  0  0  0  0
   -5.5050   -0.1190    1.0170 C   0  0  1  0  0  0  0  0  0  0  0  0
   -6.5660   -0.7600    0.3740 O   0  0  0  0  0  0  0  0  0  0  0  0
   -4.3000   -1.0260    1.1310 C   0  0  0  0  0  0  0  0  0  0  0  0
   -3.6360   -1.0940   -0.2170 C   0  0  1  0  0  0  0  0  0  0  0  0
   -4.5740   -1.4810   -1.1460 O   0  0  0  0  0  0  0  0  0  0  0  0
    1.3100   -0.0930    0.8360 C   0  0  0  0  0  0  0  0  0  0  0  0
    2.6590   -0.1320    1.1790 C   0  0  0  0  0  0  0  0  0  0  0  0
    3.6390    0.1940    0.2340 C   0  0  0  0  0  0  0  0  0  0  0  0
    4.9100    0.1730    0.5050 O   0  0  0  0  0  0  0  0  0  0  0  0
    6.1530    0.1390    0.8190 C   0  0  0  0  0  0  0  0  0  0  0  0
    6.6800   -1.2460    1.2860 C   0  0  0  0  0  0  0  0  0  0  0  0
    5.9880   -1.6610    2.4070 O   0  0  0  0  0  0  0  0  0  0  0  0
  1  2  1  0
  2  3  2  0
  2 19  1  0
  3  4  1  0
  4  5  1  0
  4 17  2  0
  5  6  1  0
  6  7  2  0
  6  8  1  0
  8  9  1  6
  8 10  1  0
  8 15  1  0
 10 11  1  0
 11 12  1  0
 12 13  1  6
 12 14  1  0
 14 15  1  0
 15 16  1  6
 17 18  1  0
 18 19  2  0
 19 20  1  0
 20 21  1  0
 21 22  1  0
 22 23  1  0
M  END
