
     RDKit          3D

 26 29  0  0  0  0  0  0  0  0999 V2000
   -3.2390   -2.8140   -0.0150 C   0  0  0  0  0  0  0  0  0  0  0  0
   -4.2260   -1.7480    0.3020 C   0  0  0  0  0  0  0  0  0  0  0  0
   -5.9370   -2.1830    0.4890 Cl  0  0  0  0  0  0  0  0  0  0  0  0
   -3.8590   -0.4900    0.4460 C   0  0  0  0  0  0  0  0  0  0  0  0
   -2.4840   -0.0110    0.3190 C   0  0  0  0  0  0  0  0  0  0  0  0
   -1.4490   -0.6600    0.9300 C   0  0  0  0  0  0  0  0  0  0  0  0
   -0.1120   -0.2380    0.8210 C   0  0  0  0  0  0  0  0  0  0  0  0
    0.9080   -0.9350    1.5620 C   0  0  0  0  0  0  0  0  0  0  0  0
    0.4670   -1.7440    2.4950 O   0  0  0  0  0  0  0  0  0  0  0  0
    2.2860   -0.8980    1.4660 N   0  0  0  0  0  0  0  0  0  0  0  0
    3.2180   -1.5900    2.4150 C   0  0  0  0  0  0  0  0  0  0  0  0
    4.1430   -0.3530    2.6140 C   0  0  0  0  0  0  0  0  0  0  0  0
    4.3200   -0.0010    1.1470 C   0  0  0  0  0  0  0  0  0  0  0  0
    3.2090   -0.3400    0.5140 C   0  0  0  0  0  0  0  0  0  0  0  0
    3.3600   -0.0480   -0.9060 C   0  0  0  0  0  0  0  0  0  0  0  0
    2.3450   -0.3330   -1.9590 C   0  0  0  0  0  0  0  0  0  0  0  0
    4.5470    0.4720   -1.1290 C   0  0  0  0  0  0  0  0  0  0  0  0
    5.2550    0.5560    0.1530 C   0  0  0  0  0  0  0  0  0  0  0  0
    0.0610    0.8830    0.0500 C   0  0  0  0  0  0  0  0  0  0  0  0
   -0.9460    1.5240   -0.5520 N   0  0  0  0  0  0  0  0  0  0  0  0
   -2.2330    1.1100   -0.4430 C   0  0  0  0  0  0  0  0  0  0  0  0
   -3.3080    1.8280   -1.1230 C   0  0  0  0  0  0  0  0  0  0  0  0
   -3.0940    2.9780   -1.8950 C   0  0  0  0  0  0  0  0  0  0  0  0
   -4.3250    3.3740   -2.3730 C   0  0  0  0  0  0  0  0  0  0  0  0
   -5.2370    2.4650   -1.8840 C   0  0  0  0  0  0  0  0  0  0  0  0
   -4.5890    1.5860   -1.1620 O   0  0  0  0  0  0  0  0  0  0  0  0
  1  2  1  0
  2  3  1  0
  2  4  2  3
  4  5  1  0
  5  6  2  0
  5 21  1  0
  6  7  1  0
  7  8  1  0
  7 19  2  0
  8  9  2  0
  8 10  1  0
 10 11  1  0
 10 14  1  0
 11 12  1  0
 12 13  1  0
 13 14  2  0
 13 18  1  0
 14 15  1  0
 15 16  1  0
 15 17  2  0
 17 18  1  0
 19 20  1  0
 20 21  2  0
 21 22  1  0
 22 23  2  0
 22 26  1  0
 23 24  1  0
 24 25  2  0
 25 26  1  0
M  END
