
     RDKit          3D

 26 29  0  0  0  0  0  0  0  0999 V2000
    6.4360   -1.2610   -1.3520 C   0  0  0  0  0  0  0  0  0  0  0  0
    5.6790   -1.1110   -0.0670 C   0  0  0  0  0  0  0  0  0  0  0  0
    4.3760   -1.0890   -0.1180 C   0  0  0  0  0  0  0  0  0  0  0  0
    3.5810   -1.1950   -1.3150 C   0  0  0  0  0  0  0  0  0  0  0  0
    2.3810   -0.6380   -1.3590 C   0  0  0  0  0  0  0  0  0  0  0  0
    1.4540   -0.6180   -2.3970 O   0  0  0  0  0  0  0  0  0  0  0  0
    0.3660    0.1020   -1.9130 C   0  0  0  0  0  0  0  0  0  0  0  0
   -0.6690    0.3200   -2.5970 O   0  0  0  0  0  0  0  0  0  0  0  0
    0.6580    0.5270   -0.5320 C   0  0  0  0  0  0  0  0  0  0  0  0
   -0.3070    1.3270    0.2340 C   0  0  0  0  0  0  0  0  0  0  0  0
    0.0960    2.4400    0.9380 C   0  0  0  0  0  0  0  0  0  0  0  0
   -0.8260    3.1880    1.6840 C   0  0  0  0  0  0  0  0  0  0  0  0
   -2.1470    2.8190    1.7220 C   0  0  0  0  0  0  0  0  0  0  0  0
   -3.3190    3.7470    2.6510 Cl  0  0  0  0  0  0  0  0  0  0  0  0
   -2.5310    1.6800    0.9950 C   0  0  0  0  0  0  0  0  0  0  0  0
   -3.8710    1.2600    1.0440 N   0  0  0  0  0  0  0  0  0  0  0  0
   -4.4420    0.1570    0.3810 C   0  0  0  0  0  0  0  0  0  0  0  0
   -3.8650   -0.4290   -0.7020 C   0  0  0  0  0  0  0  0  0  0  0  0
   -4.4310   -1.5520   -1.3410 C   0  0  0  0  0  0  0  0  0  0  0  0
   -5.6020   -2.0810   -0.8690 C   0  0  0  0  0  0  0  0  0  0  0  0
   -6.1800   -1.4810    0.2260 C   0  0  0  0  0  0  0  0  0  0  0  0
   -5.6460   -0.3910    0.8610 C   0  0  0  0  0  0  0  0  0  0  0  0
   -1.6070    1.0040    0.3000 N   0  0  0  0  0  0  0  0  0  0  0  0
    1.8430    0.0870   -0.2170 C   0  0  0  0  0  0  0  0  0  0  0  0
    2.6170    0.2160    1.0380 C   0  0  0  0  0  0  0  0  0  0  0  0
    3.5990   -0.9340    1.1690 C   0  0  0  0  0  0  0  0  0  0  0  0
  1  2  1  0
  2  3  2  3
  3  4  1  0
  3 26  1  0
  4  5  2  0
  5  6  1  0
  5 24  1  0
  6  7  1  0
  7  8  2  0
  7  9  1  0
  9 10  1  0
  9 24  2  0
 10 11  2  0
 10 23  1  0
 11 12  1  0
 12 13  2  0
 13 14  1  0
 13 15  1  0
 15 16  1  0
 15 23  2  0
 16 17  1  0
 17 18  2  0
 17 22  1  0
 18 19  1  0
 19 20  2  0
 20 21  1  0
 21 22  2  0
 24 25  1  0
 25 26  1  0
M  END
