
     RDKit          3D

 26 29  0  0  0  0  0  0  0  0999 V2000
   -6.5790   -1.1800   -1.4370 C   0  0  0  0  0  0  0  0  0  0  0  0
   -6.4340   -0.4550   -0.1610 N   0  0  0  0  0  0  0  0  0  0  0  0
   -7.6450   -0.1130    0.5210 C   0  0  0  0  0  0  0  0  0  0  0  0
   -5.1340   -0.1640    0.2680 C   0  0  0  0  0  0  0  0  0  0  0  0
   -4.0360   -0.5390   -0.5050 C   0  0  0  0  0  0  0  0  0  0  0  0
   -2.7310   -0.2870   -0.1510 C   0  0  0  0  0  0  0  0  0  0  0  0
   -1.5570   -0.5300   -0.6890 O   0  0  0  0  0  0  0  0  0  0  0  0
   -0.6020   -0.0680    0.0770 C   0  0  0  0  0  0  0  0  0  0  0  0
    0.8550   -0.1560   -0.2020 C   0  0  0  0  0  0  0  0  0  0  0  0
    1.2360   -0.7140   -1.2510 O   0  0  0  0  0  0  0  0  0  0  0  0
    1.8000    0.3740    0.6910 N   0  0  0  0  0  0  0  0  0  0  0  0
    3.2040    0.3650    0.5600 C   0  0  0  0  0  0  0  0  0  0  0  0
    3.9600    0.9570    1.5790 C   0  0  0  0  0  0  0  0  0  0  0  0
    5.3280    1.0040    1.5550 C   0  0  0  0  0  0  0  0  0  0  0  0
    6.0390    0.4630    0.5100 C   0  0  0  0  0  0  0  0  0  0  0  0
    7.4170    0.5310    0.5230 C   0  0  0  0  0  0  0  0  0  0  0  0
    8.1050   -0.0140   -0.5260 C   0  0  0  0  0  0  0  0  0  0  0  0
    7.4110   -0.6200   -1.5770 C   0  0  0  0  0  0  0  0  0  0  0  0
    6.0250   -0.6670   -1.5510 C   0  0  0  0  0  0  0  0  0  0  0  0
    5.3230   -0.1200   -0.4960 C   0  0  0  0  0  0  0  0  0  0  0  0
    3.9250   -0.1670   -0.4680 C   0  0  0  0  0  0  0  0  0  0  0  0
   -1.1710    0.5150    1.1880 C   0  0  0  0  0  0  0  0  0  0  0  0
   -2.5150    0.3750    1.0420 C   0  0  0  0  0  0  0  0  0  0  0  0
   -3.5560    0.7590    1.8270 C   0  0  0  0  0  0  0  0  0  0  0  0
   -4.8500    0.4850    1.4310 C   0  0  0  0  0  0  0  0  0  0  0  0
   -6.1490    1.0030    2.4830 Cl  0  0  0  0  0  0  0  0  0  0  0  0
  1  2  1  0
  2  3  1  0
  2  4  1  0
  4  5  2  0
  4 25  1  0
  5  6  1  0
  6  7  1  0
  6 23  2  0
  7  8  1  0
  8  9  1  0
  8 22  2  0
  9 10  2  0
  9 11  1  0
 11 12  1  0
 12 13  2  0
 12 21  1  0
 13 14  1  0
 14 15  2  0
 15 16  1  0
 15 20  1  0
 16 17  2  0
 17 18  1  0
 18 19  2  0
 19 20  1  0
 20 21  2  0
 22 23  1  0
 23 24  1  0
 24 25  2  0
 25 26  1  0
M  END
