
     RDKit          3D

 13 13  0  0  0  0  0  0  0  0999 V2000
   -3.0510   -0.1730    1.4090 C   0  0  0  0  0  0  0  0  0  0  0  0
   -2.3440   -0.0200    0.0940 C   0  0  1  0  0  0  0  0  0  0  0  0
   -3.0680    0.9830   -0.8060 C   0  0  0  0  0  0  0  0  0  0  0  0
   -0.9800    0.3420    0.2490 O   0  0  0  0  0  0  0  0  0  0  0  0
    0.0310   -0.4680   -0.2290 C   0  0  0  0  0  0  0  0  0  0  0  0
   -0.3150   -1.5330   -0.8020 O   0  0  0  0  0  0  0  0  0  0  0  0
    1.4430   -0.1280   -0.0880 C   0  0  0  0  0  0  0  0  0  0  0  0
    1.9440    0.9510    0.4890 C   0  0  0  0  0  0  0  0  0  0  0  0
    3.4210    0.9420    0.4350 C   0  0  0  0  0  0  0  0  0  0  0  0
    3.7100   -0.3320   -0.2730 C   0  0  0  0  0  0  0  0  0  0  0  0
    4.9830   -0.7630   -0.5510 F   0  0  0  0  0  0  0  0  0  0  0  0
    2.5640   -0.9220   -0.5600 C   0  0  0  0  0  0  0  0  0  0  0  0
    2.5090   -2.1470   -1.2310 O   0  0  0  0  0  0  0  0  0  0  0  0
  2  1  1  1
  2  3  1  0
  2  4  1  0
  4  5  1  0
  5  6  2  0
  5  7  1  0
  7  8  2  0
  7 12  1  0
  8  9  1  0
  9 10  1  0
 10 11  1  0
 10 12  2  0
 12 13  1  0
M  END
