
     RDKit          3D

 12 12  0  0  0  0  0  0  0  0999 V2000
   -2.4600   -1.0340    0.7240 C   0  0  0  0  0  0  0  0  0  0  0  0
   -2.0160   -0.0260   -0.2970 C   0  0  2  0  0  0  0  0  0  0  0  0
   -2.8910    1.2170   -0.2040 C   0  0  0  0  0  0  0  0  0  0  0  0
   -2.2050   -0.5540   -1.5720 O   0  0  0  0  0  0  0  0  0  0  0  0
   -0.5860    0.4270   -0.0940 C   0  0  0  0  0  0  0  0  0  0  0  0
    0.3190   -0.6620   -0.2510 O   0  0  0  0  0  0  0  0  0  0  0  0
    1.6740   -0.3720   -0.0880 C   0  0  0  0  0  0  0  0  0  0  0  0
    2.2560    0.7580   -0.4410 C   0  0  0  0  0  0  0  0  0  0  0  0
    3.6740    0.7020   -0.1190 C   0  0  0  0  0  0  0  0  0  0  0  0
    4.6090    1.6890   -0.3380 F   0  0  0  0  0  0  0  0  0  0  0  0
    3.9730   -0.4600    0.4340 C   0  0  0  0  0  0  0  0  0  0  0  0
    2.7200   -1.2440    0.5000 C   0  0  0  0  0  0  0  0  0  0  0  0
  2  1  1  1
  2  3  1  0
  2  4  1  0
  2  5  1  0
  5  6  1  0
  6  7  1  0
  7  8  2  0
  7 12  1  0
  8  9  1  0
  9 10  1  0
  9 11  2  0
 11 12  1  0
M  END
