
     RDKit          3D

 13 13  0  0  0  0  0  0  0  0999 V2000
    3.2010    1.2090    0.4560 O   0  0  0  0  0  0  0  0  0  0  0  0
    3.2410   -0.0500   -0.1040 C   0  0  0  0  0  0  0  0  0  0  0  0
    1.8210   -0.5770   -0.3480 C   0  0  0  0  0  0  0  0  0  0  0  0
    1.1410   -0.6220    1.0100 C   0  0  0  0  0  0  0  0  0  0  0  0
   -0.1740   -1.0870    0.9460 O   0  0  0  0  0  0  0  0  0  0  0  0
   -1.1980   -0.5260    0.2390 C   0  0  0  0  0  0  0  0  0  0  0  0
   -1.5160   -1.0010   -0.9520 C   0  0  0  0  0  0  0  0  0  0  0  0
   -2.5900   -0.4670   -1.7750 C   0  0  0  0  0  0  0  0  0  0  0  0
   -3.2910    0.5470   -1.3140 C   0  0  0  0  0  0  0  0  0  0  0  0
   -3.0100    1.0880   -0.0780 O   0  0  0  0  0  0  0  0  0  0  0  0
   -1.9990    0.6070    0.7280 C   0  0  0  0  0  0  0  0  0  0  0  0
   -1.7410    1.1340    1.9070 C   0  0  0  0  0  0  0  0  0  0  0  0
   -2.4690    2.1680    2.3570 F   0  0  0  0  0  0  0  0  0  0  0  0
  1  2  1  0
  2  3  1  0
  3  4  1  0
  4  5  1  0
  5  6  1  0
  6  7  2  0
  6 11  1  0
  7  8  1  0
  8  9  2  0
  9 10  1  0
 10 11  1  0
 11 12  2  3
 12 13  1  0
M  END
