
     RDKit          3D

 13 13  0  0  0  0  0  0  0  0999 V2000
    3.0660    1.2600    1.4160 O   0  0  0  0  0  0  0  0  0  0  0  0
    3.5390    0.2360    0.6260 C   0  0  0  0  0  0  0  0  0  0  0  0
    2.6130   -0.1070   -0.4960 C   0  0  0  0  0  0  0  0  0  0  0  0
    1.2460   -0.5500   -0.0120 C   0  0  0  0  0  0  0  0  0  0  0  0
    0.4260   -0.8610   -1.2450 C   0  0  0  0  0  0  0  0  0  0  0  0
   -0.8840   -1.2900   -0.9260 O   0  0  0  0  0  0  0  0  0  0  0  0
   -1.7360   -0.4610   -0.2150 C   0  0  0  0  0  0  0  0  0  0  0  0
   -1.7780   -0.3890    1.1030 C   0  0  0  0  0  0  0  0  0  0  0  0
   -1.0400   -1.0680    2.0240 F   0  0  0  0  0  0  0  0  0  0  0  0
   -2.8080    0.6010    1.4730 C   0  0  0  0  0  0  0  0  0  0  0  0
   -3.3380    1.0740    0.1710 C   0  0  0  0  0  0  0  0  0  0  0  0
   -2.7100    0.4510   -0.7960 C   0  0  0  0  0  0  0  0  0  0  0  0
   -2.9630    0.6590   -2.1550 O   0  0  0  0  0  0  0  0  0  0  0  0
  1  2  1  0
  2  3  1  0
  3  4  1  0
  4  5  1  0
  5  6  1  0
  6  7  1  0
  7  8  2  0
  7 12  1  0
  8  9  1  0
  8 10  1  0
 10 11  1  0
 11 12  2  0
 12 13  1  0
M  END
