
     RDKit          3D

 13 13  0  0  0  0  0  0  0  0999 V2000
   -2.8530    0.5100    1.5960 C   0  0  0  0  0  0  0  0  0  0  0  0
   -2.1130    0.4520    0.2610 C   0  0  2  0  0  0  0  0  0  0  0  0
   -3.1320   -0.2080   -0.6960 C   0  0  0  0  0  0  0  0  0  0  0  0
   -0.9900   -0.3060    0.4250 O   0  0  0  0  0  0  0  0  0  0  0  0
    0.3290   -0.1020    0.1840 C   0  0  0  0  0  0  0  0  0  0  0  0
    1.2640   -1.1190    0.4730 C   0  0  0  0  0  0  0  0  0  0  0  0
    2.6070   -0.9750    0.2520 C   0  0  0  0  0  0  0  0  0  0  0  0
    3.4850   -2.0000    0.5520 O   0  0  0  0  0  0  0  0  0  0  0  0
    3.1120    0.1880   -0.2710 C   0  0  0  0  0  0  0  0  0  0  0  0
    4.4790    0.3390   -0.4970 O   0  0  0  0  0  0  0  0  0  0  0  0
    2.2330    1.1950   -0.5630 C   0  0  0  0  0  0  0  0  0  0  0  0
    0.8760    1.0470   -0.3390 C   0  0  0  0  0  0  0  0  0  0  0  0
    0.0880    2.1030   -0.6620 F   0  0  0  0  0  0  0  0  0  0  0  0
  2  1  1  1
  2  3  1  0
  2  4  1  0
  4  5  1  0
  5  6  2  0
  5 12  1  0
  6  7  1  0
  7  8  1  0
  7  9  2  0
  9 10  1  0
  9 11  1  0
 11 12  2  0
 12 13  1  0
M  END
