
     RDKit          3D

  6  5  0  0  0  0  0  0  0  0999 V2000
   -1.0370    1.3780   -0.1660 O   0  0  0  0  0  0  0  0  0  0  0  0
   -0.7080    0.1810   -0.0510 C   0  0  0  0  0  0  0  0  0  0  0  0
   -1.6690   -0.8030   -0.0210 O   0  0  0  0  0  0  0  0  0  0  0  0
    0.6900   -0.1680    0.0490 C   0  0  0  0  0  0  0  0  0  0  0  0
    1.0160   -1.3660    0.1640 O   0  0  0  0  0  0  0  0  0  0  0  0
    1.7080    0.7780    0.0250 O   0  0  0  0  0  0  0  0  0  0  0  0
  1  2  2  0
  2  3  1  0
  2  4  1  0
  4  5  2  0
  4  6  1  0
M  CHG  2   3  -1   6  -1
M  END
