
     RDKit          3D

 13 13  0  0  0  0  0  0  0  0999 V2000
    4.1120   -0.7660    0.7190 O   0  0  0  0  0  0  0  0  0  0  0  0
    3.6490    0.3130    0.2820 C   0  0  0  0  0  0  0  0  0  0  0  0
    4.2120    1.5030    0.7020 O   0  0  0  0  0  0  0  0  0  0  0  0
    2.5290    0.3040   -0.6590 C   0  0  0  0  0  0  0  0  0  0  0  0
    1.1860    0.0630    0.0330 C   0  0  0  0  0  0  0  0  0  0  0  0
    0.1260    0.0770   -1.0180 C   0  0  0  0  0  0  0  0  0  0  0  0
   -1.2480   -0.1460   -0.5010 C   0  0  0  0  0  0  0  0  0  0  0  0
   -2.0010   -1.1620   -0.8860 C   0  0  0  0  0  0  0  0  0  0  0  0
   -3.3740   -1.4110   -0.3870 C   0  0  0  0  0  0  0  0  0  0  0  0
   -3.8060   -0.4630    0.5290 O   0  0  0  0  0  0  0  0  0  0  0  0
   -3.0400    0.5890    0.9340 C   0  0  0  0  0  0  0  0  0  0  0  0
   -1.8270    0.7700    0.4690 C   0  0  0  0  0  0  0  0  0  0  0  0
   -1.0540    1.8340    0.8750 F   0  0  0  0  0  0  0  0  0  0  0  0
  1  2  2  0
  2  3  1  0
  2  4  1  0
  4  5  1  0
  5  6  1  0
  6  7  1  0
  7  8  2  0
  7 12  1  0
  8  9  1  0
  9 10  1  0
 10 11  1  0
 11 12  2  0
 12 13  1  0
M  END
