
     RDKit          3D

 13 13  0  0  0  0  0  0  0  0999 V2000
   -2.2960    1.6800    0.2830 C   0  0  0  0  0  0  0  0  0  0  0  0
   -2.1160    0.2040    0.0570 C   0  0  0  0  0  0  0  0  0  0  0  0
   -3.0680   -0.6950    0.1330 C   0  0  0  0  0  0  0  0  0  0  0  0
   -4.3630   -0.3890    0.4320 F   0  0  0  0  0  0  0  0  0  0  0  0
   -2.4700   -2.0110   -0.1570 C   0  0  0  0  0  0  0  0  0  0  0  0
   -1.0470   -1.6790   -0.3990 C   0  0  0  0  0  0  0  0  0  0  0  0
   -0.8240   -0.3820   -0.2770 C   0  0  0  0  0  0  0  0  0  0  0  0
    0.4490    0.3060   -0.4440 C   0  0  0  0  0  0  0  0  0  0  0  0
    0.5220    1.5500   -0.2980 O   0  0  0  0  0  0  0  0  0  0  0  0
    1.5900   -0.3780   -0.7610 O   0  0  0  0  0  0  0  0  0  0  0  0
    2.8610    0.1560   -0.9460 C   0  0  0  0  0  0  0  0  0  0  0  0
    3.2900    0.8390    0.3400 C   0  0  0  0  0  0  0  0  0  0  0  0
    3.3070   -0.0990    1.3550 O   0  0  0  0  0  0  0  0  0  0  0  0
  1  2  1  0
  2  3  2  0
  2  7  1  0
  3  4  1  0
  3  5  1  0
  5  6  1  0
  6  7  2  0
  7  8  1  0
  8  9  2  0
  8 10  1  0
 10 11  1  0
 11 12  1  0
 12 13  1  0
M  END
