
     RDKit          3D

 12 12  0  0  0  0  0  0  0  0999 V2000
    0.8130   -0.4280   -1.4540 O   0  0  0  0  0  0  0  0  0  0  0  0
    0.3450   -0.1280   -0.3280 C   0  0  0  0  0  0  0  0  0  0  0  0
    1.2460    0.1630    0.7590 C   0  0  0  0  0  0  0  0  0  0  0  0
    2.5360    0.1610    0.7430 C   0  0  0  0  0  0  0  0  0  0  0  0
    3.2000    0.4870    1.9600 O   0  0  0  0  0  0  0  0  0  0  0  0
    3.4610   -0.1330   -0.3620 C   0  0  0  0  0  0  0  0  0  0  0  0
    4.2500   -1.2390    0.0430 O   0  0  0  0  0  0  0  0  0  0  0  0
   -1.1120   -0.0900   -0.1740 C   0  0  0  0  0  0  0  0  0  0  0  0
   -1.7150    0.2110    0.9610 C   0  0  0  0  0  0  0  0  0  0  0  0
   -3.1940    0.1650    0.7980 C   0  0  0  0  0  0  0  0  0  0  0  0
   -3.4370    0.0610   -0.6890 C   0  0  0  0  0  0  0  0  0  0  0  0
   -2.0980   -0.3740   -1.2360 C   0  0  0  0  0  0  0  0  0  0  0  0
  1  2  2  0
  2  3  1  0
  2  8  1  0
  3  4  2  3
  4  5  1  0
  4  6  1  0
  6  7  1  0
  8  9  2  0
  8 12  1  0
  9 10  1  0
 10 11  1  0
 11 12  1  0
M  END
