
     RDKit          3D

 17 17  0  0  0  0  0  0  0  0999 V2000
    6.0700    0.2790    0.0660 C   0  0  0  0  0  0  0  0  0  0  0  0
    4.7280    0.2330   -0.3760 O   0  0  0  0  0  0  0  0  0  0  0  0
    3.6900    0.2330    0.5100 C   0  0  0  0  0  0  0  0  0  0  0  0
    3.9230    0.2740    1.7310 O   0  0  0  0  0  0  0  0  0  0  0  0
    2.2780    0.1840    0.0230 C   0  0  0  0  0  0  0  0  0  0  0  0
    1.2480    0.1810    0.8050 C   0  0  0  0  0  0  0  0  0  0  0  0
    0.0060    0.1260   -0.0210 C   0  0  0  0  0  0  0  0  0  0  0  0
   -1.2070    0.1110    0.4850 C   0  0  0  0  0  0  0  0  0  0  0  0
   -2.4590    0.0610   -0.1720 C   0  0  0  0  0  0  0  0  0  0  0  0
   -2.6520    0.0170   -1.5230 O   0  0  0  0  0  0  0  0  0  0  0  0
   -3.6060    0.0540    0.5540 C   0  0  0  0  0  0  0  0  0  0  0  0
   -3.5060    0.0960    1.9270 O   0  0  0  0  0  0  0  0  0  0  0  0
   -4.9110    0.0030   -0.1090 C   0  0  0  0  0  0  0  0  0  0  0  0
   -5.6550   -1.1300    0.2600 O   0  0  0  0  0  0  0  0  0  0  0  0
    0.4750    0.0980   -1.3940 C   0  0  0  0  0  0  0  0  0  0  0  0
   -0.4140    0.0370   -2.7700 S   0  0  0  0  0  0  0  0  0  0  0  0
    1.9030    0.1350   -1.3320 N   0  0  0  0  0  0  0  0  0  0  0  0
  1  2  1  0
  2  3  1  0
  3  4  2  0
  3  5  1  0
  5  6  2  0
  5 17  1  0
  6  7  1  0
  7  8  2  3
  7 15  1  0
  8  9  1  0
  9 10  1  0
  9 11  2  3
 11 12  1  0
 11 13  1  0
 13 14  1  0
 15 16  2  0
 15 17  1  0
M  END
