
     RDKit          3D

 18 18  0  0  0  0  0  0  0  0999 V2000
   -4.6790    1.1690   -0.7900 C   0  0  0  0  0  0  0  0  0  0  0  0
   -4.3390   -0.2320   -0.4800 C   0  0  0  0  0  0  0  0  0  0  0  0
   -3.0900   -0.6020   -0.2980 C   0  0  0  0  0  0  0  0  0  0  0  0
   -2.7560   -2.0230    0.0160 C   0  0  0  0  0  0  0  0  0  0  0  0
   -1.6820   -2.0020    0.9270 O   0  0  0  0  0  0  0  0  0  0  0  0
   -0.6310   -1.0830    0.8210 C   0  0  0  0  0  0  0  0  0  0  0  0
   -0.7830    0.0430    0.1830 C   0  0  0  0  0  0  0  0  0  0  0  0
    0.2720    1.0280    0.0430 C   0  0  0  0  0  0  0  0  0  0  0  0
    0.0520    2.1020   -0.5910 O   0  0  0  0  0  0  0  0  0  0  0  0
    1.5560    0.8440    0.5910 N   0  0  0  0  0  0  0  0  0  0  0  0
    2.5940    1.8250    0.4510 C   0  0  0  0  0  0  0  0  0  0  0  0
    2.3700    2.8910   -0.1780 O   0  0  0  0  0  0  0  0  0  0  0  0
    3.9460    1.6350    1.0260 C   0  0  0  0  0  0  0  0  0  0  0  0
    4.0940    0.0430    1.8750 S   0  0  0  0  0  0  0  0  0  0  0  0
    3.9870   -1.3220    0.7430 C   0  0  0  0  0  0  0  0  0  0  0  0
    3.8250   -1.1680   -0.6430 N   0  0  0  0  0  0  0  0  0  0  0  0
    4.0640   -2.4830    1.2420 O   0  0  0  0  0  0  0  0  0  0  0  0
   -2.0250    0.2900   -0.3840 O   0  0  0  0  0  0  0  0  0  0  0  0
  1  2  1  0
  2  3  2  3
  3  4  1  0
  3 18  1  0
  4  5  1  0
  5  6  1  0
  6  7  2  0
  7  8  1  0
  7 18  1  0
  8  9  2  0
  8 10  1  0
 10 11  1  0
 11 12  2  0
 11 13  1  0
 13 14  1  0
 14 15  1  0
 15 16  1  0
 15 17  2  0
M  END
