
     RDKit          3D

 10  9  0  0  0  0  0  0  0  0999 V2000
    0.3100   -1.9040   -0.1400 O   0  0  0  0  0  0  0  0  0  0  0  0
    1.1010   -0.9390    0.0220 C   0  0  0  0  0  0  0  0  0  0  0  0
    2.4030   -1.1080   -0.3920 O   0  0  0  0  0  0  0  0  0  0  0  0
    0.5870    0.3070    0.6420 C   0  0  1  0  0  0  0  0  0  0  0  0
    1.5460    1.2830    0.7630 O   0  0  0  0  0  0  0  0  0  0  0  0
   -0.6050    0.8010   -0.1570 C   0  0  1  0  0  0  0  0  0  0  0  0
   -0.2740    1.1860   -1.4320 O   0  0  0  0  0  0  0  0  0  0  0  0
   -1.5920   -0.3330   -0.1880 C   0  0  0  0  0  0  0  0  0  0  0  0
   -2.0120   -0.8110   -1.2800 O   0  0  0  0  0  0  0  0  0  0  0  0
   -2.0820   -0.9000    0.9730 O   0  0  0  0  0  0  0  0  0  0  0  0
  1  2  2  0
  2  3  1  0
  2  4  1  0
  4  5  1  6
  4  6  1  0
  6  7  1  6
  6  8  1  0
  8  9  2  0
  8 10  1  0
M  END
