
     RDKit          3D

 17 18  0  0  0  0  0  0  0  0999 V2000
    4.8080    0.6290   -1.2570 N   0  0  0  0  0  0  0  0  0  0  0  0
    3.4060    0.4940   -1.3860 C   0  0  0  0  0  0  0  0  0  0  0  0
    2.5810    0.5810   -0.3530 C   0  0  0  0  0  0  0  0  0  0  0  0
    1.2010    0.4680   -0.3440 O   0  0  0  0  0  0  0  0  0  0  0  0
    0.6820    0.6190    0.9450 C   0  0  0  0  0  0  0  0  0  0  0  0
   -0.7060    0.5660    1.3700 C   0  0  0  0  0  0  0  0  0  0  0  0
   -1.7640    0.3760    0.6520 C   0  0  0  0  0  0  0  0  0  0  0  0
   -3.3830    0.3550    1.4570 S   0  0  0  0  0  0  0  0  0  0  0  0
   -4.4220   -0.7540    0.4700 C   0  0  0  0  0  0  0  0  0  0  0  0
   -3.6430   -1.4110   -0.5890 C   0  0  0  0  0  0  0  0  0  0  0  0
   -3.8240   -2.6580   -0.8030 O   0  0  0  0  0  0  0  0  0  0  0  0
   -2.6940   -0.7100   -1.3850 N   0  0  0  0  0  0  0  0  0  0  0  0
   -1.7470    0.1890   -0.7810 C   0  0  0  0  0  0  0  0  0  0  0  0
   -0.9450    0.7750   -1.5410 O   0  0  0  0  0  0  0  0  0  0  0  0
    1.7070    0.8290    1.7880 C   0  0  0  0  0  0  0  0  0  0  0  0
    2.9400    0.8180    1.0320 C   0  0  0  0  0  0  0  0  0  0  0  0
    4.0990    0.9810    1.4820 O   0  0  0  0  0  0  0  0  0  0  0  0
  1  2  1  0
  2  3  2  3
  3  4  1  0
  3 16  1  0
  4  5  1  0
  5  6  1  0
  5 15  2  0
  6  7  2  3
  7  8  1  0
  7 13  1  0
  8  9  1  0
  9 10  1  0
 10 11  2  0
 10 12  1  0
 12 13  1  0
 13 14  2  0
 15 16  1  0
 16 17  2  0
M  END
