
     RDKit          3D

 18 18  0  0  0  0  0  0  0  0999 V2000
    6.9950    0.7010    0.0850 C   0  0  0  0  0  0  0  0  0  0  0  0
    5.5920    0.9350    0.0070 O   0  0  0  0  0  0  0  0  0  0  0  0
    4.6620   -0.0710    0.0730 C   0  0  0  0  0  0  0  0  0  0  0  0
    5.0800   -1.2500    0.2070 O   0  0  0  0  0  0  0  0  0  0  0  0
    3.2450    0.1850   -0.0070 C   0  0  0  0  0  0  0  0  0  0  0  0
    2.8380    1.3820   -0.1430 O   0  0  0  0  0  0  0  0  0  0  0  0
    2.2540   -0.8270    0.0580 N   0  0  0  0  0  0  0  0  0  0  0  0
    0.8860   -0.5970   -0.0170 N   0  0  0  0  0  0  0  0  0  0  0  0
   -0.0010   -1.0940    0.9830 C   0  0  0  0  0  0  0  0  0  0  0  0
    0.5240   -1.7450    1.9230 O   0  0  0  0  0  0  0  0  0  0  0  0
   -1.4700   -0.8730    0.9450 C   0  0  0  0  0  0  0  0  0  0  0  0
   -1.8620   -0.1280   -0.1700 O   0  0  0  0  0  0  0  0  0  0  0  0
   -3.1900    0.2230   -0.4440 C   0  0  0  0  0  0  0  0  0  0  0  0
   -4.0860   -0.2220    0.4080 C   0  0  0  0  0  0  0  0  0  0  0  0
   -5.5460    0.0040    0.3480 C   0  0  0  0  0  0  0  0  0  0  0  0
   -6.0930    0.9870   -1.0400 S   0  0  0  0  0  0  0  0  0  0  0  0
   -4.6490    1.4230   -1.9850 C   0  0  0  0  0  0  0  0  0  0  0  0
   -3.4480    1.0290   -1.6200 C   0  0  0  0  0  0  0  0  0  0  0  0
  1  2  1  0
  2  3  1  0
  3  4  2  0
  3  5  1  0
  5  6  2  0
  5  7  1  0
  7  8  1  0
  8  9  1  0
  9 10  2  0
  9 11  1  0
 11 12  1  0
 12 13  1  0
 13 14  2  0
 13 18  1  0
 14 15  1  0
 15 16  1  0
 16 17  1  0
 17 18  2  0
M  END
