
     RDKit          3D

 18 19  0  0  0  0  0  0  0  0999 V2000
   -2.4840    3.3890    0.6270 C   0  0  0  0  0  0  0  0  0  0  0  0
   -2.1640    2.0410    0.4770 O   0  0  0  0  0  0  0  0  0  0  0  0
   -0.8850    1.5570    0.2620 C   0  0  0  0  0  0  0  0  0  0  0  0
    0.0250    2.3750    0.2000 O   0  0  0  0  0  0  0  0  0  0  0  0
   -0.6250    0.0820    0.1120 C   0  0  0  0  0  0  0  0  0  0  0  0
    0.6750   -0.3340   -0.1010 C   0  0  0  0  0  0  0  0  0  0  0  0
    1.8910    0.3540   -0.2160 N   0  0  0  0  0  0  0  0  0  0  0  0
    3.0840   -0.4110   -0.4410 C   0  0  0  0  0  0  0  0  0  0  0  0
    3.0290   -1.6780   -0.5320 O   0  0  0  0  0  0  0  0  0  0  0  0
    4.3870    0.2250   -0.5730 C   0  0  0  0  0  0  0  0  0  0  0  0
    5.5530   -0.5230   -0.7930 N   0  0  0  0  0  0  0  0  0  0  0  0
    4.4320    1.4790   -0.4810 O   0  0  0  0  0  0  0  0  0  0  0  0
    0.4920   -2.1260   -0.2150 S   0  0  0  0  0  0  0  0  0  0  0  0
   -1.2380   -2.1770    0.0210 C   0  0  0  0  0  0  0  0  0  0  0  0
   -1.5900   -0.8550    0.1730 C   0  0  0  0  0  0  0  0  0  0  0  0
   -3.0890   -0.9450    0.3770 C   0  0  0  0  0  0  0  0  0  0  0  0
   -3.4910   -2.1900    0.0120 O   0  0  0  0  0  0  0  0  0  0  0  0
   -2.4290   -3.0650    0.1180 C   0  0  0  0  0  0  0  0  0  0  0  0
  1  2  1  0
  2  3  1  0
  3  4  2  0
  3  5  1  0
  5  6  2  0
  5 15  1  0
  6  7  1  0
  6 13  1  0
  7  8  1  0
  8  9  2  0
  8 10  1  0
 10 11  1  0
 10 12  2  0
 13 14  1  0
 14 15  2  0
 14 18  1  0
 15 16  1  0
 16 17  1  0
 17 18  1  0
M  END
