
     RDKit          3D

 18 19  0  0  0  0  0  0  0  0999 V2000
    5.2770   -0.4960    0.2920 C   0  0  0  0  0  0  0  0  0  0  0  0
    4.2050    0.3900    0.0330 O   0  0  0  0  0  0  0  0  0  0  0  0
    2.8940   -0.0640    0.0740 C   0  0  0  0  0  0  0  0  0  0  0  0
    2.7250   -1.2610    0.3450 O   0  0  0  0  0  0  0  0  0  0  0  0
    1.8170    0.8490   -0.1920 C   0  0  0  0  0  0  0  0  0  0  0  0
    2.0650    2.5930   -0.5860 S   0  0  0  0  0  0  0  0  0  0  0  0
    0.2910    2.9460   -0.7550 C   0  0  0  0  0  0  0  0  0  0  0  0
   -0.1860    4.0840   -1.0440 O   0  0  0  0  0  0  0  0  0  0  0  0
   -0.2770    1.7740   -0.5100 N   0  0  0  0  0  0  0  0  0  0  0  0
    0.4720    0.7270   -0.2290 C   0  0  0  0  0  0  0  0  0  0  0  0
   -0.1440   -0.5860    0.0470 N   0  0  0  0  0  0  0  0  0  0  0  0
   -1.5470   -0.7660    0.0200 C   0  0  0  0  0  0  0  0  0  0  0  0
   -2.1390   -1.5230   -0.8800 C   0  0  0  0  0  0  0  0  0  0  0  0
   -3.5930   -1.7320   -0.9380 C   0  0  0  0  0  0  0  0  0  0  0  0
   -4.2970   -1.0520    0.0550 O   0  0  0  0  0  0  0  0  0  0  0  0
   -3.7000   -0.2550    1.0050 C   0  0  0  0  0  0  0  0  0  0  0  0
   -2.3820   -0.1020    1.0100 C   0  0  0  0  0  0  0  0  0  0  0  0
   -1.7460    0.6970    1.9590 O   0  0  0  0  0  0  0  0  0  0  0  0
  1  2  1  0
  2  3  1  0
  3  4  2  0
  3  5  1  0
  5  6  1  0
  5 10  2  0
  6  7  1  0
  7  8  2  0
  7  9  1  0
  9 10  1  0
 10 11  1  0
 11 12  1  0
 12 13  2  0
 12 17  1  0
 13 14  1  0
 14 15  1  0
 15 16  1  0
 16 17  2  0
 17 18  1  0
M  END
