
     RDKit          3D

 18 19  0  0  0  0  0  0  0  0999 V2000
   -4.2950   -0.0120    0.4360 O   0  0  0  0  0  0  0  0  0  0  0  0
   -3.3750   -0.8560    0.3440 C   0  0  0  0  0  0  0  0  0  0  0  0
   -3.7520   -2.2100    0.4130 O   0  0  0  0  0  0  0  0  0  0  0  0
   -2.0260   -0.5750    0.1790 N   0  0  0  0  0  0  0  0  0  0  0  0
   -1.4760    0.7790    0.0270 C   0  0  0  0  0  0  0  0  0  0  0  0
   -2.2920    1.7800   -0.1580 N   0  0  0  0  0  0  0  0  0  0  0  0
   -1.7830    2.9910   -0.4530 C   0  0  0  0  0  0  0  0  0  0  0  0
   -2.3370    4.0950   -0.6730 O   0  0  0  0  0  0  0  0  0  0  0  0
   -0.0040    2.7210   -0.4760 S   0  0  0  0  0  0  0  0  0  0  0  0
   -0.1590    0.9200   -0.0620 C   0  0  0  0  0  0  0  0  0  0  0  0
    1.0380    0.1140    0.0040 C   0  0  0  0  0  0  0  0  0  0  0  0
    2.0550    0.3690   -0.9350 C   0  0  0  0  0  0  0  0  0  0  0  0
    3.2600   -0.2670   -0.9440 C   0  0  0  0  0  0  0  0  0  0  0  0
    4.2600   -0.0130   -1.8720 O   0  0  0  0  0  0  0  0  0  0  0  0
    3.4850   -1.2160    0.0320 C   0  0  0  0  0  0  0  0  0  0  0  0
    2.5110   -1.4810    0.9610 C   0  0  0  0  0  0  0  0  0  0  0  0
    1.2620   -0.8130    0.9630 C   0  0  0  0  0  0  0  0  0  0  0  0
    0.4120   -1.1810    1.9680 O   0  0  0  0  0  0  0  0  0  0  0  0
  1  2  2  0
  2  3  1  0
  2  4  1  0
  4  5  1  0
  5  6  1  0
  5 10  2  0
  6  7  1  0
  7  8  2  0
  7  9  1  0
  9 10  1  0
 10 11  1  0
 11 12  2  0
 11 17  1  0
 12 13  1  0
 13 14  1  0
 13 15  2  0
 15 16  1  0
 16 17  2  0
 17 18  1  0
M  END
