
     RDKit          3D

 18 18  0  0  0  0  0  0  0  0999 V2000
   -3.4320   -0.2240    0.3430 C   0  0  0  0  0  0  0  0  0  0  0  0
   -3.2200   -0.3440   -0.9250 C   0  0  0  0  0  0  0  0  0  0  0  0
   -4.4570   -0.1350   -2.2710 S   0  0  0  0  0  0  0  0  0  0  0  0
   -3.8240   -1.6950   -2.9520 O   0  0  0  0  0  0  0  0  0  0  0  0
   -2.4710   -1.4910   -2.7970 C   0  0  0  0  0  0  0  0  0  0  0  0
   -2.0760   -0.7680   -1.7310 C   0  0  0  0  0  0  0  0  0  0  0  0
   -0.6860   -0.5760   -1.4070 C   0  0  0  0  0  0  0  0  0  0  0  0
    0.0090    0.0850   -0.5670 C   0  0  0  0  0  0  0  0  0  0  0  0
    1.4880   -0.1290   -0.6810 N   0  0  0  0  0  0  0  0  0  0  0  0
    2.1820   -0.6410    0.4160 C   0  0  0  0  0  0  0  0  0  0  0  0
    1.5120   -0.9010    1.4640 O   0  0  0  0  0  0  0  0  0  0  0  0
    3.6330   -0.8860    0.4040 C   0  0  0  0  0  0  0  0  0  0  0  0
    4.3040   -1.4090    1.5420 N   0  0  0  0  0  0  0  0  0  0  0  0
    4.2910   -0.6280   -0.6310 O   0  0  0  0  0  0  0  0  0  0  0  0
   -0.2500    1.1570    0.3480 C   0  0  0  0  0  0  0  0  0  0  0  0
   -1.3260    1.7440    0.4530 O   0  0  0  0  0  0  0  0  0  0  0  0
    0.7430    1.6490    1.2430 O   0  0  0  0  0  0  0  0  0  0  0  0
    0.4340    2.7220    2.1410 C   0  0  0  0  0  0  0  0  0  0  0  0
  1  2  2  0
  2  3  1  0
  2  6  1  0
  3  4  1  0
  4  5  1  0
  5  6  2  0
  6  7  1  0
  7  8  2  3
  8  9  1  0
  8 15  1  0
  9 10  1  0
 10 11  2  0
 10 12  1  0
 12 13  1  0
 12 14  2  0
 15 16  2  0
 15 17  1  0
 17 18  1  0
M  END
