
     RDKit          3D

 27 30  0  0  0  0  0  0  0  0999 V2000
    7.4750    0.0230    1.6010 C   0  0  0  0  0  0  0  0  0  0  0  0
    6.3260   -0.7300    1.7010 O   0  0  0  0  0  0  0  0  0  0  0  0
    6.0800   -1.3920    0.5190 C   0  0  0  0  0  0  0  0  0  0  0  0
    5.7940   -0.4440   -0.5900 C   0  0  0  0  0  0  0  0  0  0  0  0
    4.6030    0.3190   -0.2710 N   0  0  0  0  0  0  0  0  0  0  0  0
    3.2700   -0.1930   -0.6500 C   0  0  0  0  0  0  0  0  0  0  0  0
    2.4780    1.0910   -0.7220 C   0  0  1  0  0  0  0  0  0  0  0  0
    1.0240    0.8630   -0.6620 C   0  0  0  0  0  0  0  0  0  0  0  0
    0.1460    1.3450   -1.5610 N   0  0  0  0  0  0  0  0  0  0  0  0
   -1.1580    1.0900   -1.4310 N   0  0  0  0  0  0  0  0  0  0  0  0
   -1.6440    0.3530   -0.4140 C   0  0  0  0  0  0  0  0  0  0  0  0
   -2.9200   -0.0460   -0.0630 C   0  0  0  0  0  0  0  0  0  0  0  0
   -4.1520    0.2710   -0.7820 C   0  0  0  0  0  0  0  0  0  0  0  0
   -4.0860    0.9770   -1.8350 O   0  0  0  0  0  0  0  0  0  0  0  0
   -5.3750   -0.2210   -0.2800 N   0  0  0  0  0  0  0  0  0  0  0  0
   -5.3890   -1.0160    0.9180 C   0  0  0  0  0  0  0  0  0  0  0  0
   -6.8500   -1.3910    1.1840 C   0  0  0  0  0  0  0  0  0  0  0  0
   -7.5450   -0.1830    1.2520 O   0  0  0  0  0  0  0  0  0  0  0  0
   -7.7780    0.2640   -0.0420 C   0  0  0  0  0  0  0  0  0  0  0  0
   -6.6130    0.0710   -0.9630 C   0  0  0  0  0  0  0  0  0  0  0  0
   -2.7610   -0.7660    1.0550 N   0  0  0  0  0  0  0  0  0  0  0  0
   -1.4780   -0.8050    1.3650 N   0  0  0  0  0  0  0  0  0  0  0  0
   -0.7660   -0.1280    0.4830 N   0  0  0  0  0  0  0  0  0  0  0  0
    0.5450    0.1280    0.3540 N   0  0  0  0  0  0  0  0  0  0  0  0
    2.9750    1.7840    0.5570 C   0  0  0  0  0  0  0  0  0  0  0  0
    4.4350    1.5500    0.3910 C   0  0  0  0  0  0  0  0  0  0  0  0
    5.3350    2.3160    0.7730 O   0  0  0  0  0  0  0  0  0  0  0  0
  1  2  1  0
  2  3  1  0
  3  4  1  0
  4  5  1  0
  5  6  1  0
  5 26  1  0
  6  7  1  0
  7  8  1  1
  7 25  1  0
  8  9  1  0
  8 24  2  0
  9 10  2  0
 10 11  1  0
 11 12  2  0
 11 23  1  0
 12 13  1  0
 12 21  1  0
 13 14  2  0
 13 15  1  0
 15 16  1  0
 15 20  1  0
 16 17  1  0
 17 18  1  0
 18 19  1  0
 19 20  1  0
 21 22  2  0
 22 23  1  0
 23 24  1  0
 25 26  1  0
 26 27  2  0
M  END
