
     RDKit          3D

 28 31  0  0  0  0  0  0  0  0999 V2000
    7.1050    2.9130    0.4550 C   0  0  0  0  0  0  0  0  0  0  0  0
    6.4800    1.7620   -0.2510 C   0  0  0  0  0  0  0  0  0  0  0  0
    5.8790    1.7830   -1.4600 N   0  0  0  0  0  0  0  0  0  0  0  0
    5.4530    0.5830   -1.7460 O   0  0  0  0  0  0  0  0  0  0  0  0
    5.7400   -0.2510   -0.7820 C   0  0  0  0  0  0  0  0  0  0  0  0
    5.4170   -1.6880   -0.7510 C   0  0  0  0  0  0  0  0  0  0  0  0
    4.0930   -1.8120   -0.1250 N   0  0  0  0  0  0  0  0  0  0  0  0
    3.8350   -1.9610    1.1670 N   0  0  0  0  0  0  0  0  0  0  0  0
    2.5070   -2.0390    1.3680 C   0  0  0  0  0  0  0  0  0  0  0  0
    1.9000   -1.9370    0.1690 N   0  0  0  0  0  0  0  0  0  0  0  0
    0.4630   -1.9750   -0.0610 C   0  0  0  0  0  0  0  0  0  0  0  0
   -0.1280   -0.6290   -0.0010 C   0  0  0  0  0  0  0  0  0  0  0  0
    0.6050    0.3520    0.2250 O   0  0  0  0  0  0  0  0  0  0  0  0
   -1.5090   -0.4550   -0.1990 N   0  0  0  0  0  0  0  0  0  0  0  0
   -2.3560   -1.5930   -0.4610 C   0  0  0  0  0  0  0  0  0  0  0  0
   -3.5400   -1.6470    0.4980 C   0  0  0  0  0  0  0  0  0  0  0  0
   -4.1420   -0.3170    0.4610 N   0  0  0  0  0  0  0  0  0  0  0  0
   -5.5060   -0.3240    0.0640 C   0  0  0  0  0  0  0  0  0  0  0  0
   -6.2460    0.6520   -0.4490 C   0  0  0  0  0  0  0  0  0  0  0  0
   -5.8900    2.0370   -0.7660 C   0  0  0  0  0  0  0  0  0  0  0  0
   -4.9740    2.6370    0.1760 N   0  0  0  0  0  0  0  0  0  0  0  0
   -3.9850    2.0600    0.9860 C   0  0  0  0  0  0  0  0  0  0  0  0
   -3.6710    2.7600    1.9940 O   0  0  0  0  0  0  0  0  0  0  0  0
   -3.2830    0.7880    0.8260 C   0  0  2  0  0  0  0  0  0  0  0  0
   -2.1230    0.8550   -0.1460 C   0  0  0  0  0  0  0  0  0  0  0  0
    2.8910   -1.7990   -0.7290 C   0  0  0  0  0  0  0  0  0  0  0  0
    2.6840   -1.6770   -1.9600 O   0  0  0  0  0  0  0  0  0  0  0  0
    6.3810    0.4740    0.1560 N   0  0  0  0  0  0  0  0  0  0  0  0
  1  2  1  0
  2  3  2  0
  2 28  1  0
  3  4  1  0
  4  5  1  0
  5  6  1  0
  5 28  2  0
  6  7  1  0
  7  8  1  0
  7 26  1  0
  8  9  2  0
  9 10  1  0
 10 11  1  0
 10 26  1  0
 11 12  1  0
 12 13  2  0
 12 14  1  0
 14 15  1  0
 14 25  1  0
 15 16  1  0
 16 17  1  0
 17 18  1  0
 17 24  1  0
 18 19  2  0
 19 20  1  0
 20 21  1  0
 21 22  1  0
 22 23  2  0
 22 24  1  0
 24 25  1  6
 26 27  2  0
M  END
