
     RDKit          3D

 28 31  0  0  0  0  0  0  0  0999 V2000
    5.8030    1.2160   -2.1480 C   0  0  0  0  0  0  0  0  0  0  0  0
    5.2970    1.2600   -0.7870 N   0  0  0  0  0  0  0  0  0  0  0  0
    5.9190    2.0770    0.2410 C   0  0  0  0  0  0  0  0  0  0  0  0
    5.9700    1.3200    1.4310 O   0  0  0  0  0  0  0  0  0  0  0  0
    4.9050    0.5920    1.9160 C   0  0  0  0  0  0  0  0  0  0  0  0
    4.5230    0.1650    3.1270 N   0  0  0  0  0  0  0  0  0  0  0  0
    3.3900   -0.5150    3.0400 C   0  0  0  0  0  0  0  0  0  0  0  0
    3.0230   -0.5270    1.7050 N   0  0  0  0  0  0  0  0  0  0  0  0
    1.8600   -1.1730    1.2480 C   0  0  0  0  0  0  0  0  0  0  0  0
    1.1220   -1.7800    2.1290 O   0  0  0  0  0  0  0  0  0  0  0  0
    1.3320   -1.2710   -0.1040 C   0  0  0  0  0  0  0  0  0  0  0  0
   -0.0180   -2.0350   -0.1530 C   0  0  0  0  0  0  0  0  0  0  0  0
   -1.0400   -1.3930    0.5820 N   0  0  0  0  0  0  0  0  0  0  0  0
   -1.4170   -1.5510    1.8100 N   0  0  0  0  0  0  0  0  0  0  0  0
   -2.4640   -0.7400    2.1200 C   0  0  0  0  0  0  0  0  0  0  0  0
   -2.7450   -0.0400    1.0100 N   0  0  0  0  0  0  0  0  0  0  0  0
   -3.8000    0.9440    0.9070 C   0  0  0  0  0  0  0  0  0  0  0  0
   -5.0930    0.3130    0.4690 C   0  0  0  0  0  0  0  0  0  0  0  0
   -6.0260   -0.2090    1.2830 N   0  0  0  0  0  0  0  0  0  0  0  0
   -7.0690   -0.6970    0.5900 C   0  0  0  0  0  0  0  0  0  0  0  0
   -6.7490   -0.4540   -0.7380 C   0  0  0  0  0  0  0  0  0  0  0  0
   -5.5360    0.1630   -0.7750 N   0  0  0  0  0  0  0  0  0  0  0  0
   -4.8860    0.5680   -2.0040 C   0  0  0  0  0  0  0  0  0  0  0  0
   -1.8790   -0.4360    0.0740 C   0  0  0  0  0  0  0  0  0  0  0  0
   -1.8200   -0.0100   -1.1110 O   0  0  0  0  0  0  0  0  0  0  0  0
    3.9370    0.1430    1.0090 C   0  0  0  0  0  0  0  0  0  0  0  0
    4.1520    0.4950   -0.3860 C   0  0  0  0  0  0  0  0  0  0  0  0
    3.3690    0.1560   -1.2800 O   0  0  0  0  0  0  0  0  0  0  0  0
  1  2  1  0
  2  3  1  0
  2 27  1  0
  3  4  1  0
  4  5  1  0
  5  6  1  0
  5 26  2  0
  6  7  2  0
  7  8  1  0
  8  9  1  0
  8 26  1  0
  9 10  2  0
  9 11  1  0
 11 12  1  0
 12 13  1  0
 13 14  1  0
 13 24  1  0
 14 15  2  0
 15 16  1  0
 16 17  1  0
 16 24  1  0
 17 18  1  0
 18 19  2  0
 18 22  1  0
 19 20  1  0
 20 21  2  0
 21 22  1  0
 22 23  1  0
 24 25  2  0
 26 27  1  0
 27 28  2  0
M  END
