
     RDKit          3D

 28 31  0  0  0  0  0  0  0  0999 V2000
   -5.2640    0.0040   -2.2670 C   0  0  0  0  0  0  0  0  0  0  0  0
   -4.1500    0.0750   -1.6100 C   0  0  0  0  0  0  0  0  0  0  0  0
   -3.2450   -1.0990   -1.7510 C   0  0  0  0  0  0  0  0  0  0  0  0
   -2.5360   -1.3340   -0.4850 N   0  0  0  0  0  0  0  0  0  0  0  0
   -1.7710   -0.5300    0.1820 C   0  0  0  0  0  0  0  0  0  0  0  0
   -1.1630   -0.8680    1.3910 N   0  0  0  0  0  0  0  0  0  0  0  0
   -1.0390   -2.3020    1.7410 C   0  0  0  0  0  0  0  0  0  0  0  0
   -0.7290   -0.0250    2.4750 C   0  0  0  0  0  0  0  0  0  0  0  0
   -1.6160    0.9000   -0.2510 C   0  0  0  0  0  0  0  0  0  0  0  0
   -2.7220    1.7330   -0.5080 C   0  0  0  0  0  0  0  0  0  0  0  0
   -2.5240    3.0480   -0.4200 N   0  0  0  0  0  0  0  0  0  0  0  0
   -3.3390    4.0530   -0.5940 N   0  0  0  0  0  0  0  0  0  0  0  0
   -2.7160    5.2060   -0.3910 N   0  0  0  0  0  0  0  0  0  0  0  0
   -1.4370    4.8890   -0.0730 C   0  0  0  0  0  0  0  0  0  0  0  0
   -1.2810    3.5180   -0.0830 C   0  0  0  0  0  0  0  0  0  0  0  0
   -0.2200    2.7310    0.1510 N   0  0  0  0  0  0  0  0  0  0  0  0
    1.0490    2.8980    0.4020 N   0  0  0  0  0  0  0  0  0  0  0  0
    1.6830    1.7420    0.4500 N   0  0  0  0  0  0  0  0  0  0  0  0
    0.7850    0.7220    0.2110 C   0  0  0  0  0  0  0  0  0  0  0  0
    1.2290   -0.6190   -0.0370 C   0  0  0  0  0  0  0  0  0  0  0  0
    0.6590   -1.6160   -0.4800 O   0  0  0  0  0  0  0  0  0  0  0  0
    2.5970   -0.8990    0.2820 O   0  0  0  0  0  0  0  0  0  0  0  0
    3.1330   -2.2130    0.0720 C   0  0  0  0  0  0  0  0  0  0  0  0
    4.5790   -2.1190    0.5190 C   0  0  0  0  0  0  0  0  0  0  0  0
    5.2650   -1.1790   -0.2230 O   0  0  0  0  0  0  0  0  0  0  0  0
    6.5800   -1.1180    0.2100 C   0  0  0  0  0  0  0  0  0  0  0  0
   -0.3950    1.3580    0.0450 C   0  0  0  0  0  0  0  0  0  0  0  0
   -3.9970    1.2850   -0.8600 O   0  0  0  0  0  0  0  0  0  0  0  0
  1  2  2  0
  2  3  1  0
  2 28  1  0
  3  4  1  0
  4  5  2  0
  5  6  1  0
  5  9  1  0
  6  7  1  0
  6  8  1  0
  9 10  2  0
  9 27  1  0
 10 11  1  0
 10 28  1  0
 11 12  1  0
 11 15  1  0
 12 13  2  0
 13 14  1  0
 14 15  2  0
 15 16  1  0
 16 17  1  0
 16 27  1  0
 17 18  2  0
 18 19  1  0
 19 20  1  0
 19 27  2  0
 20 21  2  0
 20 22  1  0
 22 23  1  0
 23 24  1  0
 24 25  1  0
 25 26  1  0
M  END
