
     RDKit          3D

 28 31  0  0  0  0  0  0  0  0999 V2000
    1.0120    4.2740   -0.3270 C   0  0  0  0  0  0  0  0  0  0  0  0
    0.0520    3.4980   -1.0450 O   0  0  0  0  0  0  0  0  0  0  0  0
   -0.8270    2.6410   -0.3980 C   0  0  0  0  0  0  0  0  0  0  0  0
   -0.7860    2.5400    0.8340 O   0  0  0  0  0  0  0  0  0  0  0  0
   -1.7640    1.8960   -1.2070 C   0  0  0  0  0  0  0  0  0  0  0  0
   -2.6300    2.6580   -2.0360 C   0  0  0  0  0  0  0  0  0  0  0  0
   -3.5900    2.0430   -2.7210 N   0  0  0  0  0  0  0  0  0  0  0  0
   -3.7300    0.7400   -2.6260 N   0  0  0  0  0  0  0  0  0  0  0  0
   -2.9270   -0.0230   -1.8520 C   0  0  0  0  0  0  0  0  0  0  0  0
   -1.9170    0.5460   -1.1210 C   0  0  0  0  0  0  0  0  0  0  0  0
   -1.0820   -0.2850   -0.3530 C   0  0  0  0  0  0  0  0  0  0  0  0
   -0.1360    0.2700    0.2120 N   0  0  0  0  0  0  0  0  0  0  0  0
    0.9360   -0.0100    1.0330 C   0  0  0  0  0  0  0  0  0  0  0  0
    2.2120    0.0280    0.6360 C   0  0  0  0  0  0  0  0  0  0  0  0
    2.7260    0.3670   -0.7210 C   0  0  0  0  0  0  0  0  0  0  0  0
    3.8800   -0.4130   -0.7770 O   0  0  0  0  0  0  0  0  0  0  0  0
    4.4740   -0.2910    0.4770 C   0  0  0  0  0  0  0  0  0  0  0  0
    3.3660   -0.2460    1.4150 N   0  0  0  0  0  0  0  0  0  0  0  0
    3.4170   -0.4390    2.8470 C   0  0  0  0  0  0  0  0  0  0  0  0
   -1.2740   -1.6030   -0.3270 N   0  0  0  0  0  0  0  0  0  0  0  0
   -0.5190   -2.5180    0.4780 C   0  0  0  0  0  0  0  0  0  0  0  0
   -1.2870   -2.7560    1.7870 C   0  0  0  0  0  0  0  0  0  0  0  0
   -1.4860   -1.5700    2.4610 O   0  0  0  0  0  0  0  0  0  0  0  0
   -2.2950   -2.1220   -1.0690 C   0  0  0  0  0  0  0  0  0  0  0  0
   -2.6970   -3.4060   -1.2160 N   0  0  0  0  0  0  0  0  0  0  0  0
   -3.7320   -3.4000   -2.0410 N   0  0  0  0  0  0  0  0  0  0  0  0
   -4.0080   -2.1360   -2.4290 C   0  0  0  0  0  0  0  0  0  0  0  0
   -3.0980   -1.3610   -1.8100 N   0  0  0  0  0  0  0  0  0  0  0  0
  1  2  1  0
  2  3  1  0
  3  4  2  0
  3  5  1  0
  5  6  2  0
  5 10  1  0
  6  7  1  0
  7  8  2  0
  8  9  1  0
  9 10  2  0
  9 28  1  0
 10 11  1  0
 11 12  2  3
 11 20  1  0
 12 13  1  0
 13 14  2  3
 14 15  1  0
 14 18  1  0
 15 16  1  0
 16 17  1  0
 17 18  1  0
 18 19  1  0
 20 21  1  0
 20 24  1  0
 21 22  1  0
 22 23  1  0
 24 25  2  0
 24 28  1  0
 25 26  1  0
 26 27  2  0
 27 28  1  0
M  END
