
     RDKit          3D

 28 31  0  0  0  0  0  0  0  0999 V2000
   -0.8460    4.3990    2.3510 C   0  0  0  0  0  0  0  0  0  0  0  0
   -0.3860    3.1520    1.6470 C   0  0  0  0  0  0  0  0  0  0  0  0
   -1.0340    2.4820    0.6780 N   0  0  0  0  0  0  0  0  0  0  0  0
   -0.3010    1.4090    0.2960 C   0  0  0  0  0  0  0  0  0  0  0  0
    0.8180    1.4170    1.0400 N   0  0  0  0  0  0  0  0  0  0  0  0
    0.7560    2.4710    1.8510 N   0  0  0  0  0  0  0  0  0  0  0  0
    1.6370    0.2870    0.6640 C   0  0  0  0  0  0  0  0  0  0  0  0
    2.4700   -0.2030    1.4270 O   0  0  0  0  0  0  0  0  0  0  0  0
    1.1920   -0.0110   -0.7160 C   0  0  1  0  0  0  0  0  0  0  0  0
    1.4680   -1.3910   -1.1930 C   0  0  0  0  0  0  0  0  0  0  0  0
    2.8520   -1.7760   -1.2070 N   0  0  0  0  0  0  0  0  0  0  0  0
    3.7380   -1.5460   -2.3150 C   0  0  0  0  0  0  0  0  0  0  0  0
    4.9660   -1.8790   -2.3330 N   0  0  0  0  0  0  0  0  0  0  0  0
    5.6370   -2.5300   -1.2540 C   0  0  0  0  0  0  0  0  0  0  0  0
    4.9890   -2.2260    0.0720 C   0  0  0  0  0  0  0  0  0  0  0  0
    3.5110   -2.4310   -0.1010 C   0  0  0  0  0  0  0  0  0  0  0  0
    2.8580   -3.1350    0.6680 O   0  0  0  0  0  0  0  0  0  0  0  0
   -0.2340    0.2630   -0.5800 N   0  0  0  0  0  0  0  0  0  0  0  0
   -1.3610   -0.3700   -1.1260 C   0  0  0  0  0  0  0  0  0  0  0  0
   -1.2670   -1.3610   -1.8770 O   0  0  0  0  0  0  0  0  0  0  0  0
   -2.7210    0.1240   -0.8260 C   0  0  0  0  0  0  0  0  0  0  0  0
   -3.3420    1.0780   -1.6080 C   0  0  0  0  0  0  0  0  0  0  0  0
   -4.5910    1.4970   -1.2910 N   0  0  0  0  0  0  0  0  0  0  0  0
   -5.2610    1.0050   -0.2150 C   0  0  0  0  0  0  0  0  0  0  0  0
   -4.6700    0.0780    0.5540 N   0  0  0  0  0  0  0  0  0  0  0  0
   -5.3730   -0.4530    1.7000 C   0  0  0  0  0  0  0  0  0  0  0  0
   -3.4310   -0.3510    0.2540 C   0  0  0  0  0  0  0  0  0  0  0  0
   -2.9250   -1.2300    1.0210 O   0  0  0  0  0  0  0  0  0  0  0  0
  1  2  1  0
  2  3  1  0
  2  6  2  0
  3  4  2  0
  4  5  1  0
  4 18  1  0
  5  6  1  0
  5  7  1  0
  7  8  2  0
  7  9  1  0
  9 10  1  1
  9 18  1  0
 10 11  1  0
 11 12  1  0
 11 16  1  0
 12 13  2  0
 13 14  1  0
 14 15  1  0
 15 16  1  0
 16 17  2  0
 18 19  1  0
 19 20  2  0
 19 21  1  0
 21 22  2  0
 21 27  1  0
 22 23  1  0
 23 24  2  0
 24 25  1  0
 25 26  1  0
 25 27  1  0
 27 28  2  0
M  END
