
     RDKit          3D

 11 11  0  0  0  0  0  0  0  0999 V2000
   -2.2100   -0.4160    0.4750 C   0  0  0  0  0  0  0  0  0  0  0  0
   -0.7250   -0.1730    0.5670 C   0  0  2  0  0  0  0  0  0  0  0  0
   -0.4240    1.2280    0.0970 C   0  0  2  0  0  0  0  0  0  0  0  0
   -1.1730    1.4190   -1.0840 O   0  0  0  0  0  0  0  0  0  0  0  0
    1.0250    1.4920   -0.1280 C   0  0  1  0  0  0  0  0  0  0  0  0
    1.5860    1.9540    1.0740 O   0  0  0  0  0  0  0  0  0  0  0  0
    1.7270    0.4700   -0.6980 O   0  0  0  0  0  0  0  0  0  0  0  0
    1.5140   -0.7730   -0.1560 C   0  0  2  0  0  0  0  0  0  0  0  0
    2.3420   -1.6790   -0.7970 O   0  0  0  0  0  0  0  0  0  0  0  0
    0.0380   -1.1120   -0.3750 C   0  0  1  0  0  0  0  0  0  0  0  0
   -0.2400   -2.4330   -0.1340 O   0  0  0  0  0  0  0  0  0  0  0  0
  2  1  1  6
  2  3  1  0
  2 10  1  0
  3  4  1  6
  3  5  1  0
  5  6  1  1
  5  7  1  0
  7  8  1  0
  8  9  1  6
  8 10  1  0
 10 11  1  1
M  END
