
     RDKit          3D

 11 11  0  0  0  0  0  0  0  0999 V2000
    2.5950    0.4890    1.0020 O   0  0  0  0  0  0  0  0  0  0  0  0
    1.9570    1.0550   -0.1220 C   0  0  0  0  0  0  0  0  0  0  0  0
    1.0650    0.0250   -0.7750 C   0  0  1  0  0  0  0  0  0  0  0  0
    1.8040   -1.0660   -1.1860 O   0  0  0  0  0  0  0  0  0  0  0  0
   -0.0100   -0.3800    0.2040 C   0  0  1  0  0  0  0  0  0  0  0  0
   -0.8610    0.8000    0.6230 C   0  0  1  0  0  0  0  0  0  0  0  0
   -0.8780    1.7700   -0.3760 O   0  0  0  0  0  0  0  0  0  0  0  0
   -2.2470    0.1410    0.6290 C   0  0  0  0  0  0  0  0  0  0  0  0
   -2.1920   -0.5360   -0.6080 O   0  0  0  0  0  0  0  0  0  0  0  0
   -1.0290   -1.3050   -0.4080 C   0  0  1  0  0  0  0  0  0  0  0  0
   -0.5960   -1.9100   -1.5710 O   0  0  0  0  0  0  0  0  0  0  0  0
  1  2  1  0
  2  3  1  0
  3  4  1  1
  5  3  1  6
  5  6  1  0
  5 10  1  0
  6  7  1  6
  6  8  1  0
  8  9  1  0
  9 10  1  0
 10 11  1  6
M  END
