
     RDKit          3D

 11 11  0  0  0  0  0  0  0  0999 V2000
    1.5360    1.3320   -1.3710 O   0  0  0  0  0  0  0  0  0  0  0  0
    0.6030    1.4040   -0.3660 C   0  0  0  0  0  0  0  0  0  0  0  0
    0.1910    0.0530    0.1560 C   0  0  2  0  0  0  0  0  0  0  0  0
    1.3970   -0.6550    0.7010 C   0  0  0  0  0  0  0  0  0  0  0  0
    2.3530   -0.8220   -0.3040 O   0  0  0  0  0  0  0  0  0  0  0  0
   -0.4780   -0.8060   -0.8500 C   0  0  2  0  0  0  0  0  0  0  0  0
   -0.4720   -0.3250   -2.1350 O   0  0  0  0  0  0  0  0  0  0  0  0
   -1.9100   -0.8630   -0.3330 C   0  0  0  0  0  0  0  0  0  0  0  0
   -1.7140   -0.8890    1.0340 O   0  0  0  0  0  0  0  0  0  0  0  0
   -0.8510    0.1860    1.2400 C   0  0  1  0  0  0  0  0  0  0  0  0
   -0.3000    0.1130    2.5180 O   0  0  0  0  0  0  0  0  0  0  0  0
  1  2  1  0
  3  2  1  6
  3  4  1  0
  3  6  1  0
  3 10  1  0
  4  5  1  0
  6  7  1  6
  6  8  1  0
  8  9  1  0
  9 10  1  0
 10 11  1  1
M  END
