
     RDKit          3D

 11 11  0  0  0  0  0  0  0  0999 V2000
    3.6120    1.0360    0.1460 O   0  0  0  0  0  0  0  0  0  0  0  0
    2.4920    0.4710   -0.4530 C   0  0  0  0  0  0  0  0  0  0  0  0
    1.6040   -0.1250    0.6380 C   0  0  2  0  0  0  0  0  0  0  0  0
    2.3250   -1.0920    1.3180 O   0  0  0  0  0  0  0  0  0  0  0  0
    0.4710   -0.6420    0.0370 O   0  0  0  0  0  0  0  0  0  0  0  0
   -0.6910   -0.0490    0.5170 C   0  0  2  0  0  0  0  0  0  0  0  0
   -1.6710   -1.0540    1.0560 C   0  0  0  0  0  0  0  0  0  0  0  0
   -2.8300   -0.9620    0.3250 O   0  0  0  0  0  0  0  0  0  0  0  0
   -2.8910    0.3620   -0.1040 C   0  0  0  0  0  0  0  0  0  0  0  0
   -1.4740    0.5280   -0.6690 C   0  0  2  0  0  0  0  0  0  0  0  0
   -1.2540   -0.3380   -1.7330 O   0  0  0  0  0  0  0  0  0  0  0  0
  1  2  1  0
  2  3  1  0
  3  4  1  6
  3  5  1  0
  6  5  1  6
  6  7  1  0
  6 10  1  0
  7  8  1  0
  8  9  1  0
  9 10  1  0
 10 11  1  6
M  END
