
     RDKit          3D

 11 11  0  0  0  0  0  0  0  0999 V2000
    3.4160    0.3810    0.5790 O   0  0  0  0  0  0  0  0  0  0  0  0
    2.2300    0.6640   -0.1070 C   0  0  0  0  0  0  0  0  0  0  0  0
    1.2070   -0.3300    0.3100 C   0  0  0  0  0  0  0  0  0  0  0  0
   -0.1270   -0.1670   -0.3350 C   0  0  1  0  0  0  0  0  0  0  0  0
   -0.0920   -0.2710   -1.7160 O   0  0  0  0  0  0  0  0  0  0  0  0
   -1.1550   -1.1360    0.2170 C   0  0  2  0  0  0  0  0  0  0  0  0
   -1.0070   -2.4120   -0.2680 O   0  0  0  0  0  0  0  0  0  0  0  0
   -2.4060   -0.4440   -0.2440 C   0  0  0  0  0  0  0  0  0  0  0  0
   -2.1210    0.8810   -0.4400 O   0  0  0  0  0  0  0  0  0  0  0  0
   -0.8240    1.1220    0.0090 C   0  0  1  0  0  0  0  0  0  0  0  0
   -0.9210    1.2670    1.4100 O   0  0  0  0  0  0  0  0  0  0  0  0
  1  2  1  0
  2  3  1  0
  3  4  1  0
  4  5  1  6
  4  6  1  0
  4 10  1  0
  6  7  1  6
  6  8  1  0
  8  9  1  0
  9 10  1  0
 10 11  1  1
M  END
