
     RDKit          3D

 11 11  0  0  0  0  0  0  0  0999 V2000
    4.1830    0.2630   -0.0150 O   0  0  0  0  0  0  0  0  0  0  0  0
    3.0410   -0.4600   -0.3610 C   0  0  0  0  0  0  0  0  0  0  0  0
    1.8890    0.2760   -0.1940 O   0  0  0  0  0  0  0  0  0  0  0  0
    0.8120   -0.4910   -0.5510 C   0  0  0  0  0  0  0  0  0  0  0  0
   -0.5100    0.2350   -0.4010 C   0  0  2  0  0  0  0  0  0  0  0  0
   -0.5040    1.3650   -1.2120 O   0  0  0  0  0  0  0  0  0  0  0  0
   -0.8240    0.6040    1.0070 C   0  0  0  0  0  0  0  0  0  0  0  0
   -2.2780    0.1300    1.1350 C   0  0  0  0  0  0  0  0  0  0  0  0
   -2.2520   -1.0610    0.4150 O   0  0  0  0  0  0  0  0  0  0  0  0
   -1.6660   -0.6450   -0.7900 C   0  0  1  0  0  0  0  0  0  0  0  0
   -2.5590    0.0330   -1.5990 O   0  0  0  0  0  0  0  0  0  0  0  0
  1  2  1  0
  2  3  1  0
  3  4  1  0
  4  5  1  0
  5  6  1  6
  5  7  1  0
  5 10  1  0
  7  8  1  0
  8  9  1  0
  9 10  1  0
 10 11  1  6
M  END
