
     RDKit          3D

 11 11  0  0  0  0  0  0  0  0999 V2000
    2.9120    1.5160   -0.0320 O   0  0  0  0  0  0  0  0  0  0  0  0
    3.0190    0.1560   -0.3080 C   0  0  0  0  0  0  0  0  0  0  0  0
    1.7770   -0.4190   -0.0520 O   0  0  0  0  0  0  0  0  0  0  0  0
    0.7710    0.1180   -0.8280 C   0  0  2  0  0  0  0  0  0  0  0  0
   -0.3020    0.6920    0.0760 C   0  0  0  0  0  0  0  0  0  0  0  0
   -1.5260   -0.0640   -0.3940 C   0  0  2  0  0  0  0  0  0  0  0  0
   -2.5480   -0.2310    0.6990 C   0  0  0  0  0  0  0  0  0  0  0  0
   -2.9670    0.9950    1.1530 O   0  0  0  0  0  0  0  0  0  0  0  0
   -0.8790   -1.3790   -0.7790 C   0  0  2  0  0  0  0  0  0  0  0  0
   -0.3320   -2.0510    0.2920 O   0  0  0  0  0  0  0  0  0  0  0  0
    0.1910   -0.8950   -1.5580 O   0  0  0  0  0  0  0  0  0  0  0  0
  1  2  1  0
  2  3  1  0
  4  3  1  1
  4  5  1  0
  4 11  1  0
  5  6  1  0
  6  7  1  1
  6  9  1  0
  7  8  1  0
  9 10  1  1
  9 11  1  0
M  END
