
     RDKit          3D

 11 11  0  0  0  0  0  0  0  0999 V2000
    3.6000    0.6810   -1.0990 O   0  0  0  0  0  0  0  0  0  0  0  0
    3.1970    0.4290    0.2340 C   0  0  0  0  0  0  0  0  0  0  0  0
    1.9680   -0.1060    0.2510 O   0  0  0  0  0  0  0  0  0  0  0  0
    0.9060    0.5300   -0.2530 C   0  0  2  0  0  0  0  0  0  0  0  0
   -0.2970    0.7330    0.5700 C   0  0  0  0  0  0  0  0  0  0  0  0
   -1.2370   -0.3800    0.1420 C   0  0  1  0  0  0  0  0  0  0  0  0
   -1.6490   -1.1630    1.2120 O   0  0  0  0  0  0  0  0  0  0  0  0
   -2.4610    0.2370   -0.4920 C   0  0  0  0  0  0  0  0  0  0  0  0
   -3.3410   -0.7100   -0.9530 O   0  0  0  0  0  0  0  0  0  0  0  0
   -0.4090   -1.1750   -0.8160 C   0  0  0  0  0  0  0  0  0  0  0  0
    0.4300   -0.1830   -1.3560 O   0  0  0  0  0  0  0  0  0  0  0  0
  1  2  1  0
  2  3  1  0
  4  3  1  1
  4  5  1  0
  4 11  1  0
  5  6  1  0
  6  7  1  1
  6  8  1  0
  6 10  1  0
  8  9  1  0
 10 11  1  0
M  END
