
     RDKit          3D

 12 12  0  0  0  0  0  0  0  0999 V2000
    2.8680    1.8690   -0.4050 O   0  0  0  0  0  0  0  0  0  0  0  0
    2.4610    0.5550   -0.5700 C   0  0  0  0  0  0  0  0  0  0  0  0
    1.0010    0.4670   -0.1970 C   0  0  1  0  0  0  0  0  0  0  0  0
    0.2190    1.2790   -0.9840 O   0  0  0  0  0  0  0  0  0  0  0  0
   -1.0690    1.3640   -0.5320 C   0  0  2  0  0  0  0  0  0  0  0  0
   -1.0560    2.0390    0.6930 O   0  0  0  0  0  0  0  0  0  0  0  0
   -1.7720    0.0700   -0.3470 C   0  0  1  0  0  0  0  0  0  0  0  0
   -2.4210   -0.3460   -1.4990 O   0  0  0  0  0  0  0  0  0  0  0  0
   -0.8770   -0.9940    0.2370 C   0  0  1  0  0  0  0  0  0  0  0  0
   -1.4390   -2.2410    0.2100 O   0  0  0  0  0  0  0  0  0  0  0  0
    0.5150   -0.9600   -0.4020 C   0  0  2  0  0  0  0  0  0  0  0  0
    1.3310   -1.8260    0.2810 O   0  0  0  0  0  0  0  0  0  0  0  0
  1  2  1  0
  3  2  1  6
  3  4  1  0
  3 11  1  0
  4  5  1  0
  5  6  1  1
  5  7  1  0
  7  8  1  6
  7  9  1  0
  9 10  1  6
  9 11  1  0
 11 12  1  1
M  END
