
     RDKit          3D

 11 11  0  0  0  0  0  0  0  0999 V2000
    3.8470    0.7480    0.4780 O   0  0  0  0  0  0  0  0  0  0  0  0
    3.4670   -0.3370   -0.3010 C   0  0  0  0  0  0  0  0  0  0  0  0
    2.0190   -0.6540   -0.0100 C   0  0  0  0  0  0  0  0  0  0  0  0
    1.1810    0.4210   -0.3010 O   0  0  0  0  0  0  0  0  0  0  0  0
   -0.1010    0.0510   -0.0110 C   0  0  2  0  0  0  0  0  0  0  0  0
   -1.0590    0.1960   -1.1650 C   0  0  0  0  0  0  0  0  0  0  0  0
   -2.3460    0.5930   -0.4660 C   0  0  1  0  0  0  0  0  0  0  0  0
   -3.4330   -0.1400   -0.8700 O   0  0  0  0  0  0  0  0  0  0  0  0
   -1.9680    0.3090    0.9930 C   0  0  2  0  0  0  0  0  0  0  0  0
   -2.8150    0.9220    1.8780 O   0  0  0  0  0  0  0  0  0  0  0  0
   -0.6710    0.8550    1.0050 O   0  0  0  0  0  0  0  0  0  0  0  0
  1  2  1  0
  2  3  1  0
  3  4  1  0
  5  4  1  6
  5  6  1  0
  5 11  1  0
  6  7  1  0
  7  8  1  6
  7  9  1  0
  9 10  1  1
  9 11  1  0
M  END
