
     RDKit          3D

 17 17  0  0  0  0  0  0  0  0999 V2000
    1.6500   -1.2300    1.6740 N   0  0  0  0  0  0  0  0  0  0  0  0
    1.2160    0.0620    1.2190 C   0  0  2  0  0  0  0  0  0  0  0  0
    0.1710   -0.1560    0.3210 O   0  0  0  0  0  0  0  0  0  0  0  0
   -1.0100    0.4070    0.7400 C   0  0  0  0  0  0  0  0  0  0  0  0
   -2.1150    0.1590   -0.2400 C   0  0  2  0  0  0  0  0  0  0  0  0
   -1.8750    0.6700   -1.4890 O   0  0  0  0  0  0  0  0  0  0  0  0
   -3.4590    0.6540    0.2550 C   0  0  0  0  0  0  0  0  0  0  0  0
   -4.3510   -0.1630   -0.6580 C   0  0  0  0  0  0  0  0  0  0  0  0
   -3.6660   -1.2890   -1.0190 O   0  0  0  0  0  0  0  0  0  0  0  0
   -2.4470   -1.3100   -0.3930 C   0  0  0  0  0  0  0  0  0  0  0  0
    2.3450    0.8210    0.6220 C   0  0  2  0  0  0  0  0  0  0  0  0
    1.9100    2.1210    0.2300 O   0  0  0  0  0  0  0  0  0  0  0  0
    2.8970    0.2420   -0.6640 C   0  0  1  0  0  0  0  0  0  0  0  0
    3.9500    1.1200   -1.0760 O   0  0  0  0  0  0  0  0  0  0  0  0
    3.4250   -1.1280   -0.5650 C   0  0  0  0  0  0  0  0  0  0  0  0
    2.7590   -2.1730   -0.3900 O   0  0  0  0  0  0  0  0  0  0  0  0
    4.8240   -1.3630   -0.6690 O   0  0  0  0  0  0  0  0  0  0  0  0
  2  1  1  6
  2  3  1  0
  2 11  1  0
  3  4  1  0
  4  5  1  0
  5  6  1  6
  5  7  1  0
  5 10  1  0
  7  8  1  0
  8  9  1  0
  9 10  1  0
 11 12  1  6
 11 13  1  0
 13 14  1  1
 13 15  1  0
 15 16  2  0
 15 17  1  0
M  END
