
     RDKit          3D

 17 17  0  0  0  0  0  0  0  0999 V2000
   -0.5170    0.6110    2.4650 C   0  0  0  0  0  0  0  0  0  0  0  0
   -0.6430   -0.3830    1.5350 O   0  0  0  0  0  0  0  0  0  0  0  0
   -0.7170    0.0110    0.2250 C   0  0  2  0  0  0  0  0  0  0  0  0
    0.5150    0.7300   -0.1910 C   0  0  2  0  0  0  0  0  0  0  0  0
    0.4530    1.1600   -1.5280 O   0  0  0  0  0  0  0  0  0  0  0  0
    1.6870   -0.2450   -0.1160 C   0  0  2  0  0  0  0  0  0  0  0  0
    1.8370   -0.7550    1.1780 O   0  0  0  0  0  0  0  0  0  0  0  0
    2.9470    0.4020   -0.5500 C   0  0  0  0  0  0  0  0  0  0  0  0
    3.0640    0.9130   -1.8180 O   0  0  0  0  0  0  0  0  0  0  0  0
    3.9210    0.4790    0.2620 N   0  0  0  0  0  0  0  0  0  0  0  0
    5.0830    1.0780   -0.1460 O   0  0  0  0  0  0  0  0  0  0  0  0
   -1.9740    0.8490    0.0560 C   0  0  0  0  0  0  0  0  0  0  0  0
   -3.1040    0.0260    0.6420 C   0  0  0  0  0  0  0  0  0  0  0  0
   -3.3090   -1.0930   -0.1230 O   0  0  0  0  0  0  0  0  0  0  0  0
   -2.3920   -1.3050   -1.1140 C   0  0  2  0  0  0  0  0  0  0  0  0
   -2.5130   -2.6190   -1.6240 O   0  0  0  0  0  0  0  0  0  0  0  0
   -0.9380   -1.2130   -0.6380 C   0  0  0  0  0  0  0  0  0  0  0  0
  1  2  1  0
  3  2  1  1
  3  4  1  0
  3 12  1  0
  3 17  1  0
  4  5  1  6
  4  6  1  0
  6  7  1  1
  6  8  1  0
  8  9  1  0
  8 10  2  3
 10 11  1  0
 12 13  1  0
 13 14  1  0
 14 15  1  0
 15 16  1  1
 15 17  1  0
M  END
