
     RDKit          3D

 17 17  0  0  0  0  0  0  0  0999 V2000
   -2.4150    2.1500    0.9100 C   0  0  0  0  0  0  0  0  0  0  0  0
   -2.0440    1.1300    1.7630 O   0  0  0  0  0  0  0  0  0  0  0  0
   -2.4000   -0.1290    1.4220 C   0  0  0  0  0  0  0  0  0  0  0  0
   -1.8930   -0.7190    0.1640 C   0  0  1  0  0  0  0  0  0  0  0  0
   -2.4710   -2.0280    0.1240 O   0  0  0  0  0  0  0  0  0  0  0  0
   -2.3680   -0.0410   -0.9220 O   0  0  0  0  0  0  0  0  0  0  0  0
   -1.5270   -0.2420   -1.9790 C   0  0  0  0  0  0  0  0  0  0  0  0
   -0.1410   -0.2650   -1.3470 C   0  0  0  0  0  0  0  0  0  0  0  0
   -0.4120   -0.8620    0.0220 C   0  0  2  0  0  0  0  0  0  0  0  0
   -0.1370   -2.2310   -0.1190 O   0  0  0  0  0  0  0  0  0  0  0  0
    0.3800   -0.2220    1.0850 C   0  0  0  0  0  0  0  0  0  0  0  0
    1.8470   -0.3170    1.0950 C   0  0  1  0  0  0  0  0  0  0  0  0
    2.3860   -1.6050    1.1500 O   0  0  0  0  0  0  0  0  0  0  0  0
    2.6560    0.5000    0.1530 C   0  0  1  0  0  0  0  0  0  0  0  0
    3.9790    0.5560    0.7390 O   0  0  0  0  0  0  0  0  0  0  0  0
    2.8660   -0.1530   -1.0720 O   0  0  0  0  0  0  0  0  0  0  0  0
    2.8780    0.7340   -2.0710 N   0  0  0  0  0  0  0  0  0  0  0  0
  1  2  1  0
  2  3  1  0
  3  4  1  0
  4  5  1  6
  4  6  1  0
  4  9  1  0
  6  7  1  0
  7  8  1  0
  8  9  1  0
  9 10  1  6
  9 11  1  0
 11 12  1  0
 12 13  1  6
 12 14  1  0
 14 15  1  1
 14 16  1  0
 16 17  1  0
M  END
