
     RDKit          3D

 17 17  0  0  0  0  0  0  0  0999 V2000
   -2.5110    0.2270    1.2660 C   0  0  0  0  0  0  0  0  0  0  0  0
   -1.6900    0.0500    0.0010 C   0  0  1  0  0  0  0  0  0  0  0  0
   -2.3750   -0.9230   -0.7410 O   0  0  0  0  0  0  0  0  0  0  0  0
   -1.7590    1.3130   -0.7760 C   0  0  0  0  0  0  0  0  0  0  0  0
   -3.0970    1.6730   -0.9510 O   0  0  0  0  0  0  0  0  0  0  0  0
   -0.3590   -0.4840    0.3330 C   0  0  2  0  0  0  0  0  0  0  0  0
   -0.5310   -1.7990    1.0050 C   0  0  0  0  0  0  0  0  0  0  0  0
   -1.1670   -2.9070    0.3900 N   0  0  0  0  0  0  0  0  0  0  0  0
   -0.1040   -1.9620    2.1730 O   0  0  0  0  0  0  0  0  0  0  0  0
    0.5940    0.3160    1.0790 C   0  0  0  0  0  0  0  0  0  0  0  0
    1.8420    0.3080    0.1860 C   0  0  1  0  0  0  0  0  0  0  0  0
    2.9990    0.3820    0.9450 O   0  0  0  0  0  0  0  0  0  0  0  0
    3.7510    1.4460    0.4590 C   0  0  0  0  0  0  0  0  0  0  0  0
    4.9480    1.5970    1.1720 O   0  0  0  0  0  0  0  0  0  0  0  0
    1.7060   -0.9270   -0.4490 O   0  0  0  0  0  0  0  0  0  0  0  0
    0.3980   -0.7910   -0.9710 C   0  0  1  0  0  0  0  0  0  0  0  0
   -0.0510   -1.9470   -1.5610 O   0  0  0  0  0  0  0  0  0  0  0  0
  2  1  1  1
  2  3  1  0
  2  4  1  0
  2  6  1  0
  4  5  1  0
  6  7  1  1
  6 10  1  0
  6 16  1  0
  7  8  1  0
  7  9  2  0
 10 11  1  0
 11 12  1  1
 11 15  1  0
 12 13  1  0
 13 14  1  0
 15 16  1  0
 16 17  1  1
M  END
