
     RDKit          3D

 17 17  0  0  0  0  0  0  0  0999 V2000
    1.3600   -1.9520    1.2150 C   0  0  0  0  0  0  0  0  0  0  0  0
    0.9450   -0.5390    0.8550 C   0  0  1  0  0  0  0  0  0  0  0  0
    1.0200    0.1790    2.0600 O   0  0  0  0  0  0  0  0  0  0  0  0
    1.8100    0.0550   -0.1920 C   0  0  1  0  0  0  0  0  0  0  0  0
    2.5840    1.1030    0.3970 O   0  0  0  0  0  0  0  0  0  0  0  0
    2.9330   -0.9460   -0.5870 C   0  0  0  0  0  0  0  0  0  0  0  0
    3.8210   -0.1530   -1.3120 O   0  0  0  0  0  0  0  0  0  0  0  0
    4.6690    0.4940   -0.5270 N   0  0  0  0  0  0  0  0  0  0  0  0
   -0.5090   -0.5340    0.4780 C   0  0  2  0  0  0  0  0  0  0  0  0
   -0.7740   -0.8210   -0.8470 O   0  0  0  0  0  0  0  0  0  0  0  0
   -2.1730   -0.7210   -0.8190 C   0  0  0  0  0  0  0  0  0  0  0  0
   -2.3590    0.5610   -0.0060 C   0  0  2  0  0  0  0  0  0  0  0  0
   -3.5240    0.4720    0.9120 C   0  0  0  0  0  0  0  0  0  0  0  0
   -4.7120    0.1660    0.2420 O   0  0  0  0  0  0  0  0  0  0  0  0
   -2.4570    1.7500   -0.9490 C   0  0  0  0  0  0  0  0  0  0  0  0
   -1.8290    1.5450   -2.1670 O   0  0  0  0  0  0  0  0  0  0  0  0
   -1.1760    0.6250    0.7060 O   0  0  0  0  0  0  0  0  0  0  0  0
  2  1  1  1
  2  3  1  0
  2  4  1  0
  2  9  1  0
  4  5  1  1
  4  6  1  0
  6  7  1  0
  7  8  1  0
  9 10  1  6
  9 17  1  0
 10 11  1  0
 11 12  1  0
 12 13  1  1
 12 15  1  0
 12 17  1  0
 13 14  1  0
 15 16  1  0
M  END
