
     RDKit          3D

 17 17  0  0  0  0  0  0  0  0999 V2000
   -3.1330    0.3170    2.1110 C   0  0  0  0  0  0  0  0  0  0  0  0
   -2.0660   -0.4130    1.6010 O   0  0  0  0  0  0  0  0  0  0  0  0
   -1.8810   -0.0720    0.2880 C   0  0  2  0  0  0  0  0  0  0  0  0
   -2.1140   -1.2310   -0.6590 C   0  0  0  0  0  0  0  0  0  0  0  0
   -2.1570   -0.7070   -1.9460 O   0  0  0  0  0  0  0  0  0  0  0  0
   -0.9400   -0.1440   -2.3280 C   0  0  0  0  0  0  0  0  0  0  0  0
   -0.5500    1.0000   -1.4170 C   0  0  0  0  0  0  0  0  0  0  0  0
   -0.5440    0.5960    0.0290 C   0  0  1  0  0  0  0  0  0  0  0  0
   -0.5820    1.7650    0.8280 O   0  0  0  0  0  0  0  0  0  0  0  0
    0.6120   -0.2150    0.4750 C   0  0  1  0  0  0  0  0  0  0  0  0
    0.7690   -1.3950   -0.2480 O   0  0  0  0  0  0  0  0  0  0  0  0
    1.9450    0.5030    0.4520 C   0  0  2  0  0  0  0  0  0  0  0  0
    2.3830    0.7740   -0.8300 O   0  0  0  0  0  0  0  0  0  0  0  0
    2.9920   -0.2340    1.1690 C   0  0  0  0  0  0  0  0  0  0  0  0
    2.8780   -0.6160    2.5040 O   0  0  0  0  0  0  0  0  0  0  0  0
    4.0740   -0.5590    0.5800 N   0  0  0  0  0  0  0  0  0  0  0  0
    4.3790   -0.2780   -0.7220 O   0  0  0  0  0  0  0  0  0  0  0  0
  1  2  1  0
  3  2  1  1
  3  4  1  0
  3  8  1  0
  4  5  1  0
  5  6  1  0
  6  7  1  0
  7  8  1  0
  8  9  1  1
  8 10  1  0
 10 11  1  6
 10 12  1  0
 12 13  1  6
 12 14  1  0
 14 15  1  0
 14 16  2  3
 16 17  1  0
M  END
