
     RDKit          3D

 24 26  0  0  0  0  0  0  0  0999 V2000
    6.1710    1.0490   -0.4060 C   0  0  0  0  0  0  0  0  0  0  0  0
    5.2910   -0.0360    0.0930 C   0  0  1  0  0  0  0  0  0  0  0  0
    5.1840   -0.1400    1.4770 O   0  0  0  0  0  0  0  0  0  0  0  0
    3.9590   -0.7450    1.8040 C   0  0  0  0  0  0  0  0  0  0  0  0
    3.5690   -1.0320    2.9580 O   0  0  0  0  0  0  0  0  0  0  0  0
    3.2280   -0.9740    0.5310 C   0  0  1  0  0  0  0  0  0  0  0  0
    1.7400   -0.9110    0.6450 C   0  0  0  0  0  0  0  0  0  0  0  0
    1.1380    0.4100    0.2600 C   0  0  1  0  0  0  0  0  0  0  0  0
   -0.2340    0.5910    0.8050 C   0  0  0  0  0  0  0  0  0  0  0  0
   -1.1160   -0.4810    0.2850 C   0  0  0  0  0  0  0  0  0  0  0  0
   -0.8680   -1.6820    0.4630 O   0  0  0  0  0  0  0  0  0  0  0  0
   -2.2730   -0.1780   -0.4350 O   0  0  0  0  0  0  0  0  0  0  0  0
   -3.1230   -1.1810   -0.9350 C   0  0  0  0  0  0  0  0  0  0  0  0
   -4.2650   -0.5350   -1.6850 C   0  0  1  0  0  0  0  0  0  0  0  0
   -5.1180   -1.5290   -2.1840 O   0  0  0  0  0  0  0  0  0  0  0  0
   -4.9780    0.4290   -0.8090 C   0  0  0  0  0  0  0  0  0  0  0  0
   -5.8790    0.1440    0.1700 C   0  0  0  0  0  0  0  0  0  0  0  0
   -6.2830    1.3280    0.7190 C   0  0  0  0  0  0  0  0  0  0  0  0
   -5.5920    2.3110    0.0320 C   0  0  0  0  0  0  0  0  0  0  0  0
   -4.8360    1.7420   -0.8590 O   0  0  0  0  0  0  0  0  0  0  0  0
    2.0190    1.4340    0.7570 O   0  0  0  0  0  0  0  0  0  0  0  0
    3.3190    1.4090    0.2870 C   0  0  0  0  0  0  0  0  0  0  0  0
    3.9960    2.4600    0.3960 O   0  0  0  0  0  0  0  0  0  0  0  0
    3.8230    0.1670   -0.3050 C   0  0  1  0  0  0  0  0  0  0  0  0
  2  1  1  1
  2  3  1  0
  2 24  1  0
  3  4  1  0
  4  5  2  0
  4  6  1  0
  6  7  1  1
  6 24  1  0
  7  8  1  0
  8  9  1  1
  8 21  1  0
  9 10  1  0
 10 11  2  0
 10 12  1  0
 12 13  1  0
 13 14  1  0
 14 15  1  1
 14 16  1  0
 16 17  2  0
 16 20  1  0
 17 18  1  0
 18 19  2  0
 19 20  1  0
 21 22  1  0
 22 23  2  0
 24 22  1  1
M  END
