
     RDKit          3D

 21 21  0  0  0  0  0  0  0  0999 V2000
   -0.5750    0.2700    1.0110 O   0  0  0  0  0  0  0  0  0  0  0  0
   -0.7900   -0.9010    0.6500 C   0  0  0  0  0  0  0  0  0  0  0  0
   -1.8940   -1.5920    1.1900 N   0  0  0  0  0  0  0  0  0  0  0  0
   -2.7500   -0.9700    2.1310 C   0  0  0  0  0  0  0  0  0  0  0  0
   -3.4340    0.2770    1.6230 C   0  0  0  0  0  0  0  0  0  0  0  0
   -4.2320    0.7480    2.6820 O   0  0  0  0  0  0  0  0  0  0  0  0
   -5.0820    2.1870    2.2370 P   0  0  0  0  0  0  0  0  0  0  0  0
   -6.7200    2.1640    2.7540 O   0  0  0  0  0  0  0  0  0  0  0  0
   -4.9230    2.5400    0.5540 O   0  0  0  0  0  0  0  0  0  0  0  0
    0.1000   -1.4670   -0.2920 N   0  0  0  0  0  0  0  0  0  0  0  0
    1.2160   -0.7720   -0.8400 C   0  0  2  0  0  0  0  0  0  0  0  0
    1.2210   -0.7410   -2.3380 C   0  0  0  0  0  0  0  0  0  0  0  0
    2.1970   -0.0020   -2.9020 O   0  0  0  0  0  0  0  0  0  0  0  0
    2.7610    0.9970   -2.1830 C   0  0  0  0  0  0  0  0  0  0  0  0
    3.9430    0.5220   -1.3280 C   0  0  1  0  0  0  0  0  0  0  0  0
    4.8500   -0.0480   -2.2460 O   0  0  0  0  0  0  0  0  0  0  0  0
    4.5310    1.6640   -0.7960 O   0  0  0  0  0  0  0  0  0  0  0  0
    3.7030    2.3410   -0.0600 O   0  0  0  0  0  0  0  0  0  0  0  0
    3.5360   -0.4200   -0.2860 C   0  0  0  0  0  0  0  0  0  0  0  0
    4.1010   -0.3520    0.7930 O   0  0  0  0  0  0  0  0  0  0  0  0
    2.4920   -1.4770   -0.3840 C   0  0  0  0  0  0  0  0  0  0  0  0
  1  2  2  0
  2  3  1  0
  2 10  1  0
  3  4  1  0
  4  5  1  0
  5  6  1  0
  6  7  1  0
  7  8  1  0
  7  9  1  0
 11 10  1  6
 11 12  1  0
 11 21  1  0
 12 13  1  0
 13 14  1  0
 14 15  1  0
 15 16  1  6
 15 17  1  0
 15 19  1  0
 17 18  1  0
 19 20  2  0
 19 21  1  0
M  END
