
     RDKit          3D

 20 21  0  0  0  0  0  0  0  0999 V2000
   -2.9290   -2.9790    1.5480 N   0  0  0  0  0  0  0  0  0  0  0  0
   -2.6340   -1.8240    1.0130 C   0  0  0  0  0  0  0  0  0  0  0  0
   -1.3060   -1.6600    0.5290 N   0  0  0  0  0  0  0  0  0  0  0  0
   -0.7170   -0.6000    0.0930 C   0  0  0  0  0  0  0  0  0  0  0  0
    0.6780   -0.7350   -0.3470 C   0  0  0  0  0  0  0  0  0  0  0  0
    1.3810   -1.8550   -0.3320 C   0  0  0  0  0  0  0  0  0  0  0  0
    2.6640   -1.5810   -0.8260 O   0  0  0  0  0  0  0  0  0  0  0  0
    2.6080   -0.3100   -1.4900 C   0  0  2  0  0  0  0  0  0  0  0  0
    3.8990    0.4010   -1.1700 C   0  0  0  0  0  0  0  0  0  0  0  0
    3.9530    0.5370    0.2260 O   0  0  0  0  0  0  0  0  0  0  0  0
    5.4240    1.3550    0.6970 P   0  0  0  0  0  0  0  0  0  0  0  0
    6.5320    1.2910   -0.6580 O   0  0  0  0  0  0  0  0  0  0  0  0
    6.1920    0.5450    2.0250 O   0  0  0  0  0  0  0  0  0  0  0  0
    1.4980    0.2630   -0.8470 O   0  0  0  0  0  0  0  0  0  0  0  0
   -1.2980    0.6560    0.0060 O   0  0  0  0  0  0  0  0  0  0  0  0
   -2.6370    1.0370   -0.2420 C   0  0  0  0  0  0  0  0  0  0  0  0
   -3.6040    0.5380    0.7860 C   0  0  1  0  0  0  0  0  0  0  0  0
   -4.9950    0.9390    0.3360 C   0  0  0  0  0  0  0  0  0  0  0  0
   -5.1000    2.3100    0.1410 O   0  0  0  0  0  0  0  0  0  0  0  0
   -3.6100   -0.8520    0.9520 O   0  0  0  0  0  0  0  0  0  0  0  0
  1  2  2  0
  2  3  1  0
  2 20  1  0
  3  4  2  0
  4  5  1  0
  4 15  1  0
  5  6  2  0
  5 14  1  0
  6  7  1  0
  7  8  1  0
  8  9  1  1
  8 14  1  0
  9 10  1  0
 10 11  1  0
 11 12  1  0
 11 13  1  0
 15 16  1  0
 16 17  1  0
 17 18  1  6
 17 20  1  0
 18 19  1  0
M  END
