
     RDKit          3D

 20 21  0  0  0  0  0  0  0  0999 V2000
   -2.5790   -0.3600   -0.0990 N   0  0  0  0  0  0  0  0  0  0  0  0
   -2.2320    0.6400    0.8300 C   0  0  2  0  0  0  0  0  0  0  0  0
   -0.8430    1.1390    0.8260 C   0  0  0  0  0  0  0  0  0  0  0  0
    0.2610    0.5670    0.4230 C   0  0  0  0  0  0  0  0  0  0  0  0
    0.4090   -0.7760   -0.1490 C   0  0  0  0  0  0  0  0  0  0  0  0
   -0.4760   -1.6150   -0.3480 O   0  0  0  0  0  0  0  0  0  0  0  0
    1.7330   -1.2010   -0.5370 N   0  0  0  0  0  0  0  0  0  0  0  0
    1.9450   -2.5360   -1.1160 C   0  0  0  0  0  0  0  0  0  0  0  0
    3.2870   -2.6590   -1.3840 O   0  0  0  0  0  0  0  0  0  0  0  0
    3.8440   -1.4580   -2.5020 P   0  0  0  0  0  0  0  0  0  0  0  0
    4.7170   -0.2040   -1.7070 O   0  0  0  0  0  0  0  0  0  0  0  0
    4.8150   -2.1190   -3.7520 O   0  0  0  0  0  0  0  0  0  0  0  0
    1.3870    1.5350    0.6260 C   0  0  0  0  0  0  0  0  0  0  0  0
    0.8430    2.6030    1.2940 O   0  0  0  0  0  0  0  0  0  0  0  0
   -0.5030    2.4710    1.4000 C   0  0  0  0  0  0  0  0  0  0  0  0
   -1.3090    3.3050    1.8860 O   0  0  0  0  0  0  0  0  0  0  0  0
   -2.7510    0.4170    2.2430 C   0  0  0  0  0  0  0  0  0  0  0  0
   -4.1240    0.5650    2.0540 O   0  0  0  0  0  0  0  0  0  0  0  0
   -4.2970    1.2630    0.8660 C   0  0  0  0  0  0  0  0  0  0  0  0
   -3.0410    1.7990    0.5430 O   0  0  0  0  0  0  0  0  0  0  0  0
  2  1  1  6
  2  3  1  0
  2 17  1  0
  2 20  1  0
  3  4  2  0
  3 15  1  0
  4  5  1  0
  4 13  1  0
  5  6  2  0
  5  7  1  0
  7  8  1  0
  8  9  1  0
  9 10  1  0
 10 11  1  0
 10 12  1  0
 13 14  1  0
 14 15  1  0
 15 16  2  0
 17 18  1  0
 18 19  1  0
 19 20  1  0
M  END
