
     RDKit          3D

 20 20  0  0  0  0  0  0  0  0999 V2000
    6.3390    0.1420    0.6090 C   0  0  0  0  0  0  0  0  0  0  0  0
    4.9670    0.2460    0.9790 O   0  0  0  0  0  0  0  0  0  0  0  0
    3.9640    0.1020    0.0260 C   0  0  0  0  0  0  0  0  0  0  0  0
    4.2710   -0.1230   -1.1750 O   0  0  0  0  0  0  0  0  0  0  0  0
    2.6170    0.1940    0.3370 O   0  0  0  0  0  0  0  0  0  0  0  0
    1.6050    0.0520   -0.6070 C   0  0  0  0  0  0  0  0  0  0  0  0
    1.9520   -0.1710   -1.7910 O   0  0  0  0  0  0  0  0  0  0  0  0
    0.2350    0.1450   -0.2950 N   0  0  0  0  0  0  0  0  0  0  0  0
   -0.2560    0.3920    1.0490 C   0  0  0  0  0  0  0  0  0  0  0  0
   -1.7090   -0.0530    1.0090 C   0  0  1  0  0  0  0  0  0  0  0  0
   -2.7020    0.8900    2.2630 P   0  0  0  0  0  0  0  0  0  0  0  0
   -3.9070   -0.1970    2.9060 O   0  0  0  0  0  0  0  0  0  0  0  0
   -1.6170    1.2510    3.5930 O   0  0  0  0  0  0  0  0  0  0  0  0
   -2.0850    0.3240   -0.4000 C   0  0  2  0  0  0  0  0  0  0  0  0
   -3.3220   -0.4180   -0.8530 C   0  0  0  0  0  0  0  0  0  0  0  0
   -3.0890   -1.8220   -0.8130 N   0  0  0  0  0  0  0  0  0  0  0  0
   -0.8680    0.0130   -1.2040 C   0  0  1  0  0  0  0  0  0  0  0  0
   -0.7380    0.9230   -2.3760 C   0  0  0  0  0  0  0  0  0  0  0  0
    0.2390    1.6930   -2.4240 O   0  0  0  0  0  0  0  0  0  0  0  0
   -1.6700    0.9250   -3.3910 O   0  0  0  0  0  0  0  0  0  0  0  0
  1  2  1  0
  2  3  1  0
  3  4  2  0
  3  5  1  0
  5  6  1  0
  6  7  2  0
  6  8  1  0
  8  9  1  0
  8 17  1  0
  9 10  1  0
 10 11  1  1
 10 14  1  0
 11 12  1  0
 11 13  1  0
 14 15  1  6
 14 17  1  0
 15 16  1  0
 17 18  1  6
 18 19  2  0
 18 20  1  0
M  END
