
     RDKit          3D

 20 20  0  0  0  0  0  0  0  0999 V2000
   -1.4300    2.5010   -0.0100 N   0  0  0  0  0  0  0  0  0  0  0  0
   -2.2630    1.4760   -0.5280 C   0  0  2  0  0  0  0  0  0  0  0  0
   -3.6930    1.7470   -0.0550 C   0  0  0  0  0  0  0  0  0  0  0  0
   -4.4320    0.6240   -0.3800 O   0  0  0  0  0  0  0  0  0  0  0  0
   -4.6130   -0.4650    0.9410 P   0  0  0  0  0  0  0  0  0  0  0  0
   -5.1850   -1.9880    0.3420 O   0  0  0  0  0  0  0  0  0  0  0  0
   -3.2130   -0.6970    1.8630 O   0  0  0  0  0  0  0  0  0  0  0  0
   -2.1080    0.0090    1.4800 C   0  0  0  0  0  0  0  0  0  0  0  0
   -1.9210    0.0770   -0.0190 C   0  0  1  0  0  0  0  0  0  0  0  0
   -2.8040   -0.7750   -0.6820 O   0  0  0  0  0  0  0  0  0  0  0  0
   -0.5460   -0.3300   -0.4090 C   0  0  0  0  0  0  0  0  0  0  0  0
   -0.3610   -1.2950   -1.2300 O   0  0  0  0  0  0  0  0  0  0  0  0
    0.5270    0.3850    0.1560 N   0  0  0  0  0  0  0  0  0  0  0  0
    1.8790    0.0360   -0.1850 C   0  0  0  0  0  0  0  0  0  0  0  0
    2.2340   -1.3760    0.1760 C   0  0  0  0  0  0  0  0  0  0  0  0
    3.6900   -1.5860   -0.2480 C   0  0  0  0  0  0  0  0  0  0  0  0
    4.4620   -0.6380    0.4730 O   0  0  0  0  0  0  0  0  0  0  0  0
    5.8530   -0.5770    0.3010 C   0  0  0  0  0  0  0  0  0  0  0  0
    6.4130   -1.3680   -0.4970 O   0  0  0  0  0  0  0  0  0  0  0  0
    6.5620    0.3620    1.0260 O   0  0  0  0  0  0  0  0  0  0  0  0
  2  1  1  1
  2  3  1  0
  2  9  1  0
  3  4  1  0
  4  5  1  0
  5  6  1  0
  5  7  1  0
  7  8  1  0
  8  9  1  0
  9 10  1  6
  9 11  1  0
 11 12  2  0
 11 13  1  0
 13 14  1  0
 14 15  1  0
 15 16  1  0
 16 17  1  0
 17 18  1  0
 18 19  2  0
 18 20  1  0
M  END
