
     RDKit          3D

 21 22  0  0  0  0  0  0  0  0999 V2000
    3.0830    2.9080    3.1310 O   0  0  0  0  0  0  0  0  0  0  0  0
    2.5190    1.4700    2.9130 P   0  0  0  0  0  0  0  0  0  0  0  0
    2.1600    0.8660    1.3340 O   0  0  0  0  0  0  0  0  0  0  0  0
    3.0290   -0.1810    1.0370 C   0  0  0  0  0  0  0  0  0  0  0  0
    2.7400   -0.7340   -0.3430 C   0  0  0  0  0  0  0  0  0  0  0  0
    1.3840   -1.2400   -0.4410 N   0  0  0  0  0  0  0  0  0  0  0  0
    1.0930   -2.6190   -0.1230 C   0  0  0  0  0  0  0  0  0  0  0  0
    2.0300   -3.3750    0.2410 O   0  0  0  0  0  0  0  0  0  0  0  0
   -0.2180   -3.0640   -0.2300 O   0  0  0  0  0  0  0  0  0  0  0  0
   -1.2700   -2.2500   -0.6280 C   0  0  0  0  0  0  0  0  0  0  0  0
   -2.3470   -2.7080   -1.0940 O   0  0  0  0  0  0  0  0  0  0  0  0
   -1.0680   -0.7810   -0.4790 C   0  0  2  0  0  0  0  0  0  0  0  0
   -1.4450   -0.3160    0.9090 C   0  0  0  0  0  0  0  0  0  0  0  0
   -2.4810    0.6210    0.7400 O   0  0  0  0  0  0  0  0  0  0  0  0
   -2.1180    1.1750   -0.5070 C   0  0  2  0  0  0  0  0  0  0  0  0
   -3.1080    2.1110   -1.0150 C   0  0  0  0  0  0  0  0  0  0  0  0
   -3.7650    1.8370   -2.0480 O   0  0  0  0  0  0  0  0  0  0  0  0
   -3.3640    3.3210   -0.3920 O   0  0  0  0  0  0  0  0  0  0  0  0
   -2.0010   -0.0320   -1.3010 N   0  0  0  0  0  0  0  0  0  0  0  0
    0.3160   -0.3940   -0.8510 C   0  0  0  0  0  0  0  0  0  0  0  0
    0.6010    0.6360   -1.5070 O   0  0  0  0  0  0  0  0  0  0  0  0
  1  2  2  0
  2  3  1  0
  3  4  1  0
  4  5  1  0
  5  6  1  0
  6  7  1  0
  6 20  1  0
  7  8  2  0
  7  9  1  0
  9 10  1  0
 10 11  2  0
 10 12  1  0
 12 13  1  1
 12 19  1  0
 12 20  1  0
 13 14  1  0
 14 15  1  0
 15 16  1  6
 15 19  1  0
 16 17  2  0
 16 18  1  0
 20 21  2  0
M  END
