
     RDKit          3D

 21 22  0  0  0  0  0  0  0  0999 V2000
    1.0740   -1.1800    1.1660 O   0  0  0  0  0  0  0  0  0  0  0  0
    0.7000   -0.7350    0.0500 C   0  0  0  0  0  0  0  0  0  0  0  0
    1.5250   -0.9100   -1.0250 O   0  0  0  0  0  0  0  0  0  0  0  0
    2.7700   -1.5470   -1.0160 C   0  0  0  0  0  0  0  0  0  0  0  0
    3.7600   -0.8780   -0.0870 C   0  0  0  0  0  0  0  0  0  0  0  0
    3.9780    0.4400   -0.4650 O   0  0  0  0  0  0  0  0  0  0  0  0
    5.1150    1.1340    0.6400 P   0  0  0  0  0  0  0  0  0  0  0  0
    6.4490    0.0780    0.9400 O   0  0  0  0  0  0  0  0  0  0  0  0
    5.7630    2.6290    0.0100 O   0  0  0  0  0  0  0  0  0  0  0  0
   -0.5690   -0.0610   -0.0710 N   0  0  0  0  0  0  0  0  0  0  0  0
   -0.9510    0.4330   -1.3810 C   0  0  0  0  0  0  0  0  0  0  0  0
   -2.3280   -0.1780   -1.6670 C   0  0  0  0  0  0  0  0  0  0  0  0
   -3.2640    0.4040   -0.6710 C   0  0  1  0  0  0  0  0  0  0  0  0
   -4.5890    0.1120   -0.8650 O   0  0  0  0  0  0  0  0  0  0  0  0
   -5.3790    0.8960   -0.2090 O   0  0  0  0  0  0  0  0  0  0  0  0
   -4.9490    1.1930    1.0380 N   0  0  0  0  0  0  0  0  0  0  0  0
   -3.8190    0.5850    1.6360 C   0  0  0  0  0  0  0  0  0  0  0  0
   -3.6540    0.6670    2.8690 O   0  0  0  0  0  0  0  0  0  0  0  0
   -2.8930   -0.1240    0.7220 C   0  0  1  0  0  0  0  0  0  0  0  0
   -3.2220   -1.4690    0.7550 O   0  0  0  0  0  0  0  0  0  0  0  0
   -1.4460    0.1340    1.0380 C   0  0  0  0  0  0  0  0  0  0  0  0
  1  2  2  0
  2  3  1  0
  2 10  1  0
  3  4  1  0
  4  5  1  0
  5  6  1  0
  6  7  1  0
  7  8  1  0
  7  9  1  0
 10 11  1  0
 10 21  1  0
 11 12  1  0
 13 12  1  6
 13 14  1  0
 13 19  1  0
 14 15  1  0
 15 16  1  0
 16 17  1  0
 17 18  2  0
 17 19  1  0
 19 20  1  6
 19 21  1  0
M  END
