
     RDKit          3D

 20 21  0  0  0  0  0  0  0  0999 V2000
    5.5400   -1.6860   -1.6290 O   0  0  0  0  0  0  0  0  0  0  0  0
    4.8670   -0.8090   -1.0250 C   0  0  0  0  0  0  0  0  0  0  0  0
    5.3580    0.4910   -0.7260 N   0  0  0  0  0  0  0  0  0  0  0  0
    4.2110    1.2130   -0.2130 C   0  0  0  0  0  0  0  0  0  0  0  0
    3.4480    0.0830    0.4450 C   0  0  1  0  0  0  0  0  0  0  0  0
    2.0430    0.4480    0.7350 C   0  0  0  0  0  0  0  0  0  0  0  0
    1.8020    1.3210    1.5820 O   0  0  0  0  0  0  0  0  0  0  0  0
    0.9540   -0.1450    0.0970 O   0  0  0  0  0  0  0  0  0  0  0  0
   -0.3520    0.2420    0.4130 C   0  0  1  0  0  0  0  0  0  0  0  0
   -1.0160    0.7760   -0.8220 C   0  0  0  0  0  0  0  0  0  0  0  0
   -0.8730    1.9030   -1.2420 O   0  0  0  0  0  0  0  0  0  0  0  0
   -1.8240   -0.3610   -1.3360 C   0  0  0  0  0  0  0  0  0  0  0  0
   -2.3100   -0.9630   -0.1100 N   0  0  0  0  0  0  0  0  0  0  0  0
   -3.6400   -1.5280    0.1220 C   0  0  0  0  0  0  0  0  0  0  0  0
   -4.8100   -0.2370    0.7640 P   0  0  0  0  0  0  0  0  0  0  0  0
   -6.3970   -0.4160    0.1150 O   0  0  0  0  0  0  0  0  0  0  0  0
   -4.1780    1.3590    0.5110 O   0  0  0  0  0  0  0  0  0  0  0  0
   -1.2250   -0.8850    0.8070 C   0  0  0  0  0  0  0  0  0  0  0  0
   -1.0550   -1.6640    1.7930 O   0  0  0  0  0  0  0  0  0  0  0  0
    3.5480   -0.9260   -0.5430 O   0  0  0  0  0  0  0  0  0  0  0  0
  1  2  2  0
  2  3  1  0
  2 20  1  0
  3  4  1  0
  4  5  1  0
  5  6  1  6
  5 20  1  0
  6  7  2  0
  6  8  1  0
  9  8  1  6
  9 10  1  0
  9 18  1  0
 10 11  2  0
 10 12  1  0
 12 13  1  0
 13 14  1  0
 13 18  1  0
 14 15  1  0
 15 16  1  0
 15 17  1  0
 18 19  2  0
M  END
