
     RDKit          3D

 20 21  0  0  0  0  0  0  0  0999 V2000
   -1.5650   -0.2860    2.3700 O   0  0  0  0  0  0  0  0  0  0  0  0
   -2.1850   -0.5740    1.3180 C   0  0  0  0  0  0  0  0  0  0  0  0
   -2.7140   -1.8570    0.9780 N   0  0  0  0  0  0  0  0  0  0  0  0
   -3.4740   -2.0400   -0.2090 C   0  0  0  0  0  0  0  0  0  0  0  0
   -3.8040   -0.8250   -0.9930 C   0  0  2  0  0  0  0  0  0  0  0  0
   -2.8180   -0.6080   -2.0020 O   0  0  0  0  0  0  0  0  0  0  0  0
   -3.7870    0.4760   -0.1900 C   0  0  0  0  0  0  0  0  0  0  0  0
   -2.3900    0.4880    0.3010 N   0  0  0  0  0  0  0  0  0  0  0  0
   -1.4220    1.4620    0.0730 C   0  0  0  0  0  0  0  0  0  0  0  0
   -1.7190    2.6020   -0.3010 O   0  0  0  0  0  0  0  0  0  0  0  0
   -0.0070    1.0790    0.2810 C   0  0  0  0  0  0  0  0  0  0  0  0
    0.4650   -0.0900    0.5500 C   0  0  0  0  0  0  0  0  0  0  0  0
    1.7860   -0.1060    0.6930 O   0  0  0  0  0  0  0  0  0  0  0  0
    2.2510    1.1880    0.5050 C   0  0  1  0  0  0  0  0  0  0  0  0
    3.2200    1.0400   -0.7160 C   0  0  0  0  0  0  0  0  0  0  0  0
    3.8790   -0.1560   -0.2490 O   0  0  0  0  0  0  0  0  0  0  0  0
    5.5540   -0.0420   -0.1250 P   0  0  0  0  0  0  0  0  0  0  0  0
    6.3990   -1.3480    0.4020 O   0  0  0  0  0  0  0  0  0  0  0  0
    6.1900    1.4860    0.0990 O   0  0  0  0  0  0  0  0  0  0  0  0
    1.1260    1.9380    0.2250 O   0  0  0  0  0  0  0  0  0  0  0  0
  1  2  2  0
  2  3  1  0
  2  8  1  0
  3  4  1  0
  4  5  1  0
  5  6  1  6
  5  7  1  0
  7  8  1  0
  8  9  1  0
  9 10  2  0
  9 11  1  0
 11 12  2  0
 11 20  1  0
 12 13  1  0
 13 14  1  0
 14 15  1  6
 14 20  1  0
 15 16  1  0
 16 17  1  0
 17 18  1  0
 17 19  1  0
M  END
