
     RDKit          3D

  9  8  0  0  0  0  0  0  0  0999 V2000
   -2.7910    1.1940    0.4290 C   0  0  0  0  0  0  0  0  0  0  0  0
   -1.9260    0.4080   -0.2340 C   0  0  0  0  0  0  0  0  0  0  0  0
   -2.2550   -1.0260   -0.3170 C   0  0  0  0  0  0  0  0  0  0  0  0
   -0.7450    1.0590   -0.8260 C   0  0  0  0  0  0  0  0  0  0  0  0
    0.5050    0.6500   -0.4040 O   0  0  0  0  0  0  0  0  0  0  0  0
    1.0840   -0.5570   -0.5720 C   0  0  0  0  0  0  0  0  0  0  0  0
    0.4770   -1.4680   -1.1860 O   0  0  0  0  0  0  0  0  0  0  0  0
    2.4470   -0.9130   -0.0660 C   0  0  0  0  0  0  0  0  0  0  0  0
    3.0910    0.2400    0.6520 C   0  0  0  0  0  0  0  0  0  0  0  0
  1  2  2  0
  2  3  1  0
  2  4  1  0
  4  5  1  0
  5  6  1  0
  6  7  2  0
  6  8  1  0
  8  9  1  0
M  END
