
     RDKit          3D

  9  9  0  0  0  0  0  0  0  0999 V2000
   -3.1940    0.4260    0.2820 O   0  0  0  0  0  0  0  0  0  0  0  0
   -2.3170   -0.5360   -0.2010 C   0  0  0  0  0  0  0  0  0  0  0  0
   -0.8670   -0.1830    0.1470 C   0  0  1  0  0  0  0  0  0  0  0  0
   -0.0140   -1.2880   -0.4220 C   0  0  0  0  0  0  0  0  0  0  0  0
    1.4550   -1.0740   -0.1640 C   0  0  0  0  0  0  0  0  0  0  0  0
    1.6590    0.4030    0.1690 C   0  0  1  0  0  0  0  0  0  0  0  0
    3.0030    0.7310    0.1160 O   0  0  0  0  0  0  0  0  0  0  0  0
    0.8780    1.1720   -0.9010 C   0  0  0  0  0  0  0  0  0  0  0  0
   -0.5690    1.1480   -0.4620 C   0  0  0  0  0  0  0  0  0  0  0  0
  1  2  1  0
  3  2  1  6
  3  4  1  0
  3  9  1  0
  4  5  1  0
  5  6  1  0
  6  7  1  6
  6  8  1  0
  8  9  1  0
M  END
