
     RDKit          3D

  8  7  0  0  0  0  0  0  0  0999 V2000
   -3.4500    0.5910    0.2900 C   0  0  0  0  0  0  0  0  0  0  0  0
   -2.5310   -0.0860   -0.3660 C   0  0  0  0  0  0  0  0  0  0  0  0
   -1.2300   -0.4980    0.2610 C   0  0  0  0  0  0  0  0  0  0  0  0
   -0.1300    0.1410   -0.5520 C   0  0  0  0  0  0  0  0  0  0  0  0
    1.2140   -0.1920   -0.0300 C   0  0  0  0  0  0  0  0  0  0  0  0
    1.3920   -0.9300    0.9840 O   0  0  0  0  0  0  0  0  0  0  0  0
    2.3070    0.3380   -0.6970 O   0  0  0  0  0  0  0  0  0  0  0  0
    3.6430    0.0820   -0.2790 C   0  0  0  0  0  0  0  0  0  0  0  0
  1  2  2  0
  2  3  1  0
  3  4  1  0
  4  5  1  0
  5  6  2  0
  5  7  1  0
  7  8  1  0
M  END
