
     RDKit          3D

  8  8  0  0  0  0  0  0  0  0999 V2000
    2.7490   -0.3300   -0.4070 C   0  0  0  0  0  0  0  0  0  0  0  0
    2.1330    0.9470    0.1180 C   0  0  0  0  0  0  0  0  0  0  0  0
    0.8910    0.7680    0.6780 O   0  0  0  0  0  0  0  0  0  0  0  0
   -0.0490    0.2540   -0.1900 C   0  0  2  0  0  0  0  0  0  0  0  0
   -1.2800    1.0810   -0.3180 C   0  0  0  0  0  0  0  0  0  0  0  0
   -2.4450    0.2540    0.1860 C   0  0  0  0  0  0  0  0  0  0  0  0
   -1.9660   -1.1920    0.0100 C   0  0  0  0  0  0  0  0  0  0  0  0
   -0.5260   -1.0660    0.3880 C   0  0  0  0  0  0  0  0  0  0  0  0
  1  2  1  0
  2  3  1  0
  4  3  1  1
  4  5  1  0
  4  8  1  0
  5  6  1  0
  6  7  1  0
  7  8  1  0
M  END
