
     RDKit          3D

  9  8  0  0  0  0  0  0  0  0999 V2000
    3.8090   -0.8480    0.0320 C   0  0  0  0  0  0  0  0  0  0  0  0
    2.8850    0.0430   -0.2170 C   0  0  0  0  0  0  0  0  0  0  0  0
    3.1100    1.4980   -0.1520 C   0  0  0  0  0  0  0  0  0  0  0  0
    1.6030   -0.3840   -0.5680 O   0  0  0  0  0  0  0  0  0  0  0  0
    0.5030    0.1320    0.1350 C   0  0  0  0  0  0  0  0  0  0  0  0
   -0.7510   -0.5140   -0.4680 C   0  0  0  0  0  0  0  0  0  0  0  0
   -1.8490   -0.0090    0.2230 O   0  0  0  0  0  0  0  0  0  0  0  0
   -3.0190   -0.5720   -0.2950 C   0  0  0  0  0  0  0  0  0  0  0  0
   -4.1750    0.0200    0.5010 C   0  0  0  0  0  0  0  0  0  0  0  0
  1  2  2  0
  2  3  1  0
  2  4  1  0
  4  5  1  0
  5  6  1  0
  6  7  1  0
  7  8  1  0
  8  9  1  0
M  END
