
     RDKit          3D

  9  9  0  0  0  0  0  0  0  0999 V2000
    2.9830   -0.5910    0.2480 C   0  0  0  0  0  0  0  0  0  0  0  0
    1.5310   -0.2100    0.1280 C   0  0  0  0  0  0  0  0  0  0  0  0
    0.4400   -1.0440    0.1960 C   0  0  0  0  0  0  0  0  0  0  0  0
   -0.6620   -0.2370    0.0310 C   0  0  0  0  0  0  0  0  0  0  0  0
   -2.0770   -0.6880    0.0310 C   0  0  0  0  0  0  0  0  0  0  0  0
   -2.1970   -2.0450    0.2170 O   0  0  0  0  0  0  0  0  0  0  0  0
   -0.2060    1.0530   -0.1300 C   0  0  0  0  0  0  0  0  0  0  0  0
   -1.0680    2.2550   -0.3390 C   0  0  0  0  0  0  0  0  0  0  0  0
    1.1020    1.0060   -0.0640 O   0  0  0  0  0  0  0  0  0  0  0  0
  1  2  1  0
  2  3  2  0
  2  9  1  0
  3  4  1  0
  4  5  1  0
  4  7  2  0
  5  6  1  0
  7  8  1  0
  7  9  1  0
M  END
