
     RDKit          3D

 12 12  0  0  0  0  0  0  0  0999 V2000
   -1.8310   -2.3830   -0.7050 O   0  0  0  0  0  0  0  0  0  0  0  0
   -0.9630   -1.7670    0.2110 C   0  0  0  0  0  0  0  0  0  0  0  0
   -0.4380   -0.4920   -0.4600 C   0  0  1  0  0  0  0  0  0  0  0  0
   -1.4900    0.2970   -0.7440 O   0  0  0  0  0  0  0  0  0  0  0  0
   -1.7600    1.3640    0.0280 C   0  0  2  0  0  0  0  0  0  0  0  0
   -1.8770    2.4960   -0.8140 O   0  0  0  0  0  0  0  0  0  0  0  0
   -0.9240    1.6020    1.0870 O   0  0  0  0  0  0  0  0  0  0  0  0
    0.4080    1.5440    0.6880 C   0  0  0  0  0  0  0  0  0  0  0  0
    0.6770    0.1000    0.3180 C   0  0  1  0  0  0  0  0  0  0  0  0
    0.8770   -0.5890    1.5210 O   0  0  0  0  0  0  0  0  0  0  0  0
    1.9950    0.0840   -0.4510 C   0  0  0  0  0  0  0  0  0  0  0  0
    2.4160   -1.2030   -0.7300 O   0  0  0  0  0  0  0  0  0  0  0  0
  1  2  1  0
  3  2  1  1
  3  4  1  0
  3  9  1  0
  4  5  1  0
  5  6  1  6
  5  7  1  0
  7  8  1  0
  8  9  1  0
  9 10  1  1
  9 11  1  0
 11 12  1  0
M  END
