
     RDKit          3D

  9  8  0  0  0  0  0  0  0  0999 V2000
    3.5970   -1.2730   -0.2330 C   0  0  0  0  0  0  0  0  0  0  0  0
    2.2030   -0.7620   -0.1210 C   0  0  0  0  0  0  0  0  0  0  0  0
    1.8510    0.3410   -0.7580 C   0  0  0  0  0  0  0  0  0  0  0  0
    0.4640    0.8720   -0.6630 C   0  0  0  0  0  0  0  0  0  0  0  0
   -0.3750   -0.0150    0.2210 C   0  0  0  0  0  0  0  0  0  0  0  0
   -1.7700    0.5110    0.3220 C   0  0  0  0  0  0  0  0  0  0  0  0
   -2.0830    1.5650   -0.2950 O   0  0  0  0  0  0  0  0  0  0  0  0
   -2.7390   -0.1110    1.0680 O   0  0  0  0  0  0  0  0  0  0  0  0
   -4.0760    0.3990    1.1600 C   0  0  0  0  0  0  0  0  0  0  0  0
  1  2  1  0
  2  3  2  3
  3  4  1  0
  4  5  1  0
  5  6  1  0
  6  7  2  0
  6  8  1  0
  8  9  1  0
M  END
