
     RDKit          3D

  9  8  0  0  0  0  0  0  0  0999 V2000
   -2.9140    0.6500   -0.0270 C   0  0  0  0  0  0  0  0  0  0  0  0
   -1.6660   -0.0120   -0.6040 C   0  0  1  0  0  0  0  0  0  0  0  0
   -1.7570   -1.4780   -0.2450 C   0  0  0  0  0  0  0  0  0  0  0  0
   -1.6710    0.1330   -1.9620 O   0  0  0  0  0  0  0  0  0  0  0  0
   -0.4830    0.6200    0.0770 C   0  0  0  0  0  0  0  0  0  0  0  0
    0.8360    0.0750   -0.3820 C   0  0  0  0  0  0  0  0  0  0  0  0
    1.9160    0.7880    0.3730 C   0  0  0  0  0  0  0  0  0  0  0  0
    3.3010    0.3350    0.0070 C   0  0  0  0  0  0  0  0  0  0  0  0
    3.3640   -1.0440    0.3040 O   0  0  0  0  0  0  0  0  0  0  0  0
  2  1  1  1
  2  3  1  0
  2  4  1  0
  2  5  1  0
  5  6  1  0
  6  7  1  0
  7  8  1  0
  8  9  1  0
M  END
