
     RDKit          3D

 31 33  0  0  0  0  0  0  0  0999 V2000
   -4.6240   -2.5170   -1.7070 O   0  0  0  0  0  0  0  0  0  0  0  0
   -3.9300   -1.9510   -0.8180 C   0  0  0  0  0  0  0  0  0  0  0  0
   -2.6590   -1.4710   -1.1690 O   0  0  0  0  0  0  0  0  0  0  0  0
   -1.9430   -0.6920   -0.1770 C   0  0  1  0  0  0  0  0  0  0  0  0
   -1.1460   -1.5710    0.6830 C   0  0  0  0  0  0  0  0  0  0  0  0
   -0.4810   -1.0800    1.6230 O   0  0  0  0  0  0  0  0  0  0  0  0
   -1.1230   -2.9240    0.4660 O   0  0  0  0  0  0  0  0  0  0  0  0
   -1.1710    0.3930   -0.7890 C   0  0  0  0  0  0  0  0  0  0  0  0
   -0.0640    0.2310   -1.4360 N   0  0  0  0  0  0  0  0  0  0  0  0
    0.5050   -1.0120   -1.6140 O   0  0  0  0  0  0  0  0  0  0  0  0
    2.1510   -1.3530   -1.0350 P   0  0  0  0  0  0  0  0  0  0  0  0
    2.3690   -0.5880    0.5140 O   0  0  0  0  0  0  0  0  0  0  0  0
    3.2760   -0.7170   -2.1970 O   0  0  0  0  0  0  0  0  0  0  0  0
    4.2940    0.4950   -1.4860 P   0  0  0  0  0  0  0  0  0  0  0  0
    3.3830    1.5510   -0.4490 O   0  0  0  0  0  0  0  0  0  0  0  0
    5.6660   -0.2490   -0.6060 N   0  0  0  0  0  0  0  0  0  0  0  0
    6.8940    0.4660   -0.2720 C   0  0  0  0  0  0  0  0  0  0  0  0
    7.4010   -0.2990    0.9120 C   0  0  0  0  0  0  0  0  0  0  0  0
    6.9610   -1.6350    0.6630 O   0  0  0  0  0  0  0  0  0  0  0  0
    5.8050   -1.5830   -0.1110 C   0  0  0  0  0  0  0  0  0  0  0  0
    4.9930   -2.5030   -0.3680 O   0  0  0  0  0  0  0  0  0  0  0  0
   -1.8640    1.6020   -0.5360 N   0  0  0  0  0  0  0  0  0  0  0  0
   -2.8910    1.3790    0.2150 C   0  0  0  0  0  0  0  0  0  0  0  0
   -3.7740    2.4370    0.6280 N   0  0  0  0  0  0  0  0  0  0  0  0
   -4.0530    3.9050   -0.3560 P   0  0  0  0  0  0  0  0  0  0  0  0
   -4.7320    5.1360    0.6590 O   0  0  0  0  0  0  0  0  0  0  0  0
   -5.2580    3.4820   -1.5560 O   0  0  0  0  0  0  0  0  0  0  0  0
   -2.9850    0.0070    0.5360 N   0  0  0  0  0  0  0  0  0  0  0  0
   -3.8730   -0.7570    1.3800 C   0  0  0  0  0  0  0  0  0  0  0  0
   -4.5110   -1.8360    0.5320 C   0  0  1  0  0  0  0  0  0  0  0  0
   -5.8840   -1.5750    0.4990 O   0  0  0  0  0  0  0  0  0  0  0  0
  1  2  2  0
  2  3  1  0
  2 30  1  0
  3  4  1  0
  4  5  1  1
  4  8  1  0
  4 28  1  0
  5  6  2  0
  5  7  1  0
  8  9  2  3
  8 22  1  0
  9 10  1  0
 10 11  1  0
 11 12  1  0
 11 13  1  0
 13 14  1  0
 14 15  1  0
 14 16  1  0
 16 17  1  0
 16 20  1  0
 17 18  1  0
 18 19  1  0
 19 20  1  0
 20 21  2  0
 22 23  2  0
 23 24  1  0
 23 28  1  0
 24 25  1  0
 25 26  1  0
 25 27  1  0
 28 29  1  0
 29 30  1  0
 30 31  1  6
M  END
