
     RDKit          3D

 31 32  0  0  0  0  0  0  0  0999 V2000
   -1.7900   -0.0740   -1.6890 N   0  0  0  0  0  0  0  0  0  0  0  0
   -1.7280   -0.3330   -0.4020 C   0  0  0  0  0  0  0  0  0  0  0  0
   -1.0010   -1.4320    0.0950 N   0  0  0  0  0  0  0  0  0  0  0  0
    0.1870   -1.9320   -0.5050 C   0  0  0  0  0  0  0  0  0  0  0  0
    1.3840   -1.0260   -0.3510 C   0  0  0  0  0  0  0  0  0  0  0  0
    2.4630   -1.3720    0.3040 N   0  0  0  0  0  0  0  0  0  0  0  0
    3.4230   -0.3780    0.3130 N   0  0  0  0  0  0  0  0  0  0  0  0
    4.7310   -0.4160    0.9310 C   0  0  1  0  0  0  0  0  0  0  0  0
    5.8730   -0.0250    0.0170 C   0  0  0  0  0  0  0  0  0  0  0  0
    6.4920    0.4620    1.1970 O   0  0  0  0  0  0  0  0  0  0  0  0
    5.1840    0.7880    1.6170 C   0  0  0  0  0  0  0  0  0  0  0  0
    4.8020    1.7650    2.2970 O   0  0  0  0  0  0  0  0  0  0  0  0
    2.9150    0.7250   -0.4080 C   0  0  0  0  0  0  0  0  0  0  0  0
    3.4680    1.8340   -0.6250 O   0  0  0  0  0  0  0  0  0  0  0  0
    1.5650    0.3250   -0.8800 C   0  0  1  0  0  0  0  0  0  0  0  0
    1.4940    0.4160   -2.2770 O   0  0  0  0  0  0  0  0  0  0  0  0
    0.7350    1.4430   -2.5750 O   0  0  0  0  0  0  0  0  0  0  0  0
    1.6850    2.8840   -2.7250 P   0  0  0  0  0  0  0  0  0  0  0  0
    1.5710    4.0930   -1.7510 O   0  0  0  0  0  0  0  0  0  0  0  0
   -1.4830   -2.0930    1.2930 C   0  0  0  0  0  0  0  0  0  0  0  0
   -3.1580   -2.8340    1.0150 P   0  0  0  0  0  0  0  0  0  0  0  0
   -4.4180   -2.0110    1.8500 O   0  0  0  0  0  0  0  0  0  0  0  0
   -3.5690   -3.0070   -0.6420 O   0  0  0  0  0  0  0  0  0  0  0  0
   -2.4660    0.5870    0.3940 N   0  0  0  0  0  0  0  0  0  0  0  0
   -3.8790    0.6890    0.1380 C   0  0  0  0  0  0  0  0  0  0  0  0
   -4.3690   -0.0350   -0.7620 O   0  0  0  0  0  0  0  0  0  0  0  0
   -4.6930    1.5420    0.8370 O   0  0  0  0  0  0  0  0  0  0  0  0
   -5.9940    1.5870    0.5470 O   0  0  0  0  0  0  0  0  0  0  0  0
   -1.7900    1.6170    1.6700 P   0  0  0  0  0  0  0  0  0  0  0  0
   -0.6220    2.7520    1.0970 O   0  0  0  0  0  0  0  0  0  0  0  0
   -3.0730    2.5220    2.4590 O   0  0  0  0  0  0  0  0  0  0  0  0
  1  2  2  0
  2  3  1  0
  2 24  1  0
  3  4  1  0
  3 20  1  0
  4  5  1  0
  5  6  2  0
  5 15  1  0
  6  7  1  0
  8  7  1  6
  7 13  1  0
  8  9  1  0
  8 11  1  0
  9 10  1  0
 10 11  1  0
 11 12  2  0
 13 14  2  0
 13 15  1  0
 15 16  1  6
 16 17  1  0
 17 18  1  0
 18 19  2  0
 20 21  1  0
 21 22  1  0
 21 23  1  0
 24 25  1  0
 24 29  1  0
 25 26  2  0
 25 27  1  0
 27 28  1  0
 29 30  1  0
 29 31  1  0
M  END
