
     RDKit          3D

 31 33  0  0  0  0  0  0  0  0999 V2000
    2.2530    1.4830   -0.5790 O   0  0  0  0  0  0  0  0  0  0  0  0
    1.3530    0.7100   -0.0950 C   0  0  0  0  0  0  0  0  0  0  0  0
   -0.0710    1.0370   -0.3180 C   0  0  0  0  0  0  0  0  0  0  0  0
   -1.0110    0.1250    0.2320 N   0  0  0  0  0  0  0  0  0  0  0  0
   -1.1660   -1.2200   -0.3080 C   0  0  0  0  0  0  0  0  0  0  0  0
   -2.7000   -1.3860   -0.4060 C   0  0  1  0  0  0  0  0  0  0  0  0
   -3.1180   -2.9170   -1.3550 P   0  0  0  0  0  0  0  0  0  0  0  0
   -1.7520   -3.4350   -2.3280 O   0  0  0  0  0  0  0  0  0  0  0  0
   -4.4420   -2.5470   -2.4170 O   0  0  0  0  0  0  0  0  0  0  0  0
   -3.1850   -1.4450    0.9590 N   0  0  0  0  0  0  0  0  0  0  0  0
   -3.2080   -0.0900    1.4750 C   0  0  1  0  0  0  0  0  0  0  0  0
   -4.5160    0.9010    0.7820 P   0  0  0  0  0  0  0  0  0  0  0  0
   -5.8810    1.2090    1.7290 O   0  0  0  0  0  0  0  0  0  0  0  0
   -4.3190    1.8610   -1.0780 P   0  0  0  0  0  0  0  0  0  0  0  0
   -2.7570    2.5490   -1.3150 O   0  0  0  0  0  0  0  0  0  0  0  0
   -5.5380    3.1130   -1.2540 O   0  0  0  0  0  0  0  0  0  0  0  0
   -3.2980   -0.0440    2.8820 O   0  0  0  0  0  0  0  0  0  0  0  0
   -2.8680    1.2430    3.0610 O   0  0  0  0  0  0  0  0  0  0  0  0
   -1.6880    1.2940    2.3010 N   0  0  0  0  0  0  0  0  0  0  0  0
   -1.8360    0.4970    1.3170 C   0  0  0  0  0  0  0  0  0  0  0  0
    1.8450   -0.4020    0.6200 N   0  0  0  0  0  0  0  0  0  0  0  0
    3.2360   -0.6190    0.7740 C   0  0  0  0  0  0  0  0  0  0  0  0
    4.2190    0.1640    0.2850 N   0  0  0  0  0  0  0  0  0  0  0  0
    5.4230   -0.3440    0.6220 C   0  0  0  0  0  0  0  0  0  0  0  0
    6.7280    0.2050    0.2860 C   0  0  0  0  0  0  0  0  0  0  0  0
    6.7900    1.2630   -0.3880 O   0  0  0  0  0  0  0  0  0  0  0  0
    7.8860   -0.4040    0.6870 O   0  0  0  0  0  0  0  0  0  0  0  0
    9.0540    0.1480    0.3480 O   0  0  0  0  0  0  0  0  0  0  0  0
    8.8780    1.2520   -0.3270 O   0  0  0  0  0  0  0  0  0  0  0  0
    5.1370   -1.4820    1.3440 C   0  0  0  0  0  0  0  0  0  0  0  0
    3.8210   -1.6040    1.4080 O   0  0  0  0  0  0  0  0  0  0  0  0
  1  2  2  0
  2  3  1  0
  2 21  1  0
  3  4  1  0
  4  5  1  0
  4 20  1  0
  5  6  1  0
  6  7  1  6
  6 10  1  0
  7  8  1  0
  7  9  1  0
 10 11  1  0
 11 12  1  6
 11 17  1  0
 11 20  1  0
 12 13  1  0
 12 14  1  0
 14 15  1  0
 14 16  1  0
 17 18  1  0
 18 19  1  0
 19 20  2  0
 21 22  1  0
 22 23  2  0
 22 31  1  0
 23 24  1  0
 24 25  1  0
 24 30  2  0
 25 26  2  0
 25 27  1  0
 27 28  1  0
 28 29  1  0
 30 31  1  0
M  END
