
     RDKit          3D

 30 31  0  0  0  0  0  0  0  0999 V2000
   -3.5900   -1.0430    1.2160 N   0  0  0  0  0  0  0  0  0  0  0  0
   -3.0050   -0.8670    0.0790 C   0  0  0  0  0  0  0  0  0  0  0  0
   -3.1370   -1.8870   -0.9060 N   0  0  0  0  0  0  0  0  0  0  0  0
   -4.1150   -3.3470   -0.6230 P   0  0  0  0  0  0  0  0  0  0  0  0
   -4.2650   -3.7010    1.0590 O   0  0  0  0  0  0  0  0  0  0  0  0
   -3.4590   -4.7110   -1.4970 O   0  0  0  0  0  0  0  0  0  0  0  0
   -2.2520    0.2840   -0.2140 N   0  0  0  0  0  0  0  0  0  0  0  0
   -0.8830    0.1570   -0.6230 C   0  0  0  0  0  0  0  0  0  0  0  0
    0.0020   -0.3330    0.4600 C   0  0  0  0  0  0  0  0  0  0  0  0
   -0.4370   -0.5950    1.5910 O   0  0  0  0  0  0  0  0  0  0  0  0
    1.3750   -0.5010    0.1790 N   0  0  0  0  0  0  0  0  0  0  0  0
    2.0320   -0.2430   -1.0740 C   0  0  0  0  0  0  0  0  0  0  0  0
    3.3210    0.4310   -0.6340 C   0  0  1  0  0  0  0  0  0  0  0  0
    4.3210    0.1190   -1.5200 O   0  0  0  0  0  0  0  0  0  0  0  0
    3.1480    1.9550   -0.6490 C   0  0  0  0  0  0  0  0  0  0  0  0
    4.4260    2.5110   -0.2430 N   0  0  0  0  0  0  0  0  0  0  0  0
    3.5560   -0.0400    0.7590 C   0  0  2  0  0  0  0  0  0  0  0  0
    4.8130   -0.5570    0.9900 O   0  0  0  0  0  0  0  0  0  0  0  0
    5.1260   -1.6960    0.3030 C   0  0  0  0  0  0  0  0  0  0  0  0
    4.0110   -2.5220    0.0350 O   0  0  0  0  0  0  0  0  0  0  0  0
    2.8110   -2.3630    0.7340 C   0  0  0  0  0  0  0  0  0  0  0  0
    2.0860   -3.3160    1.0630 O   0  0  0  0  0  0  0  0  0  0  0  0
    2.4300   -0.9670    1.0780 C   0  0  2  0  0  0  0  0  0  0  0  0
   -2.9850    1.8950   -0.0830 P   0  0  0  0  0  0  0  0  0  0  0  0
   -3.9790    2.1390   -1.4960 O   0  0  0  0  0  0  0  0  0  0  0  0
   -4.6120    1.0250   -1.7530 O   0  0  0  0  0  0  0  0  0  0  0  0
   -3.9100    2.0330    1.3560 O   0  0  0  0  0  0  0  0  0  0  0  0
   -4.6900    3.5660    1.4940 P   0  0  0  0  0  0  0  0  0  0  0  0
   -4.0450    4.7460    0.4180 O   0  0  0  0  0  0  0  0  0  0  0  0
   -4.5690    4.1430    3.1280 O   0  0  0  0  0  0  0  0  0  0  0  0
  1  2  2  0
  2  3  1  0
  2  7  1  0
  3  4  1  0
  4  5  1  0
  4  6  1  0
  7  8  1  0
  7 24  1  0
  8  9  1  0
  9 10  2  0
  9 11  1  0
 11 12  1  0
 23 11  1  6
 12 13  1  0
 13 14  1  6
 13 15  1  0
 13 17  1  0
 15 16  1  0
 17 18  1  6
 17 23  1  0
 18 19  1  0
 19 20  1  0
 20 21  1  0
 21 22  2  0
 21 23  1  0
 24 25  1  0
 24 27  1  0
 25 26  1  0
 27 28  1  0
 28 29  1  0
 28 30  1  0
M  END
