
     RDKit          3D

 30 31  0  0  0  0  0  0  0  0999 V2000
   -1.9580   -0.8780   -3.9790 O   0  0  0  0  0  0  0  0  0  0  0  0
   -2.7150   -0.0620   -2.8800 P   0  0  0  0  0  0  0  0  0  0  0  0
   -3.5090   -0.9820   -1.6450 O   0  0  0  0  0  0  0  0  0  0  0  0
   -2.9050   -0.8010   -0.3900 C   0  0  1  0  0  0  0  0  0  0  0  0
   -2.9790    0.5760   -0.0570 N   0  0  0  0  0  0  0  0  0  0  0  0
   -4.2090    1.2790    0.0390 C   0  0  0  0  0  0  0  0  0  0  0  0
   -5.2510    0.6160   -0.1890 O   0  0  0  0  0  0  0  0  0  0  0  0
   -4.3240    2.6380    0.3670 N   0  0  0  0  0  0  0  0  0  0  0  0
   -5.9530    3.4340    0.4620 P   0  0  0  0  0  0  0  0  0  0  0  0
   -5.8980    5.0150   -0.2360 O   0  0  0  0  0  0  0  0  0  0  0  0
   -6.3860    3.4680    2.1350 O   0  0  0  0  0  0  0  0  0  0  0  0
   -3.6360   -1.6930    0.5820 C   0  0  0  0  0  0  0  0  0  0  0  0
   -3.1860   -2.9840    0.4940 O   0  0  0  0  0  0  0  0  0  0  0  0
   -1.8320   -3.1560    0.6380 C   0  0  0  0  0  0  0  0  0  0  0  0
   -1.1750   -1.7850    0.6540 C   0  0  1  0  0  0  0  0  0  0  0  0
    0.3240   -1.9870    0.6510 C   0  0  0  0  0  0  0  0  0  0  0  0
    1.0610   -1.5160   -0.2670 N   0  0  0  0  0  0  0  0  0  0  0  0
    2.4740   -1.6030   -0.4380 C   0  0  1  0  0  0  0  0  0  0  0  0
    3.0760   -0.3160   -0.3910 O   0  0  0  0  0  0  0  0  0  0  0  0
    3.7400   -0.1190   -1.5980 C   0  0  0  0  0  0  0  0  0  0  0  0
    4.4240    1.2260   -1.6440 C   0  0  0  0  0  0  0  0  0  0  0  0
    5.3530    1.2930   -0.6070 O   0  0  0  0  0  0  0  0  0  0  0  0
    6.1690    2.8140   -0.6160 P   0  0  0  0  0  0  0  0  0  0  0  0
    5.8740    3.6700    0.8660 O   0  0  0  0  0  0  0  0  0  0  0  0
    7.8900    2.6120   -0.7520 O   0  0  0  0  0  0  0  0  0  0  0  0
    3.0960   -2.3640    0.6620 C   0  0  0  0  0  0  0  0  0  0  0  0
    4.3760   -2.5410    0.6800 O   0  0  0  0  0  0  0  0  0  0  0  0
    2.3010   -2.9010    1.6980 N   0  0  0  0  0  0  0  0  0  0  0  0
    0.9310   -2.7160    1.6960 N   0  0  0  0  0  0  0  0  0  0  0  0
   -1.5660   -1.1550   -0.5250 O   0  0  0  0  0  0  0  0  0  0  0  0
  1  2  2  0
  2  3  1  0
  3  4  1  0
  4  5  1  1
  4 12  1  0
  4 30  1  0
  5  6  1  0
  6  7  2  0
  6  8  1  0
  8  9  1  0
  9 10  1  0
  9 11  1  0
 12 13  1  0
 13 14  1  0
 14 15  1  0
 15 16  1  6
 15 30  1  0
 16 17  2  0
 16 29  1  0
 17 18  1  0
 18 19  1  1
 18 26  1  0
 19 20  1  0
 20 21  1  0
 21 22  1  0
 22 23  1  0
 23 24  1  0
 23 25  1  0
 26 27  2  0
 26 28  1  0
 28 29  1  0
M  END
