
     RDKit          3D

 30 31  0  0  0  0  0  0  0  0999 V2000
   -8.3020    2.4930   -0.1550 O   0  0  0  0  0  0  0  0  0  0  0  0
   -7.1390    2.6120    0.2560 C   0  0  0  0  0  0  0  0  0  0  0  0
   -6.8400    3.7510    1.0220 O   0  0  0  0  0  0  0  0  0  0  0  0
   -6.1520    1.6330   -0.0370 N   0  0  0  0  0  0  0  0  0  0  0  0
   -6.4430    0.4770   -0.8110 C   0  0  0  0  0  0  0  0  0  0  0  0
   -7.5910    0.3160   -1.2430 O   0  0  0  0  0  0  0  0  0  0  0  0
   -5.3800   -0.4990   -1.0800 C   0  0  0  0  0  0  0  0  0  0  0  0
   -4.1650   -0.0890   -0.4810 O   0  0  0  0  0  0  0  0  0  0  0  0
   -2.9880   -0.7800   -0.5470 C   0  0  0  0  0  0  0  0  0  0  0  0
   -2.9490   -1.8620   -1.1790 O   0  0  0  0  0  0  0  0  0  0  0  0
   -1.7740   -0.3510    0.0630 N   0  0  0  0  0  0  0  0  0  0  0  0
   -0.5400   -1.0990   -0.0200 C   0  0  2  0  0  0  0  0  0  0  0  0
   -0.6990   -2.7770    0.7590 P   0  0  0  0  0  0  0  0  0  0  0  0
   -1.2620   -2.7120    2.3720 O   0  0  0  0  0  0  0  0  0  0  0  0
   -1.5440   -3.8900   -0.2320 O   0  0  0  0  0  0  0  0  0  0  0  0
    0.5220   -0.3450    0.7380 C   0  0  0  0  0  0  0  0  0  0  0  0
    1.8570   -0.7930    0.4000 N   0  0  0  0  0  0  0  0  0  0  0  0
    2.9870   -0.3650    1.2180 C   0  0  0  0  0  0  0  0  0  0  0  0
    4.1000   -0.0300    0.2580 C   0  0  1  0  0  0  0  0  0  0  0  0
    5.1730    0.5830    0.8000 O   0  0  0  0  0  0  0  0  0  0  0  0
    5.5200    2.1540    0.2220 P   0  0  0  0  0  0  0  0  0  0  0  0
    4.8370    3.4190    1.1450 O   0  0  0  0  0  0  0  0  0  0  0  0
    7.7160    2.3580    0.1660 P   0  0  0  0  0  0  0  0  0  0  0  0
    8.3970    0.9490   -0.6050 O   0  0  0  0  0  0  0  0  0  0  0  0
    8.0940    3.7090   -0.8900 O   0  0  0  0  0  0  0  0  0  0  0  0
    4.3840   -1.2150   -0.4710 O   0  0  0  0  0  0  0  0  0  0  0  0
    3.3040   -1.8180   -1.1000 N   0  0  0  0  0  0  0  0  0  0  0  0
    2.0860   -1.6430   -0.7170 C   0  0  0  0  0  0  0  0  0  0  0  0
    0.9310   -2.2910   -1.3930 C   0  0  0  0  0  0  0  0  0  0  0  0
   -0.1460   -1.3180   -1.4120 N   0  0  0  0  0  0  0  0  0  0  0  0
  1  2  2  0
  2  3  1  0
  2  4  1  0
  4  5  1  0
  5  6  2  0
  5  7  1  0
  7  8  1  0
  8  9  1  0
  9 10  2  0
  9 11  1  0
 12 11  1  6
 12 13  1  0
 12 16  1  0
 12 30  1  0
 13 14  1  0
 13 15  1  0
 16 17  1  0
 17 18  1  0
 17 28  1  0
 18 19  1  0
 19 20  1  1
 19 26  1  0
 20 21  1  0
 21 22  1  0
 21 23  1  0
 23 24  1  0
 23 25  1  0
 26 27  1  0
 27 28  2  0
 28 29  1  0
 29 30  1  0
M  END
