
     RDKit          3D

 33 36  0  0  0  0  0  0  0  0999 V2000
   10.9280    0.6340   -1.7540 C   0  0  0  0  0  0  0  0  0  0  0  0
   10.1520   -0.9920   -1.5080 S   0  0  0  0  0  0  0  0  0  0  0  0
    8.4190   -0.7790   -1.1580 C   0  0  0  0  0  0  0  0  0  0  0  0
    7.9080   -0.6310    0.1050 C   0  0  0  0  0  0  0  0  0  0  0  0
    6.5390   -0.4660    0.3460 C   0  0  0  0  0  0  0  0  0  0  0  0
    5.6570   -0.4480   -0.6990 C   0  0  0  0  0  0  0  0  0  0  0  0
    4.2430   -0.2680   -0.5800 N   0  0  0  0  0  0  0  0  0  0  0  0
    3.5270    0.1790    0.5230 C   0  0  0  0  0  0  0  0  0  0  0  0
    4.2310    0.4870    1.5560 O   0  0  0  0  0  0  0  0  0  0  0  0
    2.0960    0.3560    0.6850 C   0  0  0  0  0  0  0  0  0  0  0  0
    1.7060    1.2570    1.6560 N   0  0  0  0  0  0  0  0  0  0  0  0
    0.4270    1.5130    1.9390 C   0  0  0  0  0  0  0  0  0  0  0  0
    0.1160    2.4590    2.9580 N   0  0  0  0  0  0  0  0  0  0  0  0
   -0.5570    0.8480    1.2310 C   0  0  0  0  0  0  0  0  0  0  0  0
   -1.9000    0.9120    1.3080 N   0  0  0  0  0  0  0  0  0  0  0  0
   -2.3690    0.0590    0.3970 C   0  0  0  0  0  0  0  0  0  0  0  0
   -3.7070   -0.1780    0.1500 O   0  0  0  0  0  0  0  0  0  0  0  0
   -4.0840   -1.0890   -0.8250 C   0  0  0  0  0  0  0  0  0  0  0  0
   -5.5050   -1.3000   -1.0430 C   0  0  0  0  0  0  0  0  0  0  0  0
   -5.8240   -2.1420   -1.9440 O   0  0  0  0  0  0  0  0  0  0  0  0
   -6.5440   -0.6270   -0.3150 C   0  0  0  0  0  0  0  0  0  0  0  0
   -6.4240    0.2590    0.6350 C   0  0  0  0  0  0  0  0  0  0  0  0
   -7.7850    0.6930    1.1080 C   0  0  1  0  0  0  0  0  0  0  0  0
   -8.1950    1.9410    0.3570 C   0  0  0  0  0  0  0  0  0  0  0  0
   -8.6570   -0.4670    0.7300 C   0  0  0  0  0  0  0  0  0  0  0  0
   -8.0100   -0.8920   -0.5770 C   0  0  2  0  0  0  0  0  0  0  0  0
   -8.2160   -2.2260   -0.8540 F   0  0  0  0  0  0  0  0  0  0  0  0
   -1.3280   -0.5110   -0.2210 N   0  0  0  0  0  0  0  0  0  0  0  0
   -0.2130   -0.0310    0.2870 N   0  0  0  0  0  0  0  0  0  0  0  0
    1.1090   -0.2920   -0.0010 C   0  0  0  0  0  0  0  0  0  0  0  0
    1.4320   -1.3060   -1.0160 C   0  0  0  0  0  0  0  0  0  0  0  0
    6.1690   -0.5990   -1.9830 C   0  0  0  0  0  0  0  0  0  0  0  0
    7.5140   -0.7590   -2.1970 C   0  0  0  0  0  0  0  0  0  0  0  0
  1  2  1  0
  2  3  1  0
  3  4  2  0
  3 33  1  0
  4  5  1  0
  5  6  2  0
  6  7  1  0
  6 32  1  0
  7  8  1  0
  8  9  2  0
  8 10  1  0
 10 11  1  0
 10 30  2  0
 11 12  2  0
 12 13  1  0
 12 14  1  0
 14 15  2  0
 14 29  1  0
 15 16  1  0
 16 17  1  0
 16 28  2  0
 17 18  1  0
 18 19  1  0
 19 20  2  0
 19 21  1  0
 21 22  2  0
 21 26  1  0
 22 23  1  0
 23 24  1  6
 23 25  1  0
 25 26  1  0
 26 27  1  1
 28 29  1  0
 29 30  1  0
 30 31  1  0
 32 33  2  0
M  END
