
     RDKit          3D

 33 35  0  0  0  0  0  0  0  0999 V2000
    4.8970   -1.4310   -1.7240 C   0  0  0  0  0  0  0  0  0  0  0  0
    4.1980   -0.6730   -0.7110 N   0  0  0  0  0  0  0  0  0  0  0  0
    4.5090    0.7100   -0.5920 C   0  0  0  0  0  0  0  0  0  0  0  0
    4.3140    1.3190    0.6390 C   0  0  0  0  0  0  0  0  0  0  0  0
    4.6110    2.6230    0.7370 N   0  0  0  0  0  0  0  0  0  0  0  0
    5.0820    3.3270   -0.3090 C   0  0  0  0  0  0  0  0  0  0  0  0
    5.3940    4.7190   -0.1850 N   0  0  0  0  0  0  0  0  0  0  0  0
    5.2810    2.7610   -1.5190 N   0  0  0  0  0  0  0  0  0  0  0  0
    4.9990    1.4540   -1.6730 C   0  0  0  0  0  0  0  0  0  0  0  0
    5.1500    0.8360   -2.7550 O   0  0  0  0  0  0  0  0  0  0  0  0
    3.8170    0.5120    1.6920 N   0  0  0  0  0  0  0  0  0  0  0  0
    3.7230   -0.9320    1.5920 C   0  0  0  0  0  0  0  0  0  0  0  0
    3.2140   -1.2080    0.1840 C   0  0  2  0  0  0  0  0  0  0  0  0
    2.8890   -2.6460   -0.0300 C   0  0  0  0  0  0  0  0  0  0  0  0
    1.8870   -3.0550    0.9290 N   0  0  0  0  0  0  0  0  0  0  0  0
    0.5460   -2.5990    0.9320 C   0  0  0  0  0  0  0  0  0  0  0  0
   -0.0250   -1.9010   -0.1040 C   0  0  0  0  0  0  0  0  0  0  0  0
   -1.3370   -1.4850   -0.0070 C   0  0  0  0  0  0  0  0  0  0  0  0
   -2.1020   -1.7420    1.0920 C   0  0  0  0  0  0  0  0  0  0  0  0
   -3.4800   -1.3300    1.2450 C   0  0  0  0  0  0  0  0  0  0  0  0
   -4.1460   -1.5860    2.2890 O   0  0  0  0  0  0  0  0  0  0  0  0
   -4.1550   -0.6190    0.2370 N   0  0  0  0  0  0  0  0  0  0  0  0
   -5.5340   -0.1880    0.3500 C   0  0  1  0  0  0  0  0  0  0  0  0
   -5.6740    1.3090    0.3070 C   0  0  0  0  0  0  0  0  0  0  0  0
   -5.1270    1.8610   -1.0150 C   0  0  0  0  0  0  0  0  0  0  0  0
   -5.2870    3.3480   -1.0120 C   0  0  0  0  0  0  0  0  0  0  0  0
   -4.8940    3.9840   -2.0160 O   0  0  0  0  0  0  0  0  0  0  0  0
   -5.8610    4.0100    0.0840 O   0  0  0  0  0  0  0  0  0  0  0  0
   -6.3900   -0.8560   -0.6580 C   0  0  0  0  0  0  0  0  0  0  0  0
   -5.8440   -1.6710   -1.4450 O   0  0  0  0  0  0  0  0  0  0  0  0
   -7.7340   -0.6450   -0.7890 O   0  0  0  0  0  0  0  0  0  0  0  0
   -1.5140   -2.4540    2.1430 C   0  0  0  0  0  0  0  0  0  0  0  0
   -0.2110   -2.8790    2.0710 C   0  0  0  0  0  0  0  0  0  0  0  0
  1  2  1  0
  2  3  1  0
  2 13  1  0
  3  4  2  0
  3  9  1  0
  4  5  1  0
  4 11  1  0
  5  6  2  0
  6  7  1  0
  6  8  1  0
  8  9  1  0
  9 10  2  0
 11 12  1  0
 12 13  1  0
 13 14  1  6
 14 15  1  0
 15 16  1  0
 16 17  2  0
 16 33  1  0
 17 18  1  0
 18 19  2  0
 19 20  1  0
 19 32  1  0
 20 21  2  0
 20 22  1  0
 22 23  1  0
 23 24  1  6
 23 29  1  0
 24 25  1  0
 25 26  1  0
 26 27  2  0
 26 28  1  0
 29 30  2  0
 29 31  1  0
 32 33  2  0
M  END
