
     RDKit          3D

 33 35  0  0  0  0  0  0  0  0999 V2000
    2.3810    2.1330   -0.6360 N   0  0  0  0  0  0  0  0  0  0  0  0
    3.6460    1.4970   -0.3480 C   0  0  0  0  0  0  0  0  0  0  0  0
    4.5140    2.3260    0.0100 O   0  0  0  0  0  0  0  0  0  0  0  0
    3.8070    0.0820   -0.4810 C   0  0  0  0  0  0  0  0  0  0  0  0
    2.7840   -0.6930   -0.8800 C   0  0  0  0  0  0  0  0  0  0  0  0
    1.4880   -0.4210   -1.2270 N   0  0  0  0  0  0  0  0  0  0  0  0
    0.5670   -1.4790   -1.6330 C   0  0  0  0  0  0  0  0  0  0  0  0
    1.0460   -2.6410   -1.6390 O   0  0  0  0  0  0  0  0  0  0  0  0
   -0.8030   -1.2060   -2.0020 C   0  0  2  0  0  0  0  0  0  0  0  0
   -1.0830   -0.8630   -3.4150 C   0  0  0  0  0  0  0  0  0  0  0  0
   -0.4430    0.3190   -4.0220 C   0  0  0  0  0  0  0  0  0  0  0  0
    0.9970    0.2650   -4.1020 N   0  0  0  0  0  0  0  0  0  0  0  0
   -1.4980   -0.2510   -1.0290 C   0  0  1  0  0  0  0  0  0  0  0  0
   -2.9220   -0.0180   -1.4850 C   0  0  0  0  0  0  0  0  0  0  0  0
   -3.6780    0.6830   -0.3600 C   0  0  0  0  0  0  0  0  0  0  0  0
   -3.7410   -0.2290    0.7400 N   0  0  2  0  0  0  0  0  0  0  0  0
   -4.7160    0.1150    1.7350 C   0  0  1  0  0  0  0  0  0  0  0  0
   -5.3200    1.4810    1.5170 C   0  0  0  0  0  0  0  0  0  0  0  0
   -6.1070    1.8360    2.7600 C   0  0  0  0  0  0  0  0  0  0  0  0
   -6.8990    0.6610    3.2800 C   0  0  0  0  0  0  0  0  0  0  0  0
   -7.1130   -0.3970    2.2320 C   0  0  0  0  0  0  0  0  0  0  0  0
   -5.8510   -0.9020    1.6140 C   0  0  1  0  0  0  0  0  0  0  0  0
   -6.0860   -1.0500    0.1730 N   0  0  0  0  0  0  0  0  0  0  0  0
   -2.3970   -0.2930    1.3210 C   0  0  0  0  0  0  0  0  0  0  0  0
   -1.4290   -0.8770    0.3480 C   0  0  0  0  0  0  0  0  0  0  0  0
    5.0680   -0.5890   -0.2010 C   0  0  0  0  0  0  0  0  0  0  0  0
    4.9540   -1.9180   -0.4150 O   0  0  0  0  0  0  0  0  0  0  0  0
    6.3050   -0.1990    0.2170 N   0  0  0  0  0  0  0  0  0  0  0  0
    7.3270   -1.3250    0.3480 C   0  0  0  0  0  0  0  0  0  0  0  0
    7.6460   -1.3690    1.8220 C   0  0  0  0  0  0  0  0  0  0  0  0
    8.4190   -0.1060    2.1820 C   0  0  0  0  0  0  0  0  0  0  0  0
    8.3420    0.8560    1.0440 C   0  0  0  0  0  0  0  0  0  0  0  0
    6.8820    1.0650    0.5750 C   0  0  0  0  0  0  0  0  0  0  0  0
  1  2  1  0
  2  3  2  0
  2  4  1  0
  4  5  2  3
  4 26  1  0
  5  6  1  0
  6  7  1  0
  7  8  2  0
  7  9  1  0
  9 10  1  6
  9 13  1  0
 10 11  1  0
 11 12  1  0
 13 14  1  6
 13 25  1  0
 14 15  1  0
 16 15  1  6
 16 17  1  0
 16 24  1  0
 17 18  1  6
 17 22  1  0
 18 19  1  0
 19 20  1  0
 20 21  1  0
 21 22  1  0
 22 23  1  6
 24 25  1  0
 26 27  2  0
 26 28  1  0
 28 29  1  0
 28 33  1  0
 29 30  1  0
 30 31  1  0
 31 32  1  0
 32 33  1  0
M  CHG  2  12   1  16   1
M  END
