
     RDKit          3D

 33 35  0  0  0  0  0  0  0  0999 V2000
   -3.3820    1.3010    3.4420 C   0  0  0  0  0  0  0  0  0  0  0  0
   -2.8130    0.7160    2.3970 C   0  0  0  0  0  0  0  0  0  0  0  0
   -1.4630    1.2610    2.1120 C   0  0  0  0  0  0  0  0  0  0  0  0
   -0.8800    2.1150    2.8430 N   0  0  0  0  0  0  0  0  0  0  0  0
   -3.5370   -0.0540    1.3790 C   0  0  0  0  0  0  0  0  0  0  0  0
   -2.9310   -0.8500    0.4970 C   0  0  0  0  0  0  0  0  0  0  0  0
   -1.5660   -1.0720    0.5050 N   0  0  0  0  0  0  0  0  0  0  0  0
   -0.8130   -1.8440   -0.3840 C   0  0  0  0  0  0  0  0  0  0  0  0
   -1.2860   -2.4550   -1.3280 O   0  0  0  0  0  0  0  0  0  0  0  0
    0.6770   -1.9430   -0.1820 C   0  0  0  0  0  0  0  0  0  0  0  0
    1.2370   -2.8680   -1.2170 C   0  0  0  0  0  0  0  0  0  0  0  0
    2.7370   -2.9880   -1.0400 C   0  0  0  0  0  0  0  0  0  0  0  0
    3.4270   -1.7430   -1.1670 N   0  0  0  0  0  0  0  0  0  0  0  0
    3.3730   -0.9780   -2.3660 C   0  0  0  0  0  0  0  0  0  0  0  0
    2.6950   -1.4220   -3.3320 O   0  0  0  0  0  0  0  0  0  0  0  0
    4.0790    0.3190   -2.5290 C   0  0  0  0  0  0  0  0  0  0  0  0
    4.7970    0.6810   -1.3500 N   0  0  0  0  0  0  0  0  0  0  0  0
    4.2330    1.4840   -0.2600 C   0  0  0  0  0  0  0  0  0  0  0  0
    5.2020    2.6580   -0.0930 C   0  0  1  0  0  0  0  0  0  0  0  0
    4.5740    3.6120    0.7700 N   0  0  0  0  0  0  0  0  0  0  0  0
    6.5440    2.1820    0.3990 C   0  0  0  0  0  0  0  0  0  0  0  0
    6.7480    0.7010    0.1660 C   0  0  0  0  0  0  0  0  0  0  0  0
    6.1610    0.2810   -1.1350 C   0  0  0  0  0  0  0  0  0  0  0  0
    6.7830   -0.3750   -2.0030 O   0  0  0  0  0  0  0  0  0  0  0  0
   -3.7240   -1.3260   -0.7050 C   0  0  2  0  0  0  0  0  0  0  0  0
   -3.8890   -0.0910   -1.4840 N   0  0  0  0  0  0  0  0  0  0  0  0
   -4.1340   -0.2990   -2.8670 C   0  0  0  0  0  0  0  0  0  0  0  0
   -4.9840   -1.9150   -0.2810 C   0  0  0  0  0  0  0  0  0  0  0  0
   -5.7430   -1.0110    0.5920 C   0  0  0  0  0  0  0  0  0  0  0  0
   -7.0590   -0.7990    0.7240 C   0  0  0  0  0  0  0  0  0  0  0  0
   -7.2610    0.1970    1.7660 C   0  0  0  0  0  0  0  0  0  0  0  0
   -5.8950    0.6950    2.0730 C   0  0  0  0  0  0  0  0  0  0  0  0
   -5.0320   -0.0900    1.4410 C   0  0  0  0  0  0  0  0  0  0  0  0
  1  2  2  0
  2  3  1  0
  2  5  1  0
  3  4  2  0
  5  6  2  0
  5 33  1  0
  6  7  1  0
  6 25  1  0
  7  8  1  0
  8  9  2  0
  8 10  1  0
 10 11  1  0
 11 12  1  0
 12 13  1  0
 13 14  1  0
 14 15  2  0
 14 16  1  0
 16 17  1  0
 17 18  1  0
 17 23  1  0
 18 19  1  0
 19 20  1  1
 19 21  1  0
 21 22  1  0
 22 23  1  0
 23 24  2  0
 25 26  1  6
 25 28  1  0
 26 27  1  0
 28 29  1  0
 29 30  2  0
 29 33  1  0
 30 31  1  0
 31 32  1  0
 32 33  2  0
M  CHG  2  20   1  26   1
M  END
