
     RDKit          3D

 33 35  0  0  0  0  0  0  0  0999 V2000
   -3.5190    6.4500   -1.9740 C   0  0  0  0  0  0  0  0  0  0  0  0
   -3.0440    5.3520   -2.5150 C   0  0  0  0  0  0  0  0  0  0  0  0
   -2.0210    4.5710   -1.8110 C   0  0  0  0  0  0  0  0  0  0  0  0
   -1.5570    3.4840   -2.3540 C   0  0  0  0  0  0  0  0  0  0  0  0
   -0.5400    2.7360   -1.6240 N   0  0  0  0  0  0  0  0  0  0  0  0
   -0.7660    1.4090   -1.1950 C   0  0  0  0  0  0  0  0  0  0  0  0
   -1.9340    0.9910   -1.4880 O   0  0  0  0  0  0  0  0  0  0  0  0
    0.2120    0.5400   -0.4960 C   0  0  0  0  0  0  0  0  0  0  0  0
   -0.2530   -0.7430   -0.0590 C   0  0  0  0  0  0  0  0  0  0  0  0
   -1.4480   -1.1810    0.2510 C   0  0  0  0  0  0  0  0  0  0  0  0
   -2.7240   -0.5520    0.2840 N   0  0  0  0  0  0  0  0  0  0  0  0
   -3.5850   -1.4990   -0.2640 N   0  0  0  0  0  0  0  0  0  0  0  0
   -3.1230   -2.7410    0.2710 C   0  0  2  0  0  0  0  0  0  0  0  0
   -3.9790   -3.3240    1.3460 C   0  0  0  0  0  0  0  0  0  0  0  0
   -3.8230   -4.7950    1.5380 C   0  0  0  0  0  0  0  0  0  0  0  0
   -2.4130   -5.2570    1.6550 C   0  0  0  0  0  0  0  0  0  0  0  0
   -1.4440   -4.3130    2.2630 C   0  0  0  0  0  0  0  0  0  0  0  0
   -0.7590   -3.4330    1.2080 C   0  0  0  0  0  0  0  0  0  0  0  0
   -1.7630   -2.5630    0.6150 N   0  0  0  0  0  0  0  0  0  0  0  0
    1.4900    0.7910   -0.6390 C   0  0  0  0  0  0  0  0  0  0  0  0
    1.7460    1.9090   -1.5180 O   0  0  0  0  0  0  0  0  0  0  0  0
    2.6760    0.1760   -0.0760 C   0  0  0  0  0  0  0  0  0  0  0  0
    3.8940    0.6300   -0.3970 C   0  0  0  0  0  0  0  0  0  0  0  0
    4.1780    1.7560   -1.3130 C   0  0  0  0  0  0  0  0  0  0  0  0
    2.6250   -0.8610    0.9560 C   0  0  0  0  0  0  0  0  0  0  0  0
    3.9080   -1.1480    1.6040 N   0  0  0  0  0  0  0  0  0  0  0  0
    4.3700   -0.1170    2.4650 C   0  0  0  0  0  0  0  0  0  0  0  0
    5.8600   -0.1970    2.6940 C   0  0  0  0  0  0  0  0  0  0  0  0
    6.1610   -1.4910    3.3080 N   0  0  0  0  0  0  0  0  0  0  0  0
   -1.9720    2.9520   -3.6650 C   0  0  0  0  0  0  0  0  0  0  0  0
   -2.9480    3.7020   -4.3110 O   0  0  0  0  0  0  0  0  0  0  0  0
   -3.4880    4.8550   -3.8060 C   0  0  0  0  0  0  0  0  0  0  0  0
   -4.4220    5.5110   -4.5150 C   0  0  0  0  0  0  0  0  0  0  0  0
  1  2  2  0
  2  3  1  0
  2 32  1  0
  3  4  2  0
  4  5  1  0
  4 30  1  0
  5  6  1  0
  6  7  2  0
  6  8  1  0
  8  9  1  0
  8 20  2  3
  9 10  2  3
 10 11  1  0
 10 19  1  0
 11 12  1  0
 12 13  1  0
 13 14  1  1
 13 19  1  0
 14 15  1  0
 15 16  1  0
 16 17  1  0
 17 18  1  0
 18 19  1  0
 20 21  1  0
 20 22  1  0
 22 23  2  3
 22 25  1  0
 23 24  1  0
 25 26  1  0
 26 27  1  0
 27 28  1  0
 28 29  1  0
 30 31  1  0
 31 32  1  0
 32 33  2  0
M  CHG  2  26   1  29   1
M  END
