
     RDKit          3D

 33 35  0  0  0  0  0  0  0  0999 V2000
   -5.8020    0.8200    0.1010 C   0  0  0  0  0  0  0  0  0  0  0  0
   -4.7840    1.6050   -0.5660 N   0  0  0  0  0  0  0  0  0  0  0  0
   -3.8140    1.0500   -1.4280 C   0  0  0  0  0  0  0  0  0  0  0  0
   -2.6930    0.4240   -0.7820 N   0  0  0  0  0  0  0  0  0  0  0  0
   -1.9680    1.0470    0.1150 C   0  0  0  0  0  0  0  0  0  0  0  0
   -0.8590    0.3790    0.7310 C   0  0  0  0  0  0  0  0  0  0  0  0
   -0.0790    0.9580    1.6560 C   0  0  0  0  0  0  0  0  0  0  0  0
   -0.3770    2.3130    2.0370 C   0  0  0  0  0  0  0  0  0  0  0  0
    0.2520    3.0680    2.8950 C   0  0  0  0  0  0  0  0  0  0  0  0
   -0.2440    4.4580    3.1350 C   0  0  0  0  0  0  0  0  0  0  0  0
    0.4260    5.2860    4.0570 N   0  0  0  0  0  0  0  0  0  0  0  0
   -1.2370    4.8520    2.5150 O   0  0  0  0  0  0  0  0  0  0  0  0
    1.0330    0.2430    2.2970 C   0  0  1  0  0  0  0  0  0  0  0  0
    2.3930    0.8320    2.0490 C   0  0  0  0  0  0  0  0  0  0  0  0
    3.1080    0.5180    3.3260 C   0  0  0  0  0  0  0  0  0  0  0  0
    2.1840    0.5820    4.3090 O   0  0  0  0  0  0  0  0  0  0  0  0
    0.9650    0.2330    3.8210 C   0  0  0  0  0  0  0  0  0  0  0  0
    1.1230   -1.2450    1.9160 C   0  0  0  0  0  0  0  0  0  0  0  0
    0.7100   -1.4810    0.5860 N   0  0  0  0  0  0  0  0  0  0  0  0
    1.4950   -2.1420   -0.4030 C   0  0  0  0  0  0  0  0  0  0  0  0
    0.9750   -2.6150   -1.5880 C   0  0  0  0  0  0  0  0  0  0  0  0
    1.7630   -3.2470   -2.5450 C   0  0  0  0  0  0  0  0  0  0  0  0
    3.1070   -3.4170   -2.3230 C   0  0  0  0  0  0  0  0  0  0  0  0
    3.9160   -4.0570   -3.2910 N   0  0  0  0  0  0  0  0  0  0  0  0
    3.6700   -2.9610   -1.1540 C   0  0  0  0  0  0  0  0  0  0  0  0
    5.1230   -3.1640   -0.9590 C   0  0  0  0  0  0  0  0  0  0  0  0
    5.5600   -2.6570    0.2630 O   0  0  0  0  0  0  0  0  0  0  0  0
    2.8610   -2.3390   -0.2270 C   0  0  0  0  0  0  0  0  0  0  0  0
   -0.6060   -1.0070    0.2410 C   0  0  0  0  0  0  0  0  0  0  0  0
   -3.8070    1.0380   -2.7370 C   0  0  0  0  0  0  0  0  0  0  0  0
   -2.6190    0.3600   -3.4270 C   0  0  0  0  0  0  0  0  0  0  0  0
   -4.7810    1.5880   -3.6400 C   0  0  0  0  0  0  0  0  0  0  0  0
   -5.8340    2.1880   -3.2740 N   0  0  0  0  0  0  0  0  0  0  0  0
  1  2  1  0
  2  3  1  0
  3  4  1  0
  3 30  2  3
  4  5  2  3
  5  6  1  0
  6  7  2  0
  6 29  1  0
  7  8  1  0
  7 13  1  0
  8  9  2  3
  9 10  1  0
 10 11  1  0
 10 12  2  0
 13 14  1  1
 13 17  1  0
 13 18  1  0
 14 15  1  0
 15 16  1  0
 16 17  1  0
 18 19  1  0
 19 20  1  0
 19 29  1  0
 20 21  2  0
 20 28  1  0
 21 22  1  0
 22 23  2  0
 23 24  1  0
 23 25  1  0
 25 26  1  0
 25 28  2  0
 26 27  1  0
 30 31  1  0
 30 32  1  0
 32 33  2  0
M  CHG  2  24   1  33   1
M  END
