
     RDKit          3D

 16 15  0  0  0  0  0  0  0  0999 V2000
   -2.6720   -1.8750    2.1460 O   0  0  0  0  0  0  0  0  0  0  0  0
   -2.5660   -2.3110    0.9530 C   0  0  0  0  0  0  0  0  0  0  0  0
   -2.1000   -1.4290    0.0010 O   0  0  0  0  0  0  0  0  0  0  0  0
   -1.7600   -0.1180    0.3290 C   0  0  2  0  0  0  0  0  0  0  0  0
   -2.5830    0.7850   -0.3380 O   0  0  0  0  0  0  0  0  0  0  0  0
   -3.5280    1.7540    0.6980 P   0  0  0  0  0  0  0  0  0  0  0  0
   -3.1740    3.4210    0.6260 O   0  0  0  0  0  0  0  0  0  0  0  0
   -3.7200    1.1350    2.2780 O   0  0  0  0  0  0  0  0  0  0  0  0
   -0.3540    0.2170    0.0760 C   0  0  0  0  0  0  0  0  0  0  0  0
    0.0330    1.3820    0.3460 O   0  0  0  0  0  0  0  0  0  0  0  0
    0.5850   -0.6630   -0.4430 O   0  0  0  0  0  0  0  0  0  0  0  0
    1.9030   -0.2880   -0.6620 C   0  0  0  0  0  0  0  0  0  0  0  0
    2.2820    0.8800   -0.3890 O   0  0  0  0  0  0  0  0  0  0  0  0
    2.8840   -1.1760   -1.1940 N   0  0  0  0  0  0  0  0  0  0  0  0
    4.2670   -0.7350   -1.4080 C   0  0  0  0  0  0  0  0  0  0  0  0
    4.2930    0.3420   -2.3050 O   0  0  0  0  0  0  0  0  0  0  0  0
  1  2  2  0
  2  3  1  0
  4  3  1  6
  4  5  1  0
  4  9  1  0
  5  6  1  0
  6  7  1  0
  6  8  1  0
  9 10  2  0
  9 11  1  0
 11 12  1  0
 12 13  2  0
 12 14  1  0
 14 15  1  0
 15 16  1  0
M  END
