
     RDKit          3D

 15 14  0  0  0  0  0  0  0  0999 V2000
   -4.3240    0.3300   -1.4630 O   0  0  0  0  0  0  0  0  0  0  0  0
   -4.2090    0.2750   -0.1960 C   0  0  0  0  0  0  0  0  0  0  0  0
   -5.1650   -0.3830    0.5400 O   0  0  0  0  0  0  0  0  0  0  0  0
   -3.0510    0.9240    0.4220 C   0  0  1  0  0  0  0  0  0  0  0  0
   -3.1000    0.7940    1.8020 O   0  0  0  0  0  0  0  0  0  0  0  0
   -1.7340    0.4250   -0.0500 C   0  0  0  0  0  0  0  0  0  0  0  0
   -1.5780    0.2600   -1.2840 O   0  0  0  0  0  0  0  0  0  0  0  0
   -0.7260    0.1610    0.8740 N   0  0  0  0  0  0  0  0  0  0  0  0
    0.4780   -0.2900    0.6000 O   0  0  0  0  0  0  0  0  0  0  0  0
    0.6930   -0.6990   -0.6930 C   0  0  0  0  0  0  0  0  0  0  0  0
    2.0430   -1.1670   -0.7750 O   0  0  0  0  0  0  0  0  0  0  0  0
    2.7900   -0.0310   -0.4050 C   0  0  0  0  0  0  0  0  0  0  0  0
    4.6030   -0.3720   -0.4320 P   0  0  0  0  0  0  0  0  0  0  0  0
    4.8600   -1.9810    0.1860 O   0  0  0  0  0  0  0  0  0  0  0  0
    5.3570    0.8010    0.6210 O   0  0  0  0  0  0  0  0  0  0  0  0
  1  2  2  0
  2  3  1  0
  2  4  1  0
  4  5  1  1
  4  6  1  0
  6  7  2  0
  6  8  1  0
  8  9  1  0
  9 10  1  0
 10 11  1  0
 11 12  1  0
 12 13  1  0
 13 14  1  0
 13 15  1  0
M  END
