
     RDKit          3D

 16 16  0  0  0  0  0  0  0  0999 V2000
   -0.0090   -1.4720   -0.7710 O   0  0  0  0  0  0  0  0  0  0  0  0
   -0.3220   -0.5790    0.3130 C   0  0  2  0  0  0  0  0  0  0  0  0
    1.0610   -0.1020    0.7180 C   0  0  0  0  0  0  0  0  0  0  0  0
    1.8410    0.5510   -0.2590 N   0  0  0  0  0  0  0  0  0  0  0  0
    2.6440   -0.1280   -1.1220 C   0  0  0  0  0  0  0  0  0  0  0  0
    3.2750    0.8080   -1.9010 C   0  0  0  0  0  0  0  0  0  0  0  0
    2.8510    2.0120   -1.5020 N   0  0  0  0  0  0  0  0  0  0  0  0
    1.9680    1.8510   -0.4910 C   0  0  0  0  0  0  0  0  0  0  0  0
   -1.0640   -1.6880    1.4680 P   0  0  0  0  0  0  0  0  0  0  0  0
   -1.3790   -3.2830    0.9730 O   0  0  0  0  0  0  0  0  0  0  0  0
   -2.5280   -1.3930    1.1390 O   0  0  0  0  0  0  0  0  0  0  0  0
   -1.2640   -1.3010    3.0310 O   0  0  0  0  0  0  0  0  0  0  0  0
   -1.3080    0.7580   -0.1330 P   0  0  0  0  0  0  0  0  0  0  0  0
   -2.6280    0.4950   -1.1560 O   0  0  0  0  0  0  0  0  0  0  0  0
   -1.1130    2.2170    0.6370 O   0  0  0  0  0  0  0  0  0  0  0  0
   -0.5260    1.2690   -1.3410 O   0  0  0  0  0  0  0  0  0  0  0  0
  2  1  1  6
  2  3  1  0
  2  9  1  0
  2 13  1  0
  3  4  1  0
  4  5  1  0
  4  8  1  0
  5  6  2  0
  6  7  1  0
  7  8  2  0
  9 10  1  0
  9 11  1  0
  9 12  1  0
 13 14  1  0
 13 15  1  0
 13 16  1  0
M  END
