
     RDKit          3D

 15 15  0  0  0  0  0  0  0  0999 V2000
   -1.6770    3.1310    1.1420 N   0  0  0  0  0  0  0  0  0  0  0  0
   -1.5780    1.9770    0.3720 O   0  0  0  0  0  0  0  0  0  0  0  0
   -0.6040    1.0180    0.6360 C   0  0  0  0  0  0  0  0  0  0  0  0
    0.1680    1.2720    1.6090 O   0  0  0  0  0  0  0  0  0  0  0  0
   -0.4670   -0.2260   -0.1630 C   0  0  2  0  0  0  0  0  0  0  0  0
    0.9340   -0.3090   -0.7830 C   0  0  0  0  0  0  0  0  0  0  0  0
    1.8660   -0.3040    0.2520 O   0  0  0  0  0  0  0  0  0  0  0  0
    3.4820   -0.3930   -0.2870 P   0  0  0  0  0  0  0  0  0  0  0  0
    4.0600    1.0290   -1.0380 O   0  0  0  0  0  0  0  0  0  0  0  0
    4.5600   -1.0650    0.8640 O   0  0  0  0  0  0  0  0  0  0  0  0
   -1.4390   -0.2270   -1.1480 O   0  0  0  0  0  0  0  0  0  0  0  0
   -2.5260   -0.8030   -0.4480 C   0  0  0  0  0  0  0  0  0  0  0  0
   -1.7880   -2.0040    0.1430 C   0  0  1  0  0  0  0  0  0  0  0  0
   -1.5150   -2.8640   -0.9070 O   0  0  0  0  0  0  0  0  0  0  0  0
   -0.6380   -1.3620    0.5990 O   0  0  0  0  0  0  0  0  0  0  0  0
  1  2  1  0
  2  3  1  0
  3  4  2  0
  3  5  1  0
  5  6  1  6
  5 11  1  0
  5 15  1  0
  6  7  1  0
  7  8  1  0
  8  9  1  0
  8 10  1  0
 11 12  1  0
 12 13  1  0
 13 14  1  6
 13 15  1  0
M  END
