
     RDKit          3D

 15 14  0  0  0  0  0  0  0  0999 V2000
    0.2150   -0.0210    1.9130 O   0  0  0  0  0  0  0  0  0  0  0  0
    0.8420    0.2540    0.8730 C   0  0  0  0  0  0  0  0  0  0  0  0
    1.9020    1.2760    0.8860 C   0  0  0  0  0  0  0  0  0  0  0  0
    3.1500    0.6250    1.4520 C   0  0  0  0  0  0  0  0  0  0  0  0
    3.6280   -0.8070    0.3690 P   0  0  0  0  0  0  0  0  0  0  0  0
    4.9690   -1.6200    1.1000 O   0  0  0  0  0  0  0  0  0  0  0  0
    3.9780   -0.2750   -1.2430 O   0  0  0  0  0  0  0  0  0  0  0  0
    0.5370   -0.4070   -0.2970 O   0  0  0  0  0  0  0  0  0  0  0  0
   -0.4320   -1.3280   -0.2660 O   0  0  0  0  0  0  0  0  0  0  0  0
   -1.3690   -0.8990   -1.1500 O   0  0  0  0  0  0  0  0  0  0  0  0
   -2.5980   -0.4370   -0.7160 C   0  0  0  0  0  0  0  0  0  0  0  0
   -2.7970   -0.4390    0.5420 O   0  0  0  0  0  0  0  0  0  0  0  0
   -3.6060    0.0210   -1.5970 N   0  0  0  0  0  0  0  0  0  0  0  0
   -4.8580    0.4810   -1.0000 C   0  0  0  0  0  0  0  0  0  0  0  0
   -5.4480   -0.5630   -0.2730 O   0  0  0  0  0  0  0  0  0  0  0  0
  1  2  2  0
  2  3  1  0
  2  8  1  0
  3  4  1  0
  4  5  1  0
  5  6  1  0
  5  7  1  0
  8  9  1  0
  9 10  1  0
 10 11  1  0
 11 12  2  0
 11 13  1  0
 13 14  1  0
 14 15  1  0
M  END
