
     RDKit          3D

 15 14  0  0  0  0  0  0  0  0999 V2000
   -1.3640   -2.0050    0.8180 C   0  0  0  0  0  0  0  0  0  0  0  0
   -1.8750   -0.8560   -0.0140 C   0  0  2  0  0  0  0  0  0  0  0  0
   -2.1980   -1.3450   -1.3450 N   0  0  0  0  0  0  0  0  0  0  0  0
   -1.0160    0.2090   -0.0760 O   0  0  0  0  0  0  0  0  0  0  0  0
    0.1480   -0.0420   -0.5790 O   0  0  0  0  0  0  0  0  0  0  0  0
    1.1690    0.4840    0.2360 C   0  0  0  0  0  0  0  0  0  0  0  0
    2.4960    0.2060   -0.3240 C   0  0  0  0  0  0  0  0  0  0  0  0
    2.6420   -0.4310   -1.4070 O   0  0  0  0  0  0  0  0  0  0  0  0
    3.6100    0.6500    0.3460 O   0  0  0  0  0  0  0  0  0  0  0  0
    4.9280    0.4330   -0.1110 C   0  0  0  0  0  0  0  0  0  0  0  0
    5.0850    1.0200   -1.3680 O   0  0  0  0  0  0  0  0  0  0  0  0
   -3.0540   -0.4040    0.6130 O   0  0  0  0  0  0  0  0  0  0  0  0
   -3.7290    0.9390   -0.2840 P   0  0  0  0  0  0  0  0  0  0  0  0
   -2.6290    2.2620   -0.3480 O   0  0  0  0  0  0  0  0  0  0  0  0
   -5.1530    1.4540    0.5570 O   0  0  0  0  0  0  0  0  0  0  0  0
  2  1  1  1
  2  3  1  0
  2  4  1  0
  2 12  1  0
  4  5  1  0
  5  6  1  0
  6  7  1  0
  7  8  2  0
  7  9  1  0
  9 10  1  0
 10 11  1  0
 12 13  1  0
 13 14  1  0
 13 15  1  0
M  END
