
     RDKit          3D

 15 14  0  0  0  0  0  0  0  0999 V2000
    2.8190   -0.0110    0.8870 C   0  0  0  0  0  0  0  0  0  0  0  0
    2.3050   -0.9380   -0.2100 C   0  0  2  0  0  0  0  0  0  0  0  0
    3.2350   -1.9530   -0.4510 O   0  0  0  0  0  0  0  0  0  0  0  0
    2.1800   -0.2260   -1.3800 O   0  0  0  0  0  0  0  0  0  0  0  0
    0.9840   -0.2060   -1.8560 O   0  0  0  0  0  0  0  0  0  0  0  0
    0.0230    0.2810   -1.0010 C   0  0  2  0  0  0  0  0  0  0  0  0
   -1.1640   -0.6420   -0.8400 C   0  0  0  0  0  0  0  0  0  0  0  0
   -2.0320   -0.0620    0.0660 O   0  0  0  0  0  0  0  0  0  0  0  0
   -3.4410   -0.9590    0.3820 P   0  0  0  0  0  0  0  0  0  0  0  0
   -3.3850   -2.5900   -0.1250 O   0  0  0  0  0  0  0  0  0  0  0  0
   -3.7880   -0.8450    2.0940 O   0  0  0  0  0  0  0  0  0  0  0  0
   -0.4140    1.5890   -1.5000 N   0  0  0  0  0  0  0  0  0  0  0  0
   -0.2430    2.7760   -0.7530 C   0  0  0  0  0  0  0  0  0  0  0  0
    0.3060    2.7390    0.3940 O   0  0  0  0  0  0  0  0  0  0  0  0
   -0.6510    4.0160   -1.2120 O   0  0  0  0  0  0  0  0  0  0  0  0
  2  1  1  1
  2  3  1  0
  2  4  1  0
  4  5  1  0
  5  6  1  0
  6  7  1  6
  6 12  1  0
  7  8  1  0
  8  9  1  0
  9 10  1  0
  9 11  1  0
 12 13  1  0
 13 14  2  0
 13 15  1  0
M  END
