
     RDKit          3D

 24 26  0  0  0  0  0  0  0  0999 V2000
    3.7310   -0.0540    3.4540 N   0  0  0  0  0  0  0  0  0  0  0  0
    4.2020    0.1340    2.1600 O   0  0  0  0  0  0  0  0  0  0  0  0
    3.6920   -0.5700    1.0820 C   0  0  0  0  0  0  0  0  0  0  0  0
    2.3950   -0.3370    0.6500 O   0  0  0  0  0  0  0  0  0  0  0  0
    1.7650    0.8090    0.9440 O   0  0  0  0  0  0  0  0  0  0  0  0
    0.6710    1.0070    0.1040 C   0  0  2  0  0  0  0  0  0  0  0  0
   -0.3300   -0.1530    0.2610 C   0  0  0  0  0  0  0  0  0  0  0  0
   -1.4020    0.0740   -0.7590 C   0  0  2  0  0  0  0  0  0  0  0  0
   -2.7180   -0.5460   -0.4830 C   0  0  1  0  0  0  0  0  0  0  0  0
   -3.8660    0.0520   -1.7050 Cl  0  0  0  0  0  0  0  0  0  0  0  0
   -2.7260   -2.0550   -0.4550 C   0  0  0  0  0  0  0  0  0  0  0  0
   -3.7760   -2.3580    0.6190 C   0  0  0  0  0  0  0  0  0  0  0  0
   -4.4060   -0.9870    0.8960 C   0  0  0  0  0  0  0  0  0  0  0  0
   -3.1900   -0.1450    0.8260 N   0  0  0  0  0  0  0  0  0  0  0  0
   -0.9040   -0.2790   -2.0320 O   0  0  0  0  0  0  0  0  0  0  0  0
   -0.2850    0.7300   -2.6090 O   0  0  0  0  0  0  0  0  0  0  0  0
    1.1680    0.9900   -1.6710 P   0  0  0  0  0  0  0  0  0  0  0  0
    2.0400    2.3620   -2.1650 O   0  0  0  0  0  0  0  0  0  0  0  0
    1.9160    3.4640   -1.3570 C   0  0  0  0  0  0  0  0  0  0  0  0
    0.3090    3.5220   -0.4660 P   0  0  0  0  0  0  0  0  0  0  0  0
   -0.9820    3.9550   -1.5080 O   0  0  0  0  0  0  0  0  0  0  0  0
    0.0020    2.1420    0.4870 O   0  0  0  0  0  0  0  0  0  0  0  0
    4.6890   -1.6780    0.3540 P   0  0  0  0  0  0  0  0  0  0  0  0
    4.1930   -2.6670   -1.0430 N   0  0  0  0  0  0  0  0  0  0  0  0
  1  2  1  0
  2  3  1  0
  3  4  1  0
  3 23  2  3
  4  5  1  0
  6  5  1  1
  6  7  1  0
  6 17  1  0
  6 22  1  0
  8  7  1  1
  8  9  1  0
  8 15  1  0
  9 10  1  6
  9 11  1  0
  9 14  1  0
 11 12  1  0
 12 13  1  0
 13 14  1  0
 15 16  1  0
 16 17  1  0
 17 18  1  0
 18 19  1  0
 19 20  1  0
 20 21  1  0
 20 22  1  0
 23 24  1  0
M  END
