
     RDKit          3D

 27 29  0  0  0  0  0  0  0  0999 V2000
    1.4770    3.1610   -0.9130 N   0  0  0  0  0  0  0  0  0  0  0  0
    0.6040    1.7260   -0.3250 P   0  0  0  0  0  0  0  0  0  0  0  0
   -0.9330    1.4810   -1.0580 O   0  0  0  0  0  0  0  0  0  0  0  0
   -2.1530    1.1390   -0.5630 C   0  0  0  0  0  0  0  0  0  0  0  0
   -3.2090    2.0910   -0.7010 O   0  0  0  0  0  0  0  0  0  0  0  0
   -4.5040    1.8370   -0.2560 C   0  0  0  0  0  0  0  0  0  0  0  0
   -4.9770    0.7040   -0.9470 O   0  0  0  0  0  0  0  0  0  0  0  0
   -2.4320    0.0590    0.0040 N   0  0  0  0  0  0  0  0  0  0  0  0
   -1.7490   -1.1220    0.3470 C   0  0  1  0  0  0  0  0  0  0  0  0
   -1.2990   -0.9590    1.6840 O   0  0  0  0  0  0  0  0  0  0  0  0
   -2.3620   -0.7720    2.4530 O   0  0  0  0  0  0  0  0  0  0  0  0
   -2.6070   -2.2400    0.4460 O   0  0  0  0  0  0  0  0  0  0  0  0
   -2.2320   -3.0970   -0.5730 C   0  0  0  0  0  0  0  0  0  0  0  0
   -0.9150   -2.8760   -0.8570 O   0  0  0  0  0  0  0  0  0  0  0  0
   -0.6070   -1.5520   -0.4680 C   0  0  2  0  0  0  0  0  0  0  0  0
    0.5650   -1.6990    0.3100 O   0  0  0  0  0  0  0  0  0  0  0  0
    1.7290   -2.3440   -0.8000 P   0  0  0  0  0  0  0  0  0  0  0  0
    3.0250   -1.4210   -1.2640 C   0  0  0  0  0  0  0  0  0  0  0  0
    3.2290    0.2640   -0.6130 P   0  0  0  0  0  0  0  0  0  0  0  0
    3.0210    0.1690    1.5780 P   0  0  0  0  0  0  0  0  0  0  0  0
    1.4390    0.6730    2.1180 O   0  0  0  0  0  0  0  0  0  0  0  0
    0.6520    1.6090    1.4690 C   0  0  0  0  0  0  0  0  0  0  0  0
   -0.0410    2.3890    2.1700 O   0  0  0  0  0  0  0  0  0  0  0  0
    4.0920    1.4520    1.1410 O   0  0  0  0  0  0  0  0  0  0  0  0
    4.7900    0.5460    0.3440 C   0  0  1  0  0  0  0  0  0  0  0  0
    5.3240   -0.6010    1.0130 N   0  0  0  0  0  0  0  0  0  0  0  0
    6.1320    1.3590   -0.7860 Br  0  0  0  0  0  0  0  0  0  0  0  0
  1  2  1  0
  2  3  1  0
  2 22  1  0
  3  4  1  0
  4  5  1  0
  4  8  2  0
  5  6  1  0
  6  7  1  0
  8  9  1  0
  9 10  1  1
  9 12  1  0
  9 15  1  0
 10 11  1  0
 12 13  1  0
 13 14  1  0
 15 14  1  1
 15 16  1  0
 16 17  1  0
 17 18  2  0
 18 19  1  0
 19 20  1  0
 19 25  1  0
 20 21  1  0
 20 24  1  0
 21 22  1  0
 22 23  2  0
 24 25  1  0
 25 26  1  1
 25 27  1  0
M  END
