
     RDKit          3D

 26 27  0  0  0  0  0  0  0  0999 V2000
    4.6220   -1.8970   -1.6940 O   0  0  0  0  0  0  0  0  0  0  0  0
    4.0170   -1.2490   -0.7710 C   0  0  0  0  0  0  0  0  0  0  0  0
    3.1100   -2.1040    0.0500 C   0  0  0  0  0  0  0  0  0  0  0  0
    1.7080   -2.1450   -0.5730 C   0  0  0  0  0  0  0  0  0  0  0  0
    0.9240   -3.1020    0.3070 C   0  0  0  0  0  0  0  0  0  0  0  0
   -0.4570   -3.3550   -0.2160 C   0  0  0  0  0  0  0  0  0  0  0  0
   -1.4580   -2.4790    0.4860 C   0  0  0  0  0  0  0  0  0  0  0  0
   -1.9560   -1.5770   -0.4500 O   0  0  0  0  0  0  0  0  0  0  0  0
   -3.3410   -1.6000   -0.3950 C   0  0  0  0  0  0  0  0  0  0  0  0
   -3.8320   -0.5410    0.5750 C   0  0  2  0  0  0  0  0  0  0  0  0
   -3.8030   -0.9780    1.8710 F   0  0  0  0  0  0  0  0  0  0  0  0
   -5.1120   -0.1980    0.1610 F   0  0  0  0  0  0  0  0  0  0  0  0
   -3.0290    0.5740    0.4120 O   0  0  0  0  0  0  0  0  0  0  0  0
   -3.0320    1.3730    1.4450 O   0  0  0  0  0  0  0  0  0  0  0  0
   -2.8500    2.6630    0.9650 C   0  0  0  0  0  0  0  0  0  0  0  0
   -1.7100    2.7410   -0.0360 C   0  0  0  0  0  0  0  0  0  0  0  0
   -1.1710    4.0350   -0.1280 O   0  0  0  0  0  0  0  0  0  0  0  0
    0.2290    4.3000    0.0830 C   0  0  0  0  0  0  0  0  0  0  0  0
    0.3350    5.5790    0.3650 O   0  0  0  0  0  0  0  0  0  0  0  0
    1.2180    3.2160   -0.0350 C   0  0  0  0  0  0  0  0  0  0  0  0
    1.8130    2.9110   -1.2360 C   0  0  0  0  0  0  0  0  0  0  0  0
    2.7640    1.8590   -1.4010 C   0  0  0  0  0  0  0  0  0  0  0  0
    3.1260    1.0920   -0.3330 C   0  0  0  0  0  0  0  0  0  0  0  0
    2.5710    1.3440    0.8840 C   0  0  0  0  0  0  0  0  0  0  0  0
    1.6290    2.3970    1.0110 C   0  0  0  0  0  0  0  0  0  0  0  0
    4.0710    0.0290   -0.4450 O   0  0  0  0  0  0  0  0  0  0  0  0
  1  2  2  0
  2  3  1  0
  2 26  1  0
  3  4  1  0
  4  5  1  0
  5  6  1  0
  6  7  1  0
  7  8  1  0
  8  9  1  0
  9 10  1  0
 10 11  1  1
 10 12  1  0
 10 13  1  0
 13 14  1  0
 14 15  1  0
 15 16  1  0
 16 17  1  0
 17 18  1  0
 18 19  2  0
 18 20  1  0
 20 21  2  0
 20 25  1  0
 21 22  1  0
 22 23  2  0
 23 24  1  0
 23 26  1  0
 24 25  2  0
M  END
