
     RDKit          3D

 26 28  0  0  0  0  0  0  0  0999 V2000
   -2.1890   -3.0020   -1.5580 N   0  0  0  0  0  0  0  0  0  0  0  0
   -1.6910   -1.9140   -0.8310 C   0  0  0  0  0  0  0  0  0  0  0  0
   -2.2010   -0.8180   -0.5450 C   0  0  0  0  0  0  0  0  0  0  0  0
   -3.4790   -0.2390   -0.8340 O   0  0  0  0  0  0  0  0  0  0  0  0
   -4.0270    0.7610    0.5850 P   0  0  0  0  0  0  0  0  0  0  0  0
   -3.2050    2.1410    1.0040 O   0  0  0  0  0  0  0  0  0  0  0  0
   -2.0040    2.1640    1.5130 O   0  0  0  0  0  0  0  0  0  0  0  0
   -1.5450    1.1550    2.2360 C   0  0  2  0  0  0  0  0  0  0  0  0
   -1.6860    1.1330    3.5850 O   0  0  0  0  0  0  0  0  0  0  0  0
   -0.1980    0.6110    1.9850 O   0  0  0  0  0  0  0  0  0  0  0  0
   -0.1430    0.3910    0.5490 C   0  0  0  0  0  0  0  0  0  0  0  0
    1.0920    0.3980    0.0720 C   0  0  0  0  0  0  0  0  0  0  0  0
    1.5250    0.3010   -1.3300 C   0  0  0  0  0  0  0  0  0  0  0  0
    2.2610    1.5260   -1.4880 O   0  0  0  0  0  0  0  0  0  0  0  0
    1.5990    2.5950   -1.7280 N   0  0  0  0  0  0  0  0  0  0  0  0
    2.2890    0.3140    1.0470 C   0  0  0  0  0  0  0  0  0  0  0  0
    3.0490   -1.3110    0.7620 P   0  0  0  0  0  0  0  0  0  0  0  0
    2.2040   -2.3780   -0.2660 O   0  0  0  0  0  0  0  0  0  0  0  0
    5.1600   -1.5270    0.7580 P   0  0  0  0  0  0  0  0  0  0  0  0
   -1.4800    0.2490    0.2350 C   0  0  1  0  0  0  0  0  0  0  0  0
   -1.8190    1.3840   -0.4320 O   0  0  0  0  0  0  0  0  0  0  0  0
   -1.6400    1.4390   -2.1010 P   0  0  0  0  0  0  0  0  0  0  0  0
   -2.1540    2.4530   -3.0690 O   0  0  0  0  0  0  0  0  0  0  0  0
   -2.0610   -0.1170    1.6080 C   0  0  1  0  0  0  0  0  0  0  0  0
   -1.0640   -1.5480    2.4170 Br  0  0  0  0  0  0  0  0  0  0  0  0
   -3.3360   -0.3850    1.7880 O   0  0  0  0  0  0  0  0  0  0  0  0
  1  2  1  0
  2  3  2  3
  3  4  1  0
  3 20  1  0
  4  5  1  0
  5  6  1  0
  5 26  1  0
  6  7  1  0
  7  8  1  0
  8  9  1  1
  8 10  1  0
  8 24  1  0
 10 11  1  0
 11 12  2  3
 11 20  1  0
 12 13  1  0
 12 16  1  0
 13 14  1  0
 14 15  1  0
 16 17  1  0
 17 18  1  0
 17 19  1  0
 20 21  1  6
 20 24  1  0
 21 22  1  0
 22 23  2  0
 24 25  1  1
 24 26  1  0
M  END
