
     RDKit          3D

 24 26  0  0  0  0  0  0  0  0999 V2000
   -6.2150    1.5470    0.2690 N   0  0  0  0  0  0  0  0  0  0  0  0
   -6.3690    0.2990    0.7130 O   0  0  0  0  0  0  0  0  0  0  0  0
   -5.2330   -0.7960   -0.0580 P   0  0  0  0  0  0  0  0  0  0  0  0
   -3.2960   -0.5230    0.8960 P   0  0  0  0  0  0  0  0  0  0  0  0
   -2.9220    1.2120    1.1580 N   0  0  0  0  0  0  0  0  0  0  0  0
   -1.9100   -1.2430   -0.1720 C   0  0  1  0  0  0  0  0  0  0  0  0
   -1.7250   -0.1600   -1.1620 O   0  0  0  0  0  0  0  0  0  0  0  0
   -0.5240   -0.2440   -1.9270 C   0  0  0  0  0  0  0  0  0  0  0  0
    0.6180    0.0420   -1.4100 C   0  0  0  0  0  0  0  0  0  0  0  0
    1.9120    0.0260   -1.8810 O   0  0  0  0  0  0  0  0  0  0  0  0
    2.7500   -0.9380   -1.0940 C   0  0  0  0  0  0  0  0  0  0  0  0
    3.8150   -1.2240   -1.6460 O   0  0  0  0  0  0  0  0  0  0  0  0
    2.2050   -1.3940    0.1870 C   0  0  2  0  0  0  0  0  0  0  0  0
    1.0200   -2.2230    0.2660 C   0  0  0  0  0  0  0  0  0  0  0  0
    0.9440   -3.3630   -0.0920 O   0  0  0  0  0  0  0  0  0  0  0  0
   -0.4750   -1.3560    1.0040 P   0  0  0  0  0  0  0  0  0  0  0  0
    0.5630    0.6230    0.4110 P   0  0  0  0  0  0  0  0  0  0  0  0
    2.1520   -0.1910    1.0850 C   0  0  1  0  0  0  0  0  0  0  0  0
    1.9360   -0.6190    2.9440 Br  0  0  0  0  0  0  0  0  0  0  0  0
    3.2650    0.6940    0.7840 C   0  0  0  0  0  0  0  0  0  0  0  0
    3.0760    1.8620    0.4150 O   0  0  0  0  0  0  0  0  0  0  0  0
    4.6050    0.2860    0.8930 O   0  0  0  0  0  0  0  0  0  0  0  0
    5.6380    1.1500    0.6010 N   0  0  0  0  0  0  0  0  0  0  0  0
    5.1480    2.3980    0.7110 O   0  0  0  0  0  0  0  0  0  0  0  0
  1  2  1  0
  2  3  1  0
  3  4  1  0
  4  5  1  0
  6  4  1  1
  6  7  1  0
  6 16  1  0
  7  8  1  0
  8  9  2  0
  9 10  1  0
  9 17  1  0
 10 11  1  0
 11 12  2  0
 13 11  1  6
 13 14  1  0
 13 18  1  0
 14 15  2  0
 14 16  1  0
 16 17  1  0
 17 18  1  0
 18 19  1  1
 18 20  1  0
 20 21  2  0
 20 22  1  0
 22 23  1  0
 23 24  1  0
M  END
