
     RDKit          3D

 29 30  0  0  0  0  0  0  0  0999 V2000
   -7.0850    0.7670    0.2380 C   0  0  0  0  0  0  0  0  0  0  0  0
   -5.6260    0.4250    0.2550 C   0  0  0  0  0  0  0  0  0  0  0  0
   -4.7860    1.4650    0.2150 C   0  0  0  0  0  0  0  0  0  0  0  0
   -3.3790    1.3120    0.2240 C   0  0  0  0  0  0  0  0  0  0  0  0
   -2.2790    1.8100   -0.0980 C   0  0  0  0  0  0  0  0  0  0  0  0
   -1.2240    1.1340   -0.5170 C   0  0  0  0  0  0  0  0  0  0  0  0
   -0.1460    1.7820   -1.3130 C   0  0  1  0  0  0  0  0  0  0  0  0
    0.0200    1.1290   -2.6320 C   0  0  0  0  0  0  0  0  0  0  0  0
    0.7080    0.1030   -2.7030 O   0  0  0  0  0  0  0  0  0  0  0  0
   -0.5200    3.5840   -1.6190 P   0  0  0  0  0  0  0  0  0  0  0  0
   -0.7130    4.5520   -0.4240 O   0  0  0  0  0  0  0  0  0  0  0  0
    1.1020    1.7250   -0.5350 C   0  0  0  0  0  0  0  0  0  0  0  0
    1.1720    1.2140    0.6150 O   0  0  0  0  0  0  0  0  0  0  0  0
    2.2620    2.2700   -1.1180 O   0  0  0  0  0  0  0  0  0  0  0  0
    3.4450    2.2140   -0.3820 C   0  0  0  0  0  0  0  0  0  0  0  0
    3.8280    0.7850   -0.0930 C   0  0  0  0  0  0  0  0  0  0  0  0
    3.0970   -0.1330   -0.5320 O   0  0  0  0  0  0  0  0  0  0  0  0
    4.9380    0.4630    0.6260 O   0  0  0  0  0  0  0  0  0  0  0  0
    5.4240   -0.8080    0.9640 C   0  0  1  0  0  0  0  0  0  0  0  0
    6.6820   -0.5510    1.8380 C   0  0  0  0  0  0  0  0  0  0  0  0
    4.5030   -1.5720    1.6510 O   0  0  0  0  0  0  0  0  0  0  0  0
    5.9130   -1.5480   -0.2390 C   0  0  0  0  0  0  0  0  0  0  0  0
    4.9330   -1.7530   -1.1660 O   0  0  0  0  0  0  0  0  0  0  0  0
   -1.2400   -0.3010   -0.1140 C   0  0  0  0  0  0  0  0  0  0  0  0
   -2.7780   -0.3000    0.9840 P   0  0  0  0  0  0  0  0  0  0  0  0
   -4.0500   -1.5190    0.3110 C   0  0  2  0  0  0  0  0  0  0  0  0
   -4.0840   -2.6720    1.2650 C   0  0  0  0  0  0  0  0  0  0  0  0
   -3.6340   -1.9810   -1.0660 C   0  0  0  0  0  0  0  0  0  0  0  0
   -5.2870   -0.8870    0.3090 O   0  0  0  0  0  0  0  0  0  0  0  0
  1  2  1  0
  2  3  2  0
  2 29  1  0
  3  4  1  0
  4  5  2  0
  4 25  1  0
  5  6  2  0
  6  7  1  0
  6 24  1  0
  7  8  1  6
  7 10  1  0
  7 12  1  0
  8  9  2  0
 10 11  2  0
 12 13  2  0
 12 14  1  0
 14 15  1  0
 15 16  1  0
 16 17  2  0
 16 18  1  0
 18 19  1  0
 19 20  1  1
 19 21  1  0
 19 22  1  0
 22 23  1  0
 24 25  1  0
 25 26  1  0
 26 27  1  1
 26 28  1  0
 26 29  1  0
M  END
