
     RDKit          3D

 29 30  0  0  0  0  0  0  0  0999 V2000
   -6.2410   -1.8100    0.1030 C   0  0  0  0  0  0  0  0  0  0  0  0
   -5.5090   -0.9050   -0.5560 C   0  0  0  0  0  0  0  0  0  0  0  0
   -5.1460    0.3650    0.1240 C   0  0  1  0  0  0  0  0  0  0  0  0
   -6.3050    1.0450    0.4830 O   0  0  0  0  0  0  0  0  0  0  0  0
   -4.3670    0.0890    1.3790 C   0  0  2  0  0  0  0  0  0  0  0  0
   -4.0220    1.4120    2.0320 C   0  0  0  0  0  0  0  0  0  0  0  0
   -2.7900    1.3330    2.6940 O   0  0  0  0  0  0  0  0  0  0  0  0
   -1.7520    1.3420    1.7670 C   0  0  0  0  0  0  0  0  0  0  0  0
   -1.8440    0.0890    0.9760 C   0  0  0  0  0  0  0  0  0  0  0  0
   -0.8320   -0.3460    0.2620 C   0  0  0  0  0  0  0  0  0  0  0  0
    0.4150    0.3930    0.2260 C   0  0  0  0  0  0  0  0  0  0  0  0
    1.4660    0.0150   -0.4670 C   0  0  0  0  0  0  0  0  0  0  0  0
    1.3480   -1.1560   -1.1930 O   0  0  0  0  0  0  0  0  0  0  0  0
    1.7250   -2.3570   -0.5460 C   0  0  0  0  0  0  0  0  0  0  0  0
    1.5370   -3.5530   -1.4790 C   0  0  0  0  0  0  0  0  0  0  0  0
    2.4060   -3.3430   -2.7040 C   0  0  0  0  0  0  0  0  0  0  0  0
    2.6710    0.8230   -0.4400 C   0  0  0  0  0  0  0  0  0  0  0  0
    3.7440    0.4650   -1.1290 C   0  0  0  0  0  0  0  0  0  0  0  0
    4.9850    1.1660   -1.1890 C   0  0  0  0  0  0  0  0  0  0  0  0
    5.7100    0.9640   -2.2250 O   0  0  0  0  0  0  0  0  0  0  0  0
    5.5500    2.0960   -0.2150 C   0  0  1  0  0  0  0  0  0  0  0  0
    6.6580    1.5500    0.4310 O   0  0  0  0  0  0  0  0  0  0  0  0
    6.1440    3.6680   -1.0380 P   0  0  0  0  0  0  0  0  0  0  0  0
    6.6190    4.8140   -0.0780 O   0  0  0  0  0  0  0  0  0  0  0  0
    4.2630    2.5090    1.0570 P   0  0  0  0  0  0  0  0  0  0  0  0
    4.1220    4.2260    1.2840 O   0  0  0  0  0  0  0  0  0  0  0  0
    2.7440    1.9800    0.2960 O   0  0  0  0  0  0  0  0  0  0  0  0
   -3.1110   -0.6440    1.0240 C   0  0  0  0  0  0  0  0  0  0  0  0
   -3.1410   -1.8790    0.7690 O   0  0  0  0  0  0  0  0  0  0  0  0
  1  2  2  0
  2  3  1  0
  3  4  1  1
  3  5  1  0
  5  6  1  6
  5 28  1  0
  6  7  1  0
  7  8  1  0
  8  9  1  0
  9 10  2  3
  9 28  1  0
 10 11  1  0
 11 12  2  3
 12 13  1  0
 12 17  1  0
 13 14  1  0
 14 15  1  0
 15 16  1  0
 17 18  2  0
 17 27  1  0
 18 19  1  0
 19 20  2  0
 19 21  1  0
 21 22  1  1
 21 23  1  0
 21 25  1  0
 23 24  2  0
 25 26  1  0
 25 27  1  0
 28 29  2  0
M  END
