
     RDKit          3D

 29 30  0  0  0  0  0  0  0  0999 V2000
   -4.2110    0.8760    1.4830 C   0  0  0  0  0  0  0  0  0  0  0  0
   -3.5580    0.8950    0.2850 C   0  0  0  0  0  0  0  0  0  0  0  0
   -4.1410    0.0830   -0.7830 C   0  0  0  0  0  0  0  0  0  0  0  0
   -2.3930    1.6960    0.2190 C   0  0  0  0  0  0  0  0  0  0  0  0
   -1.5720    1.9300   -0.7360 C   0  0  0  0  0  0  0  0  0  0  0  0
   -1.4760    1.5060   -2.0850 C   0  0  0  0  0  0  0  0  0  0  0  0
   -2.2180    0.7540   -2.7040 O   0  0  0  0  0  0  0  0  0  0  0  0
   -2.0430    2.3940    1.4510 O   0  0  0  0  0  0  0  0  0  0  0  0
   -0.8330    2.1220    2.0890 C   0  0  0  0  0  0  0  0  0  0  0  0
   -0.6370    0.8040    2.5170 O   0  0  0  0  0  0  0  0  0  0  0  0
   -0.5980   -0.3140    1.7260 C   0  0  0  0  0  0  0  0  0  0  0  0
    0.1670   -0.5760    0.6840 C   0  0  0  0  0  0  0  0  0  0  0  0
    1.2110    0.1330   -0.0290 C   0  0  0  0  0  0  0  0  0  0  0  0
    1.5900   -0.2070   -1.2630 C   0  0  0  0  0  0  0  0  0  0  0  0
    2.6300    0.4970   -1.9780 C   0  0  0  0  0  0  0  0  0  0  0  0
    2.9740    0.1330   -3.1890 C   0  0  0  0  0  0  0  0  0  0  0  0
    3.2640    1.5610   -1.3770 O   0  0  0  0  0  0  0  0  0  0  0  0
    4.9600    1.9420   -1.6260 P   0  0  0  0  0  0  0  0  0  0  0  0
    5.1650    3.2340   -2.7690 O   0  0  0  0  0  0  0  0  0  0  0  0
    5.7640    2.2950   -0.1460 O   0  0  0  0  0  0  0  0  0  0  0  0
    0.9610   -1.2800   -1.8860 O   0  0  0  0  0  0  0  0  0  0  0  0
   -0.0590   -2.0170   -1.2560 C   0  0  0  0  0  0  0  0  0  0  0  0
   -1.0480   -2.9470   -2.1790 P   0  0  0  0  0  0  0  0  0  0  0  0
   -0.2140   -1.9370    0.2030 C   0  0  1  0  0  0  0  0  0  0  0  0
    0.6720   -3.2730    1.0990 P   0  0  0  0  0  0  0  0  0  0  0  0
    1.6890   -2.6460    2.5090 C   0  0  0  0  0  0  0  0  0  0  0  0
    1.5660   -3.5850    3.5550 O   0  0  0  0  0  0  0  0  0  0  0  0
   -1.5570   -1.9780    0.5590 O   0  0  0  0  0  0  0  0  0  0  0  0
   -1.4670   -1.5210    1.9040 C   0  0  0  0  0  0  0  0  0  0  0  0
  1  2  2  0
  2  3  1  0
  2  4  1  0
  4  5  2  3
  4  8  1  0
  5  6  1  0
  6  7  2  0
  8  9  1  0
  9 10  1  0
 10 11  1  0
 11 12  2  0
 11 29  1  0
 12 13  1  0
 12 24  1  0
 13 14  2  0
 14 15  1  0
 14 21  1  0
 15 16  2  0
 15 17  1  0
 17 18  1  0
 18 19  1  0
 18 20  1  0
 21 22  1  0
 22 23  2  0
 22 24  1  0
 24 25  1  1
 24 28  1  0
 25 26  1  0
 26 27  1  0
 28 29  1  0
M  END
