
     RDKit          3D

 29 31  0  0  0  0  0  0  0  0999 V2000
   -4.0770    0.1970    1.1300 O   0  0  0  0  0  0  0  0  0  0  0  0
   -3.5120    0.5140   -0.1620 C   0  0  2  0  0  0  0  0  0  0  0  0
   -2.6090    1.6710    0.2060 C   0  0  0  0  0  0  0  0  0  0  0  0
   -1.5940    1.4160    1.1840 N   0  0  0  0  0  0  0  0  0  0  0  0
   -1.9700    1.5340    2.4950 C   0  0  0  0  0  0  0  0  0  0  0  0
   -1.0180    1.3320    3.4570 C   0  0  0  0  0  0  0  0  0  0  0  0
    0.2990    1.0180    3.1920 C   0  0  0  0  0  0  0  0  0  0  0  0
    0.6650    0.9030    1.8700 C   0  0  0  0  0  0  0  0  0  0  0  0
    2.0300    0.5800    1.5580 C   0  0  0  0  0  0  0  0  0  0  0  0
    3.0230    1.0440    2.4250 C   0  0  0  0  0  0  0  0  0  0  0  0
    4.3330    0.7680    2.1790 C   0  0  0  0  0  0  0  0  0  0  0  0
    4.7280    0.0380    1.0930 C   0  0  0  0  0  0  0  0  0  0  0  0
    3.7610   -0.4430    0.2040 C   0  0  0  0  0  0  0  0  0  0  0  0
    4.2470   -1.2010   -0.9160 C   0  0  0  0  0  0  0  0  0  0  0  0
    3.5010   -2.2140   -1.4730 C   0  0  0  0  0  0  0  0  0  0  0  0
    3.9710   -2.9490   -2.5580 C   0  0  0  0  0  0  0  0  0  0  0  0
    5.2040   -2.6860   -3.1130 C   0  0  0  0  0  0  0  0  0  0  0  0
    5.9710   -1.6580   -2.5550 C   0  0  0  0  0  0  0  0  0  0  0  0
    5.4910   -0.9480   -1.4880 C   0  0  0  0  0  0  0  0  0  0  0  0
    2.4530   -0.1530    0.4710 C   0  0  0  0  0  0  0  0  0  0  0  0
   -0.3150    1.1120    0.9180 C   0  0  0  0  0  0  0  0  0  0  0  0
   -4.8600    1.1730   -1.0930 P   0  0  0  0  0  0  0  0  0  0  0  0
   -6.3930    0.6160   -0.8810 O   0  0  0  0  0  0  0  0  0  0  0  0
   -4.7180    0.3290   -2.3580 O   0  0  0  0  0  0  0  0  0  0  0  0
   -4.6180    2.5380   -2.0450 O   0  0  0  0  0  0  0  0  0  0  0  0
   -2.8700   -0.9670   -0.7410 P   0  0  0  0  0  0  0  0  0  0  0  0
   -4.0880   -1.8610   -0.3450 O   0  0  0  0  0  0  0  0  0  0  0  0
   -1.9140   -1.8750    0.2760 O   0  0  0  0  0  0  0  0  0  0  0  0
   -1.5940   -0.4780   -1.4110 O   0  0  0  0  0  0  0  0  0  0  0  0
  2  1  1  1
  2  3  1  0
  2 22  1  0
  2 26  1  0
  3  4  1  0
  4  5  2  0
  4 21  1  0
  5  6  1  0
  6  7  2  0
  7  8  1  0
  8  9  1  0
  8 21  2  0
  9 10  2  0
  9 20  1  0
 10 11  1  0
 11 12  2  0
 12 13  1  0
 13 14  1  0
 13 20  2  0
 14 15  2  0
 14 19  1  0
 15 16  1  0
 16 17  2  0
 17 18  1  0
 18 19  2  0
 22 23  1  0
 22 24  1  0
 22 25  1  0
 26 27  1  0
 26 28  1  0
 26 29  1  0
M  CHG  1   4   1
M  END
