
     RDKit          3D

 29 30  0  0  0  0  0  0  0  0999 V2000
    6.3200   -0.4700    3.5680 C   0  0  0  0  0  0  0  0  0  0  0  0
    5.1240   -0.1800    2.8870 O   0  0  0  0  0  0  0  0  0  0  0  0
    5.2890   -0.5120    1.5590 C   0  0  0  0  0  0  0  0  0  0  0  0
    4.0880   -0.2490    0.7410 C   0  0  0  0  0  0  0  0  0  0  0  0
    4.1790   -0.5330   -0.5000 O   0  0  0  0  0  0  0  0  0  0  0  0
    2.9190    0.2760    1.2740 O   0  0  0  0  0  0  0  0  0  0  0  0
    1.8650    0.4620    0.3270 C   0  0  0  0  0  0  0  0  0  0  0  0
    0.9980   -0.5120    0.1030 C   0  0  0  0  0  0  0  0  0  0  0  0
   -0.1450   -0.6150   -0.7670 C   0  0  0  0  0  0  0  0  0  0  0  0
   -1.4420   -0.4550   -0.6010 C   0  0  0  0  0  0  0  0  0  0  0  0
   -2.2200   -0.1100    0.5580 C   0  0  0  0  0  0  0  0  0  0  0  0
   -1.9990    0.6500    1.5860 C   0  0  0  0  0  0  0  0  0  0  0  0
   -0.8430    1.4680    1.9600 C   0  0  0  0  0  0  0  0  0  0  0  0
   -0.1580    1.2540    3.0800 C   0  0  0  0  0  0  0  0  0  0  0  0
    0.9270    2.0520    3.3900 O   0  0  0  0  0  0  0  0  0  0  0  0
   -0.4020    2.5240    1.1530 O   0  0  0  0  0  0  0  0  0  0  0  0
   -0.6250    2.6000   -0.5870 P   0  0  0  0  0  0  0  0  0  0  0  0
   -1.1220    4.2120   -1.0430 O   0  0  0  0  0  0  0  0  0  0  0  0
   -1.0080    4.3530   -2.3520 O   0  0  0  0  0  0  0  0  0  0  0  0
    1.0070    2.2110   -1.3860 C   0  0  0  0  0  0  0  0  0  0  0  0
    1.9290    1.7810   -0.2770 C   0  0  0  0  0  0  0  0  0  0  0  0
    2.7490    2.6770    0.0640 O   0  0  0  0  0  0  0  0  0  0  0  0
   -3.5190   -0.7610    0.5540 O   0  0  0  0  0  0  0  0  0  0  0  0
   -3.6910   -2.0330   -0.0270 C   0  0  0  0  0  0  0  0  0  0  0  0
   -3.7080   -2.0710   -1.5140 C   0  0  2  0  0  0  0  0  0  0  0  0
   -5.0740   -1.9800   -2.1410 C   0  0  0  0  0  0  0  0  0  0  0  0
   -3.0140   -3.3740   -1.9490 C   0  0  0  0  0  0  0  0  0  0  0  0
   -2.5660   -0.7190   -2.1200 P   0  0  0  0  0  0  0  0  0  0  0  0
   -3.3710    0.7090   -2.5480 O   0  0  0  0  0  0  0  0  0  0  0  0
  1  2  1  0
  2  3  1  0
  3  4  1  0
  4  5  2  0
  4  6  1  0
  6  7  1  0
  7  8  2  0
  7 21  1  0
  8  9  1  0
  9 10  2  0
 10 11  1  0
 10 28  1  0
 11 12  2  0
 11 23  1  0
 12 13  1  0
 13 14  2  3
 13 16  1  0
 14 15  1  0
 16 17  1  0
 17 18  1  0
 17 20  1  0
 18 19  1  0
 20 21  1  0
 21 22  2  0
 23 24  1  0
 24 25  1  0
 25 26  1  6
 25 27  1  0
 25 28  1  0
 28 29  1  0
M  END
