
     RDKit          3D

 29 31  0  0  0  0  0  0  0  0999 V2000
   -1.0970   -4.4960    0.5870 C   0  0  0  0  0  0  0  0  0  0  0  0
   -0.7830   -3.2060   -0.2030 C   0  0  0  0  0  0  0  0  0  0  0  0
   -1.4370   -2.2120    0.4450 O   0  0  0  0  0  0  0  0  0  0  0  0
   -1.3130   -0.9230   -0.0780 C   0  0  1  0  0  0  0  0  0  0  0  0
   -1.9980   -0.9240   -1.4010 C   0  0  0  0  0  0  0  0  0  0  0  0
   -2.5910   -1.8970   -1.8190 O   0  0  0  0  0  0  0  0  0  0  0  0
   -2.1090   -0.1520    0.8580 O   0  0  0  0  0  0  0  0  0  0  0  0
   -2.3030    1.1770    0.5440 C   0  0  0  0  0  0  0  0  0  0  0  0
   -3.4260    1.8300    0.7800 C   0  0  0  0  0  0  0  0  0  0  0  0
   -3.7780    3.2390    0.5030 C   0  0  0  0  0  0  0  0  0  0  0  0
   -5.1700    3.3650    0.9940 C   0  0  0  0  0  0  0  0  0  0  0  0
   -5.9250    4.5140    0.9460 O   0  0  0  0  0  0  0  0  0  0  0  0
   -5.5630    2.2050    1.4820 C   0  0  0  0  0  0  0  0  0  0  0  0
   -4.5400    1.2570    1.3700 O   0  0  0  0  0  0  0  0  0  0  0  0
   -0.8510    1.9740   -0.2370 P   0  0  0  0  0  0  0  0  0  0  0  0
   -1.3260    2.5370   -1.7960 O   0  0  0  0  0  0  0  0  0  0  0  0
    0.4240    0.6390   -0.3760 C   0  0  1  0  0  0  0  0  0  0  0  0
    0.9050    0.6210   -1.8340 C   0  0  0  0  0  0  0  0  0  0  0  0
    1.6260    0.9920    0.4840 C   0  0  0  0  0  0  0  0  0  0  0  0
    2.7040   -0.0160    0.4470 C   0  0  0  0  0  0  0  0  0  0  0  0
    3.8570    0.3530   -0.0390 C   0  0  0  0  0  0  0  0  0  0  0  0
    4.0530    1.7370   -0.5270 C   0  0  0  0  0  0  0  0  0  0  0  0
    4.9850   -0.5950   -0.1120 C   0  0  0  0  0  0  0  0  0  0  0  0
    4.7380   -1.8560    0.3960 O   0  0  0  0  0  0  0  0  0  0  0  0
    3.5100   -2.2130    0.9020 C   0  0  0  0  0  0  0  0  0  0  0  0
    3.3800   -3.5970    1.3920 C   0  0  0  0  0  0  0  0  0  0  0  0
    2.2790   -3.9420    1.8540 O   0  0  0  0  0  0  0  0  0  0  0  0
    2.4990   -1.3700    0.9510 C   0  0  0  0  0  0  0  0  0  0  0  0
   -0.0070   -0.5970   -0.0790 O   0  0  0  0  0  0  0  0  0  0  0  0
  1  2  1  0
  2  3  1  0
  4  3  1  1
  4  5  1  0
  4  7  1  0
  4 29  1  0
  5  6  2  0
  7  8  1  0
  8  9  2  3
  8 15  1  0
  9 10  1  0
  9 14  1  0
 10 11  1  0
 11 12  1  0
 11 13  2  0
 13 14  1  0
 15 16  1  0
 15 17  1  0
 17 18  1  6
 17 19  1  0
 17 29  1  0
 19 20  1  0
 20 21  2  0
 20 28  1  0
 21 22  1  0
 21 23  1  0
 23 24  1  0
 24 25  1  0
 25 26  1  0
 25 28  2  0
 26 27  2  0
M  END
