
     RDKit          3D

 29 30  0  0  0  0  0  0  0  0999 V2000
    8.1030   -0.1410    0.6720 C   0  0  0  0  0  0  0  0  0  0  0  0
    7.3150   -0.9750   -0.2850 C   0  0  0  0  0  0  0  0  0  0  0  0
    5.8510   -0.8070   -0.1300 C   0  0  0  0  0  0  0  0  0  0  0  0
    5.4400   -0.0400    0.7230 O   0  0  0  0  0  0  0  0  0  0  0  0
    4.8640   -1.5330   -0.9710 C   0  0  0  0  0  0  0  0  0  0  0  0
    3.4510   -1.1570   -0.5810 C   0  0  0  0  0  0  0  0  0  0  0  0
    3.2840    0.6910   -0.8410 P   0  0  0  0  0  0  0  0  0  0  0  0
    4.0840    1.0420   -2.3560 O   0  0  0  0  0  0  0  0  0  0  0  0
    1.5010    1.0340   -1.0950 C   0  0  0  0  0  0  0  0  0  0  0  0
    0.6520    1.2070   -0.0220 C   0  0  0  0  0  0  0  0  0  0  0  0
   -0.6940    1.4660   -0.1990 C   0  0  0  0  0  0  0  0  0  0  0  0
   -1.2480    1.5620   -1.4580 C   0  0  0  0  0  0  0  0  0  0  0  0
   -3.0390    1.9060   -1.6850 P   0  0  0  0  0  0  0  0  0  0  0  0
   -3.3130    3.0150   -2.9870 O   0  0  0  0  0  0  0  0  0  0  0  0
   -3.9410    0.4420   -1.8820 O   0  0  0  0  0  0  0  0  0  0  0  0
   -4.8080    0.3680   -0.8960 O   0  0  0  0  0  0  0  0  0  0  0  0
   -4.9750   -0.8060   -0.4090 O   0  0  0  0  0  0  0  0  0  0  0  0
   -3.9960   -1.2450    0.3810 C   0  0  2  0  0  0  0  0  0  0  0  0
   -2.7110   -1.1140   -0.2850 O   0  0  0  0  0  0  0  0  0  0  0  0
   -4.0870   -2.8630    0.2310 C   0  0  0  0  0  0  0  0  0  0  0  0
   -2.8810   -3.0400    1.0220 O   0  0  0  0  0  0  0  0  0  0  0  0
   -3.1560   -2.2910    2.1700 C   0  0  0  0  0  0  0  0  0  0  0  0
   -3.8680   -1.1510    1.7960 C   0  0  0  0  0  0  0  0  0  0  0  0
   -4.2870   -0.2090    2.8230 C   0  0  0  0  0  0  0  0  0  0  0  0
   -4.9290    0.8780    2.8490 C   0  0  0  0  0  0  0  0  0  0  0  0
   -5.5350    1.6460    1.7840 C   0  0  0  0  0  0  0  0  0  0  0  0
   -5.1010    1.4750    4.1540 O   0  0  0  0  0  0  0  0  0  0  0  0
   -0.4060    1.3900   -2.5360 C   0  0  0  0  0  0  0  0  0  0  0  0
    0.9450    1.1300   -2.3590 C   0  0  0  0  0  0  0  0  0  0  0  0
  1  2  1  0
  2  3  1  0
  3  4  2  0
  3  5  1  0
  5  6  1  0
  6  7  1  0
  7  8  1  0
  7  9  1  0
  9 10  2  0
  9 29  1  0
 10 11  1  0
 11 12  2  0
 12 13  1  0
 12 28  1  0
 13 14  1  0
 13 15  1  0
 15 16  1  0
 16 17  1  0
 17 18  1  0
 18 19  1  6
 18 20  1  0
 18 23  1  0
 20 21  1  0
 21 22  1  0
 22 23  2  0
 23 24  1  0
 24 25  2  3
 25 26  1  0
 25 27  1  0
 28 29  2  0
M  END
