
     RDKit          3D

 29 31  0  0  0  0  0  0  0  0999 V2000
    0.4910   -1.1320    1.1050 C   0  0  0  0  0  0  0  0  0  0  0  0
   -0.0560   -0.9470   -0.0750 C   0  0  0  0  0  0  0  0  0  0  0  0
    0.6630   -0.3310   -1.1590 C   0  0  0  0  0  0  0  0  0  0  0  0
    1.9270    0.1010   -1.0680 C   0  0  0  0  0  0  0  0  0  0  0  0
    2.5880    0.7140   -2.2090 C   0  0  0  0  0  0  0  0  0  0  0  0
    3.8310    1.1330   -2.1030 C   0  0  0  0  0  0  0  0  0  0  0  0
    4.4970    0.9870   -0.9110 O   0  0  0  0  0  0  0  0  0  0  0  0
    5.8530    1.3750   -0.7360 C   0  0  2  0  0  0  0  0  0  0  0  0
    5.9880    2.7370   -0.9880 O   0  0  0  0  0  0  0  0  0  0  0  0
    6.6080    0.6160   -1.6220 O   0  0  0  0  0  0  0  0  0  0  0  0
    6.2660    1.0710    0.6670 C   0  0  0  0  0  0  0  0  0  0  0  0
    6.6630    1.9800    1.4340 O   0  0  0  0  0  0  0  0  0  0  0  0
    6.2110   -0.2950    1.1640 C   0  0  0  0  0  0  0  0  0  0  0  0
    5.8180   -1.2310    0.4210 O   0  0  0  0  0  0  0  0  0  0  0  0
   -0.0230   -0.1930   -2.3480 O   0  0  0  0  0  0  0  0  0  0  0  0
   -1.3070   -0.5690   -2.6350 C   0  0  0  0  0  0  0  0  0  0  0  0
   -2.0180   -1.2060   -1.4800 C   0  0  0  0  0  0  0  0  0  0  0  0
   -1.4680   -1.3690   -0.3610 C   0  0  0  0  0  0  0  0  0  0  0  0
   -2.3000   -2.0100    0.7440 C   0  0  1  0  0  0  0  0  0  0  0  0
   -3.0910   -0.7390    1.8150 P   0  0  0  0  0  0  0  0  0  0  0  0
   -3.0900    0.8240    1.1600 O   0  0  0  0  0  0  0  0  0  0  0  0
   -4.3120    1.2450    0.6590 C   0  0  0  0  0  0  0  0  0  0  0  0
   -4.2130    2.6360    0.1020 C   0  0  0  0  0  0  0  0  0  0  0  0
   -4.6790   -1.2820    2.5290 C   0  0  0  0  0  0  0  0  0  0  0  0
   -5.3450   -2.3870    1.8090 C   0  0  0  0  0  0  0  0  0  0  0  0
   -6.0720   -3.1710    2.5180 O   0  0  0  0  0  0  0  0  0  0  0  0
   -5.1630   -2.5220    0.4540 O   0  0  0  0  0  0  0  0  0  0  0  0
   -3.6240   -2.7570   -0.3090 P   0  0  0  0  0  0  0  0  0  0  0  0
   -3.3570   -1.6430   -1.6410 O   0  0  0  0  0  0  0  0  0  0  0  0
  1  2  2  0
  2  3  1  0
  2 18  1  0
  3  4  2  3
  3 15  1  0
  4  5  1  0
  5  6  2  3
  6  7  1  0
  7  8  1  0
  8  9  1  6
  8 10  1  0
  8 11  1  0
 11 12  2  0
 11 13  1  0
 13 14  2  0
 15 16  1  0
 16 17  1  0
 17 18  2  0
 17 29  1  0
 18 19  1  0
 19 20  1  1
 19 28  1  0
 20 21  1  0
 20 24  1  0
 21 22  1  0
 22 23  1  0
 24 25  1  0
 25 26  2  0
 25 27  1  0
 27 28  1  0
 28 29  1  0
M  END
