
     RDKit          3D

 29 30  0  0  0  0  0  0  0  0999 V2000
   -1.3230    3.9430   -0.6880 C   0  0  0  0  0  0  0  0  0  0  0  0
    0.0780    3.8010   -1.1310 C   0  0  0  0  0  0  0  0  0  0  0  0
    0.7620    4.9140   -1.5680 O   0  0  0  0  0  0  0  0  0  0  0  0
    0.7060    2.5940   -1.1140 C   0  0  0  0  0  0  0  0  0  0  0  0
   -0.0610    1.4910   -0.6510 C   0  0  0  0  0  0  0  0  0  0  0  0
    0.2830    0.2590   -0.5070 C   0  0  0  0  0  0  0  0  0  0  0  0
   -0.7280   -0.7470    0.0040 C   0  0  0  0  0  0  0  0  0  0  0  0
   -2.0720   -0.2000    0.1710 C   0  0  0  0  0  0  0  0  0  0  0  0
   -2.5670   -0.1000    1.3940 C   0  0  0  0  0  0  0  0  0  0  0  0
   -1.9030   -0.4880    2.6370 C   0  0  0  0  0  0  0  0  0  0  0  0
   -2.6910   -1.5550    3.3460 C   0  0  0  0  0  0  0  0  0  0  0  0
   -3.7530   -1.9670    2.8370 O   0  0  0  0  0  0  0  0  0  0  0  0
   -2.1750   -2.0220    4.5440 O   0  0  0  0  0  0  0  0  0  0  0  0
   -2.8640   -2.9710    5.1840 O   0  0  0  0  0  0  0  0  0  0  0  0
   -3.8630    0.4300    1.5310 O   0  0  0  0  0  0  0  0  0  0  0  0
   -4.4980    1.1640    0.5100 C   0  0  0  0  0  0  0  0  0  0  0  0
   -4.1590    0.6790   -0.7650 O   0  0  0  0  0  0  0  0  0  0  0  0
   -2.8900    0.2050   -0.9890 C   0  0  0  0  0  0  0  0  0  0  0  0
   -2.4400    0.1190   -2.1580 O   0  0  0  0  0  0  0  0  0  0  0  0
    1.9860   -0.2760   -0.8620 P   0  0  0  0  0  0  0  0  0  0  0  0
    2.1020   -1.6860   -2.0210 C   0  0  0  0  0  0  0  0  0  0  0  0
    3.5210   -2.2000   -2.0130 C   0  0  0  0  0  0  0  0  0  0  0  0
    3.8000   -3.1550   -0.8970 C   0  0  0  0  0  0  0  0  0  0  0  0
    2.6740   -3.0150    0.5290 P   0  0  0  0  0  0  0  0  0  0  0  0
    1.1090   -3.6470    0.2770 O   0  0  0  0  0  0  0  0  0  0  0  0
    2.7240   -1.3990    1.3800 C   0  0  0  0  0  0  0  0  0  0  0  0
    2.9950   -0.3750    0.5090 O   0  0  0  0  0  0  0  0  0  0  0  0
    2.0940    2.5760   -1.5750 C   0  0  0  0  0  0  0  0  0  0  0  0
    2.2270    1.7500   -2.6780 O   0  0  0  0  0  0  0  0  0  0  0  0
  1  2  1  0
  2  3  1  0
  2  4  2  3
  4  5  1  0
  4 28  1  0
  5  6  2  3
  6  7  1  0
  6 20  1  0
  7  8  1  0
  8  9  2  0
  8 18  1  0
  9 10  1  0
  9 15  1  0
 10 11  1  0
 11 12  2  0
 11 13  1  0
 13 14  1  0
 15 16  1  0
 16 17  1  0
 17 18  1  0
 18 19  2  0
 20 21  1  0
 20 27  1  0
 21 22  1  0
 22 23  1  0
 23 24  1  0
 24 25  1  0
 24 26  1  0
 26 27  1  0
 28 29  1  0
M  END
