
     RDKit          3D

 12 12  0  0  0  0  0  0  0  0999 V2000
    3.1150    0.6600   -0.2030 C   0  0  0  0  0  0  0  0  0  0  0  0
    2.0710   -0.1940   -0.4600 O   0  0  0  0  0  0  0  0  0  0  0  0
    0.8880    0.2080    0.1090 C   0  0  1  0  0  0  0  0  0  0  0  0
    0.9280    0.3160    1.4850 O   0  0  0  0  0  0  0  0  0  0  0  0
    0.4280    1.5460   -0.4830 C   0  0  0  0  0  0  0  0  0  0  0  0
   -0.9390    1.5330   -0.4480 O   0  0  0  0  0  0  0  0  0  0  0  0
   -1.3990    0.2470   -0.3760 C   0  0  2  0  0  0  0  0  0  0  0  0
   -2.2450    0.1290    0.8810 C   0  0  0  0  0  0  0  0  0  0  0  0
   -3.2890    1.0490    0.7370 O   0  0  0  0  0  0  0  0  0  0  0  0
   -0.2390   -0.6870   -0.3720 C   0  0  2  0  0  0  0  0  0  0  0  0
   -0.4390   -1.8820    0.5290 C   0  0  0  0  0  0  0  0  0  0  0  0
   -1.4880   -2.6280   -0.0030 O   0  0  0  0  0  0  0  0  0  0  0  0
  1  2  1  0
  2  3  1  0
  3  4  1  1
  3  5  1  0
  3 10  1  0
  5  6  1  0
  6  7  1  0
  7  8  1  1
  7 10  1  0
  8  9  1  0
 10 11  1  1
 11 12  1  0
M  END
