
     RDKit          3D

 12 12  0  0  0  0  0  0  0  0999 V2000
    3.8060    0.0960    0.2770 O   0  0  0  0  0  0  0  0  0  0  0  0
    2.8710   -0.2360   -0.6960 C   0  0  0  0  0  0  0  0  0  0  0  0
    1.5680   -0.5210   -0.0030 C   0  0  1  0  0  0  0  0  0  0  0  0
    1.0930    0.5670    0.7170 O   0  0  0  0  0  0  0  0  0  0  0  0
    0.6530    1.5880   -0.0800 C   0  0  0  0  0  0  0  0  0  0  0  0
   -0.6950    1.4090   -0.6730 C   0  0  0  0  0  0  0  0  0  0  0  0
   -1.4520    0.2190   -0.1900 C   0  0  2  0  0  0  0  0  0  0  0  0
   -2.5040   -0.0180   -1.0830 O   0  0  0  0  0  0  0  0  0  0  0  0
   -2.0940    0.5220    1.1610 C   0  0  0  0  0  0  0  0  0  0  0  0
   -2.8640   -0.5250    1.6160 O   0  0  0  0  0  0  0  0  0  0  0  0
   -0.6090   -1.0270   -0.0910 C   0  0  0  0  0  0  0  0  0  0  0  0
    0.5580   -0.9050   -0.8790 O   0  0  0  0  0  0  0  0  0  0  0  0
  1  2  1  0
  3  2  1  6
  3  4  1  0
  3 12  1  0
  4  5  1  0
  5  6  1  0
  6  7  1  0
  7  8  1  6
  7  9  1  0
  7 11  1  0
  9 10  1  0
 11 12  1  0
M  END
