
     RDKit          3D

 12 12  0  0  0  0  0  0  0  0999 V2000
    2.9870   -1.4080    0.0980 C   0  0  0  0  0  0  0  0  0  0  0  0
    1.6120   -1.5060    0.0300 O   0  0  0  0  0  0  0  0  0  0  0  0
    1.1000   -0.3910   -0.6040 C   0  0  1  0  0  0  0  0  0  0  0  0
    0.3450   -0.6760   -1.7060 O   0  0  0  0  0  0  0  0  0  0  0  0
   -0.9810   -0.4580   -1.4380 C   0  0  0  0  0  0  0  0  0  0  0  0
   -1.1040   -0.3710    0.0420 C   0  0  2  0  0  0  0  0  0  0  0  0
   -1.0520   -1.6530    0.5740 O   0  0  0  0  0  0  0  0  0  0  0  0
   -2.3290    0.3170    0.5350 C   0  0  0  0  0  0  0  0  0  0  0  0
   -2.2490    0.3690    1.9380 O   0  0  0  0  0  0  0  0  0  0  0  0
    0.1820    0.3210    0.3980 C   0  0  2  0  0  0  0  0  0  0  0  0
    0.2000    1.7730   -0.0000 C   0  0  0  0  0  0  0  0  0  0  0  0
   -0.5770    2.5770    0.7960 O   0  0  0  0  0  0  0  0  0  0  0  0
  1  2  1  0
  3  2  1  1
  3  4  1  0
  3 10  1  0
  4  5  1  0
  5  6  1  0
  6  7  1  1
  6  8  1  0
  6 10  1  0
  8  9  1  0
 10 11  1  6
 11 12  1  0
M  END
