
     RDKit          3D

 12 12  0  0  0  0  0  0  0  0999 V2000
   -0.2660   -2.0600    0.2240 C   0  0  0  0  0  0  0  0  0  0  0  0
   -0.0110   -0.5600    0.0330 C   0  0  2  0  0  0  0  0  0  0  0  0
    1.4240   -0.3530    0.5220 C   0  0  1  0  0  0  0  0  0  0  0  0
    2.2230   -1.1540   -0.3070 O   0  0  0  0  0  0  0  0  0  0  0  0
    1.8720    1.0710    0.3120 C   0  0  0  0  0  0  0  0  0  0  0  0
    3.2190    1.1330    0.6690 O   0  0  0  0  0  0  0  0  0  0  0  0
   -0.9970    0.1530    0.9210 C   0  0  0  0  0  0  0  0  0  0  0  0
   -2.3660   -0.0090    0.3000 C   0  0  0  0  0  0  0  0  0  0  0  0
   -2.3690    0.4260   -0.9980 O   0  0  0  0  0  0  0  0  0  0  0  0
   -1.1380    0.7450   -1.5140 C   0  0  1  0  0  0  0  0  0  0  0  0
   -0.8110    2.0280   -1.1110 O   0  0  0  0  0  0  0  0  0  0  0  0
   -0.1520   -0.1850   -1.2750 O   0  0  0  0  0  0  0  0  0  0  0  0
  2  1  1  6
  2  3  1  0
  2  7  1  0
  2 12  1  0
  3  4  1  6
  3  5  1  0
  5  6  1  0
  7  8  1  0
  8  9  1  0
  9 10  1  0
 10 11  1  1
 10 12  1  0
M  END
