
     RDKit          3D

 12 12  0  0  0  0  0  0  0  0999 V2000
    4.1540    1.1920    0.9820 O   0  0  0  0  0  0  0  0  0  0  0  0
    3.3020    0.3530    0.2570 C   0  0  0  0  0  0  0  0  0  0  0  0
    1.9590    0.7800    0.3760 O   0  0  0  0  0  0  0  0  0  0  0  0
    1.2150   -0.1170   -0.3750 C   0  0  0  0  0  0  0  0  0  0  0  0
   -0.2610    0.1900   -0.3610 C   0  0  2  0  0  0  0  0  0  0  0  0
   -0.7880    0.1440    1.0320 C   0  0  1  0  0  0  0  0  0  0  0  0
   -0.7290    1.4390    1.5640 O   0  0  0  0  0  0  0  0  0  0  0  0
   -2.1980   -0.3640    1.1100 C   0  0  0  0  0  0  0  0  0  0  0  0
   -2.9130   -0.3440   -0.2060 C   0  0  0  0  0  0  0  0  0  0  0  0
   -2.2470   -0.8630   -1.2560 O   0  0  0  0  0  0  0  0  0  0  0  0
   -0.9110   -0.7860   -1.2990 C   0  0  1  0  0  0  0  0  0  0  0  0
   -0.4710   -0.4450   -2.5990 O   0  0  0  0  0  0  0  0  0  0  0  0
  1  2  1  0
  2  3  1  0
  3  4  1  0
  5  4  1  1
  5  6  1  0
  5 11  1  0
  6  7  1  6
  6  8  1  0
  8  9  1  0
  9 10  1  0
 10 11  1  0
 11 12  1  6
M  END
