
     RDKit          3D

 12 12  0  0  0  0  0  0  0  0999 V2000
    0.4240    1.4040    0.7980 C   0  0  0  0  0  0  0  0  0  0  0  0
    0.2170    0.1870   -0.0480 C   0  0  1  0  0  0  0  0  0  0  0  0
   -1.1550    0.1860   -0.6600 C   0  0  2  0  0  0  0  0  0  0  0  0
   -1.3590    1.2480   -1.5290 O   0  0  0  0  0  0  0  0  0  0  0  0
   -2.0830    0.1290    0.3560 O   0  0  0  0  0  0  0  0  0  0  0  0
   -2.8440   -1.0360    0.3320 C   0  0  0  0  0  0  0  0  0  0  0  0
   -3.7430   -0.9740    1.4070 O   0  0  0  0  0  0  0  0  0  0  0  0
    1.3160   -0.0370   -1.0570 C   0  0  0  0  0  0  0  0  0  0  0  0
    2.3250   -0.8400   -0.2580 C   0  0  1  0  0  0  0  0  0  0  0  0
    3.4830   -0.1120   -0.0130 O   0  0  0  0  0  0  0  0  0  0  0  0
    1.6270   -1.1000    1.0580 C   0  0  0  0  0  0  0  0  0  0  0  0
    0.2860   -0.9290    0.8010 O   0  0  0  0  0  0  0  0  0  0  0  0
  2  1  1  1
  2  3  1  0
  2  8  1  0
  2 12  1  0
  3  4  1  1
  3  5  1  0
  5  6  1  0
  6  7  1  0
  8  9  1  0
  9 10  1  1
  9 11  1  0
 11 12  1  0
M  END
