
     RDKit          3D

 12 12  0  0  0  0  0  0  0  0999 V2000
   -2.7460   -2.1890    0.0610 O   0  0  0  0  0  0  0  0  0  0  0  0
   -1.9500   -1.2360   -0.1970 C   0  0  0  0  0  0  0  0  0  0  0  0
   -0.6560   -1.4560   -0.6400 O   0  0  0  0  0  0  0  0  0  0  0  0
    0.4810   -0.8740    0.0430 C   0  0  1  0  0  0  0  0  0  0  0  0
    1.5050   -0.4380   -0.9570 C   0  0  0  0  0  0  0  0  0  0  0  0
    2.7480    0.1620   -0.3950 C   0  0  0  0  0  0  0  0  0  0  0  0
    2.5830    1.3160    0.3420 O   0  0  0  0  0  0  0  0  0  0  0  0
   -0.1040    0.2980    0.7750 C   0  0  2  0  0  0  0  0  0  0  0  0
   -0.8660   -0.2800    1.8430 O   0  0  0  0  0  0  0  0  0  0  0  0
   -1.0660    0.9800   -0.1820 C   0  0  0  0  0  0  0  0  0  0  0  0
   -2.3800    0.2000   -0.0310 C   0  0  2  0  0  0  0  0  0  0  0  0
   -2.8370    0.4290    1.2650 O   0  0  0  0  0  0  0  0  0  0  0  0
  1  2  2  0
  2  3  1  0
  2 11  1  0
  3  4  1  0
  4  5  1  6
  4  8  1  0
  5  6  1  0
  6  7  1  0
  8  9  1  1
  8 10  1  0
 10 11  1  0
 11 12  1  1
M  END
