
     RDKit          3D

 13 13  0  0  0  0  0  0  0  0999 V2000
   -0.9010    2.8700    1.3960 O   0  0  0  0  0  0  0  0  0  0  0  0
   -0.5660    1.7190    0.9510 C   0  0  0  0  0  0  0  0  0  0  0  0
    0.7700    1.5270    0.5210 N   0  0  0  0  0  0  0  0  0  0  0  0
    1.1310    0.2440    0.0280 C   0  0  0  0  0  0  0  0  0  0  0  0
    2.5100   -0.0120   -0.4340 C   0  0  0  0  0  0  0  0  0  0  0  0
    2.8580   -1.1360   -0.8740 O   0  0  0  0  0  0  0  0  0  0  0  0
    3.4780    0.9800   -0.3990 O   0  0  0  0  0  0  0  0  0  0  0  0
    0.2360   -0.7150   -0.0170 C   0  0  0  0  0  0  0  0  0  0  0  0
   -1.1680   -0.6190    0.4030 C   0  0  2  0  0  0  0  0  0  0  0  0
   -2.0450   -1.0580   -0.7240 C   0  0  0  0  0  0  0  0  0  0  0  0
   -2.9600   -0.3030   -1.1300 O   0  0  0  0  0  0  0  0  0  0  0  0
   -1.8740   -2.2870   -1.3390 O   0  0  0  0  0  0  0  0  0  0  0  0
   -1.5070    0.6670    0.8910 N   0  0  0  0  0  0  0  0  0  0  0  0
  1  2  2  0
  2  3  1  0
  2 13  1  0
  3  4  1  0
  4  5  1  0
  4  8  2  0
  5  6  2  0
  5  7  1  0
  8  9  1  0
  9 10  1  6
  9 13  1  0
 10 11  2  0
 10 12  1  0
M  END
