
     RDKit          3D

 12 12  0  0  0  0  0  0  0  0999 V2000
    3.7980    0.1970   -0.0150 N   0  0  0  0  0  0  0  0  0  0  0  0
    2.3690    0.4710    0.1910 C   0  0  0  0  0  0  0  0  0  0  0  0
    1.6210   -0.3900   -0.7760 C   0  0  0  0  0  0  0  0  0  0  0  0
    0.1350   -0.2380   -0.7040 C   0  0  1  0  0  0  0  0  0  0  0  0
   -0.4100   -1.1100   -1.6710 O   0  0  0  0  0  0  0  0  0  0  0  0
   -0.4280   -0.6900    0.6360 C   0  0  0  0  0  0  0  0  0  0  0  0
   -1.7300   -1.3820    0.4200 C   0  0  0  0  0  0  0  0  0  0  0  0
   -2.8620   -0.5160    0.0280 C   0  0  0  0  0  0  0  0  0  0  0  0
   -2.7290    0.9260    0.3330 C   0  0  0  0  0  0  0  0  0  0  0  0
   -1.4370    1.5300    0.0150 C   0  0  0  0  0  0  0  0  0  0  0  0
   -1.2030    2.5550    0.6730 O   0  0  0  0  0  0  0  0  0  0  0  0
   -0.3420    1.1600   -0.9430 C   0  0  0  0  0  0  0  0  0  0  0  0
  1  2  1  0
  2  3  1  0
  3  4  1  0
  4  5  1  6
  4  6  1  0
  4 12  1  0
  6  7  1  0
  7  8  1  0
  8  9  1  0
  9 10  1  0
 10 11  2  0
 10 12  1  0
M  CHG  1   1   1
M  END
