
     RDKit          3D

 12 12  0  0  0  0  0  0  0  0999 V2000
    3.4130    1.1640    0.4610 C   0  0  0  0  0  0  0  0  0  0  0  0
    2.5170    0.6390   -0.4780 O   0  0  0  0  0  0  0  0  0  0  0  0
    1.1390    0.6090   -0.3250 C   0  0  0  0  0  0  0  0  0  0  0  0
    0.5320    1.7650   -0.1880 C   0  0  0  0  0  0  0  0  0  0  0  0
   -0.8810    2.1550   -0.0060 C   0  0  0  0  0  0  0  0  0  0  0  0
   -1.8350    1.1240   -0.5570 C   0  0  0  0  0  0  0  0  0  0  0  0
   -1.8630   -0.1190    0.3030 C   0  0  1  0  0  0  0  0  0  0  0  0
   -3.1200   -0.8150    0.0500 N   0  0  0  0  0  0  0  0  0  0  0  0
   -0.7340   -1.0260   -0.0700 C   0  0  0  0  0  0  0  0  0  0  0  0
    0.5320   -0.7180   -0.3350 C   0  0  0  0  0  0  0  0  0  0  0  0
    1.3690   -1.7830   -0.6570 O   0  0  0  0  0  0  0  0  0  0  0  0
    1.4760   -2.8870    0.2100 C   0  0  0  0  0  0  0  0  0  0  0  0
  1  2  1  0
  2  3  1  0
  3  4  2  0
  3 10  1  0
  4  5  1  0
  5  6  1  0
  6  7  1  0
  7  8  1  6
  7  9  1  0
  9 10  2  0
 10 11  1  0
 11 12  1  0
M  CHG  1   8   1
M  END
