
     RDKit          3D

 12 12  0  0  0  0  0  0  0  0999 V2000
   -0.2320   -2.8360    0.4290 C   0  0  0  0  0  0  0  0  0  0  0  0
   -0.8430   -1.4830    0.1580 C   0  0  0  0  0  0  0  0  0  0  0  0
   -2.1130   -1.2250   -0.0900 C   0  0  0  0  0  0  0  0  0  0  0  0
   -2.2610    0.2160   -0.2930 C   0  0  1  0  0  0  0  0  0  0  0  0
   -3.0930    0.7680    0.7620 N   0  0  0  0  0  0  0  0  0  0  0  0
   -0.9020    0.7690   -0.1290 C   0  0  0  0  0  0  0  0  0  0  0  0
   -0.4960    2.2070   -0.2370 C   0  0  0  0  0  0  0  0  0  0  0  0
   -0.1020   -0.2300    0.1300 C   0  0  0  0  0  0  0  0  0  0  0  0
    1.2630   -0.1180    0.3500 O   0  0  0  0  0  0  0  0  0  0  0  0
    2.1710    0.0050   -0.7390 C   0  0  0  0  0  0  0  0  0  0  0  0
    3.5790    0.1060   -0.1640 C   0  0  0  0  0  0  0  0  0  0  0  0
    3.6380    1.2390    0.6670 O   0  0  0  0  0  0  0  0  0  0  0  0
  1  2  1  0
  2  3  2  0
  2  8  1  0
  3  4  1  0
  4  5  1  1
  4  6  1  0
  6  7  1  0
  6  8  2  0
  8  9  1  0
  9 10  1  0
 10 11  1  0
 11 12  1  0
M  CHG  1   5   1
M  END
