
     RDKit          3D

 22 23  0  0  0  0  0  0  0  0999 V2000
    1.7480   -0.1750   -2.0050 O   0  0  0  0  0  0  0  0  0  0  0  0
    2.2410   -0.0080   -0.8400 C   0  0  0  0  0  0  0  0  0  0  0  0
    3.3530    0.9470   -0.6410 C   0  0  0  0  0  0  0  0  0  0  0  0
    3.7360    0.9780    0.6780 O   0  0  0  0  0  0  0  0  0  0  0  0
    4.7770    1.8710    0.8670 C   0  0  0  0  0  0  0  0  0  0  0  0
    5.1600    1.8970    2.2090 O   0  0  0  0  0  0  0  0  0  0  0  0
    1.7480   -0.7060    0.2320 O   0  0  0  0  0  0  0  0  0  0  0  0
    0.7090   -1.6050    0.0790 C   0  0  0  0  0  0  0  0  0  0  0  0
   -0.5500   -1.2400    0.1960 C   0  0  0  0  0  0  0  0  0  0  0  0
   -0.8820    0.1270    0.4920 C   0  0  0  0  0  0  0  0  0  0  0  0
   -2.0420    0.6910    0.6530 C   0  0  0  0  0  0  0  0  0  0  0  0
   -2.1820    2.4670    1.0200 S   0  0  0  0  0  0  0  0  0  0  0  0
   -3.7740    2.9590    0.2810 C   0  0  0  0  0  0  0  0  0  0  0  0
   -4.3170    1.9260   -0.6740 C   0  0  0  0  0  0  0  0  0  0  0  0
   -4.3770    0.6020   -0.1540 N   0  0  0  0  0  0  0  0  0  0  0  0
   -3.3030   -0.0040    0.5800 C   0  0  0  0  0  0  0  0  0  0  0  0
   -3.4240   -1.1150    1.1600 O   0  0  0  0  0  0  0  0  0  0  0  0
   -1.5030   -2.2160    0.0230 O   0  0  0  0  0  0  0  0  0  0  0  0
   -1.1530   -3.4160   -0.6240 C   0  0  0  0  0  0  0  0  0  0  0  0
    0.0060   -3.9020    0.0180 O   0  0  0  0  0  0  0  0  0  0  0  0
    1.0300   -3.0140   -0.2250 C   0  0  2  0  0  0  0  0  0  0  0  0
    2.1330   -3.3550    0.5750 O   0  0  0  0  0  0  0  0  0  0  0  0
  1  2  2  0
  2  3  1  0
  2  7  1  0
  3  4  1  0
  4  5  1  0
  5  6  1  0
  7  8  1  0
  8  9  2  0
  8 21  1  0
  9 10  1  0
  9 18  1  0
 10 11  2  3
 11 12  1  0
 11 16  1  0
 12 13  1  0
 13 14  1  0
 14 15  1  0
 15 16  1  0
 16 17  2  0
 18 19  1  0
 19 20  1  0
 20 21  1  0
 21 22  1  1
M  END
