
     RDKit          3D

 22 23  0  0  0  0  0  0  0  0999 V2000
   -3.3170    3.5540    1.4820 C   0  0  0  0  0  0  0  0  0  0  0  0
   -2.4840    2.2960    1.6050 C   0  0  0  0  0  0  0  0  0  0  0  0
   -2.4630    1.5170    0.3090 C   0  0  2  0  0  0  0  0  0  0  0  0
   -3.6780    1.1060   -0.1280 O   0  0  0  0  0  0  0  0  0  0  0  0
   -4.0700   -0.1640    0.1770 C   0  0  0  0  0  0  0  0  0  0  0  0
   -3.0740   -1.2280   -0.0620 C   0  0  1  0  0  0  0  0  0  0  0  0
   -2.7010   -1.9260    1.0720 O   0  0  0  0  0  0  0  0  0  0  0  0
   -3.3020   -2.0980   -1.0820 O   0  0  0  0  0  0  0  0  0  0  0  0
   -2.0380   -2.5010   -1.5200 C   0  0  0  0  0  0  0  0  0  0  0  0
   -1.1070   -1.6310   -0.9360 O   0  0  0  0  0  0  0  0  0  0  0  0
   -1.8400   -0.5360   -0.6760 C   0  0  1  0  0  0  0  0  0  0  0  0
   -2.2130    0.1120   -1.8420 O   0  0  0  0  0  0  0  0  0  0  0  0
   -1.3960    0.4280    0.3420 C   0  0  1  0  0  0  0  0  0  0  0  0
    0.2460    1.1320    0.0330 S   0  0  0  0  0  0  0  0  0  0  0  0
    1.4600   -0.1620    0.0950 C   0  0  0  0  0  0  0  0  0  0  0  0
    1.1830   -1.3600    0.3250 O   0  0  0  0  0  0  0  0  0  0  0  0
    2.8250    0.2160   -0.1360 N   0  0  0  0  0  0  0  0  0  0  0  0
    3.8270   -0.7840   -0.0950 C   0  0  0  0  0  0  0  0  0  0  0  0
    3.4950   -1.9700    0.1410 O   0  0  0  0  0  0  0  0  0  0  0  0
    5.2520   -0.4280   -0.3290 C   0  0  0  0  0  0  0  0  0  0  0  0
    6.0650   -1.5440   -0.2450 O   0  0  0  0  0  0  0  0  0  0  0  0
    7.3730   -1.1620   -0.4690 C   0  0  0  0  0  0  0  0  0  0  0  0
  1  2  1  0
  3  2  1  1
  3  4  1  0
  3 13  1  0
  4  5  1  0
  5  6  1  0
  6  7  1  1
  6  8  1  0
  6 11  1  0
  8  9  1  0
  9 10  1  0
 10 11  1  0
 11 12  1  6
 11 13  1  0
 13 14  1  6
 14 15  1  0
 15 16  2  0
 15 17  1  0
 17 18  1  0
 18 19  2  0
 18 20  1  0
 20 21  1  0
 21 22  1  0
M  END
