
     RDKit          3D

 12 12  0  0  0  0  0  0  0  0999 V2000
   -3.7590    1.0370    0.3950 C   0  0  0  0  0  0  0  0  0  0  0  0
   -3.0490   -0.0930   -0.1410 N   0  0  0  0  0  0  0  0  0  0  0  0
   -1.6570   -0.1100    0.2020 C   0  0  1  0  0  0  0  0  0  0  0  0
   -1.0620   -1.3710   -0.4410 C   0  0  0  0  0  0  0  0  0  0  0  0
    0.2570   -1.5710    0.2430 C   0  0  0  0  0  0  0  0  0  0  0  0
    1.1670   -0.4020   -0.1370 C   0  0  2  0  0  0  0  0  0  0  0  0
    1.3750   -0.5070   -1.5160 O   0  0  0  0  0  0  0  0  0  0  0  0
    2.4970   -0.5560    0.5310 C   0  0  0  0  0  0  0  0  0  0  0  0
    3.4470    0.5490    0.2100 C   0  0  0  0  0  0  0  0  0  0  0  0
    4.6880    0.3630    0.8390 O   0  0  0  0  0  0  0  0  0  0  0  0
    0.5510    0.9050    0.2210 C   0  0  0  0  0  0  0  0  0  0  0  0
   -0.8770    1.0370   -0.3360 C   0  0  0  0  0  0  0  0  0  0  0  0
  1  2  1  0
  3  2  1  6
  3  4  1  0
  3 12  1  0
  4  5  1  0
  5  6  1  0
  6  7  1  6
  6  8  1  0
  6 11  1  0
  8  9  1  0
  9 10  1  0
 11 12  1  0
M  CHG  1   2   1
M  END
