
     RDKit          3D

 21 22  0  0  0  0  0  0  0  0999 V2000
    6.6610   -1.4720   -1.2640 C   0  0  0  0  0  0  0  0  0  0  0  0
    5.4050   -0.8220   -1.1130 O   0  0  0  0  0  0  0  0  0  0  0  0
    4.8300   -0.7640    0.1310 C   0  0  0  0  0  0  0  0  0  0  0  0
    5.4110   -1.2850    1.1330 O   0  0  0  0  0  0  0  0  0  0  0  0
    3.6110   -0.1410    0.3180 O   0  0  0  0  0  0  0  0  0  0  0  0
    3.0100   -0.0730    1.5730 C   0  0  0  0  0  0  0  0  0  0  0  0
    1.7140    0.6620    1.4180 C   0  0  0  0  0  0  0  0  0  0  0  0
    1.0070    0.8380    2.4330 O   0  0  0  0  0  0  0  0  0  0  0  0
    1.2990    1.1430    0.1720 N   0  0  0  0  0  0  0  0  0  0  0  0
    0.0620    1.8430   -0.0010 C   0  0  0  0  0  0  0  0  0  0  0  0
   -1.0820    0.9340    0.3700 C   0  0  2  0  0  0  0  0  0  0  0  0
   -0.9710   -0.3080   -0.4620 C   0  0  0  0  0  0  0  0  0  0  0  0
   -2.1950   -0.9770   -0.6440 O   0  0  0  0  0  0  0  0  0  0  0  0
   -3.4090   -0.4880   -0.2130 C   0  0  0  0  0  0  0  0  0  0  0  0
   -4.4590   -1.3030   -0.2220 C   0  0  0  0  0  0  0  0  0  0  0  0
   -4.3120   -2.6150   -0.6610 O   0  0  0  0  0  0  0  0  0  0  0  0
   -5.6470   -0.7710    0.2170 O   0  0  0  0  0  0  0  0  0  0  0  0
   -5.8440    0.5460    0.6690 C   0  0  0  0  0  0  0  0  0  0  0  0
   -4.6160    1.3790    0.6420 C   0  0  0  0  0  0  0  0  0  0  0  0
   -3.4840    0.8880    0.2290 C   0  0  0  0  0  0  0  0  0  0  0  0
   -2.2940    1.6320    0.1840 O   0  0  0  0  0  0  0  0  0  0  0  0
  1  2  1  0
  2  3  1  0
  3  4  2  0
  3  5  1  0
  5  6  1  0
  6  7  1  0
  7  8  2  0
  7  9  1  0
  9 10  1  0
 11 10  1  6
 11 12  1  0
 11 21  1  0
 12 13  1  0
 13 14  1  0
 14 15  2  0
 14 20  1  0
 15 16  1  0
 15 17  1  0
 17 18  1  0
 18 19  1  0
 19 20  2  0
 20 21  1  0
M  END
