
     RDKit          3D

 22 23  0  0  0  0  0  0  0  0999 V2000
   -1.6270    0.6280   -2.6440 O   0  0  0  0  0  0  0  0  0  0  0  0
   -0.7150    0.4840   -1.7920 C   0  0  0  0  0  0  0  0  0  0  0  0
    0.6780    0.7400   -2.2160 C   0  0  0  0  0  0  0  0  0  0  0  0
    1.5910    0.5310   -1.1280 O   0  0  0  0  0  0  0  0  0  0  0  0
    2.9410    0.7010   -1.2580 C   0  0  0  0  0  0  0  0  0  0  0  0
    3.3810    1.0570   -2.3920 O   0  0  0  0  0  0  0  0  0  0  0  0
    3.8740    0.5040   -0.2050 N   0  0  0  0  0  0  0  0  0  0  0  0
    5.2830    0.7190   -0.4740 C   0  0  2  0  0  0  0  0  0  0  0  0
    6.1320   -0.8450   -0.0190 S   0  0  0  0  0  0  0  0  0  0  0  0
    6.7870   -0.2770    1.6020 C   0  0  0  0  0  0  0  0  0  0  0  0
    6.0710    0.9470    1.7390 O   0  0  0  0  0  0  0  0  0  0  0  0
    5.9150    1.6070    0.5540 C   0  0  0  0  0  0  0  0  0  0  0  0
    6.2230    2.8100    0.2430 O   0  0  0  0  0  0  0  0  0  0  0  0
   -1.0550    0.1010   -0.5250 O   0  0  0  0  0  0  0  0  0  0  0  0
   -2.3760   -0.1500   -0.0890 C   0  0  2  0  0  0  0  0  0  0  0  0
   -2.8410    0.8080    0.9690 C   0  0  0  0  0  0  0  0  0  0  0  0
   -4.3290    0.6180    1.1540 C   0  0  2  0  0  0  0  0  0  0  0  0
   -4.6090    0.3740    2.4840 O   0  0  0  0  0  0  0  0  0  0  0  0
   -4.8810   -0.5150    0.3410 C   0  0  0  0  0  0  0  0  0  0  0  0
   -4.0960   -1.7820    0.4590 C   0  0  0  0  0  0  0  0  0  0  0  0
   -2.6040   -1.5710    0.3210 C   0  0  1  0  0  0  0  0  0  0  0  0
   -2.0750   -2.3900   -0.6850 O   0  0  0  0  0  0  0  0  0  0  0  0
  1  2  2  0
  2  3  1  0
  2 14  1  0
  3  4  1  0
  4  5  1  0
  5  6  2  0
  5  7  1  0
  8  7  1  1
  8  9  1  0
  8 12  1  0
  9 10  1  0
 10 11  1  0
 11 12  1  0
 12 13  2  0
 15 14  1  1
 15 16  1  0
 15 21  1  0
 16 17  1  0
 17 18  1  1
 17 19  1  0
 19 20  1  0
 20 21  1  0
 21 22  1  6
M  END
