
     RDKit          3D

 22 23  0  0  0  0  0  0  0  0999 V2000
   -4.7730    1.2830    1.4270 C   0  0  0  0  0  0  0  0  0  0  0  0
   -4.1420    1.0650    0.0710 C   0  0  1  0  0  0  0  0  0  0  0  0
   -2.7850    0.7200    0.2820 O   0  0  0  0  0  0  0  0  0  0  0  0
   -2.4090   -0.2990   -0.5770 C   0  0  0  0  0  0  0  0  0  0  0  0
   -1.0290   -0.6840   -0.8160 C   0  0  0  0  0  0  0  0  0  0  0  0
   -0.8110   -1.6260   -1.6190 O   0  0  0  0  0  0  0  0  0  0  0  0
    0.0350   -0.0450   -0.1860 O   0  0  0  0  0  0  0  0  0  0  0  0
    1.3550   -0.4320   -0.4300 C   0  0  2  0  0  0  0  0  0  0  0  0
    1.6940   -0.2750   -1.8940 C   0  0  0  0  0  0  0  0  0  0  0  0
    1.6640   -1.8250    0.0750 C   0  0  0  0  0  0  0  0  0  0  0  0
    1.7390   -1.6070    1.4720 O   0  0  0  0  0  0  0  0  0  0  0  0
    2.4260   -0.3850    1.5840 C   0  0  0  0  0  0  0  0  0  0  0  0
    3.0890    0.0150    2.5920 O   0  0  0  0  0  0  0  0  0  0  0  0
    2.2670    0.3550    0.3790 N   0  0  0  0  0  0  0  0  0  0  0  0
    2.9150    1.6200    0.0970 C   0  0  0  0  0  0  0  0  0  0  0  0
    4.5120    1.4570   -0.6990 S   0  0  0  0  0  0  0  0  0  0  0  0
    5.7570    0.6890    0.3500 C   0  0  0  0  0  0  0  0  0  0  0  0
    6.9470    0.6300   -0.4030 O   0  0  0  0  0  0  0  0  0  0  0  0
   -3.4790   -0.8390   -1.1200 C   0  0  0  0  0  0  0  0  0  0  0  0
   -3.5580   -1.8920   -2.0400 O   0  0  0  0  0  0  0  0  0  0  0  0
   -4.7140   -0.1560   -0.6130 C   0  0  1  0  0  0  0  0  0  0  0  0
   -5.4280   -0.9740    0.2280 O   0  0  0  0  0  0  0  0  0  0  0  0
  2  1  1  1
  2  3  1  0
  2 21  1  0
  3  4  1  0
  4  5  1  0
  4 19  2  0
  5  6  2  0
  5  7  1  0
  7  8  1  0
  8  9  1  6
  8 10  1  0
  8 14  1  0
 10 11  1  0
 11 12  1  0
 12 13  2  0
 12 14  1  0
 14 15  1  0
 15 16  1  0
 16 17  1  0
 17 18  1  0
 19 20  1  0
 19 21  1  0
 21 22  1  1
M  END
