
     RDKit          3D

 25 27  0  0  0  0  0  0  0  0999 V2000
   -4.5900   -2.7850   -0.1570 C   0  0  0  0  0  0  0  0  0  0  0  0
   -3.9550   -1.4620   -0.1630 C   0  0  0  0  0  0  0  0  0  0  0  0
   -4.7250   -0.3230   -0.2230 C   0  0  0  0  0  0  0  0  0  0  0  0
   -4.1390    0.9170   -0.2290 C   0  0  0  0  0  0  0  0  0  0  0  0
   -4.9670    2.1740   -0.2940 C   0  0  0  0  0  0  0  0  0  0  0  0
   -2.7760    1.0090   -0.1760 C   0  0  0  0  0  0  0  0  0  0  0  0
   -2.1650    2.3880   -0.1850 C   0  0  0  0  0  0  0  0  0  0  0  0
   -1.9460   -0.1240   -0.1140 C   0  0  0  0  0  0  0  0  0  0  0  0
   -0.5510    0.0780   -0.0600 N   0  0  0  0  0  0  0  0  0  0  0  0
    0.3990   -0.9510    0.0000 C   0  0  0  0  0  0  0  0  0  0  0  0
    0.0550   -2.1530    0.0090 O   0  0  0  0  0  0  0  0  0  0  0  0
    1.8300   -0.6300    0.0530 C   0  0  0  0  0  0  0  0  0  0  0  0
    2.3490    0.6270    0.0510 C   0  0  0  0  0  0  0  0  0  0  0  0
    3.6910    0.9470    0.1000 C   0  0  0  0  0  0  0  0  0  0  0  0
    4.0780    2.3400    0.0890 C   0  0  0  0  0  0  0  0  0  0  0  0
    5.2640    2.7530    0.1310 O   0  0  0  0  0  0  0  0  0  0  0  0
    3.0730    3.3130    0.0290 O   0  0  0  0  0  0  0  0  0  0  0  0
    4.6390   -0.1210    0.1610 C   0  0  0  0  0  0  0  0  0  0  0  0
    5.9690   -0.0050    0.2140 C   0  0  0  0  0  0  0  0  0  0  0  0
    6.7490   -1.1370    0.2690 C   0  0  0  0  0  0  0  0  0  0  0  0
    5.5030   -2.4560    0.2420 S   0  0  0  0  0  0  0  0  0  0  0  0
    4.0710   -1.3550    0.1610 C   0  0  0  0  0  0  0  0  0  0  0  0
    2.7560   -1.6740    0.1120 C   0  0  0  0  0  0  0  0  0  0  0  0
    2.3280   -3.0160    0.1210 N   0  0  0  0  0  0  0  0  0  0  0  0
   -2.5760   -1.3360   -0.1100 C   0  0  0  0  0  0  0  0  0  0  0  0
  1  2  1  0
  2  3  2  0
  2 25  1  0
  3  4  1  0
  4  5  1  0
  4  6  2  0
  6  7  1  0
  6  8  1  0
  8  9  1  0
  8 25  2  0
  9 10  1  0
 10 11  2  0
 10 12  1  0
 12 13  2  0
 12 23  1  0
 13 14  1  0
 14 15  1  0
 14 18  2  0
 15 16  2  0
 15 17  1  0
 18 19  1  0
 18 22  1  0
 19 20  2  0
 20 21  1  0
 21 22  1  0
 22 23  2  0
 23 24  1  0
M  END
