
     RDKit          3D

 25 27  0  0  0  0  0  0  0  0999 V2000
   -5.8030   -2.0470   -0.6730 C   0  0  0  0  0  0  0  0  0  0  0  0
   -5.2870   -0.8420   -1.4410 C   0  0  0  0  0  0  0  0  0  0  0  0
   -4.1560   -0.2200   -0.6730 C   0  0  0  0  0  0  0  0  0  0  0  0
   -2.8460   -0.4060   -1.0570 C   0  0  0  0  0  0  0  0  0  0  0  0
   -1.7900    0.1680   -0.3380 C   0  0  0  0  0  0  0  0  0  0  0  0
   -0.4890   -0.0380   -0.7320 C   0  0  0  0  0  0  0  0  0  0  0  0
    0.5470    0.5400    0.0150 C   0  0  0  0  0  0  0  0  0  0  0  0
    1.9380    0.2840   -0.3740 C   0  0  0  0  0  0  0  0  0  0  0  0
    2.1100   -0.1490   -1.5680 O   0  0  0  0  0  0  0  0  0  0  0  0
    3.0630    0.4630    0.4260 N   0  0  0  0  0  0  0  0  0  0  0  0
    4.4040    0.2150    0.0340 C   0  0  0  0  0  0  0  0  0  0  0  0
    5.3490    0.1000    1.0700 C   0  0  0  0  0  0  0  0  0  0  0  0
    6.6830   -0.1290    0.8410 C   0  0  0  0  0  0  0  0  0  0  0  0
    7.1690   -0.2590   -0.4420 C   0  0  0  0  0  0  0  0  0  0  0  0
    8.5230   -0.4910   -0.6360 O   0  0  0  0  0  0  0  0  0  0  0  0
    6.2570   -0.1480   -1.4610 C   0  0  0  0  0  0  0  0  0  0  0  0
    4.8880    0.0870   -1.2270 C   0  0  0  0  0  0  0  0  0  0  0  0
    0.1620    1.2750    1.0900 C   0  0  0  0  0  0  0  0  0  0  0  0
    1.0090    1.8390    1.8240 O   0  0  0  0  0  0  0  0  0  0  0  0
   -1.1210    1.4620    1.4560 N   0  0  0  0  0  0  0  0  0  0  0  0
   -2.1320    0.9220    0.7640 C   0  0  0  0  0  0  0  0  0  0  0  0
   -3.4370    1.1290    1.1770 C   0  0  0  0  0  0  0  0  0  0  0  0
   -4.4570    0.5540    0.4540 C   0  0  0  0  0  0  0  0  0  0  0  0
   -5.8490    0.7100    0.8130 C   0  0  0  0  0  0  0  0  0  0  0  0
   -6.7870    1.7190   -0.0480 S   0  0  0  0  0  0  0  0  0  0  0  0
  1  2  1  0
  2  3  1  0
  3  4  2  0
  3 23  1  0
  4  5  1  0
  5  6  1  0
  5 21  2  0
  6  7  2  0
  7  8  1  0
  7 18  1  0
  8  9  2  0
  8 10  1  0
 10 11  1  0
 11 12  2  0
 11 17  1  0
 12 13  1  0
 13 14  2  0
 14 15  1  0
 14 16  1  0
 16 17  2  0
 18 19  2  0
 18 20  1  0
 20 21  1  0
 21 22  1  0
 22 23  2  0
 23 24  1  0
 24 25  2  0
M  END
