
     RDKit          3D

 25 28  0  0  0  0  0  0  0  0999 V2000
    0.6150    2.8360   -1.1880 N   0  0  0  0  0  0  0  0  0  0  0  0
   -0.2600    1.7430   -0.9070 C   0  0  0  0  0  0  0  0  0  0  0  0
   -1.6050    1.9110   -0.6510 C   0  0  0  0  0  0  0  0  0  0  0  0
   -2.4400    0.8430   -0.3810 C   0  0  0  0  0  0  0  0  0  0  0  0
   -3.7910    0.9990   -0.1220 C   0  0  0  0  0  0  0  0  0  0  0  0
   -4.2690    2.1640   -0.1350 O   0  0  0  0  0  0  0  0  0  0  0  0
   -4.6090   -0.0820    0.1450 C   0  0  0  0  0  0  0  0  0  0  0  0
   -5.9580    0.0590    0.4050 C   0  0  0  0  0  0  0  0  0  0  0  0
   -6.7770   -1.0360    0.6740 C   0  0  0  0  0  0  0  0  0  0  0  0
   -6.2440   -2.3100    0.6860 C   0  0  0  0  0  0  0  0  0  0  0  0
   -4.8890   -2.4450    0.4250 C   0  0  0  0  0  0  0  0  0  0  0  0
   -4.0740   -1.3570    0.1570 C   0  0  0  0  0  0  0  0  0  0  0  0
   -2.7580   -1.4990   -0.0960 N   0  0  0  0  0  0  0  0  0  0  0  0
   -1.9480   -0.4470   -0.3590 C   0  0  0  0  0  0  0  0  0  0  0  0
   -0.6010   -0.6090   -0.6160 C   0  0  0  0  0  0  0  0  0  0  0  0
    0.2410    0.4570   -0.8870 C   0  0  0  0  0  0  0  0  0  0  0  0
    1.9810    0.2300   -1.2180 S   0  0  0  0  0  0  0  0  0  0  0  0
    2.8700    0.3130    0.3260 C   0  0  0  0  0  0  0  0  0  0  0  0
    4.3270    0.1400    0.1900 C   0  0  0  0  0  0  0  0  0  0  0  0
    5.1090    1.1230    0.5920 C   0  0  0  0  0  0  0  0  0  0  0  0
    6.5800    1.1090    0.5260 C   0  0  0  0  0  0  0  0  0  0  0  0
    7.0870   -0.0720   -0.0150 O   0  0  0  0  0  0  0  0  0  0  0  0
    6.2670   -1.0980   -0.4350 C   0  0  0  0  0  0  0  0  0  0  0  0
    4.9580   -1.0390   -0.3560 C   0  0  0  0  0  0  0  0  0  0  0  0
    4.1240   -2.0740   -0.7790 O   0  0  0  0  0  0  0  0  0  0  0  0
  1  2  1  0
  2  3  2  0
  2 16  1  0
  3  4  1  0
  4  5  1  0
  4 14  2  0
  5  6  2  0
  5  7  1  0
  7  8  2  0
  7 12  1  0
  8  9  1  0
  9 10  2  0
 10 11  1  0
 11 12  2  0
 12 13  1  0
 13 14  1  0
 14 15  1  0
 15 16  2  0
 16 17  1  0
 17 18  1  0
 18 19  1  0
 19 20  2  0
 19 24  1  0
 20 21  1  0
 21 22  1  0
 22 23  1  0
 23 24  2  0
 24 25  1  0
M  END
