
     RDKit          3D

 25 27  0  0  0  0  0  0  0  0999 V2000
    4.8450    0.1970    2.2830 C   0  0  0  0  0  0  0  0  0  0  0  0
    4.7740    0.1770    0.9560 C   0  0  0  0  0  0  0  0  0  0  0  0
    5.9550    0.3450    0.0970 C   0  0  0  0  0  0  0  0  0  0  0  0
    5.5820    0.3850   -1.3490 C   0  0  0  0  0  0  0  0  0  0  0  0
    4.3030    1.1970   -1.5870 C   0  0  0  0  0  0  0  0  0  0  0  0
    3.2070    0.4860   -0.8930 C   0  0  0  0  0  0  0  0  0  0  0  0
    1.9760    0.3190   -1.4610 C   0  0  0  0  0  0  0  0  0  0  0  0
    0.9470   -0.3710   -0.7680 C   0  0  0  0  0  0  0  0  0  0  0  0
   -0.6700   -0.3420   -1.4810 S   0  0  2  0  0  0  0  0  0  0  0  0
   -1.3030   -1.6890   -1.5580 O   0  0  0  0  0  0  0  0  0  0  0  0
   -0.4740    0.1260   -2.9360 O   0  0  0  0  0  0  0  0  0  0  0  0
   -1.6030    0.8250   -0.7350 N   0  0  0  0  0  0  0  0  0  0  0  0
   -2.7720    0.6220   -0.0440 C   0  0  1  0  0  0  0  0  0  0  0  0
   -3.2160    2.0300    0.4500 C   0  0  0  0  0  0  0  0  0  0  0  0
   -3.8990    0.2430   -1.0170 C   0  0  0  0  0  0  0  0  0  0  0  0
   -5.1920    0.4170   -0.2460 C   0  0  0  0  0  0  0  0  0  0  0  0
   -5.2150   -0.6670    0.8080 C   0  0  0  0  0  0  0  0  0  0  0  0
   -4.1360   -0.3710    1.8020 C   0  0  0  0  0  0  0  0  0  0  0  0
   -2.7730   -0.2630    1.1460 C   0  0  0  0  0  0  0  0  0  0  0  0
    1.1850   -0.8660    0.4470 C   0  0  0  0  0  0  0  0  0  0  0  0
    0.2840   -1.7580    1.1940 C   0  0  0  0  0  0  0  0  0  0  0  0
   -0.2760   -2.8550    0.5040 N   0  0  0  0  0  0  0  0  0  0  0  0
    0.0470   -1.5380    2.4170 O   0  0  0  0  0  0  0  0  0  0  0  0
    2.4580   -0.6960    1.0490 C   0  0  0  0  0  0  0  0  0  0  0  0
    3.4420   -0.0260    0.3730 C   0  0  0  0  0  0  0  0  0  0  0  0
  1  2  2  0
  2  3  1  0
  2 25  1  0
  3  4  1  0
  4  5  1  0
  5  6  1  0
  6  7  2  0
  6 25  1  0
  7  8  1  0
  8  9  1  0
  8 20  2  0
  9 10  2  0
  9 11  2  0
  9 12  1  1
 12 13  1  0
 13 14  1  1
 13 15  1  0
 13 19  1  0
 15 16  1  0
 16 17  1  0
 17 18  1  0
 18 19  1  0
 20 21  1  0
 20 24  1  0
 21 22  1  0
 21 23  2  0
 24 25  2  0
M  END
