
     RDKit          3D

 14 15  0  0  0  0  0  0  0  0999 V2000
    4.1870   -0.1840   -1.2980 C   0  0  0  0  0  0  0  0  0  0  0  0
    2.8600    0.1960   -0.6800 C   0  0  0  0  0  0  0  0  0  0  0  0
    2.2390   -0.3260    0.2540 N   0  0  0  0  0  0  0  0  0  0  0  0
    1.0420    0.1370    0.7000 C   0  0  1  0  0  0  0  0  0  0  0  0
    0.4080    1.1330   -0.2130 C   0  0  2  0  0  0  0  0  0  0  0  0
   -0.5140    0.6120   -1.0860 O   0  0  0  0  0  0  0  0  0  0  0  0
   -1.6340    0.0770   -0.4880 C   0  0  2  0  0  0  0  0  0  0  0  0
   -2.8650    0.9100   -0.6600 C   0  0  0  0  0  0  0  0  0  0  0  0
   -3.9130    0.2320    0.0040 O   0  0  0  0  0  0  0  0  0  0  0  0
   -1.3250   -0.1790    0.9900 C   0  0  1  0  0  0  0  0  0  0  0  0
   -2.3330   -0.8780    1.6180 O   0  0  0  0  0  0  0  0  0  0  0  0
   -0.0120   -0.9430    0.9830 C   0  0  2  0  0  0  0  0  0  0  0  0
    0.2340   -1.5830    2.1740 O   0  0  0  0  0  0  0  0  0  0  0  0
    1.8660    1.5820   -1.2340 S   0  0  0  0  0  0  0  0  0  0  0  0
  1  2  1  0
  2  3  2  0
  2 14  1  0
  4  3  1  6
  4  5  1  0
  4 12  1  0
  5  6  1  6
  5 14  1  0
  6  7  1  0
  7  8  1  1
  7 10  1  0
  8  9  1  0
 10 11  1  6
 10 12  1  0
 12 13  1  1
M  END
