
     RDKit          3D

 25 27  0  0  0  0  0  0  0  0999 V2000
   -4.3290   -1.6880   -0.3950 C   0  0  0  0  0  0  0  0  0  0  0  0
   -3.7380   -0.4520    0.1440 C   0  0  2  0  0  0  0  0  0  0  0  0
   -4.1610   -0.3500    1.6170 C   0  0  0  0  0  0  0  0  0  0  0  0
   -4.4160    0.6890   -0.6380 C   0  0  0  0  0  0  0  0  0  0  0  0
   -4.6870    1.8880    0.2000 C   0  0  0  0  0  0  0  0  0  0  0  0
   -3.5530    2.8650    0.2220 C   0  0  0  0  0  0  0  0  0  0  0  0
   -2.2660    2.3330   -0.1840 C   0  0  0  0  0  0  0  0  0  0  0  0
   -1.5070    3.1740   -0.7320 O   0  0  0  0  0  0  0  0  0  0  0  0
   -1.6690    1.0040   -0.0810 C   0  0  0  0  0  0  0  0  0  0  0  0
   -0.3030    1.0880   -0.1420 C   0  0  0  0  0  0  0  0  0  0  0  0
    0.5430   -0.0330   -0.0600 C   0  0  0  0  0  0  0  0  0  0  0  0
    1.9420    0.1580   -0.1200 N   0  0  0  0  0  0  0  0  0  0  0  0
    2.8760   -0.8650   -0.3050 C   0  0  0  0  0  0  0  0  0  0  0  0
    2.5530   -2.0690   -0.4420 O   0  0  0  0  0  0  0  0  0  0  0  0
    4.2840   -0.5550   -0.3440 C   0  0  0  0  0  0  0  0  0  0  0  0
    5.0230    0.5740   -0.2390 C   0  0  0  0  0  0  0  0  0  0  0  0
    6.3530    0.5400   -0.3190 C   0  0  0  0  0  0  0  0  0  0  0  0
    6.9550   -0.6830   -0.5130 C   0  0  0  0  0  0  0  0  0  0  0  0
    8.3860   -1.0360   -0.6400 C   0  0  0  0  0  0  0  0  0  0  0  0
    9.1150    0.1220   -0.5300 O   0  0  0  0  0  0  0  0  0  0  0  0
    5.6070   -1.8180   -0.5840 S   0  0  0  0  0  0  0  0  0  0  0  0
   -0.0980   -1.2310    0.0870 C   0  0  0  0  0  0  0  0  0  0  0  0
   -1.4850   -1.3060    0.1480 C   0  0  0  0  0  0  0  0  0  0  0  0
   -2.0350   -2.5720    0.3090 N   0  0  0  0  0  0  0  0  0  0  0  0
   -2.3190   -0.2180    0.0680 C   0  0  0  0  0  0  0  0  0  0  0  0
  2  1  1  6
  2  3  1  0
  2  4  1  0
  2 25  1  0
  4  5  1  0
  5  6  1  0
  6  7  1  0
  7  8  2  0
  7  9  1  0
  9 10  2  0
  9 25  1  0
 10 11  1  0
 11 12  1  0
 11 22  2  0
 12 13  1  0
 13 14  2  0
 13 15  1  0
 15 16  2  0
 15 21  1  0
 16 17  1  0
 17 18  2  0
 18 19  1  0
 18 21  1  0
 19 20  1  0
 22 23  1  0
 23 24  1  0
 23 25  2  0
M  END
