
     RDKit          3D

 14 14  0  0  0  0  0  0  0  0999 V2000
   -3.9680   -0.8100   -0.6840 C   0  0  0  0  0  0  0  0  0  0  0  0
   -2.6730   -1.5180    0.3130 S   0  0  0  0  0  0  0  0  0  0  0  0
   -1.6320   -0.3440    1.1580 C   0  0  0  0  0  0  0  0  0  0  0  0
   -0.7500    0.4350    0.2570 C   0  0  1  0  0  0  0  0  0  0  0  0
   -1.5150    1.2470   -0.7230 C   0  0  0  0  0  0  0  0  0  0  0  0
   -2.3400    2.1150    0.0290 O   0  0  0  0  0  0  0  0  0  0  0  0
    0.2160    1.3350    1.0020 C   0  0  0  0  0  0  0  0  0  0  0  0
    1.4560    0.7120    0.9990 O   0  0  0  0  0  0  0  0  0  0  0  0
    1.2630   -0.5670    0.5250 C   0  0  2  0  0  0  0  0  0  0  0  0
    2.5370   -1.0820   -0.1130 C   0  0  2  0  0  0  0  0  0  0  0  0
    3.5480   -1.0970    0.8610 O   0  0  0  0  0  0  0  0  0  0  0  0
    3.0100   -0.1000   -1.1770 C   0  0  0  0  0  0  0  0  0  0  0  0
    4.2200   -0.5350   -1.7090 O   0  0  0  0  0  0  0  0  0  0  0  0
    0.1570   -0.5110   -0.3840 N   0  0  0  0  0  0  0  0  0  0  0  0
  1  2  1  0
  2  3  1  0
  4  3  1  1
  4  5  1  0
  4  7  1  0
  4 14  1  0
  5  6  1  0
  7  8  1  0
  8  9  1  0
  9 10  1  0
  9 14  1  6
 10 11  1  1
 10 12  1  0
 12 13  1  0
M  END
