
     RDKit          3D

 25 27  0  0  0  0  0  0  0  0999 V2000
    5.7790   -0.2980   -2.3660 C   0  0  0  0  0  0  0  0  0  0  0  0
    6.3350   -0.0710   -1.0030 C   0  0  0  0  0  0  0  0  0  0  0  0
    5.5660   -0.7820    0.0830 C   0  0  0  0  0  0  0  0  0  0  0  0
    4.1570   -0.3670    0.1590 C   0  0  0  0  0  0  0  0  0  0  0  0
    3.1990   -1.2590   -0.0100 C   0  0  0  0  0  0  0  0  0  0  0  0
    3.4640   -2.6910   -0.2780 C   0  0  0  0  0  0  0  0  0  0  0  0
    1.8040   -0.8060    0.0600 C   0  0  0  0  0  0  0  0  0  0  0  0
    0.3070   -1.7750   -0.1140 S   0  0  0  0  0  0  0  0  0  0  0  0
   -0.8200   -0.3990    0.1290 C   0  0  0  0  0  0  0  0  0  0  0  0
   -2.2870   -0.5220    0.1050 C   0  0  0  0  0  0  0  0  0  0  0  0
   -2.8120   -1.6380   -0.0930 O   0  0  0  0  0  0  0  0  0  0  0  0
   -3.1190    0.6100    0.3050 N   0  0  0  0  0  0  0  0  0  0  0  0
   -4.5070    0.6580    0.3120 C   0  0  0  0  0  0  0  0  0  0  0  0
   -5.3350   -0.3990    0.1250 C   0  0  0  0  0  0  0  0  0  0  0  0
   -6.7200   -0.2840    0.1440 C   0  0  0  0  0  0  0  0  0  0  0  0
   -7.5470   -1.4310   -0.0590 N   0  0  0  0  0  0  0  0  0  0  0  0
   -7.2740    0.9390    0.3600 C   0  0  0  0  0  0  0  0  0  0  0  0
   -6.4660    2.0280    0.5530 C   0  0  0  0  0  0  0  0  0  0  0  0
   -5.1060    1.8970    0.5300 C   0  0  0  0  0  0  0  0  0  0  0  0
   -4.3290    3.0320    0.7320 O   0  0  0  0  0  0  0  0  0  0  0  0
    0.0120    0.6500    0.3160 C   0  0  0  0  0  0  0  0  0  0  0  0
    1.3500    0.4260    0.2780 C   0  0  0  0  0  0  0  0  0  0  0  0
    2.3850    1.5130    0.4640 C   0  0  0  0  0  0  0  0  0  0  0  0
    3.7210    0.9840    0.4210 C   0  0  0  0  0  0  0  0  0  0  0  0
    4.6620    1.8310    0.6470 O   0  0  0  0  0  0  0  0  0  0  0  0
  1  2  1  0
  2  3  1  0
  3  4  1  0
  4  5  2  0
  4 24  1  0
  5  6  1  0
  5  7  1  0
  7  8  1  0
  7 22  2  0
  8  9  1  0
  9 10  1  0
  9 21  2  0
 10 11  2  0
 10 12  1  0
 12 13  1  0
 13 14  2  0
 13 19  1  0
 14 15  1  0
 15 16  1  0
 15 17  2  0
 17 18  1  0
 18 19  2  0
 19 20  1  0
 21 22  1  0
 22 23  1  0
 23 24  1  0
 24 25  2  0
M  END
