
     RDKit          3D

 20 22  0  0  0  0  0  0  0  0999 V2000
    0.3730    3.5230   -0.3180 O   0  0  0  0  0  0  0  0  0  0  0  0
    0.8470    2.6230   -1.2620 C   0  0  0  0  0  0  0  0  0  0  0  0
    0.9460    1.2180   -0.6590 C   0  0  2  0  0  0  0  0  0  0  0  0
   -0.3650    0.8440   -0.2390 N   0  0  0  0  0  0  0  0  0  0  0  0
   -1.0750    0.1060   -1.2490 C   0  0  2  0  0  0  0  0  0  0  0  0
   -1.8880    0.9650   -2.1840 C   0  0  0  0  0  0  0  0  0  0  0  0
   -3.1260    0.3770   -2.3680 O   0  0  0  0  0  0  0  0  0  0  0  0
   -3.0560   -0.9190   -1.8730 C   0  0  0  0  0  0  0  0  0  0  0  0
   -2.1320   -0.7820   -0.6820 C   0  0  1  0  0  0  0  0  0  0  0  0
   -1.7310   -2.0300    0.0040 C   0  0  0  0  0  0  0  0  0  0  0  0
   -2.8920   -1.8040    0.9840 C   0  0  0  0  0  0  0  0  0  0  0  0
   -2.8070   -0.3240    0.5830 C   0  0  0  0  0  0  0  0  0  0  0  0
    1.9780    1.2940    0.4140 C   0  0  1  0  0  0  0  0  0  0  0  0
    1.6650    2.1970    1.4370 O   0  0  0  0  0  0  0  0  0  0  0  0
    2.4200    0.0110    0.9830 C   0  0  0  0  0  0  0  0  0  0  0  0
    2.0090   -1.1440    0.5170 C   0  0  0  0  0  0  0  0  0  0  0  0
    2.4750   -2.4080    1.1190 C   0  0  0  0  0  0  0  0  0  0  0  0
    3.4020   -2.2790    2.1500 O   0  0  0  0  0  0  0  0  0  0  0  0
    3.8220   -1.0580    2.6270 C   0  0  0  0  0  0  0  0  0  0  0  0
    3.3800    0.0650    2.1020 C   0  0  0  0  0  0  0  0  0  0  0  0
  1  2  1  0
  3  2  1  1
  3  4  1  0
  3 13  1  0
  5  4  1  1
  5  6  1  0
  5  9  1  0
  6  7  1  0
  7  8  1  0
  9  8  1  6
  9 10  1  0
  9 12  1  0
 10 11  1  0
 11 12  1  0
 13 14  1  1
 13 15  1  0
 15 16  2  0
 15 20  1  0
 16 17  1  0
 17 18  1  0
 18 19  1  0
 19 20  2  0
M  CHG  1   4   1
M  END
