
     RDKit          3D

 19 21  0  0  0  0  0  0  0  0999 V2000
   -1.3090   -1.1530   -1.3540 O   0  0  0  0  0  0  0  0  0  0  0  0
   -0.4950   -1.6710   -0.3440 C   0  0  2  0  0  0  0  0  0  0  0  0
   -1.2110   -2.8590    0.3270 C   0  0  0  0  0  0  0  0  0  0  0  0
   -2.0770   -2.3700    1.3520 N   0  0  0  0  0  0  0  0  0  0  0  0
   -2.6100   -1.0330    1.0770 C   0  0  0  0  0  0  0  0  0  0  0  0
   -1.4890   -0.0160    1.2460 C   0  0  2  0  0  0  0  0  0  0  0  0
   -1.8560    1.2090    0.4550 C   0  0  0  0  0  0  0  0  0  0  0  0
   -3.1540    1.8180    0.9320 C   0  0  1  0  0  0  0  0  0  0  0  0
   -3.6130    3.0610    0.1980 C   0  0  0  0  0  0  0  0  0  0  0  0
   -4.3830    1.7780    0.1500 C   0  0  0  0  0  0  0  0  0  0  0  0
   -0.2360   -0.6870    0.7590 C   0  0  2  0  0  0  0  0  0  0  0  0
    0.8970    0.2180    0.4820 C   0  0  2  0  0  0  0  0  0  0  0  0
    0.7720    0.9950   -0.6670 O   0  0  0  0  0  0  0  0  0  0  0  0
    2.1860   -0.5580    0.3990 C   0  0  0  0  0  0  0  0  0  0  0  0
    3.3820    0.3340    0.1250 C   0  0  2  0  0  0  0  0  0  0  0  0
    3.2860    1.0830   -1.1660 C   0  0  0  0  0  0  0  0  0  0  0  0
    4.7200    0.9260   -1.7110 C   0  0  0  0  0  0  0  0  0  0  0  0
    5.0230   -0.4700   -1.1780 C   0  0  0  0  0  0  0  0  0  0  0  0
    4.5340   -0.4190    0.1050 O   0  0  0  0  0  0  0  0  0  0  0  0
  2  1  1  6
  2  3  1  0
  2 11  1  0
  3  4  1  0
  4  5  1  0
  5  6  1  0
  6  7  1  6
  6 11  1  0
  8  7  1  6
  8  9  1  0
  8 10  1  0
  9 10  1  0
 11 12  1  6
 12 13  1  6
 12 14  1  0
 15 14  1  6
 15 16  1  0
 15 19  1  0
 16 17  1  0
 17 18  1  0
 18 19  1  0
M  CHG  1   4   1
M  END
