
     RDKit          3D

 20 21  0  0  0  0  0  0  0  0999 V2000
    4.8620    0.5360   -0.1140 C   0  0  0  0  0  0  0  0  0  0  0  0
    3.9430    1.2580   -0.6390 C   0  0  0  0  0  0  0  0  0  0  0  0
    2.5370    1.2090   -0.7690 C   0  0  0  0  0  0  0  0  0  0  0  0
    2.0340    2.3060   -1.4520 C   0  0  0  0  0  0  0  0  0  0  0  0
    1.5900    0.2360   -0.3600 C   0  0  0  0  0  0  0  0  0  0  0  0
    1.9970   -0.8330    0.2130 N   0  0  0  0  0  0  0  0  0  0  0  0
    1.2260   -1.9280    0.6990 C   0  0  0  0  0  0  0  0  0  0  0  0
    1.6450   -2.4420    1.8680 C   0  0  0  0  0  0  0  0  0  0  0  0
    0.0640   -2.6310    0.1650 C   0  0  0  0  0  0  0  0  0  0  0  0
   -0.7790   -1.6680   -0.6230 C   0  0  1  0  0  0  0  0  0  0  0  0
   -2.0150   -2.2520   -0.8290 O   0  0  0  0  0  0  0  0  0  0  0  0
   -0.8310   -0.3090    0.0310 C   0  0  2  0  0  0  0  0  0  0  0  0
   -0.5440   -0.3200    1.3830 O   0  0  0  0  0  0  0  0  0  0  0  0
   -2.1930    0.2680   -0.1530 C   0  0  2  0  0  0  0  0  0  0  0  0
   -2.5510    0.2770   -1.4990 O   0  0  0  0  0  0  0  0  0  0  0  0
   -2.2590    1.7240    0.2960 C   0  0  0  0  0  0  0  0  0  0  0  0
   -3.7270    1.8750    0.6080 C   0  0  0  0  0  0  0  0  0  0  0  0
   -4.2970    0.6320    0.5740 O   0  0  0  0  0  0  0  0  0  0  0  0
   -3.2750   -0.3260    0.6850 C   0  0  0  0  0  0  0  0  0  0  0  0
    0.1640    0.6190   -0.6470 C   0  0  0  0  0  0  0  0  0  0  0  0
  1  2  2  0
  2  3  1  0
  3  4  2  0
  3  5  1  0
  5  6  2  0
  5 20  1  0
  6  7  1  0
  7  8  2  0
  7  9  1  0
  9 10  1  0
 10 11  1  1
 10 12  1  0
 12 13  1  1
 12 14  1  0
 12 20  1  0
 14 15  1  6
 14 16  1  0
 14 19  1  0
 16 17  1  0
 17 18  1  0
 18 19  1  0
M  CHG  1   6   1
M  END
