
     RDKit          3D

 20 21  0  0  0  0  0  0  0  0999 V2000
   -3.7720    1.0670    1.7980 C   0  0  0  0  0  0  0  0  0  0  0  0
   -3.6930    0.9140    0.3030 C   0  0  2  0  0  0  0  0  0  0  0  0
   -3.4290    2.0890   -0.3640 O   0  0  0  0  0  0  0  0  0  0  0  0
   -4.9730    0.3280   -0.2570 C   0  0  0  0  0  0  0  0  0  0  0  0
   -4.4520   -0.5070   -1.4050 C   0  0  0  0  0  0  0  0  0  0  0  0
   -3.0850   -0.4080   -1.4140 O   0  0  0  0  0  0  0  0  0  0  0  0
   -2.7020   -0.1930   -0.0930 C   0  0  1  0  0  0  0  0  0  0  0  0
   -1.2910    0.2540    0.0440 C   0  0  0  0  0  0  0  0  0  0  0  0
   -0.3590   -0.8240   -0.3470 C   0  0  2  0  0  0  0  0  0  0  0  0
   -0.5430   -2.0410    0.5240 C   0  0  0  0  0  0  0  0  0  0  0  0
    0.3660   -3.0630    0.1370 O   0  0  0  0  0  0  0  0  0  0  0  0
    1.0970   -0.4390   -0.3170 C   0  0  2  0  0  0  0  0  0  0  0  0
    1.4820   -0.0160    1.0590 C   0  0  0  0  0  0  0  0  0  0  0  0
    2.7820   -0.7390    1.4360 C   0  0  0  0  0  0  0  0  0  0  0  0
    3.9310    0.2010    1.3680 C   0  0  0  0  0  0  0  0  0  0  0  0
    4.6610    0.2530    0.0810 C   0  0  2  0  0  0  0  0  0  0  0  0
    5.2850    1.5170   -0.0070 O   0  0  0  0  0  0  0  0  0  0  0  0
    3.8250    0.0960   -1.1490 C   0  0  0  0  0  0  0  0  0  0  0  0
    2.7070    1.0670   -1.2780 C   0  0  0  0  0  0  0  0  0  0  0  0
    1.4000    0.5110   -1.3380 N   0  0  0  0  0  0  0  0  0  0  0  0
  2  1  1  1
  2  3  1  0
  2  4  1  0
  2  7  1  0
  4  5  1  0
  5  6  1  0
  6  7  1  0
  7  8  1  6
  9  8  1  1
  9 10  1  0
  9 12  1  0
 10 11  1  0
 12 13  1  1
 12 20  1  0
 13 14  1  0
 14 15  1  0
 15 16  1  0
 16 17  1  6
 16 18  1  0
 18 19  1  0
 19 20  1  0
M  CHG  1  20   1
M  END
