
     RDKit          3D

 20 21  0  0  0  0  0  0  0  0999 V2000
    3.6360   -2.2070   -0.4070 C   0  0  0  0  0  0  0  0  0  0  0  0
    2.8170   -1.5130    0.3390 C   0  0  0  0  0  0  0  0  0  0  0  0
    2.0740   -2.0710    1.4090 O   0  0  0  0  0  0  0  0  0  0  0  0
    1.1710   -1.1150    1.8250 C   0  0  0  0  0  0  0  0  0  0  0  0
    0.9850   -0.1890    0.6710 C   0  0  2  0  0  0  0  0  0  0  0  0
    0.3450   -0.7120   -0.4690 N   0  0  0  0  0  0  0  0  0  0  0  0
   -1.0530   -0.4520   -0.6130 C   0  0  1  0  0  0  0  0  0  0  0  0
   -1.8500   -0.6360    0.6490 C   0  0  0  0  0  0  0  0  0  0  0  0
   -3.3260   -0.4960    0.2500 C   0  0  2  0  0  0  0  0  0  0  0  0
   -4.2470   -0.7680    1.3920 C   0  0  0  0  0  0  0  0  0  0  0  0
   -3.5270   -1.4490   -0.7710 O   0  0  0  0  0  0  0  0  0  0  0  0
   -3.4820    0.8560   -0.3660 C   0  0  0  0  0  0  0  0  0  0  0  0
   -2.7430    0.8990   -1.5330 O   0  0  0  0  0  0  0  0  0  0  0  0
   -1.3780    0.8220   -1.3310 C   0  0  1  0  0  0  0  0  0  0  0  0
   -0.9240    2.0610   -0.6410 C   0  0  0  0  0  0  0  0  0  0  0  0
   -0.7160    0.7790   -2.6980 C   0  0  0  0  0  0  0  0  0  0  0  0
    2.4620   -0.1040    0.2900 C   0  0  0  0  0  0  0  0  0  0  0  0
    3.1960    0.9140    0.0430 C   0  0  0  0  0  0  0  0  0  0  0  0
    4.6260    0.9430   -0.2590 C   0  0  0  0  0  0  0  0  0  0  0  0
    5.2890    1.7310    0.7200 O   0  0  0  0  0  0  0  0  0  0  0  0
  1  2  2  0
  2  3  1  0
  2 17  1  0
  3  4  1  0
  4  5  1  0
  5  6  1  6
  5 17  1  0
  7  6  1  1
  7  8  1  0
  7 14  1  0
  8  9  1  0
  9 10  1  1
  9 11  1  0
  9 12  1  0
 12 13  1  0
 13 14  1  0
 14 15  1  1
 14 16  1  0
 17 18  2  3
 18 19  1  0
 19 20  1  0
M  CHG  1   6   1
M  END
