
     RDKit          3D

 20 21  0  0  0  0  0  0  0  0999 V2000
   -5.5220   -0.4300   -0.4440 C   0  0  0  0  0  0  0  0  0  0  0  0
   -4.1280    0.1710   -0.5580 C   0  0  2  0  0  0  0  0  0  0  0  0
   -4.2770    1.6550   -0.2970 C   0  0  0  0  0  0  0  0  0  0  0  0
   -3.6330   -0.0060   -1.8440 O   0  0  0  0  0  0  0  0  0  0  0  0
   -3.2490   -0.4840    0.4710 C   0  0  1  0  0  0  0  0  0  0  0  0
   -3.1720   -1.8310    0.2200 O   0  0  0  0  0  0  0  0  0  0  0  0
   -1.9040    0.1710    0.5530 C   0  0  1  0  0  0  0  0  0  0  0  0
   -1.0490   -0.5270    1.6120 C   0  0  0  0  0  0  0  0  0  0  0  0
    0.3340   -0.0220    1.1670 C   0  0  0  0  0  0  0  0  0  0  0  0
    0.2890   -0.4710   -0.2870 C   0  0  2  0  0  0  0  0  0  0  0  0
    1.3170    0.1330   -1.0090 O   0  0  0  0  0  0  0  0  0  0  0  0
    2.6300   -0.0850   -0.6350 C   0  0  0  0  0  0  0  0  0  0  0  0
    2.9520   -1.3650   -0.5310 C   0  0  0  0  0  0  0  0  0  0  0  0
    4.2740   -1.8820   -0.1510 C   0  0  0  0  0  0  0  0  0  0  0  0
    5.4250   -1.2540    0.0010 C   0  0  0  0  0  0  0  0  0  0  0  0
    5.6400    0.1390   -0.1830 N   0  0  0  0  0  0  0  0  0  0  0  0
    4.6160    0.9520    0.4370 C   0  0  0  0  0  0  0  0  0  0  0  0
    3.4180    1.1520   -0.4250 C   0  0  2  0  0  0  0  0  0  0  0  0
    2.5850    2.0910    0.1730 O   0  0  0  0  0  0  0  0  0  0  0  0
   -1.0850    0.0190   -0.7110 C   0  0  0  0  0  0  0  0  0  0  0  0
  2  1  1  6
  2  3  1  0
  2  4  1  0
  2  5  1  0
  5  6  1  6
  5  7  1  0
  7  8  1  1
  7 20  1  0
  8  9  1  0
  9 10  1  0
 10 11  1  6
 10 20  1  0
 11 12  1  0
 12 13  2  0
 12 18  1  0
 13 14  1  0
 14 15  2  0
 15 16  1  0
 16 17  1  0
 17 18  1  0
 18 19  1  1
M  CHG  1  16   1
M  END
