
     RDKit          3D

 20 22  0  0  0  0  0  0  0  0999 V2000
   -5.2300    1.9150    1.6340 O   0  0  0  0  0  0  0  0  0  0  0  0
   -5.2880    1.5350    0.2950 C   0  0  0  0  0  0  0  0  0  0  0  0
   -5.0500    0.0500    0.1620 C   0  0  2  0  0  0  0  0  0  0  0  0
   -3.7090   -0.3630    0.7590 C   0  0  0  0  0  0  0  0  0  0  0  0
   -3.2920   -1.4180   -0.2420 C   0  0  2  0  0  0  0  0  0  0  0  0
   -1.8620   -1.7590   -0.2500 C   0  0  0  0  0  0  0  0  0  0  0  0
   -0.9320   -0.6190   -0.5600 C   0  0  0  0  0  0  0  0  0  0  0  0
    0.4450   -1.0600   -0.5450 N   0  0  0  0  0  0  0  0  0  0  0  0
    1.2890   -0.2730    0.3020 C   0  0  2  0  0  0  0  0  0  0  0  0
    1.3030    1.1840   -0.0110 C   0  0  0  0  0  0  0  0  0  0  0  0
    2.2110    1.5760   -1.1260 C   0  0  0  0  0  0  0  0  0  0  0  0
    3.3620    0.8600   -1.2300 O   0  0  0  0  0  0  0  0  0  0  0  0
    3.7180    0.1370   -0.1210 C   0  0  1  0  0  0  0  0  0  0  0  0
    4.9850   -0.6420   -0.4980 C   0  0  0  0  0  0  0  0  0  0  0  0
    6.0400    0.3550   -0.0460 C   0  0  0  0  0  0  0  0  0  0  0  0
    5.5460    0.7160    1.2070 O   0  0  0  0  0  0  0  0  0  0  0  0
    4.2120    0.9750    1.0220 C   0  0  0  0  0  0  0  0  0  0  0  0
    2.6630   -0.8520    0.2930 C   0  0  0  0  0  0  0  0  0  0  0  0
   -3.8110   -0.7950   -1.5100 C   0  0  0  0  0  0  0  0  0  0  0  0
   -5.0920   -0.3990   -1.1250 O   0  0  0  0  0  0  0  0  0  0  0  0
  1  2  1  0
  3  2  1  6
  3  4  1  0
  3 20  1  0
  4  5  1  0
  5  6  1  6
  5 19  1  0
  6  7  1  0
  7  8  1  0
  9  8  1  6
  9 10  1  0
  9 18  1  0
 10 11  1  0
 11 12  1  0
 12 13  1  0
 13 14  1  6
 13 17  1  0
 13 18  1  0
 14 15  1  0
 15 16  1  0
 16 17  1  0
 19 20  1  0
M  CHG  1   8   1
M  END
