
     RDKit          3D

 19 21  0  0  0  0  0  0  0  0999 V2000
    5.8360    0.8580    0.2140 C   0  0  0  0  0  0  0  0  0  0  0  0
    4.3410    1.0050    0.2440 C   0  0  0  0  0  0  0  0  0  0  0  0
    3.6790   -0.0090   -0.4470 O   0  0  0  0  0  0  0  0  0  0  0  0
    2.2680   -0.0260   -0.5180 C   0  0  0  0  0  0  0  0  0  0  0  0
    1.6390    1.0090   -0.0170 C   0  0  0  0  0  0  0  0  0  0  0  0
    0.1870    1.0290   -0.0680 C   0  0  0  0  0  0  0  0  0  0  0  0
   -0.5510    0.0760   -0.5800 C   0  0  0  0  0  0  0  0  0  0  0  0
   -2.0200    0.2350   -0.5650 C   0  0  1  0  0  0  0  0  0  0  0  0
   -2.6950   -0.9340    0.1110 C   0  0  0  0  0  0  0  0  0  0  0  0
   -3.8910   -0.6580    0.6900 O   0  0  0  0  0  0  0  0  0  0  0  0
   -4.6970    0.2350    0.0150 C   0  0  0  0  0  0  0  0  0  0  0  0
   -4.0260    1.5350   -0.3050 C   0  0  0  0  0  0  0  0  0  0  0  0
   -2.5230    1.4950    0.0450 C   0  0  1  0  0  0  0  0  0  0  0  0
   -2.4600    1.5310    1.4740 N   0  0  0  0  0  0  0  0  0  0  0  0
    0.0930   -1.1360   -1.1330 C   0  0  2  0  0  0  0  0  0  0  0  0
   -0.2790   -2.2730   -0.4140 O   0  0  0  0  0  0  0  0  0  0  0  0
    0.6750   -3.2240   -0.6200 C   0  0  0  0  0  0  0  0  0  0  0  0
    1.9470   -2.4060   -0.3310 C   0  0  0  0  0  0  0  0  0  0  0  0
    1.5550   -1.1390   -1.1220 C   0  0  2  0  0  0  0  0  0  0  0  0
  1  2  1  0
  2  3  1  0
  3  4  1  0
  4  5  2  0
  4 19  1  0
  5  6  1  0
  6  7  2  0
  8  7  1  1
  7 15  1  0
  8  9  1  0
  8 13  1  0
  9 10  1  0
 10 11  1  0
 11 12  1  0
 12 13  1  0
 13 14  1  1
 15 16  1  1
 15 19  1  0
 16 17  1  0
 17 18  1  0
 19 18  1  1
M  CHG  1  14   1
M  END
