
     RDKit          3D

 21 23  0  0  0  0  0  0  0  0999 V2000
   -5.1850   -0.0360    1.6070 O   0  0  0  0  0  0  0  0  0  0  0  0
   -4.1070   -0.4170    1.0700 C   0  0  0  0  0  0  0  0  0  0  0  0
   -3.7070   -1.6870    1.2670 N   0  0  0  0  0  0  0  0  0  0  0  0
   -2.5660   -2.1240    0.7110 C   0  0  0  0  0  0  0  0  0  0  0  0
   -1.8110   -1.2520   -0.0660 C   0  0  0  0  0  0  0  0  0  0  0  0
   -2.1770    0.0550   -0.2970 C   0  0  0  0  0  0  0  0  0  0  0  0
   -1.4240    0.8860   -1.0690 C   0  0  0  0  0  0  0  0  0  0  0  0
    0.0900    0.4170   -1.7830 S   0  0  2  0  0  0  0  0  0  0  0  0
    0.5500    1.5810   -2.6600 O   0  0  0  0  0  0  0  0  0  0  0  0
   -0.1200   -0.7070   -2.7890 O   0  0  0  0  0  0  0  0  0  0  0  0
    1.3430    0.0760   -0.7050 N   0  0  0  0  0  0  0  0  0  0  0  0
    1.8400   -1.2280   -0.8020 C   0  0  0  0  0  0  0  0  0  0  0  0
    2.1110   -1.8920    0.5310 C   0  0  0  0  0  0  0  0  0  0  0  0
    2.7390   -0.9290    1.5130 C   0  0  0  0  0  0  0  0  0  0  0  0
    3.6730   -0.0170    0.8750 N   0  0  0  0  0  0  0  0  0  0  0  0
    2.9710    1.2310    0.6630 C   0  0  0  0  0  0  0  0  0  0  0  0
    2.2920    1.1450   -0.6890 C   0  0  0  0  0  0  0  0  0  0  0  0
   -1.9100    2.1990   -1.2430 C   0  0  0  0  0  0  0  0  0  0  0  0
   -3.0780    2.6210   -0.6660 C   0  0  0  0  0  0  0  0  0  0  0  0
   -3.8150    1.7610    0.1080 C   0  0  0  0  0  0  0  0  0  0  0  0
   -3.3780    0.4680    0.3060 C   0  0  0  0  0  0  0  0  0  0  0  0
  1  2  2  0
  2  3  1  0
  2 21  1  0
  3  4  1  0
  4  5  2  0
  5  6  1  0
  6  7  2  0
  6 21  1  0
  7  8  1  0
  7 18  1  0
  8  9  2  0
  8 10  2  0
  8 11  1  1
 11 12  1  0
 11 17  1  0
 12 13  1  0
 13 14  1  0
 14 15  1  0
 15 16  1  0
 16 17  1  0
 18 19  2  0
 19 20  1  0
 20 21  2  0
M  CHG  1  15   1
M  END
