
     RDKit          3D

 16 15  0  0  0  0  0  0  0  0999 V2000
    5.1000    0.0210    0.9130 C   0  0  0  0  0  0  0  0  0  0  0  0
    3.8390   -0.4330    0.5570 O   0  0  0  0  0  0  0  0  0  0  0  0
    3.4160    0.2740   -0.5570 C   0  0  0  0  0  0  0  0  0  0  0  0
    2.0480   -0.1490   -1.0200 C   0  0  0  0  0  0  0  0  0  0  0  0
    0.7930    0.1010    0.2600 S   0  0  0  0  0  0  0  0  0  0  0  0
   -0.8170   -0.4370   -0.4010 C   0  0  2  0  0  0  0  0  0  0  0  0
   -0.8140   -1.9280   -0.6360 C   0  0  0  0  0  0  0  0  0  0  0  0
   -0.9990    0.2170   -1.7270 C   0  0  0  0  0  0  0  0  0  0  0  0
   -1.1510   -0.4430   -2.7730 O   0  0  0  0  0  0  0  0  0  0  0  0
   -1.0060    1.6090   -1.8500 O   0  0  0  0  0  0  0  0  0  0  0  0
   -1.1750    2.1650   -3.0750 O   0  0  0  0  0  0  0  0  0  0  0  0
   -1.9490    0.0090    0.4710 C   0  0  2  0  0  0  0  0  0  0  0  0
   -3.1810   -0.4560   -0.1210 N   0  0  0  0  0  0  0  0  0  0  0  0
   -1.9790    1.4060    0.4410 O   0  0  0  0  0  0  0  0  0  0  0  0
   -1.8530   -0.4120    1.8950 C   0  0  0  0  0  0  0  0  0  0  0  0
   -3.0480    0.1210    2.5720 N   0  0  0  0  0  0  0  0  0  0  0  0
  1  2  1  0
  2  3  1  0
  3  4  1  0
  4  5  1  0
  5  6  1  0
  6  7  1  6
  6  8  1  0
  6 12  1  0
  8  9  2  0
  8 10  1  0
 10 11  1  0
 12 13  1  6
 12 14  1  0
 12 15  1  0
 15 16  1  0
M  CHG  1  16   1
M  END
