
     RDKit          3D

 16 15  0  0  0  0  0  0  0  0999 V2000
    3.8490    1.5190    0.5930 N   0  0  0  0  0  0  0  0  0  0  0  0
    3.1220    0.7990   -0.3890 C   0  0  0  0  0  0  0  0  0  0  0  0
    3.3980    1.0110   -1.5990 O   0  0  0  0  0  0  0  0  0  0  0  0
    2.0540   -0.1940   -0.0640 C   0  0  0  0  0  0  0  0  0  0  0  0
    0.7400    0.4450   -0.4440 C   0  0  2  0  0  0  0  0  0  0  0  0
    0.6040    1.6660    0.3410 N   0  0  0  0  0  0  0  0  0  0  0  0
   -0.4580   -0.4160   -0.1300 C   0  0  2  0  0  0  0  0  0  0  0  0
   -0.5350   -1.6310   -1.0460 C   0  0  0  0  0  0  0  0  0  0  0  0
    0.4850   -2.5580   -0.8480 O   0  0  0  0  0  0  0  0  0  0  0  0
    0.6870   -3.2160    0.3530 C   0  0  0  0  0  0  0  0  0  0  0  0
   -0.1010   -2.9480    1.2970 O   0  0  0  0  0  0  0  0  0  0  0  0
    1.7190   -4.1430    0.5290 O   0  0  0  0  0  0  0  0  0  0  0  0
   -1.5780    0.3640   -0.5160 O   0  0  0  0  0  0  0  0  0  0  0  0
   -2.4670    0.5490    0.5130 C   0  0  0  0  0  0  0  0  0  0  0  0
   -3.6030    1.4010   -0.0630 C   0  0  0  0  0  0  0  0  0  0  0  0
   -4.5330    1.6190    0.9370 O   0  0  0  0  0  0  0  0  0  0  0  0
  1  2  1  0
  2  3  2  0
  2  4  1  0
  4  5  1  0
  5  6  1  1
  5  7  1  0
  7  8  1  6
  7 13  1  0
  8  9  1  0
  9 10  1  0
 10 11  2  0
 10 12  1  0
 13 14  1  0
 14 15  1  0
 15 16  1  0
M  CHG  1   6   1
M  END
