
     RDKit          3D

 16 15  0  0  0  0  0  0  0  0999 V2000
   -3.3730    2.7620    1.1890 O   0  0  0  0  0  0  0  0  0  0  0  0
   -3.6160    1.4730    1.6270 C   0  0  0  0  0  0  0  0  0  0  0  0
   -2.9900    0.4290    0.6800 C   0  0  0  0  0  0  0  0  0  0  0  0
   -1.5940    0.7050    0.6860 N   0  0  0  0  0  0  0  0  0  0  0  0
   -0.8030   -0.1920   -0.1950 C   0  0  2  0  0  0  0  0  0  0  0  0
   -0.2460    0.7190   -1.2310 C   0  0  0  0  0  0  0  0  0  0  0  0
    0.5030    0.2040   -2.2300 O   0  0  0  0  0  0  0  0  0  0  0  0
   -1.7450   -1.2200   -0.8070 C   0  0  0  0  0  0  0  0  0  0  0  0
   -1.1190   -2.1240   -1.6280 O   0  0  0  0  0  0  0  0  0  0  0  0
    0.1550   -0.8420    0.7580 C   0  0  0  0  0  0  0  0  0  0  0  0
    1.3330   -1.9950    0.2050 S   0  0  0  0  0  0  0  0  0  0  0  0
    2.8050   -1.4750   -0.6070 C   0  0  0  0  0  0  0  0  0  0  0  0
    3.7770   -0.7330    0.3070 C   0  0  1  0  0  0  0  0  0  0  0  0
    4.9100   -0.3610   -0.4260 O   0  0  0  0  0  0  0  0  0  0  0  0
    3.1880    0.4890    0.8020 N   0  0  0  0  0  0  0  0  0  0  0  0
    2.8950    1.3600   -0.1750 O   0  0  0  0  0  0  0  0  0  0  0  0
  1  2  1  0
  2  3  1  0
  3  4  1  0
  4  5  1  0
  5  6  1  6
  5  8  1  0
  5 10  1  0
  6  7  1  0
  8  9  1  0
 10 11  1  0
 11 12  1  0
 12 13  1  0
 13 14  1  6
 13 15  1  0
 15 16  1  0
M  CHG  1   4   1
M  END
