
     RDKit          3D

 16 15  0  0  0  0  0  0  0  0999 V2000
   -4.1630   -1.9450   -0.2280 N   0  0  0  0  0  0  0  0  0  0  0  0
   -3.1360   -0.9410   -0.3900 C   0  0  0  0  0  0  0  0  0  0  0  0
   -2.4920   -0.7370   -1.8250 S   0  0  0  0  0  0  0  0  0  0  0  0
   -2.7290   -0.0880    0.8590 C   0  0  2  0  0  0  0  0  0  0  0  0
   -2.5650    1.3220    0.5100 C   0  0  0  0  0  0  0  0  0  0  0  0
   -3.8090    1.9840    0.1870 N   0  0  0  0  0  0  0  0  0  0  0  0
   -1.5830   -0.6030    1.3440 O   0  0  0  0  0  0  0  0  0  0  0  0
   -0.5780   -1.1900    0.7550 C   0  0  0  0  0  0  0  0  0  0  0  0
    0.3210   -0.1250    0.0850 C   0  0  1  0  0  0  0  0  0  0  0  0
    0.6510    0.9330    0.9190 O   0  0  0  0  0  0  0  0  0  0  0  0
    1.6810   -0.7660   -0.2130 C   0  0  0  0  0  0  0  0  0  0  0  0
    2.3250   -0.8960    0.9640 O   0  0  0  0  0  0  0  0  0  0  0  0
    3.4800   -0.4090    1.2270 C   0  0  0  0  0  0  0  0  0  0  0  0
    4.5810   -0.2640    0.1660 C   0  0  0  0  0  0  0  0  0  0  0  0
    4.4570    1.0020   -0.4260 O   0  0  0  0  0  0  0  0  0  0  0  0
    5.7150    1.4350   -0.1710 O   0  0  0  0  0  0  0  0  0  0  0  0
  1  2  1  0
  2  3  2  0
  2  4  1  0
  4  5  1  6
  4  7  1  0
  5  6  1  0
  7  8  1  0
  8  9  1  0
  9 10  1  1
  9 11  1  0
 11 12  1  0
 12 13  1  0
 13 14  1  0
 14 15  1  0
 15 16  1  0
M  CHG  1   6   1
M  END
