
     RDKit          3D

 16 16  0  0  0  0  0  0  0  0999 V2000
   -1.9390   -1.1220    0.1170 C   0  0  0  0  0  0  0  0  0  0  0  0
   -0.9020   -0.2760   -0.5700 C   0  0  2  0  0  0  0  0  0  0  0  0
   -1.3450    0.7350   -1.3390 O   0  0  0  0  0  0  0  0  0  0  0  0
   -2.0700    1.7530   -0.8690 C   0  0  0  0  0  0  0  0  0  0  0  0
   -3.3830    1.5010   -0.2240 C   0  0  0  0  0  0  0  0  0  0  0  0
   -3.8780    2.7810    0.1480 O   0  0  0  0  0  0  0  0  0  0  0  0
   -0.0260   -1.1990   -1.4080 C   0  0  0  0  0  0  0  0  0  0  0  0
    0.7380   -1.4600   -0.0920 C   0  0  1  0  0  0  0  0  0  0  0  0
    2.1580   -1.6380   -0.3110 N   0  0  0  0  0  0  0  0  0  0  0  0
    0.3660   -0.0320    0.2380 C   0  0  1  0  0  0  0  0  0  0  0  0
    1.2180    0.8220   -0.4180 O   0  0  0  0  0  0  0  0  0  0  0  0
    0.1610    0.1830    1.6890 C   0  0  0  0  0  0  0  0  0  0  0  0
    1.7390    0.4740    2.5090 S   0  0  0  0  0  0  0  0  0  0  0  0
    2.7640   -0.8670    2.5590 O   0  0  0  0  0  0  0  0  0  0  0  0
    4.0750   -0.5430    2.5390 N   0  0  0  0  0  0  0  0  0  0  0  0
    4.2730    0.7800    2.7410 O   0  0  0  0  0  0  0  0  0  0  0  0
  2  1  1  1
  2  3  1  0
  2  7  1  0
  2 10  1  0
  3  4  1  0
  4  5  1  0
  5  6  1  0
  7  8  1  0
  8  9  1  6
  8 10  1  0
 10 11  1  6
 10 12  1  0
 12 13  1  0
 13 14  1  0
 14 15  1  0
 15 16  1  0
M  CHG  1   9   1
M  END
