
     RDKit          3D

 27 30  0  0  0  0  0  0  0  0999 V2000
    1.7980   -1.6120   -1.6110 O   0  0  0  0  0  0  0  0  0  0  0  0
    2.1850   -0.7730   -0.7470 C   0  0  0  0  0  0  0  0  0  0  0  0
    1.1900   -0.1210   -0.0040 N   0  0  0  0  0  0  0  0  0  0  0  0
   -0.2360   -0.3320   -0.1190 C   0  0  0  0  0  0  0  0  0  0  0  0
   -0.7160   -1.5180   -0.6380 C   0  0  0  0  0  0  0  0  0  0  0  0
   -2.0890   -1.8340   -0.6730 C   0  0  0  0  0  0  0  0  0  0  0  0
   -2.9430   -0.9080   -0.1650 C   0  0  0  0  0  0  0  0  0  0  0  0
   -4.3940   -1.1650   -0.1670 C   0  0  0  0  0  0  0  0  0  0  0  0
   -5.2430   -0.1940    0.3620 C   0  0  0  0  0  0  0  0  0  0  0  0
   -6.6120   -0.3370    0.4070 C   0  0  0  0  0  0  0  0  0  0  0  0
   -7.1280   -1.5170   -0.1110 C   0  0  0  0  0  0  0  0  0  0  0  0
   -6.3350   -2.4600   -0.6230 N   0  0  0  0  0  0  0  0  0  0  0  0
   -4.9770   -2.2950   -0.6560 C   0  0  0  0  0  0  0  0  0  0  0  0
   -2.4960    0.2510    0.3430 N   0  0  0  0  0  0  0  0  0  0  0  0
   -1.1550    0.5520    0.3720 C   0  0  0  0  0  0  0  0  0  0  0  0
   -0.8340    1.8580    0.8460 C   0  0  0  0  0  0  0  0  0  0  0  0
   -1.5760    2.7880    1.5040 C   0  0  0  0  0  0  0  0  0  0  0  0
   -1.0520    3.9540    1.8530 C   0  0  0  0  0  0  0  0  0  0  0  0
    0.2570    4.1930    1.5310 C   0  0  0  0  0  0  0  0  0  0  0  0
    0.7780    2.7270    0.7060 S   0  0  0  0  0  0  0  0  0  0  0  0
    3.6260   -0.6070   -0.6510 C   0  0  0  0  0  0  0  0  0  0  0  0
    4.2230    0.1910    0.1650 C   0  0  0  0  0  0  0  0  0  0  0  0
    3.5060    0.9820    1.0480 F   0  0  0  0  0  0  0  0  0  0  0  0
    5.6820    0.3500    0.2500 C   0  0  0  0  0  0  0  0  0  0  0  0
    6.5300   -0.4440   -0.6360 C   0  0  0  0  0  0  0  0  0  0  0  0
    5.8060   -1.3300   -1.5390 C   0  0  0  0  0  0  0  0  0  0  0  0
    4.4920   -1.4050   -1.5470 C   0  0  0  0  0  0  0  0  0  0  0  0
  1  2  2  0
  2  3  1  0
  2 21  1  0
  3  4  1  0
  4  5  2  0
  4 15  1  0
  5  6  1  0
  6  7  2  0
  7  8  1  0
  7 14  1  0
  8  9  2  0
  8 13  1  0
  9 10  1  0
 10 11  2  0
 11 12  1  0
 12 13  2  0
 14 15  2  0
 15 16  1  0
 16 17  2  0
 16 20  1  0
 17 18  1  0
 18 19  2  0
 19 20  1  0
 21 22  2  0
 21 27  1  0
 22 23  1  0
 22 24  1  0
 24 25  1  0
 25 26  1  0
 26 27  2  0
M  END
