
     RDKit          3D

 27 30  0  0  0  0  0  0  0  0999 V2000
    5.1310   -3.0430   -0.9350 N   0  0  0  0  0  0  0  0  0  0  0  0
    4.3210   -2.3240   -0.6070 C   0  0  0  0  0  0  0  0  0  0  0  0
    3.2900   -1.3850   -0.1670 C   0  0  0  0  0  0  0  0  0  0  0  0
    1.9850   -1.8270   -0.1040 C   0  0  0  0  0  0  0  0  0  0  0  0
    1.0050   -0.9540    0.3090 C   0  0  0  0  0  0  0  0  0  0  0  0
    1.3860    0.3450    0.6450 C   0  0  0  0  0  0  0  0  0  0  0  0
    0.4180    1.2050    1.0910 C   0  0  0  0  0  0  0  0  0  0  0  0
   -1.0100    0.8440    1.1460 C   0  0  0  0  0  0  0  0  0  0  0  0
   -1.5730    0.9150    2.3120 O   0  0  0  0  0  0  0  0  0  0  0  0
   -1.7230    0.4660    0.0440 N   0  0  0  0  0  0  0  0  0  0  0  0
   -3.1560    0.0700   -0.0690 C   0  0  1  0  0  0  0  0  0  0  0  0
   -3.3970    0.0220   -1.5660 C   0  0  0  0  0  0  0  0  0  0  0  0
   -3.5680   -1.2660   -2.1910 C   0  0  0  0  0  0  0  0  0  0  0  0
   -3.6690   -2.4000   -1.5320 C   0  0  0  0  0  0  0  0  0  0  0  0
   -3.5820   -2.3910   -0.0870 C   0  0  0  0  0  0  0  0  0  0  0  0
   -3.3690   -1.2730    0.5420 C   0  0  0  0  0  0  0  0  0  0  0  0
   -3.4480   -0.8140    2.3050 S   0  0  0  0  0  0  0  0  0  0  0  0
   -4.3310    0.7790    1.9990 C   0  0  0  0  0  0  0  0  0  0  0  0
   -4.0160    1.0600    0.5720 C   0  0  0  0  0  0  0  0  0  0  0  0
    0.8070    2.5020    1.4620 C   0  0  0  0  0  0  0  0  0  0  0  0
    2.0670    2.9000    1.3880 N   0  0  0  0  0  0  0  0  0  0  0  0
    3.0310    2.0550    0.9460 C   0  0  0  0  0  0  0  0  0  0  0  0
    2.7160    0.7690    0.5700 C   0  0  0  0  0  0  0  0  0  0  0  0
    3.7030   -0.1230    0.1510 C   0  0  0  0  0  0  0  0  0  0  0  0
    5.1180    0.2820    0.0470 C   0  0  0  0  0  0  0  0  0  0  0  0
    5.4250    0.5690   -1.4160 C   0  0  0  0  0  0  0  0  0  0  0  0
    6.7560    0.9410   -1.5320 F   0  0  0  0  0  0  0  0  0  0  0  0
  1  2  3  0
  2  3  1  0
  3  4  2  0
  3 24  1  0
  4  5  1  0
  5  6  2  0
  6  7  1  0
  6 23  1  0
  7  8  1  0
  7 20  2  0
  8  9  2  0
  8 10  1  0
 11 10  1  6
 11 12  1  0
 11 16  1  0
 11 19  1  0
 12 13  1  0
 13 14  2  0
 14 15  1  0
 15 16  2  0
 16 17  1  0
 17 18  1  0
 18 19  1  0
 20 21  1  0
 21 22  2  0
 22 23  1  0
 23 24  2  0
 24 25  1  0
 25 26  1  0
 26 27  1  0
M  END
