
     RDKit          3D

 27 30  0  0  0  0  0  0  0  0999 V2000
    2.5880    3.4210    0.0990 C   0  0  0  0  0  0  0  0  0  0  0  0
    3.0010    2.2550   -0.7690 C   0  0  0  0  0  0  0  0  0  0  0  0
    1.8140    1.5060   -1.2540 C   0  0  0  0  0  0  0  0  0  0  0  0
    1.3490    1.6300   -2.5530 C   0  0  0  0  0  0  0  0  0  0  0  0
    0.2470    0.9410   -3.0210 C   0  0  0  0  0  0  0  0  0  0  0  0
   -0.2510    1.0750   -4.4200 C   0  0  0  0  0  0  0  0  0  0  0  0
   -0.3650    0.1260   -2.1350 N   0  0  0  0  0  0  0  0  0  0  0  0
    0.0520   -0.0240   -0.8660 C   0  0  0  0  0  0  0  0  0  0  0  0
   -0.6390   -0.9330    0.1040 C   0  0  0  0  0  0  0  0  0  0  0  0
   -1.8060   -1.5870   -0.5230 C   0  0  0  0  0  0  0  0  0  0  0  0
   -3.0430   -1.4890   -0.1430 C   0  0  0  0  0  0  0  0  0  0  0  0
   -4.2250   -2.1330   -0.7520 C   0  0  0  0  0  0  0  0  0  0  0  0
   -5.4660   -1.4200   -0.1880 C   0  0  0  0  0  0  0  0  0  0  0  0
   -4.9100    0.0570    0.3260 S   0  0  0  0  0  0  0  0  0  0  0  0
   -5.2310    0.6200    1.8670 O   0  0  0  0  0  0  0  0  0  0  0  0
   -5.9760    0.8250   -0.1040 F   0  0  0  0  0  0  0  0  0  0  0  0
   -3.5890   -0.6900    1.0140 C   0  0  0  0  0  0  0  0  0  0  0  0
    1.1530    0.6600   -0.3870 C   0  0  0  0  0  0  0  0  0  0  0  0
    1.6020    0.4930    1.0040 C   0  0  0  0  0  0  0  0  0  0  0  0
    1.2180    1.1890    2.0650 N   0  0  0  0  0  0  0  0  0  0  0  0
    1.8420    0.7460    3.1360 N   0  0  0  0  0  0  0  0  0  0  0  0
    2.6710   -0.2720    2.8130 C   0  0  0  0  0  0  0  0  0  0  0  0
    3.5320   -1.0740    3.5100 C   0  0  0  0  0  0  0  0  0  0  0  0
    4.2550   -2.0470    2.8780 C   0  0  0  0  0  0  0  0  0  0  0  0
    4.1090   -2.2160    1.5180 C   0  0  0  0  0  0  0  0  0  0  0  0
    3.2480   -1.4180    0.8070 C   0  0  0  0  0  0  0  0  0  0  0  0
    2.5190   -0.4340    1.4540 C   0  0  0  0  0  0  0  0  0  0  0  0
  1  2  1  0
  2  3  1  0
  3  4  2  0
  3 18  1  0
  4  5  1  0
  5  6  1  0
  5  7  2  0
  7  8  1  0
  8  9  1  0
  8 18  2  0
  9 10  1  0
 10 11  2  3
 11 12  1  0
 11 17  1  0
 12 13  1  0
 13 14  1  0
 14 15  2  0
 14 16  1  0
 14 17  1  0
 18 19  1  0
 19 20  2  0
 19 27  1  0
 20 21  1  0
 21 22  1  0
 22 23  2  0
 22 27  1  0
 23 24  1  0
 24 25  2  0
 25 26  1  0
 26 27  2  0
M  END
