
     RDKit          3D

 27 30  0  0  0  0  0  0  0  0999 V2000
    3.0390    1.2330    0.7190 C   0  0  0  0  0  0  0  0  0  0  0  0
    2.2540   -0.0860    0.7410 C   0  0  1  0  0  0  0  0  0  0  0  0
    1.1960   -0.0380   -0.2760 C   0  0  0  0  0  0  0  0  0  0  0  0
   -0.0500    0.4590    0.0590 C   0  0  0  0  0  0  0  0  0  0  0  0
   -1.0530    0.5060   -0.9130 C   0  0  0  0  0  0  0  0  0  0  0  0
   -2.2990    1.0230   -0.5090 N   0  0  0  0  0  0  0  0  0  0  0  0
   -3.3620    0.2740   -0.3260 C   0  0  0  0  0  0  0  0  0  0  0  0
   -3.2230   -1.0250   -0.5400 N   0  0  0  0  0  0  0  0  0  0  0  0
   -4.1800   -1.9630   -0.4120 C   0  0  0  0  0  0  0  0  0  0  0  0
   -3.9540   -3.1890   -0.6390 O   0  0  0  0  0  0  0  0  0  0  0  0
   -5.6970   -1.3670    0.0750 S   0  0  0  0  0  0  0  0  0  0  0  0
   -5.7130    0.3330    0.3100 C   0  0  0  0  0  0  0  0  0  0  0  0
   -6.8380    1.0320    0.7060 C   0  0  0  0  0  0  0  0  0  0  0  0
   -6.7920    2.3990    0.8800 C   0  0  0  0  0  0  0  0  0  0  0  0
   -5.5840    3.0130    0.6410 C   0  0  0  0  0  0  0  0  0  0  0  0
   -4.4600    2.3220    0.2460 C   0  0  0  0  0  0  0  0  0  0  0  0
   -4.5000    0.9340    0.0680 C   0  0  0  0  0  0  0  0  0  0  0  0
   -0.7990    0.0580   -2.2010 C   0  0  0  0  0  0  0  0  0  0  0  0
    0.4430   -0.4380   -2.5370 C   0  0  0  0  0  0  0  0  0  0  0  0
    1.4230   -0.4720   -1.5460 C   0  0  0  0  0  0  0  0  0  0  0  0
    2.7610   -1.0070   -1.8990 C   0  0  0  0  0  0  0  0  0  0  0  0
    3.3600   -1.7960   -0.7560 C   0  0  0  0  0  0  0  0  0  0  0  0
    3.2170   -1.1380    0.5030 N   0  0  0  0  0  0  0  0  0  0  0  0
    4.0470   -1.5120    1.6140 C   0  0  0  0  0  0  0  0  0  0  0  0
    5.3250   -1.2170    1.6950 C   0  0  0  0  0  0  0  0  0  0  0  0
    6.0700   -0.4660    0.6590 C   0  0  0  0  0  0  0  0  0  0  0  0
    7.0880   -1.3160    0.2210 F   0  0  0  0  0  0  0  0  0  0  0  0
  2  1  1  6
  2  3  1  0
  2 23  1  0
  3  4  2  0
  3 20  1  0
  4  5  1  0
  5  6  1  0
  5 18  2  0
  6  7  2  3
  7  8  1  0
  7 17  1  0
  8  9  1  0
  9 10  2  0
  9 11  1  0
 11 12  1  0
 12 13  2  0
 12 17  1  0
 13 14  1  0
 14 15  2  0
 15 16  1  0
 16 17  2  0
 18 19  1  0
 19 20  2  0
 20 21  1  0
 21 22  1  0
 22 23  1  0
 23 24  1  0
 24 25  2  3
 25 26  1  0
 26 27  1  0
M  END
