
     RDKit          3D

 27 30  0  0  0  0  0  0  0  0999 V2000
   -7.0090    0.3140    0.6530 C   0  0  0  0  0  0  0  0  0  0  0  0
   -5.9440   -0.7200    0.7950 C   0  0  0  0  0  0  0  0  0  0  0  0
   -4.7830   -0.4400   -0.1310 C   0  0  0  0  0  0  0  0  0  0  0  0
   -3.5910   -0.1860    0.2920 C   0  0  0  0  0  0  0  0  0  0  0  0
   -3.3890   -0.1820    1.7900 C   0  0  0  0  0  0  0  0  0  0  0  0
   -2.4610    0.1760   -0.5340 C   0  0  0  0  0  0  0  0  0  0  0  0
   -1.1700   -0.0340    0.0100 C   0  0  0  0  0  0  0  0  0  0  0  0
   -0.0290    0.3140   -0.6280 C   0  0  0  0  0  0  0  0  0  0  0  0
    1.3290    0.1410   -0.1590 C   0  0  0  0  0  0  0  0  0  0  0  0
    2.2900    0.5490   -0.9450 N   0  0  0  0  0  0  0  0  0  0  0  0
    3.7000    0.5330   -0.8030 C   0  0  0  0  0  0  0  0  0  0  0  0
    4.5300    1.4650   -1.3280 N   0  0  0  0  0  0  0  0  0  0  0  0
    5.7780    1.1500   -1.0110 C   0  0  0  0  0  0  0  0  0  0  0  0
    6.8220    1.8090   -1.3410 O   0  0  0  0  0  0  0  0  0  0  0  0
    5.7550    0.0280   -0.2900 N   0  0  0  0  0  0  0  0  0  0  0  0
    4.4610   -0.3840   -0.1430 C   0  0  0  0  0  0  0  0  0  0  0  0
    4.2670   -1.6090    0.6260 C   0  0  1  0  0  0  0  0  0  0  0  0
    5.1390   -1.5510    1.8360 C   0  0  0  0  0  0  0  0  0  0  0  0
    6.3840   -1.1310    1.6630 C   0  0  0  0  0  0  0  0  0  0  0  0
    6.8560   -0.7420    0.3060 C   0  0  0  0  0  0  0  0  0  0  0  0
    2.5660   -1.9650    1.0530 S   0  0  0  0  0  0  0  0  0  0  0  0
    1.5420   -0.4710    1.1490 C   0  0  0  0  0  0  0  0  0  0  0  0
   -0.1780    0.9050   -1.8840 C   0  0  0  0  0  0  0  0  0  0  0  0
    0.9190    1.2750   -2.5770 F   0  0  0  0  0  0  0  0  0  0  0  0
   -1.3900    1.1270   -2.4460 C   0  0  0  0  0  0  0  0  0  0  0  0
   -2.5590    0.7610   -1.7660 C   0  0  0  0  0  0  0  0  0  0  0  0
   -3.8620    1.1020   -2.4140 C   0  0  0  0  0  0  0  0  0  0  0  0
  1  2  1  0
  2  3  1  0
  3  4  2  3
  4  5  1  0
  4  6  1  0
  6  7  2  0
  6 26  1  0
  7  8  1  0
  8  9  1  0
  8 23  2  0
  9 10  2  0
  9 22  1  0
 10 11  1  0
 11 12  1  0
 11 16  2  0
 12 13  1  0
 13 14  2  0
 13 15  1  0
 15 16  1  0
 15 20  1  0
 16 17  1  0
 17 18  1  0
 17 21  1  1
 18 19  2  0
 19 20  1  0
 21 22  1  0
 23 24  1  0
 23 25  1  0
 25 26  2  0
 26 27  1  0
M  END
