
     RDKit          3D

 26 29  0  0  0  0  0  0  0  0999 V2000
   -2.8290   -1.2670   -2.9250 C   0  0  0  0  0  0  0  0  0  0  0  0
   -1.4250   -1.4030   -2.4940 C   0  0  0  0  0  0  0  0  0  0  0  0
   -1.0680   -0.6150   -1.2660 C   0  0  0  0  0  0  0  0  0  0  0  0
   -1.9160    0.1300   -0.5640 N   0  0  0  0  0  0  0  0  0  0  0  0
   -1.4790    0.8090    0.5380 C   0  0  0  0  0  0  0  0  0  0  0  0
   -0.1510    0.7060    0.9020 C   0  0  0  0  0  0  0  0  0  0  0  0
    0.6990   -0.0770    0.1500 C   0  0  0  0  0  0  0  0  0  0  0  0
    1.9230   -0.1500    0.5200 N   0  0  0  0  0  0  0  0  0  0  0  0
    2.9760   -0.8910   -0.0970 C   0  0  0  0  0  0  0  0  0  0  0  0
    4.2130   -0.0260   -0.0600 C   0  0  2  0  0  0  0  0  0  0  0  0
    5.4180   -0.6590   -0.6710 C   0  0  0  0  0  0  0  0  0  0  0  0
    6.5420    0.2470   -0.1740 C   0  0  0  0  0  0  0  0  0  0  0  0
    6.0190    0.9350    1.0670 C   0  0  0  0  0  0  0  0  0  0  0  0
    4.6590    0.2900    1.3320 C   0  0  0  0  0  0  0  0  0  0  0  0
    0.1890   -0.6890   -0.8860 O   0  0  0  0  0  0  0  0  0  0  0  0
    0.3150    1.4360    2.0270 N   0  0  0  0  0  0  0  0  0  0  0  0
   -0.5560    2.2720    2.7870 C   0  0  0  0  0  0  0  0  0  0  0  0
   -1.8110    2.3920    2.4730 C   0  0  0  0  0  0  0  0  0  0  0  0
   -2.3740    1.6580    1.3090 C   0  0  0  0  0  0  0  0  0  0  0  0
   -3.6480    1.7940    1.1140 C   0  0  0  0  0  0  0  0  0  0  0  0
   -4.3850    1.0810    0.0650 C   0  0  0  0  0  0  0  0  0  0  0  0
   -5.1660    1.7860   -1.3570 S   0  0  0  0  0  0  0  0  0  0  0  0
   -5.9300    0.2530   -1.9910 C   0  0  0  0  0  0  0  0  0  0  0  0
   -5.5040   -0.6610   -1.0340 C   0  0  0  0  0  0  0  0  0  0  0  0
   -4.7440   -0.2630   -0.0190 C   0  0  0  0  0  0  0  0  0  0  0  0
   -4.2820   -1.2100    1.0880 C   0  0  0  0  0  0  0  0  0  0  0  0
  1  2  1  0
  2  3  1  0
  3  4  2  0
  3 15  1  0
  4  5  1  0
  5  6  2  0
  5 19  1  0
  6  7  1  0
  6 16  1  0
  7  8  2  3
  7 15  1  0
  8  9  1  0
 10  9  1  1
 10 11  1  0
 10 14  1  0
 11 12  1  0
 12 13  1  0
 13 14  1  0
 16 17  1  0
 17 18  2  0
 18 19  1  0
 19 20  2  3
 20 21  1  0
 21 22  1  0
 21 25  2  0
 22 23  1  0
 23 24  2  0
 24 25  1  0
 25 26  1  0
M  END
