
     RDKit          3D

 27 30  0  0  0  0  0  0  0  0999 V2000
   -3.9730    3.3520   -0.1170 C   0  0  0  0  0  0  0  0  0  0  0  0
   -3.2740    2.1280   -0.4830 C   0  0  0  0  0  0  0  0  0  0  0  0
   -3.5920    0.8670   -0.3930 C   0  0  0  0  0  0  0  0  0  0  0  0
   -4.8650    0.4470    0.1550 C   0  0  0  0  0  0  0  0  0  0  0  0
   -5.9470    1.2090    0.2890 C   0  0  0  0  0  0  0  0  0  0  0  0
   -7.0900    0.6720    0.8370 F   0  0  0  0  0  0  0  0  0  0  0  0
   -5.0980   -0.9780    0.5090 C   0  0  0  0  0  0  0  0  0  0  0  0
   -4.0550   -1.8900    0.0940 C   0  0  0  0  0  0  0  0  0  0  0  0
   -4.2840   -3.3810    0.3090 C   0  0  0  0  0  0  0  0  0  0  0  0
   -2.9430   -1.4850   -0.4510 C   0  0  0  0  0  0  0  0  0  0  0  0
   -2.5950   -0.1350   -0.7280 N   0  0  0  0  0  0  0  0  0  0  0  0
   -1.3380    0.2070   -1.3050 C   0  0  0  0  0  0  0  0  0  0  0  0
   -0.2120   -0.0330   -0.3170 C   0  0  0  0  0  0  0  0  0  0  0  0
    1.0660    0.1720   -0.7360 C   0  0  0  0  0  0  0  0  0  0  0  0
    2.2010   -0.0240    0.1100 C   0  0  0  0  0  0  0  0  0  0  0  0
    3.5100    0.1350   -0.1540 C   0  0  0  0  0  0  0  0  0  0  0  0
    4.4270   -0.1100    0.8060 C   0  0  0  0  0  0  0  0  0  0  0  0
    3.4520   -0.5990    2.1970 S   0  0  0  0  0  0  0  0  0  0  0  0
    1.8280   -0.4350    1.3650 C   0  0  0  0  0  0  0  0  0  0  0  0
    0.5460   -0.6460    1.7990 C   0  0  0  0  0  0  0  0  0  0  0  0
    0.3690   -1.0190    2.9690 O   0  0  0  0  0  0  0  0  0  0  0  0
   -0.4860   -0.4350    0.9250 N   0  0  0  0  0  0  0  0  0  0  0  0
    5.8200    0.0190    0.6530 N   0  0  0  0  0  0  0  0  0  0  0  0
    6.6290    0.0440    1.8520 C   0  0  0  0  0  0  0  0  0  0  0  0
    6.4210    0.1220   -0.6560 C   0  0  0  0  0  0  0  0  0  0  0  0
    5.3790   -0.2890   -1.6760 C   0  0  0  0  0  0  0  0  0  0  0  0
    4.1540    0.5790   -1.4660 C   0  0  0  0  0  0  0  0  0  0  0  0
  1  2  1  0
  2  3  2  3
  3  4  1  0
  3 11  1  0
  4  5  2  3
  4  7  1  0
  5  6  1  0
  7  8  1  0
  8  9  1  0
  8 10  2  0
 10 11  1  0
 11 12  1  0
 12 13  1  0
 13 14  2  0
 13 22  1  0
 14 15  1  0
 15 16  1  0
 15 19  2  0
 16 17  2  0
 16 27  1  0
 17 18  1  0
 17 23  1  0
 18 19  1  0
 19 20  1  0
 20 21  2  0
 20 22  1  0
 23 24  1  0
 23 25  1  0
 25 26  1  0
 26 27  1  0
M  END
