
     RDKit          3D

 21 22  0  0  0  0  0  0  0  0999 V2000
   -3.0370   -2.0030    0.9000 C   0  0  0  0  0  0  0  0  0  0  0  0
   -3.6570   -0.7520    0.3940 C   0  0  0  0  0  0  0  0  0  0  0  0
   -4.4040   -0.1030    1.2780 C   0  0  0  0  0  0  0  0  0  0  0  0
   -5.1540    1.1160    1.1800 C   0  0  0  0  0  0  0  0  0  0  0  0
   -5.6480    1.7240    0.1340 C   0  0  0  0  0  0  0  0  0  0  0  0
   -5.5320    1.1980   -1.5680 S   0  0  0  0  0  0  0  0  0  0  0  0
   -4.0140    0.3170   -1.8470 C   0  0  0  0  0  0  0  0  0  0  0  0
   -3.3520   -0.4380   -0.9750 C   0  0  0  0  0  0  0  0  0  0  0  0
   -2.1600   -1.0020   -1.5380 N   0  0  0  0  0  0  0  0  0  0  0  0
   -0.8870   -0.7160   -0.9800 C   0  0  0  0  0  0  0  0  0  0  0  0
   -0.8050    0.0300    0.0040 O   0  0  0  0  0  0  0  0  0  0  0  0
    0.3040   -1.3400   -1.6210 C   0  0  0  0  0  0  0  0  0  0  0  0
    1.4990   -0.9710   -0.9660 O   0  0  0  0  0  0  0  0  0  0  0  0
    1.9590    0.3090   -0.8260 C   0  0  0  0  0  0  0  0  0  0  0  0
    1.2760    1.2480   -1.3120 O   0  0  0  0  0  0  0  0  0  0  0  0
    3.2140    0.6780   -0.1360 C   0  0  1  0  0  0  0  0  0  0  0  0
    3.4630    2.1480   -0.1360 C   0  0  0  0  0  0  0  0  0  0  0  0
    3.3360    0.0440    1.2340 C   0  0  0  0  0  0  0  0  0  0  0  0
    4.7790    0.3450    1.6110 C   0  0  0  0  0  0  0  0  0  0  0  0
    5.5910   -0.4970    0.6170 C   0  0  0  0  0  0  0  0  0  0  0  0
    4.6650   -0.1270   -0.9290 S   0  0  0  0  0  0  0  0  0  0  0  0
  1  2  1  0
  2  3  2  0
  2  8  1  0
  3  4  1  0
  4  5  2  0
  5  6  1  0
  6  7  1  0
  7  8  2  0
  8  9  1  0
  9 10  1  0
 10 11  2  0
 10 12  1  0
 12 13  1  0
 13 14  1  0
 14 15  2  0
 14 16  1  0
 16 17  1  1
 16 18  1  0
 16 21  1  0
 18 19  1  0
 19 20  1  0
 20 21  1  0
M  END
