
     RDKit          3D

 21 22  0  0  0  0  0  0  0  0999 V2000
   -3.0310   -2.5200   -1.1830 C   0  0  0  0  0  0  0  0  0  0  0  0
   -3.4380   -2.4610    0.0530 C   0  0  0  0  0  0  0  0  0  0  0  0
   -2.9740   -1.5830    1.1310 C   0  0  2  0  0  0  0  0  0  0  0  0
   -4.0850   -1.4320    2.0480 O   0  0  0  0  0  0  0  0  0  0  0  0
   -4.9970   -0.4550    1.6400 C   0  0  0  0  0  0  0  0  0  0  0  0
   -5.7660    0.0540    2.4690 O   0  0  0  0  0  0  0  0  0  0  0  0
   -4.9940   -0.0700    0.2080 C   0  0  0  0  0  0  0  0  0  0  0  0
   -3.6040    0.3870   -0.2590 C   0  0  0  0  0  0  0  0  0  0  0  0
   -2.6270   -0.1780    0.7270 C   0  0  2  0  0  0  0  0  0  0  0  0
   -1.2470    0.0060    0.4030 N   0  0  0  0  0  0  0  0  0  0  0  0
   -0.3490    0.8030    1.1660 C   0  0  0  0  0  0  0  0  0  0  0  0
   -0.8470    1.3630    2.1860 O   0  0  0  0  0  0  0  0  0  0  0  0
    1.0540    0.9940    0.8420 C   0  0  0  0  0  0  0  0  0  0  0  0
    1.6500    0.4620   -0.1790 C   0  0  0  0  0  0  0  0  0  0  0  0
    3.0550    0.6780   -0.4690 C   0  0  0  0  0  0  0  0  0  0  0  0
    4.0050    1.3840    0.1420 C   0  0  0  0  0  0  0  0  0  0  0  0
    5.2600    1.4320   -0.3260 C   0  0  0  0  0  0  0  0  0  0  0  0
    5.5210    0.7070   -1.4800 C   0  0  0  0  0  0  0  0  0  0  0  0
    6.7890    0.5430   -2.2520 C   0  0  0  0  0  0  0  0  0  0  0  0
    6.9420    1.8410   -3.5220 S   0  0  0  0  0  0  0  0  0  0  0  0
    3.9300   -0.0330   -1.8670 S   0  0  0  0  0  0  0  0  0  0  0  0
  1  2  2  0
  3  2  1  6
  3  4  1  0
  3  9  1  0
  4  5  1  0
  5  6  2  0
  5  7  1  0
  7  8  1  0
  8  9  1  0
  9 10  1  6
 10 11  1  0
 11 12  2  0
 11 13  1  0
 13 14  2  3
 14 15  1  0
 15 16  2  0
 15 21  1  0
 16 17  1  0
 17 18  2  0
 18 19  1  0
 18 21  1  0
 19 20  1  0
M  END
