
     RDKit          3D

 20 21  0  0  0  0  0  0  0  0999 V2000
    6.7420    1.0340   -0.8670 C   0  0  0  0  0  0  0  0  0  0  0  0
    5.2430    0.1420   -1.3210 S   0  0  0  0  0  0  0  0  0  0  0  0
    4.3330   -0.4190    0.1520 C   0  0  0  0  0  0  0  0  0  0  0  0
    3.0910   -1.1580   -0.2490 C   0  0  2  0  0  0  0  0  0  0  0  0
    2.2460   -0.2740   -1.0250 N   0  0  0  0  0  0  0  0  0  0  0  0
    1.4680    0.5330   -0.1180 C   0  0  0  0  0  0  0  0  0  0  0  0
    0.4010   -0.3140    0.4640 C   0  0  0  0  0  0  0  0  0  0  0  0
   -1.0400    0.0220    0.5060 C   0  0  2  0  0  0  0  0  0  0  0  0
   -1.6590   -0.9330    1.2890 O   0  0  0  0  0  0  0  0  0  0  0  0
   -3.0030   -0.7270    1.4780 C   0  0  0  0  0  0  0  0  0  0  0  0
   -3.6540    0.1040    0.4240 C   0  0  1  0  0  0  0  0  0  0  0  0
   -5.0590   -0.4810    0.2060 C   0  0  0  0  0  0  0  0  0  0  0  0
   -3.8760    1.5100    0.9410 C   0  0  0  0  0  0  0  0  0  0  0  0
   -3.0440    0.1370   -0.7750 O   0  0  0  0  0  0  0  0  0  0  0  0
   -1.6720    0.1860   -0.8270 C   0  0  1  0  0  0  0  0  0  0  0  0
   -1.3370    1.5360   -1.4560 C   0  0  0  0  0  0  0  0  0  0  0  0
   -1.2070   -0.8690   -1.8250 C   0  0  0  0  0  0  0  0  0  0  0  0
    0.8550   -1.4680    0.9840 C   0  0  0  0  0  0  0  0  0  0  0  0
    2.3030   -1.6700    0.8790 C   0  0  0  0  0  0  0  0  0  0  0  0
    2.9000   -2.3140    1.7980 O   0  0  0  0  0  0  0  0  0  0  0  0
  1  2  1  0
  2  3  1  0
  4  3  1  1
  4  5  1  0
  4 19  1  0
  5  6  1  0
  6  7  1  0
  8  7  1  6
  7 18  2  0
  8  9  1  0
  8 15  1  0
  9 10  1  0
 10 11  1  0
 11 12  1  6
 11 13  1  0
 11 14  1  0
 14 15  1  0
 15 16  1  6
 15 17  1  0
 18 19  1  0
 19 20  2  0
M  END
