
     RDKit          3D

 21 22  0  0  0  0  0  0  0  0999 V2000
    4.8740    2.1600    0.1780 C   0  0  0  0  0  0  0  0  0  0  0  0
    5.7800    0.9750    0.0320 C   0  0  0  0  0  0  0  0  0  0  0  0
    4.9930   -0.2950   -0.2250 C   0  0  0  0  0  0  0  0  0  0  0  0
    4.0580   -0.5940    0.8760 C   0  0  0  0  0  0  0  0  0  0  0  0
    2.7600   -0.6990    0.7620 C   0  0  0  0  0  0  0  0  0  0  0  0
    1.5850   -1.0660    2.0980 S   0  0  0  0  0  0  0  0  0  0  0  0
    0.1160   -0.3650    1.2500 C   0  0  2  0  0  0  0  0  0  0  0  0
   -1.0530   -1.2810    1.3190 C   0  0  0  0  0  0  0  0  0  0  0  0
   -2.1980   -0.6580    0.6240 C   0  0  0  0  0  0  0  0  0  0  0  0
   -2.0620    0.4770    0.1150 O   0  0  0  0  0  0  0  0  0  0  0  0
   -3.4640   -1.3030    0.5100 N   0  0  0  0  0  0  0  0  0  0  0  0
   -4.5270   -0.6480   -0.1720 C   0  0  0  0  0  0  0  0  0  0  0  0
   -5.6840   -0.3420    0.4050 C   0  0  0  0  0  0  0  0  0  0  0  0
   -6.5470    0.3240   -0.5810 C   0  0  0  0  0  0  0  0  0  0  0  0
   -7.7140    0.7660   -0.4320 O   0  0  0  0  0  0  0  0  0  0  0  0
   -5.7600    0.3730   -1.8080 C   0  0  0  0  0  0  0  0  0  0  0  0
   -6.3350    1.0920   -3.3570 S   0  0  0  0  0  0  0  0  0  0  0  0
   -4.6130   -0.1900   -1.5380 C   0  0  0  0  0  0  0  0  0  0  0  0
    0.5770   -0.0260   -0.1110 C   0  0  0  0  0  0  0  0  0  0  0  0
    1.8920   -0.5650   -0.3970 C   0  0  0  0  0  0  0  0  0  0  0  0
    2.2740   -0.9010   -1.5720 O   0  0  0  0  0  0  0  0  0  0  0  0
  1  2  1  0
  2  3  1  0
  3  4  1  0
  4  5  2  3
  5  6  1  0
  5 20  1  0
  6  7  1  0
  7  8  1  6
  7 19  1  0
  8  9  1  0
  9 10  2  0
  9 11  1  0
 11 12  1  0
 12 13  2  0
 12 18  1  0
 13 14  1  0
 14 15  2  0
 14 16  1  0
 16 17  1  0
 16 18  2  0
 19 20  1  0
 20 21  2  0
M  END
