
     RDKit          3D

 21 22  0  0  0  0  0  0  0  0999 V2000
   -5.5530   -0.7170    1.4420 C   0  0  0  0  0  0  0  0  0  0  0  0
   -4.7440    0.0540    0.3780 C   0  0  0  0  0  0  0  0  0  0  0  0
   -5.1370    1.1720   -0.1300 N   0  0  0  0  0  0  0  0  0  0  0  0
   -4.4630    1.7440   -1.1520 C   0  0  0  0  0  0  0  0  0  0  0  0
   -4.6040    2.7920   -1.8240 O   0  0  0  0  0  0  0  0  0  0  0  0
   -3.1200    0.4940   -1.3740 S   0  0  0  0  0  0  0  0  0  0  0  0
   -3.6320   -0.5930   -0.0910 C   0  0  0  0  0  0  0  0  0  0  0  0
   -2.8140   -1.6830    0.3240 C   0  0  1  0  0  0  0  0  0  0  0  0
   -3.4920   -3.0220   -0.2010 C   0  0  0  0  0  0  0  0  0  0  0  0
   -1.2680   -1.7390   -0.5390 S   0  0  0  0  0  0  0  0  0  0  0  0
   -0.1060   -0.5070   -0.6400 C   0  0  0  0  0  0  0  0  0  0  0  0
    0.5930   -0.1020    0.5950 C   0  0  0  0  0  0  0  0  0  0  0  0
    0.0680   -0.2980    1.6970 O   0  0  0  0  0  0  0  0  0  0  0  0
    1.9260    0.5260    0.4380 C   0  0  0  0  0  0  0  0  0  0  0  0
    2.6260    0.9760    1.4650 C   0  0  0  0  0  0  0  0  0  0  0  0
    3.9570    1.6110    1.3920 C   0  0  1  0  0  0  0  0  0  0  0  0
    5.0390    0.8640    2.1280 C   0  0  0  0  0  0  0  0  0  0  0  0
    4.2780    1.8460    0.0420 O   0  0  0  0  0  0  0  0  0  0  0  0
    4.0480    0.7140   -0.6750 C   0  0  2  0  0  0  0  0  0  0  0  0
    4.8150    0.5480   -1.9400 C   0  0  0  0  0  0  0  0  0  0  0  0
    2.5250    0.6220   -0.9090 C   0  0  0  0  0  0  0  0  0  0  0  0
  1  2  1  0
  2  3  1  0
  2  7  2  0
  3  4  1  0
  4  5  2  0
  4  6  1  0
  6  7  1  0
  7  8  1  0
  8  9  1  6
  8 10  1  0
 10 11  1  0
 11 12  1  0
 12 13  2  0
 12 14  1  0
 14 15  2  0
 14 21  1  0
 15 16  1  0
 16 17  1  6
 16 18  1  0
 18 19  1  0
 19 20  1  6
 19 21  1  0
M  END
