
     RDKit          3D

 21 22  0  0  0  0  0  0  0  0999 V2000
    3.9970    2.8450    1.4810 C   0  0  0  0  0  0  0  0  0  0  0  0
    4.5180    1.7000    0.6830 C   0  0  0  0  0  0  0  0  0  0  0  0
    3.4470    0.8800    0.0650 C   0  0  0  0  0  0  0  0  0  0  0  0
    2.1530    1.1860    0.2030 C   0  0  0  0  0  0  0  0  0  0  0  0
    1.1780    0.3320   -0.4310 N   0  0  0  0  0  0  0  0  0  0  0  0
   -0.1070    0.8020   -0.7940 C   0  0  0  0  0  0  0  0  0  0  0  0
   -0.4510    1.9840   -0.5620 O   0  0  0  0  0  0  0  0  0  0  0  0
   -1.1120   -0.0780   -1.4630 C   0  0  0  0  0  0  0  0  0  0  0  0
   -1.8000   -1.2800   -0.3260 S   0  0  0  0  0  0  0  0  0  0  0  0
   -2.7900   -0.6350    0.9900 C   0  0  0  0  0  0  0  0  0  0  0  0
   -4.1320   -0.1230    0.6910 C   0  0  1  0  0  0  0  0  0  0  0  0
   -4.7820    0.3690    1.8440 O   0  0  0  0  0  0  0  0  0  0  0  0
   -4.1690    0.9420   -0.3470 C   0  0  0  0  0  0  0  0  0  0  0  0
   -5.6170    1.5030   -0.2580 C   0  0  0  0  0  0  0  0  0  0  0  0
   -6.5050   -0.1120   -0.2980 S   0  0  0  0  0  0  0  0  0  0  0  0
   -5.1040   -1.2090    0.1690 C   0  0  0  0  0  0  0  0  0  0  0  0
    1.5140   -1.0550   -0.6960 C   0  0  0  0  0  0  0  0  0  0  0  0
    2.8520   -1.0610   -1.3810 C   0  0  2  0  0  0  0  0  0  0  0  0
    3.4570   -2.4550   -1.4110 C   0  0  0  0  0  0  0  0  0  0  0  0
    3.6480   -2.9680    0.0190 C   0  0  0  0  0  0  0  0  0  0  0  0
    3.7480   -0.2390   -0.6800 O   0  0  0  0  0  0  0  0  0  0  0  0
  1  2  1  0
  2  3  1  0
  3  4  2  0
  3 21  1  0
  4  5  1  0
  5  6  1  0
  5 17  1  0
  6  7  2  0
  6  8  1  0
  8  9  1  0
  9 10  1  0
 10 11  1  0
 11 12  1  1
 11 13  1  0
 11 16  1  0
 13 14  1  0
 14 15  1  0
 15 16  1  0
 17 18  1  0
 18 19  1  1
 18 21  1  0
 19 20  1  0
M  END
