
     RDKit          3D

 21 22  0  0  0  0  0  0  0  0999 V2000
   -3.6820    0.4080   -1.3670 C   0  0  0  0  0  0  0  0  0  0  0  0
   -3.3470    0.7470    0.0600 C   0  0  2  0  0  0  0  0  0  0  0  0
   -2.5830    2.0570    0.1570 C   0  0  0  0  0  0  0  0  0  0  0  0
   -3.5740    3.4190   -0.5250 S   0  0  0  0  0  0  0  0  0  0  0  0
   -2.6260   -0.3460    0.7620 C   0  0  0  0  0  0  0  0  0  0  0  0
   -3.1780   -0.9080    1.7700 O   0  0  0  0  0  0  0  0  0  0  0  0
   -1.3480   -0.7900    0.3550 N   0  0  0  0  0  0  0  0  0  0  0  0
   -0.5530   -0.2840   -0.7480 C   0  0  0  0  0  0  0  0  0  0  0  0
    0.2600   -1.5170   -1.1680 C   0  0  1  0  0  0  0  0  0  0  0  0
    1.6890   -1.0280   -2.1620 S   0  0  0  0  0  0  0  0  0  0  0  0
    2.8630   -0.0910   -1.1880 C   0  0  0  0  0  0  0  0  0  0  0  0
    3.8920   -0.7020   -0.4990 C   0  0  0  0  0  0  0  0  0  0  0  0
    4.7510    0.0990    0.2290 C   0  0  0  0  0  0  0  0  0  0  0  0
    4.6280    1.4640    0.3000 C   0  0  0  0  0  0  0  0  0  0  0  0
    3.5760    2.0440   -0.4080 C   0  0  0  0  0  0  0  0  0  0  0  0
    2.6980    1.2790   -1.1470 C   0  0  0  0  0  0  0  0  0  0  0  0
    0.6720   -2.0440    0.1880 C   0  0  0  0  0  0  0  0  0  0  0  0
   -0.5900   -1.8690    0.9930 C   0  0  1  0  0  0  0  0  0  0  0  0
   -0.2550   -1.5240    2.3940 C   0  0  0  0  0  0  0  0  0  0  0  0
   -0.5890   -0.4540    2.9220 O   0  0  0  0  0  0  0  0  0  0  0  0
    0.4700   -2.4730    3.1180 O   0  0  0  0  0  0  0  0  0  0  0  0
  2  1  1  6
  2  3  1  0
  2  5  1  0
  3  4  1  0
  5  6  2  0
  5  7  1  0
  7  8  1  0
  7 18  1  0
  8  9  1  0
  9 10  1  6
  9 17  1  0
 10 11  1  0
 11 12  2  0
 11 16  1  0
 12 13  1  0
 13 14  2  0
 14 15  1  0
 15 16  2  0
 17 18  1  0
 18 19  1  1
 19 20  2  0
 19 21  1  0
M  END
