
     RDKit          3D

 31 33  0  0  0  0  0  0  0  0999 V2000
    1.1120    1.0910   -0.9840 N   0  0  0  0  0  0  0  0  0  0  0  0
    2.0070    0.9230   -0.0700 C   0  0  0  0  0  0  0  0  0  0  0  0
    1.7310    0.1480    0.9860 N   0  0  0  0  0  0  0  0  0  0  0  0
    0.4750   -0.5150    1.1580 C   0  0  1  0  0  0  0  0  0  0  0  0
   -0.2160   -0.8560   -0.0440 N   0  0  0  0  0  0  0  0  0  0  0  0
    0.4060   -1.7560   -0.9600 C   0  0  0  0  0  0  0  0  0  0  0  0
    1.6270   -2.0120   -0.8420 O   0  0  0  0  0  0  0  0  0  0  0  0
   -0.4120   -2.3250   -1.9760 N   0  0  0  0  0  0  0  0  0  0  0  0
   -1.8060   -2.5420   -1.6560 C   0  0  0  0  0  0  0  0  0  0  0  0
   -2.3870   -1.5820   -0.6880 C   0  0  2  0  0  0  0  0  0  0  0  0
   -3.6330   -1.1290   -1.2420 O   0  0  0  0  0  0  0  0  0  0  0  0
   -3.8730    0.2330   -1.1980 C   0  0  0  0  0  0  0  0  0  0  0  0
   -4.4170    0.8090   -2.1990 O   0  0  0  0  0  0  0  0  0  0  0  0
   -3.4900    0.9820    0.0190 C   0  0  1  0  0  0  0  0  0  0  0  0
   -4.4800    0.7580    0.9670 O   0  0  0  0  0  0  0  0  0  0  0  0
   -5.0870    1.8890    1.2100 O   0  0  0  0  0  0  0  0  0  0  0  0
   -5.3690    2.5090    0.0890 O   0  0  0  0  0  0  0  0  0  0  0  0
   -2.1390    0.5570    0.5590 C   0  0  0  0  0  0  0  0  0  0  0  0
   -1.5230   -0.3730   -0.4430 C   0  0  1  0  0  0  0  0  0  0  0  0
    0.7030   -1.9610    2.2890 P   0  0  0  0  0  0  0  0  0  0  0  0
   -0.8050   -2.5090    2.9310 O   0  0  0  0  0  0  0  0  0  0  0  0
    1.6050   -3.2350    1.5540 O   0  0  0  0  0  0  0  0  0  0  0  0
    2.6800   -0.0150    1.9350 C   0  0  0  0  0  0  0  0  0  0  0  0
    2.4440   -0.7450    2.9470 O   0  0  0  0  0  0  0  0  0  0  0  0
    3.8960    0.5700    1.8600 N   0  0  0  0  0  0  0  0  0  0  0  0
    4.1550    1.3530    0.7780 C   0  0  0  0  0  0  0  0  0  0  0  0
    5.2580    1.9310    0.6360 O   0  0  0  0  0  0  0  0  0  0  0  0
    3.2200    1.5240   -0.1710 N   0  0  0  0  0  0  0  0  0  0  0  0
    3.5740    2.5480   -1.5740 P   0  0  0  0  0  0  0  0  0  0  0  0
    4.1060    1.6220   -2.9410 O   0  0  0  0  0  0  0  0  0  0  0  0
    4.7680    3.7430   -1.2130 O   0  0  0  0  0  0  0  0  0  0  0  0
  1  2  2  0
  2  3  1  0
  2 28  1  0
  3  4  1  0
  3 23  1  0
  4  5  1  0
  4 20  1  6
  5  6  1  0
  5 19  1  0
  6  7  2  0
  6  8  1  0
  8  9  1  0
 10  9  1  6
 10 11  1  0
 10 19  1  0
 11 12  1  0
 12 13  2  0
 12 14  1  0
 14 15  1  1
 14 18  1  0
 15 16  1  0
 16 17  1  0
 19 18  1  1
 20 21  1  0
 20 22  1  0
 23 24  2  0
 23 25  1  0
 25 26  1  0
 26 27  2  0
 26 28  1  0
 28 29  1  0
 29 30  1  0
 29 31  1  0
M  END
