
     RDKit          3D

 31 31  0  0  0  0  0  0  0  0999 V2000
    2.9560   -0.7640    2.3560 N   0  0  0  0  0  0  0  0  0  0  0  0
    2.0710   -1.0970    1.4320 C   0  0  0  0  0  0  0  0  0  0  0  0
    0.8620   -1.7030    1.8390 N   0  0  0  0  0  0  0  0  0  0  0  0
    0.0000   -2.5740    1.1360 C   0  0  0  0  0  0  0  0  0  0  0  0
   -0.3130   -3.7300    1.6610 O   0  0  0  0  0  0  0  0  0  0  0  0
   -0.6040   -2.3610   -0.1200 N   0  0  0  0  0  0  0  0  0  0  0  0
   -1.4490   -1.3290   -0.5510 C   0  0  0  0  0  0  0  0  0  0  0  0
   -1.4400   -1.0340   -1.7980 O   0  0  0  0  0  0  0  0  0  0  0  0
   -2.3740   -0.5160    0.2630 C   0  0  2  0  0  0  0  0  0  0  0  0
   -2.1650   -0.6070    1.6180 O   0  0  0  0  0  0  0  0  0  0  0  0
   -4.0960   -1.1410   -0.1710 P   0  0  0  0  0  0  0  0  0  0  0  0
   -5.2540   -0.7230    1.0120 O   0  0  0  0  0  0  0  0  0  0  0  0
   -4.0850   -2.7910   -0.6260 O   0  0  0  0  0  0  0  0  0  0  0  0
   -2.3320    1.2760   -0.3080 P   0  0  0  0  0  0  0  0  0  0  0  0
   -3.9270    1.9560   -0.3580 O   0  0  0  0  0  0  0  0  0  0  0  0
   -4.5050    1.7870   -1.5690 N   0  0  0  0  0  0  0  0  0  0  0  0
   -1.4040    2.2570    0.7680 O   0  0  0  0  0  0  0  0  0  0  0  0
   -0.1150    1.7550    0.9550 C   0  0  0  0  0  0  0  0  0  0  0  0
    0.7800    2.0430   -0.2250 C   0  0  2  0  0  0  0  0  0  0  0  0
    1.9880    2.8240    0.2560 C   0  0  0  0  0  0  0  0  0  0  0  0
    2.8140    2.0930    1.0880 O   0  0  0  0  0  0  0  0  0  0  0  0
    0.0490    3.0160   -1.1300 C   0  0  0  0  0  0  0  0  0  0  0  0
   -0.3100    4.1380   -0.7050 O   0  0  0  0  0  0  0  0  0  0  0  0
   -0.2060    2.6280   -2.4310 O   0  0  0  0  0  0  0  0  0  0  0  0
    1.0510    0.8980   -0.9420 N   0  0  0  0  0  0  0  0  0  0  0  0
    1.6530   -0.1750   -0.8980 C   0  0  0  0  0  0  0  0  0  0  0  0
    2.4650   -0.7910    0.0920 N   0  0  0  0  0  0  0  0  0  0  0  0
    3.8370   -1.1770   -0.2710 C   0  0  0  0  0  0  0  0  0  0  0  0
    3.8040   -2.3070   -1.2490 C   0  0  0  0  0  0  0  0  0  0  0  0
    4.8440   -2.7950   -1.7480 O   0  0  0  0  0  0  0  0  0  0  0  0
    2.5980   -2.8570   -1.6400 O   0  0  0  0  0  0  0  0  0  0  0  0
  1  2  2  0
  2  3  1  0
  2 27  1  0
  3  4  1  0
  4  5  2  0
  4  6  1  0
  6  7  1  0
  7  8  2  0
  7  9  1  0
  9 10  1  1
  9 11  1  0
  9 14  1  0
 11 12  1  0
 11 13  1  0
 14 15  1  0
 14 17  1  0
 15 16  1  0
 17 18  1  0
 18 19  1  0
 19 20  1  1
 19 22  1  0
 19 25  1  0
 20 21  1  0
 22 23  2  0
 22 24  1  0
 25 26  2  0
 26 27  1  0
 27 28  1  0
 28 29  1  0
 29 30  2  0
 29 31  1  0
M  END
