
     RDKit          3D

 31 32  0  0  0  0  0  0  0  0999 V2000
    3.6590    2.7680    3.4730 O   0  0  0  0  0  0  0  0  0  0  0  0
    4.7060    2.2890    2.9910 C   0  0  0  0  0  0  0  0  0  0  0  0
    5.9110    2.5870    3.5880 O   0  0  0  0  0  0  0  0  0  0  0  0
    4.5890    1.4720    1.8680 O   0  0  0  0  0  0  0  0  0  0  0  0
    3.3560    1.1850    1.2840 C   0  0  0  0  0  0  0  0  0  0  0  0
    2.3630    1.7130    1.8390 O   0  0  0  0  0  0  0  0  0  0  0  0
    3.2440    0.3300    0.1100 C   0  0  0  0  0  0  0  0  0  0  0  0
    4.2300   -0.2880   -0.5690 N   0  0  0  0  0  0  0  0  0  0  0  0
    3.7410   -0.9870   -1.5910 C   0  0  0  0  0  0  0  0  0  0  0  0
    4.4570   -1.8020   -2.5800 C   0  0  0  0  0  0  0  0  0  0  0  0
    3.8240   -2.3980   -3.4860 O   0  0  0  0  0  0  0  0  0  0  0  0
    5.8320   -1.9470   -2.5560 O   0  0  0  0  0  0  0  0  0  0  0  0
    6.5080   -2.6870   -3.4490 O   0  0  0  0  0  0  0  0  0  0  0  0
    2.4100   -0.8070   -1.5600 N   0  0  0  0  0  0  0  0  0  0  0  0
    2.0650    0.0030   -0.5200 C   0  0  0  0  0  0  0  0  0  0  0  0
    0.7440    0.4100   -0.1810 N   0  0  0  0  0  0  0  0  0  0  0  0
   -0.3480   -0.0680   -1.0000 C   0  0  0  0  0  0  0  0  0  0  0  0
   -1.6440    0.4690   -0.4800 C   0  0  1  0  0  0  0  0  0  0  0  0
   -2.6630   -0.0220   -1.3080 O   0  0  0  0  0  0  0  0  0  0  0  0
   -3.4030    1.0030   -1.8770 C   0  0  0  0  0  0  0  0  0  0  0  0
   -4.7110    0.1970   -2.9430 P   0  0  0  0  0  0  0  0  0  0  0  0
   -3.9620   -1.0830   -3.8600 O   0  0  0  0  0  0  0  0  0  0  0  0
   -5.3680    1.3270   -4.0790 O   0  0  0  0  0  0  0  0  0  0  0  0
   -1.8840   -0.0000    0.9270 C   0  0  0  0  0  0  0  0  0  0  0  0
   -0.9700   -0.5130    1.7780 N   0  0  0  0  0  0  0  0  0  0  0  0
   -1.5700   -0.8110    2.9320 N   0  0  0  0  0  0  0  0  0  0  0  0
   -2.8750   -0.4960    2.8460 C   0  0  0  0  0  0  0  0  0  0  0  0
   -4.1520   -0.7090    4.1660 P   0  0  0  0  0  0  0  0  0  0  0  0
   -4.7290   -2.3530    4.0160 O   0  0  0  0  0  0  0  0  0  0  0  0
   -5.4890    0.3470    3.8380 O   0  0  0  0  0  0  0  0  0  0  0  0
   -3.0450   -0.0000    1.6060 N   0  0  0  0  0  0  0  0  0  0  0  0
  1  2  2  0
  2  3  1  0
  2  4  1  0
  4  5  1  0
  5  6  2  0
  5  7  1  0
  7  8  1  0
  7 15  2  0
  8  9  2  0
  9 10  1  0
  9 14  1  0
 10 11  2  0
 10 12  1  0
 12 13  1  0
 14 15  1  0
 15 16  1  0
 16 17  1  0
 18 17  1  6
 18 19  1  0
 18 24  1  0
 19 20  1  0
 20 21  1  0
 21 22  1  0
 21 23  1  0
 24 25  2  0
 24 31  1  0
 25 26  1  0
 26 27  1  0
 27 28  1  0
 27 31  2  0
 28 29  1  0
 28 30  1  0
M  END
