
     RDKit          3D

 31 31  0  0  0  0  0  0  0  0999 V2000
   -5.0680    1.9300    2.3530 N   0  0  0  0  0  0  0  0  0  0  0  0
   -3.6490    2.1640    2.0490 C   0  0  2  0  0  0  0  0  0  0  0  0
   -3.3940    3.6490    2.2180 C   0  0  0  0  0  0  0  0  0  0  0  0
   -4.1980    4.3790    1.3500 O   0  0  0  0  0  0  0  0  0  0  0  0
   -3.4470    1.7180    0.7350 O   0  0  0  0  0  0  0  0  0  0  0  0
   -2.5990    0.6810    0.4960 N   0  0  0  0  0  0  0  0  0  0  0  0
   -1.4910    0.7450   -0.1350 C   0  0  0  0  0  0  0  0  0  0  0  0
   -0.9590    1.8890   -0.6860 C   0  0  0  0  0  0  0  0  0  0  0  0
   -1.6970    3.1000   -0.5510 N   0  0  0  0  0  0  0  0  0  0  0  0
   -1.0420    4.1690   -0.6470 O   0  0  0  0  0  0  0  0  0  0  0  0
    0.2620    1.8520   -1.3530 C   0  0  0  0  0  0  0  0  0  0  0  0
    0.9650    0.7170   -1.4860 N   0  0  0  0  0  0  0  0  0  0  0  0
    2.2230    0.6790   -2.1740 C   0  0  0  0  0  0  0  0  0  0  0  0
    2.2820    1.0750   -3.3840 N   0  0  0  0  0  0  0  0  0  0  0  0
    3.7140    1.1130   -4.4060 P   0  0  0  0  0  0  0  0  0  0  0  0
    4.4910   -0.3950   -4.6080 O   0  0  0  0  0  0  0  0  0  0  0  0
    4.7700    2.4240   -4.1210 O   0  0  0  0  0  0  0  0  0  0  0  0
    3.3580    0.2300   -1.5620 O   0  0  0  0  0  0  0  0  0  0  0  0
    4.5990    0.6380   -1.9340 O   0  0  0  0  0  0  0  0  0  0  0  0
    5.1630    1.0490   -0.7950 O   0  0  0  0  0  0  0  0  0  0  0  0
    5.3970   -0.3950    0.1600 P   0  0  0  0  0  0  0  0  0  0  0  0
    5.9450   -0.0280    1.7410 O   0  0  0  0  0  0  0  0  0  0  0  0
    6.4550   -1.4620   -0.7010 O   0  0  0  0  0  0  0  0  0  0  0  0
    0.4460   -0.4020   -0.9480 C   0  0  0  0  0  0  0  0  0  0  0  0
   -0.7570   -0.4320   -0.2760 C   0  0  0  0  0  0  0  0  0  0  0  0
   -1.2660   -1.6380    0.2750 N   0  0  0  0  0  0  0  0  0  0  0  0
   -0.5780   -2.9000    0.1810 C   0  0  0  0  0  0  0  0  0  0  0  0
   -1.3670   -4.0000    0.8570 C   0  0  2  0  0  0  0  0  0  0  0  0
   -2.6220   -4.1640    0.2770 O   0  0  0  0  0  0  0  0  0  0  0  0
   -1.6060   -3.6840    2.3220 C   0  0  0  0  0  0  0  0  0  0  0  0
   -2.3050   -4.7960    2.8440 O   0  0  0  0  0  0  0  0  0  0  0  0
  2  1  1  6
  2  3  1  0
  2  5  1  0
  3  4  1  0
  5  6  1  0
  6  7  2  3
  7  8  1  0
  7 25  1  0
  8  9  1  0
  8 11  2  0
  9 10  2  0
 11 12  1  0
 12 13  1  0
 12 24  1  0
 13 14  2  3
 13 18  1  0
 14 15  1  0
 15 16  1  0
 15 17  1  0
 18 19  1  0
 19 20  1  0
 20 21  1  0
 21 22  1  0
 21 23  1  0
 24 25  2  0
 25 26  1  0
 26 27  1  0
 27 28  1  0
 28 29  1  6
 28 30  1  0
 30 31  1  0
M  END
