
     RDKit          3D

 31 32  0  0  0  0  0  0  0  0999 V2000
    1.5260    1.2670    5.0800 N   0  0  0  0  0  0  0  0  0  0  0  0
    1.3080    0.2150    4.2400 O   0  0  0  0  0  0  0  0  0  0  0  0
    0.4970    0.6030    3.1720 C   0  0  0  0  0  0  0  0  0  0  0  0
    0.2830   -0.5600    2.2860 C   0  0  2  0  0  0  0  0  0  0  0  0
    1.5560   -1.2270    1.7910 C   0  0  0  0  0  0  0  0  0  0  0  0
    2.3410   -0.4300    0.8570 C   0  0  0  0  0  0  0  0  0  0  0  0
    2.6530    0.7350    1.2220 O   0  0  0  0  0  0  0  0  0  0  0  0
    2.8080   -0.8330   -0.4580 N   0  0  0  0  0  0  0  0  0  0  0  0
    4.1470   -0.4170   -0.8320 C   0  0  0  0  0  0  0  0  0  0  0  0
    4.8850    0.2460   -0.0570 O   0  0  0  0  0  0  0  0  0  0  0  0
    4.6880   -0.7420   -2.1010 N   0  0  0  0  0  0  0  0  0  0  0  0
    5.9430   -0.3450   -2.4280 O   0  0  0  0  0  0  0  0  0  0  0  0
    6.0440    0.9580   -2.4320 O   0  0  0  0  0  0  0  0  0  0  0  0
    7.0970    1.3610   -3.1190 O   0  0  0  0  0  0  0  0  0  0  0  0
    7.5690    0.3060   -3.7700 O   0  0  0  0  0  0  0  0  0  0  0  0
    1.9840   -1.5970   -1.3440 C   0  0  0  0  0  0  0  0  0  0  0  0
    2.6370   -2.6110   -1.8190 O   0  0  0  0  0  0  0  0  0  0  0  0
    0.7080   -1.2930   -1.6370 O   0  0  0  0  0  0  0  0  0  0  0  0
   -0.0700   -0.4830   -2.3620 C   0  0  0  0  0  0  0  0  0  0  0  0
   -1.5480   -0.5180   -2.1010 C   0  0  0  0  0  0  0  0  0  0  0  0
   -1.9390   -0.3750   -0.7730 N   0  0  0  0  0  0  0  0  0  0  0  0
   -1.8050    0.9270   -0.1540 C   0  0  0  0  0  0  0  0  0  0  0  0
   -1.5300    0.5560    1.3210 C   0  0  1  0  0  0  0  0  0  0  0  0
   -2.6540   -0.0500    2.0180 C   0  0  0  0  0  0  0  0  0  0  0  0
   -3.8300   -0.4270    1.3280 N   0  0  0  0  0  0  0  0  0  0  0  0
   -3.6350   -0.8170   -0.3970 P   0  0  0  0  0  0  0  0  0  0  0  0
   -4.6710    0.3310   -1.3160 N   0  0  0  0  0  0  0  0  0  0  0  0
   -6.0680   -0.5020   -2.0660 P   0  0  0  0  0  0  0  0  0  0  0  0
   -7.5150    0.1730   -1.3820 O   0  0  0  0  0  0  0  0  0  0  0  0
   -6.0690   -0.0990   -3.7610 O   0  0  0  0  0  0  0  0  0  0  0  0
   -0.4900   -0.3610    1.1890 O   0  0  0  0  0  0  0  0  0  0  0  0
  1  2  1  0
  2  3  1  0
  4  3  1  6
  4  5  1  0
  4 31  1  0
  5  6  1  0
  6  7  2  0
  6  8  1  0
  8  9  1  0
  8 16  1  0
  9 10  2  0
  9 11  1  0
 11 12  1  0
 12 13  1  0
 13 14  1  0
 14 15  1  0
 16 17  2  0
 16 18  1  0
 18 19  1  0
 19 20  1  0
 20 21  1  0
 21 22  1  0
 21 26  1  0
 22 23  1  0
 23 24  1  6
 23 31  1  0
 24 25  1  0
 25 26  1  0
 26 27  1  0
 27 28  1  0
 28 29  1  0
 28 30  1  0
M  END
