
     RDKit          3D

 31 32  0  0  0  0  0  0  0  0999 V2000
   -4.9580   -1.6470   -3.5080 N   0  0  0  0  0  0  0  0  0  0  0  0
   -5.0910   -1.2900   -2.1880 C   0  0  0  0  0  0  0  0  0  0  0  0
   -6.3210   -1.0810   -1.7550 O   0  0  0  0  0  0  0  0  0  0  0  0
   -4.1590   -1.0950   -1.1780 O   0  0  0  0  0  0  0  0  0  0  0  0
   -4.5730   -0.6980    0.1200 C   0  0  0  0  0  0  0  0  0  0  0  0
   -5.7900   -0.4640    0.4680 N   0  0  0  0  0  0  0  0  0  0  0  0
   -5.8580   -0.1030    1.7740 O   0  0  0  0  0  0  0  0  0  0  0  0
   -4.6460   -0.3740    2.4390 C   0  0  0  0  0  0  0  0  0  0  0  0
   -3.6770   -0.4880    1.2830 C   0  0  2  0  0  0  0  0  0  0  0  0
   -2.8490    0.6330    1.2310 N   0  0  0  0  0  0  0  0  0  0  0  0
   -2.1120    1.6310    1.1840 N   0  0  0  0  0  0  0  0  0  0  0  0
   -1.4370    2.6330    1.2230 C   0  0  0  0  0  0  0  0  0  0  0  0
   -0.4760    2.8090    0.1260 N   0  0  0  0  0  0  0  0  0  0  0  0
    0.1170    1.6950   -0.4010 O   0  0  0  0  0  0  0  0  0  0  0  0
    1.3140    1.5950    0.1080 O   0  0  0  0  0  0  0  0  0  0  0  0
    1.3570    0.5650    0.9040 O   0  0  0  0  0  0  0  0  0  0  0  0
    2.3830   -0.2350    0.5680 N   0  0  0  0  0  0  0  0  0  0  0  0
    1.8250   -1.4560    0.0500 C   0  0  0  0  0  0  0  0  0  0  0  0
    2.7840   -2.3100   -0.7210 C   0  0  0  0  0  0  0  0  0  0  0  0
    3.4210   -1.5460   -1.7570 O   0  0  0  0  0  0  0  0  0  0  0  0
    3.1680   -0.1530   -1.7170 C   0  0  0  0  0  0  0  0  0  0  0  0
    2.8960    0.4900   -2.7350 O   0  0  0  0  0  0  0  0  0  0  0  0
    3.2790    0.4110   -0.3220 C   0  0  2  0  0  0  0  0  0  0  0  0
    4.6990    0.2300    0.1750 C   0  0  0  0  0  0  0  0  0  0  0  0
    5.6990    0.9100   -0.7410 C   0  0  0  0  0  0  0  0  0  0  0  0
    5.4280    2.7280   -0.8870 P   0  0  0  0  0  0  0  0  0  0  0  0
    5.1030    3.4550    0.6360 O   0  0  0  0  0  0  0  0  0  0  0  0
    4.3100    3.1710   -2.1060 O   0  0  0  0  0  0  0  0  0  0  0  0
   -2.6470   -2.0740    1.5640 P   0  0  0  0  0  0  0  0  0  0  0  0
   -2.1040   -1.9150    3.2290 O   0  0  0  0  0  0  0  0  0  0  0  0
   -3.8190   -3.3710    1.4950 O   0  0  0  0  0  0  0  0  0  0  0  0
  1  2  1  0
  2  3  2  0
  2  4  1  0
  4  5  1  0
  5  6  2  0
  5  9  1  0
  6  7  1  0
  7  8  1  0
  8  9  1  0
  9 10  1  6
  9 29  1  0
 10 11  1  0
 11 12  2  3
 12 13  1  0
 13 14  1  0
 14 15  1  0
 15 16  1  0
 16 17  1  0
 17 18  1  0
 17 23  1  0
 18 19  1  0
 19 20  1  0
 20 21  1  0
 21 22  2  0
 21 23  1  0
 23 24  1  1
 24 25  1  0
 25 26  1  0
 26 27  1  0
 26 28  1  0
 29 30  1  0
 29 31  1  0
M  END
