
     RDKit          3D

 31 32  0  0  0  0  0  0  0  0999 V2000
   -5.8310    3.3620    1.1250 O   0  0  0  0  0  0  0  0  0  0  0  0
   -6.5360    3.0960    0.1020 C   0  0  0  0  0  0  0  0  0  0  0  0
   -5.9530    2.8110   -1.1400 N   0  0  0  0  0  0  0  0  0  0  0  0
   -4.5140    2.8060   -1.3130 C   0  0  2  0  0  0  0  0  0  0  0  0
   -4.0290    4.0190   -0.8500 O   0  0  0  0  0  0  0  0  0  0  0  0
   -4.2360    2.6330   -2.6230 O   0  0  0  0  0  0  0  0  0  0  0  0
   -3.8900    1.7450   -0.3900 C   0  0  0  0  0  0  0  0  0  0  0  0
   -4.6670    1.0110    0.2620 N   0  0  0  0  0  0  0  0  0  0  0  0
   -4.5320   -0.0330    1.1740 N   0  0  0  0  0  0  0  0  0  0  0  0
   -4.2380   -1.2930    0.7880 N   0  0  0  0  0  0  0  0  0  0  0  0
   -3.3680   -2.1660    0.8770 C   0  0  0  0  0  0  0  0  0  0  0  0
   -3.3800   -3.4600    0.3100 O   0  0  0  0  0  0  0  0  0  0  0  0
   -2.1740   -4.0780    0.5490 C   0  0  0  0  0  0  0  0  0  0  0  0
   -1.2290   -2.9620    0.9000 C   0  0  2  0  0  0  0  0  0  0  0  0
   -2.1390   -2.0910    1.5690 O   0  0  0  0  0  0  0  0  0  0  0  0
   -0.8500   -2.2280   -0.2490 O   0  0  0  0  0  0  0  0  0  0  0  0
    0.1370   -0.9370    0.3560 P   0  0  0  0  0  0  0  0  0  0  0  0
    1.6360   -0.9060   -0.5940 N   0  0  0  0  0  0  0  0  0  0  0  0
    2.7930   -1.5330   -0.0630 C   0  0  0  0  0  0  0  0  0  0  0  0
    2.7660   -2.1050    1.0710 O   0  0  0  0  0  0  0  0  0  0  0  0
    4.0340   -1.5550   -0.7650 N   0  0  0  0  0  0  0  0  0  0  0  0
    5.1930   -2.1920   -0.2120 C   0  0  0  0  0  0  0  0  0  0  0  0
    5.6470   -1.6060    1.0850 C   0  0  0  0  0  0  0  0  0  0  0  0
    6.0110   -0.3020    1.1020 O   0  0  0  0  0  0  0  0  0  0  0  0
    5.0930    0.6360    0.7740 C   0  0  0  0  0  0  0  0  0  0  0  0
    5.9330    2.3130    0.9560 P   0  0  0  0  0  0  0  0  0  0  0  0
    7.4410    2.3040    0.0700 O   0  0  0  0  0  0  0  0  0  0  0  0
    4.8860    3.5630    0.3490 O   0  0  0  0  0  0  0  0  0  0  0  0
   -0.6710    0.5550    0.4970 O   0  0  0  0  0  0  0  0  0  0  0  0
   -1.6130    0.6660   -0.5210 C   0  0  0  0  0  0  0  0  0  0  0  0
   -2.5430    1.6650   -0.3320 O   0  0  0  0  0  0  0  0  0  0  0  0
  1  2  2  0
  2  3  1  0
  3  4  1  0
  4  5  1  1
  4  6  1  0
  4  7  1  0
  7  8  2  0
  7 31  1  0
  8  9  1  0
  9 10  1  0
 10 11  2  0
 11 12  1  0
 11 15  1  0
 12 13  1  0
 14 13  1  6
 14 15  1  0
 14 16  1  0
 16 17  1  0
 17 18  1  0
 17 29  1  0
 18 19  1  0
 19 20  2  0
 19 21  1  0
 21 22  1  0
 22 23  1  0
 23 24  1  0
 24 25  1  0
 25 26  1  0
 26 27  1  0
 26 28  1  0
 29 30  1  0
 30 31  1  0
M  END
