
     RDKit          3D

 31 32  0  0  0  0  0  0  0  0999 V2000
   -2.5640   -3.0020   -1.4660 N   0  0  0  0  0  0  0  0  0  0  0  0
   -2.5030   -2.0560   -0.6060 C   0  0  0  0  0  0  0  0  0  0  0  0
   -3.8580   -1.4730   -0.5340 N   0  0  0  0  0  0  0  0  0  0  0  0
   -4.5870   -1.0450    1.0640 P   0  0  0  0  0  0  0  0  0  0  0  0
   -3.4690   -0.6100    2.2790 O   0  0  0  0  0  0  0  0  0  0  0  0
   -5.8030    0.2370    0.8370 N   0  0  0  0  0  0  0  0  0  0  0  0
   -6.0290    0.5200   -0.4740 O   0  0  0  0  0  0  0  0  0  0  0  0
   -5.3940    1.7140   -0.8310 C   0  0  0  0  0  0  0  0  0  0  0  0
   -4.1770    1.3410   -1.4430 O   0  0  0  0  0  0  0  0  0  0  0  0
   -3.1270    1.8190   -0.6480 C   0  0  0  0  0  0  0  0  0  0  0  0
   -1.8740    1.1930   -1.1470 C   0  0  0  0  0  0  0  0  0  0  0  0
   -1.8370    1.1830   -2.4370 O   0  0  0  0  0  0  0  0  0  0  0  0
   -0.7900    0.6490   -0.4910 N   0  0  0  0  0  0  0  0  0  0  0  0
   -0.4910   -0.5850    0.1530 C   0  0  1  0  0  0  0  0  0  0  0  0
    0.8890   -1.0010   -0.4460 C   0  0  0  0  0  0  0  0  0  0  0  0
    1.9550   -1.0840    0.5770 C   0  0  2  0  0  0  0  0  0  0  0  0
    3.2740   -1.1670   -0.0380 N   0  0  0  0  0  0  0  0  0  0  0  0
    3.5570    0.2320   -0.4280 C   0  0  1  0  0  0  0  0  0  0  0  0
    4.6650    0.7390    0.4420 C   0  0  0  0  0  0  0  0  0  0  0  0
    5.8260    0.8030    0.0590 O   0  0  0  0  0  0  0  0  0  0  0  0
    4.3580    1.1590    1.7880 O   0  0  0  0  0  0  0  0  0  0  0  0
    5.4220    1.5600    2.5460 O   0  0  0  0  0  0  0  0  0  0  0  0
    6.3810    2.0860    1.8390 O   0  0  0  0  0  0  0  0  0  0  0  0
    4.1630    0.3470   -2.1720 P   0  0  0  0  0  0  0  0  0  0  0  0
    5.8440   -0.0790   -2.2340 O   0  0  0  0  0  0  0  0  0  0  0  0
    3.9640    1.9630   -2.7610 O   0  0  0  0  0  0  0  0  0  0  0  0
    1.6360   -2.0080    1.6660 C   0  0  0  0  0  0  0  0  0  0  0  0
    0.4780   -1.4160    2.3100 O   0  0  0  0  0  0  0  0  0  0  0  0
   -0.2320   -0.4500    1.6240 C   0  0  0  0  0  0  0  0  0  0  0  0
   -0.6490    0.5590    2.2700 O   0  0  0  0  0  0  0  0  0  0  0  0
   -1.3460   -1.7000    0.0030 N   0  0  0  0  0  0  0  0  0  0  0  0
  1  2  2  0
  2  3  1  0
  2 31  1  0
  3  4  1  0
  4  5  1  0
  4  6  1  0
  6  7  1  0
  7  8  1  0
  8  9  1  0
  9 10  1  0
 10 11  1  0
 11 12  2  0
 11 13  1  0
 13 14  1  0
 14 15  1  6
 14 29  1  0
 14 31  1  0
 15 16  1  0
 16 17  1  6
 16 27  1  0
 18 17  1  1
 18 19  1  0
 18 24  1  0
 19 20  2  0
 19 21  1  0
 21 22  1  0
 22 23  1  0
 24 25  1  0
 24 26  1  0
 27 28  1  0
 28 29  1  0
 29 30  2  0
M  END
