
     RDKit          3D

 15 16  0  0  0  0  0  0  0  0999 V2000
   -3.5140   -0.4790    0.0360 O   0  0  0  0  0  0  0  0  0  0  0  0
   -3.2860    0.9120    0.0630 C   0  0  0  0  0  0  0  0  0  0  0  0
   -1.7660    1.1130   -0.0700 C   0  0  2  0  0  0  0  0  0  0  0  0
   -1.2690    0.5410   -1.3330 C   0  0  0  0  0  0  0  0  0  0  0  0
    0.0310   -0.1490   -1.3350 C   0  0  0  0  0  0  0  0  0  0  0  0
    0.5980   -0.4840    0.0010 C   0  0  1  0  0  0  0  0  0  0  0  0
    1.5460   -1.6310    0.0040 C   0  0  0  0  0  0  0  0  0  0  0  0
    2.4300   -1.4760    1.0750 O   0  0  0  0  0  0  0  0  0  0  0  0
    3.2890   -0.3990    0.8840 C   0  0  0  0  0  0  0  0  0  0  0  0
    2.5670    0.6400    0.0720 C   0  0  2  0  0  0  0  0  0  0  0  0
    3.1030    1.9280    0.2620 O   0  0  0  0  0  0  0  0  0  0  0  0
    1.2380    0.6600    0.4950 O   0  0  0  0  0  0  0  0  0  0  0  0
   -0.6100   -0.8000    0.8960 C   0  0  1  0  0  0  0  0  0  0  0  0
   -0.2430   -1.4920    2.0150 O   0  0  0  0  0  0  0  0  0  0  0  0
   -1.1760    0.5760    1.1860 C   0  0  0  0  0  0  0  0  0  0  0  0
  1  2  1  0
  3  2  1  1
  3  4  1  0
  3 15  1  0
  4  5  1  0
  6  5  1  6
  6  7  1  0
  6 12  1  0
  6 13  1  0
  7  8  1  0
  8  9  1  0
  9 10  1  0
 10 11  1  1
 10 12  1  0
 13 14  1  1
 13 15  1  0
M  END
