
     RDKit          3D

 15 16  0  0  0  0  0  0  0  0999 V2000
    4.4040    0.9150   -0.1550 O   0  0  0  0  0  0  0  0  0  0  0  0
    3.3820    0.2440   -0.7850 C   0  0  0  0  0  0  0  0  0  0  0  0
    2.0800    0.5820   -0.0550 C   0  0  0  0  0  0  0  0  0  0  0  0
    0.9280   -0.1350   -0.7150 C   0  0  1  0  0  0  0  0  0  0  0  0
    1.2610   -1.5120   -0.6000 O   0  0  0  0  0  0  0  0  0  0  0  0
    1.0890   -1.7690    0.7430 C   0  0  0  0  0  0  0  0  0  0  0  0
    0.3690   -0.7200    1.3080 O   0  0  0  0  0  0  0  0  0  0  0  0
   -0.3000   -0.2050    0.1690 C   0  0  2  0  0  0  0  0  0  0  0  0
   -1.1900   -1.3350   -0.2600 C   0  0  0  0  0  0  0  0  0  0  0  0
   -2.2510   -0.9870   -1.2250 C   0  0  0  0  0  0  0  0  0  0  0  0
   -3.0760    0.1760   -0.6580 C   0  0  0  0  0  0  0  0  0  0  0  0
   -2.1220    1.3170   -0.5510 C   0  0  0  0  0  0  0  0  0  0  0  0
   -0.9900    1.0630    0.4290 C   0  0  1  0  0  0  0  0  0  0  0  0
   -1.5680    0.9840    1.7200 O   0  0  0  0  0  0  0  0  0  0  0  0
   -0.2130    2.1890    0.4200 O   0  0  0  0  0  0  0  0  0  0  0  0
  1  2  1  0
  2  3  1  0
  4  3  1  1
  4  5  1  0
  4  8  1  0
  5  6  1  0
  6  7  1  0
  7  8  1  0
  8  9  1  6
  8 13  1  0
  9 10  1  0
 10 11  1  0
 11 12  1  0
 12 13  1  0
 13 14  1  1
 13 15  1  0
M  END
