
     RDKit          3D

 26 28  0  0  0  0  0  0  0  0999 V2000
   -7.4360    1.3430   -1.0000 C   0  0  0  0  0  0  0  0  0  0  0  0
   -6.3460    0.9060   -0.0120 C   0  0  0  0  0  0  0  0  0  0  0  0
   -5.1060    1.6790   -0.3910 C   0  0  0  0  0  0  0  0  0  0  0  0
   -3.9340    1.3700    0.4810 C   0  0  0  0  0  0  0  0  0  0  0  0
   -3.5340   -0.0010    0.4610 N   0  0  1  0  0  0  0  0  0  0  0  0
   -2.0970   -0.1600    0.4180 C   0  0  0  0  0  0  0  0  0  0  0  0
   -1.2330   -0.9210    0.3880 N   0  0  0  0  0  0  0  0  0  0  0  0
    0.0880   -0.7530    0.3510 C   0  0  0  0  0  0  0  0  0  0  0  0
    1.0250   -1.9160    0.5170 C   0  0  0  0  0  0  0  0  0  0  0  0
    0.5520   -3.2440    0.3900 N   0  0  0  0  0  0  0  0  0  0  0  0
    2.2140   -1.7420    0.7650 O   0  0  0  0  0  0  0  0  0  0  0  0
    0.5340    0.5340    0.3380 C   0  0  0  0  0  0  0  0  0  0  0  0
    1.6800    1.2570    0.1270 N   0  0  0  0  0  0  0  0  0  0  0  0
    2.8760    0.9650   -0.5460 C   0  0  0  0  0  0  0  0  0  0  0  0
    3.0040   -0.0940   -1.1540 O   0  0  0  0  0  0  0  0  0  0  0  0
    3.9890    1.8520   -0.5670 N   0  0  0  0  0  0  0  0  0  0  0  0
    5.2450    1.6290   -1.2290 C   0  0  0  0  0  0  0  0  0  0  0  0
    5.9050    0.4080   -0.6810 C   0  0  1  0  0  0  0  0  0  0  0  0
    6.1070    0.4770    0.7190 O   0  0  0  0  0  0  0  0  0  0  0  0
    5.6500   -0.8980   -1.3370 C   0  0  0  0  0  0  0  0  0  0  0  0
    7.0340   -0.2280   -1.4330 C   0  0  2  0  0  0  0  0  0  0  0  0
    8.1080   -0.9180   -0.6240 C   0  0  0  0  0  0  0  0  0  0  0  0
   -1.0930    1.4220    0.3980 S   0  0  0  0  0  0  0  0  0  0  0  0
   -4.0930   -0.7280    1.5670 C   0  0  2  0  0  0  0  0  0  0  0  0
   -3.3880   -1.8090    2.2590 C   0  0  0  0  0  0  0  0  0  0  0  0
   -4.5580   -2.1540    1.2950 C   0  0  0  0  0  0  0  0  0  0  0  0
  1  2  1  0
  2  3  1  0
  3  4  1  0
  5  4  1  1
  5  6  1  0
  5 24  1  0
  6  7  2  0
  6 23  1  0
  7  8  1  0
  8  9  1  0
  8 12  2  0
  9 10  1  0
  9 11  2  0
 12 13  1  0
 12 23  1  0
 13 14  1  0
 14 15  2  0
 14 16  1  0
 16 17  1  0
 17 18  1  0
 18 19  1  1
 18 20  1  0
 18 21  1  0
 20 21  1  0
 21 22  1  1
 24 25  1  1
 24 26  1  0
 25 26  1  0
M  CHG  1   5   1
M  END
