
     RDKit          3D

 15 16  0  0  0  0  0  0  0  0999 V2000
   -1.1580   -2.0320   -0.6060 O   0  0  0  0  0  0  0  0  0  0  0  0
   -1.4610   -0.6860   -0.6840 C   0  0  1  0  0  0  0  0  0  0  0  0
   -2.9910   -0.5890   -0.7760 C   0  0  0  0  0  0  0  0  0  0  0  0
   -3.5400   -0.3950    0.4940 O   0  0  0  0  0  0  0  0  0  0  0  0
   -3.3730    0.9430    0.8210 C   0  0  0  0  0  0  0  0  0  0  0  0
   -1.9670    1.3380    0.5130 C   0  0  0  0  0  0  0  0  0  0  0  0
   -1.0380    0.1140    0.4930 C   0  0  2  0  0  0  0  0  0  0  0  0
    0.3380    0.6630    0.4400 C   0  0  0  0  0  0  0  0  0  0  0  0
    1.4470   -0.3090    0.3260 C   0  0  2  0  0  0  0  0  0  0  0  0
    1.2900   -1.0530   -0.8550 O   0  0  0  0  0  0  0  0  0  0  0  0
    1.7450   -1.1280    1.5170 C   0  0  0  0  0  0  0  0  0  0  0  0
    3.0570   -0.8480    1.9180 O   0  0  0  0  0  0  0  0  0  0  0  0
    3.7440   -0.4420    0.7840 C   0  0  0  0  0  0  0  0  0  0  0  0
    2.7400    0.4870    0.1360 C   0  0  1  0  0  0  0  0  0  0  0  0
    3.0070    0.7560   -1.1780 O   0  0  0  0  0  0  0  0  0  0  0  0
  2  1  1  1
  2  3  1  0
  2  7  1  0
  3  4  1  0
  4  5  1  0
  5  6  1  0
  6  7  1  0
  7  8  1  6
  8  9  1  0
  9 10  1  6
  9 11  1  0
  9 14  1  0
 11 12  1  0
 12 13  1  0
 13 14  1  0
 14 15  1  6
M  END
