
     RDKit          3D

 16 17  0  0  0  0  0  0  0  0999 V2000
   -2.0270    0.4900    2.3190 C   0  0  0  0  0  0  0  0  0  0  0  0
   -1.4480   -0.0260    1.0370 C   0  0  2  0  0  0  0  0  0  0  0  0
    0.0660    0.2280    0.9670 C   0  0  0  0  0  0  0  0  0  0  0  0
    0.6280   -0.5950   -0.1380 C   0  0  2  0  0  0  0  0  0  0  0  0
    2.0210   -0.1150   -0.4790 C   0  0  2  0  0  0  0  0  0  0  0  0
    1.9120    1.2240   -0.8710 O   0  0  0  0  0  0  0  0  0  0  0  0
    2.4720   -0.8700   -1.5720 O   0  0  0  0  0  0  0  0  0  0  0  0
    3.0100   -0.2100    0.6270 C   0  0  0  0  0  0  0  0  0  0  0  0
    2.6690    0.5460    1.7300 O   0  0  0  0  0  0  0  0  0  0  0  0
   -0.1700   -0.4460   -1.4020 C   0  0  0  0  0  0  0  0  0  0  0  0
   -1.6420   -0.3820   -1.2310 C   0  0  2  0  0  0  0  0  0  0  0  0
   -2.2690   -0.1640   -2.4200 O   0  0  0  0  0  0  0  0  0  0  0  0
   -2.0250    0.6710   -0.1780 C   0  0  0  0  0  0  0  0  0  0  0  0
   -2.0940   -1.6070   -0.5170 C   0  0  0  0  0  0  0  0  0  0  0  0
   -2.6680   -2.5810   -1.0540 O   0  0  0  0  0  0  0  0  0  0  0  0
   -1.7340   -1.3980    0.8130 O   0  0  0  0  0  0  0  0  0  0  0  0
  2  1  1  1
  2  3  1  0
  2 13  1  0
  2 16  1  0
  4  3  1  1
  4  5  1  0
  4 10  1  0
  5  6  1  6
  5  7  1  0
  5  8  1  0
  8  9  1  0
 10 11  1  0
 11 12  1  6
 11 13  1  0
 11 14  1  0
 14 15  2  0
 14 16  1  0
M  END
