
     RDKit          3D

 15 16  0  0  0  0  0  0  0  0999 V2000
   -1.5090   -2.1030    1.6660 O   0  0  0  0  0  0  0  0  0  0  0  0
   -1.5250   -1.9280    0.2830 C   0  0  0  0  0  0  0  0  0  0  0  0
   -1.3260   -0.4790   -0.0890 C   0  0  1  0  0  0  0  0  0  0  0  0
   -1.3530   -0.3730   -1.4740 O   0  0  0  0  0  0  0  0  0  0  0  0
   -2.6030    0.1860    0.4280 C   0  0  0  0  0  0  0  0  0  0  0  0
   -2.6810    1.6330    0.0570 C   0  0  0  0  0  0  0  0  0  0  0  0
   -1.2790    2.1010   -0.1820 C   0  0  0  0  0  0  0  0  0  0  0  0
   -0.4640    1.5400    0.7600 O   0  0  0  0  0  0  0  0  0  0  0  0
   -0.1900    0.1830    0.5670 C   0  0  2  0  0  0  0  0  0  0  0  0
    1.1380    0.1570   -0.0940 C   0  0  2  0  0  0  0  0  0  0  0  0
    1.6930   -1.1740   -0.4670 C   0  0  0  0  0  0  0  0  0  0  0  0
    2.9060   -0.9520   -1.1250 O   0  0  0  0  0  0  0  0  0  0  0  0
    3.8120   -0.2490   -0.3710 C   0  0  0  0  0  0  0  0  0  0  0  0
    3.1970    1.0830    0.0700 C   0  0  0  0  0  0  0  0  0  0  0  0
    2.0550    0.7720    0.7660 O   0  0  0  0  0  0  0  0  0  0  0  0
  1  2  1  0
  2  3  1  0
  3  4  1  6
  3  5  1  0
  3  9  1  0
  5  6  1  0
  6  7  1  0
  7  8  1  0
  9  8  1  6
  9 10  1  0
 10 11  1  1
 10 15  1  0
 11 12  1  0
 12 13  1  0
 13 14  1  0
 14 15  1  0
M  END
