
     RDKit          3D

 15 16  0  0  0  0  0  0  0  0999 V2000
   -0.3050   -1.5690    1.4450 C   0  0  0  0  0  0  0  0  0  0  0  0
   -0.9740   -0.5770    0.6100 C   0  0  2  0  0  0  0  0  0  0  0  0
   -1.4340    0.5840    1.5040 C   0  0  0  0  0  0  0  0  0  0  0  0
   -2.1600   -1.0360   -0.0100 O   0  0  0  0  0  0  0  0  0  0  0  0
   -2.5720   -0.0390   -0.8520 C   0  0  0  0  0  0  0  0  0  0  0  0
   -1.3750    0.8570   -1.1430 C   0  0  2  0  0  0  0  0  0  0  0  0
   -1.1770    1.0450   -2.4970 O   0  0  0  0  0  0  0  0  0  0  0  0
   -0.2580   -0.0080   -0.5380 C   0  0  1  0  0  0  0  0  0  0  0  0
    1.0410    0.6690   -0.3410 C   0  0  1  0  0  0  0  0  0  0  0  0
    1.7670    0.1090    0.6760 O   0  0  0  0  0  0  0  0  0  0  0  0
    2.3370    0.9890    1.5520 C   0  0  0  0  0  0  0  0  0  0  0  0
    3.0330    0.2330    2.5150 O   0  0  0  0  0  0  0  0  0  0  0  0
    1.4270    0.1860   -1.7460 C   0  0  0  0  0  0  0  0  0  0  0  0
    0.3160   -0.8620   -1.5820 C   0  0  1  0  0  0  0  0  0  0  0  0
    0.8630   -2.0700   -1.2770 O   0  0  0  0  0  0  0  0  0  0  0  0
  2  1  1  1
  2  3  1  0
  2  4  1  0
  2  8  1  0
  4  5  1  0
  5  6  1  0
  6  7  1  6
  8  6  1  6
  8  9  1  0
  8 14  1  0
  9 10  1  1
  9 13  1  0
 10 11  1  0
 11 12  1  0
 13 14  1  0
 14 15  1  1
M  END
