
     RDKit          3D

 11 11  0  0  0  0  0  0  0  0999 V2000
   -1.7030   -1.2220    0.2160 N   0  0  0  0  0  0  0  0  0  0  0  0
   -1.4480   -0.1640   -0.7120 C   0  0  2  0  0  0  0  0  0  0  0  0
   -0.0720   -0.2020   -1.3100 C   0  0  0  0  0  0  0  0  0  0  0  0
    0.9900   -0.0980   -0.2770 C   0  0  0  0  0  0  0  0  0  0  0  0
    2.3370   -0.1080   -0.5710 C   0  0  0  0  0  0  0  0  0  0  0  0
    3.0110    0.0030    0.5920 N   0  0  0  0  0  0  0  0  0  0  0  0
    2.1280    0.0840    1.6080 C   0  0  0  0  0  0  0  0  0  0  0  0
    0.8960    0.0200    1.0500 N   0  0  0  0  0  0  0  0  0  0  0  0
   -1.6760    1.1800   -0.1390 C   0  0  0  0  0  0  0  0  0  0  0  0
   -1.4850    2.1810   -0.8560 O   0  0  0  0  0  0  0  0  0  0  0  0
   -2.0930    1.2830    1.1710 O   0  0  0  0  0  0  0  0  0  0  0  0
  2  1  1  1
  2  3  1  0
  2  9  1  0
  3  4  1  0
  4  5  2  0
  4  8  1  0
  5  6  1  0
  6  7  1  0
  7  8  2  0
  9 10  2  0
  9 11  1  0
M  CHG  1   1   1
M  END
