
     RDKit          3D

 18 18  0  0  0  0  0  0  0  0999 V2000
    4.9520    1.4820    0.0310 C   0  0  0  0  0  0  0  0  0  0  0  0
    5.6040    0.1070    0.1820 C   0  0  0  0  0  0  0  0  0  0  0  0
    4.7380   -1.1490   -0.7580 S   0  0  0  0  0  0  0  0  0  0  0  0
    3.0890   -1.4440   -0.1190 C   0  0  0  0  0  0  0  0  0  0  0  0
    2.6390   -0.8170    0.8790 O   0  0  0  0  0  0  0  0  0  0  0  0
    2.2450   -2.3760   -0.7020 O   0  0  0  0  0  0  0  0  0  0  0  0
    0.9520   -2.6570   -0.2580 C   0  0  0  0  0  0  0  0  0  0  0  0
    0.0530   -1.4860   -0.2890 C   0  0  0  0  0  0  0  0  0  0  0  0
    0.4090   -0.3330   -0.6800 O   0  0  0  0  0  0  0  0  0  0  0  0
   -1.2820   -1.6300    0.1340 N   0  0  0  0  0  0  0  0  0  0  0  0
   -2.2280   -0.5440    0.1370 C   0  0  0  0  0  0  0  0  0  0  0  0
   -2.7570   -0.2200    1.3040 C   0  0  0  0  0  0  0  0  0  0  0  0
   -3.9370    1.0170    1.7930 S   0  0  0  0  0  0  0  0  0  0  0  0
   -4.8840    1.5810    0.3610 C   0  0  0  0  0  0  0  0  0  0  0  0
   -3.9060    2.1940   -0.6240 C   0  0  0  0  0  0  0  0  0  0  0  0
   -3.3790    1.1570   -1.4930 N   0  0  0  0  0  0  0  0  0  0  0  0
   -2.5110    0.0940   -1.1390 C   0  0  0  0  0  0  0  0  0  0  0  0
   -1.8620   -0.3940   -2.0990 O   0  0  0  0  0  0  0  0  0  0  0  0
  1  2  1  0
  2  3  1  0
  3  4  1  0
  4  5  2  0
  4  6  1  0
  6  7  1  0
  7  8  1  0
  8  9  2  0
  8 10  1  0
 10 11  1  0
 11 12  2  0
 11 17  1  0
 12 13  1  0
 13 14  1  0
 14 15  1  0
 15 16  1  0
 16 17  1  0
 17 18  2  0
M  END
