
     RDKit          3D

 18 18  0  0  0  0  0  0  0  0999 V2000
    3.8780    1.7790   -0.7990 C   0  0  0  0  0  0  0  0  0  0  0  0
    4.0490    0.4220   -0.2170 C   0  0  0  0  0  0  0  0  0  0  0  0
    3.1630   -0.3150    0.3610 C   0  0  0  0  0  0  0  0  0  0  0  0
    1.7290   -0.0520    0.6240 C   0  0  0  0  0  0  0  0  0  0  0  0
    1.0290   -0.9470    1.2260 O   0  0  0  0  0  0  0  0  0  0  0  0
    1.0250    1.1090    0.2770 N   0  0  0  0  0  0  0  0  0  0  0  0
   -0.3610    1.1640    0.6240 N   0  0  0  0  0  0  0  0  0  0  0  0
   -1.3380    0.4400   -0.1030 C   0  0  0  0  0  0  0  0  0  0  0  0
   -1.0110   -0.2710   -1.0770 O   0  0  0  0  0  0  0  0  0  0  0  0
   -2.6680    0.5260    0.2730 O   0  0  0  0  0  0  0  0  0  0  0  0
   -3.7080   -0.1540   -0.3860 C   0  0  1  0  0  0  0  0  0  0  0  0
   -3.8450    0.2120   -1.8300 C   0  0  0  0  0  0  0  0  0  0  0  0
   -3.5410   -1.6620   -0.2450 C   0  0  0  0  0  0  0  0  0  0  0  0
   -5.0010    0.1910    0.3620 C   0  0  0  0  0  0  0  0  0  0  0  0
    3.8080   -1.9210    0.9040 S   0  0  0  0  0  0  0  0  0  0  0  0
    5.5570   -1.5170    1.1380 C   0  0  2  0  0  0  0  0  0  0  0  0
    5.7270   -0.8490    2.3280 O   0  0  0  0  0  0  0  0  0  0  0  0
    5.6930   -0.3450   -0.2770 S   0  0  0  0  0  0  0  0  0  0  0  0
  1  2  1  0
  2  3  2  0
  2 18  1  0
  3  4  1  0
  3 15  1  0
  4  5  2  0
  4  6  1  0
  6  7  1  0
  7  8  1  0
  8  9  2  0
  8 10  1  0
 10 11  1  0
 11 12  1  6
 11 13  1  0
 11 14  1  0
 15 16  1  0
 16 17  1  1
 16 18  1  0
M  END
