
     RDKit          3D

 18 18  0  0  0  0  0  0  0  0999 V2000
    6.5190   -0.0990   -0.3940 C   0  0  0  0  0  0  0  0  0  0  0  0
    5.3290    0.7890   -0.4730 C   0  0  0  0  0  0  0  0  0  0  0  0
    4.2050    0.4300    0.1480 C   0  0  0  0  0  0  0  0  0  0  0  0
    2.9770    1.2700    0.1110 C   0  0  0  0  0  0  0  0  0  0  0  0
    1.8040    0.4590   -0.1290 N   0  0  0  0  0  0  0  0  0  0  0  0
    1.5110   -0.6990    0.6340 C   0  0  0  0  0  0  0  0  0  0  0  0
   -0.1930   -1.1910    0.8540 S   0  0  0  0  0  0  0  0  0  0  0  0
   -1.3200   -0.0510    0.0080 C   0  0  0  0  0  0  0  0  0  0  0  0
   -2.7040   -0.5070    0.2250 C   0  0  0  0  0  0  0  0  0  0  0  0
   -2.9630   -1.5220    0.8950 O   0  0  0  0  0  0  0  0  0  0  0  0
   -3.7510    0.1990   -0.3230 O   0  0  0  0  0  0  0  0  0  0  0  0
   -5.0960   -0.1750   -0.1590 C   0  0  2  0  0  0  0  0  0  0  0  0
   -5.7860   -0.5150   -1.4500 C   0  0  0  0  0  0  0  0  0  0  0  0
   -5.8480    0.9060    0.5630 C   0  0  0  0  0  0  0  0  0  0  0  0
    2.4100   -1.4250    1.1840 N   0  0  0  0  0  0  0  0  0  0  0  0
    4.1080   -1.0680    1.0540 S   0  0  1  0  0  0  0  0  0  0  0  0
    4.8310   -2.1710    0.3420 O   0  0  0  0  0  0  0  0  0  0  0  0
    4.6300   -0.8370    2.4280 O   0  0  0  0  0  0  0  0  0  0  0  0
  1  2  1  0
  2  3  2  3
  3  4  1  0
  3 16  1  0
  4  5  1  0
  5  6  1  0
  6  7  1  0
  6 15  2  0
  7  8  1  0
  8  9  1  0
  9 10  2  0
  9 11  1  0
 11 12  1  0
 12 13  1  6
 12 14  1  0
 16 15  1  1
 16 17  2  0
 16 18  2  0
M  END
