
     RDKit          3D

 18 19  0  0  0  0  0  0  0  0999 V2000
   -1.8510    1.6090   -2.5150 O   0  0  0  0  0  0  0  0  0  0  0  0
   -0.9660    1.5400   -1.6370 C   0  0  0  0  0  0  0  0  0  0  0  0
    0.3730    2.1100   -1.8800 C   0  0  0  0  0  0  0  0  0  0  0  0
    1.4820    1.8400   -0.4860 S   0  0  0  0  0  0  0  0  0  0  0  0
    1.8870    0.1050   -0.2660 C   0  0  0  0  0  0  0  0  0  0  0  0
    3.0580   -0.2470    0.1690 C   0  0  0  0  0  0  0  0  0  0  0  0
    4.3930    0.8480    0.6000 S   0  0  0  0  0  0  0  0  0  0  0  0
    5.6210   -0.4300    0.8680 C   0  0  0  0  0  0  0  0  0  0  0  0
    6.8480   -0.2560    1.0920 O   0  0  0  0  0  0  0  0  0  0  0  0
    4.9120   -1.6490    0.7720 N   0  0  0  0  0  0  0  0  0  0  0  0
    3.5750   -1.5660    0.4090 C   0  0  0  0  0  0  0  0  0  0  0  0
    2.8310   -2.6080    0.2900 O   0  0  0  0  0  0  0  0  0  0  0  0
   -1.2920    0.9020   -0.4140 N   0  0  0  0  0  0  0  0  0  0  0  0
   -2.5770    0.3360   -0.1400 C   0  0  1  0  0  0  0  0  0  0  0  0
   -2.4890   -1.1770    0.1060 C   0  0  0  0  0  0  0  0  0  0  0  0
   -3.8410   -1.3550    0.8120 C   0  0  0  0  0  0  0  0  0  0  0  0
   -3.8850   -0.3010    1.6880 O   0  0  0  0  0  0  0  0  0  0  0  0
   -3.1760    0.7720    1.1710 C   0  0  0  0  0  0  0  0  0  0  0  0
  1  2  2  0
  2  3  1  0
  2 13  1  0
  3  4  1  0
  4  5  1  0
  5  6  2  3
  6  7  1  0
  6 11  1  0
  7  8  1  0
  8  9  2  0
  8 10  1  0
 10 11  1  0
 11 12  2  0
 14 13  1  1
 14 15  1  0
 14 18  1  0
 15 16  1  0
 16 17  1  0
 17 18  1  0
M  END
