
     RDKit          3D

 18 19  0  0  0  0  0  0  0  0999 V2000
   -3.8000   -1.0400    1.0950 C   0  0  0  0  0  0  0  0  0  0  0  0
   -3.8400    0.1750    0.1710 C   0  0  0  0  0  0  0  0  0  0  0  0
   -4.9470    0.8330   -0.0250 N   0  0  0  0  0  0  0  0  0  0  0  0
   -4.9330    1.8980   -0.8480 C   0  0  0  0  0  0  0  0  0  0  0  0
   -5.8530    2.6970   -1.2060 O   0  0  0  0  0  0  0  0  0  0  0  0
   -3.2100    1.9660   -1.3830 S   0  0  0  0  0  0  0  0  0  0  0  0
   -2.6980    0.5600   -0.4450 C   0  0  0  0  0  0  0  0  0  0  0  0
   -1.3520    0.0040   -0.3930 C   0  0  0  0  0  0  0  0  0  0  0  0
   -1.0630   -0.9950    0.2930 O   0  0  0  0  0  0  0  0  0  0  0  0
   -0.3730    0.6100   -1.1340 O   0  0  0  0  0  0  0  0  0  0  0  0
    0.9680    0.2030   -1.1960 C   0  0  0  0  0  0  0  0  0  0  0  0
    1.6490    0.2220    0.1070 C   0  0  0  0  0  0  0  0  0  0  0  0
    1.0140    0.5810    1.1220 O   0  0  0  0  0  0  0  0  0  0  0  0
    3.0200   -0.1670    0.2080 C   0  0  0  0  0  0  0  0  0  0  0  0
    3.8350   -0.5680   -0.7370 C   0  0  0  0  0  0  0  0  0  0  0  0
    5.1300   -0.8900   -0.3640 N   0  0  0  0  0  0  0  0  0  0  0  0
    5.6110   -0.2690    0.8500 C   0  0  0  0  0  0  0  0  0  0  0  0
    3.9780   -0.1780    1.7150 S   0  0  0  0  0  0  0  0  0  0  0  0
  1  2  1  0
  2  3  1  0
  2  7  2  0
  3  4  1  0
  4  5  2  0
  4  6  1  0
  6  7  1  0
  7  8  1  0
  8  9  2  0
  8 10  1  0
 10 11  1  0
 11 12  1  0
 12 13  2  0
 12 14  1  0
 14 15  2  0
 14 18  1  0
 15 16  1  0
 16 17  1  0
 17 18  1  0
M  END
