
     RDKit          3D

 18 19  0  0  0  0  0  0  0  0999 V2000
    5.6600    0.0930    0.5400 C   0  0  0  0  0  0  0  0  0  0  0  0
    4.4700   -0.5710    0.9110 O   0  0  0  0  0  0  0  0  0  0  0  0
    3.2490   -0.0210    0.4660 C   0  0  0  0  0  0  0  0  0  0  0  0
    3.3150    1.0100   -0.2220 O   0  0  0  0  0  0  0  0  0  0  0  0
    2.0880   -0.6950    0.8460 N   0  0  0  0  0  0  0  0  0  0  0  0
    0.7990   -0.2580    0.4720 C   0  0  0  0  0  0  0  0  0  0  0  0
    0.4770    0.8360   -0.2830 C   0  0  0  0  0  0  0  0  0  0  0  0
   -0.7750    1.2510   -0.6390 C   0  0  0  0  0  0  0  0  0  0  0  0
   -0.8810    2.3080   -1.3560 O   0  0  0  0  0  0  0  0  0  0  0  0
   -1.9690    0.6630   -0.3190 C   0  0  0  0  0  0  0  0  0  0  0  0
   -3.1840    1.1860   -0.7460 C   0  0  0  0  0  0  0  0  0  0  0  0
   -3.1640    2.2280   -1.4440 O   0  0  0  0  0  0  0  0  0  0  0  0
   -4.3670    0.6030   -0.4280 N   0  0  0  0  0  0  0  0  0  0  0  0
   -4.4380   -0.5060    0.3120 C   0  0  0  0  0  0  0  0  0  0  0  0
   -3.2800   -1.0800    0.7700 C   0  0  0  0  0  0  0  0  0  0  0  0
   -3.2280   -2.5560    1.7640 S   0  0  0  0  0  0  0  0  0  0  0  0
   -2.0510   -0.4890    0.4490 C   0  0  0  0  0  0  0  0  0  0  0  0
   -0.5910   -1.1530    0.9860 S   0  0  0  0  0  0  0  0  0  0  0  0
  1  2  1  0
  2  3  1  0
  3  4  2  0
  3  5  1  0
  5  6  1  0
  6  7  2  0
  6 18  1  0
  7  8  1  0
  8  9  2  0
  8 10  1  0
 10 11  1  0
 10 17  2  0
 11 12  2  0
 11 13  1  0
 13 14  1  0
 14 15  2  0
 15 16  1  0
 15 17  1  0
 17 18  1  0
M  END
