
     RDKit          3D

 18 19  0  0  0  0  0  0  0  0999 V2000
    5.8710    0.6130   -0.2700 C   0  0  0  0  0  0  0  0  0  0  0  0
    4.7120    0.1000    0.5520 C   0  0  0  0  0  0  0  0  0  0  0  0
    3.7130   -0.4620   -0.3470 N   0  0  0  0  0  0  0  0  0  0  0  0
    2.5090   -1.0180    0.1870 C   0  0  0  0  0  0  0  0  0  0  0  0
    2.3670   -0.9980    1.4180 O   0  0  0  0  0  0  0  0  0  0  0  0
    1.4780   -1.5920   -0.6580 C   0  0  0  0  0  0  0  0  0  0  0  0
    1.5990   -1.6250   -1.9200 O   0  0  0  0  0  0  0  0  0  0  0  0
    0.3210   -2.1220   -0.0710 N   0  0  0  0  0  0  0  0  0  0  0  0
   -0.8330   -1.2990   -0.1640 C   0  0  0  0  0  0  0  0  0  0  0  0
   -2.3480   -1.7430    0.4810 S   0  0  0  0  0  0  0  0  0  0  0  0
   -3.4520   -0.4540    0.1400 C   0  0  0  0  0  0  0  0  0  0  0  0
   -2.8350    0.4700   -0.4960 C   0  0  0  0  0  0  0  0  0  0  0  0
   -1.1220    0.1330   -0.8030 S   0  0  0  0  0  0  0  0  0  0  0  0
   -3.5540    1.7740   -0.9340 C   0  0  0  0  0  0  0  0  0  0  0  0
   -2.9470    2.6480   -1.5440 O   0  0  0  0  0  0  0  0  0  0  0  0
   -4.9090    1.8270   -0.5690 O   0  0  0  0  0  0  0  0  0  0  0  0
   -5.3330    1.0810    0.5660 C   0  0  0  0  0  0  0  0  0  0  0  0
   -4.9600   -0.3570    0.4990 C   0  0  0  0  0  0  0  0  0  0  0  0
  1  2  1  0
  2  3  1  0
  3  4  1  0
  4  5  2  0
  4  6  1  0
  6  7  2  0
  6  8  1  0
  8  9  2  3
  9 10  1  0
  9 13  1  0
 10 11  1  0
 11 12  2  0
 11 18  1  0
 12 13  1  0
 12 14  1  0
 14 15  2  0
 14 16  1  0
 16 17  1  0
 17 18  1  0
M  END
