
     RDKit          3D

 18 19  0  0  0  0  0  0  0  0999 V2000
   -2.0780    1.8970    0.3960 O   0  0  0  0  0  0  0  0  0  0  0  0
   -1.6460    0.7430    0.1150 C   0  0  0  0  0  0  0  0  0  0  0  0
   -2.5890   -0.2690   -0.1830 N   0  0  0  0  0  0  0  0  0  0  0  0
   -3.9920   -0.0110   -0.1700 C   0  0  1  0  0  0  0  0  0  0  0  0
   -4.7320   -0.3760   -1.4430 C   0  0  0  0  0  0  0  0  0  0  0  0
   -5.8360   -0.9470   -0.5800 C   0  0  0  0  0  0  0  0  0  0  0  0
   -4.8640   -0.9660    0.5850 C   0  0  0  0  0  0  0  0  0  0  0  0
   -0.2940    0.5080    0.1070 O   0  0  0  0  0  0  0  0  0  0  0  0
    0.6820    1.4820    0.3960 C   0  0  1  0  0  0  0  0  0  0  0  0
    1.6690    0.8880    1.8350 S   0  0  0  0  0  0  0  0  0  0  0  0
    2.9820    0.1720    0.8410 C   0  0  0  0  0  0  0  0  0  0  0  0
    4.2320   -0.9720    1.4350 S   0  0  0  0  0  0  0  0  0  0  0  0
    5.3050   -1.3710    0.0240 C   0  0  0  0  0  0  0  0  0  0  0  0
    6.0320   -0.0690   -0.3380 C   0  0  0  0  0  0  0  0  0  0  0  0
    6.7630    0.3180    0.7900 O   0  0  0  0  0  0  0  0  0  0  0  0
    2.8340    0.6370   -0.3280 N   0  0  0  0  0  0  0  0  0  0  0  0
    1.8000    1.5130   -0.5820 C   0  0  0  0  0  0  0  0  0  0  0  0
    1.7470    2.3280   -1.5830 O   0  0  0  0  0  0  0  0  0  0  0  0
  1  2  2  0
  2  3  1  0
  2  8  1  0
  4  3  1  6
  4  5  1  0
  4  7  1  0
  5  6  1  0
  6  7  1  0
  9  8  1  6
  9 10  1  0
  9 17  1  0
 10 11  1  0
 11 12  1  0
 11 16  2  0
 12 13  1  0
 13 14  1  0
 14 15  1  0
 16 17  1  0
 17 18  2  0
M  END
