
     RDKit          3D

 18 18  0  0  0  0  0  0  0  0999 V2000
    5.9760   -0.7230    1.5630 C   0  0  0  0  0  0  0  0  0  0  0  0
    4.6330   -1.1090    1.3330 O   0  0  0  0  0  0  0  0  0  0  0  0
    4.0310   -0.7860    0.1290 C   0  0  0  0  0  0  0  0  0  0  0  0
    4.6900   -0.1610   -0.7210 O   0  0  0  0  0  0  0  0  0  0  0  0
    2.6370   -1.1930   -0.0970 C   0  0  0  0  0  0  0  0  0  0  0  0
    2.0780   -0.8170   -1.3110 O   0  0  0  0  0  0  0  0  0  0  0  0
    1.8930    0.4530   -1.7880 C   0  0  0  0  0  0  0  0  0  0  0  0
    3.1030    1.2730   -2.5000 S   0  0  0  0  0  0  0  0  0  0  0  0
    0.6280    1.0760   -1.6640 N   0  0  0  0  0  0  0  0  0  0  0  0
   -0.4900    0.4010   -1.0440 C   0  0  0  0  0  0  0  0  0  0  0  0
   -0.3410   -0.7510   -0.6150 O   0  0  0  0  0  0  0  0  0  0  0  0
   -1.7260    1.0430   -0.9320 N   0  0  0  0  0  0  0  0  0  0  0  0
   -2.8830    0.4530   -0.3350 C   0  0  0  0  0  0  0  0  0  0  0  0
   -3.0440   -0.7380    0.2050 C   0  0  0  0  0  0  0  0  0  0  0  0
   -4.4210   -0.9320    0.7050 C   0  0  0  0  0  0  0  0  0  0  0  0
   -5.0800    0.3480    0.3790 C   0  0  0  0  0  0  0  0  0  0  0  0
   -6.8120    0.7380    0.7470 S   0  0  0  0  0  0  0  0  0  0  0  0
   -4.2010    1.1100   -0.2040 C   0  0  0  0  0  0  0  0  0  0  0  0
  1  2  1  0
  2  3  1  0
  3  4  2  0
  3  5  1  0
  5  6  1  0
  6  7  1  0
  7  8  2  0
  7  9  1  0
  9 10  1  0
 10 11  2  0
 10 12  1  0
 12 13  1  0
 13 14  2  0
 13 18  1  0
 14 15  1  0
 15 16  1  0
 16 17  1  0
 16 18  2  0
M  END
