
     RDKit          3D

 32 34  0  0  0  0  0  0  0  0999 V2000
   -6.8320    1.9820   -0.2760 C   0  0  0  0  0  0  0  0  0  0  0  0
   -6.9450    0.6100    0.3610 C   0  0  0  0  0  0  0  0  0  0  0  0
   -6.0020    0.3880    1.4940 C   0  0  0  0  0  0  0  0  0  0  0  0
   -4.5800    0.4550    1.3230 C   0  0  0  0  0  0  0  0  0  0  0  0
   -3.8080   -0.5440    0.4540 C   0  0  2  0  0  0  0  0  0  0  0  0
   -2.3980   -0.1020    0.6280 C   0  0  0  0  0  0  0  0  0  0  0  0
   -2.2520    0.6590    1.6900 O   0  0  0  0  0  0  0  0  0  0  0  0
   -1.2000   -0.2920   -0.0570 N   0  0  0  0  0  0  0  0  0  0  0  0
   -0.0550    0.5100    0.4970 C   0  0  0  0  0  0  0  0  0  0  0  0
    1.1130   -0.3150    0.9520 C   0  0  0  0  0  0  0  0  0  0  0  0
    2.3020    0.3680    0.6860 O   0  0  0  0  0  0  0  0  0  0  0  0
    3.5650    0.2090    0.3040 C   0  0  0  0  0  0  0  0  0  0  0  0
    4.0900   -0.2220   -0.8420 C   0  0  0  0  0  0  0  0  0  0  0  0
    3.3880   -0.6640   -2.0760 C   0  0  0  0  0  0  0  0  0  0  0  0
    2.0280   -0.1610   -2.0980 C   0  0  0  0  0  0  0  0  0  0  0  0
    1.3770    0.2230   -3.4070 C   0  0  0  0  0  0  0  0  0  0  0  0
   -0.0390    0.2070   -2.9800 O   0  0  0  0  0  0  0  0  0  0  0  0
   -0.5140   -0.8310   -2.3110 N   0  0  0  0  0  0  0  0  0  0  0  0
   -0.9830   -1.1230   -1.1880 C   0  0  0  0  0  0  0  0  0  0  0  0
   -1.3490   -2.5860   -1.0430 C   0  0  0  0  0  0  0  0  0  0  0  0
    5.5810   -0.3580   -1.1090 C   0  0  0  0  0  0  0  0  0  0  0  0
    6.2890    0.8110   -0.6930 N   0  0  0  0  0  0  0  0  0  0  0  0
    6.7430    0.8550    0.6410 C   0  0  0  0  0  0  0  0  0  0  0  0
    5.8960    0.1390    1.6570 C   0  0  0  0  0  0  0  0  0  0  0  0
    4.5020    0.6210    1.4320 C   0  0  0  0  0  0  0  0  0  0  0  0
    4.0200    1.5110    2.2870 C   0  0  0  0  0  0  0  0  0  0  0  0
    4.8780    1.9490    3.3980 C   0  0  0  0  0  0  0  0  0  0  0  0
    2.7780    2.0230    2.1710 F   0  0  0  0  0  0  0  0  0  0  0  0
   -4.1300   -0.5390   -0.9630 C   0  0  0  0  0  0  0  0  0  0  0  0
   -4.7790   -1.7340   -1.5160 C   0  0  0  0  0  0  0  0  0  0  0  0
   -4.6670   -2.9490   -0.1880 S   0  0  0  0  0  0  0  0  0  0  0  0
   -3.9330   -1.9090    1.0880 C   0  0  0  0  0  0  0  0  0  0  0  0
  1  2  1  0
  2  3  1  0
  3  4  1  0
  5  4  1  1
  5  6  1  0
  5 29  1  0
  5 32  1  0
  6  7  2  0
  6  8  1  0
  8  9  1  0
  8 19  1  0
  9 10  1  0
 10 11  1  0
 11 12  1  0
 12 13  2  0
 12 25  1  0
 13 14  1  0
 13 21  1  0
 14 15  1  0
 15 16  1  0
 16 17  1  0
 17 18  1  0
 18 19  2  0
 19 20  1  0
 21 22  1  0
 22 23  1  0
 23 24  1  0
 24 25  1  0
 25 26  2  3
 26 27  1  0
 26 28  1  0
 29 30  1  0
 30 31  1  0
 31 32  1  0
M  CHG  1  22   1
M  END
