
     RDKit          3D

 33 36  0  0  0  0  0  0  0  0999 V2000
   -8.4130   -1.2980   -1.0900 C   0  0  0  0  0  0  0  0  0  0  0  0
   -7.0710   -0.7100   -0.7160 C   0  0  0  0  0  0  0  0  0  0  0  0
   -6.0510   -1.7400   -0.6370 N   0  0  0  0  0  0  0  0  0  0  0  0
   -4.7040   -1.4560   -0.3050 C   0  0  0  0  0  0  0  0  0  0  0  0
   -3.8010   -2.4910   -0.2520 C   0  0  0  0  0  0  0  0  0  0  0  0
   -2.4660   -2.3110    0.0600 C   0  0  0  0  0  0  0  0  0  0  0  0
   -2.0540   -0.9960    0.3300 C   0  0  0  0  0  0  0  0  0  0  0  0
   -0.6850   -0.7220    0.5090 N   0  0  0  0  0  0  0  0  0  0  0  0
    0.3160   -1.6400    0.8720 C   0  0  0  0  0  0  0  0  0  0  0  0
    0.0500   -2.8400    1.0840 O   0  0  0  0  0  0  0  0  0  0  0  0
    1.7160   -1.2260    1.0190 C   0  0  0  0  0  0  0  0  0  0  0  0
    1.9930   -0.0220    0.8090 O   0  0  0  0  0  0  0  0  0  0  0  0
    2.6840   -2.1910    1.3860 N   0  0  0  0  0  0  0  0  0  0  0  0
    4.0530   -1.7500    1.5210 C   0  0  0  0  0  0  0  0  0  0  0  0
    4.5030   -1.1910    0.1800 C   0  0  0  0  0  0  0  0  0  0  0  0
    4.8960   -0.0040   -0.0350 N   0  0  0  0  0  0  0  0  0  0  0  0
    5.2510    0.2120   -1.3980 C   0  0  1  0  0  0  0  0  0  0  0  0
    6.7450    0.5280   -1.3820 C   0  0  0  0  0  0  0  0  0  0  0  0
    7.2740    1.3470   -0.4790 C   0  0  0  0  0  0  0  0  0  0  0  0
    8.6270    1.6010   -0.5050 C   0  0  0  0  0  0  0  0  0  0  0  0
    9.2080    0.5990   -1.9250 S   0  0  0  0  0  0  0  0  0  0  0  0
    7.5430   -0.0630   -2.3370 C   0  0  0  0  0  0  0  0  0  0  0  0
    5.0000   -1.0790   -2.0530 C   0  0  0  0  0  0  0  0  0  0  0  0
    5.1420   -1.4270   -3.2570 O   0  0  0  0  0  0  0  0  0  0  0  0
    4.5360   -1.9340   -1.0230 N   0  0  0  0  0  0  0  0  0  0  0  0
   -2.9560    0.0360    0.2820 C   0  0  0  0  0  0  0  0  0  0  0  0
   -2.6430    1.3840    0.6830 C   0  0  0  0  0  0  0  0  0  0  0  0
   -1.7510    1.9990    1.4540 C   0  0  0  0  0  0  0  0  0  0  0  0
   -1.8180    3.3330    1.6410 C   0  0  0  0  0  0  0  0  0  0  0  0
   -2.8070    4.0350    1.0340 C   0  0  0  0  0  0  0  0  0  0  0  0
   -3.1770    5.4760    1.0160 C   0  0  0  0  0  0  0  0  0  0  0  0
   -3.7200    2.7990    0.1400 S   0  0  0  0  0  0  0  0  0  0  0  0
   -4.2500   -0.2200   -0.0350 N   0  0  0  0  0  0  0  0  0  0  0  0
  1  2  1  0
  2  3  1  0
  3  4  1  0
  4  5  2  0
  4 33  1  0
  5  6  1  0
  6  7  2  0
  7  8  1  0
  7 26  1  0
  8  9  1  0
  9 10  2  0
  9 11  1  0
 11 12  2  0
 11 13  1  0
 13 14  1  0
 14 15  1  0
 15 16  2  0
 15 25  1  0
 16 17  1  0
 17 18  1  1
 17 23  1  0
 18 19  1  0
 18 22  2  0
 19 20  2  0
 20 21  1  0
 21 22  1  0
 23 24  2  0
 23 25  1  0
 26 27  1  0
 26 33  2  0
 27 28  2  0
 27 32  1  0
 28 29  1  0
 29 30  2  0
 30 31  1  0
 30 32  1  0
M  END
