
     RDKit          3D

 31 34  0  0  0  0  0  0  0  0999 V2000
    5.3550   -1.8650    2.6510 C   0  0  0  0  0  0  0  0  0  0  0  0
    4.7560   -2.3680    1.3560 C   0  0  0  0  0  0  0  0  0  0  0  0
    4.1060   -1.3510    0.6380 O   0  0  0  0  0  0  0  0  0  0  0  0
    3.0620   -0.6490    1.1340 C   0  0  0  0  0  0  0  0  0  0  0  0
    2.5970   -0.8620    2.2830 O   0  0  0  0  0  0  0  0  0  0  0  0
    2.3490    0.4540    0.3870 C   0  0  0  0  0  0  0  0  0  0  0  0
    1.2350    0.1910   -0.3780 C   0  0  0  0  0  0  0  0  0  0  0  0
    0.8290    1.8430   -1.0620 S   0  0  0  0  0  0  0  0  0  0  0  0
    2.1900    2.6570   -0.2290 C   0  0  0  0  0  0  0  0  0  0  0  0
    2.8450    1.7000    0.4730 C   0  0  0  0  0  0  0  0  0  0  0  0
    4.0680    2.1450    1.2810 C   0  0  0  0  0  0  0  0  0  0  0  0
    2.2650    4.1470   -0.4060 C   0  0  0  0  0  0  0  0  0  0  0  0
    0.9210    4.7400    0.0600 C   0  0  0  0  0  0  0  0  0  0  0  0
    0.2500    3.8230    1.0880 C   0  0  0  0  0  0  0  0  0  0  0  0
   -1.1060    3.5900    0.8860 N   0  0  0  0  0  0  0  0  0  0  0  0
   -1.8370    2.5980    0.8090 C   0  0  0  0  0  0  0  0  0  0  0  0
   -1.5070    1.1510    0.9110 C   0  0  0  0  0  0  0  0  0  0  0  0
   -1.6870    0.4210   -0.3960 C   0  0  2  0  0  0  0  0  0  0  0  0
   -3.1170    0.1960   -0.5570 N   0  0  2  0  0  0  0  0  0  0  0  0
   -3.7010   -0.3870    0.5930 C   0  0  0  0  0  0  0  0  0  0  0  0
   -4.9200   -1.2570    0.2240 C   0  0  0  0  0  0  0  0  0  0  0  0
   -5.7460   -0.4460   -0.7240 C   0  0  0  0  0  0  0  0  0  0  0  0
   -4.9770   -0.1260   -1.9940 C   0  0  0  0  0  0  0  0  0  0  0  0
   -3.4830   -0.4290   -1.7950 C   0  0  0  0  0  0  0  0  0  0  0  0
   -0.9990   -0.8930   -0.4400 C   0  0  0  0  0  0  0  0  0  0  0  0
    0.4310   -0.9030   -0.6460 N   0  0  0  0  0  0  0  0  0  0  0  0
    1.0520   -2.0750   -1.1300 C   0  0  0  0  0  0  0  0  0  0  0  0
    2.2480   -2.1450   -1.4470 O   0  0  0  0  0  0  0  0  0  0  0  0
    0.2750   -3.3620   -1.2960 C   0  0  2  0  0  0  0  0  0  0  0  0
    1.0400   -4.6330   -1.2830 C   0  0  0  0  0  0  0  0  0  0  0  0
    0.6130   -4.0690   -2.6050 C   0  0  0  0  0  0  0  0  0  0  0  0
  1  2  1  0
  2  3  1  0
  3  4  1  0
  4  5  2  0
  4  6  1  0
  6  7  2  0
  6 10  1  0
  7  8  1  0
  7 26  1  0
  8  9  1  0
  9 10  2  0
  9 12  1  0
 10 11  1  0
 12 13  1  0
 13 14  1  0
 14 15  1  0
 15 16  2  0
 16 17  1  0
 18 17  1  1
 18 19  1  0
 18 25  1  0
 19 20  1  1
 19 24  1  0
 20 21  1  0
 21 22  1  0
 22 23  1  0
 23 24  1  0
 25 26  1  0
 26 27  1  0
 27 28  2  0
 29 27  1  6
 29 30  1  0
 29 31  1  0
 30 31  1  0
M  CHG  1  19   1
M  END
