
     RDKit          3D

 33 36  0  0  0  0  0  0  0  0999 V2000
    4.4900   -2.3300    0.4490 C   0  0  0  0  0  0  0  0  0  0  0  0
    4.5580   -1.5360   -0.7890 C   0  0  0  0  0  0  0  0  0  0  0  0
    4.0340   -0.1070   -0.6010 C   0  0  0  0  0  0  0  0  0  0  0  0
    2.7340    0.1400   -0.6940 C   0  0  0  0  0  0  0  0  0  0  0  0
    1.6550   -0.9150   -0.9650 C   0  0  0  0  0  0  0  0  0  0  0  0
    0.3560   -0.3590   -1.0070 N   0  0  0  0  0  0  0  0  0  0  0  0
   -0.0880    0.6640   -1.8690 C   0  0  0  0  0  0  0  0  0  0  0  0
    0.7240    1.1570   -2.6840 O   0  0  0  0  0  0  0  0  0  0  0  0
   -1.4970    1.1520   -1.8130 C   0  0  0  0  0  0  0  0  0  0  0  0
   -1.8990    2.2420   -2.5880 C   0  0  0  0  0  0  0  0  0  0  0  0
   -3.6360    2.4050   -2.1980 S   0  0  0  0  0  0  0  0  0  0  0  0
   -3.5850    0.9460   -1.0150 C   0  0  0  0  0  0  0  0  0  0  0  0
   -4.8780    0.5680   -0.3460 C   0  0  0  0  0  0  0  0  0  0  0  0
   -6.0380    1.2510   -0.5550 C   0  0  0  0  0  0  0  0  0  0  0  0
   -7.2060    0.8670    0.0640 C   0  0  0  0  0  0  0  0  0  0  0  0
   -8.4370    1.6380   -0.1910 C   0  0  0  0  0  0  0  0  0  0  0  0
   -7.1860   -0.2200    0.8990 C   0  0  0  0  0  0  0  0  0  0  0  0
   -5.9970   -0.9280    1.1190 C   0  0  0  0  0  0  0  0  0  0  0  0
   -4.9100   -0.4790    0.4730 N   0  0  0  0  0  0  0  0  0  0  0  0
   -6.2510   -2.0630    2.0640 C   0  0  0  0  0  0  0  0  0  0  0  0
   -7.7340   -2.2870    1.8580 C   0  0  0  0  0  0  0  0  0  0  0  0
   -8.2700   -0.8750    1.6880 C   0  0  0  0  0  0  0  0  0  0  0  0
   -2.4750    0.6400   -1.0980 N   0  0  0  0  0  0  0  0  0  0  0  0
    2.2980    1.4650   -0.5460 N   0  0  0  0  0  0  0  0  0  0  0  0
    3.8630    2.3080   -0.2700 S   0  0  0  0  0  0  0  0  0  0  0  0
    4.9070    0.9120   -0.3650 C   0  0  0  0  0  0  0  0  0  0  0  0
    6.3310    1.0320   -0.2070 C   0  0  0  0  0  0  0  0  0  0  0  0
    6.8200    2.2170   -0.1150 O   0  0  0  0  0  0  0  0  0  0  0  0
    7.2690    0.0000   -0.1340 N   0  0  0  0  0  0  0  0  0  0  0  0
    8.7130    0.2860    0.0110 C   0  0  0  0  0  0  0  0  0  0  0  0
    8.9690    1.0430    1.2620 C   0  0  0  0  0  0  0  0  0  0  0  0
   10.2920    1.4410    1.6140 N   0  0  0  0  0  0  0  0  0  0  0  0
    8.0460    1.3580    2.0480 O   0  0  0  0  0  0  0  0  0  0  0  0
  1  2  1  0
  2  3  1  0
  3  4  1  0
  3 26  2  0
  4  5  1  0
  4 24  2  0
  5  6  1  0
  6  7  1  0
  7  8  2  0
  7  9  1  0
  9 10  2  0
  9 23  1  0
 10 11  1  0
 11 12  1  0
 12 13  1  0
 12 23  2  0
 13 14  2  0
 13 19  1  0
 14 15  1  0
 15 16  1  0
 15 17  2  0
 17 18  1  0
 17 22  1  0
 18 19  2  0
 18 20  1  0
 20 21  1  0
 21 22  1  0
 24 25  1  0
 25 26  1  0
 26 27  1  0
 27 28  2  0
 27 29  1  0
 29 30  1  0
 30 31  1  0
 31 32  1  0
 31 33  2  0
M  END
