
     RDKit          3D

 33 36  0  0  0  0  0  0  0  0999 V2000
    6.4060   -2.6280    2.8920 C   0  0  0  0  0  0  0  0  0  0  0  0
    6.8400   -1.9740    1.6260 C   0  0  0  0  0  0  0  0  0  0  0  0
    8.0030   -2.3030    0.9880 C   0  0  0  0  0  0  0  0  0  0  0  0
    8.4070   -1.7170   -0.1590 N   0  0  0  0  0  0  0  0  0  0  0  0
    7.6520   -0.7600   -0.7260 C   0  0  0  0  0  0  0  0  0  0  0  0
    8.1590    0.0260   -2.2300 S   0  0  0  0  0  0  0  0  0  0  0  0
    9.6440    0.2840   -2.2780 O   0  0  0  0  0  0  0  0  0  0  0  0
    6.4720   -0.4200   -0.0860 C   0  0  0  0  0  0  0  0  0  0  0  0
    6.0130   -0.9790    1.0740 C   0  0  0  0  0  0  0  0  0  0  0  0
    4.8310   -0.6750    1.7560 N   0  0  0  0  0  0  0  0  0  0  0  0
    3.9070    0.3010    1.3380 C   0  0  0  0  0  0  0  0  0  0  0  0
    4.0560    0.9960    0.3120 O   0  0  0  0  0  0  0  0  0  0  0  0
    2.7040    0.5600    2.0920 N   0  0  0  0  0  0  0  0  0  0  0  0
    1.7740    1.5620    1.6380 C   0  0  0  0  0  0  0  0  0  0  0  0
    1.2800    1.1330    0.2620 C   0  0  0  0  0  0  0  0  0  0  0  0
    1.6980    0.0680   -0.2370 O   0  0  0  0  0  0  0  0  0  0  0  0
    0.3600    1.9860   -0.3780 N   0  0  0  0  0  0  0  0  0  0  0  0
   -0.2420    1.7750   -1.6430 C   0  0  0  0  0  0  0  0  0  0  0  0
   -1.2100    0.6700   -1.8580 C   0  0  2  0  0  0  0  0  0  0  0  0
   -0.6660   -0.6880   -1.6390 C   0  0  0  0  0  0  0  0  0  0  0  0
   -1.5930    0.7250   -3.3500 C   0  0  0  0  0  0  0  0  0  0  0  0
   -2.3800    0.8630   -1.0430 N   0  0  0  0  0  0  0  0  0  0  0  0
   -3.1320    2.0100   -1.2950 C   0  0  0  0  0  0  0  0  0  0  0  0
   -4.5900    1.8530   -1.6020 C   0  0  0  0  0  0  0  0  0  0  0  0
   -5.1670    0.8770   -0.6170 C   0  0  0  0  0  0  0  0  0  0  0  0
   -6.4180    0.7640   -0.1990 N   0  0  0  0  0  0  0  0  0  0  0  0
   -6.9070    0.0650    0.5280 C   0  0  0  0  0  0  0  0  0  0  0  0
   -8.2580   -0.3080    1.1930 C   0  0  2  0  0  0  0  0  0  0  0  0
   -8.1950   -0.8730    2.5610 C   0  0  0  0  0  0  0  0  0  0  0  0
   -8.4570   -1.7830    1.4170 C   0  0  0  0  0  0  0  0  0  0  0  0
   -5.4380   -1.0020    1.0690 S   0  0  0  0  0  0  0  0  0  0  0  0
   -4.3170   -0.0440   -0.0420 C   0  0  0  0  0  0  0  0  0  0  0  0
   -2.8760   -0.1910   -0.2910 C   0  0  0  0  0  0  0  0  0  0  0  0
  1  2  1  0
  2  3  2  0
  2  9  1  0
  3  4  1  0
  4  5  2  0
  5  6  1  0
  5  8  1  0
  6  7  2  0
  8  9  2  0
  9 10  1  0
 10 11  1  0
 11 12  2  0
 11 13  1  0
 13 14  1  0
 14 15  1  0
 15 16  2  0
 15 17  1  0
 17 18  1  0
 18 19  1  0
 19 20  1  1
 19 21  1  0
 19 22  1  0
 22 23  1  0
 22 33  1  0
 23 24  1  0
 24 25  1  0
 25 26  1  0
 25 32  2  0
 26 27  2  0
 28 27  1  6
 27 31  1  0
 28 29  1  0
 28 30  1  0
 29 30  1  0
 31 32  1  0
 32 33  1  0
M  END
