
     RDKit          3D

 31 33  0  0  0  0  0  0  0  0999 V2000
   -7.2360   -1.1740   -1.6710 C   0  0  0  0  0  0  0  0  0  0  0  0
   -7.2080    0.2490   -1.5410 N   0  0  0  0  0  0  0  0  0  0  0  0
   -5.8380    0.7750   -1.4350 C   0  0  0  0  0  0  0  0  0  0  0  0
   -5.0970    0.0370   -0.3690 C   0  0  0  0  0  0  0  0  0  0  0  0
   -4.0500   -0.6540   -0.4220 N   0  0  0  0  0  0  0  0  0  0  0  0
   -3.5480   -1.2480    0.7130 C   0  0  0  0  0  0  0  0  0  0  0  0
   -2.2900   -2.0840    0.6690 C   0  0  0  0  0  0  0  0  0  0  0  0
   -1.1720   -1.2880    0.2060 N   0  0  0  0  0  0  0  0  0  0  0  0
   -0.7470   -0.1440    0.8900 C   0  0  0  0  0  0  0  0  0  0  0  0
   -1.3270    0.2260    1.9260 O   0  0  0  0  0  0  0  0  0  0  0  0
    0.4190    0.6960    0.4190 C   0  0  1  0  0  0  0  0  0  0  0  0
    1.6280   -0.2340    0.3940 C   0  0  0  0  0  0  0  0  0  0  0  0
    2.7970    0.4340   -0.0650 N   0  0  0  0  0  0  0  0  0  0  0  0
    4.0720   -0.2590   -0.1490 C   0  0  0  0  0  0  0  0  0  0  0  0
    4.0820   -1.4640    0.2030 O   0  0  0  0  0  0  0  0  0  0  0  0
    5.2260    0.4040   -0.6030 N   0  0  0  0  0  0  0  0  0  0  0  0
    6.4810   -0.2530   -0.6930 C   0  0  0  0  0  0  0  0  0  0  0  0
    7.6580    0.3620   -1.1380 C   0  0  0  0  0  0  0  0  0  0  0  0
    8.6360   -0.5380   -1.0940 N   0  0  0  0  0  0  0  0  0  0  0  0
    8.1650   -1.6780   -0.6530 N   0  0  0  0  0  0  0  0  0  0  0  0
    8.9160   -2.9330   -0.4530 C   0  0  0  0  0  0  0  0  0  0  0  0
    6.8710   -1.5320   -0.4040 C   0  0  0  0  0  0  0  0  0  0  0  0
    0.1450    1.3130   -0.8970 C   0  0  0  0  0  0  0  0  0  0  0  0
   -0.3660    2.7530   -0.7530 C   0  0  0  0  0  0  0  0  0  0  0  0
    0.7820    3.5290   -0.1870 C   0  0  0  0  0  0  0  0  0  0  0  0
    1.2640    3.0080    1.1310 C   0  0  0  0  0  0  0  0  0  0  0  0
    0.6230    1.7300    1.4810 C   0  0  0  0  0  0  0  0  0  0  0  0
   -4.2090   -1.0570    1.8290 C   0  0  0  0  0  0  0  0  0  0  0  0
   -3.9570   -1.5340    3.1890 C   0  0  0  0  0  0  0  0  0  0  0  0
   -5.5700   -0.0350    1.3490 S   0  0  0  0  0  0  0  0  0  0  0  0
   -6.8990   -0.7100    1.5380 O   0  0  0  0  0  0  0  0  0  0  0  0
  1  2  1  0
  2  3  1  0
  3  4  1  0
  4  5  2  0
 30  4  1  6
  5  6  1  0
  6  7  1  0
  6 28  2  0
  7  8  1  0
  8  9  1  0
  9 10  2  0
  9 11  1  0
 11 12  1  6
 11 23  1  0
 11 27  1  0
 12 13  1  0
 13 14  1  0
 14 15  2  0
 14 16  1  0
 16 17  1  0
 17 18  1  0
 17 22  2  0
 18 19  2  0
 19 20  1  0
 20 21  1  0
 20 22  1  0
 23 24  1  0
 24 25  1  0
 25 26  1  0
 26 27  1  0
 28 29  1  0
 28 30  1  0
 30 31  2  0
M  CHG  1   2   1
M  END
