
     RDKit          3D

 31 33  0  0  0  0  0  0  0  0999 V2000
    8.4970    0.7090   -0.3070 C   0  0  0  0  0  0  0  0  0  0  0  0
    7.5940    1.5790    0.3980 N   0  0  1  0  0  0  0  0  0  0  0  0
    8.2280    2.8550    0.7280 C   0  0  0  0  0  0  0  0  0  0  0  0
    6.4210    1.8150   -0.3960 C   0  0  0  0  0  0  0  0  0  0  0  0
    5.3950    0.7840   -0.0630 C   0  0  0  0  0  0  0  0  0  0  0  0
    4.1160    0.8330   -0.5640 C   0  0  0  0  0  0  0  0  0  0  0  0
    3.3800   -0.2720   -0.0790 C   0  0  0  0  0  0  0  0  0  0  0  0
    2.0070   -0.5360   -0.4170 C   0  0  0  0  0  0  0  0  0  0  0  0
    1.3900    0.3240   -1.1830 O   0  0  0  0  0  0  0  0  0  0  0  0
    1.2810   -1.6550    0.0180 N   0  0  0  0  0  0  0  0  0  0  0  0
    1.7610   -2.7160    0.8270 C   0  0  0  0  0  0  0  0  0  0  0  0
    0.7060   -3.8250    0.8740 C   0  0  0  0  0  0  0  0  0  0  0  0
   -0.6160   -3.3510    1.4100 C   0  0  0  0  0  0  0  0  0  0  0  0
   -0.8720   -1.9380    0.9490 C   0  0  2  0  0  0  0  0  0  0  0  0
   -2.3060   -1.6960    0.7420 C   0  0  0  0  0  0  0  0  0  0  0  0
   -3.1090   -2.6410    0.9450 O   0  0  0  0  0  0  0  0  0  0  0  0
   -2.8430   -0.4590    0.3250 N   0  0  0  0  0  0  0  0  0  0  0  0
   -4.2570   -0.2670    0.1270 C   0  0  0  0  0  0  0  0  0  0  0  0
   -5.3470   -1.0000    0.2240 C   0  0  0  0  0  0  0  0  0  0  0  0
   -6.4800   -0.4070   -0.0650 N   0  0  0  0  0  0  0  0  0  0  0  0
   -6.6720    0.6970   -0.4010 C   0  0  0  0  0  0  0  0  0  0  0  0
   -7.8570    1.4780   -0.7760 C   0  0  0  0  0  0  0  0  0  0  0  0
   -8.0630    2.6860   -1.1010 C   0  0  0  0  0  0  0  0  0  0  0  0
   -7.1450    3.7750   -1.2190 C   0  0  0  0  0  0  0  0  0  0  0  0
   -5.9720    3.9330   -1.0650 N   0  0  0  0  0  0  0  0  0  0  0  0
   -9.1160    0.5940   -0.7680 C   0  0  0  0  0  0  0  0  0  0  0  0
   -8.9450   -0.4480   -1.6740 O   0  0  0  0  0  0  0  0  0  0  0  0
   -4.9420    1.3370   -0.4030 S   0  0  0  0  0  0  0  0  0  0  0  0
   -0.1430   -1.7570   -0.3820 C   0  0  0  0  0  0  0  0  0  0  0  0
    4.2550   -0.9160    0.6780 N   0  0  0  0  0  0  0  0  0  0  0  0
    5.4490   -0.2980    0.6920 N   0  0  0  0  0  0  0  0  0  0  0  0
  2  1  1  6
  2  3  1  0
  2  4  1  0
  4  5  1  0
  5  6  1  0
  5 31  2  0
  6  7  2  0
  7  8  1  0
  7 30  1  0
  8  9  2  0
  8 10  1  0
 10 11  1  0
 10 29  1  0
 11 12  1  0
 12 13  1  0
 13 14  1  0
 14 15  1  6
 14 29  1  0
 15 16  2  0
 15 17  1  0
 17 18  1  0
 18 19  2  0
 18 28  1  0
 19 20  1  0
 20 21  2  0
 21 22  1  0
 21 28  1  0
 22 23  2  3
 22 26  1  0
 23 24  1  0
 24 25  2  0
 26 27  1  0
 30 31  1  0
M  CHG  1   2   1
M  END
