
     RDKit          3D

 31 33  0  0  0  0  0  0  0  0999 V2000
    7.9330   -1.9400    0.0780 C   0  0  0  0  0  0  0  0  0  0  0  0
    8.2890   -0.5990    0.6550 C   0  0  1  0  0  0  0  0  0  0  0  0
    9.7210   -0.2140    0.2600 C   0  0  0  0  0  0  0  0  0  0  0  0
    7.4040    0.5050    0.1830 C   0  0  0  0  0  0  0  0  0  0  0  0
    6.0090    0.2900    0.5260 N   0  0  0  0  0  0  0  0  0  0  0  0
    4.9840    1.2020    0.1840 C   0  0  0  0  0  0  0  0  0  0  0  0
    5.3290    2.2350   -0.4450 O   0  0  0  0  0  0  0  0  0  0  0  0
    3.5580    1.0000    0.5230 C   0  0  1  0  0  0  0  0  0  0  0  0
    2.7370    2.1650    0.0120 C   0  0  0  0  0  0  0  0  0  0  0  0
    1.3460    1.5620   -0.0460 C   0  0  0  0  0  0  0  0  0  0  0  0
    1.5410    0.1380   -0.1810 N   0  0  0  0  0  0  0  0  0  0  0  0
    0.5060   -0.8140   -0.2460 C   0  0  0  0  0  0  0  0  0  0  0  0
   -0.8330   -0.4550   -0.1960 C   0  0  0  0  0  0  0  0  0  0  0  0
   -1.8760   -1.3500   -0.2560 C   0  0  0  0  0  0  0  0  0  0  0  0
   -3.2230   -0.9400   -0.2020 N   0  0  0  0  0  0  0  0  0  0  0  0
   -3.5300    0.4560   -0.0840 C   0  0  0  0  0  0  0  0  0  0  0  0
   -4.9860    0.6810   -0.0450 C   0  0  0  0  0  0  0  0  0  0  0  0
   -5.5450    1.9330    0.0640 C   0  0  0  0  0  0  0  0  0  0  0  0
   -6.9270    2.0650    0.0940 C   0  0  0  0  0  0  0  0  0  0  0  0
   -7.4600    3.3820    0.2070 N   0  0  0  0  0  0  0  0  0  0  0  0
   -7.6980    0.9900    0.0190 N   0  0  0  0  0  0  0  0  0  0  0  0
   -7.1420   -0.2260   -0.0870 C   0  0  0  0  0  0  0  0  0  0  0  0
   -8.1170   -1.6650   -0.1870 S   0  0  1  0  0  0  0  0  0  0  0  0
   -9.8300   -1.1920   -0.1270 C   0  0  0  0  0  0  0  0  0  0  0  0
   -7.8830   -2.3790   -1.4760 O   0  0  0  0  0  0  0  0  0  0  0  0
   -7.7990   -2.6160    0.9390 O   0  0  0  0  0  0  0  0  0  0  0  0
   -5.8060   -0.3790   -0.1180 N   0  0  0  0  0  0  0  0  0  0  0  0
   -1.5610   -2.7070   -0.3750 C   0  0  0  0  0  0  0  0  0  0  0  0
   -0.2290   -3.0530   -0.4230 C   0  0  0  0  0  0  0  0  0  0  0  0
    0.7590   -2.1450   -0.3620 N   0  0  0  0  0  0  0  0  0  0  0  0
    2.9490   -0.1560   -0.2380 C   0  0  0  0  0  0  0  0  0  0  0  0
  2  1  1  6
  2  3  1  0
  2  4  1  0
  4  5  1  0
  5  6  1  0
  6  7  2  0
  8  6  1  6
  8  9  1  0
  8 31  1  0
  9 10  1  0
 10 11  1  0
 11 12  1  0
 11 31  1  0
 12 13  2  0
 12 30  1  0
 13 14  1  0
 14 15  1  0
 14 28  2  0
 15 16  1  0
 16 17  1  0
 17 18  2  0
 17 27  1  0
 18 19  1  0
 19 20  1  0
 19 21  2  0
 21 22  1  0
 22 23  1  0
 22 27  2  0
 23 24  1  1
 23 25  2  0
 23 26  2  0
 28 29  1  0
 29 30  2  0
M  CHG  1  21   1
M  END
