
     RDKit          3D

 29 32  0  0  0  0  0  0  0  0999 V2000
    5.1410    0.3720   -2.2610 C   0  0  0  0  0  0  0  0  0  0  0  0
    5.1520   -0.8370   -1.4360 C   0  0  0  0  0  0  0  0  0  0  0  0
    4.4810   -1.1910   -0.3990 C   0  0  0  0  0  0  0  0  0  0  0  0
    4.8190   -2.5760    0.1590 C   0  0  0  0  0  0  0  0  0  0  0  0
    5.2620   -2.3560    1.4460 F   0  0  0  0  0  0  0  0  0  0  0  0
    3.4710   -0.4490    0.3140 C   0  0  0  0  0  0  0  0  0  0  0  0
    2.7890   -1.0420    1.3850 C   0  0  0  0  0  0  0  0  0  0  0  0
    1.8270   -0.4150    2.1340 C   0  0  0  0  0  0  0  0  0  0  0  0
    1.4640    0.8760    1.8670 C   0  0  0  0  0  0  0  0  0  0  0  0
    0.5160    1.5720    2.6550 N   0  0  0  0  0  0  0  0  0  0  0  0
    0.9060    2.2770    3.7600 N   0  0  0  0  0  0  0  0  0  0  0  0
   -0.1460    2.8340    4.3230 C   0  0  0  0  0  0  0  0  0  0  0  0
   -1.2060    2.5080    3.6120 N   0  0  0  0  0  0  0  0  0  0  0  0
   -0.7760    1.7010    2.5470 C   0  0  0  0  0  0  0  0  0  0  0  0
   -1.7310    1.2090    1.6210 N   0  0  0  0  0  0  0  0  0  0  0  0
   -1.6060    0.4110    0.4990 C   0  0  0  0  0  0  0  0  0  0  0  0
   -0.4760    0.0140    0.1850 O   0  0  0  0  0  0  0  0  0  0  0  0
   -2.7340   -0.0120   -0.3670 C   0  0  0  0  0  0  0  0  0  0  0  0
   -4.0090    0.3790   -0.0940 C   0  0  0  0  0  0  0  0  0  0  0  0
   -5.0620    0.0300   -0.8370 N   0  0  0  0  0  0  0  0  0  0  0  0
   -6.3750    0.3350   -0.6960 C   0  0  0  0  0  0  0  0  0  0  0  0
   -7.0470   -0.2720   -1.7240 C   0  0  0  0  0  0  0  0  0  0  0  0
   -6.1380   -0.9420   -2.4820 C   0  0  0  0  0  0  0  0  0  0  0  0
   -4.8830   -0.7440   -1.9110 C   0  0  0  0  0  0  0  0  0  0  0  0
   -3.6290   -1.1780   -2.2510 C   0  0  0  0  0  0  0  0  0  0  0  0
   -2.5090   -0.8100   -1.4650 C   0  0  0  0  0  0  0  0  0  0  0  0
   -1.2920   -1.2740   -1.8560 O   0  0  0  0  0  0  0  0  0  0  0  0
    2.1160    1.4910    0.8200 C   0  0  0  0  0  0  0  0  0  0  0  0
    3.1010    0.8440    0.0560 C   0  0  0  0  0  0  0  0  0  0  0  0
  1  2  1  0
  2  3  2  3
  3  4  1  0
  3  6  1  0
  4  5  1  0
  6  7  2  0
  6 29  1  0
  7  8  1  0
  8  9  2  0
  9 10  1  0
  9 28  1  0
 10 11  1  0
 10 14  1  0
 11 12  2  0
 12 13  1  0
 13 14  2  0
 14 15  1  0
 15 16  1  0
 16 17  2  0
 16 18  1  0
 18 19  2  0
 18 26  1  0
 19 20  1  0
 20 21  1  0
 20 24  1  0
 21 22  2  0
 22 23  1  0
 23 24  2  0
 24 25  1  0
 25 26  2  0
 26 27  1  0
 28 29  2  0
M  END
