
     RDKit          3D

 31 33  0  0  0  0  0  0  0  0999 V2000
    7.8480   -1.0400    0.1390 C   0  0  0  0  0  0  0  0  0  0  0  0
    6.4500   -1.3840   -0.0610 N   0  0  0  0  0  0  0  0  0  0  0  0
    5.5080   -0.4760   -0.6040 C   0  0  0  0  0  0  0  0  0  0  0  0
    5.8620    0.6720   -0.9340 O   0  0  0  0  0  0  0  0  0  0  0  0
    4.1130   -0.9040   -0.7730 C   0  0  0  0  0  0  0  0  0  0  0  0
    3.1600    0.1150   -1.2620 C   0  0  0  0  0  0  0  0  0  0  0  0
    3.0170    1.3320   -0.3260 C   0  0  0  0  0  0  0  0  0  0  0  0
    2.5350    0.8690    1.0110 C   0  0  0  0  0  0  0  0  0  0  0  0
    3.4160    0.6510    2.0370 N   0  0  0  0  0  0  0  0  0  0  0  0
    2.7200    0.1710    3.0780 C   0  0  0  0  0  0  0  0  0  0  0  0
    3.1950   -0.1560    4.2210 O   0  0  0  0  0  0  0  0  0  0  0  0
    1.4280    0.0750    2.7590 N   0  0  0  0  0  0  0  0  0  0  0  0
    1.3020    0.5040    1.4880 C   0  0  0  0  0  0  0  0  0  0  0  0
    0.0840    0.4440    0.7180 C   0  0  0  0  0  0  0  0  0  0  0  0
   -0.5280   -0.8220    0.6280 C   0  0  0  0  0  0  0  0  0  0  0  0
    0.0610   -1.9970    1.2690 C   0  0  0  0  0  0  0  0  0  0  0  0
   -1.6610   -0.8840   -0.0730 N   0  0  0  0  0  0  0  0  0  0  0  0
   -2.2320    0.1510   -0.6760 C   0  0  0  0  0  0  0  0  0  0  0  0
   -3.4950   -0.0320   -1.4240 C   0  0  0  0  0  0  0  0  0  0  0  0
   -4.0370    0.9400   -2.0000 O   0  0  0  0  0  0  0  0  0  0  0  0
   -4.0820   -1.3250   -1.4780 N   0  0  0  0  0  0  0  0  0  0  0  0
   -5.3150   -1.5980   -2.1810 C   0  0  0  0  0  0  0  0  0  0  0  0
   -6.4020   -0.7590   -1.5710 C   0  0  0  0  0  0  0  0  0  0  0  0
   -7.1250    0.1470   -2.1890 C   0  0  0  0  0  0  0  0  0  0  0  0
   -8.0390    0.7100   -1.2570 N   0  0  0  0  0  0  0  0  0  0  0  0
   -7.7980    0.0600   -0.0250 C   0  0  0  0  0  0  0  0  0  0  0  0
   -6.8270   -0.8200   -0.1900 C   0  0  0  0  0  0  0  0  0  0  0  0
   -1.6400    1.3340   -0.5760 N   0  0  0  0  0  0  0  0  0  0  0  0
   -0.4590    1.5430    0.1240 C   0  0  0  0  0  0  0  0  0  0  0  0
    0.0460    3.2370    0.3260 S   0  0  0  0  0  0  0  0  0  0  0  0
    1.2720    3.5910    1.5320 C   0  0  0  0  0  0  0  0  0  0  0  0
  1  2  1  0
  2  3  1  0
  3  4  2  0
  3  5  1  0
  5  6  1  0
  6  7  1  0
  7  8  1  0
  8  9  1  0
  8 13  2  0
  9 10  1  0
 10 11  2  0
 10 12  1  0
 12 13  1  0
 13 14  1  0
 14 15  2  0
 14 29  1  0
 15 16  1  0
 15 17  1  0
 17 18  2  0
 18 19  1  0
 18 28  1  0
 19 20  2  0
 19 21  1  0
 21 22  1  0
 22 23  1  0
 23 24  2  0
 23 27  1  0
 24 25  1  0
 25 26  1  0
 26 27  2  0
 28 29  2  0
 29 30  1  0
 30 31  1  0
M  CHG  1  25   1
M  END
