
     RDKit          3D

  8  7  0  0  0  0  0  0  0  0999 V2000
   -1.5740    1.5080   -0.8320 C   0  0  0  0  0  0  0  0  0  0  0  0
   -1.7270    0.4610   -0.0330 C   0  0  0  0  0  0  0  0  0  0  0  0
   -3.0980    0.0960    0.4220 C   0  0  0  0  0  0  0  0  0  0  0  0
   -0.6070   -0.3750    0.4390 C   0  0  0  0  0  0  0  0  0  0  0  0
    0.6220    0.0210   -0.0200 O   0  0  0  0  0  0  0  0  0  0  0  0
    1.5790   -0.8350    0.4880 C   0  0  0  0  0  0  0  0  0  0  0  0
    2.9770   -0.4840    0.0400 C   0  0  0  0  0  0  0  0  0  0  0  0
    3.3710    0.7750    0.4170 O   0  0  0  0  0  0  0  0  0  0  0  0
  1  2  2  0
  2  3  1  0
  2  4  1  0
  4  5  1  0
  5  6  1  0
  6  7  1  0
  7  8  1  0
M  END
