
     RDKit          3D

  8  8  0  0  0  0  0  0  0  0999 V2000
   -2.3900    1.0040   -0.2340 O   0  0  0  0  0  0  0  0  0  0  0  0
   -1.6600   -0.1150    0.1370 C   0  0  0  0  0  0  0  0  0  0  0  0
   -0.4830   -0.2690   -0.7970 C   0  0  2  0  0  0  0  0  0  0  0  0
    0.2990   -1.5140   -0.3570 C   0  0  0  0  0  0  0  0  0  0  0  0
    1.2430   -1.0090    0.6880 C   0  0  0  0  0  0  0  0  0  0  0  0
    1.1150    0.4900    0.7370 C   0  0  0  0  0  0  0  0  0  0  0  0
    0.5430    0.8050   -0.6270 C   0  0  2  0  0  0  0  0  0  0  0  0
    0.0410    2.0820   -0.7190 O   0  0  0  0  0  0  0  0  0  0  0  0
  1  2  1  0
  3  2  1  1
  3  4  1  0
  3  7  1  0
  4  5  1  0
  5  6  1  0
  6  7  1  0
  7  8  1  1
M  END
