
     RDKit          3D

  8  7  0  0  0  0  0  0  0  0999 V2000
    1.2160   -0.2820   -1.3370 C   0  0  0  0  0  0  0  0  0  0  0  0
    0.7170    0.3060   -0.0560 C   0  0  1  0  0  0  0  0  0  0  0  0
    1.4690   -0.2710    1.1360 C   0  0  0  0  0  0  0  0  0  0  0  0
    1.0220    1.6680   -0.0940 O   0  0  0  0  0  0  0  0  0  0  0  0
   -0.7600    0.1350    0.1560 C   0  0  1  0  0  0  0  0  0  0  0  0
   -1.4770    0.9190   -0.9270 C   0  0  0  0  0  0  0  0  0  0  0  0
   -1.2110   -1.2780    0.2400 C   0  0  0  0  0  0  0  0  0  0  0  0
   -1.0600    0.7600    1.3890 O   0  0  0  0  0  0  0  0  0  0  0  0
  2  1  1  6
  2  3  1  0
  2  4  1  0
  2  5  1  0
  5  6  1  6
  5  7  1  0
  5  8  1  0
M  END
