
     RDKit          3D

  7  7  0  0  0  0  0  0  0  0999 V2000
    2.1960    0.7430   -0.6100 O   0  0  0  0  0  0  0  0  0  0  0  0
    1.8800   -0.2310    0.3380 C   0  0  0  0  0  0  0  0  0  0  0  0
    0.3880   -0.3590    0.5440 C   0  0  2  0  0  0  0  0  0  0  0  0
   -0.3530   -0.5960   -0.7460 C   0  0  0  0  0  0  0  0  0  0  0  0
   -1.6270    0.2310   -0.6310 C   0  0  0  0  0  0  0  0  0  0  0  0
   -1.5170    0.7380    0.8000 C   0  0  0  0  0  0  0  0  0  0  0  0
   -0.1250    0.8630    0.9850 O   0  0  0  0  0  0  0  0  0  0  0  0
  1  2  1  0
  3  2  1  6
  3  4  1  0
  3  7  1  0
  4  5  1  0
  5  6  1  0
  6  7  1  0
M  END
