
     RDKit          3D

 23 25  0  0  0  0  0  0  0  0999 V2000
    3.0810   -2.2060   -0.5450 C   0  0  0  0  0  0  0  0  0  0  0  0
    3.2260   -0.9270    0.2490 C   0  0  1  0  0  0  0  0  0  0  0  0
    4.6690   -0.4390    0.1830 C   0  0  0  0  0  0  0  0  0  0  0  0
    2.3710    0.0660   -0.3230 N   0  0  0  0  0  0  0  0  0  0  0  0
    1.2940    0.4680    0.5960 C   0  0  1  0  0  0  0  0  0  0  0  0
    1.8870    0.8060    1.9570 C   0  0  0  0  0  0  0  0  0  0  0  0
    0.6140    1.6470   -0.0160 C   0  0  0  0  0  0  0  0  0  0  0  0
   -0.7910    1.4790   -0.3890 C   0  0  0  0  0  0  0  0  0  0  0  0
   -1.4650    2.6450   -0.9990 C   0  0  0  0  0  0  0  0  0  0  0  0
   -0.9350    3.8290   -1.2460 C   0  0  0  0  0  0  0  0  0  0  0  0
   -1.9820    4.6580   -1.8540 C   0  0  0  0  0  0  0  0  0  0  0  0
   -3.0390    3.8740   -1.9010 C   0  0  0  0  0  0  0  0  0  0  0  0
   -2.8550    2.6720   -1.4360 C   0  0  0  0  0  0  0  0  0  0  0  0
   -3.7550    1.6260   -1.3560 O   0  0  0  0  0  0  0  0  0  0  0  0
   -1.4150    0.3800   -0.2010 N   0  0  0  0  0  0  0  0  0  0  0  0
   -0.8380   -0.7400    0.3630 N   0  0  0  0  0  0  0  0  0  0  0  0
   -1.3460   -1.9490    0.6270 C   0  0  0  0  0  0  0  0  0  0  0  0
   -2.6810   -2.4500    0.3910 C   0  0  1  0  0  0  0  0  0  0  0  0
   -3.7930   -1.6860    1.0230 C   0  0  0  0  0  0  0  0  0  0  0  0
   -2.9110   -2.5140   -1.1270 C   0  0  0  0  0  0  0  0  0  0  0  0
   -0.3530   -2.6830    1.1860 N   0  0  0  0  0  0  0  0  0  0  0  0
    0.7330   -1.9340    1.2590 N   0  0  0  0  0  0  0  0  0  0  0  0
    0.4420   -0.7270    0.7510 C   0  0  0  0  0  0  0  0  0  0  0  0
  2  1  1  6
  2  3  1  0
  2  4  1  0
  4  5  1  0
  5  6  1  1
  5  7  1  0
  5 23  1  0
  7  8  1  0
  8  9  1  0
  8 15  2  0
  9 10  2  0
  9 13  1  0
 10 11  1  0
 11 12  2  0
 12 13  2  0
 13 14  1  0
 15 16  1  0
 16 17  1  0
 16 23  1  0
 17 18  1  0
 17 21  2  0
 18 19  1  1
 18 20  1  0
 21 22  1  0
 22 23  2  0
M  CHG  1   4   1
M  END
