
     RDKit          3D

 22 25  0  0  0  0  0  0  0  0999 V2000
   -0.2310   -2.6930   -0.5400 O   0  0  0  0  0  0  0  0  0  0  0  0
    0.7860   -1.9610   -0.4060 C   0  0  0  0  0  0  0  0  0  0  0  0
    1.9920   -2.5650   -0.2880 N   0  0  0  0  0  0  0  0  0  0  0  0
    3.1250   -1.8330   -0.1420 C   0  0  0  0  0  0  0  0  0  0  0  0
    4.4280   -2.0770   -0.0030 N   0  0  0  0  0  0  0  0  0  0  0  0
    5.1510   -0.9620    0.1080 C   0  0  0  0  0  0  0  0  0  0  0  0
    6.5250   -0.7480    0.2680 C   0  0  0  0  0  0  0  0  0  0  0  0
    6.9340    0.5660    0.3490 C   0  0  0  0  0  0  0  0  0  0  0  0
    6.0380    1.6130    0.2780 C   0  0  0  0  0  0  0  0  0  0  0  0
    4.7240    1.3820    0.1250 N   0  0  0  0  0  0  0  0  0  0  0  0
    4.2710    0.1020    0.0390 C   0  0  0  0  0  0  0  0  0  0  0  0
    2.9900   -0.3820   -0.1170 C   0  0  0  0  0  0  0  0  0  0  0  0
    1.7270    0.1540   -0.2430 C   0  0  0  0  0  0  0  0  0  0  0  0
    0.6310   -0.6240   -0.3870 N   0  0  0  0  0  0  0  0  0  0  0  0
   -0.7040   -0.0870   -0.5210 C   0  0  0  0  0  0  0  0  0  0  0  0
   -1.2930    0.0480    0.8500 C   0  0  0  0  0  0  0  0  0  0  0  0
   -2.6410    0.5820    0.8290 N   0  0  1  0  0  0  0  0  0  0  0  0
   -2.8850    1.3790   -0.3590 C   0  0  0  0  0  0  0  0  0  0  0  0
   -4.2930    1.9410   -0.1850 C   0  0  0  0  0  0  0  0  0  0  0  0
   -5.2450    0.7910   -0.4290 C   0  0  0  0  0  0  0  0  0  0  0  0
   -4.6740   -0.5320   -0.0000 C   0  0  0  0  0  0  0  0  0  0  0  0
   -3.6230   -0.4210    1.0640 C   0  0  0  0  0  0  0  0  0  0  0  0
  1  2  2  0
  2  3  1  0
  2 14  1  0
  3  4  1  0
  4  5  2  0
  4 12  1  0
  5  6  1  0
  6  7  2  0
  6 11  1  0
  7  8  1  0
  8  9  2  0
  9 10  1  0
 10 11  2  0
 11 12  1  0
 12 13  2  0
 13 14  1  0
 14 15  1  0
 15 16  1  0
 17 16  1  6
 17 18  1  0
 17 22  1  0
 18 19  1  0
 19 20  1  0
 20 21  1  0
 21 22  1  0
M  CHG  1  17   1
M  END
