
     RDKit          3D

 23 26  0  0  0  0  0  0  0  0999 V2000
   -5.0050   -1.9080   -1.7340 C   0  0  0  0  0  0  0  0  0  0  0  0
   -4.6770   -1.8750   -0.2750 C   0  0  0  0  0  0  0  0  0  0  0  0
   -4.4550   -0.5420    0.2550 N   0  0  0  0  0  0  0  0  0  0  0  0
   -5.4970    0.1510    0.8000 N   0  0  0  0  0  0  0  0  0  0  0  0
   -5.0770    1.3320    1.2530 C   0  0  0  0  0  0  0  0  0  0  0  0
   -5.8730    2.4110    1.9230 C   0  0  0  0  0  0  0  0  0  0  0  0
   -3.7280    1.3560    0.9710 C   0  0  0  0  0  0  0  0  0  0  0  0
   -3.3410    0.1670    0.3380 C   0  0  0  0  0  0  0  0  0  0  0  0
   -1.9840   -0.1410   -0.0640 C   0  0  0  0  0  0  0  0  0  0  0  0
   -1.5690   -1.1890   -0.8190 C   0  0  0  0  0  0  0  0  0  0  0  0
   -0.2120   -1.4000   -1.0930 C   0  0  0  0  0  0  0  0  0  0  0  0
    0.7600   -0.5550   -0.6100 C   0  0  0  0  0  0  0  0  0  0  0  0
    2.0990   -0.4720   -0.6800 N   0  0  0  0  0  0  0  0  0  0  0  0
    2.5560    0.5920    0.0020 C   0  0  0  0  0  0  0  0  0  0  0  0
    3.9940    1.0190    0.1580 C   0  0  1  0  0  0  0  0  0  0  0  0
    4.6490    0.2540    1.2280 C   0  0  0  0  0  0  0  0  0  0  0  0
    6.0590    0.0490    1.1080 N   0  0  0  0  0  0  0  0  0  0  0  0
    6.5870    0.2260   -0.2080 C   0  0  0  0  0  0  0  0  0  0  0  0
    5.4760   -0.1250   -1.1940 C   0  0  0  0  0  0  0  0  0  0  0  0
    4.5630    0.9160   -1.0990 O   0  0  0  0  0  0  0  0  0  0  0  0
    1.4710    1.1950    0.5170 N   0  0  0  0  0  0  0  0  0  0  0  0
    0.3540    0.5110    0.1570 C   0  0  0  0  0  0  0  0  0  0  0  0
   -0.9700    0.7090    0.4190 C   0  0  0  0  0  0  0  0  0  0  0  0
  1  2  1  0
  2  3  1  0
  3  4  1  0
  3  8  1  0
  4  5  2  0
  5  6  1  0
  5  7  1  0
  7  8  2  0
  8  9  1  0
  9 10  2  0
  9 23  1  0
 10 11  1  0
 11 12  2  0
 12 13  1  0
 12 22  1  0
 13 14  1  0
 15 14  1  6
 14 21  2  0
 15 16  1  0
 15 20  1  0
 16 17  1  0
 17 18  1  0
 18 19  1  0
 19 20  1  0
 21 22  1  0
 22 23  2  0
M  CHG  1  17   1
M  END
