
     RDKit          3D

 23 25  0  0  0  0  0  0  0  0999 V2000
    0.7300   -1.9820   -2.3120 C   0  0  0  0  0  0  0  0  0  0  0  0
    1.5230   -1.1230   -1.3870 C   0  0  0  0  0  0  0  0  0  0  0  0
    2.8310   -1.3610   -1.2520 N   0  0  0  0  0  0  0  0  0  0  0  0
    3.6020   -0.6310   -0.4420 C   0  0  0  0  0  0  0  0  0  0  0  0
    4.9560   -0.7080   -0.1580 C   0  0  0  0  0  0  0  0  0  0  0  0
    5.9430   -1.6660   -0.7070 C   0  0  0  0  0  0  0  0  0  0  0  0
    5.1730    0.3070    0.7490 C   0  0  0  0  0  0  0  0  0  0  0  0
    6.5060    0.6110    1.3460 C   0  0  0  0  0  0  0  0  0  0  0  0
    4.0150    0.9160    0.9620 N   0  0  0  0  0  0  0  0  0  0  0  0
    3.0240    0.3640    0.2440 N   0  0  0  0  0  0  0  0  0  0  0  0
    1.6880    0.6610    0.1500 C   0  0  0  0  0  0  0  0  0  0  0  0
    1.2610    1.8420    0.9440 C   0  0  0  0  0  0  0  0  0  0  0  0
    0.9030   -0.0800   -0.6700 C   0  0  0  0  0  0  0  0  0  0  0  0
   -0.4930    0.1200   -0.9250 C   0  0  0  0  0  0  0  0  0  0  0  0
   -1.2390    1.0700   -0.1680 N   0  0  0  0  0  0  0  0  0  0  0  0
   -2.4770    1.3850   -0.8600 C   0  0  0  0  0  0  0  0  0  0  0  0
   -3.5020    0.2950   -0.8350 C   0  0  0  0  0  0  0  0  0  0  0  0
   -3.9590    0.2200    0.6170 C   0  0  1  0  0  0  0  0  0  0  0  0
   -4.4310    1.4810    0.9670 O   0  0  0  0  0  0  0  0  0  0  0  0
   -5.0270   -0.8330    0.8100 C   0  0  0  0  0  0  0  0  0  0  0  0
   -6.1520   -0.4850   -0.0310 N   0  0  0  0  0  0  0  0  0  0  0  0
   -2.7570   -0.1510    1.4050 C   0  0  0  0  0  0  0  0  0  0  0  0
   -1.5130    0.5930    1.1760 C   0  0  0  0  0  0  0  0  0  0  0  0
  1  2  1  0
  2  3  2  0
  2 13  1  0
  3  4  1  0
  4  5  2  0
  4 10  1  0
  5  6  1  0
  5  7  1  0
  7  8  1  0
  7  9  2  0
  9 10  1  0
 10 11  1  0
 11 12  1  0
 11 13  2  0
 13 14  1  0
 14 15  1  0
 15 16  1  0
 15 23  1  0
 16 17  1  0
 17 18  1  0
 18 19  1  1
 18 20  1  0
 18 22  1  0
 20 21  1  0
 22 23  1  0
M  CHG  1  21   1
M  END
