
     RDKit          3D

 23 26  0  0  0  0  0  0  0  0999 V2000
   -6.9420    0.8240    0.8820 C   0  0  0  0  0  0  0  0  0  0  0  0
   -6.5590    0.8880    2.3250 C   0  0  0  0  0  0  0  0  0  0  0  0
   -5.4910    1.7420    2.6050 O   0  0  0  0  0  0  0  0  0  0  0  0
   -4.2190    1.5990    2.0680 C   0  0  0  0  0  0  0  0  0  0  0  0
   -3.2420    2.5030    2.4170 C   0  0  0  0  0  0  0  0  0  0  0  0
   -1.9630    2.3750    1.8880 C   0  0  0  0  0  0  0  0  0  0  0  0
   -1.6210    1.3650    1.0140 C   0  0  0  0  0  0  0  0  0  0  0  0
   -0.3130    1.2250    0.4660 N   0  0  0  0  0  0  0  0  0  0  0  0
    0.2550    0.0230    0.2600 C   0  0  0  0  0  0  0  0  0  0  0  0
    1.4970    0.2390   -0.2690 C   0  0  0  0  0  0  0  0  0  0  0  0
    1.6690    1.5910   -0.3800 C   0  0  0  0  0  0  0  0  0  0  0  0
    0.5380    2.1610    0.0810 N   0  0  0  0  0  0  0  0  0  0  0  0
    2.8910    2.2070   -0.9120 C   0  0  0  0  0  0  0  0  0  0  0  0
    3.8790    1.2680   -1.3030 N   0  0  0  0  0  0  0  0  0  0  0  0
    3.7540   -0.1730   -1.2100 C   0  0  0  0  0  0  0  0  0  0  0  0
    4.7780   -0.9160   -1.6190 C   0  0  0  0  0  0  0  0  0  0  0  0
    4.8470   -2.3750   -1.6080 C   0  0  0  0  0  0  0  0  0  0  0  0
    5.7530   -3.1720   -1.9640 N   0  0  0  0  0  0  0  0  0  0  0  0
    5.0190   -4.3250   -1.6250 C   0  0  0  0  0  0  0  0  0  0  0  0
    3.9420   -3.4210   -1.2060 C   0  0  0  0  0  0  0  0  0  0  0  0
    2.5440   -0.6610   -0.6860 N   0  0  0  0  0  0  0  0  0  0  0  0
   -2.6300    0.4650    0.6790 C   0  0  0  0  0  0  0  0  0  0  0  0
   -3.8870    0.5850    1.1940 C   0  0  0  0  0  0  0  0  0  0  0  0
  1  2  1  0
  2  3  1  0
  3  4  1  0
  4  5  2  0
  4 23  1  0
  5  6  1  0
  6  7  2  0
  7  8  1  0
  7 22  1  0
  8  9  1  0
  8 12  1  0
  9 10  2  0
 10 11  1  0
 10 21  1  0
 11 12  2  0
 11 13  1  0
 13 14  1  0
 14 15  1  0
 15 16  2  3
 15 21  1  0
 16 17  1  0
 17 18  2  0
 17 20  1  0
 18 19  1  0
 19 20  1  0
 22 23  2  0
M  CHG  1  18   1
M  END
