
     RDKit          3D

 24 25  0  0  0  0  0  0  0  0999 V2000
    2.7360   -1.4000    1.0140 N   0  0  0  0  0  0  0  0  0  0  0  0
    3.4830   -0.8940   -0.0940 C   0  0  1  0  0  0  0  0  0  0  0  0
    3.0790    0.4440   -0.6010 C   0  0  0  0  0  0  0  0  0  0  0  0
    1.7480    0.5850   -1.0820 N   0  0  0  0  0  0  0  0  0  0  0  0
    1.4320    0.3770   -2.3790 C   0  0  0  0  0  0  0  0  0  0  0  0
    0.1760    0.5240   -2.8580 C   0  0  0  0  0  0  0  0  0  0  0  0
   -0.8590    0.9090   -1.9880 C   0  0  0  0  0  0  0  0  0  0  0  0
   -2.0160    1.0370   -2.4820 O   0  0  0  0  0  0  0  0  0  0  0  0
   -0.5540    1.1130   -0.7050 N   0  0  0  0  0  0  0  0  0  0  0  0
   -1.5560    1.5510    0.2650 C   0  0  0  0  0  0  0  0  0  0  0  0
   -2.3700    0.4850    0.8350 C   0  0  0  0  0  0  0  0  0  0  0  0
   -1.7950   -0.2880    1.8410 C   0  0  0  0  0  0  0  0  0  0  0  0
   -2.4500   -1.4000    2.3270 C   0  0  0  0  0  0  0  0  0  0  0  0
   -3.6770   -1.8100    1.8670 C   0  0  0  0  0  0  0  0  0  0  0  0
   -4.2450   -1.0480    0.8800 C   0  0  0  0  0  0  0  0  0  0  0  0
   -3.5950    0.1050    0.3620 C   0  0  0  0  0  0  0  0  0  0  0  0
   -4.3480    0.9400   -0.5580 C   0  0  0  0  0  0  0  0  0  0  0  0
   -5.3330    0.3890   -1.1810 O   0  0  0  0  0  0  0  0  0  0  0  0
   -4.1550    2.2570   -0.8540 O   0  0  0  0  0  0  0  0  0  0  0  0
    0.7450    0.9480   -0.2800 C   0  0  0  0  0  0  0  0  0  0  0  0
    0.9960    1.1610    0.9590 O   0  0  0  0  0  0  0  0  0  0  0  0
    4.9460   -0.8700    0.2260 C   0  0  0  0  0  0  0  0  0  0  0  0
    5.7710   -0.4470   -0.6550 O   0  0  0  0  0  0  0  0  0  0  0  0
    5.4890   -1.2790    1.4280 O   0  0  0  0  0  0  0  0  0  0  0  0
  2  1  1  1
  2  3  1  0
  2 22  1  0
  3  4  1  0
  4  5  1  0
  4 20  1  0
  5  6  2  0
  6  7  1  0
  7  8  2  0
  7  9  1  0
  9 10  1  0
  9 20  1  0
 10 11  1  0
 11 12  2  0
 11 16  1  0
 12 13  1  0
 13 14  2  0
 14 15  1  0
 15 16  2  0
 16 17  1  0
 17 18  2  0
 17 19  1  0
 20 21  2  0
 22 23  2  0
 22 24  1  0
M  CHG  1   1   1
M  END
