
     RDKit          3D

 23 26  0  0  0  0  0  0  0  0999 V2000
    1.4790    1.4050    1.8630 C   0  0  0  0  0  0  0  0  0  0  0  0
    1.5590    0.7280    0.5060 C   0  0  1  0  0  0  0  0  0  0  0  0
    2.9260    0.9370   -0.0970 C   0  0  0  0  0  0  0  0  0  0  0  0
    3.1160    1.9390   -0.9440 C   0  0  0  0  0  0  0  0  0  0  0  0
    4.4550    2.0770   -1.4810 C   0  0  0  0  0  0  0  0  0  0  0  0
    5.4280    1.2560   -1.1460 C   0  0  0  0  0  0  0  0  0  0  0  0
    5.2690    0.1350   -0.2140 C   0  0  0  0  0  0  0  0  0  0  0  0
    3.9360    0.0320    0.2840 N   0  0  0  0  0  0  0  0  0  0  0  0
    3.6390   -1.0720    1.2270 C   0  0  0  0  0  0  0  0  0  0  0  0
    2.3480   -1.6790    0.7270 C   0  0  0  0  0  0  0  0  0  0  0  0
    1.3080   -0.6810    0.5850 N   0  0  0  0  0  0  0  0  0  0  0  0
   -0.0320   -1.1440    0.5240 C   0  0  0  0  0  0  0  0  0  0  0  0
   -0.3030   -2.3950    0.5860 O   0  0  0  0  0  0  0  0  0  0  0  0
   -1.1520   -0.2900    0.3940 N   0  0  0  0  0  0  0  0  0  0  0  0
   -2.4950   -0.8450    0.3380 C   0  0  1  0  0  0  0  0  0  0  0  0
   -3.3810   -0.2980    1.4150 C   0  0  0  0  0  0  0  0  0  0  0  0
   -4.7680   -0.8920    1.2000 C   0  0  0  0  0  0  0  0  0  0  0  0
   -5.3560   -0.2220    0.0000 C   0  0  0  0  0  0  0  0  0  0  0  0
   -4.4200   -0.1950   -1.1130 N   0  0  0  0  0  0  0  0  0  0  0  0
   -4.6710    0.0980   -2.4020 C   0  0  0  0  0  0  0  0  0  0  0  0
   -3.4800   -0.0050   -3.0880 C   0  0  0  0  0  0  0  0  0  0  0  0
   -2.5550   -0.3540   -2.1970 N   0  0  0  0  0  0  0  0  0  0  0  0
   -3.1130   -0.4750   -0.9790 C   0  0  0  0  0  0  0  0  0  0  0  0
  2  1  1  1
  2  3  1  0
  2 11  1  0
  3  4  2  0
  3  8  1  0
  4  5  1  0
  5  6  2  0
  6  7  1  0
  7  8  1  0
  8  9  1  0
  9 10  1  0
 10 11  1  0
 11 12  1  0
 12 13  2  0
 12 14  1  0
 15 14  1  6
 15 16  1  0
 15 23  1  0
 16 17  1  0
 17 18  1  0
 18 19  1  0
 19 20  1  0
 19 23  1  0
 20 21  2  0
 21 22  1  0
 22 23  2  0
M  CHG  1  22   1
M  END
