
     RDKit          3D

 23 26  0  0  0  0  0  0  0  0999 V2000
   -5.1400    2.3130    1.5010 C   0  0  0  0  0  0  0  0  0  0  0  0
   -3.8170    2.0410    0.9990 N   0  0  0  0  0  0  0  0  0  0  0  0
   -3.4880    0.8590    0.2870 C   0  0  0  0  0  0  0  0  0  0  0  0
   -4.4740   -0.0550    0.0710 N   0  0  0  0  0  0  0  0  0  0  0  0
   -4.1750   -1.1910   -0.6100 C   0  0  0  0  0  0  0  0  0  0  0  0
   -2.9150   -1.4630   -1.0940 C   0  0  0  0  0  0  0  0  0  0  0  0
   -2.6490   -2.7310   -1.8360 C   0  0  0  0  0  0  0  0  0  0  0  0
   -1.9080   -0.5440   -0.8820 C   0  0  0  0  0  0  0  0  0  0  0  0
   -0.6200   -0.4820   -1.1970 N   0  0  0  0  0  0  0  0  0  0  0  0
   -0.0800    0.6710   -0.7350 C   0  0  0  0  0  0  0  0  0  0  0  0
    1.3550    1.0950   -0.9000 C   0  0  0  0  0  0  0  0  0  0  0  0
    2.1570    0.6430    0.1860 N   0  0  0  0  0  0  0  0  0  0  0  0
    1.9070    1.0470    1.5550 C   0  0  0  0  0  0  0  0  0  0  0  0
    3.2430    1.6360    2.0330 C   0  0  0  0  0  0  0  0  0  0  0  0
    4.1580    0.5580    2.0560 O   0  0  0  0  0  0  0  0  0  0  0  0
    4.2720   -0.2670    0.9520 C   0  0  0  0  0  0  0  0  0  0  0  0
    5.3170   -1.1180    0.7380 C   0  0  0  0  0  0  0  0  0  0  0  0
    5.3670   -1.9130   -0.3860 C   0  0  0  0  0  0  0  0  0  0  0  0
    4.3760   -1.8820   -1.3270 C   0  0  0  0  0  0  0  0  0  0  0  0
    3.3110   -1.0310   -1.1330 C   0  0  0  0  0  0  0  0  0  0  0  0
    3.2580   -0.2350   -0.0120 C   0  0  0  0  0  0  0  0  0  0  0  0
   -1.0840    1.3120   -0.1250 N   0  0  0  0  0  0  0  0  0  0  0  0
   -2.2220    0.6060   -0.1900 C   0  0  0  0  0  0  0  0  0  0  0  0
  1  2  1  0
  2  3  1  0
  3  4  2  0
  3 23  1  0
  4  5  1  0
  5  6  2  0
  6  7  1  0
  6  8  1  0
  8  9  1  0
  8 23  2  0
  9 10  1  0
 10 11  1  0
 10 22  2  0
 11 12  1  0
 12 13  1  0
 12 21  1  0
 13 14  1  0
 14 15  1  0
 15 16  1  0
 16 17  2  0
 16 21  1  0
 17 18  1  0
 18 19  2  0
 19 20  1  0
 20 21  2  0
 22 23  1  0
M  CHG  1   4   1
M  END
