
     RDKit          3D

  9  9  0  0  0  0  0  0  0  0999 V2000
   -0.4130   -1.2760    1.8210 N   0  0  0  0  0  0  0  0  0  0  0  0
   -0.5590   -0.8110    0.6300 C   0  0  0  0  0  0  0  0  0  0  0  0
   -1.7540   -1.0400   -0.2040 C   0  0  0  0  0  0  0  0  0  0  0  0
   -2.0920   -0.0040   -1.0340 O   0  0  0  0  0  0  0  0  0  0  0  0
   -1.3350    1.1290   -0.9280 C   0  0  0  0  0  0  0  0  0  0  0  0
    0.0740    0.8510   -0.9980 O   0  0  0  0  0  0  0  0  0  0  0  0
    0.4990   -0.0040    0.0300 C   0  0  0  0  0  0  0  0  0  0  0  0
    1.7490   -0.0820    0.4330 C   0  0  0  0  0  0  0  0  0  0  0  0
    2.6870    0.7630   -0.2380 N   0  0  0  0  0  0  0  0  0  0  0  0
  1  2  2  0
  2  3  1  0
  2  7  1  0
  3  4  1  0
  4  5  1  0
  5  6  1  0
  6  7  1  0
  7  8  2  3
  8  9  1  0
M  END
