
     RDKit          3D

  9  9  0  0  0  0  0  0  0  0999 V2000
    3.4880    0.1490    0.1490 C   0  0  0  0  0  0  0  0  0  0  0  0
    2.1340    0.0050    0.4310 O   0  0  0  0  0  0  0  0  0  0  0  0
    1.4720   -0.4310   -0.7320 C   0  0  0  0  0  0  0  0  0  0  0  0
    0.0230   -0.5920   -0.4510 C   0  0  0  0  0  0  0  0  0  0  0  0
   -0.7030   -1.6430   -0.5390 N   0  0  0  0  0  0  0  0  0  0  0  0
   -2.0080   -1.4020   -0.1950 O   0  0  0  0  0  0  0  0  0  0  0  0
   -2.0230   -0.1730    0.5000 C   0  0  2  0  0  0  0  0  0  0  0  0
   -3.2450    0.5900    0.0430 C   0  0  0  0  0  0  0  0  0  0  0  0
   -0.8310    0.4670   -0.0140 N   0  0  0  0  0  0  0  0  0  0  0  0
  1  2  1  0
  2  3  1  0
  3  4  1  0
  4  5  2  0
  4  9  1  0
  5  6  1  0
  6  7  1  0
  7  8  1  6
  7  9  1  0
M  END
