
     RDKit          3D

  9  9  0  0  0  0  0  0  0  0999 V2000
    2.6650   -0.2730    0.1810 C   0  0  0  0  0  0  0  0  0  0  0  0
    1.4780   -0.0840    0.9800 N   0  0  0  0  0  0  0  0  0  0  0  0
    0.3390   -0.0320    0.4100 C   0  0  0  0  0  0  0  0  0  0  0  0
    0.2330   -0.1640   -1.0500 C   0  0  0  0  0  0  0  0  0  0  0  0
   -0.9110    0.5800   -1.5030 O   0  0  0  0  0  0  0  0  0  0  0  0
   -2.0420    0.6760   -0.7220 C   0  0  0  0  0  0  0  0  0  0  0  0
   -3.0270    1.3240   -1.1370 O   0  0  0  0  0  0  0  0  0  0  0  0
   -2.1030    0.0250    0.5960 C   0  0  0  0  0  0  0  0  0  0  0  0
   -0.8070    0.1530    1.2160 N   0  0  0  0  0  0  0  0  0  0  0  0
  1  2  1  0
  2  3  2  3
  3  4  1  0
  3  9  1  0
  4  5  1  0
  5  6  1  0
  6  7  2  0
  6  8  1  0
  8  9  1  0
M  END
