
     RDKit          3D

  9  9  0  0  0  0  0  0  0  0999 V2000
    2.7070   -0.0800   -0.0760 C   0  0  0  0  0  0  0  0  0  0  0  0
    1.4430   -0.0890   -0.6870 O   0  0  0  0  0  0  0  0  0  0  0  0
    0.4190   -0.0700    0.2900 C   0  0  2  0  0  0  0  0  0  0  0  0
   -0.4270   -1.2890    0.2300 C   0  0  0  0  0  0  0  0  0  0  0  0
   -1.7650   -1.1220   -0.1520 N   0  0  0  0  0  0  0  0  0  0  0  0
   -2.3970    0.1030    0.0780 C   0  0  0  0  0  0  0  0  0  0  0  0
   -1.5460    1.2600    0.0540 N   0  0  0  0  0  0  0  0  0  0  0  0
   -0.2860    1.1980    0.1480 C   0  0  0  0  0  0  0  0  0  0  0  0
    0.4530    2.3680    0.1160 O   0  0  0  0  0  0  0  0  0  0  0  0
  1  2  1  0
  3  2  1  6
  3  4  1  0
  3  8  1  0
  4  5  1  0
  5  6  1  0
  6  7  1  0
  7  8  2  0
  8  9  1  0
M  END
