
     RDKit          3D

  9  9  0  0  0  0  0  0  0  0999 V2000
    2.6750    0.3550    0.0970 C   0  0  0  0  0  0  0  0  0  0  0  0
    1.7420   -0.4280   -0.4100 C   0  0  0  0  0  0  0  0  0  0  0  0
    0.3320   -0.1670   -0.1570 C   0  0  0  0  0  0  0  0  0  0  0  0
   -0.0820    0.8080    0.5510 N   0  0  0  0  0  0  0  0  0  0  0  0
   -1.4400    1.0730    0.8050 C   0  0  0  0  0  0  0  0  0  0  0  0
   -2.3880    0.4850    0.0220 O   0  0  0  0  0  0  0  0  0  0  0  0
   -2.0260   -0.7300   -0.4500 N   0  0  0  0  0  0  0  0  0  0  0  0
   -0.6690   -1.0470   -0.7340 C   0  0  0  0  0  0  0  0  0  0  0  0
   -0.3550   -2.0320   -1.4430 O   0  0  0  0  0  0  0  0  0  0  0  0
  1  2  2  0
  2  3  1  0
  3  4  2  0
  3  8  1  0
  4  5  1  0
  5  6  1  0
  6  7  1  0
  7  8  1  0
  8  9  2  0
M  END
