
     RDKit          3D

  9  9  0  0  0  0  0  0  0  0999 V2000
    2.1720    0.0580   -0.0970 C   0  0  0  0  0  0  0  0  0  0  0  0
    0.7170   -0.0100   -0.0390 N   0  0  0  0  0  0  0  0  0  0  0  0
    0.0600   -1.1830   -0.0690 C   0  0  0  0  0  0  0  0  0  0  0  0
   -1.3270   -1.2320   -0.0130 C   0  0  0  0  0  0  0  0  0  0  0  0
   -2.0560   -0.1140    0.0720 N   0  0  0  0  0  0  0  0  0  0  0  0
   -1.4110    1.0670    0.1030 C   0  0  0  0  0  0  0  0  0  0  0  0
   -2.0390    2.1550    0.1830 O   0  0  0  0  0  0  0  0  0  0  0  0
   -0.0170    1.1120    0.0470 C   0  0  0  0  0  0  0  0  0  0  0  0
    0.6100    2.2060    0.0740 O   0  0  0  0  0  0  0  0  0  0  0  0
  1  2  1  0
  2  3  1  0
  2  8  1  0
  3  4  2  0
  4  5  1  0
  5  6  1  0
  6  7  2  0
  6  8  1  0
  8  9  2  0
M  END
