
     RDKit          3D

  9  9  0  0  0  0  0  0  0  0999 V2000
   -3.3560    0.4940    0.0830 N   0  0  0  0  0  0  0  0  0  0  0  0
   -2.2430    0.1990    0.1660 C   0  0  0  0  0  0  0  0  0  0  0  0
   -0.8430   -0.1720    0.2940 C   0  0  2  0  0  0  0  0  0  0  0  0
    0.0340    1.0690    0.4720 C   0  0  0  0  0  0  0  0  0  0  0  0
    1.4160    0.6600    0.3560 N   0  0  0  0  0  0  0  0  0  0  0  0
    1.7790   -0.6820    0.0360 C   0  0  0  0  0  0  0  0  0  0  0  0
    2.9180   -1.1120    0.3410 O   0  0  0  0  0  0  0  0  0  0  0  0
    0.8630   -1.5280   -0.6210 O   0  0  0  0  0  0  0  0  0  0  0  0
   -0.3840   -0.8990   -0.9530 C   0  0  0  0  0  0  0  0  0  0  0  0
  1  2  3  0
  3  2  1  6
  3  4  1  0
  3  9  1  0
  4  5  1  0
  5  6  1  0
  6  7  2  0
  6  8  1  0
  8  9  1  0
M  END
