
     RDKit          3D

 17 18  0  0  0  0  0  0  0  0999 V2000
   -2.6760   -2.5850    1.1580 C   0  0  0  0  0  0  0  0  0  0  0  0
   -2.6080   -1.2300    0.5550 C   0  0  0  0  0  0  0  0  0  0  0  0
   -3.7990   -0.5520    0.3510 O   0  0  0  0  0  0  0  0  0  0  0  0
   -1.4430   -0.7040    0.2300 C   0  0  0  0  0  0  0  0  0  0  0  0
   -0.1230   -1.3110    0.3920 C   0  0  0  0  0  0  0  0  0  0  0  0
    0.7980   -0.4700   -0.0520 C   0  0  0  0  0  0  0  0  0  0  0  0
    2.1420   -0.7490   -0.0360 O   0  0  0  0  0  0  0  0  0  0  0  0
    3.1300   -0.0200    0.6110 C   0  0  0  0  0  0  0  0  0  0  0  0
    4.4770   -0.6970    0.3550 C   0  0  0  0  0  0  0  0  0  0  0  0
    5.5060   -0.0250    0.9710 F   0  0  0  0  0  0  0  0  0  0  0  0
    0.1210    0.7420   -0.5330 C   0  0  0  0  0  0  0  0  0  0  0  0
    0.6100    1.9080   -1.0860 C   0  0  0  0  0  0  0  0  0  0  0  0
   -0.2610    2.9110   -1.4590 C   0  0  0  0  0  0  0  0  0  0  0  0
   -1.6220    2.7610   -1.2840 C   0  0  0  0  0  0  0  0  0  0  0  0
   -2.4730    3.7680   -1.6600 F   0  0  0  0  0  0  0  0  0  0  0  0
   -2.1350    1.5970   -0.7300 C   0  0  0  0  0  0  0  0  0  0  0  0
   -1.2520    0.6070   -0.3640 C   0  0  0  0  0  0  0  0  0  0  0  0
  1  2  1  0
  2  3  1  0
  2  4  2  3
  4  5  1  0
  4 17  1  0
  5  6  2  0
  6  7  1  0
  6 11  1  0
  7  8  1  0
  8  9  1  0
  9 10  1  0
 11 12  2  0
 11 17  1  0
 12 13  1  0
 13 14  2  0
 14 15  1  0
 14 16  1  0
 16 17  2  0
M  END
