
     RDKit          3D

 16 17  0  0  0  0  0  0  0  0999 V2000
   -3.6470    0.2430   -0.8410 C   0  0  0  0  0  0  0  0  0  0  0  0
   -2.8860   -0.1880    0.4100 C   0  0  1  0  0  0  0  0  0  0  0  0
   -2.9790    0.8720    1.4820 C   0  0  0  0  0  0  0  0  0  0  0  0
   -3.3900   -1.3810    0.9060 O   0  0  0  0  0  0  0  0  0  0  0  0
   -1.4840   -0.3860   -0.0280 C   0  0  0  0  0  0  0  0  0  0  0  0
   -1.1540   -1.2050   -1.0930 C   0  0  0  0  0  0  0  0  0  0  0  0
    0.2020   -1.1580   -1.2350 C   0  0  0  0  0  0  0  0  0  0  0  0
    0.6750   -0.3120   -0.2500 C   0  0  0  0  0  0  0  0  0  0  0  0
    2.0870    0.0300   -0.0270 C   0  0  0  0  0  0  0  0  0  0  0  0
    3.0220   -0.3480   -0.9730 C   0  0  0  0  0  0  0  0  0  0  0  0
    4.3450   -0.0500   -0.8010 C   0  0  0  0  0  0  0  0  0  0  0  0
    4.7290    0.6450    0.3450 C   0  0  0  0  0  0  0  0  0  0  0  0
    6.0400    0.9480    0.5080 F   0  0  0  0  0  0  0  0  0  0  0  0
    3.8200    1.0390    1.3090 C   0  0  0  0  0  0  0  0  0  0  0  0
    2.4910    0.7100    1.0880 C   0  0  0  0  0  0  0  0  0  0  0  0
   -0.3540    0.1130    0.4270 O   0  0  0  0  0  0  0  0  0  0  0  0
  2  1  1  6
  2  3  1  0
  2  4  1  0
  2  5  1  0
  5  6  2  0
  5 16  1  0
  6  7  1  0
  7  8  2  0
  8  9  1  0
  8 16  1  0
  9 10  2  0
  9 15  1  0
 10 11  1  0
 11 12  2  0
 12 13  1  0
 12 14  1  0
 14 15  2  0
M  END
