
     RDKit          3D

 17 18  0  0  0  0  0  0  0  0999 V2000
   -4.0110    1.7030   -0.0440 C   0  0  0  0  0  0  0  0  0  0  0  0
   -4.3500    0.4410   -0.2460 C   0  0  0  0  0  0  0  0  0  0  0  0
   -3.3480   -0.5670   -0.4970 C   0  0  0  0  0  0  0  0  0  0  0  0
   -3.7050   -1.8100   -0.6940 C   0  0  0  0  0  0  0  0  0  0  0  0
   -2.0150   -0.2330   -0.5310 O   0  0  0  0  0  0  0  0  0  0  0  0
   -1.1230   -0.9260    0.2840 C   0  0  0  0  0  0  0  0  0  0  0  0
    0.2820   -0.4510    0.1360 C   0  0  0  0  0  0  0  0  0  0  0  0
    1.3470   -0.9800    0.8360 C   0  0  0  0  0  0  0  0  0  0  0  0
    2.4980   -0.2990    0.4480 C   0  0  0  0  0  0  0  0  0  0  0  0
    3.8260   -0.3880    0.7990 C   0  0  0  0  0  0  0  0  0  0  0  0
    4.7580    0.4460    0.2280 C   0  0  0  0  0  0  0  0  0  0  0  0
    4.3390    1.3730   -0.7050 C   0  0  0  0  0  0  0  0  0  0  0  0
    5.2930    2.1830   -1.2510 F   0  0  0  0  0  0  0  0  0  0  0  0
    3.0210    1.4440   -1.0380 C   0  0  0  0  0  0  0  0  0  0  0  0
    2.6100    2.3630   -1.9620 F   0  0  0  0  0  0  0  0  0  0  0  0
    2.0440    0.6260   -0.4890 C   0  0  0  0  0  0  0  0  0  0  0  0
    0.7410    0.5010   -0.6410 O   0  0  0  0  0  0  0  0  0  0  0  0
  1  2  2  0
  2  3  1  0
  3  4  2  0
  3  5  1  0
  5  6  1  0
  6  7  1  0
  7  8  2  0
  7 17  1  0
  8  9  1  0
  9 10  2  0
  9 16  1  0
 10 11  1  0
 11 12  2  0
 12 13  1  0
 12 14  1  0
 14 15  1  0
 14 16  2  0
 16 17  1  0
M  END
