
     RDKit          3D

 17 18  0  0  0  0  0  0  0  0999 V2000
    4.9320   -0.5640    0.7220 O   0  0  0  0  0  0  0  0  0  0  0  0
    4.1960   -0.1740   -0.2110 C   0  0  0  0  0  0  0  0  0  0  0  0
    4.8170    0.2500   -1.3820 O   0  0  0  0  0  0  0  0  0  0  0  0
    2.7260   -0.1550   -0.0980 C   0  0  0  0  0  0  0  0  0  0  0  0
    2.1100   -0.5680    1.0740 C   0  0  0  0  0  0  0  0  0  0  0  0
    0.7360   -0.5360    1.1610 C   0  0  0  0  0  0  0  0  0  0  0  0
   -0.0430   -0.1050    0.1140 C   0  0  0  0  0  0  0  0  0  0  0  0
   -1.4790   -0.0360    0.2020 C   0  0  0  0  0  0  0  0  0  0  0  0
   -2.2370   -1.2040    0.2740 C   0  0  0  0  0  0  0  0  0  0  0  0
   -1.6190   -2.4250    0.2800 F   0  0  0  0  0  0  0  0  0  0  0  0
   -3.6060   -1.0420    0.3460 C   0  0  0  0  0  0  0  0  0  0  0  0
   -4.2210    0.1910    0.3480 C   0  0  0  0  0  0  0  0  0  0  0  0
   -3.4310    1.3370    0.2750 C   0  0  0  0  0  0  0  0  0  0  0  0
   -2.0620    1.2200    0.2010 C   0  0  0  0  0  0  0  0  0  0  0  0
   -1.2690    2.3500    0.1200 F   0  0  0  0  0  0  0  0  0  0  0  0
    0.6060    0.3000   -1.0460 C   0  0  0  0  0  0  0  0  0  0  0  0
    1.9830    0.2790   -1.1590 C   0  0  0  0  0  0  0  0  0  0  0  0
  1  2  2  0
  2  3  1  0
  2  4  1  0
  4  5  2  0
  4 17  1  0
  5  6  1  0
  6  7  2  0
  7  8  1  0
  7 16  1  0
  8  9  2  0
  8 14  1  0
  9 10  1  0
  9 11  1  0
 11 12  2  0
 12 13  1  0
 13 14  2  0
 14 15  1  0
 16 17  2  0
M  END
