
     RDKit          3D

 17 18  0  0  0  0  0  0  0  0999 V2000
    4.4110    1.0960    0.0370 C   0  0  0  0  0  0  0  0  0  0  0  0
    3.2350    0.1980   -0.0530 C   0  0  0  0  0  0  0  0  0  0  0  0
    3.1690   -1.0970   -0.2200 C   0  0  0  0  0  0  0  0  0  0  0  0
    1.7880   -1.5360   -0.2470 C   0  0  0  0  0  0  0  0  0  0  0  0
    0.9510   -0.4850   -0.0910 C   0  0  0  0  0  0  0  0  0  0  0  0
   -0.4990   -0.6080   -0.0740 C   0  0  0  0  0  0  0  0  0  0  0  0
   -1.0410   -1.8820   -0.2280 C   0  0  0  0  0  0  0  0  0  0  0  0
   -2.4100   -1.9880   -0.2110 C   0  0  0  0  0  0  0  0  0  0  0  0
   -3.2490   -0.9230   -0.0530 C   0  0  0  0  0  0  0  0  0  0  0  0
   -2.7240    0.3670    0.1030 C   0  0  0  0  0  0  0  0  0  0  0  0
   -3.6510    1.5050    0.2730 C   0  0  2  0  0  0  0  0  0  0  0  0
   -4.3030    1.2810    1.5030 F   0  0  0  0  0  0  0  0  0  0  0  0
   -4.5860    1.4800   -0.7550 F   0  0  0  0  0  0  0  0  0  0  0  0
   -1.3530    0.4960    0.0890 C   0  0  0  0  0  0  0  0  0  0  0  0
   -0.8270    1.7420    0.2400 O   0  0  0  0  0  0  0  0  0  0  0  0
    1.8250    0.6570    0.0380 C   0  0  0  0  0  0  0  0  0  0  0  0
    1.5180    1.8640    0.2030 O   0  0  0  0  0  0  0  0  0  0  0  0
  1  2  1  0
  2  3  2  0
  2 16  1  0
  3  4  1  0
  4  5  2  0
  5  6  1  0
  5 16  1  0
  6  7  2  0
  6 14  1  0
  7  8  1  0
  8  9  2  0
  9 10  1  0
 10 11  1  0
 10 14  2  0
 11 12  1  1
 11 13  1  0
 14 15  1  0
 16 17  2  0
M  END
