
     RDKit          3D

 11 11  0  0  0  0  0  0  0  0999 V2000
   -1.1600   -0.6730    1.2490 N   0  0  0  0  0  0  0  0  0  0  0  0
   -0.6910   -0.1780   -0.0340 C   0  0  1  0  0  0  0  0  0  0  0  0
   -1.5930    0.9230   -0.5520 C   0  0  1  0  0  0  0  0  0  0  0  0
   -2.8950    0.5180   -0.7360 O   0  0  0  0  0  0  0  0  0  0  0  0
   -1.5610    2.0220    0.2940 O   0  0  0  0  0  0  0  0  0  0  0  0
    0.6600    0.3560    0.0690 C   0  0  0  0  0  0  0  0  0  0  0  0
    1.6630   -0.4690   -0.1500 C   0  0  0  0  0  0  0  0  0  0  0  0
    3.1280   -0.2010   -0.1120 C   0  0  0  0  0  0  0  0  0  0  0  0
    3.3480    1.1290    0.2070 O   0  0  0  0  0  0  0  0  0  0  0  0
    0.9170   -2.0620   -0.5480 S   0  0  0  0  0  0  0  0  0  0  0  0
   -0.7330   -1.3480   -0.9880 C   0  0  0  0  0  0  0  0  0  0  0  0
  2  1  1  1
  2  3  1  0
  2  6  1  0
  2 11  1  0
  3  4  1  1
  3  5  1  0
  6  7  2  0
  7  8  1  0
  7 10  1  0
  8  9  1  0
 10 11  1  0
M  CHG  1   1   1
M  END
