
     RDKit          3D

 11 11  0  0  0  0  0  0  0  0999 V2000
    3.6550   -0.3300    0.5510 N   0  0  0  0  0  0  0  0  0  0  0  0
    2.3110   -0.7690    0.3180 C   0  0  0  0  0  0  0  0  0  0  0  0
    1.4230    0.3530   -0.1880 C   0  0  2  0  0  0  0  0  0  0  0  0
    1.3460    1.3970    0.7000 O   0  0  0  0  0  0  0  0  0  0  0  0
    0.0780   -0.2350   -0.5280 C   0  0  2  0  0  0  0  0  0  0  0  0
   -0.8420    0.8810   -1.0440 C   0  0  0  0  0  0  0  0  0  0  0  0
   -2.1500    0.4240   -0.8280 O   0  0  0  0  0  0  0  0  0  0  0  0
   -2.3060    0.4440    0.5790 C   0  0  1  0  0  0  0  0  0  0  0  0
   -3.5900   -0.2220    0.9430 C   0  0  0  0  0  0  0  0  0  0  0  0
   -3.5710   -1.5360    0.4960 O   0  0  0  0  0  0  0  0  0  0  0  0
   -0.8610   -0.6140    1.0130 S   0  0  0  0  0  0  0  0  0  0  0  0
  1  2  1  0
  2  3  1  0
  3  4  1  1
  3  5  1  0
  5  6  1  6
  5 11  1  0
  6  7  1  0
  7  8  1  0
  8  9  1  6
  8 11  1  0
  9 10  1  0
M  CHG  1   1   1
M  END
