
     RDKit          3D

 11 11  0  0  0  0  0  0  0  0999 V2000
   -0.9040    0.4510    1.1090 N   0  0  0  0  0  0  0  0  0  0  0  0
   -0.6850   -0.2190   -0.1570 C   0  0  2  0  0  0  0  0  0  0  0  0
   -1.8840    0.0900   -1.0630 C   0  0  1  0  0  0  0  0  0  0  0  0
   -3.0570   -0.3600   -0.4960 O   0  0  0  0  0  0  0  0  0  0  0  0
   -1.9210    1.4830   -1.2630 O   0  0  0  0  0  0  0  0  0  0  0  0
   -0.6070   -1.6910    0.0930 C   0  0  0  0  0  0  0  0  0  0  0  0
    1.1300   -1.8040    0.6870 S   0  0  0  0  0  0  0  0  0  0  0  0
    1.7480   -0.3450   -0.2260 C   0  0  2  0  0  0  0  0  0  0  0  0
    2.4790    0.6000    0.6840 C   0  0  0  0  0  0  0  0  0  0  0  0
    3.5630   -0.1190    1.2320 O   0  0  0  0  0  0  0  0  0  0  0  0
    0.5380    0.2250   -0.8690 C   0  0  0  0  0  0  0  0  0  0  0  0
  2  1  1  1
  2  3  1  0
  2  6  1  0
  2 11  1  0
  3  4  1  1
  3  5  1  0
  6  7  1  0
  7  8  1  0
  8  9  1  1
  8 11  1  0
  9 10  1  0
M  CHG  1   1   1
M  END
