
     RDKit          3D

 10 10  0  0  0  0  0  0  0  0999 V2000
    2.5980    1.4890    0.2050 C   0  0  0  0  0  0  0  0  0  0  0  0
    1.6490    0.7990    0.9970 O   0  0  0  0  0  0  0  0  0  0  0  0
    0.8840    0.0750    0.1390 C   0  0  1  0  0  0  0  0  0  0  0  0
    0.8700   -1.4240    0.4470 C   0  0  0  0  0  0  0  0  0  0  0  0
   -0.4150   -1.9200   -0.1960 C   0  0  0  0  0  0  0  0  0  0  0  0
   -1.0810   -0.6820   -0.7400 C   0  0  1  0  0  0  0  0  0  0  0  0
   -2.5040   -0.7800   -0.8240 N   0  0  0  0  0  0  0  0  0  0  0  0
   -0.6110    0.3600    0.2560 C   0  0  2  0  0  0  0  0  0  0  0  0
   -1.0500    2.0200   -0.2000 S   0  0  0  0  0  0  0  0  0  0  0  0
   -0.3610    3.1080    0.9400 O   0  0  0  0  0  0  0  0  0  0  0  0
  1  2  1  0
  3  2  1  1
  3  4  1  0
  3  8  1  0
  4  5  1  0
  5  6  1  0
  6  7  1  1
  6  8  1  0
  8  9  1  6
  9 10  1  0
M  CHG  1   7   1
M  END
