
     RDKit          3D

 11 11  0  0  0  0  0  0  0  0999 V2000
   -1.3330   -1.8950   -0.6350 N   0  0  0  0  0  0  0  0  0  0  0  0
   -1.5020   -0.7330    0.1890 C   0  0  0  0  0  0  0  0  0  0  0  0
   -0.5470    0.3780   -0.1950 C   0  0  1  0  0  0  0  0  0  0  0  0
   -0.8160    0.7050   -1.5190 O   0  0  0  0  0  0  0  0  0  0  0  0
   -0.8030    1.5370    0.7400 C   0  0  0  0  0  0  0  0  0  0  0  0
   -2.1320    1.9620    0.6850 O   0  0  0  0  0  0  0  0  0  0  0  0
    0.8610   -0.0830   -0.1240 C   0  0  2  0  0  0  0  0  0  0  0  0
    1.3160   -0.5040    1.2650 C   0  0  0  0  0  0  0  0  0  0  0  0
    3.1180   -0.6060    0.8670 S   0  0  0  0  0  0  0  0  0  0  0  0
    2.9880    0.3260   -0.7160 C   0  0  0  0  0  0  0  0  0  0  0  0
    1.7330    0.9080   -0.5420 O   0  0  0  0  0  0  0  0  0  0  0  0
  1  2  1  0
  2  3  1  0
  3  4  1  6
  3  5  1  0
  3  7  1  0
  5  6  1  0
  7  8  1  1
  7 11  1  0
  8  9  1  0
  9 10  1  0
 10 11  1  0
M  CHG  1   1   1
M  END
