
     RDKit          3D

 11 11  0  0  0  0  0  0  0  0999 V2000
    1.1080   -1.5980    0.8880 N   0  0  0  0  0  0  0  0  0  0  0  0
    0.5420   -0.2570    0.6500 C   0  0  1  0  0  0  0  0  0  0  0  0
    1.7510    0.5860    0.3220 C   0  0  2  0  0  0  0  0  0  0  0  0
    1.4510    1.8900    0.0980 O   0  0  0  0  0  0  0  0  0  0  0  0
    2.4520    0.0310   -0.7670 O   0  0  0  0  0  0  0  0  0  0  0  0
   -0.4990   -0.3070   -0.4140 C   0  0  2  0  0  0  0  0  0  0  0  0
    0.0990   -0.7340   -1.5950 O   0  0  0  0  0  0  0  0  0  0  0  0
   -1.2140    0.9500   -0.6430 C   0  0  0  0  0  0  0  0  0  0  0  0
   -2.0960    1.2340    0.5530 C   0  0  0  0  0  0  0  0  0  0  0  0
   -2.8240   -0.4380    0.7850 S   0  0  0  0  0  0  0  0  0  0  0  0
   -1.5510   -1.3760   -0.1240 C   0  0  0  0  0  0  0  0  0  0  0  0
  2  1  1  6
  2  3  1  0
  2  6  1  0
  3  4  1  6
  3  5  1  0
  6  7  1  6
  6  8  1  0
  6 11  1  0
  8  9  1  0
  9 10  1  0
 10 11  1  0
M  CHG  1   1   1
M  END
