
     RDKit          3D

 11 11  0  0  0  0  0  0  0  0999 V2000
   -2.8700   -0.0880    0.0470 N   0  0  0  0  0  0  0  0  0  0  0  0
   -1.6480   -0.8440    0.2080 C   0  0  0  0  0  0  0  0  0  0  0  0
   -0.4660    0.0990    0.4340 C   0  0  2  0  0  0  0  0  0  0  0  0
   -0.7730    0.8210    1.6120 O   0  0  0  0  0  0  0  0  0  0  0  0
   -0.4220    1.0870   -0.6740 C   0  0  0  0  0  0  0  0  0  0  0  0
    0.7160    0.2840   -1.8610 S   0  0  0  0  0  0  0  0  0  0  0  0
    1.5500   -0.7910   -0.6300 C   0  0  1  0  0  0  0  0  0  0  0  0
    2.9630   -0.2990   -0.5120 C   0  0  0  0  0  0  0  0  0  0  0  0
    3.9400   -1.0280   -0.7730 O   0  0  0  0  0  0  0  0  0  0  0  0
    3.2080    1.0050   -0.1020 O   0  0  0  0  0  0  0  0  0  0  0  0
    0.7990   -0.5890    0.6230 C   0  0  0  0  0  0  0  0  0  0  0  0
  1  2  1  0
  2  3  1  0
  3  4  1  1
  3  5  1  0
  3 11  1  0
  5  6  1  0
  6  7  1  0
  7  8  1  1
  7 11  1  0
  8  9  2  0
  8 10  1  0
M  CHG  1   1   1
M  END
