
     RDKit          3D

 11 11  0  0  0  0  0  0  0  0999 V2000
    4.0450   -0.4290    0.0580 N   0  0  0  0  0  0  0  0  0  0  0  0
    3.0200    0.4320    0.1260 O   0  0  0  0  0  0  0  0  0  0  0  0
    1.8660   -0.2300   -0.2970 C   0  0  0  0  0  0  0  0  0  0  0  0
    0.7130    0.7640   -0.2120 C   0  0  2  0  0  0  0  0  0  0  0  0
    0.6230    1.1580    1.1100 O   0  0  0  0  0  0  0  0  0  0  0  0
   -0.5480    0.0580   -0.6810 C   0  0  2  0  0  0  0  0  0  0  0  0
   -1.7290    0.9980   -0.6190 C   0  0  0  0  0  0  0  0  0  0  0  0
   -2.9430    0.1310   -0.3180 C   0  0  1  0  0  0  0  0  0  0  0  0
   -2.9470   -0.9090   -1.2190 O   0  0  0  0  0  0  0  0  0  0  0  0
   -2.5980   -0.3760    1.0880 C   0  0  0  0  0  0  0  0  0  0  0  0
   -0.9810   -1.1370    0.6430 S   0  0  0  0  0  0  0  0  0  0  0  0
  1  2  1  0
  2  3  1  0
  3  4  1  0
  4  5  1  1
  4  6  1  0
  6  7  1  1
  6 11  1  0
  7  8  1  0
  8  9  1  6
  8 10  1  0
 10 11  1  0
M  CHG  1   1   1
M  END
