
     RDKit          3D

 18 19  0  0  0  0  0  0  0  0999 V2000
   -3.4400    0.7330   -2.6050 C   0  0  0  0  0  0  0  0  0  0  0  0
   -1.7690    0.3410   -2.0190 S   0  0  0  0  0  0  0  0  0  0  0  0
   -1.8460    0.1060   -0.2390 C   0  0  2  0  0  0  0  0  0  0  0  0
   -0.5260   -0.2260    0.3830 C   0  0  1  0  0  0  0  0  0  0  0  0
    0.3180    0.9240    0.6010 N   0  0  0  0  0  0  0  0  0  0  0  0
    1.0860    1.3120   -0.5390 C   0  0  0  0  0  0  0  0  0  0  0  0
    2.4730    0.7570   -0.5280 C   0  0  0  0  0  0  0  0  0  0  0  0
    2.7340   -0.4620   -1.1100 C   0  0  0  0  0  0  0  0  0  0  0  0
    4.0250   -0.9710   -1.0960 C   0  0  0  0  0  0  0  0  0  0  0  0
    5.0430   -0.2430   -0.4940 C   0  0  0  0  0  0  0  0  0  0  0  0
    4.7650    0.9750    0.0840 C   0  0  0  0  0  0  0  0  0  0  0  0
    3.4850    1.4690    0.0650 C   0  0  0  0  0  0  0  0  0  0  0  0
   -0.9200   -0.8060    1.7230 C   0  0  1  0  0  0  0  0  0  0  0  0
   -0.7780    0.1910    2.6840 O   0  0  0  0  0  0  0  0  0  0  0  0
   -2.3940   -1.1330    1.6390 C   0  0  1  0  0  0  0  0  0  0  0  0
   -3.1710   -0.0700    2.1550 O   0  0  0  0  0  0  0  0  0  0  0  0
   -2.6600   -1.1250    0.1400 C   0  0  1  0  0  0  0  0  0  0  0  0
   -4.0100   -0.9480   -0.1310 O   0  0  0  0  0  0  0  0  0  0  0  0
  1  2  1  0
  3  2  1  6
  3  4  1  0
  3 17  1  0
  4  5  1  1
  4 13  1  0
  5  6  1  0
  6  7  1  0
  7  8  2  0
  7 12  1  0
  8  9  1  0
  9 10  2  0
 10 11  1  0
 11 12  2  0
 13 14  1  1
 13 15  1  0
 15 16  1  1
 15 17  1  0
 17 18  1  1
M  CHG  1   5   1
M  END
