
     RDKit          3D

 18 19  0  0  0  0  0  0  0  0999 V2000
   -4.7910    2.4310    0.2520 C   0  0  0  0  0  0  0  0  0  0  0  0
   -5.2160    1.0220    0.0780 C   0  0  0  0  0  0  0  0  0  0  0  0
   -4.3610    0.0200    0.0690 C   0  0  0  0  0  0  0  0  0  0  0  0
   -2.9340    0.3570    0.2410 C   0  0  0  0  0  0  0  0  0  0  0  0
   -2.0290   -0.5880    0.2420 C   0  0  0  0  0  0  0  0  0  0  0  0
   -2.4120   -2.0030    0.0710 C   0  0  0  0  0  0  0  0  0  0  0  0
   -1.2270   -2.8270    0.5150 C   0  0  0  0  0  0  0  0  0  0  0  0
    0.0520   -2.4950   -0.1680 C   0  0  0  0  0  0  0  0  0  0  0  0
    0.2570   -1.0530   -0.5110 C   0  0  2  0  0  0  0  0  0  0  0  0
   -0.2450   -0.7780   -1.9390 C   0  0  0  0  0  0  0  0  0  0  0  0
    1.6710   -0.6010   -0.4960 C   0  0  2  0  0  0  0  0  0  0  0  0
    2.3860   -0.7340    0.7950 C   0  0  0  0  0  0  0  0  0  0  0  0
    3.7690   -0.1120    0.6320 C   0  0  0  0  0  0  0  0  0  0  0  0
    3.7220    1.2710    0.2800 N   0  0  2  0  0  0  0  0  0  0  0  0
    4.3830    2.1390    1.2330 C   0  0  0  0  0  0  0  0  0  0  0  0
    2.3540    1.7210    0.1220 C   0  0  0  0  0  0  0  0  0  0  0  0
    1.7390    0.8240   -0.9580 C   0  0  0  0  0  0  0  0  0  0  0  0
   -0.6120   -0.2340    0.4150 C   0  0  0  0  0  0  0  0  0  0  0  0
  1  2  1  0
  2  3  2  3
  3  4  1  0
  4  5  2  3
  5  6  1  0
  5 18  1  0
  6  7  1  0
  7  8  1  0
  8  9  1  0
  9 10  1  6
  9 11  1  0
  9 18  1  0
 11 12  1  1
 11 17  1  0
 12 13  1  0
 13 14  1  0
 14 15  1  1
 14 16  1  0
 16 17  1  0
M  CHG  1  14   1
M  END
