
     RDKit          3D

 18 20  0  0  0  0  0  0  0  0999 V2000
    6.2210    0.5610    0.3150 C   0  0  0  0  0  0  0  0  0  0  0  0
    5.5790   -0.7720    0.1040 C   0  0  0  0  0  0  0  0  0  0  0  0
    4.0410   -0.5790   -0.0400 C   0  0  0  0  0  0  0  0  0  0  0  0
    3.5120    0.0440    1.1960 C   0  0  0  0  0  0  0  0  0  0  0  0
    2.0780    0.2330    1.2250 C   0  0  0  0  0  0  0  0  0  0  0  0
    1.1700   -0.1440    0.3640 C   0  0  0  0  0  0  0  0  0  0  0  0
   -0.2730    0.1370    0.5540 C   0  0  0  0  0  0  0  0  0  0  0  0
   -0.9650   -0.1010   -0.5240 C   0  0  0  0  0  0  0  0  0  0  0  0
   -2.4240    0.0650   -0.7020 C   0  0  0  0  0  0  0  0  0  0  0  0
   -3.0970   -0.1850   -1.8110 C   0  0  0  0  0  0  0  0  0  0  0  0
   -4.5160    0.0870   -1.6040 C   0  0  0  0  0  0  0  0  0  0  0  0
   -4.7300    0.4930   -0.4030 C   0  0  0  0  0  0  0  0  0  0  0  0
   -5.5770    0.9690    0.7410 C   0  0  0  0  0  0  0  0  0  0  0  0
   -4.9130    0.4770    1.9350 N   0  0  0  0  0  0  0  0  0  0  0  0
   -3.6970   -0.2150    1.4780 C   0  0  0  0  0  0  0  0  0  0  0  0
   -3.3510    0.5830    0.2600 C   0  0  1  0  0  0  0  0  0  0  0  0
   -0.0710   -0.5700   -1.5890 C   0  0  0  0  0  0  0  0  0  0  0  0
    1.2260   -0.8900   -0.8940 C   0  0  0  0  0  0  0  0  0  0  0  0
  1  2  1  0
  2  3  1  0
  3  4  1  0
  4  5  1  0
  5  6  2  3
  6  7  1  0
  6 18  1  0
  7  8  2  0
  8  9  1  0
  8 17  1  0
  9 10  2  0
  9 16  1  0
 10 11  1  0
 11 12  2  0
 12 13  1  0
 12 16  1  0
 13 14  1  0
 14 15  1  0
 16 15  1  1
 17 18  1  0
M  CHG  1  14   1
M  END
