
     RDKit          3D

 18 19  0  0  0  0  0  0  0  0999 V2000
    4.5480   -0.4310   -0.6200 C   0  0  0  0  0  0  0  0  0  0  0  0
    3.8460    0.4970    0.3410 C   0  0  1  0  0  0  0  0  0  0  0  0
    4.0120   -0.0920    1.7330 C   0  0  0  0  0  0  0  0  0  0  0  0
    4.5480    1.8380    0.3450 C   0  0  0  0  0  0  0  0  0  0  0  0
    2.3820    0.6580   -0.0080 C   0  0  0  0  0  0  0  0  0  0  0  0
    1.7390   -0.6910    0.0560 C   0  0  0  0  0  0  0  0  0  0  0  0
    0.3230   -0.6480   -0.2640 N   0  0  1  0  0  0  0  0  0  0  0  0
   -0.2010   -1.9730   -0.0580 C   0  0  0  0  0  0  0  0  0  0  0  0
   -1.6550   -2.1080   -0.4450 C   0  0  0  0  0  0  0  0  0  0  0  0
   -2.4400   -0.9400   -0.0050 C   0  0  0  0  0  0  0  0  0  0  0  0
   -3.7030   -1.3000   -0.1750 C   0  0  0  0  0  0  0  0  0  0  0  0
   -5.0490   -0.7230    0.0200 C   0  0  0  0  0  0  0  0  0  0  0  0
   -5.1600    0.7050   -0.4330 C   0  0  0  0  0  0  0  0  0  0  0  0
   -4.7570    1.6940    0.6010 C   0  0  0  0  0  0  0  0  0  0  0  0
   -3.5710    1.9670    1.1260 C   0  0  0  0  0  0  0  0  0  0  0  0
   -2.1940    1.4600    0.9510 C   0  0  0  0  0  0  0  0  0  0  0  0
   -1.7990    0.2670    0.4850 C   0  0  0  0  0  0  0  0  0  0  0  0
   -0.3250    0.3610    0.5490 C   0  0  0  0  0  0  0  0  0  0  0  0
  2  1  1  6
  2  3  1  0
  2  4  1  0
  2  5  1  0
  5  6  1  0
  7  6  1  1
  7  8  1  0
  7 18  1  0
  8  9  1  0
  9 10  1  0
 10 11  2  0
 10 17  1  0
 11 12  1  0
 12 13  1  0
 13 14  1  0
 14 15  2  0
 15 16  1  0
 16 17  2  0
 17 18  1  0
M  CHG  1   7   1
M  END
