
     RDKit          3D

 18 19  0  0  0  0  0  0  0  0999 V2000
    4.7090    0.7950   -0.9850 C   0  0  0  0  0  0  0  0  0  0  0  0
    4.4140    1.1210    0.4350 C   0  0  0  0  0  0  0  0  0  0  0  0
    3.1520    1.2120    0.8260 C   0  0  0  0  0  0  0  0  0  0  0  0
    2.0320    0.9950   -0.1180 C   0  0  0  0  0  0  0  0  0  0  0  0
    1.1710   -0.1090    0.2860 N   0  0  1  0  0  0  0  0  0  0  0  0
    1.9020   -0.9510    1.1920 C   0  0  0  0  0  0  0  0  0  0  0  0
    1.2220   -2.2470    1.4830 C   0  0  0  0  0  0  0  0  0  0  0  0
    0.7100   -2.9350    0.2260 C   0  0  0  0  0  0  0  0  0  0  0  0
   -0.7490   -2.7230    0.0610 C   0  0  0  0  0  0  0  0  0  0  0  0
   -1.4750   -1.6000    0.0870 C   0  0  0  0  0  0  0  0  0  0  0  0
   -2.9350   -1.6900   -0.1090 C   0  0  0  0  0  0  0  0  0  0  0  0
   -3.2180   -0.3660   -0.8150 C   0  0  0  0  0  0  0  0  0  0  0  0
   -2.1950    0.5440   -0.2400 C   0  0  0  0  0  0  0  0  0  0  0  0
   -2.3010    1.9950   -0.2410 C   0  0  0  0  0  0  0  0  0  0  0  0
   -3.2390    2.7360   -0.7350 C   0  0  0  0  0  0  0  0  0  0  0  0
   -4.4630    2.3120   -1.4400 C   0  0  0  0  0  0  0  0  0  0  0  0
   -1.1960   -0.1570    0.2760 C   0  0  0  0  0  0  0  0  0  0  0  0
   -0.0200    0.4850    0.9120 C   0  0  0  0  0  0  0  0  0  0  0  0
  1  2  1  0
  2  3  2  3
  3  4  1  0
  5  4  1  1
  5  6  1  0
  5 18  1  0
  6  7  1  0
  7  8  1  0
  8  9  1  0
  9 10  2  0
 10 11  1  0
 10 17  1  0
 11 12  1  0
 12 13  1  0
 13 14  1  0
 13 17  2  0
 14 15  2  3
 15 16  1  0
 17 18  1  0
M  CHG  1   5   1
M  END
