
     RDKit          3D

 18 20  0  0  0  0  0  0  0  0999 V2000
   -1.3310    3.0860   -0.3450 C   0  0  0  0  0  0  0  0  0  0  0  0
   -0.8890    1.7080   -0.0390 C   0  0  0  0  0  0  0  0  0  0  0  0
    0.3970    1.2880    0.0610 C   0  0  0  0  0  0  0  0  0  0  0  0
    0.4930   -0.1030    0.3650 C   0  0  0  0  0  0  0  0  0  0  0  0
    1.5100   -0.8950    0.6320 C   0  0  0  0  0  0  0  0  0  0  0  0
    2.9300   -0.6090    0.7050 C   0  0  2  0  0  0  0  0  0  0  0  0
    3.3790    0.7730    0.2990 C   0  0  0  0  0  0  0  0  0  0  0  0
    4.9140    0.5380    0.1390 C   0  0  0  0  0  0  0  0  0  0  0  0
    4.8830   -0.6830   -0.7280 C   0  0  0  0  0  0  0  0  0  0  0  0
    3.7320   -1.5040   -0.2610 C   0  0  0  0  0  0  0  0  0  0  0  0
   -0.8880   -0.6800    0.3410 C   0  0  2  0  0  0  0  0  0  0  0  0
   -1.1250   -1.5350   -0.7970 N   0  0  0  0  0  0  0  0  0  0  0  0
   -2.3280   -2.2990   -0.4920 C   0  0  0  0  0  0  0  0  0  0  0  0
   -3.5920   -1.5220   -0.6320 C   0  0  0  0  0  0  0  0  0  0  0  0
   -3.8960   -0.6210    0.5560 C   0  0  0  0  0  0  0  0  0  0  0  0
   -3.0580    0.6170    0.2980 C   0  0  0  0  0  0  0  0  0  0  0  0
   -3.7130    1.8960    0.1560 C   0  0  0  0  0  0  0  0  0  0  0  0
   -1.7400    0.5740    0.2040 C   0  0  0  0  0  0  0  0  0  0  0  0
  1  2  1  0
  2  3  2  0
  2 18  1  0
  3  4  1  0
  4  5  2  3
  4 11  1  0
  6  5  1  6
  6  7  1  0
  6 10  1  0
  7  8  1  0
  8  9  1  0
  9 10  1  0
 11 12  1  6
 11 18  1  0
 12 13  1  0
 13 14  1  0
 14 15  1  0
 15 16  1  0
 16 17  1  0
 16 18  2  0
M  CHG  1  12   1
M  END
