
     RDKit          3D

 18 20  0  0  0  0  0  0  0  0999 V2000
    4.9770    0.9420    0.6320 C   0  0  0  0  0  0  0  0  0  0  0  0
    4.0280    1.0180    1.5270 C   0  0  0  0  0  0  0  0  0  0  0  0
    2.6030    0.6640    1.3010 C   0  0  0  0  0  0  0  0  0  0  0  0
    2.3450    0.1070    0.0170 N   0  0  2  0  0  0  0  0  0  0  0  0
    1.3340   -0.9190    0.1450 C   0  0  0  0  0  0  0  0  0  0  0  0
   -0.0730   -0.3440   -0.0630 C   0  0  1  0  0  0  0  0  0  0  0  0
   -0.1540    0.2390   -1.4160 C   0  0  0  0  0  0  0  0  0  0  0  0
   -1.4440    0.0750   -2.1290 C   0  0  0  0  0  0  0  0  0  0  0  0
   -2.4920    1.0860   -1.7430 C   0  0  0  0  0  0  0  0  0  0  0  0
   -3.7460    0.3740   -1.2190 C   0  0  0  0  0  0  0  0  0  0  0  0
   -3.4580   -0.1860    0.1390 C   0  0  0  0  0  0  0  0  0  0  0  0
   -4.4160    0.0290    1.0260 C   0  0  0  0  0  0  0  0  0  0  0  0
   -4.0170   -0.5640    2.3090 C   0  0  0  0  0  0  0  0  0  0  0  0
   -2.6880   -1.1420    1.9920 C   0  0  0  0  0  0  0  0  0  0  0  0
   -2.3520   -0.9290    0.7320 C   0  0  0  0  0  0  0  0  0  0  0  0
   -1.0300   -1.4470    0.2330 C   0  0  0  0  0  0  0  0  0  0  0  0
    3.4940   -0.4980   -0.6130 C   0  0  0  0  0  0  0  0  0  0  0  0
    4.6560    0.4700   -0.7340 C   0  0  0  0  0  0  0  0  0  0  0  0
  1  2  2  0
  1 18  1  0
  2  3  1  0
  3  4  1  0
  4  5  1  1
  4 17  1  0
  6  5  1  6
  6  7  1  0
  6 16  1  0
  7  8  1  0
  8  9  1  0
  9 10  1  0
 10 11  1  0
 11 12  2  0
 11 15  1  0
 12 13  1  0
 13 14  1  0
 14 15  2  0
 15 16  1  0
 17 18  1  0
M  CHG  1   4   1
M  END
