
     RDKit          3D

 18 20  0  0  0  0  0  0  0  0999 V2000
    6.1250    0.1850   -0.3040 C   0  0  0  0  0  0  0  0  0  0  0  0
    4.9640    0.7360   -0.0620 C   0  0  0  0  0  0  0  0  0  0  0  0
    3.9340   -0.2750    0.1470 C   0  0  0  0  0  0  0  0  0  0  0  0
    2.5350   -0.0060    0.4370 C   0  0  0  0  0  0  0  0  0  0  0  0
    2.0670    1.2210    0.5390 C   0  0  0  0  0  0  0  0  0  0  0  0
    0.6510    1.5800    0.8330 C   0  0  0  0  0  0  0  0  0  0  0  0
   -0.1230    0.3700    1.1420 N   0  0  1  0  0  0  0  0  0  0  0  0
   -1.4690    0.6010    1.4530 C   0  0  0  0  0  0  0  0  0  0  0  0
   -2.5040    0.0990    0.5400 C   0  0  2  0  0  0  0  0  0  0  0  0
   -2.4450    0.6850   -0.8350 C   0  0  0  0  0  0  0  0  0  0  0  0
   -3.2030   -0.2830   -1.7300 C   0  0  0  0  0  0  0  0  0  0  0  0
   -4.6470   -0.2620   -1.2860 C   0  0  0  0  0  0  0  0  0  0  0  0
   -4.8360   -0.4550    0.1770 C   0  0  0  0  0  0  0  0  0  0  0  0
   -3.9310    0.3920    1.0470 C   0  0  0  0  0  0  0  0  0  0  0  0
    0.2310   -0.5930    0.1660 C   0  0  0  0  0  0  0  0  0  0  0  0
    1.6040   -1.1420    0.6230 C   0  0  0  0  0  0  0  0  0  0  0  0
    4.4900   -1.4630    0.0270 C   0  0  0  0  0  0  0  0  0  0  0  0
    5.9280   -1.2720   -0.2690 C   0  0  0  0  0  0  0  0  0  0  0  0
  1  2  2  0
  1 18  1  0
  2  3  1  0
  3  4  1  0
  3 17  2  0
  4  5  2  0
  4 16  1  0
  5  6  1  0
  6  7  1  0
  7  8  1  6
  7 15  1  0
  9  8  1  1
  9 10  1  0
  9 14  1  0
 10 11  1  0
 11 12  1  0
 12 13  1  0
 13 14  1  0
 15 16  1  0
 17 18  1  0
M  CHG  1   7   1
M  END
