
     RDKit          3D

 38 42  0  0  0  0  0  0  0  0999 V2000
   11.1780    1.2460    1.1610 C   0  0  0  0  0  0  0  0  0  0  0  0
    9.9280    0.6600    1.6520 N   0  0  0  0  0  0  0  0  0  0  0  0
    9.5070   -0.3070    0.6770 C   0  0  0  0  0  0  0  0  0  0  0  0
    8.0950   -0.7090    0.8040 C   0  0  0  0  0  0  0  0  0  0  0  0
    7.6150   -1.6040   -0.1490 C   0  0  0  0  0  0  0  0  0  0  0  0
    6.3030   -2.0400   -0.1070 C   0  0  0  0  0  0  0  0  0  0  0  0
    5.4530   -1.5850    0.8900 C   0  0  0  0  0  0  0  0  0  0  0  0
    4.1530   -2.0400    0.9020 O   0  0  0  0  0  0  0  0  0  0  0  0
    3.1430   -1.3740    0.2580 C   0  0  0  0  0  0  0  0  0  0  0  0
    2.8690   -1.5920   -1.0810 C   0  0  0  0  0  0  0  0  0  0  0  0
    1.8740   -0.9490   -1.7420 C   0  0  0  0  0  0  0  0  0  0  0  0
    1.0840   -0.0230   -1.0490 C   0  0  0  0  0  0  0  0  0  0  0  0
    0.0860    0.6130   -1.7400 O   0  0  0  0  0  0  0  0  0  0  0  0
   -1.2720    0.4700   -1.5580 C   0  0  0  0  0  0  0  0  0  0  0  0
   -2.0750    1.2560   -2.3200 N   0  0  0  0  0  0  0  0  0  0  0  0
   -3.3760    1.1940   -2.2260 N   0  0  0  0  0  0  0  0  0  0  0  0
   -3.9580    0.3570   -1.3800 C   0  0  0  0  0  0  0  0  0  0  0  0
   -5.4010    0.3100   -1.3350 N   0  0  0  0  0  0  0  0  0  0  0  0
   -5.9560    0.8820   -0.3320 C   0  0  0  0  0  0  0  0  0  0  0  0
   -5.0380    1.5060    0.6300 C   0  0  0  0  0  0  0  0  0  0  0  0
   -3.9720    1.9350    0.1230 O   0  0  0  0  0  0  0  0  0  0  0  0
   -5.2170    1.6720    2.0190 O   0  0  0  0  0  0  0  0  0  0  0  0
   -6.4710    1.4260    2.6780 C   0  0  0  0  0  0  0  0  0  0  0  0
   -7.5160    2.2100    1.9600 C   0  0  0  0  0  0  0  0  0  0  0  0
   -8.2700    1.4690    0.9060 C   0  0  0  0  0  0  0  0  0  0  0  0
   -7.4080    0.8870   -0.1540 C   0  0  0  0  0  0  0  0  0  0  0  0
   -8.1230    0.2840   -1.0550 C   0  0  0  0  0  0  0  0  0  0  0  0
   -7.5680   -0.3950   -2.2280 C   0  0  0  0  0  0  0  0  0  0  0  0
   -6.1070   -0.3680   -2.3860 C   0  0  2  0  0  0  0  0  0  0  0  0
   -5.6090   -1.8320   -2.4750 C   0  0  0  0  0  0  0  0  0  0  0  0
   -3.2350   -0.4440   -0.6030 N   0  0  0  0  0  0  0  0  0  0  0  0
   -1.8670   -0.4040   -0.6770 C   0  0  0  0  0  0  0  0  0  0  0  0
   -1.1700   -1.1590    0.0500 O   0  0  0  0  0  0  0  0  0  0  0  0
    1.3520    0.2000    0.2820 C   0  0  0  0  0  0  0  0  0  0  0  0
    0.4170    1.4060    1.1810 Cl  0  0  0  0  0  0  0  0  0  0  0  0
    2.3590   -0.4600    0.9260 C   0  0  0  0  0  0  0  0  0  0  0  0
    5.9410   -0.7020    1.8220 C   0  0  0  0  0  0  0  0  0  0  0  0
    7.2560   -0.2560    1.7920 C   0  0  0  0  0  0  0  0  0  0  0  0
  1  2  1  0
  2  3  1  0
  3  4  1  0
  4  5  2  0
  4 38  1  0
  5  6  1  0
  6  7  2  0
  7  8  1  0
  7 37  1  0
  8  9  1  0
  9 10  2  0
  9 36  1  0
 10 11  1  0
 11 12  2  0
 12 13  1  0
 12 34  1  0
 13 14  1  0
 14 15  2  0
 14 32  1  0
 15 16  1  0
 16 17  2  0
 17 18  1  0
 17 31  1  0
 18 19  2  0
 18 29  1  0
 19 20  1  0
 19 26  1  0
 20 21  2  0
 20 22  1  0
 22 23  1  0
 23 24  1  0
 24 25  1  0
 25 26  1  0
 26 27  2  0
 27 28  1  0
 28 29  1  0
 29 30  1  1
 31 32  1  0
 32 33  2  0
 34 35  1  0
 34 36  2  0
 37 38  2  0
M  CHG  2   2   1  18   1
M  END
