
     RDKit          3D

 38 41  0  0  0  0  0  0  0  0999 V2000
    3.2160    2.0300   -3.3930 C   0  0  0  0  0  0  0  0  0  0  0  0
    3.3570    2.3850   -1.9600 C   0  0  1  0  0  0  0  0  0  0  0  0
    2.2720    3.4000   -1.5540 C   0  0  0  0  0  0  0  0  0  0  0  0
    3.4620    1.3030   -0.9650 C   0  0  0  0  0  0  0  0  0  0  0  0
    2.3710    0.3700   -0.8680 N   0  0  0  0  0  0  0  0  0  0  0  0
    1.9960    0.2810    0.5180 C   0  0  0  0  0  0  0  0  0  0  0  0
    0.6120   -0.0850    0.8200 C   0  0  1  0  0  0  0  0  0  0  0  0
    0.4650   -0.1390    2.2110 O   0  0  0  0  0  0  0  0  0  0  0  0
   -0.4820    0.6640    0.1600 C   0  0  2  0  0  0  0  0  0  0  0  0
   -0.6660    2.0940    0.6070 C   0  0  0  0  0  0  0  0  0  0  0  0
   -0.9780    2.2650    2.0250 C   0  0  0  0  0  0  0  0  0  0  0  0
   -2.2720    2.2410    2.5110 C   0  0  0  0  0  0  0  0  0  0  0  0
   -2.5570    2.4140    3.8550 C   0  0  0  0  0  0  0  0  0  0  0  0
   -1.5280    2.6180    4.7450 C   0  0  0  0  0  0  0  0  0  0  0  0
   -0.2280    2.6470    4.2850 C   0  0  0  0  0  0  0  0  0  0  0  0
    0.0350    2.4710    2.9310 C   0  0  0  0  0  0  0  0  0  0  0  0
   -1.7540   -0.0270    0.4280 N   0  0  0  0  0  0  0  0  0  0  0  0
   -2.5660   -0.5350   -0.6210 C   0  0  0  0  0  0  0  0  0  0  0  0
   -2.1940   -0.3930   -1.7990 O   0  0  0  0  0  0  0  0  0  0  0  0
   -3.7650   -1.1890   -0.4270 O   0  0  0  0  0  0  0  0  0  0  0  0
   -4.5730   -1.6920   -1.4470 C   0  0  1  0  0  0  0  0  0  0  0  0
   -4.8570   -3.1400   -1.4020 C   0  0  0  0  0  0  0  0  0  0  0  0
   -5.9730   -3.2420   -0.6090 O   0  0  0  0  0  0  0  0  0  0  0  0
   -6.8240   -2.2560   -1.1030 C   0  0  1  0  0  0  0  0  0  0  0  0
   -7.6830   -1.8130   -0.1300 O   0  0  0  0  0  0  0  0  0  0  0  0
   -7.6670   -0.4440   -0.0690 C   0  0  0  0  0  0  0  0  0  0  0  0
   -6.2180   -0.1110   -0.3940 C   0  0  0  0  0  0  0  0  0  0  0  0
   -5.9380   -1.0870   -1.5050 C   0  0  1  0  0  0  0  0  0  0  0  0
    2.8050   -1.0960   -1.5780 S   0  0  1  0  0  0  0  0  0  0  0  0
    1.6910   -2.0990   -1.6590 O   0  0  0  0  0  0  0  0  0  0  0  0
    3.2440   -0.8760   -2.9870 O   0  0  0  0  0  0  0  0  0  0  0  0
    4.1860   -1.8230   -0.7490 C   0  0  0  0  0  0  0  0  0  0  0  0
    3.9430   -2.6160    0.3590 C   0  0  0  0  0  0  0  0  0  0  0  0
    5.0030   -3.1940    1.0130 C   0  0  0  0  0  0  0  0  0  0  0  0
    6.2960   -2.9970    0.5870 C   0  0  0  0  0  0  0  0  0  0  0  0
    7.3860   -3.5930    1.2620 N   0  0  0  0  0  0  0  0  0  0  0  0
    6.5720   -2.2090   -0.5200 C   0  0  0  0  0  0  0  0  0  0  0  0
    5.4860   -1.6460   -1.1520 C   0  0  0  0  0  0  0  0  0  0  0  0
  2  1  1  6
  2  3  1  0
  2  4  1  0
  4  5  1  0
  5  6  1  0
 29  5  1  1
  6  7  1  0
  7  8  1  1
  7  9  1  0
  9 10  1  1
  9 17  1  0
 10 11  1  0
 11 12  2  0
 11 16  1  0
 12 13  1  0
 13 14  2  0
 14 15  1  0
 15 16  2  0
 17 18  1  0
 18 19  2  0
 18 20  1  0
 21 20  1  1
 21 22  1  0
 21 28  1  0
 22 23  1  0
 24 23  1  1
 24 25  1  0
 24 28  1  0
 25 26  1  0
 26 27  1  0
 28 27  1  1
 29 30  2  0
 29 31  2  0
 29 32  1  0
 32 33  2  0
 32 38  1  0
 33 34  1  0
 34 35  2  0
 35 36  1  0
 35 37  1  0
 37 38  2  0
M  END
