
     RDKit          3D

 38 42  0  0  0  0  0  0  0  0999 V2000
    8.8200   -1.4560   -1.0430 C   0  0  0  0  0  0  0  0  0  0  0  0
    8.6170   -0.9980    0.1520 C   0  0  0  0  0  0  0  0  0  0  0  0
    7.4660   -0.2640    0.6500 C   0  0  0  0  0  0  0  0  0  0  0  0
    7.4880    0.1340    1.9130 C   0  0  0  0  0  0  0  0  0  0  0  0
    6.4670    0.8760    2.6390 C   0  0  0  0  0  0  0  0  0  0  0  0
    7.2250    2.4150    3.1890 Cl  0  0  0  0  0  0  0  0  0  0  0  0
    6.3210    0.0570   -0.2300 C   0  0  0  0  0  0  0  0  0  0  0  0
    5.6020   -1.1850   -0.6560 C   0  0  0  0  0  0  0  0  0  0  0  0
    4.4740   -0.9020   -1.5260 N   0  0  0  0  0  0  0  0  0  0  0  0
    4.7030   -0.8740   -2.8460 C   0  0  0  0  0  0  0  0  0  0  0  0
    5.8760   -1.0930   -3.3090 O   0  0  0  0  0  0  0  0  0  0  0  0
    3.6770   -0.6110   -3.6720 N   0  0  0  0  0  0  0  0  0  0  0  0
    2.4380   -0.3790   -3.1820 C   0  0  0  0  0  0  0  0  0  0  0  0
    1.4160   -0.1160   -4.0160 N   0  0  0  0  0  0  0  0  0  0  0  0
    0.1800    0.1170   -3.5600 C   0  0  0  0  0  0  0  0  0  0  0  0
   -0.1260    0.1030   -2.2100 C   0  0  0  0  0  0  0  0  0  0  0  0
    0.8980   -0.1630   -1.3270 C   0  0  0  0  0  0  0  0  0  0  0  0
    0.6660   -0.1960    0.1190 C   0  0  0  0  0  0  0  0  0  0  0  0
   -0.7220    0.0710    0.4990 N   0  0  2  0  0  0  0  0  0  0  0  0
   -0.6760    0.3700    1.9240 C   0  0  0  0  0  0  0  0  0  0  0  0
   -2.0350    0.6490    2.4920 C   0  0  0  0  0  0  0  0  0  0  0  0
   -2.9040    1.4550    1.5530 C   0  0  0  0  0  0  0  0  0  0  0  0
   -3.3230    0.6980    0.3300 C   0  0  2  0  0  0  0  0  0  0  0  0
   -4.8270    0.7490    0.1990 C   0  0  0  0  0  0  0  0  0  0  0  0
   -5.5610    1.2460   -0.8120 N   0  0  0  0  0  0  0  0  0  0  0  0
   -6.8420    1.0510   -0.4450 C   0  0  0  0  0  0  0  0  0  0  0  0
   -6.8750    0.4380    0.7830 C   0  0  0  0  0  0  0  0  0  0  0  0
   -5.6320    0.2710    1.1400 O   0  0  0  0  0  0  0  0  0  0  0  0
   -8.0020    0.0100    1.6180 C   0  0  0  0  0  0  0  0  0  0  0  0
   -9.2030   -0.0430    0.9580 O   0  0  0  0  0  0  0  0  0  0  0  0
   -8.9310   -0.4280   -0.3670 C   0  0  0  0  0  0  0  0  0  0  0  0
   -9.1000    0.6890   -1.1540 O   0  0  0  0  0  0  0  0  0  0  0  0
   -7.9660    1.4630   -1.2940 C   0  0  0  0  0  0  0  0  0  0  0  0
   -2.9840   -0.7700    0.3720 C   0  0  0  0  0  0  0  0  0  0  0  0
   -1.5340   -1.0900    0.3120 C   0  0  0  0  0  0  0  0  0  0  0  0
    2.1920   -0.4070   -1.8050 C   0  0  0  0  0  0  0  0  0  0  0  0
    3.2570   -0.6780   -0.9860 C   0  0  0  0  0  0  0  0  0  0  0  0
    3.0740   -0.7110    0.2560 O   0  0  0  0  0  0  0  0  0  0  0  0
  1  2  2  0
  2  3  1  0
  3  4  2  3
  3  7  1  0
  4  5  1  0
  5  6  1  0
  7  8  1  0
  8  9  1  0
  9 10  1  0
  9 37  1  0
 10 11  2  0
 10 12  1  0
 12 13  1  0
 13 14  2  0
 13 36  1  0
 14 15  1  0
 15 16  2  0
 16 17  1  0
 17 18  1  0
 17 36  2  0
 19 18  1  1
 19 20  1  0
 19 35  1  0
 20 21  1  0
 21 22  1  0
 22 23  1  0
 23 24  1  1
 23 34  1  0
 24 25  2  0
 24 28  1  0
 25 26  1  0
 26 27  2  0
 26 33  1  0
 27 28  1  0
 27 29  1  0
 29 30  1  0
 30 31  1  0
 31 32  1  0
 32 33  1  0
 34 35  1  0
 36 37  1  0
 37 38  2  0
M  CHG  2  19   1  25   1
M  END
