
     RDKit          3D

 38 42  0  0  0  0  0  0  0  0999 V2000
    7.4380    1.1250    3.1760 C   0  0  0  0  0  0  0  0  0  0  0  0
    6.4480    0.3100    2.6670 O   0  0  0  0  0  0  0  0  0  0  0  0
    6.9670   -0.6810    1.8440 C   0  0  0  0  0  0  0  0  0  0  0  0
    7.6910   -0.0840    0.6970 C   0  0  0  0  0  0  0  0  0  0  0  0
    9.0520    0.2090    0.7680 C   0  0  0  0  0  0  0  0  0  0  0  0
    9.7280    0.7650   -0.2980 C   0  0  0  0  0  0  0  0  0  0  0  0
    9.0610    1.0420   -1.4640 C   0  0  0  0  0  0  0  0  0  0  0  0
    9.8930    1.7520   -2.8490 Cl  0  0  0  0  0  0  0  0  0  0  0  0
    7.7130    0.7430   -1.5140 C   0  0  0  0  0  0  0  0  0  0  0  0
    7.0800    0.2030   -0.4630 N   0  0  0  0  0  0  0  0  0  0  0  0
    5.6950   -0.0780   -0.5810 C   0  0  0  0  0  0  0  0  0  0  0  0
    5.3280   -1.2430   -1.2090 C   0  0  0  0  0  0  0  0  0  0  0  0
    3.9550   -1.4790   -1.3020 C   0  0  0  0  0  0  0  0  0  0  0  0
    3.0440   -0.5920   -0.7930 C   0  0  0  0  0  0  0  0  0  0  0  0
    1.6200   -0.8550   -0.9000 C   0  0  0  0  0  0  0  0  0  0  0  0
    1.2850   -1.9130   -1.4710 O   0  0  0  0  0  0  0  0  0  0  0  0
    0.6350    0.0090   -0.4020 N   0  0  0  0  0  0  0  0  0  0  0  0
   -0.7670   -0.1490   -0.4440 C   0  0  0  0  0  0  0  0  0  0  0  0
   -1.3520   -1.3420   -0.7460 C   0  0  0  0  0  0  0  0  0  0  0  0
   -2.7480   -1.4600   -0.7980 C   0  0  0  0  0  0  0  0  0  0  0  0
   -3.5530   -0.3920   -0.5480 C   0  0  0  0  0  0  0  0  0  0  0  0
   -4.9000   -0.4310   -0.5790 O   0  0  0  0  0  0  0  0  0  0  0  0
   -5.8030   -1.4440   -0.8170 C   0  0  1  0  0  0  0  0  0  0  0  0
   -5.8220   -1.9430   -2.2340 C   0  0  0  0  0  0  0  0  0  0  0  0
   -6.3650   -3.3450   -2.0740 C   0  0  0  0  0  0  0  0  0  0  0  0
   -5.6970   -3.8310   -0.8780 N   0  0  0  0  0  0  0  0  0  0  0  0
   -5.6330   -2.6700    0.0100 C   0  0  0  0  0  0  0  0  0  0  0  0
   -2.9500    0.8380   -0.2360 C   0  0  0  0  0  0  0  0  0  0  0  0
   -3.7590    2.0100    0.0390 C   0  0  0  0  0  0  0  0  0  0  0  0
   -3.2230    3.0940    0.3140 O   0  0  0  0  0  0  0  0  0  0  0  0
   -5.1300    1.9120   -0.0080 O   0  0  0  0  0  0  0  0  0  0  0  0
   -5.9260    3.0520    0.2600 C   0  0  0  0  0  0  0  0  0  0  0  0
   -5.6510    3.5560    1.6460 C   0  0  2  0  0  0  0  0  0  0  0  0
   -5.9050    2.6420    2.8210 C   0  0  0  0  0  0  0  0  0  0  0  0
   -6.8390    3.7680    2.5420 C   0  0  0  0  0  0  0  0  0  0  0  0
   -1.5880    0.9610   -0.1840 C   0  0  0  0  0  0  0  0  0  0  0  0
    3.4760    0.5160   -0.1980 N   0  0  0  0  0  0  0  0  0  0  0  0
    4.7860    0.7860   -0.0840 N   0  0  0  0  0  0  0  0  0  0  0  0
  1  2  1  0
  2  3  1  0
  3  4  1  0
  4  5  2  0
  4 10  1  0
  5  6  1  0
  6  7  2  0
  7  8  1  0
  7  9  1  0
  9 10  2  0
 10 11  1  0
 11 12  2  0
 11 38  1  0
 12 13  1  0
 13 14  2  0
 14 15  1  0
 14 37  1  0
 15 16  2  0
 15 17  1  0
 17 18  1  0
 18 19  2  0
 18 36  1  0
 19 20  1  0
 20 21  2  0
 21 22  1  0
 21 28  1  0
 23 22  1  6
 23 24  1  0
 23 27  1  0
 24 25  1  0
 25 26  1  0
 26 27  1  0
 28 29  1  0
 28 36  2  0
 29 30  2  0
 29 31  1  0
 31 32  1  0
 33 32  1  6
 33 34  1  0
 33 35  1  0
 34 35  1  0
 37 38  2  0
M  CHG  2  10   1  26   1
M  END
