
     RDKit          3D

 38 43  0  0  0  0  0  0  0  0999 V2000
    9.7160    3.2250   -0.2240 C   0  0  0  0  0  0  0  0  0  0  0  0
    8.2780    3.3750   -0.5410 C   0  0  0  0  0  0  0  0  0  0  0  0
    7.4820    2.2830   -0.4800 O   0  0  0  0  0  0  0  0  0  0  0  0
    7.3400    1.6350    0.7460 C   0  0  0  0  0  0  0  0  0  0  0  0
    6.2430    0.6280    0.6680 C   0  0  0  0  0  0  0  0  0  0  0  0
    6.1790   -0.6380    0.7710 O   0  0  0  0  0  0  0  0  0  0  0  0
    4.9230   -1.1080    0.6380 C   0  0  0  0  0  0  0  0  0  0  0  0
    4.6310   -2.4470    0.7300 O   0  0  0  0  0  0  0  0  0  0  0  0
    4.5040   -3.3440   -0.2960 C   0  0  0  0  0  0  0  0  0  0  0  0
    4.0920   -0.0410    0.4140 C   0  0  0  0  0  0  0  0  0  0  0  0
    2.6470   -0.0670    0.1440 C   0  0  0  0  0  0  0  0  0  0  0  0
    1.7650   -1.0690    0.1700 N   0  0  0  0  0  0  0  0  0  0  0  0
    0.5270   -0.6390   -0.1690 C   0  0  0  0  0  0  0  0  0  0  0  0
   -0.6840   -1.2800   -0.2930 C   0  0  0  0  0  0  0  0  0  0  0  0
   -1.7890   -0.5240   -0.6820 C   0  0  0  0  0  0  0  0  0  0  0  0
   -1.6240    0.7760   -0.9140 N   0  0  0  0  0  0  0  0  0  0  0  0
   -0.4940    1.4380   -0.8080 C   0  0  0  0  0  0  0  0  0  0  0  0
    0.6280    0.7030   -0.4230 C   0  0  0  0  0  0  0  0  0  0  0  0
    1.9150    1.0190   -0.2240 N   0  0  0  0  0  0  0  0  0  0  0  0
   -2.9890   -1.4210   -0.7260 C   0  0  2  0  0  0  0  0  0  0  0  0
   -4.1860   -0.7920   -0.2620 N   0  0  0  0  0  0  0  0  0  0  0  0
   -5.0230   -0.3420   -1.3930 C   0  0  0  0  0  0  0  0  0  0  0  0
   -6.1580    0.4510   -0.7930 C   0  0  1  0  0  0  0  0  0  0  0  0
   -5.5850    1.5550   -0.0950 O   0  0  0  0  0  0  0  0  0  0  0  0
   -6.5890    2.5220   -0.0640 C   0  0  0  0  0  0  0  0  0  0  0  0
   -6.8680    3.5980    0.7420 C   0  0  0  0  0  0  0  0  0  0  0  0
   -7.9780    4.4380    0.5380 C   0  0  0  0  0  0  0  0  0  0  0  0
   -8.8060    4.1430   -0.5220 C   0  0  0  0  0  0  0  0  0  0  0  0
   -8.5390    3.0660   -1.3320 C   0  0  0  0  0  0  0  0  0  0  0  0
   -7.4290    2.2450   -1.1160 C   0  0  0  0  0  0  0  0  0  0  0  0
   -6.9190    1.1090   -1.7610 O   0  0  0  0  0  0  0  0  0  0  0  0
   -2.5950   -2.4470    0.3290 C   0  0  0  0  0  0  0  0  0  0  0  0
   -1.1370   -2.6620   -0.0950 C   0  0  2  0  0  0  0  0  0  0  0  0
   -0.4020   -3.3670    0.9120 N   0  0  2  0  0  0  0  0  0  0  0  0
    0.5560   -4.2780    0.2550 C   0  0  0  0  0  0  0  0  0  0  0  0
   -1.3770   -4.2440    1.5910 C   0  0  0  0  0  0  0  0  0  0  0  0
    4.8870    1.0560    0.4330 C   0  0  0  0  0  0  0  0  0  0  0  0
    4.5230    2.7420    0.2030 Cl  0  0  0  0  0  0  0  0  0  0  0  0
  1  2  1  0
  2  3  1  0
  3  4  1  0
  4  5  1  0
  5  6  1  0
  5 37  2  0
  6  7  1  0
  7  8  1  0
  7 10  2  0
  8  9  1  0
 10 11  1  0
 10 37  1  0
 11 12  2  0
 11 19  1  0
 12 13  1  0
 13 14  2  0
 13 18  1  0
 14 15  1  0
 14 33  1  0
 15 16  2  0
 15 20  1  0
 16 17  1  0
 17 18  2  0
 18 19  1  0
 20 21  1  1
 20 32  1  0
 21 22  1  0
 23 22  1  6
 23 24  1  0
 23 31  1  0
 24 25  1  0
 25 26  2  0
 25 30  1  0
 26 27  1  0
 27 28  2  0
 28 29  1  0
 29 30  2  0
 30 31  1  0
 33 32  1  1
 33 34  1  0
 34 35  1  6
 34 36  1  0
 37 38  1  0
M  CHG  2  21   1  34   1
M  END
