
     RDKit          3D

 38 42  0  0  0  0  0  0  0  0999 V2000
    7.8660   -3.6090    1.9300 C   0  0  0  0  0  0  0  0  0  0  0  0
    6.6790   -3.0730    1.3870 O   0  0  0  0  0  0  0  0  0  0  0  0
    6.5890   -2.8110    0.0220 C   0  0  0  0  0  0  0  0  0  0  0  0
    7.6810   -3.0890   -0.7690 C   0  0  0  0  0  0  0  0  0  0  0  0
    7.6360   -2.8500   -2.1240 C   0  0  0  0  0  0  0  0  0  0  0  0
    6.4790   -2.3300   -2.6530 C   0  0  0  0  0  0  0  0  0  0  0  0
    5.3820   -2.0530   -1.8400 C   0  0  0  0  0  0  0  0  0  0  0  0
    5.4010   -2.2810   -0.4950 C   0  0  0  0  0  0  0  0  0  0  0  0
    4.3610   -2.0400    0.4230 N   0  0  0  0  0  0  0  0  0  0  0  0
    3.0400   -1.6300    0.1110 C   0  0  0  0  0  0  0  0  0  0  0  0
    2.7100   -1.4540   -1.0740 O   0  0  0  0  0  0  0  0  0  0  0  0
    2.0570   -1.4200    1.2080 C   0  0  0  0  0  0  0  0  0  0  0  0
    0.7530   -1.1960    0.7960 O   0  0  0  0  0  0  0  0  0  0  0  0
    0.4000   -0.1460   -0.0130 C   0  0  0  0  0  0  0  0  0  0  0  0
    1.2670    0.6500   -0.4100 O   0  0  0  0  0  0  0  0  0  0  0  0
   -0.9880    0.0330   -0.4190 C   0  0  0  0  0  0  0  0  0  0  0  0
   -1.3610   -0.6970   -1.5670 C   0  0  0  0  0  0  0  0  0  0  0  0
   -0.4040   -1.5650   -2.2760 C   0  0  0  0  0  0  0  0  0  0  0  0
   -0.1970   -3.0470   -1.3380 Cl  0  0  0  0  0  0  0  0  0  0  0  0
   -2.6180   -0.5670   -1.9920 N   0  0  0  0  0  0  0  0  0  0  0  0
   -3.5180    0.2010   -1.3990 C   0  0  0  0  0  0  0  0  0  0  0  0
   -4.8680    0.3200   -1.8800 N   0  0  0  0  0  0  0  0  0  0  0  0
   -5.9440    1.1250   -1.3430 C   0  0  0  0  0  0  0  0  0  0  0  0
   -7.1810    0.3920   -1.7950 C   0  0  0  0  0  0  0  0  0  0  0  0
   -6.8260   -0.3830   -3.0170 C   0  0  0  0  0  0  0  0  0  0  0  0
   -5.3390   -0.4130   -3.0430 C   0  0  0  0  0  0  0  0  0  0  0  0
   -3.1510    0.8880   -0.3130 N   0  0  0  0  0  0  0  0  0  0  0  0
   -1.8930    0.8430    0.2220 C   0  0  0  0  0  0  0  0  0  0  0  0
   -1.5850    1.7250    1.3400 C   0  0  0  0  0  0  0  0  0  0  0  0
   -0.4910    1.6220    2.1460 C   0  0  0  0  0  0  0  0  0  0  0  0
   -0.2970    2.5920    3.1370 C   0  0  0  0  0  0  0  0  0  0  0  0
   -1.1500    3.6490    3.3450 C   0  0  0  0  0  0  0  0  0  0  0  0
   -2.2570    3.7590    2.5350 C   0  0  0  0  0  0  0  0  0  0  0  0
   -2.4600    2.8010    1.5480 C   0  0  0  0  0  0  0  0  0  0  0  0
   -2.9730    4.9450    2.9670 C   0  0  0  0  0  0  0  0  0  0  0  0
   -3.9880    5.4020    2.3720 O   0  0  0  0  0  0  0  0  0  0  0  0
   -2.3290    5.5040    4.1850 C   0  0  0  0  0  0  0  0  0  0  0  0
   -1.1210    4.7320    4.2890 N   0  0  0  0  0  0  0  0  0  0  0  0
  1  2  1  0
  2  3  1  0
  3  4  2  0
  3  8  1  0
  4  5  1  0
  5  6  2  0
  6  7  1  0
  7  8  2  0
  8  9  1  0
  9 10  1  0
 10 11  2  0
 10 12  1  0
 12 13  1  0
 13 14  1  0
 14 15  2  0
 14 16  1  0
 16 17  2  0
 16 28  1  0
 17 18  1  0
 17 20  1  0
 18 19  1  0
 20 21  2  0
 21 22  1  0
 21 27  1  0
 22 23  1  0
 22 26  1  0
 23 24  1  0
 24 25  1  0
 25 26  1  0
 27 28  2  0
 28 29  1  0
 29 30  2  0
 29 34  1  0
 30 31  1  0
 31 32  2  0
 32 33  1  0
 32 38  1  0
 33 34  2  0
 33 35  1  0
 35 36  2  0
 35 37  1  0
 37 38  1  0
M  CHG  2  20   1  27   1
M  END
