
     RDKit          3D

 38 42  0  0  0  0  0  0  0  0999 V2000
   -7.9980   -1.4950    0.4220 C   0  0  0  0  0  0  0  0  0  0  0  0
   -6.5350   -1.5000    0.6810 C   0  0  0  0  0  0  0  0  0  0  0  0
   -5.9610   -2.3890    1.5640 C   0  0  0  0  0  0  0  0  0  0  0  0
   -4.6070   -2.4000    1.8100 C   0  0  0  0  0  0  0  0  0  0  0  0
   -3.7840   -1.4790    1.1420 C   0  0  0  0  0  0  0  0  0  0  0  0
   -4.3170   -0.5810    0.2570 C   0  0  0  0  0  0  0  0  0  0  0  0
   -3.5270    0.4310   -0.4500 C   0  0  0  0  0  0  0  0  0  0  0  0
   -2.1550    0.2890   -0.1830 O   0  0  0  0  0  0  0  0  0  0  0  0
   -1.4950   -0.8580   -0.5870 C   0  0  0  0  0  0  0  0  0  0  0  0
   -2.1590   -1.7350   -1.1950 O   0  0  0  0  0  0  0  0  0  0  0  0
   -0.0280   -1.0830   -0.3230 C   0  0  0  0  0  0  0  0  0  0  0  0
    0.5040    0.0370    0.3620 O   0  0  0  0  0  0  0  0  0  0  0  0
    1.8650   -0.0260    0.6800 C   0  0  0  0  0  0  0  0  0  0  0  0
    2.5830   -1.0130    0.3810 O   0  0  0  0  0  0  0  0  0  0  0  0
    2.4240    1.1460    1.3960 C   0  0  0  0  0  0  0  0  0  0  0  0
    3.8160    0.9820    1.6750 N   0  0  1  0  0  0  0  0  0  0  0  0
    4.0770   -0.1070    2.5880 C   0  0  0  0  0  0  0  0  0  0  0  0
    4.5400    0.8480    0.4550 C   0  0  0  0  0  0  0  0  0  0  0  0
    4.0630    0.8680   -0.8010 N   0  0  0  0  0  0  0  0  0  0  0  0
    5.0470    0.7090   -1.6720 N   0  0  0  0  0  0  0  0  0  0  0  0
    6.2070    0.5800   -0.9840 C   0  0  0  0  0  0  0  0  0  0  0  0
    5.8820    0.6670    0.3090 N   0  0  0  0  0  0  0  0  0  0  0  0
    7.0720    0.5340    1.0420 C   0  0  0  0  0  0  0  0  0  0  0  0
    7.1610    0.5640    2.2900 O   0  0  0  0  0  0  0  0  0  0  0  0
    8.1870    0.3560    0.1140 C   0  0  0  0  0  0  0  0  0  0  0  0
    9.5620    0.1790    0.2610 C   0  0  0  0  0  0  0  0  0  0  0  0
   10.3790    0.0340   -0.8420 C   0  0  0  0  0  0  0  0  0  0  0  0
    9.8480    0.0600   -2.1150 C   0  0  0  0  0  0  0  0  0  0  0  0
    8.4830    0.2360   -2.2530 C   0  0  0  0  0  0  0  0  0  0  0  0
    7.6420    0.3850   -1.1530 C   0  0  0  0  0  0  0  0  0  0  0  0
   -5.6870   -0.6140    0.0480 C   0  0  0  0  0  0  0  0  0  0  0  0
   -6.2650    0.3270   -0.8810 C   0  0  0  0  0  0  0  0  0  0  0  0
   -6.8710    1.4650   -0.3780 C   0  0  0  0  0  0  0  0  0  0  0  0
   -7.4420    2.4000   -1.2150 C   0  0  0  0  0  0  0  0  0  0  0  0
   -7.4090    2.2050   -2.5410 N   0  0  0  0  0  0  0  0  0  0  0  0
   -6.8250    1.1070   -3.0550 C   0  0  0  0  0  0  0  0  0  0  0  0
   -6.8400    0.9480   -4.8100 Cl  0  0  0  0  0  0  0  0  0  0  0  0
   -6.2520    0.1650   -2.2420 C   0  0  0  0  0  0  0  0  0  0  0  0
  1  2  1  0
  2  3  2  0
  2 31  1  0
  3  4  1  0
  4  5  2  0
  5  6  1  0
  6  7  1  0
  6 31  2  0
  7  8  1  0
  8  9  1  0
  9 10  2  0
  9 11  1  0
 11 12  1  0
 12 13  1  0
 13 14  2  0
 13 15  1  0
 15 16  1  0
 16 17  1  1
 16 18  1  0
 18 19  2  0
 18 22  1  0
 19 20  1  0
 20 21  2  0
 21 22  1  0
 21 30  1  0
 22 23  1  0
 23 24  2  0
 23 25  1  0
 25 26  2  0
 25 30  1  0
 26 27  1  0
 27 28  2  0
 28 29  1  0
 29 30  2  0
 31 32  1  0
 32 33  2  0
 32 38  1  0
 33 34  1  0
 34 35  2  0
 35 36  1  0
 36 37  1  0
 36 38  2  0
M  CHG  2  16   1  35   1
M  END
