
     RDKit          3D

 37 42  0  0  0  0  0  0  0  0999 V2000
    8.0560    1.7060    0.7750 C   0  0  0  0  0  0  0  0  0  0  0  0
    8.3320    1.5050   -0.6470 N   0  0  0  0  0  0  0  0  0  0  0  0
    8.8210    0.1640   -0.8120 C   0  0  0  0  0  0  0  0  0  0  0  0
    7.8300   -0.7640   -1.4440 C   0  0  0  0  0  0  0  0  0  0  0  0
    6.5970   -0.8870   -0.6420 C   0  0  0  0  0  0  0  0  0  0  0  0
    6.5840   -1.8240    0.3850 C   0  0  0  0  0  0  0  0  0  0  0  0
    5.4340   -1.9550    1.1250 C   0  0  0  0  0  0  0  0  0  0  0  0
    4.3250   -1.1850    0.8620 C   0  0  0  0  0  0  0  0  0  0  0  0
    4.2930   -0.2480   -0.1410 C   0  0  0  0  0  0  0  0  0  0  0  0
    3.2710    0.5440   -0.4740 O   0  0  0  0  0  0  0  0  0  0  0  0
    1.9490    0.5990   -0.2030 C   0  0  0  0  0  0  0  0  0  0  0  0
    1.4950    1.7110    0.5370 C   0  0  0  0  0  0  0  0  0  0  0  0
    0.1640    1.8030    0.8210 C   0  0  0  0  0  0  0  0  0  0  0  0
   -0.7530    0.8580    0.4160 C   0  0  0  0  0  0  0  0  0  0  0  0
   -0.2800   -0.2220   -0.3090 C   0  0  0  0  0  0  0  0  0  0  0  0
    1.0740   -0.3560   -0.6220 C   0  0  0  0  0  0  0  0  0  0  0  0
    1.4620   -1.4520   -1.3400 O   0  0  0  0  0  0  0  0  0  0  0  0
    1.6140   -2.7330   -0.7910 C   0  0  0  0  0  0  0  0  0  0  0  0
    2.0420   -3.6560   -1.7640 O   0  0  0  0  0  0  0  0  0  0  0  0
   -1.2000   -1.1910   -0.7270 O   0  0  0  0  0  0  0  0  0  0  0  0
   -2.5700   -1.0870   -0.4270 C   0  0  0  0  0  0  0  0  0  0  0  0
   -3.6360   -1.7990   -0.6790 N   0  0  0  0  0  0  0  0  0  0  0  0
   -4.7800   -1.1490   -0.1050 N   0  0  0  0  0  0  0  0  0  0  0  0
   -6.0680   -1.8100   -0.3510 C   0  0  0  0  0  0  0  0  0  0  0  0
   -7.1540   -1.0420    0.3350 C   0  0  0  0  0  0  0  0  0  0  0  0
   -7.6870    0.0330   -0.4500 N   0  0  1  0  0  0  0  0  0  0  0  0
   -9.1340   -0.0510   -0.4110 C   0  0  0  0  0  0  0  0  0  0  0  0
   -7.3390    1.3390    0.0700 C   0  0  0  0  0  0  0  0  0  0  0  0
   -6.0160    1.8490   -0.4560 C   0  0  0  0  0  0  0  0  0  0  0  0
   -4.8950    1.3110    0.2530 N   0  0  0  0  0  0  0  0  0  0  0  0
   -4.0880    2.4080    0.7320 C   0  0  0  0  0  0  0  0  0  0  0  0
   -4.4530    3.5720    0.5640 O   0  0  0  0  0  0  0  0  0  0  0  0
   -2.7740    2.1610    1.4520 C   0  0  0  0  0  0  0  0  0  0  0  0
   -2.1580    0.9950    0.7480 C   0  0  0  0  0  0  0  0  0  0  0  0
   -2.9420    0.0620    0.3330 C   0  0  0  0  0  0  0  0  0  0  0  0
   -4.4040    0.0160    0.5870 C   0  0  2  0  0  0  0  0  0  0  0  0
    5.4780   -0.1300   -0.8850 C   0  0  0  0  0  0  0  0  0  0  0  0
  1  2  1  0
  2  3  1  0
  3  4  1  0
  4  5  1  0
  5  6  2  0
  5 37  1  0
  6  7  1  0
  7  8  2  0
  8  9  1  0
  9 10  1  0
  9 37  2  0
 10 11  1  0
 11 12  2  0
 11 16  1  0
 12 13  1  0
 13 14  2  0
 14 15  1  0
 14 34  1  0
 15 16  2  0
 15 20  1  0
 16 17  1  0
 17 18  1  0
 18 19  1  0
 20 21  1  0
 21 22  2  0
 21 35  1  0
 22 23  1  0
 23 24  1  0
 36 23  1  6
 24 25  1  0
 25 26  1  0
 26 27  1  1
 26 28  1  0
 28 29  1  0
 29 30  1  0
 30 31  1  0
 30 36  1  0
 31 32  2  0
 31 33  1  0
 33 34  1  0
 34 35  2  0
 35 36  1  0
M  CHG  2   2   1  26   1
M  END
