
     RDKit          3D

 38 42  0  0  0  0  0  0  0  0999 V2000
    8.3860   -0.6660    2.5310 C   0  0  0  0  0  0  0  0  0  0  0  0
    7.7100    0.3950    3.1270 O   0  0  0  0  0  0  0  0  0  0  0  0
    6.8300    0.9950    2.2350 C   0  0  0  0  0  0  0  0  0  0  0  0
    7.6210    1.5230    1.0960 C   0  0  0  0  0  0  0  0  0  0  0  0
    8.9000    2.0120    1.4060 C   0  0  0  0  0  0  0  0  0  0  0  0
    9.6880    2.5140    0.4180 C   0  0  0  0  0  0  0  0  0  0  0  0
    9.2080    2.5300   -0.8760 C   0  0  0  0  0  0  0  0  0  0  0  0
   10.2210    3.1720   -2.1300 Cl  0  0  0  0  0  0  0  0  0  0  0  0
    7.9270    2.0330   -1.1390 C   0  0  0  0  0  0  0  0  0  0  0  0
    7.1630    1.5430   -0.1590 N   0  0  0  0  0  0  0  0  0  0  0  0
    5.8660    1.0450   -0.4610 C   0  0  0  0  0  0  0  0  0  0  0  0
    5.6540    0.1360   -1.4740 C   0  0  0  0  0  0  0  0  0  0  0  0
    4.3700   -0.3000   -1.7070 C   0  0  0  0  0  0  0  0  0  0  0  0
    3.3000    0.1330   -0.9720 C   0  0  0  0  0  0  0  0  0  0  0  0
    1.9530   -0.3820   -1.2830 C   0  0  0  0  0  0  0  0  0  0  0  0
    1.7910   -1.2030   -2.2150 O   0  0  0  0  0  0  0  0  0  0  0  0
    0.8290    0.0370   -0.5420 N   0  0  0  0  0  0  0  0  0  0  0  0
   -0.5100   -0.3810   -0.7450 C   0  0  0  0  0  0  0  0  0  0  0  0
   -0.9880   -1.1310   -1.7750 C   0  0  0  0  0  0  0  0  0  0  0  0
   -2.3220   -1.5230   -1.9140 C   0  0  0  0  0  0  0  0  0  0  0  0
   -3.2340   -1.1460   -0.9750 C   0  0  0  0  0  0  0  0  0  0  0  0
   -4.5910   -1.4920   -1.0320 O   0  0  0  0  0  0  0  0  0  0  0  0
   -5.1260   -2.2480   -2.0520 C   0  0  1  0  0  0  0  0  0  0  0  0
   -5.9260   -3.4320   -1.4760 C   0  0  0  0  0  0  0  0  0  0  0  0
   -7.1650   -2.7590   -0.9750 C   0  0  0  0  0  0  0  0  0  0  0  0
   -7.2230   -1.4530   -1.5580 N   0  0  0  0  0  0  0  0  0  0  0  0
   -6.2850   -1.4210   -2.6440 C   0  0  0  0  0  0  0  0  0  0  0  0
   -2.7940   -0.3780    0.0970 C   0  0  0  0  0  0  0  0  0  0  0  0
   -3.7670    0.0460    1.1360 C   0  0  0  0  0  0  0  0  0  0  0  0
   -3.3650    0.7420    2.1040 O   0  0  0  0  0  0  0  0  0  0  0  0
   -5.0750   -0.2780    1.1010 O   0  0  0  0  0  0  0  0  0  0  0  0
   -6.1690   -0.0360    1.8710 C   0  0  0  0  0  0  0  0  0  0  0  0
   -6.7430    1.3100    2.0230 C   0  0  1  0  0  0  0  0  0  0  0  0
   -5.9900    2.4700    2.6340 C   0  0  0  0  0  0  0  0  0  0  0  0
   -6.2740    2.4380    1.1630 C   0  0  0  0  0  0  0  0  0  0  0  0
   -1.4870   -0.0140    0.2020 C   0  0  0  0  0  0  0  0  0  0  0  0
    3.5450    1.0130   -0.0000 N   0  0  0  0  0  0  0  0  0  0  0  0
    4.7820    1.4530    0.2470 N   0  0  0  0  0  0  0  0  0  0  0  0
  1  2  1  0
  2  3  1  0
  3  4  1  0
  4  5  2  0
  4 10  1  0
  5  6  1  0
  6  7  2  0
  7  8  1  0
  7  9  1  0
  9 10  2  0
 10 11  1  0
 11 12  2  0
 11 38  1  0
 12 13  1  0
 13 14  2  0
 14 15  1  0
 14 37  1  0
 15 16  2  0
 15 17  1  0
 17 18  1  0
 18 19  2  0
 18 36  1  0
 19 20  1  0
 20 21  2  0
 21 22  1  0
 21 28  1  0
 23 22  1  1
 23 24  1  0
 23 27  1  0
 24 25  1  0
 25 26  1  0
 26 27  1  0
 28 29  1  0
 28 36  2  0
 29 30  2  0
 29 31  1  0
 31 32  1  0
 33 32  1  6
 33 34  1  0
 33 35  1  0
 34 35  1  0
 37 38  2  0
M  CHG  2  10   1  26   1
M  END
