
     RDKit          3D

 38 42  0  0  0  0  0  0  0  0999 V2000
    6.2600   -4.0420   -0.7570 C   0  0  0  0  0  0  0  0  0  0  0  0
    5.6260   -2.9440   -0.1990 O   0  0  0  0  0  0  0  0  0  0  0  0
    6.4470   -2.0030    0.3390 C   0  0  2  0  0  0  0  0  0  0  0  0
    6.1880   -1.7370    1.7650 C   0  0  0  0  0  0  0  0  0  0  0  0
    6.4120   -0.6830   -0.4520 C   0  0  0  0  0  0  0  0  0  0  0  0
    5.2440   -0.1570   -0.6210 O   0  0  0  0  0  0  0  0  0  0  0  0
    4.0620    0.3270   -0.3540 C   0  0  0  0  0  0  0  0  0  0  0  0
    3.7090    0.3230    0.8690 O   0  0  0  0  0  0  0  0  0  0  0  0
    3.1390    0.8590   -1.3720 C   0  0  0  0  0  0  0  0  0  0  0  0
    1.8030    1.1310   -0.9950 N   0  0  0  0  0  0  0  0  0  0  0  0
    0.8590    0.2210   -1.1400 C   0  0  0  0  0  0  0  0  0  0  0  0
    1.0960   -0.9340   -1.5970 O   0  0  0  0  0  0  0  0  0  0  0  0
   -0.5090    0.4530   -0.7990 C   0  0  0  0  0  0  0  0  0  0  0  0
   -1.4620   -0.5530   -1.2100 C   0  0  0  0  0  0  0  0  0  0  0  0
   -2.0900   -1.4440   -0.3140 N   0  0  2  0  0  0  0  0  0  0  0  0
   -2.0680   -2.8050   -0.9800 C   0  0  0  0  0  0  0  0  0  0  0  0
   -3.4600   -3.0480   -1.5260 C   0  0  0  0  0  0  0  0  0  0  0  0
   -4.2170   -3.4590   -0.3710 N   0  0  0  0  0  0  0  0  0  0  0  0
   -5.5920   -3.6450   -0.5860 C   0  0  0  0  0  0  0  0  0  0  0  0
   -6.2810   -2.5740    0.0890 N   0  0  0  0  0  0  0  0  0  0  0  0
   -5.4160   -2.2230    1.1900 C   0  0  0  0  0  0  0  0  0  0  0  0
   -4.0040   -2.5480    0.7340 C   0  0  1  0  0  0  0  0  0  0  0  0
   -3.3110   -3.2690    1.8380 C   0  0  0  0  0  0  0  0  0  0  0  0
   -3.3410   -1.2640    0.2820 C   0  0  0  0  0  0  0  0  0  0  0  0
   -0.7890    1.6950   -0.3110 C   0  0  0  0  0  0  0  0  0  0  0  0
   -2.1040    2.0160   -0.0630 C   0  0  0  0  0  0  0  0  0  0  0  0
   -2.4880    3.2810    0.3330 C   0  0  0  0  0  0  0  0  0  0  0  0
   -1.4940    4.2150    0.4720 C   0  0  0  0  0  0  0  0  0  0  0  0
   -1.8540    5.4890    0.8270 C   0  0  0  0  0  0  0  0  0  0  0  0
   -0.9100    6.5000    0.9490 C   0  0  0  0  0  0  0  0  0  0  0  0
   -1.3670    8.1530    1.3860 Cl  0  0  0  0  0  0  0  0  0  0  0  0
    0.3980    6.1820    0.7100 C   0  0  0  0  0  0  0  0  0  0  0  0
    1.4750    7.2120    0.8070 C   0  0  0  0  0  0  0  0  0  0  0  0
    0.7990    4.8810    0.3480 C   0  0  0  0  0  0  0  0  0  0  0  0
   -0.1540    3.9140    0.2290 C   0  0  0  0  0  0  0  0  0  0  0  0
    0.2210    2.6540   -0.1650 N   0  0  0  0  0  0  0  0  0  0  0  0
    1.4830    2.3640   -0.5010 C   0  0  0  0  0  0  0  0  0  0  0  0
    2.4020    3.1860   -0.3760 O   0  0  0  0  0  0  0  0  0  0  0  0
  1  2  1  0
  2  3  1  0
  3  4  1  1
  3  5  1  0
  5  6  1  0
  6  7  1  0
  7  8  2  0
  7  9  1  0
  9 10  1  0
 10 11  1  0
 10 37  1  0
 11 12  2  0
 11 13  1  0
 13 14  1  0
 13 25  2  0
 15 14  1  6
 15 16  1  0
 15 24  1  0
 16 17  1  0
 17 18  1  0
 18 19  1  0
 18 22  1  0
 19 20  1  0
 20 21  1  0
 21 22  1  0
 22 23  1  1
 22 24  1  0
 25 26  1  0
 25 36  1  0
 26 27  2  0
 27 28  1  0
 28 29  2  0
 28 35  1  0
 29 30  1  0
 30 31  1  0
 30 32  2  0
 32 33  1  0
 32 34  1  0
 34 35  2  0
 35 36  1  0
 36 37  1  0
 37 38  2  0
M  CHG  2  15   1  20   1
M  END
