
     RDKit          3D

 38 42  0  0  0  0  0  0  0  0999 V2000
    9.3150    1.4090    1.1310 C   0  0  0  0  0  0  0  0  0  0  0  0
   10.2100    0.3330    0.7900 N   0  0  0  0  0  0  0  0  0  0  0  0
    9.5750   -0.7480    0.0840 C   0  0  0  0  0  0  0  0  0  0  0  0
    8.2580   -0.3040   -0.3940 C   0  0  0  0  0  0  0  0  0  0  0  0
    7.1200   -0.6240    0.3080 C   0  0  0  0  0  0  0  0  0  0  0  0
    5.9200   -0.1890   -0.1760 C   0  0  0  0  0  0  0  0  0  0  0  0
    5.8210    0.5490   -1.3270 C   0  0  0  0  0  0  0  0  0  0  0  0
    4.5570    0.9750   -1.7860 O   0  0  0  0  0  0  0  0  0  0  0  0
    3.4430    0.5760   -1.0520 C   0  0  0  0  0  0  0  0  0  0  0  0
    2.9850    1.3440   -0.0050 C   0  0  0  0  0  0  0  0  0  0  0  0
    1.8910    0.9940    0.7480 C   0  0  0  0  0  0  0  0  0  0  0  0
    1.1820   -0.1830    0.4770 C   0  0  0  0  0  0  0  0  0  0  0  0
    0.0920   -0.5400    1.2270 O   0  0  0  0  0  0  0  0  0  0  0  0
   -1.2150   -0.5780    0.7820 C   0  0  0  0  0  0  0  0  0  0  0  0
   -2.1510   -1.0460    1.6710 N   0  0  0  0  0  0  0  0  0  0  0  0
   -3.3960   -1.0900    1.2790 N   0  0  0  0  0  0  0  0  0  0  0  0
   -3.8060   -0.7030    0.0580 C   0  0  0  0  0  0  0  0  0  0  0  0
   -5.1890   -0.8330   -0.2260 N   0  0  0  0  0  0  0  0  0  0  0  0
   -5.9660    0.1770   -0.1010 C   0  0  0  0  0  0  0  0  0  0  0  0
   -5.3220    1.4100    0.3380 C   0  0  0  0  0  0  0  0  0  0  0  0
   -4.1990    1.2740    0.8410 O   0  0  0  0  0  0  0  0  0  0  0  0
   -5.8380    2.7240    0.2500 O   0  0  0  0  0  0  0  0  0  0  0  0
   -7.1700    3.1490    0.4010 C   0  0  0  0  0  0  0  0  0  0  0  0
   -8.0960    2.0320    0.8480 C   0  0  0  0  0  0  0  0  0  0  0  0
   -8.4600    1.1220   -0.2980 C   0  0  0  0  0  0  0  0  0  0  0  0
   -7.4140    0.0670   -0.3860 C   0  0  0  0  0  0  0  0  0  0  0  0
   -7.8790   -1.0930   -0.7700 C   0  0  0  0  0  0  0  0  0  0  0  0
   -7.0630   -2.2940   -0.9380 C   0  0  0  0  0  0  0  0  0  0  0  0
   -5.6140   -2.1470   -0.6660 C   0  0  2  0  0  0  0  0  0  0  0  0
   -5.1520   -3.2110    0.3220 C   0  0  0  0  0  0  0  0  0  0  0  0
   -2.8970   -0.2460   -0.8100 N   0  0  0  0  0  0  0  0  0  0  0  0
   -1.5960   -0.1720   -0.4760 C   0  0  0  0  0  0  0  0  0  0  0  0
   -0.7290    0.2610   -1.2800 O   0  0  0  0  0  0  0  0  0  0  0  0
    1.6620   -0.9380   -0.5780 C   0  0  0  0  0  0  0  0  0  0  0  0
    0.8660   -2.4790   -0.9390 Cl  0  0  0  0  0  0  0  0  0  0  0  0
    2.7600   -0.5890   -1.3370 C   0  0  0  0  0  0  0  0  0  0  0  0
    6.9600    0.8710   -2.0310 C   0  0  0  0  0  0  0  0  0  0  0  0
    8.1800    0.4440   -1.5640 C   0  0  0  0  0  0  0  0  0  0  0  0
  1  2  1  0
  2  3  1  0
  3  4  1  0
  4  5  2  0
  4 38  1  0
  5  6  1  0
  6  7  2  0
  7  8  1  0
  7 37  1  0
  8  9  1  0
  9 10  2  0
  9 36  1  0
 10 11  1  0
 11 12  2  0
 12 13  1  0
 12 34  1  0
 13 14  1  0
 14 15  2  0
 14 32  1  0
 15 16  1  0
 16 17  2  0
 17 18  1  0
 17 31  1  0
 18 19  2  0
 18 29  1  0
 19 20  1  0
 19 26  1  0
 20 21  2  0
 20 22  1  0
 22 23  1  0
 23 24  1  0
 24 25  1  0
 25 26  1  0
 26 27  2  0
 27 28  1  0
 28 29  1  0
 29 30  1  1
 31 32  1  0
 32 33  2  0
 34 35  1  0
 34 36  2  0
 37 38  2  0
M  CHG  2   2   1  18   1
M  END
