
     RDKit          3D

 38 42  0  0  0  0  0  0  0  0999 V2000
   -7.5070    0.4570   -2.4610 C   0  0  0  0  0  0  0  0  0  0  0  0
   -7.6580    1.4180   -1.5360 C   0  0  0  0  0  0  0  0  0  0  0  0
   -6.9530    1.3510   -0.2710 C   0  0  0  0  0  0  0  0  0  0  0  0
   -7.0780    2.2610    0.6370 C   0  0  0  0  0  0  0  0  0  0  0  0
   -7.9220    3.4440    0.5120 C   0  0  0  0  0  0  0  0  0  0  0  0
   -9.1720    3.5050    1.7900 Cl  0  0  0  0  0  0  0  0  0  0  0  0
   -6.0690    0.1500   -0.0830 C   0  0  0  0  0  0  0  0  0  0  0  0
   -5.3930    0.1660    1.2540 C   0  0  0  0  0  0  0  0  0  0  0  0
   -4.5640   -1.0140    1.3690 N   0  0  0  0  0  0  0  0  0  0  0  0
   -5.0000   -2.1730    1.8630 C   0  0  0  0  0  0  0  0  0  0  0  0
   -6.2240   -2.1820    2.2340 O   0  0  0  0  0  0  0  0  0  0  0  0
   -4.2250   -3.2580    1.9680 N   0  0  0  0  0  0  0  0  0  0  0  0
   -2.9300   -3.1870    1.5560 C   0  0  0  0  0  0  0  0  0  0  0  0
   -2.1580   -4.2850    1.6770 N   0  0  0  0  0  0  0  0  0  0  0  0
   -0.8840   -4.2590    1.2950 C   0  0  0  0  0  0  0  0  0  0  0  0
   -0.3390   -3.0880    0.7640 C   0  0  0  0  0  0  0  0  0  0  0  0
   -1.0820   -1.9330    0.6160 C   0  0  0  0  0  0  0  0  0  0  0  0
   -0.5800   -0.7120    0.0470 C   0  0  0  0  0  0  0  0  0  0  0  0
    0.8060   -0.6220   -0.3480 N   0  0  2  0  0  0  0  0  0  0  0  0
    1.2460   -1.4440   -1.3890 C   0  0  0  0  0  0  0  0  0  0  0  0
    2.5810   -2.0610   -1.3620 C   0  0  0  0  0  0  0  0  0  0  0  0
    3.7190   -1.2790   -0.8360 C   0  0  0  0  0  0  0  0  0  0  0  0
    3.4850    0.1910   -0.6310 C   0  0  2  0  0  0  0  0  0  0  0  0
    4.8130    0.8610   -0.6510 C   0  0  0  0  0  0  0  0  0  0  0  0
    5.2470    1.7680   -1.5460 N   0  0  0  0  0  0  0  0  0  0  0  0
    6.4990    2.1360   -1.2260 C   0  0  0  0  0  0  0  0  0  0  0  0
    6.8180    1.4200   -0.0990 C   0  0  0  0  0  0  0  0  0  0  0  0
    5.7830    0.6770    0.2010 O   0  0  0  0  0  0  0  0  0  0  0  0
    8.0860    1.4510    0.6660 C   0  0  0  0  0  0  0  0  0  0  0  0
    9.1980    1.3840   -0.1760 O   0  0  0  0  0  0  0  0  0  0  0  0
    8.8490    1.4180   -1.5230 C   0  0  0  0  0  0  0  0  0  0  0  0
    8.6750    2.7130   -1.9990 O   0  0  0  0  0  0  0  0  0  0  0  0
    7.3450    3.1310   -1.9730 C   0  0  0  0  0  0  0  0  0  0  0  0
    2.7470    0.4640    0.6620 C   0  0  0  0  0  0  0  0  0  0  0  0
    1.6180   -0.5570    0.8400 C   0  0  0  0  0  0  0  0  0  0  0  0
   -2.4180   -2.0130    1.0350 C   0  0  0  0  0  0  0  0  0  0  0  0
   -3.2560   -0.9530    0.9560 C   0  0  0  0  0  0  0  0  0  0  0  0
   -2.8650    0.1440    0.4980 O   0  0  0  0  0  0  0  0  0  0  0  0
  1  2  2  0
  2  3  1  0
  3  4  2  3
  3  7  1  0
  4  5  1  0
  5  6  1  0
  7  8  1  0
  8  9  1  0
  9 10  1  0
  9 37  1  0
 10 11  2  0
 10 12  1  0
 12 13  1  0
 13 14  2  0
 13 36  1  0
 14 15  1  0
 15 16  2  0
 16 17  1  0
 17 18  1  0
 17 36  2  0
 19 18  1  1
 19 20  1  0
 19 35  1  0
 20 21  1  0
 21 22  1  0
 22 23  1  0
 23 24  1  1
 23 34  1  0
 24 25  2  0
 24 28  1  0
 25 26  1  0
 26 27  2  0
 26 33  1  0
 27 28  1  0
 27 29  1  0
 29 30  1  0
 30 31  1  0
 31 32  1  0
 32 33  1  0
 34 35  1  0
 36 37  1  0
 37 38  2  0
M  CHG  2  19   1  25   1
M  END
