
     RDKit          3D

 38 41  0  0  0  0  0  0  0  0999 V2000
    5.8440   -1.5430    0.8630 C   0  0  0  0  0  0  0  0  0  0  0  0
    4.3650   -1.1620    0.8870 C   0  0  2  0  0  0  0  0  0  0  0  0
    3.6880   -2.0330    1.9410 C   0  0  0  0  0  0  0  0  0  0  0  0
    3.7420   -1.3320   -0.4770 C   0  0  0  0  0  0  0  0  0  0  0  0
    2.3690   -0.9690   -0.4430 N   0  0  0  0  0  0  0  0  0  0  0  0
    1.4390   -1.8090   -1.0800 C   0  0  0  0  0  0  0  0  0  0  0  0
    0.4000   -2.4970   -0.2860 C   0  0  1  0  0  0  0  0  0  0  0  0
    1.0110   -3.3350    0.7030 O   0  0  0  0  0  0  0  0  0  0  0  0
   -0.6480   -1.7590    0.4070 C   0  0  2  0  0  0  0  0  0  0  0  0
   -1.6430   -2.7840    0.9930 C   0  0  0  0  0  0  0  0  0  0  0  0
   -2.2490   -3.6040   -0.0620 C   0  0  0  0  0  0  0  0  0  0  0  0
   -3.3710   -3.1800   -0.7440 C   0  0  0  0  0  0  0  0  0  0  0  0
   -3.9790   -3.9460   -1.7260 C   0  0  0  0  0  0  0  0  0  0  0  0
   -3.4530   -5.1860   -2.0490 C   0  0  0  0  0  0  0  0  0  0  0  0
   -2.3380   -5.6010   -1.3660 C   0  0  0  0  0  0  0  0  0  0  0  0
   -1.7350   -4.8370   -0.3890 C   0  0  0  0  0  0  0  0  0  0  0  0
   -1.4840   -0.8730   -0.3760 N   0  0  0  0  0  0  0  0  0  0  0  0
   -1.9580    0.3450    0.2380 C   0  0  0  0  0  0  0  0  0  0  0  0
   -1.6510    0.6250    1.4230 O   0  0  0  0  0  0  0  0  0  0  0  0
   -2.7620    1.2550   -0.4290 O   0  0  0  0  0  0  0  0  0  0  0  0
   -3.1920    2.4120    0.2080 C   0  0  1  0  0  0  0  0  0  0  0  0
   -2.8250    3.6930   -0.5090 C   0  0  0  0  0  0  0  0  0  0  0  0
   -3.6280    4.6200    0.1220 O   0  0  0  0  0  0  0  0  0  0  0  0
   -4.8240    4.0490    0.4620 C   0  0  1  0  0  0  0  0  0  0  0  0
   -5.9010    4.4990   -0.2820 O   0  0  0  0  0  0  0  0  0  0  0  0
   -5.9400    3.7530   -1.4490 C   0  0  0  0  0  0  0  0  0  0  0  0
   -5.2860    2.4330   -1.1660 C   0  0  0  0  0  0  0  0  0  0  0  0
   -4.7190    2.5600    0.2190 C   0  0  1  0  0  0  0  0  0  0  0  0
    2.1870    0.6650   -0.9220 S   0  0  2  0  0  0  0  0  0  0  0  0
    0.7740    1.0940   -1.1460 O   0  0  0  0  0  0  0  0  0  0  0  0
    2.8580    0.8730   -2.3000 O   0  0  0  0  0  0  0  0  0  0  0  0
    3.0020    1.8010    0.1250 C   0  0  0  0  0  0  0  0  0  0  0  0
    2.3870    2.2260    1.2590 C   0  0  0  0  0  0  0  0  0  0  0  0
    2.9910    3.1280    2.0920 C   0  0  0  0  0  0  0  0  0  0  0  0
    4.2550    3.6510    1.8210 C   0  0  0  0  0  0  0  0  0  0  0  0
    4.8770    4.5780    2.6760 N   0  0  0  0  0  0  0  0  0  0  0  0
    4.8810    3.2180    0.6670 C   0  0  0  0  0  0  0  0  0  0  0  0
    4.2540    2.3090   -0.1570 C   0  0  0  0  0  0  0  0  0  0  0  0
  2  1  1  6
  2  3  1  0
  2  4  1  0
  4  5  1  0
  5  6  1  0
 29  5  1  1
  6  7  1  0
  7  8  1  1
  7  9  1  0
  9 10  1  6
  9 17  1  0
 10 11  1  0
 11 12  2  0
 11 16  1  0
 12 13  1  0
 13 14  2  0
 14 15  1  0
 15 16  2  0
 17 18  1  0
 18 19  2  0
 18 20  1  0
 21 20  1  6
 21 22  1  0
 21 28  1  0
 22 23  1  0
 24 23  1  6
 24 25  1  0
 24 28  1  0
 25 26  1  0
 26 27  1  0
 28 27  1  6
 29 30  2  0
 29 31  2  0
 29 32  1  0
 32 33  2  0
 32 38  1  0
 33 34  1  0
 34 35  2  0
 35 36  1  0
 35 37  1  0
 37 38  2  0
M  END
