
     RDKit          3D

 38 43  0  0  0  0  0  0  0  0999 V2000
    8.6770    0.6890   -0.0680 C   0  0  0  0  0  0  0  0  0  0  0  0
    8.8490    0.2060   -1.4970 C   0  0  0  0  0  0  0  0  0  0  0  0
    7.9960   -0.5530   -2.0630 O   0  0  0  0  0  0  0  0  0  0  0  0
    7.2370   -1.6100   -1.7900 C   0  0  0  0  0  0  0  0  0  0  0  0
    6.2090   -1.1240   -0.7690 C   0  0  0  0  0  0  0  0  0  0  0  0
    6.3100   -0.5990    0.3900 O   0  0  0  0  0  0  0  0  0  0  0  0
    5.1310   -0.3070    0.9230 C   0  0  0  0  0  0  0  0  0  0  0  0
    4.8100    0.2870    2.1590 O   0  0  0  0  0  0  0  0  0  0  0  0
    5.9380    0.7520    2.9330 C   0  0  0  0  0  0  0  0  0  0  0  0
    4.2110   -0.6970    0.0060 C   0  0  0  0  0  0  0  0  0  0  0  0
    2.8220   -0.2290   -0.1240 C   0  0  0  0  0  0  0  0  0  0  0  0
    1.6900   -0.8130   -0.1350 N   0  0  0  0  0  0  0  0  0  0  0  0
    0.7390    0.1570   -0.2770 C   0  0  0  0  0  0  0  0  0  0  0  0
   -0.6230    0.0500   -0.3730 C   0  0  0  0  0  0  0  0  0  0  0  0
   -1.3400    1.2110   -0.5490 C   0  0  0  0  0  0  0  0  0  0  0  0
   -0.7150    2.3980   -0.6230 N   0  0  0  0  0  0  0  0  0  0  0  0
    0.5990    2.5240   -0.5330 C   0  0  0  0  0  0  0  0  0  0  0  0
    1.3530    1.3860   -0.3600 C   0  0  0  0  0  0  0  0  0  0  0  0
    2.6550    1.1520   -0.2570 N   0  0  0  0  0  0  0  0  0  0  0  0
   -2.8180    0.8250   -0.5850 C   0  0  2  0  0  0  0  0  0  0  0  0
   -3.4680    2.0090   -0.0680 N   0  0  0  0  0  0  0  0  0  0  0  0
   -4.6370    1.7790    0.6740 C   0  0  0  0  0  0  0  0  0  0  0  0
   -5.7310    0.9880    0.1250 C   0  0  2  0  0  0  0  0  0  0  0  0
   -6.4610    1.4930   -0.9680 O   0  0  0  0  0  0  0  0  0  0  0  0
   -7.7520    0.9390   -0.8160 C   0  0  0  0  0  0  0  0  0  0  0  0
   -8.8360    0.7680   -1.6910 C   0  0  0  0  0  0  0  0  0  0  0  0
  -10.0150    0.1700   -1.2490 C   0  0  0  0  0  0  0  0  0  0  0  0
  -10.1380   -0.2710    0.0520 C   0  0  0  0  0  0  0  0  0  0  0  0
   -9.0740   -0.0970    0.8800 C   0  0  0  0  0  0  0  0  0  0  0  0
   -7.9060    0.4940    0.4630 C   0  0  0  0  0  0  0  0  0  0  0  0
   -6.7060    0.7640    1.1430 O   0  0  0  0  0  0  0  0  0  0  0  0
   -2.7470   -0.3270    0.3770 C   0  0  0  0  0  0  0  0  0  0  0  0
   -1.5570   -1.0900   -0.2470 C   0  0  2  0  0  0  0  0  0  0  0  0
   -1.0610   -2.1280    0.6070 N   0  0  2  0  0  0  0  0  0  0  0  0
   -0.3520   -1.6880    1.7770 C   0  0  0  0  0  0  0  0  0  0  0  0
   -0.3250   -3.0640   -0.2140 C   0  0  0  0  0  0  0  0  0  0  0  0
    4.8750   -1.2380   -1.0850 C   0  0  0  0  0  0  0  0  0  0  0  0
    4.1020   -1.8300   -2.5440 Cl  0  0  0  0  0  0  0  0  0  0  0  0
  1  2  1  0
  2  3  1  0
  3  4  1  0
  4  5  1  0
  5  6  1  0
  5 37  2  0
  6  7  1  0
  7  8  1  0
  7 10  2  0
  8  9  1  0
 10 11  1  0
 10 37  1  0
 11 12  2  0
 11 19  1  0
 12 13  1  0
 13 14  2  0
 13 18  1  0
 14 15  1  0
 14 33  1  0
 15 16  2  0
 15 20  1  0
 16 17  1  0
 17 18  2  0
 18 19  1  0
 20 21  1  1
 20 32  1  0
 21 22  1  0
 23 22  1  1
 23 24  1  0
 23 31  1  0
 24 25  1  0
 25 26  2  0
 25 30  1  0
 26 27  1  0
 27 28  2  0
 28 29  1  0
 29 30  2  0
 30 31  1  0
 33 32  1  1
 33 34  1  0
 34 35  1  1
 34 36  1  0
 37 38  1  0
M  CHG  2  21   1  34   1
M  END
