
     RDKit          3D

 38 42  0  0  0  0  0  0  0  0999 V2000
   -7.0580    3.9130    0.8040 C   0  0  0  0  0  0  0  0  0  0  0  0
   -7.7160    2.5820    0.7320 C   0  0  0  0  0  0  0  0  0  0  0  0
   -6.7590    1.4470    0.6390 C   0  0  0  0  0  0  0  0  0  0  0  0
   -5.4260    1.5970    0.4340 N   0  0  0  0  0  0  0  0  0  0  0  0
   -4.5940    0.5350    0.3350 C   0  0  0  0  0  0  0  0  0  0  0  0
   -5.1760   -0.7280    0.4600 C   0  0  0  0  0  0  0  0  0  0  0  0
   -6.5010   -0.8560    0.6800 C   0  0  0  0  0  0  0  0  0  0  0  0
   -6.9310   -2.0710    0.7830 O   0  0  0  0  0  0  0  0  0  0  0  0
   -7.2260    0.1920    0.7550 O   0  0  0  0  0  0  0  0  0  0  0  0
   -4.1840   -1.8050    0.1180 C   0  0  0  0  0  0  0  0  0  0  0  0
   -3.8520   -1.2390   -1.2860 C   0  0  0  0  0  0  0  0  0  0  0  0
   -2.7780   -0.1210   -1.0520 N   0  0  2  0  0  0  0  0  0  0  0  0
   -1.6740   -0.8230   -1.4600 C   0  0  0  0  0  0  0  0  0  0  0  0
   -0.4820   -1.2680   -0.8690 C   0  0  0  0  0  0  0  0  0  0  0  0
    0.6350   -0.6930   -0.4390 N   0  0  0  0  0  0  0  0  0  0  0  0
    1.6060   -1.5430   -0.1910 C   0  0  0  0  0  0  0  0  0  0  0  0
    3.0480   -1.3510    0.1980 C   0  0  2  0  0  0  0  0  0  0  0  0
    3.1550   -0.6480    1.5160 C   0  0  0  0  0  0  0  0  0  0  0  0
    4.5950   -0.8680    2.0330 C   0  0  0  0  0  0  0  0  0  0  0  0
    5.5480   -0.4220    1.0100 C   0  0  0  0  0  0  0  0  0  0  0  0
    4.9660    0.0260   -0.2720 N   0  0  0  0  0  0  0  0  0  0  0  0
    5.3640    1.2850   -0.7970 C   0  0  0  0  0  0  0  0  0  0  0  0
    5.2260    1.5300   -1.9950 O   0  0  0  0  0  0  0  0  0  0  0  0
    5.9380    2.2830    0.1060 C   0  0  0  0  0  0  0  0  0  0  0  0
    5.4200    2.4270    1.3470 O   0  0  0  0  0  0  0  0  0  0  0  0
    6.0350    3.3670    2.0160 C   0  0  0  0  0  0  0  0  0  0  0  0
    7.0350    3.8820    1.1790 C   0  0  0  0  0  0  0  0  0  0  0  0
    6.9330    3.1640   -0.0010 C   0  0  0  0  0  0  0  0  0  0  0  0
    7.9160    3.2740   -1.1070 C   0  0  0  0  0  0  0  0  0  0  0  0
    3.8250   -0.6280   -0.8740 C   0  0  0  0  0  0  0  0  0  0  0  0
    1.0980   -2.7780   -0.4780 N   0  0  0  0  0  0  0  0  0  0  0  0
   -0.1360   -2.6680   -0.8770 C   0  0  0  0  0  0  0  0  0  0  0  0
   -1.1640   -3.6830   -1.2460 C   0  0  0  0  0  0  0  0  0  0  0  0
   -1.0460   -4.9130   -0.7940 C   0  0  0  0  0  0  0  0  0  0  0  0
   -2.0670   -5.8740   -1.1770 C   0  0  0  0  0  0  0  0  0  0  0  0
   -2.9970   -5.6100   -1.9250 O   0  0  0  0  0  0  0  0  0  0  0  0
   -1.9710   -7.5080   -0.5380 Cl  0  0  0  0  0  0  0  0  0  0  0  0
   -3.1210    0.5440    0.1300 C   0  0  0  0  0  0  0  0  0  0  0  0
  1  2  1  0
  2  3  1  0
  3  4  2  0
  3  9  1  0
  4  5  1  0
  5  6  2  0
  5 38  1  0
  6  7  1  0
  6 10  1  0
  7  8  2  0
  7  9  1  0
 10 11  1  0
 11 12  1  0
 12 13  1  1
 12 38  1  0
 13 14  1  0
 14 15  1  0
 14 32  2  0
 15 16  1  0
 17 16  1  6
 16 31  2  0
 17 18  1  0
 17 30  1  0
 18 19  1  0
 19 20  1  0
 20 21  1  0
 21 22  1  0
 21 30  1  0
 22 23  2  0
 22 24  1  0
 24 25  1  0
 24 28  2  0
 25 26  1  0
 26 27  2  0
 27 28  1  0
 28 29  1  0
 31 32  1  0
 32 33  1  0
 33 34  2  3
 34 35  1  0
 35 36  2  0
 35 37  1  0
M  CHG  2   4   1  12   1
M  END
