
     RDKit          3D

 38 43  0  0  0  0  0  0  0  0999 V2000
    9.6300   -2.3760   -0.1710 C   0  0  0  0  0  0  0  0  0  0  0  0
    9.7270   -0.8550   -0.2010 C   0  0  0  0  0  0  0  0  0  0  0  0
    8.5490   -0.3450    0.2900 O   0  0  0  0  0  0  0  0  0  0  0  0
    7.4360   -0.7240   -0.4420 C   0  0  0  0  0  0  0  0  0  0  0  0
    6.2240   -0.1000    0.2010 C   0  0  0  0  0  0  0  0  0  0  0  0
    6.2090    0.6650    1.2610 O   0  0  0  0  0  0  0  0  0  0  0  0
    4.9880    1.0540    1.5760 C   0  0  0  0  0  0  0  0  0  0  0  0
    4.6560    1.8840    2.6680 O   0  0  0  0  0  0  0  0  0  0  0  0
    4.5290    3.3000    2.4460 C   0  0  0  0  0  0  0  0  0  0  0  0
    4.1290    0.5110    0.6620 C   0  0  0  0  0  0  0  0  0  0  0  0
    2.6750    0.6420    0.6010 C   0  0  0  0  0  0  0  0  0  0  0  0
    1.8640    0.1020   -0.3590 N   0  0  0  0  0  0  0  0  0  0  0  0
    0.5810    0.4180   -0.1160 C   0  0  0  0  0  0  0  0  0  0  0  0
   -0.6230    0.1460   -0.7450 C   0  0  0  0  0  0  0  0  0  0  0  0
   -1.8490    0.5920   -0.2960 C   0  0  0  0  0  0  0  0  0  0  0  0
   -1.8010    1.3380    0.8360 N   0  0  0  0  0  0  0  0  0  0  0  0
   -0.6660    1.6350    1.4900 C   0  0  0  0  0  0  0  0  0  0  0  0
    0.5520    1.1830    1.0290 C   0  0  0  0  0  0  0  0  0  0  0  0
    1.8370    1.2890    1.4240 N   0  0  0  0  0  0  0  0  0  0  0  0
   -2.8460    0.1020   -1.2280 C   0  0  2  0  0  0  0  0  0  0  0  0
   -4.1720    0.0060   -0.8530 N   0  0  0  0  0  0  0  0  0  0  0  0
   -4.6110    0.4750    0.4100 C   0  0  0  0  0  0  0  0  0  0  0  0
   -5.9920   -0.0890    0.7790 C   0  0  1  0  0  0  0  0  0  0  0  0
   -6.3970    0.4040    2.0440 O   0  0  0  0  0  0  0  0  0  0  0  0
   -7.7180    0.8140    2.0050 C   0  0  0  0  0  0  0  0  0  0  0  0
   -8.6810    1.1320    2.9410 C   0  0  0  0  0  0  0  0  0  0  0  0
   -9.9560    1.5210    2.5400 C   0  0  0  0  0  0  0  0  0  0  0  0
  -10.3010    1.6020    1.1920 C   0  0  0  0  0  0  0  0  0  0  0  0
   -9.3230    1.2790    0.2740 C   0  0  0  0  0  0  0  0  0  0  0  0
   -8.0640    0.8960    0.6750 C   0  0  0  0  0  0  0  0  0  0  0  0
   -6.9550    0.5360   -0.0580 O   0  0  0  0  0  0  0  0  0  0  0  0
   -2.2140   -1.2190   -1.6900 C   0  0  0  0  0  0  0  0  0  0  0  0
   -0.8040   -0.6690   -1.9870 C   0  0  2  0  0  0  0  0  0  0  0  0
    0.1400   -1.7360   -2.1030 N   0  0  1  0  0  0  0  0  0  0  0  0
   -0.4940   -3.0170   -2.3730 C   0  0  0  0  0  0  0  0  0  0  0  0
    1.0580   -1.5030   -3.2270 C   0  0  0  0  0  0  0  0  0  0  0  0
    4.9130   -0.2220   -0.2130 C   0  0  0  0  0  0  0  0  0  0  0  0
    4.4000   -1.1590   -1.6110 Cl  0  0  0  0  0  0  0  0  0  0  0  0
  1  2  1  0
  2  3  1  0
  3  4  1  0
  4  5  1  0
  5  6  1  0
  5 37  2  0
  6  7  1  0
  7  8  1  0
  7 10  2  0
  8  9  1  0
 10 11  1  0
 10 37  1  0
 11 12  2  0
 11 19  1  0
 12 13  1  0
 13 14  2  0
 13 18  1  0
 14 15  1  0
 14 33  1  0
 15 16  2  0
 15 20  1  0
 16 17  1  0
 17 18  2  0
 18 19  1  0
 20 21  1  1
 20 32  1  0
 21 22  1  0
 23 22  1  6
 23 24  1  0
 23 31  1  0
 24 25  1  0
 25 26  2  0
 25 30  1  0
 26 27  1  0
 27 28  2  0
 28 29  1  0
 29 30  2  0
 30 31  1  0
 33 32  1  1
 33 34  1  0
 34 35  1  6
 34 36  1  0
 37 38  1  0
M  CHG  2  21   1  34   1
M  END
