
     RDKit          3D

 38 42  0  0  0  0  0  0  0  0999 V2000
   -5.4100    0.5480   -2.6860 C   0  0  0  0  0  0  0  0  0  0  0  0
   -6.6440    0.2660   -2.4040 C   0  0  0  0  0  0  0  0  0  0  0  0
   -7.0650   -0.2220   -1.1050 C   0  0  0  0  0  0  0  0  0  0  0  0
   -8.3520   -0.5150   -0.9750 C   0  0  0  0  0  0  0  0  0  0  0  0
   -9.0390   -1.0220    0.2190 C   0  0  0  0  0  0  0  0  0  0  0  0
  -10.3390    0.1270    0.7120 Cl  0  0  0  0  0  0  0  0  0  0  0  0
   -6.0970   -0.4170   -0.0240 C   0  0  0  0  0  0  0  0  0  0  0  0
   -5.5590    0.8930    0.4930 C   0  0  0  0  0  0  0  0  0  0  0  0
   -4.6120    0.5630    1.5390 N   0  0  0  0  0  0  0  0  0  0  0  0
   -5.0680    0.4480    2.7960 C   0  0  0  0  0  0  0  0  0  0  0  0
   -6.3030    0.6270    3.0310 O   0  0  0  0  0  0  0  0  0  0  0  0
   -4.2610    0.1480    3.8240 N   0  0  0  0  0  0  0  0  0  0  0  0
   -2.9440   -0.0460    3.5950 C   0  0  0  0  0  0  0  0  0  0  0  0
   -2.1280   -0.3450    4.6270 N   0  0  0  0  0  0  0  0  0  0  0  0
   -0.8170   -0.5460    4.4630 C   0  0  0  0  0  0  0  0  0  0  0  0
   -0.2510   -0.4510    3.2100 C   0  0  0  0  0  0  0  0  0  0  0  0
   -1.0610   -0.1470    2.1390 C   0  0  0  0  0  0  0  0  0  0  0  0
   -0.5600   -0.0350    0.7500 C   0  0  0  0  0  0  0  0  0  0  0  0
    0.8830   -0.2660    0.7470 N   0  0  2  0  0  0  0  0  0  0  0  0
    1.5360    0.8890    1.2620 C   0  0  0  0  0  0  0  0  0  0  0  0
    2.0390    1.8240    0.1800 C   0  0  0  0  0  0  0  0  0  0  0  0
    3.1560    1.2880   -0.6380 C   0  0  0  0  0  0  0  0  0  0  0  0
    3.5950   -0.1040   -0.3170 C   0  0  2  0  0  0  0  0  0  0  0  0
    4.9390   -0.3450   -0.9380 C   0  0  0  0  0  0  0  0  0  0  0  0
    6.0730   -0.7080   -0.2700 N   0  0  0  0  0  0  0  0  0  0  0  0
    7.0970   -0.8390   -1.1300 C   0  0  0  0  0  0  0  0  0  0  0  0
    6.5680   -0.5460   -2.3610 C   0  0  0  0  0  0  0  0  0  0  0  0
    5.2930   -0.2600   -2.1950 O   0  0  0  0  0  0  0  0  0  0  0  0
    7.2400   -0.5270   -3.7050 C   0  0  0  0  0  0  0  0  0  0  0  0
    8.5880   -0.2120   -3.5410 O   0  0  0  0  0  0  0  0  0  0  0  0
    8.8330    0.4410   -2.3560 C   0  0  0  0  0  0  0  0  0  0  0  0
    9.4150   -0.3770   -1.3930 O   0  0  0  0  0  0  0  0  0  0  0  0
    8.4920   -1.2220   -0.7930 C   0  0  0  0  0  0  0  0  0  0  0  0
    2.5700   -1.0890   -0.8420 C   0  0  0  0  0  0  0  0  0  0  0  0
    1.2080   -0.5060   -0.6630 C   0  0  0  0  0  0  0  0  0  0  0  0
   -2.4370    0.0660    2.2970 C   0  0  0  0  0  0  0  0  0  0  0  0
   -3.2920    0.3750    1.2700 C   0  0  0  0  0  0  0  0  0  0  0  0
   -2.8660    0.4820    0.1040 O   0  0  0  0  0  0  0  0  0  0  0  0
  1  2  2  0
  2  3  1  0
  3  4  2  3
  3  7  1  0
  4  5  1  0
  5  6  1  0
  7  8  1  0
  8  9  1  0
  9 10  1  0
  9 37  1  0
 10 11  2  0
 10 12  1  0
 12 13  1  0
 13 14  2  0
 13 36  1  0
 14 15  1  0
 15 16  2  0
 16 17  1  0
 17 18  1  0
 17 36  2  0
 19 18  1  6
 19 20  1  0
 19 35  1  0
 20 21  1  0
 21 22  1  0
 22 23  1  0
 23 24  1  6
 23 34  1  0
 24 25  2  0
 24 28  1  0
 25 26  1  0
 26 27  2  0
 26 33  1  0
 27 28  1  0
 27 29  1  0
 29 30  1  0
 30 31  1  0
 31 32  1  0
 32 33  1  0
 34 35  1  0
 36 37  1  0
 37 38  2  0
M  CHG  2  19   1  25   1
M  END
