
     RDKit          3D

 38 42  0  0  0  0  0  0  0  0999 V2000
    9.8340    0.5100   -0.7430 C   0  0  0  0  0  0  0  0  0  0  0  0
   10.4350   -0.4520    0.1810 N   0  0  0  0  0  0  0  0  0  0  0  0
    9.5530   -1.6000    0.2670 C   0  0  0  0  0  0  0  0  0  0  0  0
    8.1930   -1.1260    0.6290 C   0  0  0  0  0  0  0  0  0  0  0  0
    7.2200   -1.0740   -0.3350 C   0  0  0  0  0  0  0  0  0  0  0  0
    5.9390   -0.6130    0.0100 C   0  0  0  0  0  0  0  0  0  0  0  0
    5.6550   -0.2160    1.2930 C   0  0  0  0  0  0  0  0  0  0  0  0
    4.4000    0.2330    1.6120 O   0  0  0  0  0  0  0  0  0  0  0  0
    3.3390    0.2810    0.7590 C   0  0  0  0  0  0  0  0  0  0  0  0
    3.1920    1.3220   -0.1100 C   0  0  0  0  0  0  0  0  0  0  0  0
    2.1180    1.3960   -0.9890 C   0  0  0  0  0  0  0  0  0  0  0  0
    1.1730    0.3720   -0.9730 C   0  0  0  0  0  0  0  0  0  0  0  0
    0.1060    0.4390   -1.8420 O   0  0  0  0  0  0  0  0  0  0  0  0
   -1.1720    0.5140   -1.3330 C   0  0  0  0  0  0  0  0  0  0  0  0
   -1.4410    0.5050   -0.0210 N   0  0  0  0  0  0  0  0  0  0  0  0
   -2.6800    0.5860    0.4220 N   0  0  0  0  0  0  0  0  0  0  0  0
   -3.6920    0.6790   -0.4330 C   0  0  0  0  0  0  0  0  0  0  0  0
   -5.0660    0.8240    0.0260 N   0  0  0  0  0  0  0  0  0  0  0  0
   -5.8640   -0.1620   -0.0570 C   0  0  0  0  0  0  0  0  0  0  0  0
   -5.2410   -1.3480   -0.6420 C   0  0  0  0  0  0  0  0  0  0  0  0
   -4.0150   -1.4640   -0.4390 O   0  0  0  0  0  0  0  0  0  0  0  0
   -5.8650   -2.3520   -1.3930 O   0  0  0  0  0  0  0  0  0  0  0  0
   -7.2680   -2.5940   -1.3840 C   0  0  0  0  0  0  0  0  0  0  0  0
   -7.8190   -2.5150    0.0050 C   0  0  0  0  0  0  0  0  0  0  0  0
   -8.3030   -1.1590    0.4160 C   0  0  0  0  0  0  0  0  0  0  0  0
   -7.2480   -0.1200    0.4580 C   0  0  0  0  0  0  0  0  0  0  0  0
   -7.6290    1.0000    1.0320 C   0  0  0  0  0  0  0  0  0  0  0  0
   -6.7700    2.1670    1.1860 C   0  0  0  0  0  0  0  0  0  0  0  0
   -5.4870    2.1220    0.4730 C   0  0  2  0  0  0  0  0  0  0  0  0
   -5.6070    3.0710   -0.7380 C   0  0  0  0  0  0  0  0  0  0  0  0
   -3.4950    0.6930   -1.7520 N   0  0  0  0  0  0  0  0  0  0  0  0
   -2.2220    0.6090   -2.2160 C   0  0  0  0  0  0  0  0  0  0  0  0
   -2.0060    0.6200   -3.4630 O   0  0  0  0  0  0  0  0  0  0  0  0
    1.3010   -0.6750   -0.1150 C   0  0  0  0  0  0  0  0  0  0  0  0
    0.1100   -1.9440   -0.1160 Cl  0  0  0  0  0  0  0  0  0  0  0  0
    2.3980   -0.7160    0.7590 C   0  0  0  0  0  0  0  0  0  0  0  0
    6.6370   -0.2740    2.2420 C   0  0  0  0  0  0  0  0  0  0  0  0
    7.9240   -0.7300    1.9260 C   0  0  0  0  0  0  0  0  0  0  0  0
  1  2  1  0
  2  3  1  0
  3  4  1  0
  4  5  2  0
  4 38  1  0
  5  6  1  0
  6  7  2  0
  7  8  1  0
  7 37  1  0
  8  9  1  0
  9 10  2  0
  9 36  1  0
 10 11  1  0
 11 12  2  0
 12 13  1  0
 12 34  1  0
 13 14  1  0
 14 15  2  0
 14 32  1  0
 15 16  1  0
 16 17  2  0
 17 18  1  0
 17 31  1  0
 18 19  2  0
 18 29  1  0
 19 20  1  0
 19 26  1  0
 20 21  2  0
 20 22  1  0
 22 23  1  0
 23 24  1  0
 24 25  1  0
 25 26  1  0
 26 27  2  0
 27 28  1  0
 28 29  1  0
 29 30  1  6
 31 32  1  0
 32 33  2  0
 34 35  1  0
 34 36  2  0
 37 38  2  0
M  CHG  2   2   1  18   1
M  END
