
     RDKit          3D

 38 42  0  0  0  0  0  0  0  0999 V2000
    9.2280    0.1510   -0.0510 C   0  0  0  0  0  0  0  0  0  0  0  0
    8.0950    0.8270   -0.6550 N   0  0  2  0  0  0  0  0  0  0  0  0
    7.8760    2.1450   -0.1470 C   0  0  0  0  0  0  0  0  0  0  0  0
    7.6820    2.1680    1.3490 C   0  0  0  0  0  0  0  0  0  0  0  0
    6.5730    1.2410    1.7910 C   0  0  0  0  0  0  0  0  0  0  0  0
    6.5630   -0.0570    1.0630 C   0  0  1  0  0  0  0  0  0  0  0  0
    5.2610   -0.7180    1.2150 C   0  0  0  0  0  0  0  0  0  0  0  0
    5.2530   -1.9050    1.6960 O   0  0  0  0  0  0  0  0  0  0  0  0
    4.0580   -0.1160    0.8600 N   0  0  0  0  0  0  0  0  0  0  0  0
    3.6690    1.1630    0.3310 C   0  0  0  0  0  0  0  0  0  0  0  0
    2.4330    0.8660   -0.5340 C   0  0  0  0  0  0  0  0  0  0  0  0
    2.2870   -0.5530   -0.3940 N   0  0  2  0  0  0  0  0  0  0  0  0
    0.9460   -1.0110   -0.6630 C   0  0  0  0  0  0  0  0  0  0  0  0
    0.8810   -2.4880   -0.4780 C   0  0  0  0  0  0  0  0  0  0  0  0
   -0.4070   -3.0220   -0.7350 O   0  0  0  0  0  0  0  0  0  0  0  0
   -1.5310   -2.6410   -0.0330 C   0  0  0  0  0  0  0  0  0  0  0  0
   -1.3880   -1.7800    0.8720 O   0  0  0  0  0  0  0  0  0  0  0  0
   -2.8850   -3.2310   -0.3350 C   0  0  0  0  0  0  0  0  0  0  0  0
   -3.8370   -2.6040    0.5560 N   0  0  0  0  0  0  0  0  0  0  0  0
   -4.2320   -2.9510    1.7500 N   0  0  0  0  0  0  0  0  0  0  0  0
   -5.1500   -2.0750    2.2410 C   0  0  0  0  0  0  0  0  0  0  0  0
   -5.3340   -1.1080    1.2670 C   0  0  0  0  0  0  0  0  0  0  0  0
   -6.1240    0.0220    1.1770 C   0  0  0  0  0  0  0  0  0  0  0  0
   -6.1230    0.8420    0.0640 C   0  0  0  0  0  0  0  0  0  0  0  0
   -6.9100    1.9810   -0.0420 O   0  0  0  0  0  0  0  0  0  0  0  0
   -8.1850    1.9490   -0.5620 C   0  0  0  0  0  0  0  0  0  0  0  0
   -8.7430    0.7670   -0.9920 C   0  0  0  0  0  0  0  0  0  0  0  0
  -10.0370    0.7470   -1.5180 C   0  0  0  0  0  0  0  0  0  0  0  0
  -10.7710    1.9060   -1.6130 C   0  0  0  0  0  0  0  0  0  0  0  0
  -12.0730    1.8940   -2.1400 O   0  0  0  0  0  0  0  0  0  0  0  0
  -10.2180    3.0940   -1.1840 C   0  0  0  0  0  0  0  0  0  0  0  0
  -11.1710    4.5560   -1.3140 Cl  0  0  0  0  0  0  0  0  0  0  0  0
   -8.9260    3.0970   -0.6630 C   0  0  0  0  0  0  0  0  0  0  0  0
   -5.2880    0.4830   -0.9770 C   0  0  0  0  0  0  0  0  0  0  0  0
   -4.4980   -0.6490   -0.8870 C   0  0  0  0  0  0  0  0  0  0  0  0
   -4.4990   -1.4690    0.2300 C   0  0  0  0  0  0  0  0  0  0  0  0
    2.7370   -0.8050    0.9580 C   0  0  0  0  0  0  0  0  0  0  0  0
    6.9090    0.0310   -0.4060 C   0  0  0  0  0  0  0  0  0  0  0  0
  2  1  1  1
  2  3  1  0
  2 38  1  0
  3  4  1  0
  4  5  1  0
  5  6  1  0
  6  7  1  6
  6 38  1  0
  7  8  2  0
  7  9  1  0
  9 10  1  0
  9 37  1  0
 10 11  1  0
 11 12  1  0
 12 13  1  1
 12 37  1  0
 13 14  1  0
 14 15  1  0
 15 16  1  0
 16 17  2  0
 16 18  1  0
 18 19  1  0
 19 20  1  0
 19 36  1  0
 20 21  2  0
 21 22  1  0
 22 23  2  0
 22 36  1  0
 23 24  1  0
 24 25  1  0
 24 34  2  0
 25 26  1  0
 26 27  2  0
 26 33  1  0
 27 28  1  0
 28 29  2  0
 29 30  1  0
 29 31  1  0
 31 32  1  0
 31 33  2  0
 34 35  1  0
 35 36  2  0
M  CHG  2   2   1  12   1
M  END
