
     RDKit          3D

 38 41  0  0  0  0  0  0  0  0999 V2000
   -5.0990   -0.8800   -2.3670 C   0  0  0  0  0  0  0  0  0  0  0  0
   -3.9490   -0.4300   -1.4500 C   0  0  2  0  0  0  0  0  0  0  0  0
   -2.8830    0.1410   -2.3990 C   0  0  0  0  0  0  0  0  0  0  0  0
   -3.4040   -1.6790   -0.8430 C   0  0  0  0  0  0  0  0  0  0  0  0
   -2.2850   -1.4390    0.0880 N   0  0  0  0  0  0  0  0  0  0  0  0
   -1.5030   -2.6920    0.1020 C   0  0  0  0  0  0  0  0  0  0  0  0
   -0.1200   -2.5320    0.6420 C   0  0  1  0  0  0  0  0  0  0  0  0
    0.4650   -3.8200    0.6010 O   0  0  0  0  0  0  0  0  0  0  0  0
    0.6670   -1.5510   -0.1540 C   0  0  2  0  0  0  0  0  0  0  0  0
    0.6610   -1.8860   -1.6580 C   0  0  0  0  0  0  0  0  0  0  0  0
    1.4900   -0.8720   -2.3540 C   0  0  0  0  0  0  0  0  0  0  0  0
    2.8410   -1.0930   -2.5230 C   0  0  0  0  0  0  0  0  0  0  0  0
    3.6440   -0.1630   -3.1720 C   0  0  0  0  0  0  0  0  0  0  0  0
    3.1090    1.0090   -3.6650 C   0  0  0  0  0  0  0  0  0  0  0  0
    1.7610    1.2400   -3.5020 C   0  0  0  0  0  0  0  0  0  0  0  0
    0.9890    0.2980   -2.8530 C   0  0  0  0  0  0  0  0  0  0  0  0
    2.0200   -1.3710    0.3060 N   0  0  0  0  0  0  0  0  0  0  0  0
    2.4430   -0.0930    0.7400 C   0  0  0  0  0  0  0  0  0  0  0  0
    1.6300    0.8390    0.7130 O   0  0  0  0  0  0  0  0  0  0  0  0
    3.7300    0.1680    1.1980 O   0  0  0  0  0  0  0  0  0  0  0  0
    4.1150    1.4600    1.6250 C   0  0  1  0  0  0  0  0  0  0  0  0
    4.6300    1.4850    3.0210 C   0  0  0  0  0  0  0  0  0  0  0  0
    5.5130    2.5420    3.0730 O   0  0  0  0  0  0  0  0  0  0  0  0
    6.1660    2.5840    1.8470 C   0  0  1  0  0  0  0  0  0  0  0  0
    7.3340    1.8540    1.9110 O   0  0  0  0  0  0  0  0  0  0  0  0
    7.1310    0.6700    1.2190 C   0  0  0  0  0  0  0  0  0  0  0  0
    6.0910    0.9310    0.1800 C   0  0  0  0  0  0  0  0  0  0  0  0
    5.2570    2.0140    0.8230 C   0  0  1  0  0  0  0  0  0  0  0  0
   -3.0470   -1.3380    1.6610 S   0  0  1  0  0  0  0  0  0  0  0  0
   -3.6850   -2.7050    1.8680 O   0  0  0  0  0  0  0  0  0  0  0  0
   -1.9580   -1.2630    2.7150 O   0  0  0  0  0  0  0  0  0  0  0  0
   -4.1770   -0.0660    1.8120 C   0  0  0  0  0  0  0  0  0  0  0  0
   -5.5250   -0.3040    1.6600 C   0  0  0  0  0  0  0  0  0  0  0  0
   -6.4580    0.6790    1.7700 C   0  0  0  0  0  0  0  0  0  0  0  0
   -6.0660    1.9720    2.0430 C   0  0  0  0  0  0  0  0  0  0  0  0
   -7.0330    3.0010    2.1590 N   0  0  0  0  0  0  0  0  0  0  0  0
   -4.7300    2.2490    2.2020 C   0  0  0  0  0  0  0  0  0  0  0  0
   -3.7830    1.2240    2.0850 C   0  0  0  0  0  0  0  0  0  0  0  0
  2  1  1  6
  2  3  1  0
  2  4  1  0
  4  5  1  0
  5  6  1  0
 29  5  1  6
  6  7  1  0
  7  8  1  6
  7  9  1  0
  9 10  1  6
  9 17  1  0
 10 11  1  0
 11 12  2  0
 11 16  1  0
 12 13  1  0
 13 14  2  0
 14 15  1  0
 15 16  2  0
 17 18  1  0
 18 19  2  0
 18 20  1  0
 21 20  1  6
 21 22  1  0
 21 28  1  0
 22 23  1  0
 24 23  1  1
 24 25  1  0
 24 28  1  0
 25 26  1  0
 26 27  1  0
 28 27  1  1
 29 30  2  0
 29 31  2  0
 29 32  1  0
 32 33  2  0
 32 38  1  0
 33 34  1  0
 34 35  2  0
 35 36  1  0
 35 37  1  0
 37 38  2  0
M  END
