
     RDKit          3D

 38 42  0  0  0  0  0  0  0  0999 V2000
    5.0670    3.1370   -0.1700 C   0  0  0  0  0  0  0  0  0  0  0  0
    4.8400    1.7630   -0.0880 O   0  0  0  0  0  0  0  0  0  0  0  0
    5.7980    0.7940   -0.2980 C   0  0  0  0  0  0  0  0  0  0  0  0
    7.0850    1.1490   -0.6110 C   0  0  0  0  0  0  0  0  0  0  0  0
    8.0620    0.1990   -0.8240 C   0  0  0  0  0  0  0  0  0  0  0  0
    7.7440   -1.1310   -0.7220 C   0  0  0  0  0  0  0  0  0  0  0  0
    6.4250   -1.4880   -0.4020 C   0  0  0  0  0  0  0  0  0  0  0  0
    5.4380   -0.5650   -0.1860 C   0  0  0  0  0  0  0  0  0  0  0  0
    4.0990   -0.9130    0.1150 N   0  0  0  0  0  0  0  0  0  0  0  0
    3.5590   -2.1720    0.3950 C   0  0  0  0  0  0  0  0  0  0  0  0
    4.4180   -3.1480    0.3750 O   0  0  0  0  0  0  0  0  0  0  0  0
    2.1670   -2.5240    0.7050 C   0  0  0  0  0  0  0  0  0  0  0  0
    1.1640   -1.6150    0.7210 O   0  0  0  0  0  0  0  0  0  0  0  0
    0.6980   -0.8400   -0.2790 C   0  0  0  0  0  0  0  0  0  0  0  0
    1.2860   -0.9200   -1.4250 O   0  0  0  0  0  0  0  0  0  0  0  0
   -0.4310    0.0730   -0.1660 C   0  0  0  0  0  0  0  0  0  0  0  0
   -0.2250    1.4270    0.1120 C   0  0  0  0  0  0  0  0  0  0  0  0
    1.1600    1.9110    0.2230 C   0  0  0  0  0  0  0  0  0  0  0  0
    1.8530    2.0280   -1.4140 Cl  0  0  0  0  0  0  0  0  0  0  0  0
   -1.2230    2.2940    0.2710 N   0  0  0  0  0  0  0  0  0  0  0  0
   -2.4850    1.8720    0.1620 C   0  0  0  0  0  0  0  0  0  0  0  0
   -3.5360    2.7950    0.3310 N   0  0  0  0  0  0  0  0  0  0  0  0
   -4.1520    3.5950   -0.6910 C   0  0  0  0  0  0  0  0  0  0  0  0
   -4.7600    4.7880    0.0500 C   0  0  0  0  0  0  0  0  0  0  0  0
   -4.2690    4.6370    1.4840 C   0  0  0  0  0  0  0  0  0  0  0  0
   -4.1900    3.1070    1.5720 C   0  0  0  0  0  0  0  0  0  0  0  0
   -2.7160    0.5690   -0.1070 N   0  0  0  0  0  0  0  0  0  0  0  0
   -1.7200   -0.3550   -0.2750 C   0  0  0  0  0  0  0  0  0  0  0  0
   -2.1810   -1.7440   -0.4390 C   0  0  0  0  0  0  0  0  0  0  0  0
   -1.4430   -2.7750   -0.9430 C   0  0  0  0  0  0  0  0  0  0  0  0
   -1.9550   -4.0860   -0.9870 C   0  0  0  0  0  0  0  0  0  0  0  0
   -3.2200   -4.3680   -0.5230 C   0  0  0  0  0  0  0  0  0  0  0  0
   -4.0000   -3.3460   -0.0050 C   0  0  0  0  0  0  0  0  0  0  0  0
   -3.4570   -2.0850    0.0180 C   0  0  0  0  0  0  0  0  0  0  0  0
   -5.2920   -3.9110    0.4150 C   0  0  0  0  0  0  0  0  0  0  0  0
   -6.2840   -3.2190    0.7390 O   0  0  0  0  0  0  0  0  0  0  0  0
   -5.1590   -5.3710    0.3700 C   0  0  0  0  0  0  0  0  0  0  0  0
   -3.9620   -5.5820   -0.4570 N   0  0  0  0  0  0  0  0  0  0  0  0
  1  2  1  0
  2  3  1  0
  3  4  2  0
  3  8  1  0
  4  5  1  0
  5  6  2  0
  6  7  1  0
  7  8  2  0
  8  9  1  0
  9 10  1  0
 10 11  2  0
 10 12  1  0
 12 13  1  0
 13 14  1  0
 14 15  2  0
 14 16  1  0
 16 17  2  0
 16 28  1  0
 17 18  1  0
 17 20  1  0
 18 19  1  0
 20 21  2  0
 21 22  1  0
 21 27  1  0
 22 23  1  0
 22 26  1  0
 23 24  1  0
 24 25  1  0
 25 26  1  0
 27 28  2  0
 28 29  1  0
 29 30  2  0
 29 34  1  0
 30 31  1  0
 31 32  2  0
 32 33  1  0
 32 38  1  0
 33 34  2  0
 33 35  1  0
 35 36  2  0
 35 37  1  0
 37 38  1  0
M  CHG  2  20   1  27   1
M  END
