
     RDKit          3D

 38 42  0  0  0  0  0  0  0  0999 V2000
    7.9720    2.1470    0.3410 C   0  0  0  0  0  0  0  0  0  0  0  0
    8.5020    0.7320    0.6690 C   0  0  0  0  0  0  0  0  0  0  0  0
    7.3720   -0.2200    0.3090 C   0  0  0  0  0  0  0  0  0  0  0  0
    6.2520   -0.1420    1.0760 N   0  0  0  0  0  0  0  0  0  0  0  0
    5.1980   -0.9720    0.8320 C   0  0  0  0  0  0  0  0  0  0  0  0
    5.2660   -1.8660   -0.1650 C   0  0  0  0  0  0  0  0  0  0  0  0
    6.4290   -1.9180   -0.9370 C   0  0  0  0  0  0  0  0  0  0  0  0
    6.5260   -2.7610   -1.8930 O   0  0  0  0  0  0  0  0  0  0  0  0
    7.4280   -1.0770   -0.6490 O   0  0  0  0  0  0  0  0  0  0  0  0
    4.0990   -2.7280   -0.4740 C   0  0  0  0  0  0  0  0  0  0  0  0
    2.9320   -2.5820    0.3980 C   0  0  0  0  0  0  0  0  0  0  0  0
    2.8070   -1.5130    1.3630 N   0  0  2  0  0  0  0  0  0  0  0  0
    1.9290   -0.5090    0.9610 C   0  0  0  0  0  0  0  0  0  0  0  0
    0.7010   -0.5960    0.1930 C   0  0  0  0  0  0  0  0  0  0  0  0
   -0.5580   -1.0560    0.4230 N   0  0  0  0  0  0  0  0  0  0  0  0
   -1.4280   -0.5270   -0.4240 C   0  0  0  0  0  0  0  0  0  0  0  0
   -2.8950   -0.4700   -0.6080 C   0  0  2  0  0  0  0  0  0  0  0  0
   -3.1820    1.0360   -0.6410 C   0  0  0  0  0  0  0  0  0  0  0  0
   -3.9150    1.7160    0.4300 C   0  0  0  0  0  0  0  0  0  0  0  0
   -3.8860    0.7720    1.6920 C   0  0  0  0  0  0  0  0  0  0  0  0
   -4.6900   -0.3060    0.8790 N   0  0  0  0  0  0  0  0  0  0  0  0
   -5.9960    0.0700    0.8290 C   0  0  0  0  0  0  0  0  0  0  0  0
   -6.3140    1.0750    1.6160 O   0  0  0  0  0  0  0  0  0  0  0  0
   -7.1040   -0.4200    0.0360 C   0  0  0  0  0  0  0  0  0  0  0  0
   -7.2310   -1.4680   -0.6950 O   0  0  0  0  0  0  0  0  0  0  0  0
   -8.4420   -1.5080   -1.2920 C   0  0  0  0  0  0  0  0  0  0  0  0
   -9.1500   -0.3960   -0.9150 C   0  0  0  0  0  0  0  0  0  0  0  0
   -8.3280    0.3050   -0.0730 C   0  0  0  0  0  0  0  0  0  0  0  0
   -8.6130    1.5980    0.5300 C   0  0  0  0  0  0  0  0  0  0  0  0
   -3.7340   -1.2310    0.3810 C   0  0  0  0  0  0  0  0  0  0  0  0
   -0.6890    0.3290   -1.2650 N   0  0  0  0  0  0  0  0  0  0  0  0
    0.5290    0.2980   -0.9280 C   0  0  0  0  0  0  0  0  0  0  0  0
    1.7030    0.8330   -1.6070 C   0  0  0  0  0  0  0  0  0  0  0  0
    1.8790    1.8490   -2.3690 C   0  0  0  0  0  0  0  0  0  0  0  0
    0.9760    2.8260   -2.8390 C   0  0  0  0  0  0  0  0  0  0  0  0
    1.4680    3.7810   -3.5770 O   0  0  0  0  0  0  0  0  0  0  0  0
   -0.6910    2.9100   -2.5330 Cl  0  0  0  0  0  0  0  0  0  0  0  0
    4.0120   -0.7700    1.6630 C   0  0  0  0  0  0  0  0  0  0  0  0
  1  2  1  0
  2  3  1  0
  3  4  2  0
  3  9  1  0
  4  5  1  0
  5  6  2  0
  5 38  1  0
  6  7  1  0
  6 10  1  0
  7  8  2  0
  7  9  1  0
 10 11  1  0
 11 12  1  0
 12 13  1  6
 12 38  1  0
 13 14  1  0
 14 15  1  0
 14 32  2  0
 15 16  1  0
 17 16  1  1
 16 31  2  0
 17 18  1  0
 17 30  1  0
 18 19  1  0
 19 20  1  0
 20 21  1  0
 21 22  1  0
 21 30  1  0
 22 23  2  0
 22 24  1  0
 24 25  1  0
 24 28  2  0
 25 26  1  0
 26 27  2  0
 27 28  1  0
 28 29  1  0
 31 32  1  0
 32 33  1  0
 33 34  2  3
 34 35  1  0
 35 36  2  0
 35 37  1  0
M  CHG  2   4   1  12   1
M  END
