
     RDKit          3D

 21 21  0  0  0  0  0  0  0  0999 V2000
   -3.2880    1.1700   -0.9770 O   0  0  0  0  0  0  0  0  0  0  0  0
   -3.1700   -0.1020   -0.8310 C   0  0  0  0  0  0  0  0  0  0  0  0
   -4.4590   -0.9450   -0.9870 C   0  0  0  0  0  0  0  0  0  0  0  0
   -5.4300    0.0630   -1.1010 O   0  0  0  0  0  0  0  0  0  0  0  0
   -6.3680   -0.0690   -0.1180 O   0  0  0  0  0  0  0  0  0  0  0  0
   -1.9630   -0.7190   -0.5190 N   0  0  0  0  0  0  0  0  0  0  0  0
   -0.8260    0.1440   -0.1940 C   0  0  2  0  0  0  0  0  0  0  0  0
    0.4970   -0.3920   -0.6190 C   0  0  0  0  0  0  0  0  0  0  0  0
    1.5150    0.2040    0.1580 N   0  0  0  0  0  0  0  0  0  0  0  0
    2.9090   -0.1840    0.0480 C   0  0  0  0  0  0  0  0  0  0  0  0
    3.4270    0.1350   -1.3490 C   0  0  0  0  0  0  0  0  0  0  0  0
    4.7000    0.6210   -1.2810 O   0  0  0  0  0  0  0  0  0  0  0  0
    5.8170    0.0250   -0.7260 C   0  0  0  0  0  0  0  0  0  0  0  0
    5.5960   -1.1730   -0.2310 O   0  0  0  0  0  0  0  0  0  0  0  0
    7.0330    0.5940   -0.6550 O   0  0  0  0  0  0  0  0  0  0  0  0
    1.1920    1.4040    0.9970 C   0  0  0  0  0  0  0  0  0  0  0  0
    1.8850    2.3550    0.9460 O   0  0  0  0  0  0  0  0  0  0  0  0
    0.0340    1.1470    1.8040 O   0  0  0  0  0  0  0  0  0  0  0  0
   -0.7770    0.1010    1.3630 C   0  0  1  0  0  0  0  0  0  0  0  0
   -2.1120   -0.0070    2.0080 C   0  0  0  0  0  0  0  0  0  0  0  0
   -2.8610    1.1790    1.9940 O   0  0  0  0  0  0  0  0  0  0  0  0
  1  2  2  0
  2  3  1  0
  2  6  1  0
  3  4  1  0
  4  5  1  0
  7  6  1  6
  7  8  1  0
  7 19  1  0
  8  9  1  0
  9 10  1  0
  9 16  1  0
 10 11  1  0
 11 12  1  0
 12 13  1  0
 13 14  2  0
 13 15  1  0
 16 17  2  0
 16 18  1  0
 18 19  1  0
 19 20  1  1
 20 21  1  0
M  END
