
     RDKit          3D

 21 21  0  0  0  0  0  0  0  0999 V2000
   -4.7980    1.5960    1.3040 O   0  0  0  0  0  0  0  0  0  0  0  0
   -3.8450    1.0630    0.6790 C   0  0  0  0  0  0  0  0  0  0  0  0
   -2.5210    1.7250    0.7440 C   0  0  0  0  0  0  0  0  0  0  0  0
   -1.9050    1.6930    1.9840 O   0  0  0  0  0  0  0  0  0  0  0  0
   -1.6130    0.6660    2.8290 C   0  0  0  0  0  0  0  0  0  0  0  0
   -2.0660    0.6160    4.0350 O   0  0  0  0  0  0  0  0  0  0  0  0
   -0.8100   -0.3530    2.3920 O   0  0  0  0  0  0  0  0  0  0  0  0
    0.2760   -0.3360    1.6020 N   0  0  0  0  0  0  0  0  0  0  0  0
    0.4720   -0.9450    0.5090 C   0  0  0  0  0  0  0  0  0  0  0  0
    1.7390   -0.7690   -0.1690 N   0  0  0  0  0  0  0  0  0  0  0  0
    2.6530    0.2880    0.1980 C   0  0  2  0  0  0  0  0  0  0  0  0
    2.0050    1.6380    0.0010 C   0  0  0  0  0  0  0  0  0  0  0  0
    2.8590    2.6730    0.3460 O   0  0  0  0  0  0  0  0  0  0  0  0
    3.9000    0.1370   -0.6430 C   0  0  0  0  0  0  0  0  0  0  0  0
    3.5720    0.2350   -2.0020 O   0  0  0  0  0  0  0  0  0  0  0  0
    4.6290    0.1090   -2.7600 O   0  0  0  0  0  0  0  0  0  0  0  0
   -0.5010   -1.8470   -0.1630 C   0  0  0  0  0  0  0  0  0  0  0  0
   -1.3950   -1.1840   -0.9530 O   0  0  0  0  0  0  0  0  0  0  0  0
   -2.6290   -1.7620   -1.1040 C   0  0  0  0  0  0  0  0  0  0  0  0
   -3.4850   -1.3430    0.0790 C   0  0  0  0  0  0  0  0  0  0  0  0
   -4.0240   -0.0720   -0.0270 O   0  0  0  0  0  0  0  0  0  0  0  0
  1  2  2  0
  2  3  1  0
  2 21  1  0
  3  4  1  0
  4  5  1  0
  5  6  2  0
  5  7  1  0
  7  8  1  0
  8  9  2  0
  9 10  1  0
  9 17  1  0
 10 11  1  0
 11 12  1  6
 11 14  1  0
 12 13  1  0
 14 15  1  0
 15 16  1  0
 17 18  1  0
 18 19  1  0
 19 20  1  0
 20 21  1  0
M  END
