
     RDKit          3D

 21 21  0  0  0  0  0  0  0  0999 V2000
   -4.3900    0.9750    2.2030 C   0  0  0  0  0  0  0  0  0  0  0  0
   -3.6350   -0.0350    1.5810 O   0  0  0  0  0  0  0  0  0  0  0  0
   -2.5170    0.3210    0.7960 C   0  0  0  0  0  0  0  0  0  0  0  0
   -2.2730    1.5340    0.7080 O   0  0  0  0  0  0  0  0  0  0  0  0
   -1.7820   -0.7810    0.1810 C   0  0  0  0  0  0  0  0  0  0  0  0
   -0.5600   -0.3500   -0.6040 C   0  0  1  0  0  0  0  0  0  0  0  0
    0.4310    0.3420    0.2960 C   0  0  0  0  0  0  0  0  0  0  0  0
    1.6700    0.7750   -0.3500 C   0  0  0  0  0  0  0  0  0  0  0  0
    1.6860    1.4700   -1.3880 O   0  0  0  0  0  0  0  0  0  0  0  0
    2.9370    0.4150    0.1850 N   0  0  0  0  0  0  0  0  0  0  0  0
    2.9350   -0.4070    1.4010 C   0  0  0  0  0  0  0  0  0  0  0  0
    4.1610    0.7930   -0.3900 C   0  0  0  0  0  0  0  0  0  0  0  0
    5.2420    0.4240    0.1210 O   0  0  0  0  0  0  0  0  0  0  0  0
    4.2170    1.5740   -1.5250 O   0  0  0  0  0  0  0  0  0  0  0  0
    0.0340   -1.5850   -1.1290 N   0  0  0  0  0  0  0  0  0  0  0  0
   -0.6300   -2.2440   -2.1850 C   0  0  0  0  0  0  0  0  0  0  0  0
   -0.4320   -3.5010   -2.3330 O   0  0  0  0  0  0  0  0  0  0  0  0
   -1.4800   -1.5570   -3.0470 O   0  0  0  0  0  0  0  0  0  0  0  0
   -1.6260   -0.2250   -2.8070 O   0  0  0  0  0  0  0  0  0  0  0  0
   -0.9850    0.4460   -1.7750 C   0  0  0  0  0  0  0  0  0  0  0  0
   -0.8030    1.6770   -1.8850 O   0  0  0  0  0  0  0  0  0  0  0  0
  1  2  1  0
  2  3  1  0
  3  4  2  0
  3  5  1  0
  6  5  1  1
  6  7  1  0
  6 15  1  0
  6 20  1  0
  7  8  1  0
  8  9  2  0
  8 10  1  0
 10 11  1  0
 10 12  1  0
 12 13  2  0
 12 14  1  0
 15 16  1  0
 16 17  2  0
 16 18  1  0
 18 19  1  0
 19 20  1  0
 20 21  2  0
M  END
