
     RDKit          3D

 21 22  0  0  0  0  0  0  0  0999 V2000
   -5.7230    0.4250    1.4710 O   0  0  0  0  0  0  0  0  0  0  0  0
   -5.4560    0.3560    0.3150 C   0  0  0  0  0  0  0  0  0  0  0  0
   -6.3540    0.6710   -0.6590 O   0  0  0  0  0  0  0  0  0  0  0  0
   -4.1030   -0.0390   -0.0720 N   0  0  0  0  0  0  0  0  0  0  0  0
   -3.0620   -0.1800    0.9240 C   0  0  0  0  0  0  0  0  0  0  0  0
   -3.4580   -0.4040    2.0730 O   0  0  0  0  0  0  0  0  0  0  0  0
   -1.7070    0.0050    0.5140 C   0  0  2  0  0  0  0  0  0  0  0  0
   -1.1490   -1.0160   -0.4340 C   0  0  0  0  0  0  0  0  0  0  0  0
    0.2320   -0.7080   -0.6810 N   0  0  0  0  0  0  0  0  0  0  0  0
    1.0790   -0.9050   -1.7880 C   0  0  0  0  0  0  0  0  0  0  0  0
    0.9980   -1.7570   -2.7200 O   0  0  0  0  0  0  0  0  0  0  0  0
    2.1160    0.0530   -1.7730 O   0  0  0  0  0  0  0  0  0  0  0  0
    1.6910    1.0370   -0.8170 C   0  0  0  0  0  0  0  0  0  0  0  0
    1.0750    0.0680    0.2430 C   0  0  2  0  0  0  0  0  0  0  0  0
    2.2710   -0.7370    0.6660 C   0  0  0  0  0  0  0  0  0  0  0  0
    3.1900    0.2160    1.1930 O   0  0  0  0  0  0  0  0  0  0  0  0
    4.6930    0.0080    0.3320 P   0  0  0  0  0  0  0  0  0  0  0  0
    5.7340    1.3070    0.7580 O   0  0  0  0  0  0  0  0  0  0  0  0
    5.3440   -1.4920    0.2030 O   0  0  0  0  0  0  0  0  0  0  0  0
    0.2950    0.7520    1.2660 C   0  0  0  0  0  0  0  0  0  0  0  0
   -0.8270   -0.0170    1.6320 O   0  0  0  0  0  0  0  0  0  0  0  0
  1  2  2  0
  2  3  1  0
  2  4  1  0
  4  5  1  0
  5  6  2  0
  7  5  1  1
  7  8  1  0
  7 21  1  0
  8  9  1  0
  9 10  1  0
  9 14  1  0
 10 11  2  0
 10 12  1  0
 12 13  1  0
 13 14  1  0
 14 15  1  1
 14 20  1  0
 15 16  1  0
 16 17  1  0
 17 18  1  0
 17 19  1  0
 20 21  1  0
M  END
