
     RDKit          3D

 22 22  0  0  0  0  0  0  0  0999 V2000
   -5.6360    0.0910   -1.9350 O   0  0  0  0  0  0  0  0  0  0  0  0
   -5.6440    0.9360   -1.0250 C   0  0  0  0  0  0  0  0  0  0  0  0
   -6.4290    2.0820   -1.0640 O   0  0  0  0  0  0  0  0  0  0  0  0
   -4.8510    0.7470    0.0760 O   0  0  0  0  0  0  0  0  0  0  0  0
   -3.9890   -0.3770    0.2650 C   0  0  0  0  0  0  0  0  0  0  0  0
   -2.9830   -0.4920   -0.7700 C   0  0  0  0  0  0  0  0  0  0  0  0
   -1.6940   -0.4830   -0.7300 C   0  0  0  0  0  0  0  0  0  0  0  0
   -1.0470   -0.6180   -1.9400 F   0  0  0  0  0  0  0  0  0  0  0  0
   -0.8770   -0.3620    0.4460 C   0  0  0  0  0  0  0  0  0  0  0  0
   -1.4620   -0.2580    1.6000 O   0  0  0  0  0  0  0  0  0  0  0  0
    0.5390   -0.3460    0.4740 N   0  0  0  0  0  0  0  0  0  0  0  0
    1.3260   -0.2450    1.7340 C   0  0  0  0  0  0  0  0  0  0  0  0
    2.5590   -1.0110    1.4050 C   0  0  0  0  0  0  0  0  0  0  0  0
    3.2720   -1.6740    2.1910 O   0  0  0  0  0  0  0  0  0  0  0  0
    2.7470   -0.8230   -0.0020 N   0  0  0  0  0  0  0  0  0  0  0  0
    3.9390   -0.9970   -0.7710 C   0  0  0  0  0  0  0  0  0  0  0  0
    4.7570    0.2260   -0.8690 C   0  0  0  0  0  0  0  0  0  0  0  0
    5.8280    0.1530   -1.5330 O   0  0  0  0  0  0  0  0  0  0  0  0
    4.4470    1.4350   -0.2960 O   0  0  0  0  0  0  0  0  0  0  0  0
    5.2860    2.4900   -0.4610 O   0  0  0  0  0  0  0  0  0  0  0  0
    1.4810   -0.4060   -0.5750 C   0  0  0  0  0  0  0  0  0  0  0  0
    1.3130   -0.1560   -1.7920 O   0  0  0  0  0  0  0  0  0  0  0  0
  1  2  2  0
  2  3  1  0
  2  4  1  0
  4  5  1  0
  5  6  1  0
  6  7  2  3
  7  8  1  0
  7  9  1  0
  9 10  2  0
  9 11  1  0
 11 12  1  0
 11 21  1  0
 12 13  1  0
 13 14  2  0
 13 15  1  0
 15 16  1  0
 15 21  1  0
 16 17  1  0
 17 18  2  0
 17 19  1  0
 19 20  1  0
 21 22  2  0
M  END
