
     RDKit          3D

 21 21  0  0  0  0  0  0  0  0999 V2000
    0.8730    2.6230    1.0630 C   0  0  0  0  0  0  0  0  0  0  0  0
    1.2670    1.6260   -0.0310 C   0  0  2  0  0  0  0  0  0  0  0  0
    0.3470    1.7120   -1.0560 O   0  0  0  0  0  0  0  0  0  0  0  0
   -0.7720    1.0800   -0.8310 O   0  0  0  0  0  0  0  0  0  0  0  0
   -1.8540    1.8970   -0.5860 C   0  0  0  0  0  0  0  0  0  0  0  0
   -2.8500    1.1010    0.2320 C   0  0  0  0  0  0  0  0  0  0  0  0
   -3.6640    0.2270   -0.5690 N   0  0  0  0  0  0  0  0  0  0  0  0
   -3.9640   -1.1330   -0.2570 C   0  0  0  0  0  0  0  0  0  0  0  0
   -5.1530   -1.5890   -0.4330 O   0  0  0  0  0  0  0  0  0  0  0  0
   -3.0110   -2.0580    0.2510 N   0  0  0  0  0  0  0  0  0  0  0  0
   -1.6600   -2.2190   -0.2380 C   0  0  0  0  0  0  0  0  0  0  0  0
   -0.6720   -1.9950    0.8800 C   0  0  0  0  0  0  0  0  0  0  0  0
    0.5370   -2.6380    0.5560 O   0  0  0  0  0  0  0  0  0  0  0  0
    1.6990   -1.9330    0.3030 C   0  0  0  0  0  0  0  0  0  0  0  0
    2.8130   -2.4430    0.6700 O   0  0  0  0  0  0  0  0  0  0  0  0
    1.6100   -0.6240   -0.3800 C   0  0  2  0  0  0  0  0  0  0  0  0
    2.9560   -0.4030   -1.0660 C   0  0  0  0  0  0  0  0  0  0  0  0
    3.9170   -0.4250   -0.0750 O   0  0  0  0  0  0  0  0  0  0  0  0
    5.1330   -0.2460   -0.5280 O   0  0  0  0  0  0  0  0  0  0  0  0
    5.9090    0.2870    0.3910 O   0  0  0  0  0  0  0  0  0  0  0  0
    1.3870    0.3790    0.5380 O   0  0  0  0  0  0  0  0  0  0  0  0
  2  1  1  1
  2  3  1  0
  2 21  1  0
  3  4  1  0
  4  5  1  0
  5  6  1  0
  6  7  1  0
  7  8  1  0
  8  9  2  0
  8 10  1  0
 10 11  1  0
 11 12  1  0
 12 13  1  0
 13 14  1  0
 14 15  2  0
 14 16  1  0
 16 17  1  1
 16 21  1  0
 17 18  1  0
 18 19  1  0
 19 20  1  0
M  END
