
     RDKit          3D

 15 14  0  0  0  0  0  0  0  0999 V2000
   -3.1600    1.3440   -1.5140 O   0  0  0  0  0  0  0  0  0  0  0  0
   -3.6820    1.3520   -0.3870 C   0  0  0  0  0  0  0  0  0  0  0  0
   -4.8260    2.1240   -0.1130 O   0  0  0  0  0  0  0  0  0  0  0  0
   -3.1050    0.5750    0.6080 O   0  0  0  0  0  0  0  0  0  0  0  0
   -1.9540   -0.2040    0.3380 C   0  0  2  0  0  0  0  0  0  0  0  0
   -2.3460   -1.6560    0.5420 C   0  0  0  0  0  0  0  0  0  0  0  0
   -3.3800   -1.9400   -0.3490 O   0  0  0  0  0  0  0  0  0  0  0  0
   -0.9750    0.1910    1.2510 O   0  0  0  0  0  0  0  0  0  0  0  0
    0.1530    0.5890    0.6670 N   0  0  0  0  0  0  0  0  0  0  0  0
    1.2280   -0.3700    0.7930 C   0  0  0  0  0  0  0  0  0  0  0  0
    2.4960    0.0730    0.1390 C   0  0  0  0  0  0  0  0  0  0  0  0
    2.3850    0.3020   -1.2150 O   0  0  0  0  0  0  0  0  0  0  0  0
    3.9630    0.8040   -1.7710 P   0  0  0  0  0  0  0  0  0  0  0  0
    5.1040   -0.4980   -1.4800 O   0  0  0  0  0  0  0  0  0  0  0  0
    4.5370    2.1730   -0.8520 O   0  0  0  0  0  0  0  0  0  0  0  0
  1  2  2  0
  2  3  1  0
  2  4  1  0
  4  5  1  0
  5  6  1  1
  5  8  1  0
  6  7  1  0
  8  9  1  0
  9 10  1  0
 10 11  1  0
 11 12  1  0
 12 13  1  0
 13 14  1  0
 13 15  1  0
M  END
