
     RDKit          3D

 15 15  0  0  0  0  0  0  0  0999 V2000
   -2.5190    2.9240    0.6260 N   0  0  0  0  0  0  0  0  0  0  0  0
   -2.0670    1.7150    0.1680 O   0  0  0  0  0  0  0  0  0  0  0  0
   -0.9020    1.1060    0.5960 C   0  0  0  0  0  0  0  0  0  0  0  0
   -0.2140    1.7020    1.4630 O   0  0  0  0  0  0  0  0  0  0  0  0
   -0.5390   -0.2020    0.0110 C   0  0  2  0  0  0  0  0  0  0  0  0
    0.8390   -0.0450   -0.6440 C   0  0  0  0  0  0  0  0  0  0  0  0
    1.7060    0.3320    0.3910 O   0  0  0  0  0  0  0  0  0  0  0  0
    3.3210    0.5600   -0.1450 P   0  0  0  0  0  0  0  0  0  0  0  0
    4.4490   -0.4680    0.6670 O   0  0  0  0  0  0  0  0  0  0  0  0
    3.7810    2.2250    0.1260 O   0  0  0  0  0  0  0  0  0  0  0  0
   -1.4940   -0.5740   -0.9000 O   0  0  0  0  0  0  0  0  0  0  0  0
   -2.1760   -1.6820   -0.3530 C   0  0  0  0  0  0  0  0  0  0  0  0
   -1.0040   -2.3280    0.3910 C   0  0  1  0  0  0  0  0  0  0  0  0
   -0.1290   -2.8470   -0.5290 O   0  0  0  0  0  0  0  0  0  0  0  0
   -0.4460   -1.1970    0.9810 O   0  0  0  0  0  0  0  0  0  0  0  0
  1  2  1  0
  2  3  1  0
  3  4  2  0
  3  5  1  0
  5  6  1  6
  5 11  1  0
  5 15  1  0
  6  7  1  0
  7  8  1  0
  8  9  1  0
  8 10  1  0
 11 12  1  0
 12 13  1  0
 13 14  1  6
 13 15  1  0
M  END
