
     RDKit          3D

 15 14  0  0  0  0  0  0  0  0999 V2000
   -0.2370   -1.3390    0.8960 O   0  0  0  0  0  0  0  0  0  0  0  0
   -0.9130   -0.3300    1.1840 C   0  0  0  0  0  0  0  0  0  0  0  0
   -2.3710   -0.2200    0.9470 C   0  0  0  0  0  0  0  0  0  0  0  0
   -2.7250    0.0440   -0.4820 C   0  0  0  0  0  0  0  0  0  0  0  0
   -4.5600    0.1560   -0.6410 P   0  0  0  0  0  0  0  0  0  0  0  0
   -5.1640    1.4880    0.2620 O   0  0  0  0  0  0  0  0  0  0  0  0
   -5.3290   -1.3170   -0.2160 O   0  0  0  0  0  0  0  0  0  0  0  0
   -0.2670    0.7510    1.7570 O   0  0  0  0  0  0  0  0  0  0  0  0
    1.0170    0.8260    2.0370 O   0  0  0  0  0  0  0  0  0  0  0  0
    1.7810   -0.0720    1.4040 O   0  0  0  0  0  0  0  0  0  0  0  0
    2.8690    0.3780    0.6370 C   0  0  0  0  0  0  0  0  0  0  0  0
    3.1280    1.6170    0.5440 O   0  0  0  0  0  0  0  0  0  0  0  0
    3.7330   -0.5010   -0.0680 N   0  0  0  0  0  0  0  0  0  0  0  0
    4.8520    0.0410   -0.8490 C   0  0  0  0  0  0  0  0  0  0  0  0
    5.5470   -1.0020   -1.4450 O   0  0  0  0  0  0  0  0  0  0  0  0
  1  2  2  0
  2  3  1  0
  2  8  1  0
  3  4  1  0
  4  5  1  0
  5  6  1  0
  5  7  1  0
  8  9  1  0
  9 10  1  0
 10 11  1  0
 11 12  2  0
 11 13  1  0
 13 14  1  0
 14 15  1  0
M  END
