
     RDKit          3D

 15 15  0  0  0  0  0  0  0  0999 V2000
   -2.5070   -3.3020   -0.0650 O   0  0  0  0  0  0  0  0  0  0  0  0
   -2.0670   -2.2000   -0.4680 C   0  0  0  0  0  0  0  0  0  0  0  0
   -2.5790   -1.4020   -1.4840 O   0  0  0  0  0  0  0  0  0  0  0  0
   -2.1840   -0.0910   -1.2630 N   0  0  0  0  0  0  0  0  0  0  0  0
   -1.1560   -0.1560   -0.2560 C   0  0  1  0  0  0  0  0  0  0  0  0
    0.0940    0.4780   -0.7940 C   0  0  1  0  0  0  0  0  0  0  0  0
   -0.1850    1.8190   -1.1150 O   0  0  0  0  0  0  0  0  0  0  0  0
    1.1280    0.4900    0.1140 O   0  0  0  0  0  0  0  0  0  0  0  0
    2.2160   -0.1750   -0.4280 C   0  0  0  0  0  0  0  0  0  0  0  0
    3.3890   -0.1940    0.5280 C   0  0  0  0  0  0  0  0  0  0  0  0
    3.0240   -0.8330    1.6910 O   0  0  0  0  0  0  0  0  0  0  0  0
   -1.7560    0.7220    1.2600 P   0  0  0  0  0  0  0  0  0  0  0  0
   -3.2940    0.0800    1.7390 O   0  0  0  0  0  0  0  0  0  0  0  0
   -1.9640    2.4070    0.9300 O   0  0  0  0  0  0  0  0  0  0  0  0
   -0.9480   -1.5200    0.0220 O   0  0  0  0  0  0  0  0  0  0  0  0
  1  2  2  0
  2  3  1  0
  2 15  1  0
  3  4  1  0
  4  5  1  0
  5  6  1  0
  5 12  1  1
  5 15  1  0
  6  7  1  1
  6  8  1  0
  8  9  1  0
  9 10  1  0
 10 11  1  0
 12 13  1  0
 12 14  1  0
M  END
