
     RDKit          3D

 15 14  0  0  0  0  0  0  0  0999 V2000
   -3.3510    2.2400    0.8220 C   0  0  0  0  0  0  0  0  0  0  0  0
   -2.6870    1.0400    0.1890 C   0  0  2  0  0  0  0  0  0  0  0  0
   -3.6040    0.0710   -0.2090 O   0  0  0  0  0  0  0  0  0  0  0  0
   -1.7240    0.4700    0.9820 O   0  0  0  0  0  0  0  0  0  0  0  0
   -0.5370    0.5000    0.4880 O   0  0  0  0  0  0  0  0  0  0  0  0
   -0.0280   -0.7400    0.1240 C   0  0  2  0  0  0  0  0  0  0  0  0
    1.2130   -0.9160    1.0190 C   0  0  0  0  0  0  0  0  0  0  0  0
    2.0030    0.1930    0.7070 O   0  0  0  0  0  0  0  0  0  0  0  0
    3.4770    0.2130    1.6040 P   0  0  0  0  0  0  0  0  0  0  0  0
    4.6230   -0.7840    0.7850 O   0  0  0  0  0  0  0  0  0  0  0  0
    4.0080    1.8640    1.6930 O   0  0  0  0  0  0  0  0  0  0  0  0
    0.5020   -0.7420   -1.2260 N   0  0  0  0  0  0  0  0  0  0  0  0
    0.1820   -1.6930   -2.2040 C   0  0  0  0  0  0  0  0  0  0  0  0
   -0.6040   -2.6110   -1.9350 O   0  0  0  0  0  0  0  0  0  0  0  0
    0.7530   -1.5950   -3.4720 O   0  0  0  0  0  0  0  0  0  0  0  0
  2  1  1  1
  2  3  1  0
  2  4  1  0
  4  5  1  0
  5  6  1  0
  6  7  1  1
  6 12  1  0
  7  8  1  0
  8  9  1  0
  9 10  1  0
  9 11  1  0
 12 13  1  0
 13 14  2  0
 13 15  1  0
M  END
