
     RDKit          3D

 15 14  0  0  0  0  0  0  0  0999 V2000
    4.6590   -0.8860   -0.7140 O   0  0  0  0  0  0  0  0  0  0  0  0
    4.1040    0.0430   -0.0510 C   0  0  0  0  0  0  0  0  0  0  0  0
    4.7720    1.2340    0.0070 O   0  0  0  0  0  0  0  0  0  0  0  0
    2.7970   -0.1690    0.6190 C   0  0  1  0  0  0  0  0  0  0  0  0
    2.4110    0.9910    1.2460 O   0  0  0  0  0  0  0  0  0  0  0  0
    1.7670   -0.6380   -0.3690 C   0  0  0  0  0  0  0  0  0  0  0  0
    1.9080   -1.6610   -1.0570 O   0  0  0  0  0  0  0  0  0  0  0  0
    0.5970    0.1570   -0.4900 N   0  0  0  0  0  0  0  0  0  0  0  0
   -0.4170   -0.1380   -1.3350 O   0  0  0  0  0  0  0  0  0  0  0  0
   -1.0720   -1.2470   -0.8380 C   0  0  0  0  0  0  0  0  0  0  0  0
   -1.5850   -1.0300    0.4220 O   0  0  0  0  0  0  0  0  0  0  0  0
   -2.4900   -0.0080    0.5130 C   0  0  0  0  0  0  0  0  0  0  0  0
   -3.9910   -0.2580   -0.5360 P   0  0  0  0  0  0  0  0  0  0  0  0
   -3.6290   -0.1960   -2.2290 O   0  0  0  0  0  0  0  0  0  0  0  0
   -5.1590    0.9490   -0.1080 O   0  0  0  0  0  0  0  0  0  0  0  0
  1  2  2  0
  2  3  1  0
  2  4  1  0
  4  5  1  6
  4  6  1  0
  6  7  2  0
  6  8  1  0
  8  9  1  0
  9 10  1  0
 10 11  1  0
 11 12  1  0
 12 13  1  0
 13 14  1  0
 13 15  1  0
M  END
