
     RDKit          3D

 41 45  0  0  0  0  0  0  0  0999 V2000
  -10.2170   -0.0060    1.6020 C   0  0  0  0  0  0  0  0  0  0  0  0
  -10.6400    0.6830    0.3100 C   0  0  0  0  0  0  0  0  0  0  0  0
   -9.7530    0.1100   -0.8010 C   0  0  1  0  0  0  0  0  0  0  0  0
  -10.1840    0.7440   -2.1060 C   0  0  0  0  0  0  0  0  0  0  0  0
   -8.3820    0.4630   -0.6120 N   0  0  0  0  0  0  0  0  0  0  0  0
   -7.3790   -0.3290   -0.0180 C   0  0  0  0  0  0  0  0  0  0  0  0
   -7.6710   -1.4530    0.4280 O   0  0  0  0  0  0  0  0  0  0  0  0
   -5.9890    0.1470    0.0880 C   0  0  0  0  0  0  0  0  0  0  0  0
   -5.7160    1.1770   -0.5750 O   0  0  0  0  0  0  0  0  0  0  0  0
   -5.0440   -0.5250    0.8890 N   0  0  0  0  0  0  0  0  0  0  0  0
   -3.6810   -0.1580    0.9980 C   0  0  0  0  0  0  0  0  0  0  0  0
   -3.0340    0.5250    0.0250 C   0  0  0  0  0  0  0  0  0  0  0  0
   -1.6540    0.8090    0.0860 C   0  0  0  0  0  0  0  0  0  0  0  0
   -0.9010    0.4100    1.1260 C   0  0  0  0  0  0  0  0  0  0  0  0
    0.5680    0.4950    1.2460 C   0  0  0  0  0  0  0  0  0  0  0  0
    0.9810    0.5660    2.5290 C   0  0  0  0  0  0  0  0  0  0  0  0
    2.4120    0.6210    2.8090 C   0  0  0  0  0  0  0  0  0  0  0  0
    3.1910    0.5630    1.8430 N   0  0  0  0  0  0  0  0  0  0  0  0
    2.9120    0.4320    0.4770 C   0  0  1  0  0  0  0  0  0  0  0  0
    3.3820   -0.9220    0.0700 N   0  0  0  0  0  0  0  0  0  0  0  0
    4.7190   -1.1360    0.3620 N   0  0  0  0  0  0  0  0  0  0  0  0
    5.7210   -0.6810   -0.5210 C   0  0  0  0  0  0  0  0  0  0  0  0
    5.3680   -0.0680   -1.5650 O   0  0  0  0  0  0  0  0  0  0  0  0
    7.1630   -0.8880   -0.2890 C   0  0  0  0  0  0  0  0  0  0  0  0
    7.6480   -1.6750    0.7320 C   0  0  0  0  0  0  0  0  0  0  0  0
    9.0270   -1.8550    0.8930 C   0  0  0  0  0  0  0  0  0  0  0  0
    9.9190   -1.2540    0.0400 C   0  0  0  0  0  0  0  0  0  0  0  0
    9.4570   -0.4570   -0.9950 C   0  0  0  0  0  0  0  0  0  0  0  0
    8.1020   -0.3050   -1.1200 C   0  0  0  0  0  0  0  0  0  0  0  0
   10.6380    0.0560   -1.7740 C   0  0  0  0  0  0  0  0  0  0  0  0
   11.7760   -0.2550   -0.8260 C   0  0  0  0  0  0  0  0  0  0  0  0
   11.3020   -1.2960    0.0140 O   0  0  0  0  0  0  0  0  0  0  0  0
    1.4640    0.5700    0.0880 C   0  0  2  0  0  0  0  0  0  0  0  0
    1.2680    1.9280   -0.6060 C   0  0  0  0  0  0  0  0  0  0  0  0
    1.1130    1.8360   -2.0880 C   0  0  0  0  0  0  0  0  0  0  0  0
    2.1400    0.9000   -2.6710 C   0  0  0  0  0  0  0  0  0  0  0  0
    1.9010   -0.4990   -2.1550 C   0  0  0  0  0  0  0  0  0  0  0  0
    1.0840   -0.5290   -0.9110 C   0  0  0  0  0  0  0  0  0  0  0  0
   -1.5740   -0.3000    2.1420 C   0  0  0  0  0  0  0  0  0  0  0  0
   -2.9270   -0.5710    2.0690 C   0  0  0  0  0  0  0  0  0  0  0  0
   -3.5570   -1.3210    3.1920 C   0  0  0  0  0  0  0  0  0  0  0  0
  1  2  1  0
  2  3  1  0
  3  4  1  6
  3  5  1  0
  5  6  1  0
  6  7  2  0
  6  8  1  0
  8  9  2  0
  8 10  1  0
 10 11  1  0
 11 12  2  0
 11 40  1  0
 12 13  1  0
 13 14  2  0
 14 15  1  0
 14 39  1  0
 15 16  2  0
 15 33  1  0
 16 17  1  0
 17 18  2  0
 18 19  1  0
 19 20  1  1
 19 33  1  0
 20 21  1  0
 21 22  1  0
 22 23  2  0
 22 24  1  0
 24 25  2  0
 24 29  1  0
 25 26  1  0
 26 27  2  0
 27 28  1  0
 27 32  1  0
 28 29  2  0
 28 30  1  0
 30 31  1  0
 31 32  1  0
 33 34  1  6
 33 38  1  0
 34 35  1  0
 35 36  1  0
 36 37  1  0
 37 38  1  0
 39 40  2  0
 40 41  1  0
M  END
