
     RDKit          3D

 41 45  0  0  0  0  0  0  0  0999 V2000
   -8.6340   -1.7660    1.7990 C   0  0  0  0  0  0  0  0  0  0  0  0
   -8.1000   -2.0960    0.4040 C   0  0  1  0  0  0  0  0  0  0  0  0
   -9.1720   -2.0450   -0.6340 C   0  0  1  0  0  0  0  0  0  0  0  0
  -10.1110   -3.2120   -0.5560 C   0  0  0  0  0  0  0  0  0  0  0  0
   -9.9000   -0.8820   -0.3630 O   0  0  0  0  0  0  0  0  0  0  0  0
   -9.1700    0.2340   -0.6670 C   0  0  0  0  0  0  0  0  0  0  0  0
   -7.7480    0.2800   -0.2100 C   0  0  0  0  0  0  0  0  0  0  0  0
   -7.1610   -0.9630    0.1160 N   0  0  0  0  0  0  0  0  0  0  0  0
   -5.7970   -1.2360    0.2380 C   0  0  0  0  0  0  0  0  0  0  0  0
   -5.5660   -2.5070    0.4900 O   0  0  0  0  0  0  0  0  0  0  0  0
   -4.6720   -0.3800    0.1350 C   0  0  0  0  0  0  0  0  0  0  0  0
   -4.6990    0.9690    0.0580 C   0  0  0  0  0  0  0  0  0  0  0  0
   -3.5090    1.7220   -0.0900 C   0  0  0  0  0  0  0  0  0  0  0  0
   -2.2990    1.1400   -0.1590 C   0  0  0  0  0  0  0  0  0  0  0  0
   -1.0080    1.8610   -0.3200 C   0  0  0  0  0  0  0  0  0  0  0  0
   -0.9740    3.1740   -0.4100 C   0  0  0  0  0  0  0  0  0  0  0  0
    0.2610    3.9220   -0.5650 C   0  0  0  0  0  0  0  0  0  0  0  0
    0.2550    5.2990   -0.6630 C   0  0  0  0  0  0  0  0  0  0  0  0
    1.4570    5.9600   -0.8110 C   0  0  0  0  0  0  0  0  0  0  0  0
    2.6640    5.2840   -0.8640 C   0  0  0  0  0  0  0  0  0  0  0  0
    2.6670    3.9120   -0.7660 C   0  0  0  0  0  0  0  0  0  0  0  0
    1.4440    3.2380   -0.6140 C   0  0  0  0  0  0  0  0  0  0  0  0
    1.4200    1.8280   -0.5120 N   0  0  0  0  0  0  0  0  0  0  0  0
    2.6700    1.1550   -0.5280 N   0  0  0  0  0  0  0  0  0  0  0  0
    3.5670    1.1250    0.5720 C   0  0  0  0  0  0  0  0  0  0  0  0
    3.2710    1.7390    1.6130 O   0  0  0  0  0  0  0  0  0  0  0  0
    4.7860    0.4080    0.5040 N   0  0  0  0  0  0  0  0  0  0  0  0
    5.7530    0.3230    1.5660 C   0  0  0  0  0  0  0  0  0  0  0  0
    6.8480   -0.6260    1.1970 C   0  0  0  0  0  0  0  0  0  0  0  0
    7.4820   -0.4680   -0.0100 C   0  0  0  0  0  0  0  0  0  0  0  0
    8.4780   -1.3300   -0.3900 C   0  0  0  0  0  0  0  0  0  0  0  0
    8.8790   -2.3850    0.4240 C   0  0  0  0  0  0  0  0  0  0  0  0
    9.9500   -3.3160    0.0040 C   0  0  0  0  0  0  0  0  0  0  0  0
   11.2500   -2.7510    0.3820 C   0  0  0  0  0  0  0  0  0  0  0  0
   12.4450   -3.4310    0.0660 N   0  0  0  0  0  0  0  0  0  0  0  0
   11.3080   -1.6610    0.9870 O   0  0  0  0  0  0  0  0  0  0  0  0
    8.2270   -2.5150    1.6230 C   0  0  0  0  0  0  0  0  0  0  0  0
    7.2090   -1.6470    2.0270 C   0  0  0  0  0  0  0  0  0  0  0  0
    0.2190    1.0860   -0.4050 C   0  0  0  0  0  0  0  0  0  0  0  0
   -2.2560   -0.2370   -0.0800 C   0  0  0  0  0  0  0  0  0  0  0  0
   -3.4090   -0.9790    0.0630 C   0  0  0  0  0  0  0  0  0  0  0  0
  2  1  1  1
  2  3  1  0
  2  8  1  0
  3  4  1  1
  3  5  1  0
  5  6  1  0
  6  7  1  0
  7  8  1  0
  8  9  1  0
  9 10  2  0
  9 11  1  0
 11 12  2  0
 11 41  1  0
 12 13  1  0
 13 14  2  0
 14 15  1  0
 14 40  1  0
 15 16  2  0
 15 39  1  0
 16 17  1  0
 17 18  2  0
 17 22  1  0
 18 19  1  0
 19 20  2  0
 20 21  1  0
 21 22  2  0
 22 23  1  0
 23 24  1  0
 23 39  1  0
 24 25  1  0
 25 26  2  0
 25 27  1  0
 27 28  1  0
 28 29  1  0
 29 30  2  0
 29 38  1  0
 30 31  1  0
 31 32  2  0
 32 33  1  0
 32 37  1  0
 33 34  1  0
 34 35  1  0
 34 36  2  0
 37 38  2  0
 40 41  2  0
M  END
