
     RDKit          3D

 41 43  0  0  0  0  0  0  0  0999 V2000
   -8.7800    1.7230   -1.9560 C   0  0  0  0  0  0  0  0  0  0  0  0
   -7.9870    1.4770   -0.6970 C   0  0  0  0  0  0  0  0  0  0  0  0
   -7.5060    0.0320   -0.6470 C   0  0  0  0  0  0  0  0  0  0  0  0
   -6.7370   -0.2870    0.5010 N   0  0  0  0  0  0  0  0  0  0  0  0
   -7.4880   -0.7860    1.7040 C   0  0  0  0  0  0  0  0  0  0  0  0
   -7.5450   -2.2650    1.7570 C   0  0  0  0  0  0  0  0  0  0  0  0
   -8.2160   -2.9180    0.5880 C   0  0  0  0  0  0  0  0  0  0  0  0
   -5.3570   -0.1840    0.6990 C   0  0  0  0  0  0  0  0  0  0  0  0
   -4.9300   -0.5820    1.8740 O   0  0  0  0  0  0  0  0  0  0  0  0
   -4.3040    0.2870   -0.1740 C   0  0  0  0  0  0  0  0  0  0  0  0
   -4.4940    0.8690   -1.3990 C   0  0  0  0  0  0  0  0  0  0  0  0
   -3.4000    1.2500   -2.1710 C   0  0  0  0  0  0  0  0  0  0  0  0
   -2.1250    1.0470   -1.7170 C   0  0  0  0  0  0  0  0  0  0  0  0
   -1.8780    0.4670   -0.4950 C   0  0  0  0  0  0  0  0  0  0  0  0
   -0.5230    0.2260    0.0160 C   0  0  0  0  0  0  0  0  0  0  0  0
   -0.3420   -0.0910    1.2360 O   0  0  0  0  0  0  0  0  0  0  0  0
    0.6190    0.3330   -0.8110 N   0  0  0  0  0  0  0  0  0  0  0  0
    1.9870    0.0870   -0.2900 C   0  0  1  0  0  0  0  0  0  0  0  0
    2.4450   -1.2400   -0.9270 C   0  0  0  0  0  0  0  0  0  0  0  0
    1.5500   -2.3420   -0.5510 C   0  0  0  0  0  0  0  0  0  0  0  0
    1.7220   -3.1460    0.5600 C   0  0  0  0  0  0  0  0  0  0  0  0
    0.8720   -4.1690    0.8990 C   0  0  0  0  0  0  0  0  0  0  0  0
   -0.2210   -4.4310    0.1050 C   0  0  0  0  0  0  0  0  0  0  0  0
   -0.4220   -3.6470   -1.0140 C   0  0  0  0  0  0  0  0  0  0  0  0
    0.4480   -2.6260   -1.3300 C   0  0  0  0  0  0  0  0  0  0  0  0
    2.8960    1.2090   -0.7090 C   0  0  1  0  0  0  0  0  0  0  0  0
    2.3660    2.4920   -0.2070 N   0  0  0  0  0  0  0  0  0  0  0  0
    4.3140    1.0490   -0.3050 C   0  0  0  0  0  0  0  0  0  0  0  0
    4.6890    0.9920    1.1050 C   0  0  1  0  0  0  0  0  0  0  0  0
    4.1510   -0.0650    1.9890 C   0  0  0  0  0  0  0  0  0  0  0  0
    6.2040    0.8290    1.1260 C   0  0  0  0  0  0  0  0  0  0  0  0
    6.7310   -0.1950    1.6010 O   0  0  0  0  0  0  0  0  0  0  0  0
    7.0290    1.8410    0.6040 N   0  0  0  0  0  0  0  0  0  0  0  0
    8.4400    1.8580    0.5390 C   0  0  0  0  0  0  0  0  0  0  0  0
    9.2770    0.8870    1.0200 C   0  0  0  0  0  0  0  0  0  0  0  0
   10.6730    0.9660    0.9190 C   0  0  0  0  0  0  0  0  0  0  0  0
   11.2450    2.0470    0.3190 C   0  0  0  0  0  0  0  0  0  0  0  0
   12.5990    2.1620    0.2010 F   0  0  0  0  0  0  0  0  0  0  0  0
   10.4430    3.0370   -0.1730 C   0  0  0  0  0  0  0  0  0  0  0  0
    9.0770    2.9470   -0.0670 C   0  0  0  0  0  0  0  0  0  0  0  0
   -2.9660    0.1000    0.2480 C   0  0  0  0  0  0  0  0  0  0  0  0
  1  2  1  0
  2  3  1  0
  3  4  1  0
  4  5  1  0
  4  8  1  0
  5  6  1  0
  6  7  1  0
  8  9  2  0
  8 10  1  0
 10 11  2  0
 10 41  1  0
 11 12  1  0
 12 13  2  0
 13 14  1  0
 14 15  1  0
 14 41  2  0
 15 16  2  0
 15 17  1  0
 17 18  1  0
 18 19  1  6
 18 26  1  0
 19 20  1  0
 20 21  2  0
 20 25  1  0
 21 22  1  0
 22 23  2  0
 23 24  1  0
 24 25  2  0
 26 27  1  1
 26 28  1  0
 28 29  1  0
 29 30  1  6
 29 31  1  0
 31 32  2  0
 31 33  1  0
 33 34  1  0
 34 35  2  0
 34 40  1  0
 35 36  1  0
 36 37  2  0
 37 38  1  0
 37 39  1  0
 39 40  2  0
M  CHG  1  27   1
M  END
