
     RDKit          3D

 41 45  0  0  0  0  0  0  0  0999 V2000
   -1.1300    1.7210    2.9390 C   0  0  0  0  0  0  0  0  0  0  0  0
   -1.4150    2.8510    1.9870 C   0  0  0  0  0  0  0  0  0  0  0  0
   -0.9750    4.1090    2.3420 C   0  0  0  0  0  0  0  0  0  0  0  0
   -1.2410    5.1450    1.4660 C   0  0  0  0  0  0  0  0  0  0  0  0
   -1.9140    4.9570    0.2830 C   0  0  0  0  0  0  0  0  0  0  0  0
   -2.3590    3.6750   -0.0740 C   0  0  0  0  0  0  0  0  0  0  0  0
   -2.0920    2.6430    0.8030 C   0  0  0  0  0  0  0  0  0  0  0  0
   -2.5610    1.3170    0.5050 C   0  0  0  0  0  0  0  0  0  0  0  0
   -3.7600    1.0650    0.8770 O   0  0  0  0  0  0  0  0  0  0  0  0
   -1.8430    0.2850   -0.1420 N   0  0  0  0  0  0  0  0  0  0  0  0
   -2.4310   -0.9590   -0.4010 C   0  0  0  0  0  0  0  0  0  0  0  0
   -1.7440   -1.8520   -0.9870 O   0  0  0  0  0  0  0  0  0  0  0  0
   -3.8140   -1.2460   -0.0120 C   0  0  0  0  0  0  0  0  0  0  0  0
   -4.2030   -2.6160   -0.3920 N   0  0  0  0  0  0  0  0  0  0  0  0
   -5.5730   -2.7540    0.0460 C   0  0  0  0  0  0  0  0  0  0  0  0
   -5.7160   -4.1950    0.4080 C   0  0  1  0  0  0  0  0  0  0  0  0
   -5.7380   -4.9880   -0.8070 N   0  0  0  0  0  0  0  0  0  0  0  0
   -4.3910   -4.4130    1.1590 C   0  0  0  0  0  0  0  0  0  0  0  0
   -3.4240   -3.5790    0.3150 C   0  0  1  0  0  0  0  0  0  0  0  0
   -2.6500   -4.5090   -0.5550 C   0  0  0  0  0  0  0  0  0  0  0  0
   -0.4750    0.4450   -0.5680 C   0  0  0  0  0  0  0  0  0  0  0  0
   -0.0600    1.3740   -1.4840 C   0  0  0  0  0  0  0  0  0  0  0  0
    1.2700    1.4900   -1.8700 C   0  0  0  0  0  0  0  0  0  0  0  0
    2.2240    0.6390   -1.3150 C   0  0  0  0  0  0  0  0  0  0  0  0
    3.5610    0.8080   -1.7260 N   0  0  0  0  0  0  0  0  0  0  0  0
    4.6010   -0.1340   -1.5380 C   0  0  0  0  0  0  0  0  0  0  0  0
    4.4040   -1.2340   -0.9870 O   0  0  0  0  0  0  0  0  0  0  0  0
    5.9310    0.1700   -1.9930 N   0  0  0  0  0  0  0  0  0  0  0  0
    7.0370   -0.7620   -1.8290 C   0  0  0  0  0  0  0  0  0  0  0  0
    7.4980   -0.7620   -0.4310 C   0  0  0  0  0  0  0  0  0  0  0  0
    8.2810    0.2550    0.0350 C   0  0  0  0  0  0  0  0  0  0  0  0
    8.7290    0.2610    1.3620 C   0  0  0  0  0  0  0  0  0  0  0  0
    8.3520   -0.7900    2.1700 C   0  0  0  0  0  0  0  0  0  0  0  0
    7.5630   -1.8210    1.7090 C   0  0  0  0  0  0  0  0  0  0  0  0
    7.1470   -1.7840    0.4020 C   0  0  0  0  0  0  0  0  0  0  0  0
    1.8230   -0.2860   -0.4050 C   0  0  0  0  0  0  0  0  0  0  0  0
    0.4760   -0.3910   -0.0260 C   0  0  0  0  0  0  0  0  0  0  0  0
   -3.0590    3.8260   -1.3830 C   0  0  0  0  0  0  0  0  0  0  0  0
   -3.5120    5.3000   -1.4290 C   0  0  0  0  0  0  0  0  0  0  0  0
   -2.3040    5.9140   -0.7640 C   0  0  0  0  0  0  0  0  0  0  0  0
   -1.7790    7.0090   -1.0710 O   0  0  0  0  0  0  0  0  0  0  0  0
  1  2  1  0
  2  3  2  0
  2  7  1  0
  3  4  1  0
  4  5  2  0
  5  6  1  0
  5 40  1  0
  6  7  2  0
  6 38  1  0
  7  8  1  0
  8  9  2  0
  8 10  1  0
 10 11  1  0
 10 21  1  0
 11 12  2  0
 11 13  1  0
 13 14  1  0
 14 15  1  0
 14 19  1  0
 15 16  1  0
 16 17  1  6
 16 18  1  0
 18 19  1  0
 19 20  1  6
 21 22  2  0
 21 37  1  0
 22 23  1  0
 23 24  2  0
 24 25  1  0
 24 36  1  0
 25 26  1  0
 26 27  2  0
 26 28  1  0
 28 29  1  0
 29 30  1  0
 30 31  2  0
 30 35  1  0
 31 32  1  0
 32 33  2  0
 33 34  1  0
 34 35  2  0
 36 37  2  0
 38 39  1  0
 39 40  1  0
 40 41  2  0
M  END
