
     RDKit          3D

 41 45  0  0  0  0  0  0  0  0999 V2000
    8.6490    2.7470    3.6850 C   0  0  0  0  0  0  0  0  0  0  0  0
    7.8940    2.2080    2.4970 C   0  0  0  0  0  0  0  0  0  0  0  0
    8.5290    1.9830    1.2950 C   0  0  0  0  0  0  0  0  0  0  0  0
    7.8370    1.4890    0.2080 C   0  0  0  0  0  0  0  0  0  0  0  0
    8.5310    1.2460   -1.1000 C   0  0  0  0  0  0  0  0  0  0  0  0
    6.4850    1.2010    0.2740 C   0  0  0  0  0  0  0  0  0  0  0  0
    5.8720    1.4350    1.4870 C   0  0  0  0  0  0  0  0  0  0  0  0
    6.5480    1.9270    2.5810 C   0  0  0  0  0  0  0  0  0  0  0  0
    4.4470    1.1910    1.7400 C   0  0  0  0  0  0  0  0  0  0  0  0
    3.5520    0.5660    0.9950 C   0  0  0  0  0  0  0  0  0  0  0  0
    3.7000   -0.0830   -0.3240 C   0  0  0  0  0  0  0  0  0  0  0  0
    2.5920   -0.8130   -0.6490 C   0  0  0  0  0  0  0  0  0  0  0  0
    2.4900   -1.5260   -1.8580 C   0  0  0  0  0  0  0  0  0  0  0  0
    1.3050   -2.2480   -2.1320 N   0  0  0  0  0  0  0  0  0  0  0  0
    1.1400   -3.2080   -3.1370 C   0  0  0  0  0  0  0  0  0  0  0  0
    2.0960   -3.4990   -3.8910 O   0  0  0  0  0  0  0  0  0  0  0  0
   -0.1600   -3.9240   -3.3600 C   0  0  0  0  0  0  0  0  0  0  0  0
   -1.0920   -3.4090   -2.3940 N   0  0  0  0  0  0  0  0  0  0  0  0
   -1.1900   -3.9950   -1.1910 C   0  0  0  0  0  0  0  0  0  0  0  0
   -0.4920   -4.9850   -0.8780 O   0  0  0  0  0  0  0  0  0  0  0  0
   -2.1130   -3.4490   -0.2900 C   0  0  0  0  0  0  0  0  0  0  0  0
   -2.8890   -2.3620   -0.6140 C   0  0  0  0  0  0  0  0  0  0  0  0
   -3.8180   -1.8420    0.3740 C   0  0  0  0  0  0  0  0  0  0  0  0
   -3.8680   -2.3860    1.5030 O   0  0  0  0  0  0  0  0  0  0  0  0
   -4.6880   -0.7480    0.1520 N   0  0  0  0  0  0  0  0  0  0  0  0
   -5.6060   -0.2430    1.1490 C   0  0  0  0  0  0  0  0  0  0  0  0
   -6.3910    0.9340    0.5710 C   0  0  2  0  0  0  0  0  0  0  0  0
   -7.1770    0.4960   -0.6450 C   0  0  0  0  0  0  0  0  0  0  0  0
   -5.4920    2.0650    0.1600 C   0  0  0  0  0  0  0  0  0  0  0  0
   -7.3120    1.4210    1.6450 C   0  0  0  0  0  0  0  0  0  0  0  0
   -7.3370    2.6260    2.1610 C   0  0  0  0  0  0  0  0  0  0  0  0
   -8.3900    2.7120    3.1970 C   0  0  0  0  0  0  0  0  0  0  0  0
   -8.9770    1.3650    3.2010 C   0  0  0  0  0  0  0  0  0  0  0  0
   -8.3460    0.6430    2.3070 C   0  0  0  0  0  0  0  0  0  0  0  0
   -2.7300   -1.8340   -1.8390 N   0  0  0  0  0  0  0  0  0  0  0  0
   -1.8410   -2.3450   -2.7320 C   0  0  0  0  0  0  0  0  0  0  0  0
   -1.6940   -1.8490   -3.8780 O   0  0  0  0  0  0  0  0  0  0  0  0
    3.5820   -1.4310   -2.6760 C   0  0  0  0  0  0  0  0  0  0  0  0
    4.7240   -0.6870   -2.3560 C   0  0  0  0  0  0  0  0  0  0  0  0
    4.7820   -0.0130   -1.1780 C   0  0  0  0  0  0  0  0  0  0  0  0
    5.9830    0.7060   -0.9580 N   0  0  0  0  0  0  0  0  0  0  0  0
  1  2  1  0
  2  3  2  0
  2  8  1  0
  3  4  1  0
  4  5  1  0
  4  6  2  0
  6  7  1  0
  6 41  1  0
  7  8  2  0
  7  9  1  0
  9 10  2  0
 10 11  1  0
 11 12  2  0
 11 40  1  0
 12 13  1  0
 13 14  1  0
 13 38  2  0
 14 15  1  0
 15 16  2  0
 15 17  1  0
 17 18  1  0
 18 19  1  0
 18 36  1  0
 19 20  2  0
 19 21  1  0
 21 22  2  0
 22 23  1  0
 22 35  1  0
 23 24  2  0
 23 25  1  0
 25 26  1  0
 26 27  1  0
 27 28  1  6
 27 29  1  0
 27 30  1  0
 30 31  2  0
 30 34  1  0
 31 32  1  0
 32 33  1  0
 33 34  2  0
 35 36  1  0
 36 37  2  0
 38 39  1  0
 39 40  2  0
 40 41  1  0
M  END
