
     RDKit          3D

 41 45  0  0  0  0  0  0  0  0999 V2000
   10.1840    1.6620    1.0950 C   0  0  0  0  0  0  0  0  0  0  0  0
    8.8630    1.0170    0.7740 C   0  0  0  0  0  0  0  0  0  0  0  0
    8.8750   -0.0900    0.2330 O   0  0  0  0  0  0  0  0  0  0  0  0
    7.6560    1.6690    1.0860 N   0  0  0  0  0  0  0  0  0  0  0  0
    6.3550    1.1770    0.8350 C   0  0  0  0  0  0  0  0  0  0  0  0
    6.0720    0.1580   -0.0290 C   0  0  0  0  0  0  0  0  0  0  0  0
    4.7620   -0.3120   -0.2120 C   0  0  0  0  0  0  0  0  0  0  0  0
    4.6110   -1.5020   -1.0870 C   0  0  0  0  0  0  0  0  0  0  0  0
    3.7190    0.2320    0.4610 C   0  0  0  0  0  0  0  0  0  0  0  0
    2.3250   -0.1700    0.1680 C   0  0  0  0  0  0  0  0  0  0  0  0
    1.4690   -0.3880    1.1440 C   0  0  0  0  0  0  0  0  0  0  0  0
    0.1490   -0.7630    0.9520 N   0  0  0  0  0  0  0  0  0  0  0  0
   -0.5600   -0.6060   -0.3250 C   0  0  2  0  0  0  0  0  0  0  0  0
   -1.4650    0.5220   -0.1770 C   0  0  0  0  0  0  0  0  0  0  0  0
   -1.4880    1.0200    1.0560 O   0  0  0  0  0  0  0  0  0  0  0  0
   -2.3230    1.2090   -1.0290 N   0  0  0  0  0  0  0  0  0  0  0  0
   -3.1390    2.2770   -0.3990 C   0  0  0  0  0  0  0  0  0  0  0  0
   -4.4390    1.8370    0.1080 C   0  0  2  0  0  0  0  0  0  0  0  0
   -5.1310    2.9580    0.8910 C   0  0  0  0  0  0  0  0  0  0  0  0
   -6.2020    2.1630    1.5430 C   0  0  0  0  0  0  0  0  0  0  0  0
   -7.4680    2.1540    2.0810 C   0  0  0  0  0  0  0  0  0  0  0  0
   -7.7860    0.9290    2.5250 N   0  0  0  0  0  0  0  0  0  0  0  0
   -6.7230    0.1480    2.2720 C   0  0  0  0  0  0  0  0  0  0  0  0
   -5.7170    0.8810    1.6600 C   0  0  0  0  0  0  0  0  0  0  0  0
   -4.4110    0.8330    1.1190 O   0  0  0  0  0  0  0  0  0  0  0  0
   -2.4260    0.9900   -2.4250 C   0  0  1  0  0  0  0  0  0  0  0  0
   -1.2050    1.3420   -3.2400 C   0  0  0  0  0  0  0  0  0  0  0  0
   -2.8980   -0.3870   -2.7420 C   0  0  0  0  0  0  0  0  0  0  0  0
   -1.3310   -1.9420   -0.3870 C   0  0  0  0  0  0  0  0  0  0  0  0
   -2.3990   -2.1520    0.4490 C   0  0  0  0  0  0  0  0  0  0  0  0
   -3.0790   -3.3520    0.4380 C   0  0  0  0  0  0  0  0  0  0  0  0
   -2.6590   -4.3390   -0.4350 C   0  0  0  0  0  0  0  0  0  0  0  0
   -3.3790   -5.6470   -0.4570 C   0  0  0  0  0  0  0  0  0  0  0  0
   -1.5910   -4.1730   -1.2940 C   0  0  0  0  0  0  0  0  0  0  0  0
   -0.9390   -2.9400   -1.2400 C   0  0  0  0  0  0  0  0  0  0  0  0
    0.4090   -0.6010   -1.3450 N   0  0  0  0  0  0  0  0  0  0  0  0
    1.8040   -0.2650   -1.1940 C   0  0  0  0  0  0  0  0  0  0  0  0
    2.5000   -0.0660   -2.1970 O   0  0  0  0  0  0  0  0  0  0  0  0
    4.0100    1.2660    1.3350 C   0  0  0  0  0  0  0  0  0  0  0  0
    2.9110    1.9570    2.0690 C   0  0  0  0  0  0  0  0  0  0  0  0
    5.2910    1.7340    1.5250 C   0  0  0  0  0  0  0  0  0  0  0  0
  1  2  1  0
  2  3  2  0
  2  4  1  0
  4  5  1  0
  5  6  2  0
  5 41  1  0
  6  7  1  0
  7  8  1  0
  7  9  2  0
  9 10  1  0
  9 39  1  0
 10 11  2  0
 10 37  1  0
 11 12  1  0
 12 13  1  0
 13 14  1  1
 13 29  1  0
 13 36  1  0
 14 15  2  0
 14 16  1  0
 16 17  1  0
 16 26  1  0
 18 17  1  1
 18 19  1  0
 18 25  1  0
 19 20  1  0
 20 21  2  0
 20 24  1  0
 21 22  1  0
 22 23  1  0
 23 24  2  0
 24 25  1  0
 26 27  1  6
 26 28  1  0
 29 30  2  0
 29 35  1  0
 30 31  1  0
 31 32  2  0
 32 33  1  0
 32 34  1  0
 34 35  2  0
 36 37  1  0
 37 38  2  0
 39 40  1  0
 39 41  2  0
M  END
