
     RDKit          3D

 13 14  0  0  0  0  0  0  0  0999 V2000
   -4.2840   -0.4190    0.5210 C   0  0  0  0  0  0  0  0  0  0  0  0
   -3.1060    0.3280    0.0040 C   0  0  0  0  0  0  0  0  0  0  0  0
   -1.8090   -0.2980    0.3440 C   0  0  0  0  0  0  0  0  0  0  0  0
   -1.8360   -1.3580    1.0110 O   0  0  0  0  0  0  0  0  0  0  0  0
   -0.5930    0.2820   -0.0690 N   0  0  0  0  0  0  0  0  0  0  0  0
    0.6690   -0.2810    0.2330 C   0  0  0  0  0  0  0  0  0  0  0  0
    1.0070   -1.3640    0.8990 C   0  0  0  0  0  0  0  0  0  0  0  0
    2.4410   -1.5190    0.9370 N   0  0  0  0  0  0  0  0  0  0  0  0
    3.0170   -0.5710    0.3190 C   0  0  0  0  0  0  0  0  0  0  0  0
    4.3210   -0.0120   -0.0850 C   0  0  0  0  0  0  0  0  0  0  0  0
    4.0250    1.0780   -0.7580 C   0  0  0  0  0  0  0  0  0  0  0  0
    2.5700    1.2730   -0.8210 C   0  0  0  0  0  0  0  0  0  0  0  0
    1.9640    0.3000   -0.1850 C   0  0  0  0  0  0  0  0  0  0  0  0
  1  2  1  0
  2  3  1  0
  3  4  2  0
  3  5  1  0
  5  6  1  0
  6  7  2  0
  6 13  1  0
  7  8  1  0
  8  9  2  0
  9 10  1  0
  9 13  1  0
 10 11  2  0
 11 12  1  0
 12 13  2  0
M  END
