
     RDKit          3D

 13 14  0  0  0  0  0  0  0  0999 V2000
    3.7510    0.8380   -0.9280 C   0  0  0  0  0  0  0  0  0  0  0  0
    3.3800    0.7190    0.3310 C   0  0  0  0  0  0  0  0  0  0  0  0
    2.7870   -0.4970    0.7310 N   0  0  0  0  0  0  0  0  0  0  0  0
    1.3960   -0.6570    0.6080 C   0  0  0  0  0  0  0  0  0  0  0  0
    0.8070   -1.8630    1.0060 C   0  0  0  0  0  0  0  0  0  0  0  0
   -0.5590   -1.9790    0.8690 C   0  0  0  0  0  0  0  0  0  0  0  0
   -1.3430   -0.9560    0.3610 C   0  0  0  0  0  0  0  0  0  0  0  0
   -0.7700    0.2360   -0.0320 C   0  0  0  0  0  0  0  0  0  0  0  0
    0.5940    0.3500    0.1050 C   0  0  0  0  0  0  0  0  0  0  0  0
   -1.5810    1.2810   -0.5530 N   0  0  0  0  0  0  0  0  0  0  0  0
   -2.9330    0.9490   -0.9790 C   0  0  0  0  0  0  0  0  0  0  0  0
   -3.5240    0.0900    0.1450 C   0  0  0  0  0  0  0  0  0  0  0  0
   -2.7110   -1.0840    0.2280 O   0  0  0  0  0  0  0  0  0  0  0  0
  1  2  2  0
  2  3  1  0
  3  4  1  0
  4  5  2  0
  4  9  1  0
  5  6  1  0
  6  7  2  0
  7  8  1  0
  7 13  1  0
  8  9  2  0
  8 10  1  0
 10 11  1  0
 11 12  1  0
 12 13  1  0
M  END
