
     RDKit          3D

 13 13  0  0  0  0  0  0  0  0999 V2000
   -1.1480   -0.9830    3.8400 N   0  0  0  0  0  0  0  0  0  0  0  0
   -0.8560   -0.4050    2.7940 C   0  0  0  0  0  0  0  0  0  0  0  0
   -0.4990    0.2870    1.5810 C   0  0  0  0  0  0  0  0  0  0  0  0
   -0.6310    1.5900    1.5780 C   0  0  0  0  0  0  0  0  0  0  0  0
   -0.2860    2.3670    0.4120 N   0  0  0  0  0  0  0  0  0  0  0  0
    1.1320    2.7780    0.2660 C   0  0  0  0  0  0  0  0  0  0  0  0
    1.3050    3.5930   -0.8580 O   0  0  0  0  0  0  0  0  0  0  0  0
   -0.2370   -0.5590    0.3990 C   0  0  0  0  0  0  0  0  0  0  0  0
   -0.0410   -1.8320    0.5850 C   0  0  0  0  0  0  0  0  0  0  0  0
    0.2340   -2.8630   -0.4560 C   0  0  0  0  0  0  0  0  0  0  0  0
    0.3420   -2.2590   -1.8120 C   0  0  0  0  0  0  0  0  0  0  0  0
   -0.5970   -1.1040   -1.9830 C   0  0  0  0  0  0  0  0  0  0  0  0
   -0.3550   -0.0080   -0.9720 C   0  0  0  0  0  0  0  0  0  0  0  0
  1  2  3  0
  2  3  1  0
  3  4  2  3
  3  8  1  0
  4  5  1  0
  5  6  1  0
  6  7  1  0
  8  9  2  0
  8 13  1  0
  9 10  1  0
 10 11  1  0
 11 12  1  0
 12 13  1  0
M  END
