
     RDKit          3D

 13 14  0  0  0  0  0  0  0  0999 V2000
   -4.1420    1.3480    0.7770 N   0  0  0  0  0  0  0  0  0  0  0  0
   -2.9360    0.6520    0.5140 C   0  0  0  0  0  0  0  0  0  0  0  0
   -2.9790   -0.6630    0.0860 C   0  0  0  0  0  0  0  0  0  0  0  0
   -1.8200   -1.3600   -0.1760 C   0  0  0  0  0  0  0  0  0  0  0  0
   -0.6390   -0.7470   -0.0120 N   0  0  0  0  0  0  0  0  0  0  0  0
   -0.5330    0.5160    0.3970 C   0  0  0  0  0  0  0  0  0  0  0  0
    0.7040    1.1400    0.5630 O   0  0  0  0  0  0  0  0  0  0  0  0
    1.8380    0.3890    0.2840 C   0  0  0  0  0  0  0  0  0  0  0  0
    2.2760   -0.6560    0.9530 C   0  0  0  0  0  0  0  0  0  0  0  0
    3.5070   -1.1300    0.3010 C   0  0  0  0  0  0  0  0  0  0  0  0
    3.7230   -0.2310   -0.8240 C   0  0  0  0  0  0  0  0  0  0  0  0
    2.7420    0.6530   -0.8240 C   0  0  0  0  0  0  0  0  0  0  0  0
   -1.6940    1.2310    0.6650 C   0  0  0  0  0  0  0  0  0  0  0  0
  1  2  1  0
  2  3  2  0
  2 13  1  0
  3  4  1  0
  4  5  2  0
  5  6  1  0
  6  7  1  0
  6 13  2  0
  7  8  1  0
  8  9  2  0
  8 12  1  0
  9 10  1  0
 10 11  1  0
 11 12  2  0
M  END
