
     RDKit          3D

 13 14  0  0  0  0  0  0  0  0999 V2000
   -3.6270    1.1910   -0.7820 N   0  0  0  0  0  0  0  0  0  0  0  0
   -3.5330   -0.1700   -0.2960 C   0  0  0  0  0  0  0  0  0  0  0  0
   -2.0830   -0.5110   -0.0710 C   0  0  0  0  0  0  0  0  0  0  0  0
   -1.6140   -1.7170    0.3870 C   0  0  0  0  0  0  0  0  0  0  0  0
   -0.2430   -1.6340    0.4570 C   0  0  0  0  0  0  0  0  0  0  0  0
    0.0640   -0.3360    0.0220 C   0  0  0  0  0  0  0  0  0  0  0  0
    1.4350    0.1360   -0.0450 C   0  0  0  0  0  0  0  0  0  0  0  0
    2.5500   -0.5970    0.2940 C   0  0  0  0  0  0  0  0  0  0  0  0
    3.8220   -0.0660    0.1990 C   0  0  0  0  0  0  0  0  0  0  0  0
    3.9870    1.2220   -0.2430 C   0  0  0  0  0  0  0  0  0  0  0  0
    2.9030    1.9390   -0.5730 N   0  0  0  0  0  0  0  0  0  0  0  0
    1.6690    1.4200   -0.4800 C   0  0  0  0  0  0  0  0  0  0  0  0
   -1.0460    0.2560   -0.2660 O   0  0  0  0  0  0  0  0  0  0  0  0
  1  2  1  0
  2  3  1  0
  3  4  2  0
  3 13  1  0
  4  5  1  0
  5  6  2  0
  6  7  1  0
  6 13  1  0
  7  8  2  0
  7 12  1  0
  8  9  1  0
  9 10  2  0
 10 11  1  0
 11 12  2  0
M  END
