
     RDKit          3D

 13 14  0  0  0  0  0  0  0  0999 V2000
    2.7600   -1.5560    0.6970 C   0  0  0  0  0  0  0  0  0  0  0  0
    2.8250   -0.7920   -0.5990 C   0  0  0  0  0  0  0  0  0  0  0  0
    2.0450    0.3680   -0.5350 O   0  0  0  0  0  0  0  0  0  0  0  0
    0.6760    0.3650   -0.3250 C   0  0  0  0  0  0  0  0  0  0  0  0
   -0.0700   -0.7860   -0.1650 C   0  0  0  0  0  0  0  0  0  0  0  0
   -1.4310   -0.6970    0.0390 C   0  0  0  0  0  0  0  0  0  0  0  0
   -2.0560    0.5250    0.0860 C   0  0  0  0  0  0  0  0  0  0  0  0
   -1.2930    1.6670   -0.0770 C   0  0  0  0  0  0  0  0  0  0  0  0
    0.0560    1.6160   -0.2810 C   0  0  0  0  0  0  0  0  0  0  0  0
    0.8090    2.7980   -0.4430 N   0  0  0  0  0  0  0  0  0  0  0  0
   -3.5060    0.3180    0.3150 C   0  0  0  0  0  0  0  0  0  0  0  0
   -3.6300   -1.1090    0.3920 N   0  0  0  0  0  0  0  0  0  0  0  0
   -2.4900   -1.6760    0.2400 C   0  0  0  0  0  0  0  0  0  0  0  0
  1  2  1  0
  2  3  1  0
  3  4  1  0
  4  5  2  0
  4  9  1  0
  5  6  1  0
  6  7  2  0
  6 13  1  0
  7  8  1  0
  7 11  1  0
  8  9  2  0
  9 10  1  0
 11 12  1  0
 12 13  2  0
M  END
