
     RDKit          3D

 13 14  0  0  0  0  0  0  0  0999 V2000
    4.2870    0.3370    0.1640 O   0  0  0  0  0  0  0  0  0  0  0  0
    3.7020   -0.7420   -0.4500 C   0  0  0  0  0  0  0  0  0  0  0  0
    2.3080   -1.0220    0.0620 C   0  0  0  0  0  0  0  0  0  0  0  0
    1.3960    0.1250   -0.1530 C   0  0  0  0  0  0  0  0  0  0  0  0
    1.6550    1.3090   -0.7160 N   0  0  0  0  0  0  0  0  0  0  0  0
    0.5620    2.0200   -0.6990 N   0  0  0  0  0  0  0  0  0  0  0  0
   -0.4390    1.3440   -0.1350 C   0  0  0  0  0  0  0  0  0  0  0  0
    0.0780    0.1250    0.2220 C   0  0  0  0  0  0  0  0  0  0  0  0
   -0.6350   -1.0190    0.8970 C   0  0  0  0  0  0  0  0  0  0  0  0
   -1.8750   -1.3420    0.0960 C   0  0  0  0  0  0  0  0  0  0  0  0
   -2.9670   -0.3370    0.4200 C   0  0  0  0  0  0  0  0  0  0  0  0
   -2.8190    0.8570   -0.5140 C   0  0  0  0  0  0  0  0  0  0  0  0
   -1.8300    1.8220    0.0630 C   0  0  0  0  0  0  0  0  0  0  0  0
  1  2  1  0
  2  3  1  0
  3  4  1  0
  4  5  1  0
  4  8  2  0
  5  6  1  0
  6  7  2  0
  7  8  1  0
  7 13  1  0
  8  9  1  0
  9 10  1  0
 10 11  1  0
 11 12  1  0
 12 13  1  0
M  END
