
     RDKit          3D

 13 14  0  0  0  0  0  0  0  0999 V2000
   -4.0650   -1.3030   -1.0690 C   0  0  0  0  0  0  0  0  0  0  0  0
   -2.9600   -0.4470   -0.5120 C   0  0  0  0  0  0  0  0  0  0  0  0
   -1.7450   -0.8610   -0.6040 C   0  0  0  0  0  0  0  0  0  0  0  0
   -0.5260   -0.2220   -0.1490 C   0  0  0  0  0  0  0  0  0  0  0  0
    0.7370   -0.7470   -0.2810 N   0  0  0  0  0  0  0  0  0  0  0  0
    1.6410    0.0820    0.2380 C   0  0  0  0  0  0  0  0  0  0  0  0
    3.1360   -0.1120    0.2990 C   0  0  2  0  0  0  0  0  0  0  0  0
    3.8050   -0.8950   -0.7830 C   0  0  0  0  0  0  0  0  0  0  0  0
    3.6350   -1.4860    0.5520 C   0  0  0  0  0  0  0  0  0  0  0  0
    0.9600    1.1310    0.6980 N   0  0  0  0  0  0  0  0  0  0  0  0
   -0.3820    0.9790    0.4770 C   0  0  0  0  0  0  0  0  0  0  0  0
   -1.4130    2.0020    0.8800 C   0  0  0  0  0  0  0  0  0  0  0  0
   -0.7690    3.0820    1.5080 O   0  0  0  0  0  0  0  0  0  0  0  0
  1  2  1  0
  2  3  2  3
  3  4  1  0
  4  5  1  0
  4 11  2  0
  5  6  2  0
  7  6  1  6
  6 10  1  0
  7  8  1  0
  7  9  1  0
  8  9  1  0
 10 11  1  0
 11 12  1  0
 12 13  1  0
M  END
