
     RDKit          3D

 27 30  0  0  0  0  0  0  0  0999 V2000
    4.7420   -2.9130    0.5810 N   0  0  0  0  0  0  0  0  0  0  0  0
    4.5880   -2.0250   -0.5130 C   0  0  0  0  0  0  0  0  0  0  0  0
    3.8400   -2.3220   -1.4840 O   0  0  0  0  0  0  0  0  0  0  0  0
    5.2660   -0.7750   -0.5620 N   0  0  0  0  0  0  0  0  0  0  0  0
    5.1120    0.1270   -1.6700 C   0  0  0  0  0  0  0  0  0  0  0  0
    3.8110    0.8450   -1.6260 C   0  0  0  0  0  0  0  0  0  0  0  0
    3.5110    1.7750   -2.5970 C   0  0  0  0  0  0  0  0  0  0  0  0
    2.3150    2.4660   -2.5990 C   0  0  0  0  0  0  0  0  0  0  0  0
    1.4170    2.1800   -1.5710 C   0  0  0  0  0  0  0  0  0  0  0  0
    1.6860    1.2560   -0.5870 C   0  0  0  0  0  0  0  0  0  0  0  0
    0.7050    0.9780    0.4640 C   0  0  0  0  0  0  0  0  0  0  0  0
    1.1170    1.1160    1.7880 C   0  0  0  0  0  0  0  0  0  0  0  0
    0.2170    0.8940    2.7970 C   0  0  0  0  0  0  0  0  0  0  0  0
   -1.0900    0.5360    2.5260 C   0  0  0  0  0  0  0  0  0  0  0  0
   -1.5210    0.3920    1.2150 C   0  0  0  0  0  0  0  0  0  0  0  0
   -2.9090    0.0110    0.9680 C   0  0  0  0  0  0  0  0  0  0  0  0
   -3.8530   -0.2240    1.9720 C   0  0  0  0  0  0  0  0  0  0  0  0
   -5.0600   -0.5620    1.4020 C   0  0  0  0  0  0  0  0  0  0  0  0
   -6.3130   -0.8910    1.8910 C   0  0  0  0  0  0  0  0  0  0  0  0
   -7.3480   -1.1860    1.0950 N   0  0  0  0  0  0  0  0  0  0  0  0
   -7.1900   -1.1700   -0.2430 C   0  0  0  0  0  0  0  0  0  0  0  0
   -5.9500   -0.8450   -0.7460 C   0  0  0  0  0  0  0  0  0  0  0  0
   -4.8610   -0.5350    0.0420 C   0  0  0  0  0  0  0  0  0  0  0  0
   -3.5720   -0.1910   -0.1790 N   0  0  0  0  0  0  0  0  0  0  0  0
   -0.6000    0.6190    0.2100 C   0  0  0  0  0  0  0  0  0  0  0  0
   -0.9910    0.4810   -1.0940 O   0  0  0  0  0  0  0  0  0  0  0  0
    2.9000    0.5990   -0.6400 C   0  0  0  0  0  0  0  0  0  0  0  0
  1  2  1  0
  2  3  2  0
  2  4  1  0
  4  5  1  0
  5  6  1  0
  6  7  2  0
  6 27  1  0
  7  8  1  0
  8  9  2  0
  9 10  1  0
 10 11  1  0
 10 27  2  0
 11 12  2  0
 11 25  1  0
 12 13  1  0
 13 14  2  0
 14 15  1  0
 15 16  1  0
 15 25  2  0
 16 17  2  0
 16 24  1  0
 17 18  1  0
 18 19  2  0
 18 23  1  0
 19 20  1  0
 20 21  2  0
 21 22  1  0
 22 23  2  0
 23 24  1  0
 25 26  1  0
M  END
