
     RDKit          3D

 25 28  0  0  0  0  0  0  0  0999 V2000
    7.7110   -0.2990    0.4100 C   0  0  0  0  0  0  0  0  0  0  0  0
    6.3490    0.1180    0.0110 C   0  0  0  0  0  0  0  0  0  0  0  0
    5.2090   -0.4750    0.5400 C   0  0  0  0  0  0  0  0  0  0  0  0
    3.9390   -0.1030    0.1880 C   0  0  0  0  0  0  0  0  0  0  0  0
    3.7980    0.8980   -0.7270 C   0  0  0  0  0  0  0  0  0  0  0  0
    2.5090    1.3070   -1.1120 O   0  0  0  0  0  0  0  0  0  0  0  0
    1.4290    0.8430   -0.6970 C   0  0  0  0  0  0  0  0  0  0  0  0
    0.2120    0.3200   -0.2300 C   0  0  0  0  0  0  0  0  0  0  0  0
   -1.0780    0.6340   -0.6790 C   0  0  0  0  0  0  0  0  0  0  0  0
   -1.9710   -0.1010    0.0340 C   0  0  0  0  0  0  0  0  0  0  0  0
   -1.2130   -0.8490    0.9040 C   0  0  0  0  0  0  0  0  0  0  0  0
   -1.8630   -1.6860    1.7470 N   0  0  0  0  0  0  0  0  0  0  0  0
   -3.1970   -1.7920    1.7460 C   0  0  0  0  0  0  0  0  0  0  0  0
   -3.8530   -2.6840    2.6560 N   0  0  0  0  0  0  0  0  0  0  0  0
   -3.9650   -1.0470    0.8790 C   0  0  0  0  0  0  0  0  0  0  0  0
   -5.3350   -1.1540    0.8750 C   0  0  0  0  0  0  0  0  0  0  0  0
   -6.0850   -0.3920   -0.0110 C   0  0  0  0  0  0  0  0  0  0  0  0
   -5.4410    0.4660   -0.8770 C   0  0  0  0  0  0  0  0  0  0  0  0
   -6.2420    1.2970   -1.8460 C   0  0  0  0  0  0  0  0  0  0  0  0
   -4.0900    0.5470   -0.8470 N   0  0  0  0  0  0  0  0  0  0  0  0
   -3.3480   -0.1830    0.0030 C   0  0  0  0  0  0  0  0  0  0  0  0
    0.0390   -0.5880    0.7310 O   0  0  0  0  0  0  0  0  0  0  0  0
    4.8890    1.5190   -1.2830 C   0  0  0  0  0  0  0  0  0  0  0  0
    4.5530    2.8020   -2.4570 Cl  0  0  0  0  0  0  0  0  0  0  0  0
    6.1620    1.1430   -0.9270 C   0  0  0  0  0  0  0  0  0  0  0  0
  1  2  1  0
  2  3  2  0
  2 25  1  0
  3  4  1  0
  4  5  2  0
  5  6  1  0
  5 23  1  0
  6  7  1  0
  7  8  1  0
  8  9  2  0
  8 22  1  0
  9 10  1  0
 10 11  2  0
 10 21  1  0
 11 12  1  0
 11 22  1  0
 12 13  2  0
 13 14  1  0
 13 15  1  0
 15 16  2  0
 15 21  1  0
 16 17  1  0
 17 18  2  0
 18 19  1  0
 18 20  1  0
 20 21  2  0
 23 24  1  0
 23 25  2  0
M  END
