
     RDKit          3D

 16 17  0  0  0  0  0  0  0  0999 V2000
    2.0790   -0.7990    1.4120 O   0  0  0  0  0  0  0  0  0  0  0  0
    2.4760   -0.2240    0.3760 C   0  0  0  0  0  0  0  0  0  0  0  0
    3.7270    0.6150    0.4170 C   0  0  0  0  0  0  0  0  0  0  0  0
    4.1880    0.8740   -1.0100 C   0  0  0  0  0  0  0  0  0  0  0  0
    3.9520   -0.3380   -1.8820 C   0  0  0  0  0  0  0  0  0  0  0  0
    2.5420   -0.7660   -2.0190 C   0  0  0  0  0  0  0  0  0  0  0  0
    1.7830   -0.3430   -0.8390 N   0  0  0  0  0  0  0  0  0  0  0  0
    0.4020   -0.0480   -0.9150 C   0  0  0  0  0  0  0  0  0  0  0  0
   -0.3510    0.3950   -0.0640 N   0  0  0  0  0  0  0  0  0  0  0  0
   -0.3770    0.8090    1.2140 C   0  0  0  0  0  0  0  0  0  0  0  0
   -1.4930    0.8150    1.9280 C   0  0  0  0  0  0  0  0  0  0  0  0
   -2.7760    0.3750    1.3920 C   0  0  0  0  0  0  0  0  0  0  0  0
   -3.9450    0.3500    2.0280 C   0  0  0  0  0  0  0  0  0  0  0  0
   -4.9970   -0.1630    1.1300 C   0  0  0  0  0  0  0  0  0  0  0  0
   -4.2860   -0.7940    0.0700 N   0  0  0  0  0  0  0  0  0  0  0  0
   -2.9870   -0.1420    0.0190 C   0  0  0  0  0  0  0  0  0  0  0  0
  1  2  2  0
  2  3  1  0
  2  7  1  0
  3  4  1  0
  4  5  1  0
  5  6  1  0
  6  7  1  0
  7  8  1  0
  8  9  2  3
  9 10  1  0
 10 11  2  3
 11 12  1  0
 12 13  2  0
 12 16  1  0
 13 14  1  0
 14 15  1  0
 15 16  1  0
M  CHG  1  15   1
M  END
