
     RDKit          3D

 16 17  0  0  0  0  0  0  0  0999 V2000
   -2.1060    1.2210   -1.5660 C   0  0  0  0  0  0  0  0  0  0  0  0
   -2.5190    0.6960   -0.2330 C   0  0  0  0  0  0  0  0  0  0  0  0
   -3.5020    1.3030    0.4720 N   0  0  0  0  0  0  0  0  0  0  0  0
   -3.6760    0.6270    1.6260 C   0  0  0  0  0  0  0  0  0  0  0  0
   -2.7700   -0.4120    1.6050 C   0  0  0  0  0  0  0  0  0  0  0  0
   -2.0680   -0.3540    0.4580 N   0  0  0  0  0  0  0  0  0  0  0  0
   -1.0440   -1.2500    0.0740 C   0  0  0  0  0  0  0  0  0  0  0  0
    0.3570   -0.9230    0.5070 C   0  0  1  0  0  0  0  0  0  0  0  0
    0.4250   -0.8450    2.0300 C   0  0  0  0  0  0  0  0  0  0  0  0
    1.1080   -2.2590    0.2450 C   0  0  0  0  0  0  0  0  0  0  0  0
    1.0260    0.1100   -0.1560 N   0  0  0  0  0  0  0  0  0  0  0  0
    1.3140   -0.0320   -1.5280 C   0  0  0  0  0  0  0  0  0  0  0  0
    2.7400    0.2270   -1.9190 C   0  0  0  0  0  0  0  0  0  0  0  0
    3.3170    1.3170   -1.3170 O   0  0  0  0  0  0  0  0  0  0  0  0
    2.5410    1.9060   -0.3400 C   0  0  0  0  0  0  0  0  0  0  0  0
    2.0470    0.7960    0.5680 C   0  0  0  0  0  0  0  0  0  0  0  0
  1  2  1  0
  2  3  2  0
  2  6  1  0
  3  4  1  0
  4  5  2  0
  5  6  1  0
  6  7  1  0
  7  8  1  0
  8  9  1  1
  8 10  1  0
  8 11  1  0
 11 12  1  0
 11 16  1  0
 12 13  1  0
 13 14  1  0
 14 15  1  0
 15 16  1  0
M  CHG  1   3   1
M  END
