
     RDKit          3D

 24 27  0  0  0  0  0  0  0  0999 V2000
    7.0570    0.6520   -0.9020 O   0  0  0  0  0  0  0  0  0  0  0  0
    5.7810    0.6040   -0.7880 C   0  0  0  0  0  0  0  0  0  0  0  0
    4.9200    1.0220   -1.7330 N   0  0  0  0  0  0  0  0  0  0  0  0
    3.6780    0.8010   -1.2250 C   0  0  0  0  0  0  0  0  0  0  0  0
    2.4190    1.0100   -1.7130 C   0  0  0  0  0  0  0  0  0  0  0  0
    1.2690    0.6770   -0.9680 C   0  0  0  0  0  0  0  0  0  0  0  0
    1.3340    0.1320    0.2730 C   0  0  0  0  0  0  0  0  0  0  0  0
    0.2220   -0.2430    1.1460 C   0  0  0  0  0  0  0  0  0  0  0  0
   -0.7550   -1.2030    0.6160 C   0  0  0  0  0  0  0  0  0  0  0  0
   -0.3450   -2.5550    0.5400 C   0  0  0  0  0  0  0  0  0  0  0  0
   -1.1560   -3.5330    0.0290 C   0  0  0  0  0  0  0  0  0  0  0  0
   -2.4120   -3.2300   -0.4320 C   0  0  0  0  0  0  0  0  0  0  0  0
   -2.8240   -1.9350   -0.3680 C   0  0  0  0  0  0  0  0  0  0  0  0
   -1.9900   -0.8960    0.1640 C   0  0  0  0  0  0  0  0  0  0  0  0
   -2.5980    0.4170    0.1370 C   0  0  0  0  0  0  0  0  0  0  0  0
   -3.9580    0.5050    0.2230 C   0  0  0  0  0  0  0  0  0  0  0  0
   -4.6880    1.7370    0.2150 C   0  0  0  0  0  0  0  0  0  0  0  0
   -6.4430    1.8060    0.3140 Cl  0  0  0  0  0  0  0  0  0  0  0  0
   -4.0480    2.8840    0.1300 C   0  0  0  0  0  0  0  0  0  0  0  0
   -2.6950    2.8490    0.0610 O   0  0  0  0  0  0  0  0  0  0  0  0
   -1.9410    1.6700   -0.1560 C   0  0  0  0  0  0  0  0  0  0  0  0
    2.6500   -0.0730    0.7540 C   0  0  0  0  0  0  0  0  0  0  0  0
    3.7710    0.2490    0.0270 C   0  0  0  0  0  0  0  0  0  0  0  0
    5.1110    0.1370    0.2770 N   0  0  0  0  0  0  0  0  0  0  0  0
  1  2  2  0
  2  3  1  0
  2 24  1  0
  3  4  1  0
  4  5  2  0
  4 23  1  0
  5  6  1  0
  6  7  2  0
  7  8  1  0
  7 22  1  0
  8  9  1  0
  9 10  2  0
  9 14  1  0
 10 11  1  0
 11 12  2  0
 12 13  1  0
 13 14  2  0
 14 15  1  0
 15 16  2  0
 15 21  1  0
 16 17  1  0
 17 18  1  0
 17 19  2  0
 19 20  1  0
 20 21  1  0
 22 23  2  0
 23 24  1  0
M  END
