
     RDKit          3D

 25 28  0  0  0  0  0  0  0  0999 V2000
   -4.1610   -4.5490   -0.5850 C   0  0  0  0  0  0  0  0  0  0  0  0
   -3.6740   -3.1920   -0.8640 C   0  0  0  0  0  0  0  0  0  0  0  0
   -4.4010   -2.3460   -1.6700 C   0  0  0  0  0  0  0  0  0  0  0  0
   -3.9990   -1.0650   -1.9690 C   0  0  0  0  0  0  0  0  0  0  0  0
   -4.8410   -0.2230   -2.8480 C   0  0  0  0  0  0  0  0  0  0  0  0
   -2.8080   -0.6410   -1.4170 C   0  0  0  0  0  0  0  0  0  0  0  0
   -2.4050    0.6280   -1.7090 N   0  0  0  0  0  0  0  0  0  0  0  0
   -1.2480    1.0780   -1.1900 C   0  0  0  0  0  0  0  0  0  0  0  0
   -0.8810    2.2690   -1.4710 O   0  0  0  0  0  0  0  0  0  0  0  0
   -0.4940    0.2500   -0.3740 C   0  0  0  0  0  0  0  0  0  0  0  0
    0.7130    0.7840    0.1450 N   0  0  0  0  0  0  0  0  0  0  0  0
    1.9630    0.7180   -0.5080 C   0  0  0  0  0  0  0  0  0  0  0  0
    1.9260    0.1230   -1.6450 O   0  0  0  0  0  0  0  0  0  0  0  0
    3.2110    1.2560    0.0050 C   0  0  0  0  0  0  0  0  0  0  0  0
    4.4040    1.4090   -0.7100 C   0  0  0  0  0  0  0  0  0  0  0  0
    5.2970    1.9720    0.1490 C   0  0  0  0  0  0  0  0  0  0  0  0
    4.7340    2.1750    1.3460 N   0  0  0  0  0  0  0  0  0  0  0  0
    3.4460    1.7360    1.2680 C   0  0  0  0  0  0  0  0  0  0  0  0
    2.8100    1.9480    2.6200 C   0  0  0  0  0  0  0  0  0  0  0  0
    4.0540    1.8820    3.5120 C   0  0  0  0  0  0  0  0  0  0  0  0
    5.0140    2.6960    2.6730 C   0  0  0  0  0  0  0  0  0  0  0  0
   -0.8800   -1.0130   -0.0740 C   0  0  0  0  0  0  0  0  0  0  0  0
    0.0640   -2.0780    0.9630 Cl  0  0  0  0  0  0  0  0  0  0  0  0
   -2.0610   -1.4650   -0.6070 C   0  0  0  0  0  0  0  0  0  0  0  0
   -2.4990   -2.7430   -0.3330 C   0  0  0  0  0  0  0  0  0  0  0  0
  1  2  1  0
  2  3  2  0
  2 25  1  0
  3  4  1  0
  4  5  1  0
  4  6  2  0
  6  7  1  0
  6 24  1  0
  7  8  1  0
  8  9  2  0
  8 10  1  0
 10 11  1  0
 10 22  2  0
 11 12  1  0
 12 13  2  0
 12 14  1  0
 14 15  1  0
 14 18  2  0
 15 16  2  0
 16 17  1  0
 17 18  1  0
 17 21  1  0
 18 19  1  0
 19 20  1  0
 20 21  1  0
 22 23  1  0
 22 24  1  0
 24 25  2  0
M  END
