
     RDKit          3D

 25 28  0  0  0  0  0  0  0  0999 V2000
    7.8880    0.5330    1.2840 C   0  0  0  0  0  0  0  0  0  0  0  0
    6.5150    0.0950    1.1580 N   0  0  0  0  0  0  0  0  0  0  0  0
    5.9240    0.7860    0.0360 C   0  0  0  0  0  0  0  0  0  0  0  0
    4.5090    0.4000   -0.1740 C   0  0  0  0  0  0  0  0  0  0  0  0
    3.3710    0.9620    0.3540 C   0  0  0  0  0  0  0  0  0  0  0  0
    2.2860    0.2680   -0.1250 C   0  0  0  0  0  0  0  0  0  0  0  0
    0.9060    0.3900    0.0690 C   0  0  0  0  0  0  0  0  0  0  0  0
    0.0690   -0.4880   -0.5740 C   0  0  0  0  0  0  0  0  0  0  0  0
   -1.3430   -0.4490   -0.4660 N   0  0  0  0  0  0  0  0  0  0  0  0
   -2.0300    0.6330    0.1000 C   0  0  0  0  0  0  0  0  0  0  0  0
   -1.5090    1.6610    0.5570 O   0  0  0  0  0  0  0  0  0  0  0  0
   -3.5040    0.5720    0.1700 C   0  0  0  0  0  0  0  0  0  0  0  0
   -4.2830   -0.4670   -0.2760 C   0  0  0  0  0  0  0  0  0  0  0  0
   -5.6140   -0.1570   -0.0390 C   0  0  0  0  0  0  0  0  0  0  0  0
   -6.8060   -0.8130   -0.2730 C   0  0  0  0  0  0  0  0  0  0  0  0
   -7.9770   -0.2260    0.0880 C   0  0  0  0  0  0  0  0  0  0  0  0
   -9.4890   -1.0690   -0.2150 Cl  0  0  0  0  0  0  0  0  0  0  0  0
   -7.9700    1.0170    0.6830 C   0  0  0  0  0  0  0  0  0  0  0  0
   -6.7720    1.6570    0.9090 C   0  0  0  0  0  0  0  0  0  0  0  0
   -5.5730    1.0880    0.5560 C   0  0  0  0  0  0  0  0  0  0  0  0
   -4.3290    1.4880    0.6640 O   0  0  0  0  0  0  0  0  0  0  0  0
    0.5950   -1.4780   -1.4000 C   0  0  0  0  0  0  0  0  0  0  0  0
    1.9460   -1.6060   -1.5950 C   0  0  0  0  0  0  0  0  0  0  0  0
    2.7960   -0.7160   -0.9450 C   0  0  0  0  0  0  0  0  0  0  0  0
    4.1270   -0.6200   -0.9600 N   0  0  0  0  0  0  0  0  0  0  0  0
  1  2  1  0
  2  3  1  0
  3  4  1  0
  4  5  2  0
  4 25  1  0
  5  6  1  0
  6  7  2  0
  6 24  1  0
  7  8  1  0
  8  9  1  0
  8 22  2  0
  9 10  1  0
 10 11  2  0
 10 12  1  0
 12 13  2  0
 12 21  1  0
 13 14  1  0
 14 15  2  0
 14 20  1  0
 15 16  1  0
 16 17  1  0
 16 18  2  0
 18 19  1  0
 19 20  2  0
 20 21  1  0
 22 23  1  0
 23 24  2  0
 24 25  1  0
M  END
