
     RDKit          3D

 25 28  0  0  0  0  0  0  0  0999 V2000
    5.7920    1.1320    3.4450 O   0  0  0  0  0  0  0  0  0  0  0  0
    4.6030    1.0880    3.0510 C   0  0  0  0  0  0  0  0  0  0  0  0
    4.3260    0.4030    1.7830 C   0  0  0  0  0  0  0  0  0  0  0  0
    5.3390   -0.1750    1.0460 C   0  0  0  0  0  0  0  0  0  0  0  0
    5.1410   -0.8300   -0.1500 C   0  0  0  0  0  0  0  0  0  0  0  0
    3.8320   -0.8980   -0.6180 C   0  0  0  0  0  0  0  0  0  0  0  0
    3.2730   -1.4400   -1.7120 N   0  0  0  0  0  0  0  0  0  0  0  0
    1.9500   -1.2400   -1.7150 C   0  0  0  0  0  0  0  0  0  0  0  0
    0.9090   -1.5640   -2.5580 C   0  0  0  0  0  0  0  0  0  0  0  0
   -0.3790   -1.1920   -2.2510 C   0  0  0  0  0  0  0  0  0  0  0  0
   -0.7220   -0.4750   -1.0920 C   0  0  0  0  0  0  0  0  0  0  0  0
   -2.0860   -0.1390   -0.9040 N   0  0  0  0  0  0  0  0  0  0  0  0
   -2.6190    0.3330    0.3060 C   0  0  0  0  0  0  0  0  0  0  0  0
   -1.8950    0.4790    1.3140 O   0  0  0  0  0  0  0  0  0  0  0  0
   -4.0530    0.6510    0.3570 C   0  0  0  0  0  0  0  0  0  0  0  0
   -4.8630    0.7790   -0.7360 C   0  0  0  0  0  0  0  0  0  0  0  0
   -6.2180    1.0780   -0.5990 C   0  0  0  0  0  0  0  0  0  0  0  0
   -6.7660    1.2480    0.6170 N   0  0  0  0  0  0  0  0  0  0  0  0
   -6.0130    1.1310    1.7080 C   0  0  0  0  0  0  0  0  0  0  0  0
   -6.7570    1.3580    3.2630 Cl  0  0  0  0  0  0  0  0  0  0  0  0
   -4.6590    0.8350    1.6030 C   0  0  0  0  0  0  0  0  0  0  0  0
    0.3150   -0.1580   -0.2630 C   0  0  0  0  0  0  0  0  0  0  0  0
    1.6290   -0.5410   -0.5810 C   0  0  0  0  0  0  0  0  0  0  0  0
    2.8140   -0.3230    0.1140 C   0  0  0  0  0  0  0  0  0  0  0  0
    3.0370    0.3270    1.3080 C   0  0  0  0  0  0  0  0  0  0  0  0
  1  2  2  0
  2  3  1  0
  3  4  2  0
  3 25  1  0
  4  5  1  0
  5  6  2  0
  6  7  1  0
  6 24  1  0
  7  8  1  0
  8  9  2  0
  8 23  1  0
  9 10  1  0
 10 11  2  0
 11 12  1  0
 11 22  1  0
 12 13  1  0
 13 14  2  0
 13 15  1  0
 15 16  2  0
 15 21  1  0
 16 17  1  0
 17 18  2  0
 18 19  1  0
 19 20  1  0
 19 21  2  0
 22 23  2  0
 23 24  1  0
 24 25  2  0
M  END
