
     RDKit          3D

 25 28  0  0  0  0  0  0  0  0999 V2000
   -5.8760   -1.9670    0.2240 C   0  0  0  0  0  0  0  0  0  0  0  0
   -4.6030   -1.2000    0.2040 C   0  0  0  0  0  0  0  0  0  0  0  0
   -3.3700   -1.8050    0.0860 C   0  0  0  0  0  0  0  0  0  0  0  0
   -2.1890   -1.0950    0.0670 C   0  0  0  0  0  0  0  0  0  0  0  0
   -0.9370   -1.7570   -0.0560 N   0  0  0  0  0  0  0  0  0  0  0  0
    0.3030   -1.0200   -0.0760 C   0  0  0  0  0  0  0  0  0  0  0  0
    0.1590    0.2170    0.0220 O   0  0  0  0  0  0  0  0  0  0  0  0
    1.5300   -1.6750   -0.1980 N   0  0  0  0  0  0  0  0  0  0  0  0
    2.7870   -1.0430   -0.2270 C   0  0  0  0  0  0  0  0  0  0  0  0
    2.9550    0.2380   -0.1440 C   0  0  0  0  0  0  0  0  0  0  0  0
    4.2900    0.8740   -0.1770 C   0  0  0  0  0  0  0  0  0  0  0  0
    4.4430    2.2220   -0.0880 C   0  0  0  0  0  0  0  0  0  0  0  0
    5.7020    2.7730   -0.1230 C   0  0  0  0  0  0  0  0  0  0  0  0
    5.9090    4.5110   -0.0090 Cl  0  0  0  0  0  0  0  0  0  0  0  0
    6.7780    1.9440   -0.2480 C   0  0  0  0  0  0  0  0  0  0  0  0
    6.6630    0.5800   -0.3400 C   0  0  0  0  0  0  0  0  0  0  0  0
    5.3800    0.0550   -0.3020 C   0  0  0  0  0  0  0  0  0  0  0  0
    5.1960   -1.2950   -0.3890 O   0  0  0  0  0  0  0  0  0  0  0  0
    3.9780   -1.9550   -0.3640 C   0  0  0  0  0  0  0  0  0  0  0  0
   -2.2630    0.2430    0.1690 N   0  0  0  0  0  0  0  0  0  0  0  0
   -3.4430    0.8910    0.2870 C   0  0  0  0  0  0  0  0  0  0  0  0
   -4.6230    0.1750    0.3050 C   0  0  0  0  0  0  0  0  0  0  0  0
   -5.7700    1.1090    0.4420 C   0  0  0  0  0  0  0  0  0  0  0  0
   -5.1070    2.4310    0.4990 C   0  0  0  0  0  0  0  0  0  0  0  0
   -3.7880    2.3020    0.4110 C   0  0  0  0  0  0  0  0  0  0  0  0
  1  2  1  0
  2  3  2  0
  2 22  1  0
  3  4  1  0
  4  5  1  0
  4 20  2  0
  5  6  1  0
  6  7  2  0
  6  8  1  0
  8  9  1  0
  9 10  2  0
  9 19  1  0
 10 11  1  0
 11 12  2  0
 11 17  1  0
 12 13  1  0
 13 14  1  0
 13 15  2  0
 15 16  1  0
 16 17  2  0
 17 18  1  0
 18 19  1  0
 20 21  1  0
 21 22  2  0
 21 25  1  0
 22 23  1  0
 23 24  1  0
 24 25  2  0
M  END
