
     RDKit          3D

 23 25  0  0  0  0  0  0  0  0999 V2000
   -5.3580   -2.4760   -0.4560 C   0  0  0  0  0  0  0  0  0  0  0  0
   -4.6020   -1.1790   -0.2590 C   0  0  0  0  0  0  0  0  0  0  0  0
   -5.2870    0.0110   -0.1500 C   0  0  0  0  0  0  0  0  0  0  0  0
   -4.6510    1.1990    0.0680 C   0  0  0  0  0  0  0  0  0  0  0  0
   -3.2810    1.2710    0.1890 C   0  0  0  0  0  0  0  0  0  0  0  0
   -2.6310    2.4790    0.3950 C   0  0  0  0  0  0  0  0  0  0  0  0
   -3.5540    3.9990    0.5160 Cl  0  0  0  0  0  0  0  0  0  0  0  0
   -1.2730    2.5200    0.4970 C   0  0  0  0  0  0  0  0  0  0  0  0
   -0.5590    1.3390    0.3940 C   0  0  0  0  0  0  0  0  0  0  0  0
   -1.2050    0.1580    0.1890 C   0  0  0  0  0  0  0  0  0  0  0  0
   -0.4480   -1.0580    0.0760 O   0  0  0  0  0  0  0  0  0  0  0  0
    0.9400   -0.8340    0.1440 C   0  0  0  0  0  0  0  0  0  0  0  0
    1.7540   -1.1680    1.1780 C   0  0  0  0  0  0  0  0  0  0  0  0
    3.1240   -0.8880    1.1390 C   0  0  0  0  0  0  0  0  0  0  0  0
    3.6330   -0.2680    0.0440 C   0  0  0  0  0  0  0  0  0  0  0  0
    5.0110    0.2250   -0.0470 C   0  0  1  0  0  0  0  0  0  0  0  0
    6.0670   -0.8490   -0.1340 C   0  0  0  0  0  0  0  0  0  0  0  0
    5.2200    1.3220   -0.8430 O   0  0  0  0  0  0  0  0  0  0  0  0
    2.8180    0.0910   -1.0490 C   0  0  0  0  0  0  0  0  0  0  0  0
    3.5200    0.8410   -2.4600 Cl  0  0  0  0  0  0  0  0  0  0  0  0
    1.4700   -0.2100   -0.9700 C   0  0  0  0  0  0  0  0  0  0  0  0
   -2.5980    0.0550    0.0750 C   0  0  0  0  0  0  0  0  0  0  0  0
   -3.2310   -1.1310   -0.1410 C   0  0  0  0  0  0  0  0  0  0  0  0
  1  2  1  0
  2  3  2  0
  2 23  1  0
  3  4  1  0
  4  5  2  0
  5  6  1  0
  5 22  1  0
  6  7  1  0
  6  8  2  0
  8  9  1  0
  9 10  2  0
 10 11  1  0
 10 22  1  0
 11 12  1  0
 12 13  2  0
 12 21  1  0
 13 14  1  0
 14 15  2  0
 15 16  1  0
 15 19  1  0
 16 17  1  6
 16 18  1  0
 19 20  1  0
 19 21  2  0
 22 23  2  0
M  END
