
     RDKit          3D

 17 18  0  0  0  0  0  0  0  0999 V2000
   -2.8710   -0.7160   -2.2010 C   0  0  0  0  0  0  0  0  0  0  0  0
   -2.3760   -0.6180   -0.9870 C   0  0  0  0  0  0  0  0  0  0  0  0
   -1.0590   -1.2160   -0.6900 C   0  0  0  0  0  0  0  0  0  0  0  0
   -0.4160   -0.6730    0.4510 N   0  0  0  0  0  0  0  0  0  0  0  0
    0.7170   -1.4030    0.9190 C   0  0  0  0  0  0  0  0  0  0  0  0
    1.8090   -1.2610   -0.1480 C   0  0  0  0  0  0  0  0  0  0  0  0
    2.1890    0.1390   -0.3770 C   0  0  0  0  0  0  0  0  0  0  0  0
    3.4490    0.5310   -0.1740 C   0  0  0  0  0  0  0  0  0  0  0  0
    4.5980   -0.2320    0.2650 C   0  0  0  0  0  0  0  0  0  0  0  0
    5.6830    0.5300    0.3430 C   0  0  0  0  0  0  0  0  0  0  0  0
    5.2760    1.8970   -0.0610 C   0  0  0  0  0  0  0  0  0  0  0  0
    3.9110    1.8350   -0.3620 O   0  0  0  0  0  0  0  0  0  0  0  0
   -1.1570    0.0240    1.4060 C   0  0  0  0  0  0  0  0  0  0  0  0
   -2.6360   -0.1660    1.4320 C   0  0  0  0  0  0  0  0  0  0  0  0
   -3.1370    0.0790    0.0490 C   0  0  0  0  0  0  0  0  0  0  0  0
   -4.1730    0.8600   -0.1930 C   0  0  0  0  0  0  0  0  0  0  0  0
   -4.8030    1.4640    0.9290 N   0  0  0  0  0  0  0  0  0  0  0  0
  1  2  2  0
  2  3  1  0
  2 15  1  0
  3  4  1  0
  4  5  1  0
  4 13  1  0
  5  6  1  0
  6  7  1  0
  7  8  2  3
  8  9  1  0
  8 12  1  0
  9 10  2  0
 10 11  1  0
 11 12  1  0
 13 14  1  0
 14 15  1  0
 15 16  2  3
 16 17  1  0
M  CHG  1  17   1
M  END
