
     RDKit          3D

 23 25  0  0  0  0  0  0  0  0999 V2000
    5.1240    1.3010   -1.3030 C   0  0  0  0  0  0  0  0  0  0  0  0
    4.1140    0.5800   -0.4840 C   0  0  0  0  0  0  0  0  0  0  0  0
    2.7540    0.7460   -0.7510 C   0  0  0  0  0  0  0  0  0  0  0  0
    1.7970    0.0940   -0.0120 C   0  0  0  0  0  0  0  0  0  0  0  0
    0.3510    0.2730   -0.3000 C   0  0  0  0  0  0  0  0  0  0  0  0
   -0.1420    1.0740   -1.2900 C   0  0  0  0  0  0  0  0  0  0  0  0
   -1.5370    0.9560   -1.2170 C   0  0  0  0  0  0  0  0  0  0  0  0
   -2.4330    1.6930   -2.1310 C   0  0  0  0  0  0  0  0  0  0  0  0
   -1.6520    2.4660   -3.0410 O   0  0  0  0  0  0  0  0  0  0  0  0
   -1.8130    0.1070   -0.2080 C   0  0  0  0  0  0  0  0  0  0  0  0
   -3.1040   -0.3590    0.2920 C   0  0  0  0  0  0  0  0  0  0  0  0
   -4.2920   -0.0260   -0.2600 C   0  0  0  0  0  0  0  0  0  0  0  0
   -5.4960   -0.5130    0.2990 C   0  0  0  0  0  0  0  0  0  0  0  0
   -5.5210   -1.3270    1.3980 C   0  0  0  0  0  0  0  0  0  0  0  0
   -4.3080   -1.6640    1.9560 C   0  0  0  0  0  0  0  0  0  0  0  0
   -3.1340   -1.1940    1.4190 C   0  0  0  0  0  0  0  0  0  0  0  0
   -0.6410   -0.2740    0.3110 O   0  0  0  0  0  0  0  0  0  0  0  0
    2.1670   -0.7430    1.0160 C   0  0  0  0  0  0  0  0  0  0  0  0
    0.9740   -1.5900    1.9780 Cl  0  0  0  0  0  0  0  0  0  0  0  0
    3.5210   -0.9420    1.3230 C   0  0  0  0  0  0  0  0  0  0  0  0
    3.8980   -1.8500    2.4370 C   0  0  0  0  0  0  0  0  0  0  0  0
    4.4490   -0.2660    0.5540 C   0  0  0  0  0  0  0  0  0  0  0  0
    6.1590   -0.5010    0.9220 Cl  0  0  0  0  0  0  0  0  0  0  0  0
  1  2  1  0
  2  3  2  0
  2 22  1  0
  3  4  1  0
  4  5  1  0
  4 18  2  0
  5  6  2  0
  5 17  1  0
  6  7  1  0
  7  8  1  0
  7 10  2  0
  8  9  1  0
 10 11  1  0
 10 17  1  0
 11 12  2  0
 11 16  1  0
 12 13  1  0
 13 14  2  0
 14 15  1  0
 15 16  2  0
 18 19  1  0
 18 20  1  0
 20 21  1  0
 20 22  2  0
 22 23  1  0
M  END
