
     RDKit          3D

 23 25  0  0  0  0  0  0  0  0999 V2000
   -5.6660    1.5720    0.1240 C   0  0  0  0  0  0  0  0  0  0  0  0
   -4.2160    1.4690   -0.0600 C   0  0  0  0  0  0  0  0  0  0  0  0
   -3.6400    0.2230   -0.0410 C   0  0  0  0  0  0  0  0  0  0  0  0
   -4.4590   -0.9120    0.1530 C   0  0  0  0  0  0  0  0  0  0  0  0
   -4.2830   -2.1420    0.2850 C   0  0  0  0  0  0  0  0  0  0  0  0
   -2.8450   -3.0820    0.3020 Cl  0  0  0  0  0  0  0  0  0  0  0  0
   -2.2030    0.2480   -0.1880 C   0  0  0  0  0  0  0  0  0  0  0  0
   -1.4950   -0.7070   -0.8470 C   0  0  0  0  0  0  0  0  0  0  0  0
   -0.0920   -0.6950   -0.8560 C   0  0  0  0  0  0  0  0  0  0  0  0
    0.5840    0.3160   -0.1790 C   0  0  0  0  0  0  0  0  0  0  0  0
    2.0250    0.2640   -0.2340 C   0  0  0  0  0  0  0  0  0  0  0  0
    2.8120    1.3610   -0.4940 C   0  0  0  0  0  0  0  0  0  0  0  0
    4.1850    1.2470   -0.5320 C   0  0  0  0  0  0  0  0  0  0  0  0
    4.8050    0.0430   -0.3120 C   0  0  0  0  0  0  0  0  0  0  0  0
    4.0460   -1.0770   -0.0480 C   0  0  0  0  0  0  0  0  0  0  0  0
    2.6610   -0.9340   -0.0160 C   0  0  0  0  0  0  0  0  0  0  0  0
    4.9480   -2.2030    0.1440 C   0  0  0  0  0  0  0  0  0  0  0  0
    4.5780   -3.3860    0.4030 O   0  0  0  0  0  0  0  0  0  0  0  0
    6.2520   -1.7700   -0.0030 O   0  0  0  0  0  0  0  0  0  0  0  0
    6.2100   -0.3950   -0.2840 C   0  0  0  0  0  0  0  0  0  0  0  0
   -0.1030    1.3020    0.4950 C   0  0  0  0  0  0  0  0  0  0  0  0
    0.7860    2.5550    1.3330 Cl  0  0  0  0  0  0  0  0  0  0  0  0
   -1.4650    1.2550    0.4820 C   0  0  0  0  0  0  0  0  0  0  0  0
  1  2  1  0
  2  3  2  3
  3  4  1  0
  3  7  1  0
  4  5  2  3
  5  6  1  0
  7  8  2  0
  7 23  1  0
  8  9  1  0
  9 10  2  0
 10 11  1  0
 10 21  1  0
 11 12  2  0
 11 16  1  0
 12 13  1  0
 13 14  2  0
 14 15  1  0
 14 20  1  0
 15 16  2  0
 15 17  1  0
 17 18  2  0
 17 19  1  0
 19 20  1  0
 21 22  1  0
 21 23  2  0
M  END
