
     RDKit          3D

 23 25  0  0  0  0  0  0  0  0999 V2000
   -6.0770    1.9860    0.3130 C   0  0  0  0  0  0  0  0  0  0  0  0
   -5.2910    0.7220    0.2900 C   0  0  0  0  0  0  0  0  0  0  0  0
   -5.9720   -0.4800    0.1500 C   0  0  0  0  0  0  0  0  0  0  0  0
   -5.2390   -1.6420    0.0740 C   0  0  0  0  0  0  0  0  0  0  0  0
   -6.1120   -3.1710   -0.1040 Cl  0  0  0  0  0  0  0  0  0  0  0  0
   -3.8350   -1.6020    0.1380 C   0  0  0  0  0  0  0  0  0  0  0  0
   -3.1590   -0.4250    0.2760 C   0  0  0  0  0  0  0  0  0  0  0  0
   -1.7020   -0.3490    0.5030 C   0  0  2  0  0  0  0  0  0  0  0  0
   -1.4600    0.3830    1.6390 O   0  0  0  0  0  0  0  0  0  0  0  0
   -0.9120   -0.0380   -0.7130 C   0  0  0  0  0  0  0  0  0  0  0  0
    0.5430   -0.0060   -0.3850 C   0  0  0  0  0  0  0  0  0  0  0  0
    1.0270    0.9130    0.5100 C   0  0  0  0  0  0  0  0  0  0  0  0
    2.3860    1.0180    0.7800 C   0  0  0  0  0  0  0  0  0  0  0  0
    3.3210    0.2070    0.1620 C   0  0  0  0  0  0  0  0  0  0  0  0
    2.8190   -0.7270   -0.7530 C   0  0  0  0  0  0  0  0  0  0  0  0
    1.4620   -0.8120   -1.0020 C   0  0  0  0  0  0  0  0  0  0  0  0
    4.0260   -1.4020   -1.2970 C   0  0  0  0  0  0  0  0  0  0  0  0
    5.1140   -0.5380   -0.9980 O   0  0  0  0  0  0  0  0  0  0  0  0
    4.7930    0.0390    0.2160 C   0  0  1  0  0  0  0  0  0  0  0  0
    5.3960    1.4180    0.4180 C   0  0  0  0  0  0  0  0  0  0  0  0
    5.2410   -0.8680    1.3360 C   0  0  0  0  0  0  0  0  0  0  0  0
   -3.9150    0.7540    0.3540 C   0  0  0  0  0  0  0  0  0  0  0  0
   -3.1760    2.3460    0.4810 Cl  0  0  0  0  0  0  0  0  0  0  0  0
  1  2  1  0
  2  3  2  0
  2 22  1  0
  3  4  1  0
  4  5  1  0
  4  6  2  0
  6  7  1  0
  7  8  1  0
  7 22  2  0
  8  9  1  1
  8 10  1  0
 10 11  1  0
 11 12  2  0
 11 16  1  0
 12 13  1  0
 13 14  2  0
 14 15  1  0
 14 19  1  0
 15 16  2  0
 15 17  1  0
 17 18  1  0
 18 19  1  0
 19 20  1  1
 19 21  1  0
 22 23  1  0
M  END
