
     RDKit          3D

 23 25  0  0  0  0  0  0  0  0999 V2000
    2.8760   -1.8480   -1.8640 C   0  0  0  0  0  0  0  0  0  0  0  0
    2.9410   -1.1680   -0.8000 O   0  0  0  0  0  0  0  0  0  0  0  0
    3.0100   -0.4810    0.2810 C   0  0  0  0  0  0  0  0  0  0  0  0
    3.7450   -0.8260    1.4300 C   0  0  0  0  0  0  0  0  0  0  0  0
    3.8090   -0.0650    2.5510 C   0  0  0  0  0  0  0  0  0  0  0  0
    4.7280   -0.6040    3.9680 Cl  0  0  0  0  0  0  0  0  0  0  0  0
    3.1250    1.1230    2.5880 C   0  0  0  0  0  0  0  0  0  0  0  0
    3.1790    2.1100    4.0210 Cl  0  0  0  0  0  0  0  0  0  0  0  0
    2.3750    1.5070    1.4630 C   0  0  0  0  0  0  0  0  0  0  0  0
    2.3260    0.7270    0.3680 C   0  0  0  0  0  0  0  0  0  0  0  0
    1.2400    0.9500   -0.6730 C   0  0  0  0  0  0  0  0  0  0  0  0
   -0.0200    0.9570    0.1980 C   0  0  2  0  0  0  0  0  0  0  0  0
    0.2990   -0.3440    0.8920 O   0  0  0  0  0  0  0  0  0  0  0  0
   -1.3060    0.6070   -0.3730 C   0  0  0  0  0  0  0  0  0  0  0  0
   -1.9450    1.3730   -1.3360 C   0  0  0  0  0  0  0  0  0  0  0  0
   -1.2620    2.4690   -2.0540 C   0  0  0  0  0  0  0  0  0  0  0  0
   -3.2670    1.1210   -1.6980 C   0  0  0  0  0  0  0  0  0  0  0  0
   -4.0160    0.1310   -1.1570 C   0  0  0  0  0  0  0  0  0  0  0  0
   -3.4050   -0.6560   -0.1910 C   0  0  0  0  0  0  0  0  0  0  0  0
   -2.0900   -0.4190    0.1870 C   0  0  0  0  0  0  0  0  0  0  0  0
   -1.8610   -1.4090    1.2550 C   0  0  0  0  0  0  0  0  0  0  0  0
   -2.9290   -2.1540    1.4760 C   0  0  0  0  0  0  0  0  0  0  0  0
   -4.0040   -1.7670    0.5830 C   0  0  0  0  0  0  0  0  0  0  0  0
  1  2  1  0
  2  3  1  0
  3  4  2  0
  3 10  1  0
  4  5  1  0
  5  6  1  0
  5  7  2  0
  7  8  1  0
  7  9  1  0
  9 10  2  0
 10 11  1  0
 11 12  1  0
 12 13  1  1
 12 14  1  0
 14 15  2  0
 14 20  1  0
 15 16  1  0
 15 17  1  0
 17 18  2  0
 18 19  1  0
 19 20  2  0
 19 23  1  0
 20 21  1  0
 21 22  2  0
 22 23  1  0
M  END
