
     RDKit          3D

 23 25  0  0  0  0  0  0  0  0999 V2000
   -3.9600    0.1800   -1.3490 C   0  0  0  0  0  0  0  0  0  0  0  0
   -3.0710   -0.8620   -0.8680 C   0  0  0  0  0  0  0  0  0  0  0  0
   -3.8980   -2.4750   -0.8540 Cl  0  0  0  0  0  0  0  0  0  0  0  0
   -1.8320   -0.8460   -0.4570 C   0  0  0  0  0  0  0  0  0  0  0  0
   -1.0540   -2.0040    0.0070 C   0  0  0  0  0  0  0  0  0  0  0  0
   -1.3710   -3.3250    0.1140 C   0  0  0  0  0  0  0  0  0  0  0  0
   -0.4480   -4.2930    0.5770 C   0  0  0  0  0  0  0  0  0  0  0  0
    0.8030   -3.8960    0.9280 C   0  0  0  0  0  0  0  0  0  0  0  0
    2.0070   -5.0550    1.5130 Cl  0  0  0  0  0  0  0  0  0  0  0  0
    1.1100   -2.5540    0.8140 C   0  0  0  0  0  0  0  0  0  0  0  0
    0.2250   -1.5860    0.3660 C   0  0  0  0  0  0  0  0  0  0  0  0
    0.2930   -0.1490    0.1420 C   0  0  0  0  0  0  0  0  0  0  0  0
    1.3440    0.7230    0.3360 C   0  0  0  0  0  0  0  0  0  0  0  0
    2.5990    0.3360    0.9500 C   0  0  0  0  0  0  0  0  0  0  0  0
    3.6380    1.1450    0.9280 C   0  0  0  0  0  0  0  0  0  0  0  0
    4.9200    0.7590    1.5530 C   0  0  0  0  0  0  0  0  0  0  0  0
    4.9860   -0.3670    2.1070 O   0  0  0  0  0  0  0  0  0  0  0  0
    1.1600    2.0760    0.0200 C   0  0  0  0  0  0  0  0  0  0  0  0
   -0.0220    2.5310   -0.4640 C   0  0  0  0  0  0  0  0  0  0  0  0
   -0.2180    3.9900   -0.8050 C   0  0  0  0  0  0  0  0  0  0  0  0
   -1.0770    1.6600   -0.6550 C   0  0  0  0  0  0  0  0  0  0  0  0
   -2.2550    2.1670   -1.1450 O   0  0  0  0  0  0  0  0  0  0  0  0
   -0.9390    0.3270   -0.3590 C   0  0  0  0  0  0  0  0  0  0  0  0
  1  2  1  0
  2  3  1  0
  2  4  2  3
  4  5  1  0
  4 23  1  0
  5  6  2  0
  5 11  1  0
  6  7  1  0
  7  8  2  0
  8  9  1  0
  8 10  1  0
 10 11  2  0
 11 12  1  0
 12 13  2  0
 12 23  1  0
 13 14  1  0
 13 18  1  0
 14 15  2  3
 15 16  1  0
 16 17  2  0
 18 19  2  0
 19 20  1  0
 19 21  1  0
 21 22  1  0
 21 23  2  0
M  END
