
     RDKit          3D

 44 48  0  0  0  0  0  0  0  0999 V2000
    7.2980   -0.3400    3.4330 C   0  0  0  0  0  0  0  0  0  0  0  0
    7.3170    1.1300    3.3810 C   0  0  0  0  0  0  0  0  0  0  0  0
    7.8910    1.8170    4.4170 C   0  0  0  0  0  0  0  0  0  0  0  0
    7.9450    3.1780    4.4400 C   0  0  0  0  0  0  0  0  0  0  0  0
    7.4020    3.8620    3.3840 C   0  0  0  0  0  0  0  0  0  0  0  0
    6.8120    3.1460    2.3200 C   0  0  0  0  0  0  0  0  0  0  0  0
    6.7520    1.7950    2.2850 C   0  0  0  0  0  0  0  0  0  0  0  0
    6.1740    1.0430    1.2360 N   0  0  0  0  0  0  0  0  0  0  0  0
    5.5520    1.5540    0.0920 C   0  0  0  0  0  0  0  0  0  0  0  0
    5.4770    2.8290   -0.0480 O   0  0  0  0  0  0  0  0  0  0  0  0
    4.9670    0.7080   -0.9800 C   0  0  0  0  0  0  0  0  0  0  0  0
    5.1140   -0.6770   -0.7670 N   0  0  2  0  0  0  0  0  0  0  0  0
    6.4420   -1.1430   -1.1930 C   0  0  0  0  0  0  0  0  0  0  0  0
    6.4070   -2.6030   -1.5660 C   0  0  0  0  0  0  0  0  0  0  0  0
    5.6980   -2.7470   -2.8940 C   0  0  0  0  0  0  0  0  0  0  0  0
    4.6170   -1.6520   -2.9090 C   0  0  0  0  0  0  0  0  0  0  0  0
    4.1520   -1.5190   -1.4950 C   0  0  2  0  0  0  0  0  0  0  0  0
    2.7440   -1.0280   -1.4060 C   0  0  0  0  0  0  0  0  0  0  0  0
    1.8190   -1.9800   -2.1290 C   0  0  0  0  0  0  0  0  0  0  0  0
    0.3970   -1.5140   -2.0100 C   0  0  0  0  0  0  0  0  0  0  0  0
   -0.2100   -0.6750   -2.8900 C   0  0  0  0  0  0  0  0  0  0  0  0
   -1.5200   -0.3140   -2.6860 C   0  0  0  0  0  0  0  0  0  0  0  0
   -2.2900   -0.7590   -1.6130 C   0  0  0  0  0  0  0  0  0  0  0  0
   -3.6940   -0.3740   -1.4870 C   0  0  0  0  0  0  0  0  0  0  0  0
   -4.1920    0.2420   -2.4980 O   0  0  0  0  0  0  0  0  0  0  0  0
   -4.4980   -0.6560   -0.2880 C   0  0  2  0  0  0  0  0  0  0  0  0
   -5.9310   -0.3920   -0.6410 C   0  0  2  0  0  0  0  0  0  0  0  0
   -6.3190   -1.4530   -1.6500 C   0  0  0  0  0  0  0  0  0  0  0  0
   -7.7390   -1.3270   -2.1050 C   0  0  0  0  0  0  0  0  0  0  0  0
   -7.9740   -2.4620   -3.1130 C   0  0  0  0  0  0  0  0  0  0  0  0
   -7.7320   -3.6430   -2.3940 O   0  0  0  0  0  0  0  0  0  0  0  0
   -6.2130    0.9400   -1.1380 N   0  0  0  0  0  0  0  0  0  0  0  0
   -6.0020    2.1630   -0.4360 C   0  0  0  0  0  0  0  0  0  0  0  0
   -6.5260    3.1810   -0.8610 O   0  0  0  0  0  0  0  0  0  0  0  0
   -5.1680    2.2140    0.7850 C   0  0  2  0  0  0  0  0  0  0  0  0
   -4.9650    3.4570    1.4920 C   0  0  0  0  0  0  0  0  0  0  0  0
   -4.8890    3.1420    2.9820 C   0  0  0  0  0  0  0  0  0  0  0  0
   -3.9640    2.0480    3.3700 C   0  0  0  0  0  0  0  0  0  0  0  0
   -4.4550    0.6500    3.3160 C   0  0  0  0  0  0  0  0  0  0  0  0
   -4.5830   -0.1340    2.1110 C   0  0  0  0  0  0  0  0  0  0  0  0
   -3.9700    0.2260    0.8390 C   0  0  2  0  0  0  0  0  0  0  0  0
   -3.9170    1.5770    0.4320 N   0  0  0  0  0  0  0  0  0  0  0  0
   -1.6610   -1.6060   -0.7340 C   0  0  0  0  0  0  0  0  0  0  0  0
   -0.3280   -1.9740   -0.9390 C   0  0  0  0  0  0  0  0  0  0  0  0
  1  2  1  0
  2  3  2  0
  2  7  1  0
  3  4  1  0
  4  5  2  0
  5  6  1  0
  6  7  2  0
  7  8  1  0
  8  9  1  0
  9 10  2  0
  9 11  1  0
 12 11  1  6
 12 13  1  0
 12 17  1  0
 13 14  1  0
 14 15  1  0
 15 16  1  0
 16 17  1  0
 17 18  1  6
 18 19  1  0
 19 20  1  0
 20 21  2  0
 20 44  1  0
 21 22  1  0
 22 23  2  0
 23 24  1  0
 23 43  1  0
 24 25  2  0
 26 24  1  6
 26 27  1  0
 26 41  1  0
 27 28  1  6
 27 32  1  0
 28 29  1  0
 29 30  1  0
 30 31  1  0
 32 33  1  0
 33 34  2  0
 33 35  1  0
 35 36  1  6
 35 42  1  0
 36 37  1  0
 37 38  1  0
 38 39  1  0
 39 40  1  0
 41 40  1  1
 41 42  1  0
 43 44  2  0
M  CHG  2  12   1  42   1
M  END
