
     RDKit          3D

 10 11  0  0  0  0  0  0  0  0999 V2000
    3.3890   -0.5800   -0.1060 N   0  0  0  0  0  0  0  0  0  0  0  0
    1.9710   -0.3730   -0.0410 C   0  0  0  0  0  0  0  0  0  0  0  0
    1.0740   -1.1780    0.5550 N   0  0  0  0  0  0  0  0  0  0  0  0
   -0.1700   -0.6720    0.4200 C   0  0  0  0  0  0  0  0  0  0  0  0
   -1.4240   -1.0860    0.8310 C   0  0  0  0  0  0  0  0  0  0  0  0
   -2.5490   -0.3600    0.5490 C   0  0  0  0  0  0  0  0  0  0  0  0
   -2.4210    0.8180   -0.1670 C   0  0  0  0  0  0  0  0  0  0  0  0
   -1.1900    1.2570   -0.5910 C   0  0  0  0  0  0  0  0  0  0  0  0
   -0.0630    0.5050   -0.2930 C   0  0  0  0  0  0  0  0  0  0  0  0
    1.2550    0.6450   -0.5510 N   0  0  0  0  0  0  0  0  0  0  0  0
  1  2  1  0
  2  3  2  0
  2 10  1  0
  3  4  1  0
  4  5  2  0
  4  9  1  0
  5  6  1  0
  6  7  2  0
  7  8  1  0
  8  9  2  0
  9 10  1  0
M  END
