
     RDKit          3D

 45 49  0  0  0  0  0  0  0  0999 V2000
   10.2780   -0.5060    0.4450 C   0  0  0  0  0  0  0  0  0  0  0  0
   10.0780   -0.1270   -0.8140 O   0  0  0  0  0  0  0  0  0  0  0  0
    9.2830   -0.7090   -1.7030 C   0  0  0  0  0  0  0  0  0  0  0  0
    7.8130   -0.8330   -1.4180 C   0  0  0  0  0  0  0  0  0  0  0  0
    7.5260   -1.7260   -0.2920 C   0  0  0  0  0  0  0  0  0  0  0  0
    8.3020   -2.6220    0.3200 N   0  0  0  0  0  0  0  0  0  0  0  0
    7.6550   -3.2360    1.2330 O   0  0  0  0  0  0  0  0  0  0  0  0
    6.3930   -2.7980    1.3030 C   0  0  0  0  0  0  0  0  0  0  0  0
    5.3660   -3.2940    2.2550 C   0  0  0  0  0  0  0  0  0  0  0  0
    6.2650   -1.8270    0.3410 C   0  0  0  0  0  0  0  0  0  0  0  0
    5.1270   -0.9910   -0.0070 C   0  0  0  0  0  0  0  0  0  0  0  0
    5.3140    0.1040   -0.6330 O   0  0  0  0  0  0  0  0  0  0  0  0
    3.8110   -1.3620    0.3290 N   0  0  0  0  0  0  0  0  0  0  0  0
    2.6200   -0.6170    0.0670 C   0  0  0  0  0  0  0  0  0  0  0  0
    2.5760    0.6550    0.8160 C   0  0  1  0  0  0  0  0  0  0  0  0
    3.6330    1.4830    0.5140 O   0  0  0  0  0  0  0  0  0  0  0  0
    1.3160    1.4640    0.4950 C   0  0  0  0  0  0  0  0  0  0  0  0
    0.1020    0.7150    0.7340 N   0  0  0  0  0  0  0  0  0  0  0  0
   -0.9800    1.6110    0.9280 C   0  0  1  0  0  0  0  0  0  0  0  0
   -0.8620    2.9130    0.1550 C   0  0  0  0  0  0  0  0  0  0  0  0
   -2.0900    3.7160    0.4090 C   0  0  0  0  0  0  0  0  0  0  0  0
   -2.2120    4.9030   -0.1180 C   0  0  0  0  0  0  0  0  0  0  0  0
   -1.1360    5.4280   -0.9510 C   0  0  0  0  0  0  0  0  0  0  0  0
   -1.2670    6.6310   -1.4770 C   0  0  0  0  0  0  0  0  0  0  0  0
   -2.4980    7.4100   -1.2120 C   0  0  0  0  0  0  0  0  0  0  0  0
   -0.1630    7.1940   -2.3140 C   0  0  0  0  0  0  0  0  0  0  0  0
   -3.1700    3.2060    1.2640 C   0  0  0  0  0  0  0  0  0  0  0  0
   -4.0400    4.0170    1.9550 C   0  0  0  0  0  0  0  0  0  0  0  0
   -5.0300    3.4750    2.7420 C   0  0  0  0  0  0  0  0  0  0  0  0
   -5.1860    2.1180    2.8680 C   0  0  0  0  0  0  0  0  0  0  0  0
   -4.3010    1.2910    2.1650 C   0  0  0  0  0  0  0  0  0  0  0  0
   -3.3150    1.8390    1.3810 C   0  0  0  0  0  0  0  0  0  0  0  0
   -2.3370    1.0340    0.6180 C   0  0  2  0  0  0  0  0  0  0  0  0
   -2.4710   -0.3700    0.7550 N   0  0  0  0  0  0  0  0  0  0  0  0
   -3.4990   -0.8120   -0.1670 C   0  0  0  0  0  0  0  0  0  0  0  0
   -3.7720   -2.2830   -0.0810 C   0  0  2  0  0  0  0  0  0  0  0  0
   -2.6490   -3.1920   -0.3960 C   0  0  1  0  0  0  0  0  0  0  0  0
   -2.8690   -4.4710    0.3900 C   0  0  0  0  0  0  0  0  0  0  0  0
   -3.9860   -5.3040   -0.1230 C   0  0  0  0  0  0  0  0  0  0  0  0
   -5.3530   -4.9300    0.3180 C   0  0  0  0  0  0  0  0  0  0  0  0
   -5.7700   -3.5300    0.2250 C   0  0  0  0  0  0  0  0  0  0  0  0
   -5.0350   -2.6560   -0.6670 N   0  0  2  0  0  0  0  0  0  0  0  0
   -5.0270   -3.0780   -2.0140 C   0  0  0  0  0  0  0  0  0  0  0  0
   -3.7320   -3.2530   -2.6900 C   0  0  0  0  0  0  0  0  0  0  0  0
   -2.5250   -3.4360   -1.8610 C   0  0  0  0  0  0  0  0  0  0  0  0
  1  2  1  0
  2  3  1  0
  3  4  1  0
  4  5  1  0
  5  6  2  0
  5 10  1  0
  6  7  1  0
  7  8  1  0
  8  9  1  0
  8 10  2  0
 10 11  1  0
 11 12  2  0
 11 13  1  0
 13 14  1  0
 14 15  1  0
 15 16  1  6
 15 17  1  0
 17 18  1  0
 19 18  1  6
 19 20  1  0
 19 33  1  0
 20 21  1  0
 21 22  2  3
 21 27  1  0
 22 23  1  0
 23 24  2  3
 24 25  1  0
 24 26  1  0
 27 28  2  0
 27 32  1  0
 28 29  1  0
 29 30  2  0
 30 31  1  0
 31 32  2  0
 32 33  1  0
 33 34  1  1
 34 35  1  0
 36 35  1  6
 36 37  1  0
 36 42  1  0
 37 38  1  1
 37 45  1  0
 38 39  1  0
 39 40  1  0
 40 41  1  0
 42 41  1  1
 42 43  1  0
 43 44  1  0
 44 45  1  0
M  CHG  2  18   1  42   1
M  END
