
     RDKit          3D

 44 48  0  0  0  0  0  0  0  0999 V2000
    9.5800    2.1560   -0.7630 C   0  0  0  0  0  0  0  0  0  0  0  0
    8.4360    1.6460    0.0090 C   0  0  0  0  0  0  0  0  0  0  0  0
    7.2100    1.3820   -0.6290 C   0  0  0  0  0  0  0  0  0  0  0  0
    6.1380    0.9110    0.0750 C   0  0  0  0  0  0  0  0  0  0  0  0
    4.8710    0.6370   -0.5550 C   0  0  2  0  0  0  0  0  0  0  0  0
    4.7030    1.3700   -1.8750 C   0  0  0  0  0  0  0  0  0  0  0  0
    4.3420    2.7750   -1.3550 C   0  0  0  0  0  0  0  0  0  0  0  0
    3.3170    2.3650   -0.2920 C   0  0  0  0  0  0  0  0  0  0  0  0
    3.7110    1.0740    0.2190 N   0  0  1  0  0  0  0  0  0  0  0  0
    2.6690    0.0720    0.0070 C   0  0  1  0  0  0  0  0  0  0  0  0
    3.1170   -1.2660    0.5000 C   0  0  0  0  0  0  0  0  0  0  0  0
    1.3550    0.4490    0.6040 C   0  0  0  0  0  0  0  0  0  0  0  0
    0.3670   -0.6240    0.3310 C   0  0  0  0  0  0  0  0  0  0  0  0
    0.7920   -1.6530   -0.2850 O   0  0  0  0  0  0  0  0  0  0  0  0
   -0.9890   -0.5280    0.7270 N   0  0  0  0  0  0  0  0  0  0  0  0
   -1.5500    0.5940    1.4090 C   0  0  0  0  0  0  0  0  0  0  0  0
   -2.5070    1.2480    0.3610 C   0  0  2  0  0  0  0  0  0  0  0  0
   -2.9850    2.5470    0.8750 C   0  0  0  0  0  0  0  0  0  0  0  0
   -3.8640    3.3520   -0.0110 C   0  0  0  0  0  0  0  0  0  0  0  0
   -5.1490    2.7700   -0.4480 C   0  0  0  0  0  0  0  0  0  0  0  0
   -5.8480    3.8770   -1.2890 C   0  0  1  0  0  0  0  0  0  0  0  0
   -4.9800    4.1730   -2.3960 N   0  0  0  0  0  0  0  0  0  0  0  0
   -7.1650    3.2990   -1.7230 C   0  0  0  0  0  0  0  0  0  0  0  0
   -7.7980    4.2210   -2.5430 O   0  0  0  0  0  0  0  0  0  0  0  0
   -3.5690    0.2110    0.0860 C   0  0  0  0  0  0  0  0  0  0  0  0
   -3.2750   -1.1280    0.7690 C   0  0  0  0  0  0  0  0  0  0  0  0
   -1.8860   -1.6550    0.4150 C   0  0  2  0  0  0  0  0  0  0  0  0
   -1.5510   -2.8290    1.2110 C   0  0  0  0  0  0  0  0  0  0  0  0
   -0.6510   -2.6780    2.1290 O   0  0  0  0  0  0  0  0  0  0  0  0
   -2.1360   -4.0910    1.0640 N   0  0  0  0  0  0  0  0  0  0  0  0
   -2.0830   -5.0270    2.1980 C   0  0  0  0  0  0  0  0  0  0  0  0
   -3.2150   -6.0020    2.1850 C   0  0  0  0  0  0  0  0  0  0  0  0
   -4.4470   -5.4420    1.5100 C   0  0  0  0  0  0  0  0  0  0  0  0
   -4.0620   -5.1820    0.0950 C   0  0  0  0  0  0  0  0  0  0  0  0
   -4.7910   -5.5800   -0.9780 C   0  0  0  0  0  0  0  0  0  0  0  0
   -4.3460   -5.3300   -2.2810 C   0  0  0  0  0  0  0  0  0  0  0  0
   -3.1400   -4.6670   -2.4080 C   0  0  0  0  0  0  0  0  0  0  0  0
   -2.3920   -4.2590   -1.3160 C   0  0  0  0  0  0  0  0  0  0  0  0
   -2.8480   -4.5110   -0.0710 C   0  0  0  0  0  0  0  0  0  0  0  0
    6.3510    0.7180    1.4420 C   0  0  0  0  0  0  0  0  0  0  0  0
    7.5280    0.9700    2.0650 C   0  0  0  0  0  0  0  0  0  0  0  0
    8.5940    1.4410    1.3500 C   0  0  0  0  0  0  0  0  0  0  0  0
    9.8370    1.6930    2.0630 C   0  0  0  0  0  0  0  0  0  0  0  0
   10.8270    2.0980    1.4140 O   0  0  0  0  0  0  0  0  0  0  0  0
  1  2  1  0
  2  3  2  0
  2 42  1  0
  3  4  1  0
  5  4  1  1
  4 40  2  0
  5  6  1  0
  5  9  1  0
  6  7  1  0
  7  8  1  0
  9  8  1  6
  9 10  1  0
 10 11  1  1
 10 12  1  0
 12 13  1  0
 13 14  2  0
 13 15  1  0
 15 16  1  0
 15 27  1  0
 16 17  1  0
 17 18  1  1
 17 25  1  0
 18 19  1  0
 19 20  1  0
 20 21  1  0
 21 22  1  6
 21 23  1  0
 23 24  1  0
 25 26  1  0
 26 27  1  0
 27 28  1  1
 28 29  2  0
 28 30  1  0
 30 31  1  0
 30 39  1  0
 31 32  1  0
 32 33  1  0
 33 34  1  0
 34 35  2  0
 34 39  1  0
 35 36  1  0
 36 37  2  0
 37 38  1  0
 38 39  2  0
 40 41  1  0
 41 42  2  0
 42 43  1  0
 43 44  2  0
M  CHG  2   9   1  22   1
M  END
