
     RDKit          3D

 45 50  0  0  0  0  0  0  0  0999 V2000
   -0.3030   -2.3920   -3.1940 C   0  0  0  0  0  0  0  0  0  0  0  0
   -0.9420   -2.0230   -1.9980 O   0  0  0  0  0  0  0  0  0  0  0  0
   -1.9640   -1.0830   -1.9630 C   0  0  0  0  0  0  0  0  0  0  0  0
   -2.4050   -0.4360   -3.0890 C   0  0  0  0  0  0  0  0  0  0  0  0
   -3.4190    0.4840   -3.0400 C   0  0  0  0  0  0  0  0  0  0  0  0
   -3.9910    0.7470   -1.8220 C   0  0  0  0  0  0  0  0  0  0  0  0
   -5.0970    1.7590   -1.8000 C   0  0  0  0  0  0  0  0  0  0  0  0
   -3.5630    0.1090   -0.6830 C   0  0  0  0  0  0  0  0  0  0  0  0
   -2.5230   -0.8350   -0.7200 C   0  0  0  0  0  0  0  0  0  0  0  0
   -2.0600   -1.5300    0.4410 C   0  0  0  0  0  0  0  0  0  0  0  0
   -0.9940   -1.7670    1.0940 C   0  0  0  0  0  0  0  0  0  0  0  0
    0.3150   -1.2330    0.7310 C   0  0  0  0  0  0  0  0  0  0  0  0
    1.4370   -1.7110    1.2210 C   0  0  0  0  0  0  0  0  0  0  0  0
    1.3730   -2.8400    2.2020 C   0  0  0  0  0  0  0  0  0  0  0  0
    0.2150   -3.3300    2.5530 C   0  0  0  0  0  0  0  0  0  0  0  0
   -1.0260   -2.8750    2.0670 N   0  0  0  0  0  0  0  0  0  0  0  0
   -2.2650   -3.3900    2.4250 C   0  0  0  0  0  0  0  0  0  0  0  0
   -2.9200   -2.7730    3.4990 C   0  0  0  0  0  0  0  0  0  0  0  0
   -4.1510   -3.2140    3.9330 C   0  0  0  0  0  0  0  0  0  0  0  0
   -4.7920   -4.2720    3.3380 C   0  0  0  0  0  0  0  0  0  0  0  0
   -4.1420   -4.8930    2.2630 C   0  0  0  0  0  0  0  0  0  0  0  0
   -2.9080   -4.4450    1.8340 C   0  0  0  0  0  0  0  0  0  0  0  0
    2.7420   -1.2080    0.8130 C   0  0  2  0  0  0  0  0  0  0  0  0
    3.2710   -0.5250    1.9250 O   0  0  0  0  0  0  0  0  0  0  0  0
    4.2660    0.2870    1.3590 C   0  0  0  0  0  0  0  0  0  0  0  0
    3.5550    0.8930    0.1650 C   0  0  0  0  0  0  0  0  0  0  0  0
    2.7520   -0.2990   -0.3250 C   0  0  1  0  0  0  0  0  0  0  0  0
    3.5770   -1.0200   -1.4210 C   0  0  0  0  0  0  0  0  0  0  0  0
    3.6950   -0.2800   -2.6150 N   0  0  0  0  0  0  0  0  0  0  0  0
    4.9630   -0.5860   -3.2560 C   0  0  1  0  0  0  0  0  0  0  0  0
    6.1570   -0.1490   -2.4250 C   0  0  0  0  0  0  0  0  0  0  0  0
    5.1100   -2.0290   -3.5760 C   0  0  0  0  0  0  0  0  0  0  0  0
    5.5980   -2.9190   -2.8260 N   0  0  0  0  0  0  0  0  0  0  0  0
    1.4450    0.1650   -0.9190 C   0  0  0  0  0  0  0  0  0  0  0  0
    0.3520    0.0190   -0.0020 N   0  0  0  0  0  0  0  0  0  0  0  0
   -0.6580    0.9590    0.3160 C   0  0  0  0  0  0  0  0  0  0  0  0
   -0.0510    2.2000    1.0600 C   0  0  2  0  0  0  0  0  0  0  0  0
    0.5750    1.8500    2.2760 N   0  0  0  0  0  0  0  0  0  0  0  0
   -1.2130    3.1550    1.1780 C   0  0  2  0  0  0  0  0  0  0  0  0
   -1.7760    3.5790   -0.1510 C   0  0  0  0  0  0  0  0  0  0  0  0
   -2.0090    5.0680   -0.2310 C   0  0  0  0  0  0  0  0  0  0  0  0
   -2.5730    5.6480    0.8590 O   0  0  0  0  0  0  0  0  0  0  0  0
   -2.2810    5.1250    2.0790 C   0  0  0  0  0  0  0  0  0  0  0  0
   -0.9520    4.3860    2.0030 C   0  0  1  0  0  0  0  0  0  0  0  0
   -0.6700    4.0750    3.3550 O   0  0  0  0  0  0  0  0  0  0  0  0
  1  2  1  0
  2  3  1  0
  3  4  2  0
  3  9  1  0
  4  5  1  0
  5  6  2  0
  6  7  1  0
  6  8  1  0
  8  9  2  0
  9 10  1  0
 10 11  2  3
 11 12  1  0
 11 16  1  0
 12 13  2  0
 12 35  1  0
 13 14  1  0
 13 23  1  0
 14 15  2  0
 15 16  1  0
 16 17  1  0
 17 18  2  0
 17 22  1  0
 18 19  1  0
 19 20  2  0
 20 21  1  0
 21 22  2  0
 23 24  1  1
 23 27  1  0
 24 25  1  0
 25 26  1  0
 26 27  1  0
 27 28  1  6
 27 34  1  0
 28 29  1  0
 29 30  1  0
 30 31  1  1
 30 32  1  0
 32 33  2  0
 34 35  1  0
 35 36  1  0
 36 37  1  0
 37 38  1  1
 37 39  1  0
 39 40  1  6
 39 44  1  0
 40 41  1  0
 41 42  1  0
 42 43  1  0
 43 44  1  0
 44 45  1  1
M  CHG  2  29   1  38   1
M  END
