
     RDKit          3D

 19 20  0  0  0  0  0  0  0  0999 V2000
   -3.8040   -0.9890    1.0390 C   0  0  0  0  0  0  0  0  0  0  0  0
   -2.7440   -0.5420    0.0240 C   0  0  0  0  0  0  0  0  0  0  0  0
   -2.3710    0.8760    0.3110 C   0  0  2  0  0  0  0  0  0  0  0  0
   -3.5450    1.6430    0.1860 O   0  0  0  0  0  0  0  0  0  0  0  0
   -1.3540    1.4540   -0.6080 C   0  0  0  0  0  0  0  0  0  0  0  0
   -0.0890    0.7480   -0.6030 N   0  0  0  0  0  0  0  0  0  0  0  0
    0.0760   -0.2590   -1.4800 C   0  0  0  0  0  0  0  0  0  0  0  0
   -0.8220   -0.6110   -2.3040 O   0  0  0  0  0  0  0  0  0  0  0  0
    1.2570   -0.9210   -1.4740 N   0  0  0  0  0  0  0  0  0  0  0  0
    2.2660   -0.6190   -0.6370 C   0  0  0  0  0  0  0  0  0  0  0  0
    3.4700   -1.3180   -0.6540 C   0  0  0  0  0  0  0  0  0  0  0  0
    3.6270   -2.2510   -1.4650 O   0  0  0  0  0  0  0  0  0  0  0  0
    4.4450   -0.9720    0.2060 N   0  0  0  0  0  0  0  0  0  0  0  0
    4.2790    0.0460    1.0920 C   0  0  0  0  0  0  0  0  0  0  0  0
    5.2400    0.2940    1.8500 O   0  0  0  0  0  0  0  0  0  0  0  0
    3.1180    0.7190    1.1080 N   0  0  0  0  0  0  0  0  0  0  0  0
    2.1140    0.4110    0.2680 C   0  0  0  0  0  0  0  0  0  0  0  0
    0.9040    1.0750    0.2490 C   0  0  0  0  0  0  0  0  0  0  0  0
    0.7530    2.0170    1.0710 O   0  0  0  0  0  0  0  0  0  0  0  0
  1  2  1  0
  2  3  1  0
  3  4  1  6
  3  5  1  0
  5  6  1  0
  6  7  1  0
  6 18  1  0
  7  8  2  0
  7  9  1  0
  9 10  1  0
 10 11  1  0
 10 17  2  0
 11 12  2  0
 11 13  1  0
 13 14  1  0
 14 15  2  0
 14 16  1  0
 16 17  1  0
 17 18  1  0
 18 19  2  0
M  END
