
     RDKit          3D

 19 20  0  0  0  0  0  0  0  0999 V2000
   -4.7780    0.3710    1.7090 N   0  0  0  0  0  0  0  0  0  0  0  0
   -4.2620    0.5520    0.5920 C   0  0  0  0  0  0  0  0  0  0  0  0
   -4.8390    0.7720   -0.7390 C   0  0  0  0  0  0  0  0  0  0  0  0
   -3.8270    0.6310   -1.6900 O   0  0  0  0  0  0  0  0  0  0  0  0
   -2.7440    0.0210   -1.0170 C   0  0  1  0  0  0  0  0  0  0  0  0
   -1.5300    0.1650   -1.8340 C   0  0  0  0  0  0  0  0  0  0  0  0
   -0.3820   -0.3960   -1.3410 N   0  0  0  0  0  0  0  0  0  0  0  0
    0.3730    0.0550   -0.1260 C   0  0  0  0  0  0  0  0  0  0  0  0
   -0.0010    1.0120    0.4550 O   0  0  0  0  0  0  0  0  0  0  0  0
    1.4320   -0.8360    0.0520 N   0  0  0  0  0  0  0  0  0  0  0  0
    2.2800    0.0470    1.2760 C   0  0  0  0  0  0  0  0  0  0  0  0
    1.7220    1.0370    1.5870 O   0  0  0  0  0  0  0  0  0  0  0  0
    3.5230   -0.5830    1.6950 C   0  0  2  0  0  0  0  0  0  0  0  0
    4.7340    0.2730    1.2050 C   0  0  0  0  0  0  0  0  0  0  0  0
    4.7210   -0.1280   -0.1890 N   0  0  0  0  0  0  0  0  0  0  0  0
    4.4600   -1.5270   -0.1260 C   0  0  0  0  0  0  0  0  0  0  0  0
    4.7780   -2.3540   -1.0420 O   0  0  0  0  0  0  0  0  0  0  0  0
    3.8100   -1.8010    1.0900 O   0  0  0  0  0  0  0  0  0  0  0  0
   -2.7440    0.5920    0.3380 C   0  0  0  0  0  0  0  0  0  0  0  0
  1  2  2  0
  2  3  1  0
  2 19  1  0
  3  4  1  0
  4  5  1  0
  5  6  1  6
  5 19  1  0
  6  7  1  0
  7  8  1  0
  8  9  2  0
  8 10  1  0
 10 11  1  0
 11 12  2  0
 13 11  1  6
 13 14  1  0
 13 18  1  0
 14 15  1  0
 15 16  1  0
 16 17  2  0
 16 18  1  0
M  END
