
     RDKit          3D

 19 21  0  0  0  0  0  0  0  0999 V2000
   -4.8480    2.2310   -0.3780 O   0  0  0  0  0  0  0  0  0  0  0  0
   -4.2010    1.1540   -0.3200 C   0  0  0  0  0  0  0  0  0  0  0  0
   -4.7660   -0.0600   -0.4760 N   0  0  0  0  0  0  0  0  0  0  0  0
   -4.0460   -1.1950   -0.4080 C   0  0  0  0  0  0  0  0  0  0  0  0
   -2.7250   -1.1080   -0.1770 N   0  0  0  0  0  0  0  0  0  0  0  0
   -2.0890    0.0670   -0.0110 C   0  0  0  0  0  0  0  0  0  0  0  0
   -2.8320    1.2240   -0.0820 C   0  0  0  0  0  0  0  0  0  0  0  0
   -1.9670    2.2340    0.1150 N   0  0  0  0  0  0  0  0  0  0  0  0
   -0.7270    1.7380    0.3030 C   0  0  0  0  0  0  0  0  0  0  0  0
   -0.7930    0.3840    0.2260 N   0  0  0  0  0  0  0  0  0  0  0  0
    0.2940   -0.5760    0.3650 C   0  0  2  0  0  0  0  0  0  0  0  0
    1.1890   -0.2500    1.3390 O   0  0  0  0  0  0  0  0  0  0  0  0
    2.4550   -0.2590    0.8450 C   0  0  2  0  0  0  0  0  0  0  0  0
    3.1240    1.0560    1.2530 C   0  0  0  0  0  0  0  0  0  0  0  0
    4.4180    1.1470    0.7980 O   0  0  0  0  0  0  0  0  0  0  0  0
    2.4000   -0.3210   -0.6530 C   0  0  1  0  0  0  0  0  0  0  0  0
    3.3070   -1.2930   -1.0950 O   0  0  0  0  0  0  0  0  0  0  0  0
    0.9960   -0.7500   -0.9310 C   0  0  1  0  0  0  0  0  0  0  0  0
    1.0120   -2.0960   -1.3550 O   0  0  0  0  0  0  0  0  0  0  0  0
  1  2  2  0
  2  3  1  0
  2  7  1  0
  3  4  1  0
  4  5  2  0
  5  6  1  0
  6  7  2  0
  6 10  1  0
  7  8  1  0
  8  9  2  0
  9 10  1  0
 11 10  1  6
 11 12  1  0
 11 18  1  0
 12 13  1  0
 13 14  1  6
 13 16  1  0
 14 15  1  0
 16 17  1  1
 16 18  1  0
 18 19  1  1
M  END
