
     RDKit          3D

 19 20  0  0  0  0  0  0  0  0999 V2000
   -5.8520    0.5440    0.6070 C   0  0  0  0  0  0  0  0  0  0  0  0
   -4.4050    0.5070    0.3610 N   0  0  0  0  0  0  0  0  0  0  0  0
   -3.7370    1.6470    0.1290 C   0  0  0  0  0  0  0  0  0  0  0  0
   -4.4280    2.7220    0.1390 O   0  0  0  0  0  0  0  0  0  0  0  0
   -2.4540    1.6840   -0.0970 O   0  0  0  0  0  0  0  0  0  0  0  0
   -1.7390    0.5630   -0.1070 C   0  0  0  0  0  0  0  0  0  0  0  0
   -0.3720    0.6710   -0.3550 N   0  0  0  0  0  0  0  0  0  0  0  0
    0.5570   -0.4190   -0.4100 C   0  0  0  0  0  0  0  0  0  0  0  0
    1.9800    0.1200   -0.6950 C   0  0  2  0  0  0  0  0  0  0  0  0
    2.8840   -1.0570   -0.7940 C   0  0  0  0  0  0  0  0  0  0  0  0
    4.2850   -0.7290   -0.6670 N   0  0  0  0  0  0  0  0  0  0  0  0
    4.4410    0.1470    0.4980 C   0  0  1  0  0  0  0  0  0  0  0  0
    5.7790    0.4550    0.7090 O   0  0  0  0  0  0  0  0  0  0  0  0
    3.6080    1.3710    0.2100 C   0  0  0  0  0  0  0  0  0  0  0  0
    2.2710    0.9740    0.3550 O   0  0  0  0  0  0  0  0  0  0  0  0
   -2.3650   -0.6280    0.1230 C   0  0  0  0  0  0  0  0  0  0  0  0
   -1.7050   -1.8800    0.1380 N   0  0  0  0  0  0  0  0  0  0  0  0
   -3.7310   -0.6290    0.3600 C   0  0  0  0  0  0  0  0  0  0  0  0
   -4.3360   -1.7070    0.5740 O   0  0  0  0  0  0  0  0  0  0  0  0
  1  2  1  0
  2  3  1  0
  2 18  1  0
  3  4  2  0
  3  5  1  0
  5  6  1  0
  6  7  1  0
  6 16  2  0
  7  8  1  0
  9  8  1  1
  9 10  1  0
  9 15  1  0
 10 11  1  0
 11 12  1  0
 12 13  1  6
 12 14  1  0
 14 15  1  0
 16 17  1  0
 16 18  1  0
 18 19  2  0
M  END
