
     RDKit          3D

 19 20  0  0  0  0  0  0  0  0999 V2000
   -3.3670    2.4720   -1.5860 N   0  0  0  0  0  0  0  0  0  0  0  0
   -2.6760    1.6560   -0.6910 N   0  0  0  0  0  0  0  0  0  0  0  0
   -2.2950    0.3510   -1.1060 C   0  0  0  0  0  0  0  0  0  0  0  0
   -2.6160    0.0130   -2.2850 O   0  0  0  0  0  0  0  0  0  0  0  0
   -1.5730   -0.6070   -0.2830 C   0  0  1  0  0  0  0  0  0  0  0  0
   -0.2570    0.0260    0.0910 C   0  0  0  0  0  0  0  0  0  0  0  0
   -0.2850    1.1000    0.7430 O   0  0  0  0  0  0  0  0  0  0  0  0
    0.9840   -0.5380   -0.2620 N   0  0  0  0  0  0  0  0  0  0  0  0
    2.2380    0.0510    0.0850 C   0  0  0  0  0  0  0  0  0  0  0  0
    3.1130   -0.6040    0.8290 C   0  0  0  0  0  0  0  0  0  0  0  0
    4.4210   -0.0340    1.2110 C   0  0  0  0  0  0  0  0  0  0  0  0
    4.6790    1.2490    0.7350 O   0  0  0  0  0  0  0  0  0  0  0  0
    3.7790    1.9370   -0.0380 C   0  0  0  0  0  0  0  0  0  0  0  0
    2.6230    1.3830   -0.3520 C   0  0  0  0  0  0  0  0  0  0  0  0
   -2.2730   -1.0420    0.9580 C   0  0  0  0  0  0  0  0  0  0  0  0
   -2.6860   -2.4020    0.6980 N   0  0  0  0  0  0  0  0  0  0  0  0
   -1.9020   -2.8860   -0.3710 C   0  0  0  0  0  0  0  0  0  0  0  0
   -1.6930   -4.0820   -0.7330 O   0  0  0  0  0  0  0  0  0  0  0  0
   -1.3630   -1.7980   -1.0060 O   0  0  0  0  0  0  0  0  0  0  0  0
  1  2  1  0
  2  3  1  0
  3  4  2  0
  5  3  1  6
  5  6  1  0
  5 15  1  0
  5 19  1  0
  6  7  2  0
  6  8  1  0
  8  9  1  0
  9 10  2  0
  9 14  1  0
 10 11  1  0
 11 12  1  0
 12 13  1  0
 13 14  2  0
 15 16  1  0
 16 17  1  0
 17 18  2  0
 17 19  1  0
M  END
