
     RDKit          3D

 19 21  0  0  0  0  0  0  0  0999 V2000
    5.1700   -1.0620   -1.9360 O   0  0  0  0  0  0  0  0  0  0  0  0
    4.1770   -0.8300   -1.2290 C   0  0  0  0  0  0  0  0  0  0  0  0
    4.3750   -0.3820    0.1040 N   0  0  0  0  0  0  0  0  0  0  0  0
    3.3120   -0.1530    0.9630 N   0  0  0  0  0  0  0  0  0  0  0  0
    2.1370    0.3490    0.2200 C   0  0  2  0  0  0  0  0  0  0  0  0
    1.1640    0.7940    1.1360 N   0  0  0  0  0  0  0  0  0  0  0  0
   -0.1060    0.2670    1.4980 C   0  0  0  0  0  0  0  0  0  0  0  0
   -0.5480    0.5520    2.6540 O   0  0  0  0  0  0  0  0  0  0  0  0
   -0.9800   -0.5560    0.7310 N   0  0  0  0  0  0  0  0  0  0  0  0
   -2.3940   -0.4760    1.0250 C   0  0  0  0  0  0  0  0  0  0  0  0
   -3.1420    0.5490    0.2600 C   0  0  2  0  0  0  0  0  0  0  0  0
   -4.5070    0.5990    0.5610 O   0  0  0  0  0  0  0  0  0  0  0  0
   -2.7780    0.6660   -1.2150 C   0  0  0  0  0  0  0  0  0  0  0  0
   -2.5350    1.8100   -0.2110 C   0  0  0  0  0  0  0  0  0  0  0  0
   -0.5520   -1.4490   -0.2920 C   0  0  0  0  0  0  0  0  0  0  0  0
   -1.3770   -2.3350   -0.6190 O   0  0  0  0  0  0  0  0  0  0  0  0
    0.7530   -1.4350   -0.9980 C   0  0  0  0  0  0  0  0  0  0  0  0
    1.8110   -0.6820   -0.7450 C   0  0  0  0  0  0  0  0  0  0  0  0
    2.8550   -0.9800   -1.6510 O   0  0  0  0  0  0  0  0  0  0  0  0
  1  2  2  0
  2  3  1  0
  2 19  1  0
  3  4  1  0
  5  4  1  1
  5  6  1  0
  5 18  1  0
  6  7  1  0
  7  8  2  0
  7  9  1  0
  9 10  1  0
  9 15  1  0
 10 11  1  0
 11 12  1  6
 11 13  1  0
 11 14  1  0
 13 14  1  0
 15 16  2  0
 15 17  1  0
 17 18  2  0
 18 19  1  0
M  END
