
     RDKit          3D

 20 22  0  0  0  0  0  0  0  0999 V2000
    4.1430    2.0950   -0.0250 N   0  0  0  0  0  0  0  0  0  0  0  0
    3.6500    0.7660    0.0800 C   0  0  0  0  0  0  0  0  0  0  0  0
    2.3110    0.6290    0.1970 N   0  0  0  0  0  0  0  0  0  0  0  0
    1.7060   -0.5710    0.3050 C   0  0  0  0  0  0  0  0  0  0  0  0
    2.5180   -1.6830    0.2940 C   0  0  0  0  0  0  0  0  0  0  0  0
    1.6960   -2.7340    0.4120 N   0  0  0  0  0  0  0  0  0  0  0  0
    0.4220   -2.2930    0.4950 C   0  0  0  0  0  0  0  0  0  0  0  0
    0.4130   -0.9460    0.4300 N   0  0  0  0  0  0  0  0  0  0  0  0
   -0.6770   -0.0200    0.4740 C   0  0  2  0  0  0  0  0  0  0  0  0
   -1.8160   -0.5240    1.0380 O   0  0  0  0  0  0  0  0  0  0  0  0
   -2.9040    0.1660    0.5880 C   0  0  2  0  0  0  0  0  0  0  0  0
   -3.8290   -0.8480   -0.1000 C   0  0  0  0  0  0  0  0  0  0  0  0
   -4.9740   -0.2040   -0.5890 O   0  0  0  0  0  0  0  0  0  0  0  0
   -2.4350    1.1010   -0.5180 C   0  0  1  0  0  0  0  0  0  0  0  0
   -2.0790    2.3370    0.0190 O   0  0  0  0  0  0  0  0  0  0  0  0
   -1.1590    0.3630   -0.9250 C   0  0  1  0  0  0  0  0  0  0  0  0
   -0.2760    1.1730   -1.5850 O   0  0  0  0  0  0  0  0  0  0  0  0
    3.8870   -1.5210    0.1730 C   0  0  0  0  0  0  0  0  0  0  0  0
    4.6450   -2.5250    0.1610 O   0  0  0  0  0  0  0  0  0  0  0  0
    4.4510   -0.3100    0.0680 N   0  0  0  0  0  0  0  0  0  0  0  0
  1  2  1  0
  2  3  2  0
  2 20  1  0
  3  4  1  0
  4  5  2  0
  4  8  1  0
  5  6  1  0
  5 18  1  0
  6  7  2  0
  7  8  1  0
  9  8  1  6
  9 10  1  0
  9 16  1  0
 10 11  1  0
 11 12  1  6
 11 14  1  0
 12 13  1  0
 14 15  1  1
 14 16  1  0
 16 17  1  1
 18 19  2  0
 18 20  1  0
M  END
