
     RDKit          3D

 20 21  0  0  0  0  0  0  0  0999 V2000
   -2.3590   -1.8440    0.7880 N   0  0  0  0  0  0  0  0  0  0  0  0
   -2.6070   -0.5470    0.3280 C   0  0  0  0  0  0  0  0  0  0  0  0
   -1.6530    0.2340   -0.2030 C   0  0  0  0  0  0  0  0  0  0  0  0
   -0.3200   -0.3920   -0.2670 C   0  0  0  0  0  0  0  0  0  0  0  0
    0.7380    0.3200    0.1440 N   0  0  0  0  0  0  0  0  0  0  0  0
    2.0070   -0.1720    0.1160 C   0  0  0  0  0  0  0  0  0  0  0  0
    2.9910    0.5380    0.5230 N   0  0  0  0  0  0  0  0  0  0  0  0
    4.3120    0.0440    0.4990 C   0  0  0  0  0  0  0  0  0  0  0  0
    4.6850   -1.0090    1.0810 O   0  0  0  0  0  0  0  0  0  0  0  0
    5.3390    0.8000   -0.2550 C   0  0  0  0  0  0  0  0  0  0  0  0
    4.7890    1.9430   -0.8180 O   0  0  0  0  0  0  0  0  0  0  0  0
    2.1330   -1.4230   -0.3550 N   0  0  0  0  0  0  0  0  0  0  0  0
    1.0900   -2.1510   -0.7700 C   0  0  0  0  0  0  0  0  0  0  0  0
    1.2430   -3.3380   -1.2100 O   0  0  0  0  0  0  0  0  0  0  0  0
   -0.1460   -1.6460   -0.7310 N   0  0  0  0  0  0  0  0  0  0  0  0
   -1.9250    1.5000   -0.6350 O   0  0  0  0  0  0  0  0  0  0  0  0
   -3.1810    2.0920   -0.6760 C   0  0  0  0  0  0  0  0  0  0  0  0
   -4.2130    1.2350   -0.0870 C   0  0  0  0  0  0  0  0  0  0  0  0
   -5.5610    1.7010    0.0060 O   0  0  0  0  0  0  0  0  0  0  0  0
   -3.9300    0.0360    0.3620 C   0  0  0  0  0  0  0  0  0  0  0  0
  1  2  1  0
  2  3  2  0
  2 20  1  0
  3  4  1  0
  3 16  1  0
  4  5  2  0
  4 15  1  0
  5  6  1  0
  6  7  2  3
  6 12  1  0
  7  8  1  0
  8  9  2  0
  8 10  1  0
 10 11  1  0
 12 13  1  0
 13 14  2  0
 13 15  1  0
 16 17  1  0
 17 18  1  0
 18 19  1  0
 18 20  2  0
M  END
