
     RDKit          3D

 20 21  0  0  0  0  0  0  0  0999 V2000
    5.6630    0.7550    2.2130 N   0  0  0  0  0  0  0  0  0  0  0  0
    4.4130    0.7180    1.5810 C   0  0  0  0  0  0  0  0  0  0  0  0
    3.5650    1.6050    1.6870 O   0  0  0  0  0  0  0  0  0  0  0  0
    4.0990   -0.3610    0.7940 N   0  0  0  0  0  0  0  0  0  0  0  0
    3.0050   -0.6500    0.0850 C   0  0  0  0  0  0  0  0  0  0  0  0
    3.4190   -1.8720   -0.4370 O   0  0  0  0  0  0  0  0  0  0  0  0
    1.7990   -0.6460   -0.5050 N   0  0  0  0  0  0  0  0  0  0  0  0
    0.7620    0.1880   -0.4690 C   0  0  0  0  0  0  0  0  0  0  0  0
    0.9070    1.2240    0.2070 O   0  0  0  0  0  0  0  0  0  0  0  0
   -0.5140   -0.0730   -1.1810 C   0  0  2  0  0  0  0  0  0  0  0  0
   -1.3580    1.0090   -0.8850 O   0  0  0  0  0  0  0  0  0  0  0  0
   -2.5670    0.9020   -0.2570 C   0  0  0  0  0  0  0  0  0  0  0  0
   -3.2960    1.9590    0.0510 C   0  0  0  0  0  0  0  0  0  0  0  0
   -4.5990    1.9240    0.7210 C   0  0  0  0  0  0  0  0  0  0  0  0
   -4.9950    0.6010    0.9830 O   0  0  0  0  0  0  0  0  0  0  0  0
   -4.2290   -0.5130    0.6740 C   0  0  0  0  0  0  0  0  0  0  0  0
   -3.0650   -0.4210    0.0830 C   0  0  0  0  0  0  0  0  0  0  0  0
   -2.2470   -1.5230   -0.2530 N   0  0  0  0  0  0  0  0  0  0  0  0
   -1.0930   -1.3790   -0.8290 C   0  0  0  0  0  0  0  0  0  0  0  0
   -0.3850   -2.5630   -1.1310 N   0  0  0  0  0  0  0  0  0  0  0  0
  1  2  1  0
  2  3  2  0
  2  4  1  0
  4  5  1  0
  5  6  2  0
  5  7  1  0
  7  8  1  0
  8  9  2  0
 10  8  1  1
 10 11  1  0
 10 19  1  0
 11 12  1  0
 12 13  2  0
 12 17  1  0
 13 14  1  0
 14 15  1  0
 15 16  1  0
 16 17  2  0
 17 18  1  0
 18 19  2  0
 19 20  1  0
M  END
