
     RDKit          3D

 19 20  0  0  0  0  0  0  0  0999 V2000
    1.4900    0.8320    1.8920 C   0  0  0  0  0  0  0  0  0  0  0  0
    2.3930    0.3410    0.8170 C   0  0  0  0  0  0  0  0  0  0  0  0
    3.7330    0.6190    0.8940 N   0  0  0  0  0  0  0  0  0  0  0  0
    4.5620    0.1890   -0.0590 C   0  0  0  0  0  0  0  0  0  0  0  0
    5.7880    0.4560    0.0330 O   0  0  0  0  0  0  0  0  0  0  0  0
    4.0970   -0.5180   -1.1000 N   0  0  0  0  0  0  0  0  0  0  0  0
    2.7700   -0.8100   -1.2030 C   0  0  0  0  0  0  0  0  0  0  0  0
    2.4140   -1.4740   -2.2040 O   0  0  0  0  0  0  0  0  0  0  0  0
    1.8900   -0.3800   -0.2370 C   0  0  0  0  0  0  0  0  0  0  0  0
    0.5050   -0.6540   -0.2930 N   0  0  0  0  0  0  0  0  0  0  0  0
   -0.4370    0.2020   -0.9310 C   0  0  0  0  0  0  0  0  0  0  0  0
   -0.0320    1.2590   -1.4770 O   0  0  0  0  0  0  0  0  0  0  0  0
   -1.8540   -0.1440   -0.9510 C   0  0  2  0  0  0  0  0  0  0  0  0
   -2.6990    0.8460   -1.6510 C   0  0  0  0  0  0  0  0  0  0  0  0
   -2.2930    1.5970   -2.5700 O   0  0  0  0  0  0  0  0  0  0  0  0
   -3.9910    0.7480   -1.0730 N   0  0  0  0  0  0  0  0  0  0  0  0
   -3.9530   -0.2010    0.0500 C   0  0  0  0  0  0  0  0  0  0  0  0
   -2.4880   -0.1330    0.4310 C   0  0  1  0  0  0  0  0  0  0  0  0
   -2.0690   -1.2630    1.2080 N   0  0  0  0  0  0  0  0  0  0  0  0
  1  2  1  0
  2  3  1  0
  2  9  2  0
  3  4  1  0
  4  5  2  0
  4  6  1  0
  6  7  1  0
  7  8  2  0
  7  9  1  0
  9 10  1  0
 10 11  1  0
 11 12  2  0
 13 11  1  1
 13 14  1  0
 13 18  1  0
 14 15  2  0
 14 16  1  0
 16 17  1  0
 17 18  1  0
 18 19  1  1
M  END
