
     RDKit          3D

 20 21  0  0  0  0  0  0  0  0999 V2000
    3.4160   -1.5090   -1.6690 N   0  0  0  0  0  0  0  0  0  0  0  0
    3.5720   -1.0700   -0.3060 C   0  0  0  0  0  0  0  0  0  0  0  0
    4.7730   -0.7130    0.1610 N   0  0  0  0  0  0  0  0  0  0  0  0
    4.9550   -0.3000    1.4250 C   0  0  0  0  0  0  0  0  0  0  0  0
    6.1200    0.0190    1.7850 O   0  0  0  0  0  0  0  0  0  0  0  0
    3.8960   -0.2380    2.2650 N   0  0  0  0  0  0  0  0  0  0  0  0
    2.6670   -0.5920    1.8280 C   0  0  0  0  0  0  0  0  0  0  0  0
    1.6860   -0.5290    2.6250 O   0  0  0  0  0  0  0  0  0  0  0  0
    2.4820   -1.0150    0.5340 C   0  0  0  0  0  0  0  0  0  0  0  0
    1.1910   -1.3910    0.0590 N   0  0  0  0  0  0  0  0  0  0  0  0
    0.3170   -0.4300   -0.5330 C   0  0  0  0  0  0  0  0  0  0  0  0
    0.6720    0.7650   -0.6460 O   0  0  0  0  0  0  0  0  0  0  0  0
   -0.9510   -0.8640   -0.9850 N   0  0  0  0  0  0  0  0  0  0  0  0
   -1.8880    0.0500   -1.5940 C   0  0  0  0  0  0  0  0  0  0  0  0
   -2.2830    1.1770   -0.6680 C   0  0  1  0  0  0  0  0  0  0  0  0
   -3.2540    2.1190   -1.3060 C   0  0  0  0  0  0  0  0  0  0  0  0
   -4.5860    1.6400   -0.8280 C   0  0  0  0  0  0  0  0  0  0  0  0
   -4.4070    0.6790    0.1240 O   0  0  0  0  0  0  0  0  0  0  0  0
   -3.0880    0.6090    0.4780 C   0  0  1  0  0  0  0  0  0  0  0  0
   -2.7570   -0.7220    0.7160 O   0  0  0  0  0  0  0  0  0  0  0  0
  1  2  1  0
  2  3  1  0
  2  9  2  0
  3  4  1  0
  4  5  2  0
  4  6  1  0
  6  7  1  0
  7  8  2  0
  7  9  1  0
  9 10  1  0
 10 11  1  0
 11 12  2  0
 11 13  1  0
 13 14  1  0
 15 14  1  6
 15 16  1  0
 15 19  1  0
 16 17  1  0
 17 18  1  0
 18 19  1  0
 19 20  1  6
M  END
