
     RDKit          3D

 20 21  0  0  0  0  0  0  0  0999 V2000
   -6.1790   -0.2760    0.2690 N   0  0  0  0  0  0  0  0  0  0  0  0
   -4.9260    0.1590    0.8270 C   0  0  1  0  0  0  0  0  0  0  0  0
   -3.7340   -0.5590    0.2380 C   0  0  0  0  0  0  0  0  0  0  0  0
   -2.6040    0.4060    0.6110 C   0  0  1  0  0  0  0  0  0  0  0  0
   -1.4690    0.1110   -0.2050 N   0  0  0  0  0  0  0  0  0  0  0  0
   -0.2610   -0.3150    0.4090 C   0  0  0  0  0  0  0  0  0  0  0  0
   -0.2450   -0.4160    1.6630 O   0  0  0  0  0  0  0  0  0  0  0  0
    0.9610   -0.6370   -0.4110 C   0  0  0  0  0  0  0  0  0  0  0  0
    1.9560   -1.0150    0.4500 O   0  0  0  0  0  0  0  0  0  0  0  0
    3.1430   -1.3440   -0.1460 C   0  0  0  0  0  0  0  0  0  0  0  0
    3.7600   -0.2160   -0.9480 C   0  0  1  0  0  0  0  0  0  0  0  0
    4.0360    0.9360   -0.1280 N   0  0  0  0  0  0  0  0  0  0  0  0
    5.3770    1.3080   -0.3510 C   0  0  0  0  0  0  0  0  0  0  0  0
    5.9820    2.3600    0.0570 O   0  0  0  0  0  0  0  0  0  0  0  0
    6.0360    0.3270   -1.1310 N   0  0  0  0  0  0  0  0  0  0  0  0
    5.0880   -0.6950   -1.4100 C   0  0  0  0  0  0  0  0  0  0  0  0
    5.3950   -1.7830   -1.9540 O   0  0  0  0  0  0  0  0  0  0  0  0
   -3.2200    1.7070    0.3400 C   0  0  0  0  0  0  0  0  0  0  0  0
   -2.6580    2.7880    0.0590 O   0  0  0  0  0  0  0  0  0  0  0  0
   -4.6280    1.5480    0.4520 N   0  0  0  0  0  0  0  0  0  0  0  0
  2  1  1  6
  2  3  1  0
  2 20  1  0
  3  4  1  0
  4  5  1  6
  4 18  1  0
  5  6  1  0
  6  7  2  0
  6  8  1  0
  8  9  1  0
  9 10  1  0
 11 10  1  1
 11 12  1  0
 11 16  1  0
 12 13  1  0
 13 14  2  0
 13 15  1  0
 15 16  1  0
 16 17  2  0
 18 19  2  0
 18 20  1  0
M  END
