
     RDKit          3D

 19 21  0  0  0  0  0  0  0  0999 V2000
    5.2450   -0.1010    0.1070 N   0  0  0  0  0  0  0  0  0  0  0  0
    3.9380   -0.5100    0.4400 C   0  0  0  0  0  0  0  0  0  0  0  0
    3.6580   -1.6900    1.0100 N   0  0  0  0  0  0  0  0  0  0  0  0
    2.3860   -2.0430    1.3130 C   0  0  0  0  0  0  0  0  0  0  0  0
    1.3330   -1.2330    1.0610 N   0  0  0  0  0  0  0  0  0  0  0  0
    1.5820   -0.0490    0.4920 C   0  0  0  0  0  0  0  0  0  0  0  0
    2.8700    0.3400    0.1710 C   0  0  0  0  0  0  0  0  0  0  0  0
    2.7870    1.5490   -0.3720 N   0  0  0  0  0  0  0  0  0  0  0  0
    1.5030    1.9110   -0.3940 C   0  0  0  0  0  0  0  0  0  0  0  0
    0.7450    0.9300    0.1380 N   0  0  0  0  0  0  0  0  0  0  0  0
   -0.6890    1.0270    0.2540 C   0  0  2  0  0  0  0  0  0  0  0  0
   -1.2870   -0.1220    0.6920 O   0  0  0  0  0  0  0  0  0  0  0  0
   -2.5530   -0.1490    0.0850 C   0  0  2  0  0  0  0  0  0  0  0  0
   -3.2020   -1.4990    0.2220 C   0  0  0  0  0  0  0  0  0  0  0  0
   -2.4600   -2.5090   -0.3590 O   0  0  0  0  0  0  0  0  0  0  0  0
   -2.1810    0.1720   -1.3490 C   0  0  1  0  0  0  0  0  0  0  0  0
   -3.2880    0.5390   -2.1030 O   0  0  0  0  0  0  0  0  0  0  0  0
   -1.2390    1.3370   -1.1240 C   0  0  1  0  0  0  0  0  0  0  0  0
   -2.0140    2.4940   -1.0980 O   0  0  0  0  0  0  0  0  0  0  0  0
  1  2  1  0
  2  3  2  0
  2  7  1  0
  3  4  1  0
  4  5  2  0
  5  6  1  0
  6  7  2  0
  6 10  1  0
  7  8  1  0
  8  9  2  0
  9 10  1  0
 11 10  1  6
 11 12  1  0
 11 18  1  0
 12 13  1  0
 13 14  1  6
 13 16  1  0
 14 15  1  0
 16 17  1  6
 16 18  1  0
 18 19  1  1
M  END
