
     RDKit          3D

 19 20  0  0  0  0  0  0  0  0999 V2000
    5.9150   -1.6850    0.8010 N   0  0  0  0  0  0  0  0  0  0  0  0
    4.9340   -1.5200   -0.2550 C   0  0  0  0  0  0  0  0  0  0  0  0
    5.3300   -1.8650   -1.3780 O   0  0  0  0  0  0  0  0  0  0  0  0
    3.6920   -0.9910    0.1740 C   0  0  0  0  0  0  0  0  0  0  0  0
    3.2120   -0.7050    1.2050 O   0  0  0  0  0  0  0  0  0  0  0  0
    2.6430   -0.6960   -1.1850 N   0  0  0  0  0  0  0  0  0  0  0  0
    1.5550   -0.1930   -0.3840 C   0  0  0  0  0  0  0  0  0  0  0  0
    1.2840   -0.0910    0.7200 O   0  0  0  0  0  0  0  0  0  0  0  0
    0.5450    0.2980   -1.3980 N   0  0  0  0  0  0  0  0  0  0  0  0
   -0.6730    0.7320   -0.9290 C   0  0  0  0  0  0  0  0  0  0  0  0
   -1.0830    1.9870   -1.0050 C   0  0  0  0  0  0  0  0  0  0  0  0
   -2.3520    2.3630   -0.5010 N   0  0  0  0  0  0  0  0  0  0  0  0
   -3.2310    1.3900    0.1050 C   0  0  0  0  0  0  0  0  0  0  0  0
   -4.3830    1.6910    0.5700 N   0  0  0  0  0  0  0  0  0  0  0  0
   -5.2290    0.6890    1.1620 C   0  0  0  0  0  0  0  0  0  0  0  0
   -4.8130   -0.5470    1.2240 C   0  0  0  0  0  0  0  0  0  0  0  0
   -3.5750   -0.9580    0.7430 O   0  0  0  0  0  0  0  0  0  0  0  0
   -2.7610    0.0170    0.1730 C   0  0  0  0  0  0  0  0  0  0  0  0
   -1.5840   -0.2580   -0.3080 C   0  0  0  0  0  0  0  0  0  0  0  0
  1  2  1  0
  2  3  2  0
  2  4  1  0
  4  5  2  0
  4  6  1  0
  6  7  1  0
  7  8  2  0
  7  9  1  0
  9 10  1  0
 10 11  2  0
 10 19  1  0
 11 12  1  0
 12 13  1  0
 13 14  2  0
 13 18  1  0
 14 15  1  0
 15 16  2  0
 16 17  1  0
 17 18  1  0
 18 19  2  0
M  END
