
     RDKit          3D

 11 11  0  0  0  0  0  0  0  0999 V2000
    3.3480   -0.4560   -0.9000 C   0  0  0  0  0  0  0  0  0  0  0  0
    2.2170   -0.3800   -0.2450 C   0  0  0  0  0  0  0  0  0  0  0  0
    2.1970    0.2150    1.1070 C   0  0  0  0  0  0  0  0  0  0  0  0
    0.9830   -0.8780   -0.8340 C   0  0  0  0  0  0  0  0  0  0  0  0
   -0.0650    0.0910   -1.0050 N   0  0  0  0  0  0  0  0  0  0  0  0
   -0.0520    1.1820   -1.9180 C   0  0  0  0  0  0  0  0  0  0  0  0
   -1.2320   -0.0760   -0.1620 C   0  0  0  0  0  0  0  0  0  0  0  0
   -1.9400   -1.1130   -0.0010 N   0  0  0  0  0  0  0  0  0  0  0  0
   -3.0120   -0.8940    0.9120 C   0  0  0  0  0  0  0  0  0  0  0  0
   -2.9540    0.5810    1.2050 C   0  0  0  0  0  0  0  0  0  0  0  0
   -1.7440    0.9380    0.6180 O   0  0  0  0  0  0  0  0  0  0  0  0
  1  2  2  0
  2  3  1  0
  2  4  1  0
  4  5  1  0
  5  6  1  0
  5  7  1  0
  7  8  2  0
  7 11  1  0
  8  9  1  0
  9 10  1  0
 10 11  1  0
M  END
