
     RDKit          3D

 19 20  0  0  0  0  0  0  0  0999 V2000
    3.1650   -0.4740   -2.1210 C   0  0  0  0  0  0  0  0  0  0  0  0
    2.8640    0.1200   -0.7770 C   0  0  2  0  0  0  0  0  0  0  0  0
    1.6250    0.8640   -0.7510 N   0  0  0  0  0  0  0  0  0  0  0  0
    1.7000    1.7240    0.3920 C   0  0  1  0  0  0  0  0  0  0  0  0
    1.1750    1.0940    1.6380 C   0  0  0  0  0  0  0  0  0  0  0  0
   -0.1890    0.6890    1.6340 N   0  0  0  0  0  0  0  0  0  0  0  0
   -0.8050   -0.2670    0.8090 C   0  0  0  0  0  0  0  0  0  0  0  0
   -0.1340   -0.8750   -0.0380 O   0  0  0  0  0  0  0  0  0  0  0  0
   -2.2740   -0.5870    0.9160 C   0  0  0  0  0  0  0  0  0  0  0  0
   -2.6560   -1.6430   -0.0980 C   0  0  2  0  0  0  0  0  0  0  0  0
   -2.3860   -1.1800   -1.4340 N   0  0  0  0  0  0  0  0  0  0  0  0
   -3.5870   -0.6730   -1.9700 C   0  0  0  0  0  0  0  0  0  0  0  0
   -3.7160    0.0120   -3.0390 O   0  0  0  0  0  0  0  0  0  0  0  0
   -4.6590   -1.0670   -1.0910 N   0  0  0  0  0  0  0  0  0  0  0  0
   -4.1260   -1.8050   -0.0300 C   0  0  0  0  0  0  0  0  0  0  0  0
   -4.7520   -2.4710    0.8130 O   0  0  0  0  0  0  0  0  0  0  0  0
    3.1430    1.9970    0.5190 N   0  0  0  0  0  0  0  0  0  0  0  0
    3.8570    1.1540   -0.3810 C   0  0  0  0  0  0  0  0  0  0  0  0
    5.0640    1.2710   -0.7520 O   0  0  0  0  0  0  0  0  0  0  0  0
  2  1  1  6
  2  3  1  0
  2 18  1  0
  3  4  1  0
  4  5  1  1
  4 17  1  0
  5  6  1  0
  6  7  1  0
  7  8  2  0
  7  9  1  0
 10  9  1  1
 10 11  1  0
 10 15  1  0
 11 12  1  0
 12 13  2  0
 12 14  1  0
 14 15  1  0
 15 16  2  0
 17 18  1  0
 18 19  2  0
M  END
