
     RDKit          3D

 19 20  0  0  0  0  0  0  0  0999 V2000
   -4.3410   -0.4970   -0.3130 C   0  0  0  0  0  0  0  0  0  0  0  0
   -2.9620   -0.9640   -0.1270 C   0  0  0  0  0  0  0  0  0  0  0  0
   -1.8980   -0.1790   -0.1450 C   0  0  0  0  0  0  0  0  0  0  0  0
   -1.9700    1.2550   -0.3540 C   0  0  0  0  0  0  0  0  0  0  0  0
   -3.1960    1.9350   -0.5550 N   0  0  0  0  0  0  0  0  0  0  0  0
   -0.8750    1.9260   -0.3550 N   0  0  0  0  0  0  0  0  0  0  0  0
    0.4290    1.3370   -0.1590 C   0  0  0  0  0  0  0  0  0  0  0  0
    0.5820    0.0530    0.0370 C   0  0  0  0  0  0  0  0  0  0  0  0
   -0.6020   -0.7420    0.0470 N   0  0  0  0  0  0  0  0  0  0  0  0
   -0.4550   -2.1030    0.2530 N   0  0  0  0  0  0  0  0  0  0  0  0
   -0.8820   -2.5700    1.3410 O   0  0  0  0  0  0  0  0  0  0  0  0
    1.9030   -0.5350    0.2580 C   0  0  2  0  0  0  0  0  0  0  0  0
    2.0280   -1.9790   -0.1410 C   0  0  0  0  0  0  0  0  0  0  0  0
    2.1600   -0.5060    1.6530 O   0  0  0  0  0  0  0  0  0  0  0  0
    3.0310    0.2240   -0.3740 C   0  0  2  0  0  0  0  0  0  0  0  0
    4.2220   -0.2120    0.2010 O   0  0  0  0  0  0  0  0  0  0  0  0
    2.8430    1.6760   -0.0490 C   0  0  0  0  0  0  0  0  0  0  0  0
    3.8320    2.3250    0.3490 O   0  0  0  0  0  0  0  0  0  0  0  0
    1.5450    2.2320   -0.2140 N   0  0  0  0  0  0  0  0  0  0  0  0
  1  2  1  0
  2  3  2  3
  3  4  1  0
  3  9  1  0
  4  5  1  0
  4  6  2  0
  6  7  1  0
  7  8  2  0
  7 19  1  0
  8  9  1  0
  8 12  1  0
  9 10  1  0
 10 11  2  0
 12 13  1  6
 12 14  1  0
 12 15  1  0
 15 16  1  1
 15 17  1  0
 17 18  2  0
 17 19  1  0
M  END
