
     RDKit          3D

 19 20  0  0  0  0  0  0  0  0999 V2000
    5.9510    0.6550   -0.2610 N   0  0  0  0  0  0  0  0  0  0  0  0
    5.0370   -0.3180    0.2460 C   0  0  0  0  0  0  0  0  0  0  0  0
    3.6090    0.0620   -0.0400 C   0  0  0  0  0  0  0  0  0  0  0  0
    2.6070   -0.7250    0.3570 N   0  0  0  0  0  0  0  0  0  0  0  0
    1.2900   -0.4480    0.1360 C   0  0  0  0  0  0  0  0  0  0  0  0
    0.2930   -1.3350    0.5930 N   0  0  0  0  0  0  0  0  0  0  0  0
   -1.1050   -1.2170    0.4560 C   0  0  1  0  0  0  0  0  0  0  0  0
   -1.7300    0.0110    1.0240 C   0  0  0  0  0  0  0  0  0  0  0  0
   -2.7620    0.4900   -0.0050 C   0  0  2  0  0  0  0  0  0  0  0  0
   -3.6260    1.5810    0.5600 C   0  0  0  0  0  0  0  0  0  0  0  0
   -2.7560    2.6400    0.9090 O   0  0  0  0  0  0  0  0  0  0  0  0
   -3.6140   -0.7410   -0.3080 C   0  0  0  0  0  0  0  0  0  0  0  0
   -2.9000   -1.6720   -1.0560 O   0  0  0  0  0  0  0  0  0  0  0  0
   -1.5220   -1.4920   -0.9850 C   0  0  2  0  0  0  0  0  0  0  0  0
   -0.8770   -2.7000   -1.3290 O   0  0  0  0  0  0  0  0  0  0  0  0
    1.0560    0.6980   -0.5250 N   0  0  0  0  0  0  0  0  0  0  0  0
    2.0500    1.5130   -0.9370 C   0  0  0  0  0  0  0  0  0  0  0  0
    1.7770    2.5780   -1.5540 O   0  0  0  0  0  0  0  0  0  0  0  0
    3.3350    1.1980   -0.6960 N   0  0  0  0  0  0  0  0  0  0  0  0
  1  2  1  0
  2  3  1  0
  3  4  1  0
  3 19  2  0
  4  5  2  0
  5  6  1  0
  5 16  1  0
  7  6  1  6
  7  8  1  0
  7 14  1  0
  8  9  1  0
  9 10  1  1
  9 12  1  0
 10 11  1  0
 12 13  1  0
 13 14  1  0
 14 15  1  1
 16 17  1  0
 17 18  2  0
 17 19  1  0
M  END
