
     RDKit          3D

 14 14  0  0  0  0  0  0  0  0999 V2000
   -3.8470    1.0320    0.1870 C   0  0  0  0  0  0  0  0  0  0  0  0
   -2.8400    1.5560   -0.7890 C   0  0  0  0  0  0  0  0  0  0  0  0
   -1.6260    0.3180   -1.2990 S   0  0  0  0  0  0  0  0  0  0  0  0
   -0.5530   -0.1810    0.0610 C   0  0  1  0  0  0  0  0  0  0  0  0
   -1.2670   -0.9170    1.1490 C   0  0  0  0  0  0  0  0  0  0  0  0
   -0.6380   -2.1490    1.3000 O   0  0  0  0  0  0  0  0  0  0  0  0
   -0.1150   -2.4740    0.0500 C   0  0  0  0  0  0  0  0  0  0  0  0
    0.5000   -1.1710   -0.3770 C   0  0  1  0  0  0  0  0  0  0  0  0
    0.6760   -1.1250   -1.8760 C   0  0  0  0  0  0  0  0  0  0  0  0
    1.7130   -0.8650    0.3330 N   0  0  0  0  0  0  0  0  0  0  0  0
    2.4590    0.3170    0.0890 C   0  0  0  0  0  0  0  0  0  0  0  0
    1.9690    1.0830   -0.8060 O   0  0  0  0  0  0  0  0  0  0  0  0
    3.6320    0.6480    0.7510 O   0  0  0  0  0  0  0  0  0  0  0  0
    4.2880    1.8780    0.4060 C   0  0  0  0  0  0  0  0  0  0  0  0
  1  2  1  0
  2  3  1  0
  4  3  1  6
  4  5  1  0
  4  8  1  0
  5  6  1  0
  6  7  1  0
  7  8  1  0
  8  9  1  6
  8 10  1  0
 10 11  1  0
 11 12  2  0
 11 13  1  0
 13 14  1  0
M  END
