
     RDKit          3D

 14 14  0  0  0  0  0  0  0  0999 V2000
   -2.6440    1.4870    0.6900 C   0  0  0  0  0  0  0  0  0  0  0  0
   -2.1980    0.2640   -0.1270 C   0  0  1  0  0  0  0  0  0  0  0  0
   -2.9840    0.2950   -1.4290 C   0  0  0  0  0  0  0  0  0  0  0  0
   -0.7320    0.3720   -0.3290 C   0  0  0  0  0  0  0  0  0  0  0  0
    0.0420   -0.8810   -0.3140 C   0  0  1  0  0  0  0  0  0  0  0  0
    1.3700   -0.6950    0.4140 C   0  0  0  0  0  0  0  0  0  0  0  0
    2.2340    0.3450   -0.2230 C   0  0  0  0  0  0  0  0  0  0  0  0
    3.4510    0.4130    0.5660 N   0  0  0  0  0  0  0  0  0  0  0  0
    4.5740    1.5460    0.0020 S   0  0  2  0  0  0  0  0  0  0  0  0
    4.5570    1.7370   -1.4840 O   0  0  0  0  0  0  0  0  0  0  0  0
    5.9520    1.1180    0.4430 O   0  0  0  0  0  0  0  0  0  0  0  0
   -0.6390   -2.0320    0.3940 C   0  0  0  0  0  0  0  0  0  0  0  0
   -2.1080   -1.9810   -0.0240 C   0  0  0  0  0  0  0  0  0  0  0  0
   -2.6140   -0.8390    0.5850 O   0  0  0  0  0  0  0  0  0  0  0  0
  2  1  1  1
  2  3  1  0
  2  4  1  0
  2 14  1  0
  4  5  1  0
  5  6  1  1
  5 12  1  0
  6  7  1  0
  7  8  1  0
  9  8  1  6
  9 10  2  0
  9 11  2  0
 12 13  1  0
 13 14  1  0
M  END
