
     RDKit          3D

 13 13  0  0  0  0  0  0  0  0999 V2000
   -3.1310   -1.1330   -0.1060 C   0  0  0  0  0  0  0  0  0  0  0  0
   -2.4480    0.0570   -0.4810 N   0  0  0  0  0  0  0  0  0  0  0  0
   -3.3180    1.2130   -0.4240 C   0  0  0  0  0  0  0  0  0  0  0  0
   -1.2360    0.3500    0.1990 C   0  0  0  0  0  0  0  0  0  0  0  0
   -0.1060   -0.5710   -0.0980 C   0  0  2  0  0  0  0  0  0  0  0  0
   -0.4030   -1.8870    0.2460 O   0  0  0  0  0  0  0  0  0  0  0  0
    1.1810   -0.1940    0.5490 C   0  0  2  0  0  0  0  0  0  0  0  0
    1.0820   -0.4230    2.0520 C   0  0  0  0  0  0  0  0  0  0  0  0
    1.5790    1.2360    0.3370 C   0  0  0  0  0  0  0  0  0  0  0  0
    1.6180    1.4510   -1.0310 O   0  0  0  0  0  0  0  0  0  0  0  0
    2.5990    0.6730   -1.5820 C   0  0  0  0  0  0  0  0  0  0  0  0
    3.0360   -0.5140   -0.8180 C   0  0  0  0  0  0  0  0  0  0  0  0
    2.1690   -1.0450    0.0820 O   0  0  0  0  0  0  0  0  0  0  0  0
  1  2  1  0
  2  3  1  0
  2  4  1  0
  4  5  1  0
  5  6  1  1
  5  7  1  0
  7  8  1  1
  7  9  1  0
  7 13  1  0
  9 10  1  0
 10 11  1  0
 11 12  1  0
 12 13  1  0
M  END
