
     RDKit          3D

 14 14  0  0  0  0  0  0  0  0999 V2000
   -5.4550    0.9040   -0.2130 C   0  0  0  0  0  0  0  0  0  0  0  0
   -4.4530   -0.0860    0.3730 C   0  0  0  0  0  0  0  0  0  0  0  0
   -3.2470    0.1000   -0.3060 O   0  0  0  0  0  0  0  0  0  0  0  0
   -2.0820   -0.5910   -0.0880 C   0  0  0  0  0  0  0  0  0  0  0  0
   -2.0770   -1.4840    0.8070 O   0  0  0  0  0  0  0  0  0  0  0  0
   -0.8290   -0.3580   -0.8340 C   0  0  0  0  0  0  0  0  0  0  0  0
    0.2820   -1.2730   -0.3680 C   0  0  1  0  0  0  0  0  0  0  0  0
    1.5100   -0.9790   -1.1640 C   0  0  0  0  0  0  0  0  0  0  0  0
    2.7240   -0.9520   -0.3720 N   0  0  0  0  0  0  0  0  0  0  0  0
    2.6540   -0.0830    0.7670 C   0  0  1  0  0  0  0  0  0  0  0  0
    3.3690    1.5610    0.4330 S   0  0  0  0  0  0  0  0  0  0  0  0
    5.1490    1.4370    0.1510 C   0  0  0  0  0  0  0  0  0  0  0  0
    1.2360    0.0490    1.2650 C   0  0  0  0  0  0  0  0  0  0  0  0
    0.5410   -1.1260    0.9910 O   0  0  0  0  0  0  0  0  0  0  0  0
  1  2  1  0
  2  3  1  0
  3  4  1  0
  4  5  2  0
  4  6  1  0
  7  6  1  6
  7  8  1  0
  7 14  1  0
  8  9  1  0
  9 10  1  0
 10 11  1  6
 10 13  1  0
 11 12  1  0
 13 14  1  0
M  END
