
     RDKit          3D

 14 14  0  0  0  0  0  0  0  0999 V2000
    4.7270    0.9740   -0.0630 C   0  0  0  0  0  0  0  0  0  0  0  0
    4.3880   -0.4440    0.3750 C   0  0  0  0  0  0  0  0  0  0  0  0
    3.1480   -0.4410    1.0700 O   0  0  0  0  0  0  0  0  0  0  0  0
    1.9720   -0.0140    0.4800 C   0  0  0  0  0  0  0  0  0  0  0  0
    2.0430    0.3770   -0.7120 O   0  0  0  0  0  0  0  0  0  0  0  0
    0.6820   -0.0100    1.2030 C   0  0  0  0  0  0  0  0  0  0  0  0
   -0.4280    0.4890    0.3420 C   0  0  2  0  0  0  0  0  0  0  0  0
   -1.9710    0.4530    1.3370 S   0  0  0  0  0  0  0  0  0  0  0  0
   -3.1760   -0.4350    0.3100 C   0  0  1  0  0  0  0  0  0  0  0  0
   -4.5840   -0.2850    0.8280 C   0  0  0  0  0  0  0  0  0  0  0  0
   -3.0400    0.1880   -1.0880 C   0  0  0  0  0  0  0  0  0  0  0  0
   -1.8070   -0.3230   -1.6220 N   0  0  0  0  0  0  0  0  0  0  0  0
   -0.6770   -0.4730   -0.7920 C   0  0  0  0  0  0  0  0  0  0  0  0
    0.1450   -1.4220   -0.9890 O   0  0  0  0  0  0  0  0  0  0  0  0
  1  2  1  0
  2  3  1  0
  3  4  1  0
  4  5  2  0
  4  6  1  0
  7  6  1  1
  7  8  1  0
  7 13  1  0
  8  9  1  0
  9 10  1  1
  9 11  1  0
 11 12  1  0
 12 13  1  0
 13 14  2  0
M  END
