
     RDKit          3D

 14 14  0  0  0  0  0  0  0  0999 V2000
    1.9170   -1.8970   -0.4470 C   0  0  0  0  0  0  0  0  0  0  0  0
    2.3580   -0.8190    0.1180 C   0  0  0  0  0  0  0  0  0  0  0  0
    3.5900   -0.7430    0.8090 O   0  0  0  0  0  0  0  0  0  0  0  0
    4.2610    0.4340    0.7660 O   0  0  0  0  0  0  0  0  0  0  0  0
    3.4560    1.3800    1.3780 C   0  0  0  0  0  0  0  0  0  0  0  0
    2.1690    1.4660    0.7030 C   0  0  0  0  0  0  0  0  0  0  0  0
    1.6180    0.4310    0.0920 C   0  0  0  0  0  0  0  0  0  0  0  0
    0.3490    0.5480   -0.5690 N   0  0  0  0  0  0  0  0  0  0  0  0
   -0.8170   -0.1520   -0.1820 C   0  0  0  0  0  0  0  0  0  0  0  0
   -0.7670   -0.9170    0.7900 O   0  0  0  0  0  0  0  0  0  0  0  0
   -2.1220   -0.0020   -0.9070 C   0  0  1  0  0  0  0  0  0  0  0  0
   -1.9890   -0.4080   -2.3490 C   0  0  0  0  0  0  0  0  0  0  0  0
   -3.4320   -0.9400   -0.1060 S   0  0  0  0  0  0  0  0  0  0  0  0
   -3.7260   -0.1800    1.5190 C   0  0  0  0  0  0  0  0  0  0  0  0
  1  2  2  0
  2  3  1  0
  2  7  1  0
  3  4  1  0
  4  5  1  0
  5  6  1  0
  6  7  2  0
  7  8  1  0
  8  9  1  0
  9 10  2  0
  9 11  1  0
 11 12  1  6
 11 13  1  0
 13 14  1  0
M  END
