
     RDKit          3D

 32 33  0  0  0  0  0  0  0  0999 V2000
    8.9050    1.0040   -1.9780 C   0  0  0  0  0  0  0  0  0  0  0  0
    8.3660    0.5170   -0.8400 C   0  0  0  0  0  0  0  0  0  0  0  0
    6.9230    0.4690   -0.6770 C   0  0  0  0  0  0  0  0  0  0  0  0
    6.2470    0.0340    0.3480 C   0  0  0  0  0  0  0  0  0  0  0  0
    6.8750   -0.4980    1.5430 C   0  0  0  0  0  0  0  0  0  0  0  0
    8.2520   -0.6270    1.7840 N   0  0  0  0  0  0  0  0  0  0  0  0
    6.1290   -0.9090    2.5190 O   0  0  0  0  0  0  0  0  0  0  0  0
    4.7800    0.0600    0.3380 C   0  0  0  0  0  0  0  0  0  0  0  0
    4.1610   -0.3770    1.3680 O   0  0  0  0  0  0  0  0  0  0  0  0
    4.0610    0.5420   -0.7510 N   0  0  0  0  0  0  0  0  0  0  0  0
    2.6430    0.5460   -0.7110 N   0  0  0  0  0  0  0  0  0  0  0  0
    1.7940    1.5800   -1.1880 C   0  0  0  0  0  0  0  0  0  0  0  0
    2.2060    2.6510   -1.7170 O   0  0  0  0  0  0  0  0  0  0  0  0
    0.4760    1.1770   -0.9590 O   0  0  0  0  0  0  0  0  0  0  0  0
    0.5090    0.2080    0.0760 C   0  0  1  0  0  0  0  0  0  0  0  0
    0.5710    0.9450    1.3960 C   0  0  0  0  0  0  0  0  0  0  0  0
   -0.6220   -0.7690   -0.0030 C   0  0  0  0  0  0  0  0  0  0  0  0
   -1.9300   -0.0690    0.0880 C   0  0  0  0  0  0  0  0  0  0  0  0
   -2.0260    1.1790    0.1710 O   0  0  0  0  0  0  0  0  0  0  0  0
   -3.1700   -0.7510    0.0870 N   0  0  0  0  0  0  0  0  0  0  0  0
   -4.4110   -0.0940    0.1690 C   0  0  1  0  0  0  0  0  0  0  0  0
   -5.2960   -0.3760   -1.0170 C   0  0  0  0  0  0  0  0  0  0  0  0
   -5.2070    0.2940   -2.1370 C   0  0  0  0  0  0  0  0  0  0  0  0
   -4.2110    1.3810   -2.2820 C   0  0  0  0  0  0  0  0  0  0  0  0
   -6.2650   -1.4420   -0.8650 C   0  0  0  0  0  0  0  0  0  0  0  0
   -7.2470   -1.6520   -1.7220 C   0  0  0  0  0  0  0  0  0  0  0  0
   -6.1040   -2.2530    0.2580 O   0  0  0  0  0  0  0  0  0  0  0  0
   -5.8760   -1.6330    1.5200 C   0  0  0  0  0  0  0  0  0  0  0  0
   -5.2180   -0.3040    1.4120 C   0  0  1  0  0  0  0  0  0  0  0  0
   -4.3870    0.0520    2.6270 C   0  0  0  0  0  0  0  0  0  0  0  0
    1.8230   -0.4820   -0.1910 C   0  0  0  0  0  0  0  0  0  0  0  0
    2.0650   -1.6840    0.0200 O   0  0  0  0  0  0  0  0  0  0  0  0
  1  2  2  0
  2  3  1  0
  3  4  2  3
  4  5  1  0
  4  8  1  0
  5  6  1  0
  5  7  2  0
  8  9  2  0
  8 10  1  0
 10 11  1  0
 11 12  1  0
 11 31  1  0
 12 13  2  0
 12 14  1  0
 14 15  1  0
 15 16  1  1
 15 17  1  0
 15 31  1  0
 17 18  1  0
 18 19  2  0
 18 20  1  0
 21 20  1  1
 21 22  1  0
 21 29  1  0
 22 23  2  3
 22 25  1  0
 23 24  1  0
 25 26  2  0
 25 27  1  0
 27 28  1  0
 28 29  1  0
 29 30  1  1
 31 32  2  0
M  END
