
     RDKit          3D

 32 35  0  0  0  0  0  0  0  0999 V2000
    8.0530   -0.6840   -2.2850 C   0  0  0  0  0  0  0  0  0  0  0  0
    7.0960   -0.1890   -1.2180 C   0  0  0  0  0  0  0  0  0  0  0  0
    5.7570   -0.3650   -1.2720 C   0  0  0  0  0  0  0  0  0  0  0  0
    4.9210    0.1310   -0.2990 C   0  0  0  0  0  0  0  0  0  0  0  0
    3.4560    0.1780   -0.4320 C   0  0  0  0  0  0  0  0  0  0  0  0
    2.8030   -0.9450    0.1540 O   0  0  0  0  0  0  0  0  0  0  0  0
    1.4400   -1.0760    0.0930 C   0  0  0  0  0  0  0  0  0  0  0  0
    0.7700   -0.1150   -0.6770 C   0  0  0  0  0  0  0  0  0  0  0  0
   -0.5780   -0.1400   -0.7820 C   0  0  0  0  0  0  0  0  0  0  0  0
   -1.3810   -1.1100   -0.1400 C   0  0  0  0  0  0  0  0  0  0  0  0
   -2.8180   -0.9830   -0.3250 C   0  0  2  0  0  0  0  0  0  0  0  0
   -3.2670   -2.1050   -1.2600 C   0  0  0  0  0  0  0  0  0  0  0  0
   -3.1790    0.3910   -0.8860 C   0  0  0  0  0  0  0  0  0  0  0  0
   -4.3840    0.8460   -0.1250 C   0  0  0  0  0  0  0  0  0  0  0  0
   -4.8600   -0.3490    0.5370 N   0  0  0  0  0  0  0  0  0  0  0  0
   -6.2760   -0.6440    0.7850 C   0  0  2  0  0  0  0  0  0  0  0  0
   -7.0820   -0.5140   -0.4880 C   0  0  0  0  0  0  0  0  0  0  0  0
   -6.7340    0.4680    1.7060 C   0  0  0  0  0  0  0  0  0  0  0  0
   -6.6680    0.3260    2.9200 O   0  0  0  0  0  0  0  0  0  0  0  0
   -7.2280    1.6480    1.1210 N   0  0  0  0  0  0  0  0  0  0  0  0
   -7.6480    2.7070    1.8970 O   0  0  0  0  0  0  0  0  0  0  0  0
   -3.6850   -1.0780    0.8660 C   0  0  0  0  0  0  0  0  0  0  0  0
   -3.5150   -1.6480    1.9570 O   0  0  0  0  0  0  0  0  0  0  0  0
   -0.7170   -2.0510    0.6110 C   0  0  0  0  0  0  0  0  0  0  0  0
    0.6910   -2.0490    0.7350 C   0  0  0  0  0  0  0  0  0  0  0  0
    5.4620    0.8230    0.7610 C   0  0  0  0  0  0  0  0  0  0  0  0
    4.5850    1.2190    1.7690 C   0  0  0  0  0  0  0  0  0  0  0  0
    5.1570    1.8190    2.8950 C   0  0  0  0  0  0  0  0  0  0  0  0
    6.5200    2.0040    2.9760 C   0  0  0  0  0  0  0  0  0  0  0  0
    7.3680    1.5970    1.9420 C   0  0  0  0  0  0  0  0  0  0  0  0
    6.8340    0.9870    0.8030 C   0  0  0  0  0  0  0  0  0  0  0  0
    7.6260    0.4990   -0.1590 N   0  0  0  0  0  0  0  0  0  0  0  0
  1  2  1  0
  2  3  2  0
  2 32  1  0
  3  4  1  0
  4  5  1  0
  4 26  2  0
  5  6  1  0
  6  7  1  0
  7  8  2  0
  7 25  1  0
  8  9  1  0
  9 10  2  0
 10 11  1  0
 10 24  1  0
 11 12  1  6
 11 13  1  0
 11 22  1  0
 13 14  1  0
 14 15  1  0
 15 16  1  0
 15 22  1  0
 16 17  1  6
 16 18  1  0
 18 19  2  0
 18 20  1  0
 20 21  1  0
 22 23  2  0
 24 25  2  0
 26 27  1  0
 26 31  1  0
 27 28  2  0
 28 29  1  0
 29 30  2  0
 30 31  1  0
 31 32  2  0
M  END
