
     RDKit          3D

 31 33  0  0  0  0  0  0  0  0999 V2000
    0.7120    1.7920   -0.9580 C   0  0  0  0  0  0  0  0  0  0  0  0
    0.4070    0.4480   -1.6290 C   0  0  2  0  0  0  0  0  0  0  0  0
   -0.7130   -0.1760   -0.8450 C   0  0  0  0  0  0  0  0  0  0  0  0
   -1.8900    0.6920   -0.8700 N   0  0  0  0  0  0  0  0  0  0  0  0
   -3.0900    0.3430   -0.2080 C   0  0  0  0  0  0  0  0  0  0  0  0
   -3.1210   -0.7440    0.4110 O   0  0  0  0  0  0  0  0  0  0  0  0
   -4.2060    1.2180   -0.2620 N   0  0  0  0  0  0  0  0  0  0  0  0
   -4.0990    2.4650   -0.9990 C   0  0  0  0  0  0  0  0  0  0  0  0
   -5.4690    0.9350    0.3890 C   0  0  1  0  0  0  0  0  0  0  0  0
   -6.0600   -0.2520   -0.3060 C   0  0  0  0  0  0  0  0  0  0  0  0
   -7.0410   -1.0360    0.4830 C   0  0  0  0  0  0  0  0  0  0  0  0
   -7.5080   -0.2950    1.7340 C   0  0  0  0  0  0  0  0  0  0  0  0
   -6.2120   -0.1580    2.5470 C   0  0  1  0  0  0  0  0  0  0  0  0
   -5.6690   -1.4360    2.6080 O   0  0  0  0  0  0  0  0  0  0  0  0
   -5.3580    0.8370    1.8690 C   0  0  0  0  0  0  0  0  0  0  0  0
    1.5820   -0.3660   -1.4640 N   0  0  0  0  0  0  0  0  0  0  0  0
    2.1700   -0.7100   -0.1900 C   0  0  0  0  0  0  0  0  0  0  0  0
    3.2990   -1.6720   -0.5060 C   0  0  2  0  0  0  0  0  0  0  0  0
    4.4180   -1.4560    0.4330 C   0  0  0  0  0  0  0  0  0  0  0  0
    4.3450   -0.5770    1.3290 O   0  0  0  0  0  0  0  0  0  0  0  0
    5.5760   -2.2490    0.3140 N   0  0  0  0  0  0  0  0  0  0  0  0
    6.6790   -2.0670    1.2070 C   0  0  0  0  0  0  0  0  0  0  0  0
    7.1850   -0.6820    1.0790 C   0  0  0  0  0  0  0  0  0  0  0  0
    8.1600   -0.2530    0.2130 C   0  0  0  0  0  0  0  0  0  0  0  0
    8.3060    1.0940    0.4380 C   0  0  0  0  0  0  0  0  0  0  0  0
    7.4160    1.4280    1.4290 C   0  0  0  0  0  0  0  0  0  0  0  0
    7.2030    2.6800    1.9910 O   0  0  0  0  0  0  0  0  0  0  0  0
    6.7780    0.3450    1.7740 O   0  0  0  0  0  0  0  0  0  0  0  0
    3.6410   -1.3730   -1.9310 C   0  0  0  0  0  0  0  0  0  0  0  0
    2.3300   -0.9450   -2.5180 C   0  0  0  0  0  0  0  0  0  0  0  0
    2.0310   -1.1080   -3.7310 O   0  0  0  0  0  0  0  0  0  0  0  0
  2  1  1  1
  2  3  1  0
  2 16  1  0
  3  4  1  0
  4  5  1  0
  5  6  2  0
  5  7  1  0
  7  8  1  0
  9  7  1  6
  9 10  1  0
  9 15  1  0
 10 11  1  0
 11 12  1  0
 12 13  1  0
 13 14  1  6
 13 15  1  0
 16 17  1  0
 16 30  1  0
 17 18  1  0
 18 19  1  1
 18 29  1  0
 19 20  2  0
 19 21  1  0
 21 22  1  0
 22 23  1  0
 23 24  2  0
 23 28  1  0
 24 25  1  0
 25 26  2  0
 26 27  1  0
 26 28  1  0
 29 30  1  0
 30 31  2  0
M  END
