
     RDKit          3D

 32 34  0  0  0  0  0  0  0  0999 V2000
   -3.9740    0.6770   -2.8170 C   0  0  0  0  0  0  0  0  0  0  0  0
   -2.5540    1.0970   -3.0270 C   0  0  0  0  0  0  0  0  0  0  0  0
   -1.5930    0.4680   -2.0430 C   0  0  1  0  0  0  0  0  0  0  0  0
   -1.6710   -1.0350   -2.1990 C   0  0  0  0  0  0  0  0  0  0  0  0
   -0.2830    0.9820   -2.2760 N   0  0  0  0  0  0  0  0  0  0  0  0
    0.8620    0.5840   -1.5060 C   0  0  0  0  0  0  0  0  0  0  0  0
    0.6700   -0.2380   -0.6140 O   0  0  0  0  0  0  0  0  0  0  0  0
    2.1480    1.0960   -1.7450 N   0  0  0  0  0  0  0  0  0  0  0  0
    3.3410    0.8020   -1.0820 C   0  0  0  0  0  0  0  0  0  0  0  0
    4.5120    1.4260   -1.4690 C   0  0  0  0  0  0  0  0  0  0  0  0
    5.7240    1.1870   -0.8650 C   0  0  0  0  0  0  0  0  0  0  0  0
    5.7790    0.2870    0.1720 C   0  0  0  0  0  0  0  0  0  0  0  0
    6.8130   -0.1710    0.9760 C   0  0  0  0  0  0  0  0  0  0  0  0
    8.1940    0.2280    0.9020 C   0  0  0  0  0  0  0  0  0  0  0  0
    8.5710    1.0610    0.0600 O   0  0  0  0  0  0  0  0  0  0  0  0
    9.1260   -0.3190    1.7760 O   0  0  0  0  0  0  0  0  0  0  0  0
   10.4890    0.0150    1.7720 C   0  0  0  0  0  0  0  0  0  0  0  0
    6.2620   -1.0780    1.8540 C   0  0  0  0  0  0  0  0  0  0  0  0
    4.9360   -1.1720    1.5970 N   0  0  0  0  0  0  0  0  0  0  0  0
    4.6280   -0.3590    0.5890 C   0  0  0  0  0  0  0  0  0  0  0  0
    3.4160   -0.0870   -0.0530 C   0  0  0  0  0  0  0  0  0  0  0  0
   -2.1070    0.8010   -0.6850 C   0  0  0  0  0  0  0  0  0  0  0  0
   -1.3630    1.4690    0.0730 O   0  0  0  0  0  0  0  0  0  0  0  0
   -3.3520    0.4020   -0.2490 O   0  0  0  0  0  0  0  0  0  0  0  0
   -3.8580    0.7090    1.0380 C   0  0  0  0  0  0  0  0  0  0  0  0
   -5.2610    0.1240    1.2110 C   0  0  2  0  0  0  0  0  0  0  0  0
   -5.8260    0.4280    2.5580 C   0  0  0  0  0  0  0  0  0  0  0  0
   -6.7300   -0.5890    3.0350 N   0  0  0  0  0  0  0  0  0  0  0  0
   -7.2470   -1.4080    1.9600 C   0  0  1  0  0  0  0  0  0  0  0  0
   -8.0250   -0.6880    1.0630 O   0  0  0  0  0  0  0  0  0  0  0  0
   -6.2740   -2.0710    1.2610 O   0  0  0  0  0  0  0  0  0  0  0  0
   -5.1160   -1.3720    1.0480 C   0  0  0  0  0  0  0  0  0  0  0  0
  1  2  1  0
  2  3  1  0
  3  4  1  6
  3  5  1  0
  3 22  1  0
  5  6  1  0
  6  7  2  0
  6  8  1  0
  8  9  1  0
  9 10  2  0
  9 21  1  0
 10 11  1  0
 11 12  2  0
 12 13  1  0
 12 20  1  0
 13 14  1  0
 13 18  2  0
 14 15  2  0
 14 16  1  0
 16 17  1  0
 18 19  1  0
 19 20  1  0
 20 21  2  0
 22 23  2  0
 22 24  1  0
 24 25  1  0
 26 25  1  1
 26 27  1  0
 26 32  1  0
 27 28  1  0
 28 29  1  0
 29 30  1  6
 29 31  1  0
 31 32  1  0
M  END
