
     RDKit          3D

 30 33  0  0  0  0  0  0  0  0999 V2000
   -2.0510    0.1360    1.4810 O   0  0  0  0  0  0  0  0  0  0  0  0
   -1.2110    0.4470    0.5030 C   0  0  0  0  0  0  0  0  0  0  0  0
    0.1640    0.2810    0.7820 C   0  0  0  0  0  0  0  0  0  0  0  0
    1.2810    0.4560    0.1570 C   0  0  0  0  0  0  0  0  0  0  0  0
    1.4920    0.9350   -1.1860 C   0  0  0  0  0  0  0  0  0  0  0  0
    2.7480    1.0480   -1.6590 C   0  0  0  0  0  0  0  0  0  0  0  0
    3.9220    0.7120   -0.8880 C   0  0  0  0  0  0  0  0  0  0  0  0
    3.7250    0.2740    0.3390 C   0  0  0  0  0  0  0  0  0  0  0  0
    4.8810   -0.0940    1.1990 C   0  0  0  0  0  0  0  0  0  0  0  0
    6.1500    0.0780    0.5750 N   0  0  2  0  0  0  0  0  0  0  0  0
    6.4950   -0.8910   -0.4220 C   0  0  0  0  0  0  0  0  0  0  0  0
    7.5610   -1.7960    0.1720 C   0  0  0  0  0  0  0  0  0  0  0  0
    8.3030   -0.7870    1.0570 C   0  0  0  0  0  0  0  0  0  0  0  0
    7.1590   -0.0140    1.6230 C   0  0  0  0  0  0  0  0  0  0  0  0
    2.4800    0.1400    0.8670 O   0  0  0  0  0  0  0  0  0  0  0  0
   -1.8460    0.8880   -0.6400 N   0  0  0  0  0  0  0  0  0  0  0  0
   -3.2310    1.0430   -0.9070 C   0  0  0  0  0  0  0  0  0  0  0  0
   -3.6520    1.7770   -2.0300 C   0  0  0  0  0  0  0  0  0  0  0  0
   -4.9780    1.9420   -2.3410 C   0  0  0  0  0  0  0  0  0  0  0  0
   -5.5170    2.8510   -3.7320 Cl  0  0  0  0  0  0  0  0  0  0  0  0
   -5.9600    1.3730   -1.5340 C   0  0  0  0  0  0  0  0  0  0  0  0
   -7.2650    1.5410   -1.8170 N   0  0  0  0  0  0  0  0  0  0  0  0
   -8.1950    0.9940   -1.0100 C   0  0  0  0  0  0  0  0  0  0  0  0
   -7.8570    0.2620    0.1030 C   0  0  0  0  0  0  0  0  0  0  0  0
   -6.5000    0.0820    0.4020 C   0  0  0  0  0  0  0  0  0  0  0  0
   -6.1660   -0.7600    1.5460 C   0  0  0  0  0  0  0  0  0  0  0  0
   -5.9480   -2.1680    1.1250 C   0  0  0  0  0  0  0  0  0  0  0  0
   -4.9740   -2.4310    0.2150 O   0  0  0  0  0  0  0  0  0  0  0  0
   -5.5740    0.6430   -0.4230 C   0  0  0  0  0  0  0  0  0  0  0  0
   -4.2020    0.4970   -0.1350 C   0  0  0  0  0  0  0  0  0  0  0  0
  1  2  2  0
  2  3  1  0
  2 16  1  0
  3  4  2  3
  4  5  1  0
  4 15  1  0
  5  6  2  0
  6  7  1  0
  7  8  2  0
  8  9  1  0
  8 15  1  0
 10  9  1  1
 10 11  1  0
 10 14  1  0
 11 12  1  0
 12 13  1  0
 13 14  1  0
 16 17  1  0
 17 18  2  0
 17 30  1  0
 18 19  1  0
 19 20  1  0
 19 21  2  0
 21 22  1  0
 21 29  1  0
 22 23  2  0
 23 24  1  0
 24 25  2  0
 25 26  1  0
 25 29  1  0
 26 27  1  0
 27 28  1  0
 29 30  2  0
M  CHG  1  10   1
M  END
