
     RDKit          3D

 30 33  0  0  0  0  0  0  0  0999 V2000
    1.2620    3.6990    2.7230 C   0  0  0  0  0  0  0  0  0  0  0  0
    1.6400    2.8530    1.4620 C   0  0  0  0  0  0  0  0  0  0  0  0
    0.4000    2.0750    1.0440 C   0  0  0  0  0  0  0  0  0  0  0  0
    0.6070    1.2840   -0.2200 C   0  0  1  0  0  0  0  0  0  0  0  0
    1.0020    2.3660   -1.1650 O   0  0  0  0  0  0  0  0  0  0  0  0
    1.8280    0.6090   -0.1070 C   0  0  1  0  0  0  0  0  0  0  0  0
    2.1990   -0.3810    0.9650 C   0  0  0  0  0  0  0  0  0  0  0  0
    3.7040   -0.4080    0.6380 C   0  0  1  0  0  0  0  0  0  0  0  0
    4.4700   -1.5530    1.1310 C   0  0  0  0  0  0  0  0  0  0  0  0
    5.5230   -1.6750    0.0140 C   0  0  1  0  0  0  0  0  0  0  0  0
    5.9050   -3.1030   -0.2200 C   0  0  0  0  0  0  0  0  0  0  0  0
    4.8710   -1.0480   -1.2310 C   0  0  0  0  0  0  0  0  0  0  0  0
    3.4770   -0.9010   -0.8120 C   0  0  2  0  0  0  0  0  0  0  0  0
    2.6590    0.2190   -1.3270 C   0  0  0  0  0  0  0  0  0  0  0  0
   -0.7450    1.0290   -0.7910 C   0  0  1  0  0  0  0  0  0  0  0  0
   -1.2510    2.4300   -1.0710 C   0  0  0  0  0  0  0  0  0  0  0  0
   -2.4890    2.5220   -1.6880 O   0  0  0  0  0  0  0  0  0  0  0  0
   -0.8270    0.4170   -2.1810 C   0  0  0  0  0  0  0  0  0  0  0  0
   -2.2160   -0.1190   -2.4630 C   0  0  0  0  0  0  0  0  0  0  0  0
   -2.7870   -1.0100   -1.3990 C   0  0  1  0  0  0  0  0  0  0  0  0
   -1.6570   -2.0160   -1.0870 C   0  0  0  0  0  0  0  0  0  0  0  0
   -0.8170   -1.2450   -0.1760 C   0  0  0  0  0  0  0  0  0  0  0  0
   -1.5310    0.1370    0.0830 C   0  0  2  0  0  0  0  0  0  0  0  0
   -2.8690   -0.3590   -0.0270 C   0  0  2  0  0  0  0  0  0  0  0  0
   -2.9020   -1.6190    0.9220 C   0  0  0  0  0  0  0  0  0  0  0  0
   -4.0640   -2.5090    0.6950 C   0  0  0  0  0  0  0  0  0  0  0  0
   -3.9090   -3.6510    1.5610 O   0  0  0  0  0  0  0  0  0  0  0  0
   -4.1440    0.2240    0.3490 C   0  0  2  0  0  0  0  0  0  0  0  0
   -4.8350    1.2930   -0.4180 C   0  0  0  0  0  0  0  0  0  0  0  0
   -4.2170    0.5100    1.8500 C   0  0  0  0  0  0  0  0  0  0  0  0
  1  2  1  0
  2  3  1  0
  3  4  1  0
  4  5  1  6
  4  6  1  0
  4 15  1  0
  6  7  1  6
  6 14  1  0
  8  7  1  1
  8  9  1  0
  8 13  1  0
  9 10  1  0
 10 11  1  6
 10 12  1  0
 13 12  1  6
 13 14  1  0
 15 16  1  6
 15 18  1  0
 15 23  1  0
 16 17  1  0
 18 19  1  0
 20 19  1  6
 20 21  1  0
 20 24  1  0
 21 22  1  0
 23 22  1  6
 23 24  1  0
 24 25  1  1
 24 28  1  0
 25 26  1  0
 26 27  1  0
 28 29  1  6
 28 30  1  0
M  END
