
     RDKit          3D

 30 34  0  0  0  0  0  0  0  0999 V2000
    3.4540   -3.2040    0.9080 C   0  0  0  0  0  0  0  0  0  0  0  0
    3.7770   -1.8640    1.5240 C   0  0  0  0  0  0  0  0  0  0  0  0
    4.0410   -0.8030    0.5200 C   0  0  0  0  0  0  0  0  0  0  0  0
    2.9710   -0.4920   -0.4670 C   0  0  2  0  0  0  0  0  0  0  0  0
    3.5360    0.6340   -1.3690 C   0  0  0  0  0  0  0  0  0  0  0  0
    3.8690    1.7280   -0.4310 C   0  0  0  0  0  0  0  0  0  0  0  0
    4.9030    2.5440   -0.3150 C   0  0  0  0  0  0  0  0  0  0  0  0
    4.7220    3.4630    0.8160 C   0  0  0  0  0  0  0  0  0  0  0  0
    3.4140    3.0590    1.3510 C   0  0  0  0  0  0  0  0  0  0  0  0
    2.9240    2.0430    0.6150 C   0  0  0  0  0  0  0  0  0  0  0  0
    1.6480    1.2810    0.7360 C   0  0  0  0  0  0  0  0  0  0  0  0
    1.6870   -0.0780    0.1410 C   0  0  2  0  0  0  0  0  0  0  0  0
    1.3040   -1.0020    1.1110 O   0  0  0  0  0  0  0  0  0  0  0  0
    0.5360   -0.2150   -0.9220 C   0  0  1  0  0  0  0  0  0  0  0  0
    0.5420   -1.6420   -1.2910 C   0  0  0  0  0  0  0  0  0  0  0  0
   -0.7580   -2.2270   -1.6120 C   0  0  0  0  0  0  0  0  0  0  0  0
   -0.7860   -3.2840   -2.2290 O   0  0  0  0  0  0  0  0  0  0  0  0
   -1.9970   -1.6070   -1.2300 C   0  0  2  0  0  0  0  0  0  0  0  0
   -2.4010   -0.4050   -2.1190 C   0  0  1  0  0  0  0  0  0  0  0  0
   -1.3480    0.0790   -3.1310 C   0  0  0  0  0  0  0  0  0  0  0  0
   -3.7500   -0.5730   -2.7070 C   0  0  0  0  0  0  0  0  0  0  0  0
   -2.0350   -0.2450   -0.7380 C   0  0  1  0  0  0  0  0  0  0  0  0
   -2.9750   -0.0020    0.4240 C   0  0  1  0  0  0  0  0  0  0  0  0
   -3.0040    1.4410    0.8830 C   0  0  0  0  0  0  0  0  0  0  0  0
   -3.9460    1.5080    2.0600 C   0  0  0  0  0  0  0  0  0  0  0  0
   -4.1260    0.1670    2.7370 C   0  0  0  0  0  0  0  0  0  0  0  0
   -4.7210   -0.8700    1.8460 C   0  0  0  0  0  0  0  0  0  0  0  0
   -4.3280   -0.5220    0.3860 C   0  0  1  0  0  0  0  0  0  0  0  0
   -5.3370    0.3950    0.0540 O   0  0  0  0  0  0  0  0  0  0  0  0
   -0.6930    0.3800   -0.3990 C   0  0  0  0  0  0  0  0  0  0  0  0
  1  2  1  0
  2  3  1  0
  4  3  1  1
  4  5  1  0
  4 12  1  0
  5  6  1  0
  6  7  2  0
  6 10  1  0
  7  8  1  0
  8  9  1  0
  9 10  2  0
 10 11  1  0
 11 12  1  0
 12 13  1  1
 12 14  1  0
 14 15  1  1
 14 30  1  0
 15 16  1  0
 16 17  2  0
 18 16  1  6
 18 19  1  0
 18 22  1  0
 19 20  1  6
 19 21  1  0
 19 22  1  0
 22 23  1  0
 22 30  1  6
 23 24  1  6
 23 28  1  0
 24 25  1  0
 25 26  1  0
 26 27  1  0
 27 28  1  0
 28 29  1  1
M  END
