
     RDKit          3D

 30 34  0  0  0  0  0  0  0  0999 V2000
    1.8190    0.4550    2.3830 C   0  0  0  0  0  0  0  0  0  0  0  0
    0.9620   -0.4040    1.5290 C   0  0  1  0  0  0  0  0  0  0  0  0
    1.1790   -1.8360    1.9910 C   0  0  0  0  0  0  0  0  0  0  0  0
   -0.4970   -0.0780    1.8820 C   0  0  0  0  0  0  0  0  0  0  0  0
   -1.2590    0.0280    0.6050 C   0  0  2  0  0  0  0  0  0  0  0  0
   -2.0750   -1.1660    0.2920 C   0  0  2  0  0  0  0  0  0  0  0  0
   -1.8910   -1.7640   -1.0520 C   0  0  0  0  0  0  0  0  0  0  0  0
   -1.8520   -0.5800   -2.0030 C   0  0  1  0  0  0  0  0  0  0  0  0
   -3.1710    0.0700   -1.9610 C   0  0  0  0  0  0  0  0  0  0  0  0
   -4.1360   -0.3130   -0.8610 C   0  0  1  0  0  0  0  0  0  0  0  0
   -5.3090   -1.1070   -1.4720 C   0  0  0  0  0  0  0  0  0  0  0  0
   -6.2390   -1.5230   -0.5690 O   0  0  0  0  0  0  0  0  0  0  0  0
   -3.6040   -0.8880    0.3750 C   0  0  2  0  0  0  0  0  0  0  0  0
   -3.9470   -0.3080    1.6950 C   0  0  0  0  0  0  0  0  0  0  0  0
   -5.3810    0.0170    1.9790 C   0  0  0  0  0  0  0  0  0  0  0  0
   -5.9720    0.9480    1.1620 O   0  0  0  0  0  0  0  0  0  0  0  0
   -0.6310    0.2820   -1.7940 C   0  0  1  0  0  0  0  0  0  0  0  0
   -0.8080    1.6810   -2.3190 C   0  0  0  0  0  0  0  0  0  0  0  0
   -1.0410    2.5220   -1.1240 C   0  0  0  0  0  0  0  0  0  0  0  0
    0.0270    1.9270   -0.2070 C   0  0  0  0  0  0  0  0  0  0  0  0
   -0.1870    0.4120   -0.3830 C   0  0  1  0  0  0  0  0  0  0  0  0
    1.0770   -0.2320    0.0430 C   0  0  2  0  0  0  0  0  0  0  0  0
    1.2340   -1.5580   -0.4560 O   0  0  0  0  0  0  0  0  0  0  0  0
    2.3540    0.3740   -0.4410 C   0  0  0  0  0  0  0  0  0  0  0  0
    3.5170   -0.5130   -0.0400 C   0  0  0  0  0  0  0  0  0  0  0  0
    4.8110    0.1130   -0.5360 C   0  0  2  0  0  0  0  0  0  0  0  0
    5.9330   -0.8330   -0.0960 C   0  0  0  0  0  0  0  0  0  0  0  0
    7.1330    0.0780   -0.1640 C   0  0  0  0  0  0  0  0  0  0  0  0
    6.6570    1.4570    0.2040 C   0  0  0  0  0  0  0  0  0  0  0  0
    5.1300    1.4030    0.1600 C   0  0  0  0  0  0  0  0  0  0  0  0
  2  1  1  1
  2  3  1  0
  2  4  1  0
  2 22  1  0
  5  4  1  1
  5  6  1  0
  5 21  1  0
  6  7  1  6
  6 13  1  0
  7  8  1  0
  8  9  1  1
  8 17  1  0
  9 10  1  0
 10 11  1  6
 10 13  1  0
 11 12  1  0
 13 14  1  1
 14 15  1  0
 15 16  1  0
 17 18  1  1
 17 21  1  0
 18 19  1  0
 19 20  1  0
 21 20  1  1
 21 22  1  0
 22 23  1  6
 22 24  1  0
 24 25  1  0
 26 25  1  1
 26 27  1  0
 26 30  1  0
 27 28  1  0
 28 29  1  0
 29 30  1  0
M  END
