
     RDKit          3D

 30 32  0  0  0  0  0  0  0  0999 V2000
    6.8410   -2.1300   -0.9930 C   0  0  0  0  0  0  0  0  0  0  0  0
    5.8070   -1.4890   -0.2700 O   0  0  0  0  0  0  0  0  0  0  0  0
    5.9460   -0.2040    0.2130 C   0  0  0  0  0  0  0  0  0  0  0  0
    7.0890    0.5310    0.0370 C   0  0  0  0  0  0  0  0  0  0  0  0
    7.2010    1.8300    0.5350 C   0  0  0  0  0  0  0  0  0  0  0  0
    6.1410    2.3830    1.2160 C   0  0  0  0  0  0  0  0  0  0  0  0
    6.2740    3.6400    1.6990 F   0  0  0  0  0  0  0  0  0  0  0  0
    4.9890    1.6420    1.3940 C   0  0  0  0  0  0  0  0  0  0  0  0
    3.9670    2.2520    2.0730 F   0  0  0  0  0  0  0  0  0  0  0  0
    4.8600    0.3500    0.9080 C   0  0  0  0  0  0  0  0  0  0  0  0
    3.6480   -0.4060    1.1510 C   0  0  0  0  0  0  0  0  0  0  0  0
    3.7370   -1.4750    1.8520 O   0  0  0  0  0  0  0  0  0  0  0  0
    2.3500   -0.0220    0.6510 C   0  0  0  0  0  0  0  0  0  0  0  0
    2.0770    1.0510   -0.1470 C   0  0  0  0  0  0  0  0  0  0  0  0
    0.8230    1.2930   -0.5720 N   0  0  0  0  0  0  0  0  0  0  0  0
   -0.2170    0.5160   -0.2500 C   0  0  0  0  0  0  0  0  0  0  0  0
   -1.5020    0.7680   -0.7680 N   0  0  0  0  0  0  0  0  0  0  0  0
   -2.6370   -0.0410   -0.4050 C   0  0  1  0  0  0  0  0  0  0  0  0
   -3.4150    0.4590    0.7740 C   0  0  0  0  0  0  0  0  0  0  0  0
   -4.8630    0.6170    0.3970 C   0  0  0  0  0  0  0  0  0  0  0  0
   -5.4480   -0.5270   -0.2180 N   0  0  0  0  0  0  0  0  0  0  0  0
   -7.0480   -0.1230   -0.7450 S   0  0  1  0  0  0  0  0  0  0  0  0
   -8.0450    0.3170    0.6550 C   0  0  0  0  0  0  0  0  0  0  0  0
   -7.0000    0.9850   -1.7530 O   0  0  0  0  0  0  0  0  0  0  0  0
   -7.6300   -1.3800   -1.3650 O   0  0  0  0  0  0  0  0  0  0  0  0
   -4.6920   -1.1340   -1.2660 C   0  0  0  0  0  0  0  0  0  0  0  0
   -3.4510   -0.3290   -1.6240 C   0  0  0  0  0  0  0  0  0  0  0  0
    0.0270   -0.5370    0.5330 N   0  0  0  0  0  0  0  0  0  0  0  0
    1.2550   -0.8320    0.9880 C   0  0  0  0  0  0  0  0  0  0  0  0
    1.4210   -1.9670    1.8170 N   0  0  0  0  0  0  0  0  0  0  0  0
  1  2  1  0
  2  3  1  0
  3  4  2  0
  3 10  1  0
  4  5  1  0
  5  6  2  0
  6  7  1  0
  6  8  1  0
  8  9  1  0
  8 10  2  0
 10 11  1  0
 11 12  2  0
 11 13  1  0
 13 14  2  0
 13 29  1  0
 14 15  1  0
 15 16  2  0
 16 17  1  0
 16 28  1  0
 18 17  1  6
 18 19  1  0
 18 27  1  0
 19 20  1  0
 20 21  1  0
 21 22  1  0
 21 26  1  0
 22 23  1  1
 22 24  2  0
 22 25  2  0
 26 27  1  0
 28 29  2  0
 29 30  1  0
M  END
