
     RDKit          3D

 30 33  0  0  0  0  0  0  0  0999 V2000
    4.4970    1.2680   -3.2440 C   0  0  0  0  0  0  0  0  0  0  0  0
    4.8830    0.2910   -2.2230 C   0  0  0  0  0  0  0  0  0  0  0  0
    4.1810    0.2840   -0.8980 C   0  0  2  0  0  0  0  0  0  0  0  0
    2.7490    0.0120   -1.0260 C   0  0  2  0  0  0  0  0  0  0  0  0
    1.9520    1.0360   -1.7490 C   0  0  0  0  0  0  0  0  0  0  0  0
    0.4750    0.9100   -1.4260 C   0  0  0  0  0  0  0  0  0  0  0  0
    0.0380   -0.5000   -1.1240 C   0  0  0  0  0  0  0  0  0  0  0  0
    0.7890   -1.1270   -0.0210 C   0  0  2  0  0  0  0  0  0  0  0  0
    0.1170   -1.5470    1.2140 C   0  0  0  0  0  0  0  0  0  0  0  0
   -0.5870   -0.6230    2.0930 C   0  0  0  0  0  0  0  0  0  0  0  0
   -1.7720    0.1120    1.5370 C   0  0  0  0  0  0  0  0  0  0  0  0
   -2.7730   -0.7740    1.1060 O   0  0  0  0  0  0  0  0  0  0  0  0
   -3.8690   -0.0810    0.5970 C   0  0  1  0  0  0  0  0  0  0  0  0
   -4.1920   -0.4370   -0.8260 C   0  0  0  0  0  0  0  0  0  0  0  0
   -5.2820    0.4880   -1.3080 C   0  0  2  0  0  0  0  0  0  0  0  0
   -4.9610    1.9370   -1.0320 C   0  0  0  0  0  0  0  0  0  0  0  0
   -6.5420    0.1370   -0.5740 C   0  0  2  0  0  0  0  0  0  0  0  0
   -7.2930    1.2570   -0.2240 O   0  0  0  0  0  0  0  0  0  0  0  0
   -6.2860   -0.7790    0.5980 C   0  0  0  0  0  0  0  0  0  0  0  0
   -5.1080   -0.3550    1.4300 C   0  0  1  0  0  0  0  0  0  0  0  0
   -4.7810   -1.5250    2.3540 C   0  0  0  0  0  0  0  0  0  0  0  0
   -5.4180    0.7260    2.2380 O   0  0  0  0  0  0  0  0  0  0  0  0
    2.0610   -0.3100    0.2900 C   0  0  0  0  0  0  0  0  0  0  0  0
    4.4650    1.6530   -0.2700 C   0  0  0  0  0  0  0  0  0  0  0  0
    5.9610    1.5700    0.0720 C   0  0  0  0  0  0  0  0  0  0  0  0
    6.0070    0.1600    0.5760 C   0  0  0  0  0  0  0  0  0  0  0  0
    6.7000   -0.6280    1.3810 C   0  0  0  0  0  0  0  0  0  0  0  0
    6.1160   -1.9680    1.3710 C   0  0  0  0  0  0  0  0  0  0  0  0
    4.9840   -1.8630    0.4460 C   0  0  0  0  0  0  0  0  0  0  0  0
    4.9350   -0.6140   -0.0070 C   0  0  0  0  0  0  0  0  0  0  0  0
  1  2  1  0
  3  2  1  6
  3  4  1  0
  3 24  1  0
  3 30  1  0
  4  5  1  1
  4 23  1  0
  5  6  1  0
  6  7  1  0
  7  8  1  0
  8  9  1  1
  8 23  1  0
  9 10  1  0
 10 11  1  0
 11 12  1  0
 13 12  1  1
 13 14  1  0
 13 20  1  0
 14 15  1  0
 15 16  1  1
 15 17  1  0
 17 18  1  1
 17 19  1  0
 19 20  1  0
 20 21  1  1
 20 22  1  0
 24 25  1  0
 25 26  1  0
 26 27  2  0
 26 30  1  0
 27 28  1  0
 28 29  1  0
 29 30  2  0
M  END
