
     RDKit          3D

 30 33  0  0  0  0  0  0  0  0999 V2000
   -7.4430   -0.8810   -1.1810 C   0  0  0  0  0  0  0  0  0  0  0  0
   -6.6910    0.4090   -0.9680 C   0  0  0  0  0  0  0  0  0  0  0  0
   -5.7710    0.3330    0.2320 C   0  0  2  0  0  0  0  0  0  0  0  0
   -5.0750    1.6470    0.3610 C   0  0  0  0  0  0  0  0  0  0  0  0
   -4.0150    1.8450   -0.6630 C   0  0  0  0  0  0  0  0  0  0  0  0
   -3.4010    0.5920   -1.1830 C   0  0  0  0  0  0  0  0  0  0  0  0
   -3.4800   -0.5810   -0.2750 C   0  0  1  0  0  0  0  0  0  0  0  0
   -3.0820   -1.8170   -1.0960 C   0  0  0  0  0  0  0  0  0  0  0  0
   -1.7220   -1.6150   -1.6870 C   0  0  0  0  0  0  0  0  0  0  0  0
   -0.6930   -1.0970   -0.7590 C   0  0  0  0  0  0  0  0  0  0  0  0
   -1.1060   -0.6770    0.5780 C   0  0  1  0  0  0  0  0  0  0  0  0
   -0.4310    0.6600    0.9380 C   0  0  1  0  0  0  0  0  0  0  0  0
   -0.9020    0.9580    2.2340 O   0  0  0  0  0  0  0  0  0  0  0  0
    1.0470    0.5160    0.9480 C   0  0  0  0  0  0  0  0  0  0  0  0
    1.8390    1.1030   -0.0240 C   0  0  0  0  0  0  0  0  0  0  0  0
    3.2200    0.9680   -0.0140 C   0  0  0  0  0  0  0  0  0  0  0  0
    3.8630    0.2420    0.9670 C   0  0  0  0  0  0  0  0  0  0  0  0
    5.3560    0.0990    0.9750 C   0  0  2  0  0  0  0  0  0  0  0  0
    5.9110    1.4950    1.2610 C   0  0  0  0  0  0  0  0  0  0  0  0
    7.3650    1.5750    0.9950 C   0  0  0  0  0  0  0  0  0  0  0  0
    7.8170    1.0860   -0.1550 C   0  0  0  0  0  0  0  0  0  0  0  0
    6.7700    0.4970   -1.0650 C   0  0  0  0  0  0  0  0  0  0  0  0
    5.8720   -0.4380   -0.3200 C   0  0  1  0  0  0  0  0  0  0  0  0
    6.6200   -1.7490   -0.1430 C   0  0  0  0  0  0  0  0  0  0  0  0
    7.7090   -1.5590    0.7050 O   0  0  0  0  0  0  0  0  0  0  0  0
    3.0790   -0.3440    1.9380 C   0  0  0  0  0  0  0  0  0  0  0  0
    1.7050   -0.2060    1.9220 C   0  0  0  0  0  0  0  0  0  0  0  0
   -2.5370   -0.5470    0.8840 C   0  0  0  0  0  0  0  0  0  0  0  0
   -4.8840   -0.8570    0.2210 C   0  0  1  0  0  0  0  0  0  0  0  0
   -4.8100   -1.3890    1.5130 O   0  0  0  0  0  0  0  0  0  0  0  0
  1  2  1  0
  3  2  1  6
  3  4  1  0
  3 29  1  0
  4  5  1  0
  5  6  1  0
  7  6  1  6
  7  8  1  0
  7 28  1  0
  7 29  1  0
  8  9  1  0
  9 10  1  0
 11 10  1  6
 11 12  1  0
 11 28  1  0
 12 13  1  1
 12 14  1  0
 14 15  2  0
 14 27  1  0
 15 16  1  0
 16 17  2  0
 18 17  1  6
 17 26  1  0
 18 19  1  0
 18 23  1  0
 19 20  1  0
 20 21  2  0
 21 22  1  0
 22 23  1  0
 23 24  1  1
 24 25  1  0
 26 27  2  0
 29 30  1  1
M  END
