
     RDKit          3D

 30 32  0  0  0  0  0  0  0  0999 V2000
   -3.7690   -1.9840    0.4890 C   0  0  0  0  0  0  0  0  0  0  0  0
   -2.7460   -1.0430    0.9380 C   0  0  2  0  0  0  0  0  0  0  0  0
   -3.3390   -0.1710    2.0220 C   0  0  0  0  0  0  0  0  0  0  0  0
   -1.9220   -0.3130   -0.0640 C   0  0  1  0  0  0  0  0  0  0  0  0
   -1.1350   -1.2570   -0.9190 C   0  0  0  0  0  0  0  0  0  0  0  0
    0.0750   -1.9170   -0.3670 C   0  0  2  0  0  0  0  0  0  0  0  0
    1.0830   -2.0160   -1.5440 C   0  0  0  0  0  0  0  0  0  0  0  0
   -0.2170   -3.4110   -0.0920 C   0  0  0  0  0  0  0  0  0  0  0  0
    0.9490   -4.1550    0.4510 C   0  0  0  0  0  0  0  0  0  0  0  0
    0.5250   -5.5010    0.6260 O   0  0  0  0  0  0  0  0  0  0  0  0
    0.7820   -1.2910    0.7570 C   0  0  0  0  0  0  0  0  0  0  0  0
    2.2310   -0.9580    0.5320 C   0  0  0  0  0  0  0  0  0  0  0  0
    3.2920   -1.6330    0.9150 C   0  0  0  0  0  0  0  0  0  0  0  0
    4.4820   -1.0090    0.5170 C   0  0  1  0  0  0  0  0  0  0  0  0
    3.9770    0.2870   -0.1420 C   0  0  0  0  0  0  0  0  0  0  0  0
    2.6730    0.2530   -0.1250 C   0  0  0  0  0  0  0  0  0  0  0  0
    1.6860    1.2550   -0.6880 C   0  0  0  0  0  0  0  0  0  0  0  0
    1.2540    2.2910    0.2930 C   0  0  0  0  0  0  0  0  0  0  0  0
    0.1470    3.1750   -0.2970 C   0  0  0  0  0  0  0  0  0  0  0  0
   -1.2450    2.6770    0.0930 C   0  0  1  0  0  0  0  0  0  0  0  0
   -1.9810    3.9770    0.5030 C   0  0  0  0  0  0  0  0  0  0  0  0
   -2.0360    4.8760   -0.5330 O   0  0  0  0  0  0  0  0  0  0  0  0
   -1.8490    2.0160   -1.0470 C   0  0  2  0  0  0  0  0  0  0  0  0
   -2.8110    2.9170   -1.5910 O   0  0  0  0  0  0  0  0  0  0  0  0
   -2.5740    0.7120   -0.9200 C   0  0  1  0  0  0  0  0  0  0  0  0
   -2.7100    0.1850   -2.3470 C   0  0  0  0  0  0  0  0  0  0  0  0
   -4.0050    1.0720   -0.4850 C   0  0  0  0  0  0  0  0  0  0  0  0
    5.4370    0.5570   -0.2590 C   0  0  0  0  0  0  0  0  0  0  0  0
    5.4150   -0.1100    1.2100 C   0  0  1  0  0  0  0  0  0  0  0  0
    4.7380    0.8910    2.0900 C   0  0  0  0  0  0  0  0  0  0  0  0
  2  1  1  6
  2  3  1  0
  2  4  1  0
  4  5  1  6
  4 25  1  0
  5  6  1  0
  6  7  1  6
  6  8  1  0
  6 11  1  0
  8  9  1  0
  9 10  1  0
 11 12  1  0
 12 13  2  0
 12 16  1  0
 14 13  1  1
 14 15  1  0
 14 29  1  0
 15 16  2  0
 15 28  1  0
 16 17  1  0
 17 18  1  0
 18 19  1  0
 19 20  1  0
 20 21  1  6
 20 23  1  0
 21 22  1  0
 23 24  1  1
 23 25  1  0
 25 26  1  6
 25 27  1  0
 28 29  1  0
 29 30  1  1
M  END
