
     RDKit          3D

 12 11  0  0  0  0  0  0  0  0999 V2000
    2.4850    0.9640    0.4680 O   0  0  0  0  0  0  0  0  0  0  0  0
    3.2480    0.2820   -0.2560 C   0  0  0  0  0  0  0  0  0  0  0  0
    4.2570    0.9310   -1.0000 O   0  0  0  0  0  0  0  0  0  0  0  0
    3.1540   -1.0830   -0.3640 O   0  0  0  0  0  0  0  0  0  0  0  0
    2.2250   -1.8620    0.2860 C   0  0  0  0  0  0  0  0  0  0  0  0
    0.7920   -1.6200   -0.0860 C   0  0  0  0  0  0  0  0  0  0  0  0
    0.3520   -0.3440    0.1560 O   0  0  0  0  0  0  0  0  0  0  0  0
   -0.9830   -0.2670   -0.2350 C   0  0  0  0  0  0  0  0  0  0  0  0
   -1.5490    1.0950   -0.0070 C   0  0  1  0  0  0  0  0  0  0  0  0
   -0.8750    2.0700   -0.7080 O   0  0  0  0  0  0  0  0  0  0  0  0
   -2.9970    1.1060   -0.4490 C   0  0  0  0  0  0  0  0  0  0  0  0
   -3.6410    0.0940    0.2930 O   0  0  0  0  0  0  0  0  0  0  0  0
  1  2  2  0
  2  3  1  0
  2  4  1  0
  4  5  1  0
  5  6  1  0
  6  7  1  0
  7  8  1  0
  8  9  1  0
  9 10  1  6
  9 11  1  0
 11 12  1  0
M  END
