
     RDKit          3D

 12 11  0  0  0  0  0  0  0  0999 V2000
    0.1690    1.5390    0.0250 O   0  0  0  0  0  0  0  0  0  0  0  0
    0.4080    0.3660    0.3940 C   0  0  0  0  0  0  0  0  0  0  0  0
   -0.6000   -0.6210    0.8000 C   0  0  0  0  0  0  0  0  0  0  0  0
   -1.8970   -0.1400    0.7420 O   0  0  0  0  0  0  0  0  0  0  0  0
   -2.2840    0.2670   -0.5070 C   0  0  2  0  0  0  0  0  0  0  0  0
   -2.5660    1.6230   -0.4830 O   0  0  0  0  0  0  0  0  0  0  0  0
   -3.4500   -0.5100   -1.0620 C   0  0  0  0  0  0  0  0  0  0  0  0
   -4.5830   -0.4210   -0.2890 O   0  0  0  0  0  0  0  0  0  0  0  0
    1.7400   -0.0260    0.4200 O   0  0  0  0  0  0  0  0  0  0  0  0
    2.8030    0.8220    0.0560 C   0  0  0  0  0  0  0  0  0  0  0  0
    4.0860    0.0220    0.2200 C   0  0  0  0  0  0  0  0  0  0  0  0
    4.0580   -1.1000   -0.6000 O   0  0  0  0  0  0  0  0  0  0  0  0
  1  2  2  0
  2  3  1  0
  2  9  1  0
  3  4  1  0
  4  5  1  0
  5  6  1  1
  5  7  1  0
  7  8  1  0
  9 10  1  0
 10 11  1  0
 11 12  1  0
M  END
