
     RDKit          3D

 12 11  0  0  0  0  0  0  0  0999 V2000
   -2.0400    0.6340   -1.7530 O   0  0  0  0  0  0  0  0  0  0  0  0
   -2.2730   -0.4430   -0.9230 C   0  0  0  0  0  0  0  0  0  0  0  0
   -2.6550   -0.0610    0.4670 C   0  0  0  0  0  0  0  0  0  0  0  0
   -1.7490    0.6800    1.1620 O   0  0  0  0  0  0  0  0  0  0  0  0
   -0.5160    0.1370    1.3700 C   0  0  2  0  0  0  0  0  0  0  0  0
   -0.1520    0.0190    2.8370 C   0  0  0  0  0  0  0  0  0  0  0  0
    1.1200   -0.5440    2.9310 O   0  0  0  0  0  0  0  0  0  0  0  0
    0.4330    0.9930    0.8120 O   0  0  0  0  0  0  0  0  0  0  0  0
    1.2370    0.3440   -0.1090 C   0  0  0  0  0  0  0  0  0  0  0  0
    2.1500    1.3040   -0.6010 O   0  0  0  0  0  0  0  0  0  0  0  0
    2.9630    0.6700   -1.5240 C   0  0  0  0  0  0  0  0  0  0  0  0
    2.1840    0.1730   -2.5460 O   0  0  0  0  0  0  0  0  0  0  0  0
  1  2  1  0
  2  3  1  0
  3  4  1  0
  4  5  1  0
  5  6  1  1
  5  8  1  0
  6  7  1  0
  8  9  1  0
  9 10  1  0
 10 11  1  0
 11 12  1  0
M  END
