
     RDKit          3D

 13 12  0  0  0  0  0  0  0  0999 V2000
   -1.0220   -2.4290   -0.3680 O   0  0  0  0  0  0  0  0  0  0  0  0
   -1.8310   -1.4690   -0.3730 C   0  0  0  0  0  0  0  0  0  0  0  0
   -3.1750   -1.7660   -0.5390 O   0  0  0  0  0  0  0  0  0  0  0  0
   -1.4190   -0.0740   -0.2120 C   0  0  0  0  0  0  0  0  0  0  0  0
    0.0500    0.1200   -0.0370 C   0  0  2  0  0  0  0  0  0  0  0  0
    0.7260   -0.3650   -1.1330 O   0  0  0  0  0  0  0  0  0  0  0  0
    0.5480   -0.5020    1.2670 C   0  0  0  0  0  0  0  0  0  0  0  0
    2.0010   -0.2990    1.4180 C   0  0  0  0  0  0  0  0  0  0  0  0
    2.6140   -0.7290    2.4130 O   0  0  0  0  0  0  0  0  0  0  0  0
    2.7020    0.3810    0.4400 O   0  0  0  0  0  0  0  0  0  0  0  0
    0.2910    1.6050    0.0460 C   0  0  0  0  0  0  0  0  0  0  0  0
    1.0070    2.1870   -0.8050 O   0  0  0  0  0  0  0  0  0  0  0  0
   -0.2600    2.3820    1.0490 O   0  0  0  0  0  0  0  0  0  0  0  0
  1  2  2  0
  2  3  1  0
  2  4  1  0
  4  5  1  0
  5  6  1  6
  5  7  1  0
  5 11  1  0
  7  8  1  0
  8  9  2  0
  8 10  1  0
 11 12  2  0
 11 13  1  0
M  END
