
     RDKit          3D

 12 11  0  0  0  0  0  0  0  0999 V2000
   -2.7070    1.4720    0.1810 O   0  0  0  0  0  0  0  0  0  0  0  0
   -3.4860    0.5590   -0.5140 C   0  0  0  0  0  0  0  0  0  0  0  0
   -3.0850   -0.8740   -0.1830 C   0  0  2  0  0  0  0  0  0  0  0  0
   -3.2340   -1.1400    1.1680 O   0  0  0  0  0  0  0  0  0  0  0  0
   -1.6290   -1.1090   -0.5420 C   0  0  0  0  0  0  0  0  0  0  0  0
   -0.7800   -0.2930    0.1760 O   0  0  0  0  0  0  0  0  0  0  0  0
    0.5250   -0.5410   -0.1810 C   0  0  0  0  0  0  0  0  0  0  0  0
    1.4330    0.2570    0.5140 O   0  0  0  0  0  0  0  0  0  0  0  0
    2.7270   -0.0410    0.1090 C   0  0  2  0  0  0  0  0  0  0  0  0
    3.5030   -0.5380    1.1550 O   0  0  0  0  0  0  0  0  0  0  0  0
    3.4080    1.1470   -0.5340 C   0  0  0  0  0  0  0  0  0  0  0  0
    3.5090    2.2360    0.3110 O   0  0  0  0  0  0  0  0  0  0  0  0
  1  2  1  0
  2  3  1  0
  3  4  1  1
  3  5  1  0
  5  6  1  0
  6  7  1  0
  7  8  1  0
  8  9  1  0
  9 10  1  1
  9 11  1  0
 11 12  1  0
M  END
