
     RDKit          3D

 12 11  0  0  0  0  0  0  0  0999 V2000
   -3.7150   -2.1070   -1.1450 O   0  0  0  0  0  0  0  0  0  0  0  0
   -3.1290   -1.1250   -0.2940 C   0  0  0  0  0  0  0  0  0  0  0  0
   -3.2440    0.1210   -0.8670 O   0  0  0  0  0  0  0  0  0  0  0  0
   -2.7420    1.1690   -0.1650 C   0  0  0  0  0  0  0  0  0  0  0  0
   -1.2820    1.1490    0.1520 C   0  0  0  0  0  0  0  0  0  0  0  0
   -0.9360    0.0680    0.9110 O   0  0  0  0  0  0  0  0  0  0  0  0
    0.4380    0.0850    1.1870 C   0  0  0  0  0  0  0  0  0  0  0  0
    1.0860    0.0460   -0.0270 O   0  0  0  0  0  0  0  0  0  0  0  0
    2.4540    0.0560    0.0440 C   0  0  2  0  0  0  0  0  0  0  0  0
    2.9990    1.1550   -0.6190 O   0  0  0  0  0  0  0  0  0  0  0  0
    3.0770   -1.2010   -0.5380 C   0  0  0  0  0  0  0  0  0  0  0  0
    4.4470   -1.1250   -0.4340 O   0  0  0  0  0  0  0  0  0  0  0  0
  1  2  1  0
  2  3  1  0
  3  4  1  0
  4  5  1  0
  5  6  1  0
  6  7  1  0
  7  8  1  0
  8  9  1  0
  9 10  1  6
  9 11  1  0
 11 12  1  0
M  END
