
     RDKit          3D

 12 11  0  0  0  0  0  0  0  0999 V2000
    3.5850   -0.9090   -0.7860 O   0  0  0  0  0  0  0  0  0  0  0  0
    3.2350   -0.7480    0.5590 C   0  0  0  0  0  0  0  0  0  0  0  0
    2.8400    0.6690    0.7730 C   0  0  0  0  0  0  0  0  0  0  0  0
    1.7790    1.0580   -0.0020 O   0  0  0  0  0  0  0  0  0  0  0  0
    0.6700    0.3220    0.2690 C   0  0  0  0  0  0  0  0  0  0  0  0
   -0.4420    0.7130   -0.5100 O   0  0  0  0  0  0  0  0  0  0  0  0
   -1.4830   -0.1260   -0.1170 C   0  0  2  0  0  0  0  0  0  0  0  0
   -1.9010   -0.9350   -1.3220 C   0  0  0  0  0  0  0  0  0  0  0  0
   -2.9450   -1.7700   -0.9140 O   0  0  0  0  0  0  0  0  0  0  0  0
   -2.6370    0.6770    0.4520 C   0  0  2  0  0  0  0  0  0  0  0  0
   -3.1380    1.5620   -0.4700 O   0  0  0  0  0  0  0  0  0  0  0  0
   -2.1290    1.3840    1.5430 O   0  0  0  0  0  0  0  0  0  0  0  0
  1  2  1  0
  2  3  1  0
  3  4  1  0
  4  5  1  0
  5  6  1  0
  6  7  1  0
  7  8  1  6
  7 10  1  0
  8  9  1  0
 10 11  1  6
 10 12  1  0
M  END
