
     RDKit          3D

 12 11  0  0  0  0  0  0  0  0999 V2000
   -5.0980   -0.4020    0.0840 O   0  0  0  0  0  0  0  0  0  0  0  0
   -3.7330   -0.3350    0.3580 C   0  0  0  0  0  0  0  0  0  0  0  0
   -3.0090   -0.0030   -0.9290 C   0  0  0  0  0  0  0  0  0  0  0  0
   -1.6470    0.0880   -0.7740 O   0  0  0  0  0  0  0  0  0  0  0  0
   -1.2430    1.0520    0.1190 C   0  0  0  0  0  0  0  0  0  0  0  0
    0.1530    1.0370    0.1800 O   0  0  0  0  0  0  0  0  0  0  0  0
    0.5410   -0.2340    0.6070 C   0  0  0  0  0  0  0  0  0  0  0  0
    2.0440   -0.2900    0.6850 C   0  0  0  0  0  0  0  0  0  0  0  0
    2.6520   -0.0440   -0.5280 O   0  0  0  0  0  0  0  0  0  0  0  0
    4.0310   -0.1190   -0.3480 C   0  0  1  0  0  0  0  0  0  0  0  0
    4.5870   -1.0880   -1.1800 O   0  0  0  0  0  0  0  0  0  0  0  0
    4.6340    1.1250   -0.6200 O   0  0  0  0  0  0  0  0  0  0  0  0
  1  2  1  0
  2  3  1  0
  3  4  1  0
  4  5  1  0
  5  6  1  0
  6  7  1  0
  7  8  1  0
  8  9  1  0
  9 10  1  0
 10 11  1  6
 10 12  1  0
M  END
