
     RDKit          3D

 12 11  0  0  0  0  0  0  0  0999 V2000
    1.0150    1.0850    0.9970 O   0  0  0  0  0  0  0  0  0  0  0  0
    0.7720    0.4140   -0.0380 C   0  0  0  0  0  0  0  0  0  0  0  0
   -0.6300    0.2210   -0.5130 C   0  0  0  0  0  0  0  0  0  0  0  0
   -1.5130    0.8770    0.3490 O   0  0  0  0  0  0  0  0  0  0  0  0
   -2.8240    0.7390   -0.0310 C   0  0  2  0  0  0  0  0  0  0  0  0
   -3.4320    1.9390   -0.3470 O   0  0  0  0  0  0  0  0  0  0  0  0
   -3.5950   -0.0400    1.0120 C   0  0  0  0  0  0  0  0  0  0  0  0
   -3.0610   -1.3130    1.1900 O   0  0  0  0  0  0  0  0  0  0  0  0
    1.8560   -0.1290   -0.7040 O   0  0  0  0  0  0  0  0  0  0  0  0
    3.1790    0.0880   -0.2040 C   0  0  0  0  0  0  0  0  0  0  0  0
    4.1920   -0.6050   -1.1050 C   0  0  0  0  0  0  0  0  0  0  0  0
    3.9720   -1.9690   -1.1650 O   0  0  0  0  0  0  0  0  0  0  0  0
  1  2  2  0
  2  3  1  0
  2  9  1  0
  3  4  1  0
  4  5  1  0
  5  6  1  1
  5  7  1  0
  7  8  1  0
  9 10  1  0
 10 11  1  0
 11 12  1  0
M  END
