
     RDKit          3D

 12 11  0  0  0  0  0  0  0  0999 V2000
   -3.9100   -0.1910    2.0890 O   0  0  0  0  0  0  0  0  0  0  0  0
   -3.0070   -0.5180    1.0750 C   0  0  0  0  0  0  0  0  0  0  0  0
   -1.7420   -0.9920    1.7420 C   0  0  0  0  0  0  0  0  0  0  0  0
   -0.7470   -1.3540    0.8680 O   0  0  0  0  0  0  0  0  0  0  0  0
   -0.3140   -0.3710    0.0230 C   0  0  2  0  0  0  0  0  0  0  0  0
   -0.5880   -0.8410   -1.4050 C   0  0  0  0  0  0  0  0  0  0  0  0
    0.1270   -2.0270   -1.5820 O   0  0  0  0  0  0  0  0  0  0  0  0
    1.0390   -0.1050    0.0930 O   0  0  0  0  0  0  0  0  0  0  0  0
    1.3440    1.2220    0.3050 C   0  0  0  0  0  0  0  0  0  0  0  0
    2.7280    1.3460    0.3540 O   0  0  0  0  0  0  0  0  0  0  0  0
    3.3140    0.9230   -0.8370 C   0  0  0  0  0  0  0  0  0  0  0  0
    4.6940    1.0700   -0.7250 O   0  0  0  0  0  0  0  0  0  0  0  0
  1  2  1  0
  2  3  1  0
  3  4  1  0
  4  5  1  0
  5  6  1  6
  5  8  1  0
  6  7  1  0
  8  9  1  0
  9 10  1  0
 10 11  1  0
 11 12  1  0
M  END
