
     RDKit          3D

 19 21  0  0  0  0  0  0  0  0999 V2000
    2.3320   -2.3830    0.7250 N   0  0  0  0  0  0  0  0  0  0  0  0
    2.7220   -1.1260    1.3370 C   0  0  1  0  0  0  0  0  0  0  0  0
    3.5690   -0.3580    0.3130 C   0  0  0  0  0  0  0  0  0  0  0  0
    2.4850   -0.0370   -0.7080 C   0  0  0  0  0  0  0  0  0  0  0  0
    1.4500    0.4810    0.1550 N   0  0  0  0  0  0  0  0  0  0  0  0
    0.5150    1.4750   -0.2030 C   0  0  0  0  0  0  0  0  0  0  0  0
    1.0290    2.5250   -0.7910 N   0  0  0  0  0  0  0  0  0  0  0  0
    0.4420    3.6770   -1.2740 N   0  0  0  0  0  0  0  0  0  0  0  0
   -0.8100    4.2210   -0.8850 C   0  0  0  0  0  0  0  0  0  0  0  0
   -1.8290    3.5780   -0.3100 C   0  0  0  0  0  0  0  0  0  0  0  0
   -1.8820    2.1580    0.0480 C   0  0  0  0  0  0  0  0  0  0  0  0
   -0.8910    1.2750    0.0920 C   0  0  0  0  0  0  0  0  0  0  0  0
   -1.2260   -0.0100    0.4660 O   0  0  0  0  0  0  0  0  0  0  0  0
   -1.4820   -1.0420   -0.4690 C   0  0  1  0  0  0  0  0  0  0  0  0
   -1.8200   -2.3260    0.2580 C   0  0  0  0  0  0  0  0  0  0  0  0
   -3.2980   -2.1920    0.4680 C   0  0  0  0  0  0  0  0  0  0  0  0
   -3.7850   -1.2280   -0.3610 O   0  0  0  0  0  0  0  0  0  0  0  0
   -2.8020   -0.7870   -1.2020 C   0  0  0  0  0  0  0  0  0  0  0  0
    1.5200   -0.1780    1.4390 C   0  0  0  0  0  0  0  0  0  0  0  0
  2  1  1  6
  2  3  1  0
  2 19  1  0
  3  4  1  0
  4  5  1  0
  5  6  1  0
  5 19  1  0
  6  7  2  0
  6 12  1  0
  7  8  1  0
  8  9  1  0
  9 10  2  0
 10 11  1  0
 11 12  2  0
 12 13  1  0
 14 13  1  1
 14 15  1  0
 14 18  1  0
 15 16  1  0
 16 17  1  0
 17 18  1  0
M  CHG  1   1   1
M  END
