
     RDKit          3D

 12 11  0  0  0  0  0  0  0  0999 V2000
    4.8540    0.3320    0.8440 O   0  0  0  0  0  0  0  0  0  0  0  0
    3.6920    0.3670    0.0810 C   0  0  0  0  0  0  0  0  0  0  0  0
    2.5700   -0.2710    0.8680 C   0  0  2  0  0  0  0  0  0  0  0  0
    2.8740   -1.6010    1.1780 O   0  0  0  0  0  0  0  0  0  0  0  0
    1.2800   -0.3000    0.0740 C   0  0  0  0  0  0  0  0  0  0  0  0
    0.3120   -0.8720    0.8680 O   0  0  0  0  0  0  0  0  0  0  0  0
   -0.9230   -0.9640    0.2710 C   0  0  0  0  0  0  0  0  0  0  0  0
   -1.3430    0.3290   -0.0550 O   0  0  0  0  0  0  0  0  0  0  0  0
   -2.5850    0.3340   -0.6640 C   0  0  2  0  0  0  0  0  0  0  0  0
   -2.5470    0.9450   -1.8970 O   0  0  0  0  0  0  0  0  0  0  0  0
   -3.6110    1.0400    0.2130 C   0  0  0  0  0  0  0  0  0  0  0  0
   -3.7350    0.4030    1.4410 O   0  0  0  0  0  0  0  0  0  0  0  0
  1  2  1  0
  2  3  1  0
  3  4  1  6
  3  5  1  0
  5  6  1  0
  6  7  1  0
  7  8  1  0
  8  9  1  0
  9 10  1  6
  9 11  1  0
 11 12  1  0
M  END
