
     RDKit          3D

 45 50  0  0  0  0  0  0  0  0999 V2000
   -6.4810    3.3080    1.5190 C   0  0  0  0  0  0  0  0  0  0  0  0
   -5.5390    4.1250    0.5800 C   0  0  2  0  0  0  0  0  0  0  0  0
   -6.3470    4.9380   -0.1670 O   0  0  0  0  0  0  0  0  0  0  0  0
   -5.9770    4.9230   -1.4760 C   0  0  0  0  0  0  0  0  0  0  0  0
   -5.6310    3.5170   -1.6850 C   0  0  1  0  0  0  0  0  0  0  0  0
   -4.9010    3.3400   -2.8410 O   0  0  0  0  0  0  0  0  0  0  0  0
   -4.8660    3.1980   -0.3960 C   0  0  2  0  0  0  0  0  0  0  0  0
   -4.9280    1.7750    0.0040 N   0  0  0  0  0  0  0  0  0  0  0  0
   -3.8770    1.0890   -0.7670 C   0  0  2  0  0  0  0  0  0  0  0  0
   -4.3840   -0.2700   -1.0890 C   0  0  0  0  0  0  0  0  0  0  0  0
   -3.9640   -1.2650   -0.0510 C   0  0  0  0  0  0  0  0  0  0  0  0
   -4.8270   -2.2900    0.3130 C   0  0  0  0  0  0  0  0  0  0  0  0
   -4.3880   -3.2900    1.1570 C   0  0  0  0  0  0  0  0  0  0  0  0
   -3.1070   -3.2930    1.6540 C   0  0  0  0  0  0  0  0  0  0  0  0
   -2.2420   -2.2550    1.3190 C   0  0  0  0  0  0  0  0  0  0  0  0
   -2.6670   -1.2240    0.4590 C   0  0  0  0  0  0  0  0  0  0  0  0
   -1.8400   -0.1250   -0.0250 C   0  0  2  0  0  0  0  0  0  0  0  0
   -0.5450    0.0600    0.5850 N   0  0  0  0  0  0  0  0  0  0  0  0
    0.4490    0.1370   -0.5260 C   0  0  0  0  0  0  0  0  0  0  0  0
    1.2740   -1.0350   -0.6860 C   0  0  0  0  0  0  0  0  0  0  0  0
    2.3670   -1.4420    0.2260 C   0  0  2  0  0  0  0  0  0  0  0  0
    2.9600   -2.6990   -0.4510 C   0  0  0  0  0  0  0  0  0  0  0  0
    1.9210   -1.8630    1.5880 C   0  0  0  0  0  0  0  0  0  0  0  0
    3.3950   -0.3420    0.3360 N   0  0  0  0  0  0  0  0  0  0  0  0
    3.4620    0.5330    1.3630 C   0  0  0  0  0  0  0  0  0  0  0  0
    4.5420    1.6290    1.1660 C   0  0  0  0  0  0  0  0  0  0  0  0
    5.7990    1.0540    1.0600 O   0  0  0  0  0  0  0  0  0  0  0  0
    7.0390    1.4760    0.7880 C   0  0  0  0  0  0  0  0  0  0  0  0
    7.6240    2.5370    0.4830 C   0  0  0  0  0  0  0  0  0  0  0  0
    9.0920    2.4380    0.2750 C   0  0  0  0  0  0  0  0  0  0  0  0
    9.2930    1.0130    0.5380 C   0  0  0  0  0  0  0  0  0  0  0  0
    8.1780    0.3460    0.8450 C   0  0  0  0  0  0  0  0  0  0  0  0
    4.2700   -0.3670   -0.7960 C   0  0  0  0  0  0  0  0  0  0  0  0
    5.5120   -0.9470   -0.7840 C   0  0  0  0  0  0  0  0  0  0  0  0
    6.2960   -1.1640   -1.9570 C   0  0  0  0  0  0  0  0  0  0  0  0
    5.6180   -0.7180   -3.1110 C   0  0  0  0  0  0  0  0  0  0  0  0
    5.9850   -1.4140   -4.4360 C   0  0  0  0  0  0  0  0  0  0  0  0
    6.2770   -1.9340   -5.4670 N   0  0  0  0  0  0  0  0  0  0  0  0
    4.4880   -0.1680   -3.0560 C   0  0  0  0  0  0  0  0  0  0  0  0
    3.6830    0.0850   -2.0060 C   0  0  0  0  0  0  0  0  0  0  0  0
   -2.5910    1.1580    0.0130 C   0  0  0  0  0  0  0  0  0  0  0  0
   -2.7520   -4.3830    2.4610 O   0  0  0  0  0  0  0  0  0  0  0  0
   -3.3320   -5.6520    2.0710 C   0  0  0  0  0  0  0  0  0  0  0  0
   -4.8060   -5.5320    2.2860 C   0  0  0  0  0  0  0  0  0  0  0  0
   -5.2590   -4.3760    1.5280 N   0  0  0  0  0  0  0  0  0  0  0  0
  2  1  1  1
  2  3  1  0
  2  7  1  0
  3  4  1  0
  4  5  1  0
  5  6  1  6
  5  7  1  0
  7  8  1  1
  9  8  1  1
  9 10  1  0
  9 41  1  0
 10 11  1  0
 11 12  2  0
 11 16  1  0
 12 13  1  0
 13 14  2  0
 13 45  1  0
 14 15  1  0
 14 42  1  0
 15 16  2  0
 16 17  1  0
 17 18  1  1
 17 41  1  0
 18 19  1  0
 19 20  1  0
 20 21  1  0
 21 22  1  6
 21 23  1  0
 21 24  1  0
 24 25  1  0
 24 33  1  0
 25 26  1  0
 26 27  1  0
 27 28  1  0
 28 29  2  0
 28 32  1  0
 29 30  1  0
 30 31  1  0
 31 32  2  0
 33 34  2  0
 33 40  1  0
 34 35  1  0
 35 36  2  0
 36 37  1  0
 36 39  1  0
 37 38  3  0
 39 40  2  0
 42 43  1  0
 43 44  1  0
 44 45  1  0
M  CHG  2   8   1  18   1
M  END
