
     RDKit          3D

 45 49  0  0  0  0  0  0  0  0999 V2000
   11.2120    1.3290   -1.6940 C   0  0  0  0  0  0  0  0  0  0  0  0
   10.1570    1.5620   -0.6500 C   0  0  0  0  0  0  0  0  0  0  0  0
   10.3600    1.0860    0.6200 C   0  0  0  0  0  0  0  0  0  0  0  0
    9.3770    1.3020    1.5790 C   0  0  0  0  0  0  0  0  0  0  0  0
    8.2440    1.9730    1.2520 C   0  0  0  0  0  0  0  0  0  0  0  0
    7.1780    2.2610    2.1960 C   0  0  0  0  0  0  0  0  0  0  0  0
    5.9090    1.9710    1.9080 C   0  0  0  0  0  0  0  0  0  0  0  0
    5.0920    2.3700    3.0230 C   0  0  0  0  0  0  0  0  0  0  0  0
    3.8430    2.0690    2.7080 C   0  0  0  0  0  0  0  0  0  0  0  0
    3.7540    1.4620    1.3850 C   0  0  0  0  0  0  0  0  0  0  0  0
    2.5150    1.0190    0.7200 C   0  0  0  0  0  0  0  0  0  0  0  0
    1.4440    1.1760    1.3420 O   0  0  0  0  0  0  0  0  0  0  0  0
    2.5170    0.4390   -0.5670 N   0  0  0  0  0  0  0  0  0  0  0  0
    1.2970   -0.0040   -1.2450 C   0  0  0  0  0  0  0  0  0  0  0  0
    0.6430   -1.0730   -0.4100 C   0  0  0  0  0  0  0  0  0  0  0  0
   -0.5840   -1.5490   -1.0550 N   0  0  2  0  0  0  0  0  0  0  0  0
   -1.5270   -0.4720   -0.9370 C   0  0  0  0  0  0  0  0  0  0  0  0
   -2.8980   -0.9990   -1.2780 C   0  0  2  0  0  0  0  0  0  0  0  0
   -3.9310    0.0960   -1.4930 C   0  0  1  0  0  0  0  0  0  0  0  0
   -4.1630    0.9760   -0.3260 C   0  0  0  0  0  0  0  0  0  0  0  0
   -5.5190    1.4790   -0.0630 C   0  0  2  0  0  0  0  0  0  0  0  0
   -6.0520    1.0300    1.3120 C   0  0  0  0  0  0  0  0  0  0  0  0
   -6.6030    1.1800   -1.0300 C   0  0  0  0  0  0  0  0  0  0  0  0
   -6.5800    1.9930   -2.2980 C   0  0  0  0  0  0  0  0  0  0  0  0
   -5.6940    1.3790   -3.3580 C   0  0  0  0  0  0  0  0  0  0  0  0
   -4.3130    1.8620   -3.1200 C   0  0  0  0  0  0  0  0  0  0  0  0
   -3.3870    0.9410   -2.5500 N   0  0  0  0  0  0  0  0  0  0  0  0
   -3.3630   -2.0470   -0.3000 C   0  0  1  0  0  0  0  0  0  0  0  0
   -4.2100   -3.0280   -0.9440 N   0  0  0  0  0  0  0  0  0  0  0  0
   -5.5740   -3.0170   -0.5240 C   0  0  0  0  0  0  0  0  0  0  0  0
   -5.6940   -3.4080    0.9150 C   0  0  0  0  0  0  0  0  0  0  0  0
   -7.1800   -3.3650    1.2910 C   0  0  0  0  0  0  0  0  0  0  0  0
   -7.8490   -4.2610    0.4830 O   0  0  0  0  0  0  0  0  0  0  0  0
   -2.2000   -2.7900    0.3320 C   0  0  2  0  0  0  0  0  0  0  0  0
   -1.8890   -2.3010    1.7220 C   0  0  0  0  0  0  0  0  0  0  0  0
   -1.0030   -2.8220   -0.5870 C   0  0  2  0  0  0  0  0  0  0  0  0
    0.0890   -3.6720    0.0200 C   0  0  0  0  0  0  0  0  0  0  0  0
    4.9860    1.4040    0.9110 C   0  0  0  0  0  0  0  0  0  0  0  0
    5.4010    0.9000   -0.3210 O   0  0  0  0  0  0  0  0  0  0  0  0
    5.9880    2.9370    4.0180 C   0  0  0  0  0  0  0  0  0  0  0  0
    5.6610    3.3990    5.1290 O   0  0  0  0  0  0  0  0  0  0  0  0
    7.3180    2.8550    3.4620 N   0  0  0  0  0  0  0  0  0  0  0  0
    8.5230    3.3520    4.1450 C   0  0  0  0  0  0  0  0  0  0  0  0
    8.0370    2.4600   -0.0430 C   0  0  0  0  0  0  0  0  0  0  0  0
    9.0060    2.2430   -0.9780 C   0  0  0  0  0  0  0  0  0  0  0  0
  1  2  1  0
  2  3  2  0
  2 45  1  0
  3  4  1  0
  4  5  2  0
  5  6  1  0
  5 44  1  0
  6  7  2  0
  6 42  1  0
  7  8  1  0
  7 38  1  0
  8  9  2  0
  8 40  1  0
  9 10  1  0
 10 11  1  0
 10 38  2  0
 11 12  2  0
 11 13  1  0
 13 14  1  0
 14 15  1  0
 16 15  1  1
 16 17  1  0
 16 36  1  0
 18 17  1  1
 18 19  1  0
 18 28  1  0
 19 20  1  1
 19 27  1  0
 20 21  1  0
 21 22  1  1
 21 23  1  0
 23 24  1  0
 24 25  1  0
 25 26  1  0
 26 27  1  0
 28 29  1  6
 28 34  1  0
 29 30  1  0
 30 31  1  0
 31 32  1  0
 32 33  1  0
 34 35  1  1
 34 36  1  0
 36 37  1  1
 38 39  1  0
 40 41  2  0
 40 42  1  0
 42 43  1  0
 44 45  2  0
M  CHG  3  16   1  27   1  29   1
M  END
