
     RDKit          3D

 45 49  0  0  0  0  0  0  0  0999 V2000
    6.9940   -4.2550    1.8680 C   0  0  0  0  0  0  0  0  0  0  0  0
    6.3020   -3.0690    1.8160 O   0  0  0  0  0  0  0  0  0  0  0  0
    6.7530   -2.1600    0.8860 C   0  0  0  0  0  0  0  0  0  0  0  0
    6.6940   -2.6550   -0.5460 C   0  0  0  0  0  0  0  0  0  0  0  0
    7.1820   -1.6370   -1.4890 C   0  0  0  0  0  0  0  0  0  0  0  0
    8.3970   -1.7200   -2.1090 N   0  0  0  0  0  0  0  0  0  0  0  0
    8.5520   -0.6840   -2.8690 O   0  0  0  0  0  0  0  0  0  0  0  0
    7.5090    0.0910   -2.7930 C   0  0  0  0  0  0  0  0  0  0  0  0
    7.3570    1.3560   -3.5310 C   0  0  0  0  0  0  0  0  0  0  0  0
    6.5850   -0.4950   -1.8990 C   0  0  0  0  0  0  0  0  0  0  0  0
    5.3030    0.1160   -1.5960 C   0  0  0  0  0  0  0  0  0  0  0  0
    5.0830    1.3220   -2.0110 O   0  0  0  0  0  0  0  0  0  0  0  0
    4.2360   -0.4590   -0.8860 N   0  0  0  0  0  0  0  0  0  0  0  0
    2.9660    0.2190   -0.6150 C   0  0  0  0  0  0  0  0  0  0  0  0
    2.2070    0.6130   -1.8360 C   0  0  1  0  0  0  0  0  0  0  0  0
    1.8920   -0.4730   -2.6100 O   0  0  0  0  0  0  0  0  0  0  0  0
    0.9810    1.4700   -1.4730 C   0  0  0  0  0  0  0  0  0  0  0  0
   -0.0080    0.7000   -0.7780 N   0  0  0  0  0  0  0  0  0  0  0  0
   -0.6150    1.3870    0.3080 C   0  0  1  0  0  0  0  0  0  0  0  0
   -0.4570    2.8810    0.0300 C   0  0  0  0  0  0  0  0  0  0  0  0
   -1.5210    3.6850    0.7120 C   0  0  0  0  0  0  0  0  0  0  0  0
   -1.9110    4.8400    0.2510 C   0  0  0  0  0  0  0  0  0  0  0  0
   -2.8990    5.7470    0.7290 C   0  0  0  0  0  0  0  0  0  0  0  0
   -3.1240    6.9200    0.0920 C   0  0  0  0  0  0  0  0  0  0  0  0
   -4.1510    7.8610    0.5910 C   0  0  0  0  0  0  0  0  0  0  0  0
   -2.3350    7.2600   -1.1010 C   0  0  0  0  0  0  0  0  0  0  0  0
   -2.0620    3.1330    1.9530 C   0  0  0  0  0  0  0  0  0  0  0  0
   -2.2790    3.9370    3.0460 C   0  0  0  0  0  0  0  0  0  0  0  0
   -2.8120    3.3410    4.1590 C   0  0  0  0  0  0  0  0  0  0  0  0
   -3.1140    1.9960    4.1740 C   0  0  0  0  0  0  0  0  0  0  0  0
   -2.8790    1.2000    3.0400 C   0  0  0  0  0  0  0  0  0  0  0  0
   -2.3530    1.8030    1.9510 C   0  0  0  0  0  0  0  0  0  0  0  0
   -2.0160    1.0830    0.6470 C   0  0  2  0  0  0  0  0  0  0  0  0
   -2.4690   -0.2300    0.8400 N   0  0  0  0  0  0  0  0  0  0  0  0
   -2.4560   -1.0860   -0.2800 C   0  0  0  0  0  0  0  0  0  0  0  0
   -3.3190   -2.3520   -0.0520 C   0  0  2  0  0  0  0  0  0  0  0  0
   -2.8850   -3.1840    1.0760 C   0  0  1  0  0  0  0  0  0  0  0  0
   -4.0280   -3.7830    1.8720 C   0  0  0  0  0  0  0  0  0  0  0  0
   -5.3140   -3.8840    1.1090 C   0  0  0  0  0  0  0  0  0  0  0  0
   -5.2140   -4.5340   -0.2280 C   0  0  0  0  0  0  0  0  0  0  0  0
   -4.9690   -3.5060   -1.2800 C   0  0  0  0  0  0  0  0  0  0  0  0
   -3.5840   -3.0210   -1.2930 N   0  0  2  0  0  0  0  0  0  0  0  0
   -2.6690   -4.0170   -1.6920 C   0  0  0  0  0  0  0  0  0  0  0  0
   -1.5730   -4.3340   -0.7410 C   0  0  0  0  0  0  0  0  0  0  0  0
   -1.9650   -4.3240    0.7030 C   0  0  0  0  0  0  0  0  0  0  0  0
  1  2  1  0
  2  3  1  0
  3  4  1  0
  4  5  1  0
  5  6  2  0
  5 10  1  0
  6  7  1  0
  7  8  1  0
  8  9  1  0
  8 10  2  0
 10 11  1  0
 11 12  2  0
 11 13  1  0
 13 14  1  0
 14 15  1  0
 15 16  1  1
 15 17  1  0
 17 18  1  0
 19 18  1  6
 19 20  1  0
 19 33  1  0
 20 21  1  0
 21 22  2  3
 21 27  1  0
 22 23  1  0
 23 24  2  3
 24 25  1  0
 24 26  1  0
 27 28  2  0
 27 32  1  0
 28 29  1  0
 29 30  2  0
 30 31  1  0
 31 32  2  0
 32 33  1  0
 33 34  1  1
 34 35  1  0
 36 35  1  6
 36 37  1  0
 36 42  1  0
 37 38  1  6
 37 45  1  0
 38 39  1  0
 39 40  1  0
 40 41  1  0
 42 41  1  1
 42 43  1  0
 43 44  1  0
 44 45  1  0
M  CHG  2  18   1  42   1
M  END
