
     RDKit          3D

 44 48  0  0  0  0  0  0  0  0999 V2000
    4.8730   -4.4660   -0.0970 C   0  0  0  0  0  0  0  0  0  0  0  0
    5.6250   -3.1790   -0.2680 C   0  0  0  0  0  0  0  0  0  0  0  0
    4.9400   -1.9620   -0.3780 C   0  0  0  0  0  0  0  0  0  0  0  0
    5.6240   -0.7760   -0.5350 C   0  0  0  0  0  0  0  0  0  0  0  0
    4.8200    0.4860   -0.6340 C   0  0  2  0  0  0  0  0  0  0  0  0
    5.6270    1.7320   -0.5910 C   0  0  0  0  0  0  0  0  0  0  0  0
    5.7710    2.0300    0.8680 C   0  0  0  0  0  0  0  0  0  0  0  0
    4.8060    1.0960    1.5010 C   0  0  0  0  0  0  0  0  0  0  0  0
    3.9570    0.5540    0.4880 N   0  0  1  0  0  0  0  0  0  0  0  0
    2.6960    1.1800    0.3450 C   0  0  1  0  0  0  0  0  0  0  0  0
    2.6620    2.6810    0.4460 C   0  0  0  0  0  0  0  0  0  0  0  0
    1.9050    0.7660   -0.8540 C   0  0  0  0  0  0  0  0  0  0  0  0
    0.5800    1.5160   -0.8800 C   0  0  0  0  0  0  0  0  0  0  0  0
    0.6100    2.6610   -1.4160 O   0  0  0  0  0  0  0  0  0  0  0  0
   -0.5950    1.0220   -0.3640 N   0  0  0  0  0  0  0  0  0  0  0  0
   -0.5210   -0.3790    0.1680 C   0  0  0  0  0  0  0  0  0  0  0  0
   -1.9430   -0.9400    0.1660 C   0  0  2  0  0  0  0  0  0  0  0  0
   -1.8500   -2.4660    0.2330 C   0  0  0  0  0  0  0  0  0  0  0  0
   -3.2070   -3.1220    0.2350 C   0  0  0  0  0  0  0  0  0  0  0  0
   -3.0010   -4.6230    0.3120 C   0  0  0  0  0  0  0  0  0  0  0  0
   -4.3030   -5.3740    0.3190 C   0  0  1  0  0  0  0  0  0  0  0  0
   -5.0890   -5.1320   -0.8680 N   0  0  0  0  0  0  0  0  0  0  0  0
   -3.9860   -6.8530    0.3680 C   0  0  0  0  0  0  0  0  0  0  0  0
   -3.2240   -7.0770    1.5190 O   0  0  0  0  0  0  0  0  0  0  0  0
   -2.7390   -0.5960   -1.0420 C   0  0  0  0  0  0  0  0  0  0  0  0
   -2.8150    0.8770   -1.2580 C   0  0  0  0  0  0  0  0  0  0  0  0
   -1.8930    1.5660   -0.2200 C   0  0  2  0  0  0  0  0  0  0  0  0
   -2.1100    2.9980   -0.3260 C   0  0  0  0  0  0  0  0  0  0  0  0
   -1.2120    3.7710   -0.7070 O   0  0  0  0  0  0  0  0  0  0  0  0
   -3.3550    3.5850   -0.0010 N   0  0  0  0  0  0  0  0  0  0  0  0
   -4.3940    2.8680    0.6720 C   0  0  0  0  0  0  0  0  0  0  0  0
   -4.8730    3.6260    1.9030 C   0  0  0  0  0  0  0  0  0  0  0  0
   -5.0990    5.0700    1.7070 C   0  0  0  0  0  0  0  0  0  0  0  0
   -4.4470    5.6670    0.5280 C   0  0  0  0  0  0  0  0  0  0  0  0
   -4.7230    7.0180    0.2680 C   0  0  0  0  0  0  0  0  0  0  0  0
   -4.1580    7.6440   -0.8170 C   0  0  0  0  0  0  0  0  0  0  0  0
   -3.3210    6.9160   -1.6330 C   0  0  0  0  0  0  0  0  0  0  0  0
   -3.0460    5.5860   -1.3820 C   0  0  0  0  0  0  0  0  0  0  0  0
   -3.6100    4.9530   -0.2940 C   0  0  0  0  0  0  0  0  0  0  0  0
    6.9730   -0.8150   -0.5810 C   0  0  0  0  0  0  0  0  0  0  0  0
    7.6420   -2.0130   -0.4730 C   0  0  0  0  0  0  0  0  0  0  0  0
    6.9970   -3.2180   -0.3150 C   0  0  0  0  0  0  0  0  0  0  0  0
    7.7130   -4.4820   -0.2010 C   0  0  0  0  0  0  0  0  0  0  0  0
    7.1820   -5.5880   -0.0580 O   0  0  0  0  0  0  0  0  0  0  0  0
  1  2  1  0
  2  3  2  0
  2 42  1  0
  3  4  1  0
  5  4  1  1
  4 40  2  0
  5  6  1  0
  5  9  1  0
  6  7  1  0
  7  8  1  0
  9  8  1  1
  9 10  1  0
 10 11  1  6
 10 12  1  0
 12 13  1  0
 13 14  2  0
 13 15  1  0
 15 16  1  0
 15 27  1  0
 16 17  1  0
 17 18  1  6
 17 25  1  0
 18 19  1  0
 19 20  1  0
 20 21  1  0
 21 22  1  6
 21 23  1  0
 23 24  1  0
 25 26  1  0
 26 27  1  0
 27 28  1  6
 28 29  2  0
 28 30  1  0
 30 31  1  0
 30 39  1  0
 31 32  1  0
 32 33  1  0
 33 34  1  0
 34 35  2  0
 34 39  1  0
 35 36  1  0
 36 37  2  0
 37 38  1  0
 38 39  2  0
 40 41  1  0
 41 42  2  0
 42 43  1  0
 43 44  2  0
M  CHG  2   9   1  22   1
M  END
