
     RDKit          3D

 45 49  0  0  0  0  0  0  0  0999 V2000
    9.7860    2.8730   -0.8640 C   0  0  0  0  0  0  0  0  0  0  0  0
    8.9760    2.1580    0.1970 C   0  0  0  0  0  0  0  0  0  0  0  0
    7.7060    1.5440   -0.3790 C   0  0  0  0  0  0  0  0  0  0  0  0
    7.0140    0.9000    0.6980 N   0  0  2  0  0  0  0  0  0  0  0  0
    7.0320   -0.5450    0.5470 C   0  0  0  0  0  0  0  0  0  0  0  0
    5.9290   -0.9100    1.5570 C   0  0  2  0  0  0  0  0  0  0  0  0
    5.5660   -2.3540    1.4500 C   0  0  0  0  0  0  0  0  0  0  0  0
    4.5350   -2.7320    2.3900 N   0  0  0  0  0  0  0  0  0  0  0  0
    4.8030   -4.1190    2.7950 C   0  0  0  0  0  0  0  0  0  0  0  0
    4.8710    0.0850    1.3610 C   0  0  2  0  0  0  0  0  0  0  0  0
    3.7750   -0.2630    0.5180 N   0  0  0  0  0  0  0  0  0  0  0  0
    2.4800    0.2140    0.8550 C   0  0  0  0  0  0  0  0  0  0  0  0
    2.3180    0.9430    1.8940 O   0  0  0  0  0  0  0  0  0  0  0  0
    1.3050   -0.0570    0.1070 N   0  0  0  0  0  0  0  0  0  0  0  0
   -0.0140    0.4790    0.4860 C   0  0  2  0  0  0  0  0  0  0  0  0
   -0.9820   -0.5780    0.9180 C   0  0  0  0  0  0  0  0  0  0  0  0
   -1.3160   -1.5930   -0.0650 C   0  0  0  0  0  0  0  0  0  0  0  0
   -0.5620   -2.7700   -0.0320 C   0  0  0  0  0  0  0  0  0  0  0  0
   -0.6890   -3.7720   -0.9430 C   0  0  0  0  0  0  0  0  0  0  0  0
   -1.6190   -3.5930   -1.9460 C   0  0  0  0  0  0  0  0  0  0  0  0
   -2.3680   -2.4490   -1.9950 C   0  0  0  0  0  0  0  0  0  0  0  0
   -2.2400   -1.4050   -1.0460 C   0  0  0  0  0  0  0  0  0  0  0  0
   -3.1810   -0.3130   -1.1690 C   0  0  0  0  0  0  0  0  0  0  0  0
   -3.3310    0.2420   -2.2880 O   0  0  0  0  0  0  0  0  0  0  0  0
   -3.9550    0.1670   -0.0990 N   0  0  0  0  0  0  0  0  0  0  0  0
   -4.8890    1.2900   -0.2560 C   0  0  2  0  0  0  0  0  0  0  0  0
   -4.5720    2.3860    0.6950 C   0  0  0  0  0  0  0  0  0  0  0  0
   -5.6000    2.6480    1.7480 C   0  0  0  0  0  0  0  0  0  0  0  0
   -6.9910    2.8540    1.2530 C   0  0  0  0  0  0  0  0  0  0  0  0
   -7.2130    2.1240   -0.0430 C   0  0  2  0  0  0  0  0  0  0  0  0
   -8.6550    1.7120   -0.2490 C   0  0  0  0  0  0  0  0  0  0  0  0
   -9.5720    2.9010   -0.2670 C   0  0  0  0  0  0  0  0  0  0  0  0
   -6.3230    0.8970   -0.1520 C   0  0  2  0  0  0  0  0  0  0  0  0
   -6.6620   -0.0600    0.9240 C   0  0  0  0  0  0  0  0  0  0  0  0
   -1.7360   -4.6230   -2.8690 O   0  0  0  0  0  0  0  0  0  0  0  0
   -1.5240   -5.9810   -2.5280 C   0  0  0  0  0  0  0  0  0  0  0  0
   -0.5960   -6.1620   -1.3680 C   0  0  0  0  0  0  0  0  0  0  0  0
    0.0280   -4.9490   -0.9530 O   0  0  0  0  0  0  0  0  0  0  0  0
   -0.4610    1.3890   -0.5610 C   0  0  0  0  0  0  0  0  0  0  0  0
   -0.2510    1.1310   -1.9150 C   0  0  0  0  0  0  0  0  0  0  0  0
   -0.6670    1.9960   -2.9160 C   0  0  0  0  0  0  0  0  0  0  0  0
   -1.3100    3.1470   -2.5090 C   0  0  0  0  0  0  0  0  0  0  0  0
   -1.5440    3.4530   -1.1980 C   0  0  0  0  0  0  0  0  0  0  0  0
   -1.1090    2.5560   -0.2380 C   0  0  0  0  0  0  0  0  0  0  0  0
    5.6110    1.2190    0.6140 C   0  0  0  0  0  0  0  0  0  0  0  0
  1  2  1  0
  2  3  1  0
  4  3  1  6
  4  5  1  0
  4 45  1  0
  5  6  1  0
  6  7  1  6
  6 10  1  0
  7  8  1  0
  8  9  1  0
 10 11  1  6
 10 45  1  0
 11 12  1  0
 12 13  2  0
 12 14  1  0
 14 15  1  0
 15 16  1  6
 15 39  1  0
 16 17  1  0
 17 18  2  0
 17 22  1  0
 18 19  1  0
 19 20  2  0
 19 38  1  0
 20 21  1  0
 20 35  1  0
 21 22  2  0
 22 23  1  0
 23 24  2  0
 23 25  1  0
 26 25  1  1
 26 27  1  0
 26 33  1  0
 27 28  1  0
 28 29  1  0
 29 30  1  0
 30 31  1  1
 30 33  1  0
 31 32  1  0
 33 34  1  1
 35 36  1  0
 36 37  1  0
 37 38  1  0
 39 40  2  0
 39 44  1  0
 40 41  1  0
 41 42  2  0
 42 43  1  0
 43 44  2  0
M  CHG  2   4   1   8   1
M  END
