
     RDKit          3D

 45 49  0  0  0  0  0  0  0  0999 V2000
   -8.9650    5.1970    0.4230 C   0  0  0  0  0  0  0  0  0  0  0  0
   -7.9770    4.1120    0.7650 C   0  0  2  0  0  0  0  0  0  0  0  0
   -6.7360    4.3370   -0.0960 C   0  0  0  0  0  0  0  0  0  0  0  0
   -5.7280    3.3540    0.4300 C   0  0  0  0  0  0  0  0  0  0  0  0
   -4.5720    3.7000    0.4830 O   0  0  0  0  0  0  0  0  0  0  0  0
   -6.1990    2.0100    0.8570 C   0  0  2  0  0  0  0  0  0  0  0  0
   -5.2120    1.0400    0.4980 N   0  0  0  0  0  0  0  0  0  0  0  0
   -4.6700    0.1090    1.4490 C   0  0  0  0  0  0  0  0  0  0  0  0
   -5.0860    0.1630    2.6180 O   0  0  0  0  0  0  0  0  0  0  0  0
   -3.6470   -0.8470    0.9400 C   0  0  2  0  0  0  0  0  0  0  0  0
   -3.3080   -0.5490   -0.3860 O   0  0  0  0  0  0  0  0  0  0  0  0
   -2.0520   -0.3190   -0.8500 C   0  0  0  0  0  0  0  0  0  0  0  0
   -1.9100   -0.0110   -2.2130 C   0  0  0  0  0  0  0  0  0  0  0  0
   -0.6610    0.2210   -2.6940 C   0  0  0  0  0  0  0  0  0  0  0  0
    0.4530    0.1590   -1.8640 C   0  0  0  0  0  0  0  0  0  0  0  0
    0.3420   -0.1400   -0.5300 C   0  0  0  0  0  0  0  0  0  0  0  0
    1.4330   -0.2000    0.2690 O   0  0  0  0  0  0  0  0  0  0  0  0
    2.7490    0.0540   -0.0950 C   0  0  0  0  0  0  0  0  0  0  0  0
    3.3000    1.3120    0.0570 C   0  0  0  0  0  0  0  0  0  0  0  0
    4.6090    1.5580   -0.3060 C   0  0  0  0  0  0  0  0  0  0  0  0
    5.4400    0.5860   -0.8330 C   0  0  0  0  0  0  0  0  0  0  0  0
    6.8250    0.9190   -1.1940 C   0  0  0  0  0  0  0  0  0  0  0  0
    7.1730    2.1100   -1.0660 O   0  0  0  0  0  0  0  0  0  0  0  0
    7.7770   -0.0010   -1.6670 N   0  0  0  0  0  0  0  0  0  0  0  0
    9.1300    0.1920   -2.0160 C   0  0  0  0  0  0  0  0  0  0  0  0
   10.1400    0.5240   -1.0180 C   0  0  1  0  0  0  0  0  0  0  0  0
    9.9960    1.7480   -0.1960 C   0  0  0  0  0  0  0  0  0  0  0  0
   11.2190    1.4980    0.7310 C   0  0  0  0  0  0  0  0  0  0  0  0
   11.1330    0.1080    1.0520 N   0  0  2  0  0  0  0  0  0  0  0  0
   12.4950   -0.4170    1.0540 C   0  0  0  0  0  0  0  0  0  0  0  0
   10.4260   -0.5740    0.0140 C   0  0  0  0  0  0  0  0  0  0  0  0
    4.9000   -0.6700   -0.9890 C   0  0  0  0  0  0  0  0  0  0  0  0
    3.5690   -0.9160   -0.6190 C   0  0  0  0  0  0  0  0  0  0  0  0
   -0.9330   -0.3760   -0.0470 C   0  0  0  0  0  0  0  0  0  0  0  0
   -4.2010   -2.2540    0.8870 C   0  0  0  0  0  0  0  0  0  0  0  0
   -5.3290   -2.6130    1.5380 C   0  0  0  0  0  0  0  0  0  0  0  0
   -5.7780   -3.9240    1.4390 C   0  0  0  0  0  0  0  0  0  0  0  0
   -5.1100   -4.8680    0.6980 C   0  0  0  0  0  0  0  0  0  0  0  0
   -5.6320   -6.2430    0.6300 C   0  0  0  0  0  0  0  0  0  0  0  0
   -4.9180   -7.0340    1.6100 N   0  0  0  0  0  0  0  0  0  0  0  0
   -3.9680   -4.5060    0.0390 C   0  0  0  0  0  0  0  0  0  0  0  0
   -3.5220   -3.2180    0.1330 C   0  0  0  0  0  0  0  0  0  0  0  0
   -7.5380    1.6900    0.2150 C   0  0  2  0  0  0  0  0  0  0  0  0
   -7.3300    1.3850   -1.2460 C   0  0  0  0  0  0  0  0  0  0  0  0
   -8.5490    2.7730    0.3570 C   0  0  0  0  0  0  0  0  0  0  0  0
  2  1  1  6
  2  3  1  0
  2 45  1  0
  3  4  1  0
  4  5  2  0
  4  6  1  0
  6  7  1  6
  6 43  1  0
  7  8  1  0
  8  9  2  0
  8 10  1  0
 10 11  1  6
 10 35  1  0
 11 12  1  0
 12 13  2  0
 12 34  1  0
 13 14  1  0
 14 15  2  0
 15 16  1  0
 16 17  1  0
 16 34  2  0
 17 18  1  0
 18 19  2  0
 18 33  1  0
 19 20  1  0
 20 21  2  0
 21 22  1  0
 21 32  1  0
 22 23  2  0
 22 24  1  0
 24 25  1  0
 26 25  1  1
 26 27  1  0
 26 31  1  0
 27 28  1  0
 28 29  1  0
 29 30  1  6
 29 31  1  0
 32 33  2  0
 35 36  2  0
 35 42  1  0
 36 37  1  0
 37 38  2  0
 38 39  1  0
 38 41  1  0
 39 40  1  0
 41 42  2  0
 43 44  1  6
 43 45  1  0
M  CHG  2  29   1  40   1
M  END
