
     RDKit          3D

 45 49  0  0  0  0  0  0  0  0999 V2000
    7.3190   -1.0660    1.8740 C   0  0  0  0  0  0  0  0  0  0  0  0
    6.1290   -0.4260    1.2950 C   0  0  0  0  0  0  0  0  0  0  0  0
    4.8830   -0.7890    1.7420 C   0  0  0  0  0  0  0  0  0  0  0  0
    3.7880   -0.1320    1.1840 C   0  0  0  0  0  0  0  0  0  0  0  0
    3.9620    0.8060    0.2480 C   0  0  0  0  0  0  0  0  0  0  0  0
    2.9030    1.4900   -0.3170 O   0  0  0  0  0  0  0  0  0  0  0  0
    1.5370    1.0790    0.0780 C   0  0  0  0  0  0  0  0  0  0  0  0
    1.3030   -0.1990   -0.6470 C   0  0  0  0  0  0  0  0  0  0  0  0
    0.1420   -0.9560   -0.5500 N   0  0  0  0  0  0  0  0  0  0  0  0
   -0.9750   -0.6620   -1.3620 C   0  0  0  0  0  0  0  0  0  0  0  0
   -1.0440   -1.3400   -2.4920 O   0  0  0  0  0  0  0  0  0  0  0  0
   -2.0780    0.2780   -1.1620 C   0  0  0  0  0  0  0  0  0  0  0  0
   -2.1310    0.9740    0.0790 N   0  0  0  0  0  0  0  0  0  0  0  0
   -3.0980    2.0510   -0.0320 C   0  0  2  0  0  0  0  0  0  0  0  0
   -3.4880    2.7270    1.2350 C   0  0  0  0  0  0  0  0  0  0  0  0
   -4.7180    2.2480    1.9460 C   0  0  0  0  0  0  0  0  0  0  0  0
   -5.9600    2.9340    1.5790 C   0  0  0  0  0  0  0  0  0  0  0  0
   -6.8610    2.2360    0.5410 C   0  0  1  0  0  0  0  0  0  0  0  0
   -7.1170    3.1530   -0.5770 C   0  0  0  0  0  0  0  0  0  0  0  0
   -8.1440    3.2990   -1.4820 N   0  0  0  0  0  0  0  0  0  0  0  0
   -6.1070    4.0090   -0.7540 O   0  0  0  0  0  0  0  0  0  0  0  0
   -6.2810    0.9790    0.2170 N   0  0  1  0  0  0  0  0  0  0  0  0
   -7.4390    0.2270   -0.3920 C   0  0  0  0  0  0  0  0  0  0  0  0
   -5.1580    0.7190   -0.5160 C   0  0  0  0  0  0  0  0  0  0  0  0
   -4.2120    1.7260   -0.9780 C   0  0  0  0  0  0  0  0  0  0  0  0
    0.0710   -2.2170    0.1170 C   0  0  0  0  0  0  0  0  0  0  0  0
   -0.5370   -2.5030    1.2900 C   0  0  0  0  0  0  0  0  0  0  0  0
   -0.6370   -3.8320    1.7550 C   0  0  0  0  0  0  0  0  0  0  0  0
   -0.1260   -4.8480    1.0370 C   0  0  0  0  0  0  0  0  0  0  0  0
    0.5100   -4.5660   -0.1740 C   0  0  0  0  0  0  0  0  0  0  0  0
    0.6090   -3.2840   -0.6280 C   0  0  0  0  0  0  0  0  0  0  0  0
    1.0180   -5.7480   -0.9040 C   0  0  2  0  0  0  0  0  0  0  0  0
    1.6400   -5.4290   -2.0930 O   0  0  0  0  0  0  0  0  0  0  0  0
   -0.0950   -6.7720   -1.1020 C   0  0  0  0  0  0  0  0  0  0  0  0
   -0.9620   -6.8930    0.1240 C   0  0  0  0  0  0  0  0  0  0  0  0
   -0.2370   -6.3220    1.3520 C   0  0  0  0  0  0  0  0  0  0  0  0
    5.2350    1.1790   -0.2120 C   0  0  0  0  0  0  0  0  0  0  0  0
    5.3210    2.0080   -1.3840 C   0  0  0  0  0  0  0  0  0  0  0  0
    6.0630    2.9820   -1.7440 C   0  0  0  0  0  0  0  0  0  0  0  0
    7.1420    3.6830   -1.1030 C   0  0  0  0  0  0  0  0  0  0  0  0
    7.8260    4.6880   -1.6720 C   0  0  0  0  0  0  0  0  0  0  0  0
    8.8370    5.1400   -0.6870 C   0  0  0  0  0  0  0  0  0  0  0  0
    8.6480    4.3120    0.5250 C   0  0  0  0  0  0  0  0  0  0  0  0
    7.6740    3.4790    0.2560 C   0  0  0  0  0  0  0  0  0  0  0  0
    6.2700    0.5170    0.3610 N   0  0  0  0  0  0  0  0  0  0  0  0
  1  2  1  0
  2  3  2  0
  2 45  1  0
  3  4  1  0
  4  5  2  0
  5  6  1  0
  5 37  1  0
  6  7  1  0
  7  8  1  0
  8  9  1  0
  9 10  1  0
  9 26  1  0
 10 11  2  0
 10 12  1  0
 12 13  1  0
 14 13  1  1
 14 15  1  0
 14 25  1  0
 15 16  1  0
 16 17  1  0
 17 18  1  0
 18 19  1  6
 18 22  1  0
 19 20  1  0
 19 21  2  0
 22 23  1  6
 22 24  1  0
 24 25  1  0
 26 27  2  0
 26 31  1  0
 27 28  1  0
 28 29  2  0
 29 30  1  0
 29 36  1  0
 30 31  2  0
 30 32  1  0
 32 33  1  6
 32 34  1  0
 34 35  1  0
 35 36  1  0
 37 38  1  0
 37 45  2  0
 38 39  2  3
 39 40  1  0
 40 41  2  0
 40 44  1  0
 41 42  1  0
 42 43  1  0
 43 44  2  0
M  CHG  2  13   1  22   1
M  END
