
     RDKit          3D

 22 24  0  0  0  0  0  0  0  0999 V2000
    2.1500    1.3920   -1.1300 O   0  0  0  0  0  0  0  0  0  0  0  0
    2.0910    0.9220   -0.0470 C   0  0  0  0  0  0  0  0  0  0  0  0
    1.0550    0.8420    0.9210 N   0  0  0  0  0  0  0  0  0  0  0  0
   -0.2680    1.2410   -0.1460 C   0  0  0  0  0  0  0  0  0  0  0  0
    0.0790    1.4530   -1.2150 O   0  0  0  0  0  0  0  0  0  0  0  0
   -1.5140    1.2180    0.5430 C   0  0  2  0  0  0  0  0  0  0  0  0
   -1.7950   -0.1040    1.2510 C   0  0  0  0  0  0  0  0  0  0  0  0
   -2.5060   -1.0160    0.2880 C   0  0  0  0  0  0  0  0  0  0  0  0
   -3.8100   -0.3730   -0.1160 C   0  0  2  0  0  0  0  0  0  0  0  0
   -4.9350   -1.2210    0.3490 C   0  0  0  0  0  0  0  0  0  0  0  0
   -4.6980   -2.5310   -0.0760 O   0  0  0  0  0  0  0  0  0  0  0  0
   -3.7160   -0.2180   -1.6260 C   0  0  0  0  0  0  0  0  0  0  0  0
   -2.6960    0.9200   -1.6670 C   0  0  0  0  0  0  0  0  0  0  0  0
   -2.0380    1.2570   -2.6020 O   0  0  0  0  0  0  0  0  0  0  0  0
   -2.6710    1.5490   -0.3170 C   0  0  1  0  0  0  0  0  0  0  0  0
   -3.9120    1.0190    0.2590 N   0  0  0  0  0  0  0  0  0  0  0  0
    3.2930    0.2590    0.5360 N   0  0  0  0  0  0  0  0  0  0  0  0
    4.5110    0.2290   -0.1200 C   0  0  1  0  0  0  0  0  0  0  0  0
    5.6940    0.1370    0.8310 C   0  0  0  0  0  0  0  0  0  0  0  0
    6.6990   -0.5600   -0.0210 C   0  0  0  0  0  0  0  0  0  0  0  0
    6.0360   -1.0570   -1.1450 O   0  0  0  0  0  0  0  0  0  0  0  0
    4.7090   -1.1540   -0.8230 C   0  0  0  0  0  0  0  0  0  0  0  0
  1  2  2  0
  2  3  1  0
  2 17  1  0
  3  4  1  0
  4  5  2  0
  6  4  1  6
  6  7  1  0
  6 15  1  0
  7  8  1  0
  8  9  1  0
  9 10  1  6
  9 12  1  0
  9 16  1  0
 10 11  1  0
 12 13  1  0
 13 14  2  0
 15 13  1  6
 15 16  1  0
 18 17  1  1
 18 19  1  0
 18 22  1  0
 19 20  1  0
 20 21  1  0
 21 22  1  0
M  CHG  1  16   1
M  END
