
     RDKit          3D

 22 24  0  0  0  0  0  0  0  0999 V2000
   -0.3500   -1.1330    0.8090 O   0  0  0  0  0  0  0  0  0  0  0  0
   -0.3140   -0.0860    0.1090 C   0  0  0  0  0  0  0  0  0  0  0  0
   -1.4840    0.8040   -0.0080 C   0  0  0  0  0  0  0  0  0  0  0  0
   -2.5900    0.2650    0.7860 N   0  0  1  0  0  0  0  0  0  0  0  0
   -3.5180    1.3680    0.9810 C   0  0  0  0  0  0  0  0  0  0  0  0
   -4.4370    1.3810   -0.2330 C   0  0  0  0  0  0  0  0  0  0  0  0
   -5.4250    0.2520   -0.0370 C   0  0  0  0  0  0  0  0  0  0  0  0
   -4.6560   -0.9860    0.3170 C   0  0  1  0  0  0  0  0  0  0  0  0
   -5.1000   -2.0120   -0.5470 O   0  0  0  0  0  0  0  0  0  0  0  0
   -3.1790   -0.8470    0.1050 C   0  0  0  0  0  0  0  0  0  0  0  0
    0.8750    0.2780   -0.6030 N   0  0  0  0  0  0  0  0  0  0  0  0
    2.0570   -0.5300   -0.5440 C   0  0  0  0  0  0  0  0  0  0  0  0
    1.9600   -1.5610    0.1700 O   0  0  0  0  0  0  0  0  0  0  0  0
    3.2900   -0.1620   -1.2760 C   0  0  1  0  0  0  0  0  0  0  0  0
    3.8240    1.1850   -0.8390 C   0  0  0  0  0  0  0  0  0  0  0  0
    5.0990    0.7680   -0.1230 C   0  0  1  0  0  0  0  0  0  0  0  0
    4.7350    0.3430    1.2760 C   0  0  0  0  0  0  0  0  0  0  0  0
    4.6490   -1.0980    1.4030 N   0  0  0  0  0  0  0  0  0  0  0  0
    4.3720   -1.8460    0.2250 C   0  0  0  0  0  0  0  0  0  0  0  0
    4.1010   -3.0710    0.2950 O   0  0  0  0  0  0  0  0  0  0  0  0
    4.4260   -1.1010   -1.0590 C   0  0  2  0  0  0  0  0  0  0  0  0
    5.5480   -0.2460   -0.9330 O   0  0  0  0  0  0  0  0  0  0  0  0
  1  2  2  0
  2  3  1  0
  2 11  1  0
  4  3  1  6
  4  5  1  0
  4 10  1  0
  5  6  1  0
  6  7  1  0
  7  8  1  0
  8  9  1  6
  8 10  1  0
 11 12  1  0
 12 13  2  0
 14 12  1  1
 14 15  1  0
 14 21  1  0
 16 15  1  6
 16 17  1  0
 16 22  1  0
 17 18  1  0
 18 19  1  0
 19 20  2  0
 21 19  1  1
 21 22  1  0
M  CHG  1   4   1
M  END
