
     RDKit          3D

 22 24  0  0  0  0  0  0  0  0999 V2000
    6.9360    0.2280    0.0260 C   0  0  0  0  0  0  0  0  0  0  0  0
    5.5570    0.0310   -0.2840 O   0  0  0  0  0  0  0  0  0  0  0  0
    5.1540   -0.6820   -1.4000 C   0  0  0  0  0  0  0  0  0  0  0  0
    6.0360   -1.1750   -2.1700 O   0  0  0  0  0  0  0  0  0  0  0  0
    3.7390   -0.8720   -1.6980 C   0  0  0  0  0  0  0  0  0  0  0  0
    2.9690   -0.2310   -0.6970 O   0  0  0  0  0  0  0  0  0  0  0  0
    1.5650   -0.2570   -0.7390 C   0  0  0  0  0  0  0  0  0  0  0  0
    1.1000   -0.8690   -1.6970 O   0  0  0  0  0  0  0  0  0  0  0  0
    0.8340    0.4200    0.3190 C   0  0  0  0  0  0  0  0  0  0  0  0
    1.4380    1.0930    1.4000 C   0  0  0  0  0  0  0  0  0  0  0  0
    0.4980    1.5820    2.1730 N   0  0  0  0  0  0  0  0  0  0  0  0
   -0.7030    1.2780    1.6780 C   0  0  0  0  0  0  0  0  0  0  0  0
   -0.4870    0.5600    0.5280 N   0  0  0  0  0  0  0  0  0  0  0  0
   -1.6890    0.1790   -0.1270 C   0  0  1  0  0  0  0  0  0  0  0  0
   -1.6350   -0.3190   -1.5210 C   0  0  0  0  0  0  0  0  0  0  0  0
   -3.1220   -0.2350   -2.0000 C   0  0  0  0  0  0  0  0  0  0  0  0
   -3.7350   -1.3430   -1.2470 N   0  0  0  0  0  0  0  0  0  0  0  0
   -3.8350   -1.0110    0.1260 C   0  0  0  0  0  0  0  0  0  0  0  0
   -2.5520   -0.6150    0.8140 C   0  0  2  0  0  0  0  0  0  0  0  0
   -2.8990    0.2320    2.0270 C   0  0  0  0  0  0  0  0  0  0  0  0
   -2.1100    1.5110    2.0900 C   0  0  2  0  0  0  0  0  0  0  0  0
   -2.7200    2.5790    1.4970 O   0  0  0  0  0  0  0  0  0  0  0  0
  1  2  1  0
  2  3  1  0
  3  4  2  0
  3  5  1  0
  5  6  1  0
  6  7  1  0
  7  8  2  0
  7  9  1  0
  9 10  2  0
  9 13  1  0
 10 11  1  0
 11 12  2  0
 12 13  1  0
 12 21  1  0
 13 14  1  0
 14 15  1  6
 14 19  1  0
 15 16  1  0
 16 17  1  0
 17 18  1  0
 19 18  1  6
 19 20  1  0
 20 21  1  0
 21 22  1  6
M  CHG  1  17   1
M  END
