
     RDKit          3D

 22 24  0  0  0  0  0  0  0  0999 V2000
   -3.2870    2.1030    2.0350 C   0  0  0  0  0  0  0  0  0  0  0  0
   -2.8450    1.8420    0.6180 C   0  0  2  0  0  0  0  0  0  0  0  0
   -3.9280    1.1840   -0.0130 O   0  0  0  0  0  0  0  0  0  0  0  0
   -4.0270   -0.0580    0.5530 C   0  0  0  0  0  0  0  0  0  0  0  0
   -2.7040   -0.3690    1.2310 C   0  0  0  0  0  0  0  0  0  0  0  0
   -1.8240    0.6950    0.5540 C   0  0  1  0  0  0  0  0  0  0  0  0
   -1.6510    0.2730   -0.7910 N   0  0  0  0  0  0  0  0  0  0  0  0
   -0.2730    0.3080   -1.2530 C   0  0  2  0  0  0  0  0  0  0  0  0
   -0.3720    0.3290   -2.7640 C   0  0  0  0  0  0  0  0  0  0  0  0
    0.6260   -0.3700   -3.3930 O   0  0  0  0  0  0  0  0  0  0  0  0
    0.6530   -1.7130   -3.1120 C   0  0  0  0  0  0  0  0  0  0  0  0
    0.2190   -2.0680   -1.7280 C   0  0  0  0  0  0  0  0  0  0  0  0
    0.4370   -0.9130   -0.7420 C   0  0  1  0  0  0  0  0  0  0  0  0
    1.8080   -0.7310   -0.4210 N   0  0  0  0  0  0  0  0  0  0  0  0
    2.3090   -0.9710    0.8830 C   0  0  0  0  0  0  0  0  0  0  0  0
    1.4800   -1.3520    1.7380 O   0  0  0  0  0  0  0  0  0  0  0  0
    3.7430   -0.7870    1.2410 C   0  0  1  0  0  0  0  0  0  0  0  0
    4.1490    0.6630    1.1680 C   0  0  0  0  0  0  0  0  0  0  0  0
    4.5680    1.0510    2.4750 N   0  0  0  0  0  0  0  0  0  0  0  0
    4.3890   -0.0480    3.3410 C   0  0  0  0  0  0  0  0  0  0  0  0
    4.6280   -0.0140    4.5890 O   0  0  0  0  0  0  0  0  0  0  0  0
    3.9280   -1.1020    2.5980 O   0  0  0  0  0  0  0  0  0  0  0  0
  2  1  1  1
  2  3  1  0
  2  6  1  0
  3  4  1  0
  4  5  1  0
  5  6  1  0
  6  7  1  6
  8  7  1  1
  8  9  1  0
  8 13  1  0
  9 10  1  0
 10 11  1  0
 11 12  1  0
 12 13  1  0
 13 14  1  6
 14 15  1  0
 15 16  2  0
 17 15  1  1
 17 18  1  0
 17 22  1  0
 18 19  1  0
 19 20  1  0
 20 21  2  0
 20 22  1  0
M  CHG  1   7   1
M  END
