
     RDKit          3D

 28 29  0  0  0  0  0  0  0  0999 V2000
   -4.4240    0.4950   -3.4020 C   0  0  0  0  0  0  0  0  0  0  0  0
   -4.6430    0.1440   -2.0280 O   0  0  0  0  0  0  0  0  0  0  0  0
   -3.6720    0.4110   -1.0490 C   0  0  0  0  0  0  0  0  0  0  0  0
   -2.6480    0.9570   -1.4690 O   0  0  0  0  0  0  0  0  0  0  0  0
   -3.9490    0.0350    0.3200 C   0  0  0  0  0  0  0  0  0  0  0  0
   -5.1780   -0.5840    0.6330 C   0  0  0  0  0  0  0  0  0  0  0  0
   -6.0520   -0.8160   -0.4420 O   0  0  0  0  0  0  0  0  0  0  0  0
   -5.4940   -0.9370    1.9140 C   0  0  0  0  0  0  0  0  0  0  0  0
   -4.6000   -0.6860    2.9290 C   0  0  0  0  0  0  0  0  0  0  0  0
   -4.9350   -1.0520    4.2490 O   0  0  0  0  0  0  0  0  0  0  0  0
   -3.3920   -0.0890    2.6890 C   0  0  0  0  0  0  0  0  0  0  0  0
   -2.2320    0.2440    3.9530 Cl  0  0  0  0  0  0  0  0  0  0  0  0
   -3.0940    0.2600    1.3670 C   0  0  0  0  0  0  0  0  0  0  0  0
   -1.7510    0.8620    1.1490 C   0  0  0  0  0  0  0  0  0  0  0  0
   -0.8230   -0.2330    0.6870 C   0  0  0  0  0  0  0  0  0  0  0  0
    0.5550    0.3200    0.4300 C   0  0  0  0  0  0  0  0  0  0  0  0
    0.7600    1.5360    0.6160 O   0  0  0  0  0  0  0  0  0  0  0  0
    1.6040   -0.5130   -0.0150 N   0  0  0  0  0  0  0  0  0  0  0  0
    2.9330   -0.1280   -0.2930 C   0  0  0  0  0  0  0  0  0  0  0  0
    3.4420    1.1400   -0.1850 C   0  0  0  0  0  0  0  0  0  0  0  0
    4.7640    1.4890   -0.4680 C   0  0  0  0  0  0  0  0  0  0  0  0
    5.1990    2.7970   -0.3330 O   0  0  0  0  0  0  0  0  0  0  0  0
    5.6270    0.4900   -0.8870 C   0  0  0  0  0  0  0  0  0  0  0  0
    6.9320    0.8150   -1.1700 O   0  0  0  0  0  0  0  0  0  0  0  0
    7.9360   -0.0470   -1.6010 C   0  0  0  0  0  0  0  0  0  0  0  0
    5.1670   -0.7880   -1.0100 C   0  0  0  0  0  0  0  0  0  0  0  0
    3.8390   -1.1060   -0.7190 C   0  0  0  0  0  0  0  0  0  0  0  0
    3.4510   -2.3980   -0.8630 O   0  0  0  0  0  0  0  0  0  0  0  0
  1  2  1  0
  2  3  1  0
  3  4  2  0
  3  5  1  0
  5  6  2  0
  5 13  1  0
  6  7  1  0
  6  8  1  0
  8  9  2  0
  9 10  1  0
  9 11  1  0
 11 12  1  0
 11 13  2  0
 13 14  1  0
 14 15  1  0
 15 16  1  0
 16 17  2  0
 16 18  1  0
 18 19  1  0
 19 20  2  0
 19 27  1  0
 20 21  1  0
 21 22  1  0
 21 23  2  0
 23 24  1  0
 23 26  1  0
 24 25  1  0
 26 27  2  0
 27 28  1  0
M  END
