
     RDKit          3D

 22 24  0  0  0  0  0  0  0  0999 V2000
    0.3850    1.9990   -2.0880 O   0  0  0  0  0  0  0  0  0  0  0  0
    0.8920    2.0820   -0.9110 C   0  0  0  0  0  0  0  0  0  0  0  0
   -0.1070    2.3250    0.1590 C   0  0  0  0  0  0  0  0  0  0  0  0
   -1.4430    1.7170   -0.2260 C   0  0  2  0  0  0  0  0  0  0  0  0
   -2.5010    2.5380    0.1390 O   0  0  0  0  0  0  0  0  0  0  0  0
   -3.3670    2.3290    1.2010 C   0  0  0  0  0  0  0  0  0  0  0  0
   -3.8780    3.2440    1.8900 O   0  0  0  0  0  0  0  0  0  0  0  0
   -3.6330    0.9450    1.4460 N   0  0  0  0  0  0  0  0  0  0  0  0
   -2.9820    0.0320    0.5830 C   0  0  0  0  0  0  0  0  0  0  0  0
   -3.6460   -0.9810    0.1810 O   0  0  0  0  0  0  0  0  0  0  0  0
   -1.5680    0.2630    0.1720 C   0  0  1  0  0  0  0  0  0  0  0  0
   -1.2800   -0.6110   -0.9090 N   0  0  0  0  0  0  0  0  0  0  0  0
   -0.0660   -1.3020   -0.9900 C   0  0  2  0  0  0  0  0  0  0  0  0
   -0.1830   -2.6160   -1.7770 C   0  0  0  0  0  0  0  0  0  0  0  0
   -0.0150   -3.6350   -0.6720 C   0  0  0  0  0  0  0  0  0  0  0  0
    0.9320   -3.0830    0.1640 O   0  0  0  0  0  0  0  0  0  0  0  0
    0.6900   -1.6910    0.1980 C   0  0  1  0  0  0  0  0  0  0  0  0
    2.0820   -1.0420    0.2620 C   0  0  0  0  0  0  0  0  0  0  0  0
    2.2290   -0.2050    1.4990 C   0  0  0  0  0  0  0  0  0  0  0  0
    3.0780    0.9910    1.3430 C   0  0  0  0  0  0  0  0  0  0  0  0
    3.0740    1.8710    0.3730 C   0  0  0  0  0  0  0  0  0  0  0  0
    2.2720    1.9380   -0.7890 N   0  0  0  0  0  0  0  0  0  0  0  0
  1  2  2  0
  2  3  1  0
  2 22  1  0
  4  3  1  1
  4  5  1  0
  4 11  1  0
  5  6  1  0
  6  7  2  0
  6  8  1  0
  8  9  1  0
  9 10  2  0
  9 11  1  0
 11 12  1  6
 12 13  1  0
 13 14  1  1
 13 17  1  0
 14 15  1  0
 15 16  1  0
 16 17  1  0
 17 18  1  6
 18 19  1  0
 19 20  1  0
 20 21  2  0
 21 22  1  0
M  CHG  1  12   1
M  END
