
     RDKit          3D

 22 24  0  0  0  0  0  0  0  0999 V2000
    1.9590    0.2440   -1.6130 C   0  0  0  0  0  0  0  0  0  0  0  0
    2.1550   -0.1710   -0.1850 C   0  0  2  0  0  0  0  0  0  0  0  0
    0.9510   -0.0400    0.6610 C   0  0  2  0  0  0  0  0  0  0  0  0
   -0.2050   -0.8110    0.1880 C   0  0  0  0  0  0  0  0  0  0  0  0
   -1.4910   -0.5470    0.4920 C   0  0  0  0  0  0  0  0  0  0  0  0
   -2.0950   -1.5820   -0.2210 O   0  0  0  0  0  0  0  0  0  0  0  0
   -3.3620   -1.9270   -0.7290 C   0  0  0  0  0  0  0  0  0  0  0  0
   -3.4570   -3.1460   -1.1060 O   0  0  0  0  0  0  0  0  0  0  0  0
   -4.5510   -1.1460   -0.8930 N   0  0  0  0  0  0  0  0  0  0  0  0
   -4.9420    0.2460   -0.5410 C   0  0  0  0  0  0  0  0  0  0  0  0
   -3.7980    0.6470    0.2100 C   0  0  0  0  0  0  0  0  0  0  0  0
   -3.0240    1.4710    0.9630 C   0  0  0  0  0  0  0  0  0  0  0  0
   -1.8420    0.5520    1.3350 C   0  0  2  0  0  0  0  0  0  0  0  0
   -0.7440    1.5140    1.4970 N   0  0  0  0  0  0  0  0  0  0  0  0
    0.5010    1.3680    0.8340 C   0  0  0  0  0  0  0  0  0  0  0  0
    1.1680    2.3620    0.4250 O   0  0  0  0  0  0  0  0  0  0  0  0
    3.2540    0.6780    0.4670 C   0  0  0  0  0  0  0  0  0  0  0  0
    4.5290    0.0030    0.4630 N   0  0  0  0  0  0  0  0  0  0  0  0
    4.8030   -0.7110   -0.7680 C   0  0  0  0  0  0  0  0  0  0  0  0
    3.9200   -1.8450   -0.7550 O   0  0  0  0  0  0  0  0  0  0  0  0
    2.6660   -1.5630   -0.1700 C   0  0  0  0  0  0  0  0  0  0  0  0
    2.0430   -2.5270    0.3400 O   0  0  0  0  0  0  0  0  0  0  0  0
  2  1  1  6
  2  3  1  0
  2 17  1  0
  2 21  1  0
  3  4  1  6
  3 15  1  0
  4  5  2  0
  5  6  1  0
  5 13  1  0
  6  7  1  0
  7  8  2  0
  7  9  1  0
  9 10  1  0
 10 11  1  0
 11 12  1  0
 13 12  1  6
 13 14  1  0
 14 15  1  0
 15 16  2  0
 17 18  1  0
 18 19  1  0
 19 20  1  0
 20 21  1  0
 21 22  2  0
M  CHG  1  18   1
M  END
