
     RDKit          3D

 19 19  0  0  0  0  0  0  0  0999 V2000
    3.8200   -0.8800    1.5830 O   0  0  0  0  0  0  0  0  0  0  0  0
    3.2320   -0.6310    0.4980 C   0  0  0  0  0  0  0  0  0  0  0  0
    1.7530   -0.6190    0.4280 C   0  0  0  0  0  0  0  0  0  0  0  0
    1.2260    0.7820    0.3770 C   0  0  0  0  0  0  0  0  0  0  0  0
   -0.2130    0.7480    0.3170 N   0  0  0  0  0  0  0  0  0  0  0  0
   -0.9170    0.1120   -0.7500 C   0  0  0  0  0  0  0  0  0  0  0  0
   -0.2900   -0.4370   -1.6720 O   0  0  0  0  0  0  0  0  0  0  0  0
   -2.3970    0.0950   -0.7720 C   0  0  2  0  0  0  0  0  0  0  0  0
   -2.8610    0.8480    0.3520 O   0  0  0  0  0  0  0  0  0  0  0  0
   -4.2400    0.7750    0.5860 C   0  0  0  0  0  0  0  0  0  0  0  0
   -4.8570    1.7700    1.0320 O   0  0  0  0  0  0  0  0  0  0  0  0
   -5.0130   -0.4620    0.3230 C   0  0  0  0  0  0  0  0  0  0  0  0
   -4.2560   -1.4300   -0.3760 O   0  0  0  0  0  0  0  0  0  0  0  0
   -2.9150   -1.3230   -0.6340 C   0  0  0  0  0  0  0  0  0  0  0  0
   -2.1590   -2.3160   -0.7510 O   0  0  0  0  0  0  0  0  0  0  0  0
    4.0430   -0.3690   -0.6200 O   0  0  0  0  0  0  0  0  0  0  0  0
    5.3760   -0.3810   -0.5520 O   0  0  0  0  0  0  0  0  0  0  0  0
    5.7310    0.6380    0.2350 O   0  0  0  0  0  0  0  0  0  0  0  0
    6.6150    1.3600   -0.4590 O   0  0  0  0  0  0  0  0  0  0  0  0
  1  2  2  0
  2  3  1  0
  2 16  1  0
  3  4  1  0
  4  5  1  0
  5  6  1  0
  6  7  2  0
  8  6  1  1
  8  9  1  0
  8 14  1  0
  9 10  1  0
 10 11  2  0
 10 12  1  0
 12 13  1  0
 13 14  1  0
 14 15  2  0
 16 17  1  0
 17 18  1  0
 18 19  1  0
M  END
