
     RDKit          3D

 21 21  0  0  0  0  0  0  0  0999 V2000
    3.7080    0.5400    1.1870 O   0  0  0  0  0  0  0  0  0  0  0  0
    3.8390   -0.4320    0.3780 C   0  0  0  0  0  0  0  0  0  0  0  0
    2.6670   -0.9850   -0.2070 N   0  0  0  0  0  0  0  0  0  0  0  0
    1.3330   -0.4860    0.0830 C   0  0  2  0  0  0  0  0  0  0  0  0
    0.4590   -1.5610    0.6940 C   0  0  0  0  0  0  0  0  0  0  0  0
   -0.6900   -1.9520   -0.1770 C   0  0  0  0  0  0  0  0  0  0  0  0
   -2.0020   -1.6000    0.5360 C   0  0  0  0  0  0  0  0  0  0  0  0
   -3.0170   -1.2970   -0.3710 O   0  0  0  0  0  0  0  0  0  0  0  0
   -3.5800   -0.0770   -0.6020 C   0  0  0  0  0  0  0  0  0  0  0  0
   -3.8680    0.2980   -1.7610 O   0  0  0  0  0  0  0  0  0  0  0  0
   -3.8610    0.8330    0.5270 C   0  0  2  0  0  0  0  0  0  0  0  0
   -4.8600    1.7460    0.2310 F   0  0  0  0  0  0  0  0  0  0  0  0
   -2.7650    1.5450    0.9560 O   0  0  0  0  0  0  0  0  0  0  0  0
   -2.0550    2.1670   -0.0370 C   0  0  0  0  0  0  0  0  0  0  0  0
   -0.6070    1.7420    0.0710 C   0  0  0  0  0  0  0  0  0  0  0  0
   -0.1930    1.1260   -1.1720 N   0  0  0  0  0  0  0  0  0  0  0  0
    0.7530    0.0780   -1.1570 C   0  0  0  0  0  0  0  0  0  0  0  0
    1.1190   -0.3980   -2.2680 O   0  0  0  0  0  0  0  0  0  0  0  0
    5.1150   -0.9000    0.1080 O   0  0  0  0  0  0  0  0  0  0  0  0
    6.1990   -0.3380    0.6920 O   0  0  0  0  0  0  0  0  0  0  0  0
    6.0140    0.9760    0.7810 O   0  0  0  0  0  0  0  0  0  0  0  0
  1  2  2  0
  2  3  1  0
  2 19  1  0
  4  3  1  6
  4  5  1  0
  4 17  1  0
  5  6  1  0
  6  7  1  0
  7  8  1  0
  8  9  1  0
  9 10  2  0
  9 11  1  0
 11 12  1  6
 11 13  1  0
 13 14  1  0
 14 15  1  0
 15 16  1  0
 16 17  1  0
 17 18  2  0
 19 20  1  0
 20 21  1  0
M  END
