
     RDKit          3D

 19 20  0  0  0  0  0  0  0  0999 V2000
    0.3230    2.1860   -0.4810 O   0  0  0  0  0  0  0  0  0  0  0  0
    0.1410    0.9460   -0.4480 C   0  0  0  0  0  0  0  0  0  0  0  0
    1.3480    0.2100   -0.5910 O   0  0  0  0  0  0  0  0  0  0  0  0
    1.3210   -1.2240   -0.3890 C   0  0  1  0  0  0  0  0  0  0  0  0
    2.4370   -1.4190    0.6460 C   0  0  0  0  0  0  0  0  0  0  0  0
    3.5540   -0.8700   -0.1110 O   0  0  0  0  0  0  0  0  0  0  0  0
    3.8490    0.1960    0.5880 O   0  0  0  0  0  0  0  0  0  0  0  0
    4.9080    0.7540    0.7070 O   0  0  0  0  0  0  0  0  0  0  0  0
    5.7820    0.7840   -0.2370 O   0  0  0  0  0  0  0  0  0  0  0  0
    0.0510   -1.7170    0.1190 C   0  0  0  0  0  0  0  0  0  0  0  0
   -0.6720   -0.7200    0.8390 O   0  0  0  0  0  0  0  0  0  0  0  0
   -1.0360    0.1530   -0.2870 C   0  0  1  0  0  0  0  0  0  0  0  0
   -2.2920    0.7790    0.0690 N   0  0  0  0  0  0  0  0  0  0  0  0
   -3.5490    0.2800   -0.4290 C   0  0  0  0  0  0  0  0  0  0  0  0
   -3.7470   -0.5210   -1.3640 O   0  0  0  0  0  0  0  0  0  0  0  0
   -4.5790    0.9280    0.4180 C   0  0  0  0  0  0  0  0  0  0  0  0
   -3.9760    2.1290    0.7830 O   0  0  0  0  0  0  0  0  0  0  0  0
   -2.5770    1.9090    0.8210 C   0  0  0  0  0  0  0  0  0  0  0  0
   -1.7610    2.6330    1.4390 O   0  0  0  0  0  0  0  0  0  0  0  0
  1  2  2  0
  2  3  1  0
  2 12  1  0
  3  4  1  0
  4  5  1  1
  4 10  1  0
  5  6  1  0
  6  7  1  0
  7  8  1  0
  8  9  1  0
 10 11  1  0
 11 12  1  0
 12 13  1  1
 13 14  1  0
 13 18  1  0
 14 15  2  0
 14 16  1  0
 16 17  1  0
 17 18  1  0
 18 19  2  0
M  END
