
     RDKit          3D

 19 19  0  0  0  0  0  0  0  0999 V2000
    3.7040    0.7930    0.7640 O   0  0  0  0  0  0  0  0  0  0  0  0
    4.3040    0.6640   -0.3530 C   0  0  0  0  0  0  0  0  0  0  0  0
    4.7470    1.8020   -1.0120 O   0  0  0  0  0  0  0  0  0  0  0  0
    4.4900   -0.6010   -0.8640 O   0  0  0  0  0  0  0  0  0  0  0  0
    4.0180   -1.7050   -0.1470 C   0  0  0  0  0  0  0  0  0  0  0  0
    2.5570   -1.6370    0.0520 C   0  0  0  0  0  0  0  0  0  0  0  0
    2.0190   -2.5950    0.6950 O   0  0  0  0  0  0  0  0  0  0  0  0
    1.7450   -0.6250   -0.4020 O   0  0  0  0  0  0  0  0  0  0  0  0
    0.3850   -0.6320   -0.1760 C   0  0  0  0  0  0  0  0  0  0  0  0
   -0.0830   -1.6260    0.4760 O   0  0  0  0  0  0  0  0  0  0  0  0
   -0.4760    0.3620   -0.6110 O   0  0  0  0  0  0  0  0  0  0  0  0
   -1.8260    0.2600   -0.3310 C   0  0  2  0  0  0  0  0  0  0  0  0
   -2.6300    0.1580   -1.5040 O   0  0  0  0  0  0  0  0  0  0  0  0
   -4.0070    0.0280   -1.2840 C   0  0  0  0  0  0  0  0  0  0  0  0
   -4.7690   -0.3420   -2.2130 O   0  0  0  0  0  0  0  0  0  0  0  0
   -4.5200    0.3280    0.0280 N   0  0  0  0  0  0  0  0  0  0  0  0
   -3.7900    1.2240    0.9230 C   0  0  0  0  0  0  0  0  0  0  0  0
   -2.3760    1.3730    0.4760 C   0  0  0  0  0  0  0  0  0  0  0  0
   -1.7740    2.3620    0.7860 O   0  0  0  0  0  0  0  0  0  0  0  0
  1  2  2  0
  2  3  1  0
  2  4  1  0
  4  5  1  0
  5  6  1  0
  6  7  2  0
  6  8  1  0
  8  9  1  0
  9 10  2  0
  9 11  1  0
 12 11  1  6
 12 13  1  0
 12 18  1  0
 13 14  1  0
 14 15  2  0
 14 16  1  0
 16 17  1  0
 17 18  1  0
 18 19  2  0
M  END
