
     RDKit          3D

 24 26  0  0  0  0  0  0  0  0999 V2000
   -3.6610    3.3430    0.4760 N   0  0  0  0  0  0  0  0  0  0  0  0
   -3.8200    1.9650    0.2290 C   0  0  0  0  0  0  0  0  0  0  0  0
   -2.7750    1.1030    0.3730 N   0  0  0  0  0  0  0  0  0  0  0  0
   -3.0030   -0.1920    0.1210 C   0  0  0  0  0  0  0  0  0  0  0  0
   -4.2420   -0.6530   -0.2710 C   0  0  0  0  0  0  0  0  0  0  0  0
   -4.1070   -1.9750   -0.4330 N   0  0  0  0  0  0  0  0  0  0  0  0
   -2.8430   -2.3230   -0.1550 C   0  0  0  0  0  0  0  0  0  0  0  0
   -2.1460   -1.2240    0.1910 N   0  0  0  0  0  0  0  0  0  0  0  0
   -0.7540   -1.2490    0.5500 C   0  0  2  0  0  0  0  0  0  0  0  0
   -0.1310   -0.0180    0.3930 O   0  0  0  0  0  0  0  0  0  0  0  0
    1.1950   -0.3350    0.7060 C   0  0  2  0  0  0  0  0  0  0  0  0
    2.1480    0.7320    0.1630 C   0  0  0  0  0  0  0  0  0  0  0  0
    3.4160    0.3570    0.5050 O   0  0  0  0  0  0  0  0  0  0  0  0
    4.6380    1.3450    0.0330 P   0  0  0  0  0  0  0  0  0  0  0  0
    6.0120    0.6090   -0.6890 O   0  0  0  0  0  0  0  0  0  0  0  0
    5.3730    1.2540    1.3650 O   0  0  0  0  0  0  0  0  0  0  0  0
    4.5040    2.9470   -0.0450 O   0  0  0  0  0  0  0  0  0  0  0  0
    1.4830   -1.6470   -0.0320 C   0  0  1  0  0  0  0  0  0  0  0  0
    2.1020   -2.5170    0.8550 O   0  0  0  0  0  0  0  0  0  0  0  0
    0.0740   -2.1340   -0.3550 C   0  0  1  0  0  0  0  0  0  0  0  0
   -0.0850   -3.4730   -0.1060 O   0  0  0  0  0  0  0  0  0  0  0  0
   -5.3090    0.2400   -0.4160 C   0  0  0  0  0  0  0  0  0  0  0  0
   -6.4290   -0.1830   -0.7710 O   0  0  0  0  0  0  0  0  0  0  0  0
   -5.0410    1.5370   -0.1530 N   0  0  0  0  0  0  0  0  0  0  0  0
  1  2  1  0
  2  3  2  0
  2 24  1  0
  3  4  1  0
  4  5  2  0
  4  8  1  0
  5  6  1  0
  5 22  1  0
  6  7  2  0
  7  8  1  0
  9  8  1  6
  9 10  1  0
  9 20  1  0
 10 11  1  0
 11 12  1  6
 11 18  1  0
 12 13  1  0
 13 14  1  0
 14 15  1  0
 14 16  1  0
 14 17  1  0
 18 19  1  1
 18 20  1  0
 20 21  1  1
 22 23  2  0
 22 24  1  0
M  END
