
     RDKit          3D

 19 19  0  0  0  0  0  0  0  0999 V2000
    2.7680    1.6620   -0.3720 O   0  0  0  0  0  0  0  0  0  0  0  0
    3.4570    0.6010   -0.4740 C   0  0  0  0  0  0  0  0  0  0  0  0
    4.7870    0.6470   -0.8700 O   0  0  0  0  0  0  0  0  0  0  0  0
    2.8180   -0.5830   -0.1740 O   0  0  0  0  0  0  0  0  0  0  0  0
    1.4700   -0.6670    0.2310 C   0  0  2  0  0  0  0  0  0  0  0  0
    1.3300   -1.1780    1.6190 C   0  0  0  0  0  0  0  0  0  0  0  0
    2.3800   -1.5360    2.2140 O   0  0  0  0  0  0  0  0  0  0  0  0
    0.0630   -1.2200    2.1500 O   0  0  0  0  0  0  0  0  0  0  0  0
   -0.8560   -0.1810    2.2250 C   0  0  0  0  0  0  0  0  0  0  0  0
   -1.1200    0.4430    1.0120 O   0  0  0  0  0  0  0  0  0  0  0  0
   -2.3890    0.0880    0.6110 C   0  0  0  0  0  0  0  0  0  0  0  0
   -2.7080    0.4590   -0.8060 C   0  0  0  0  0  0  0  0  0  0  0  0
   -1.9510    1.5890   -1.2900 N   0  0  0  0  0  0  0  0  0  0  0  0
   -0.7440    1.4760   -2.0280 C   0  0  0  0  0  0  0  0  0  0  0  0
   -0.4100    2.4180   -2.7950 O   0  0  0  0  0  0  0  0  0  0  0  0
    0.1240    0.4010   -1.9830 O   0  0  0  0  0  0  0  0  0  0  0  0
   -0.1690   -0.8540   -1.6380 O   0  0  0  0  0  0  0  0  0  0  0  0
    0.6530   -1.4770   -0.7090 C   0  0  0  0  0  0  0  0  0  0  0  0
    0.6990   -2.7410   -0.6720 O   0  0  0  0  0  0  0  0  0  0  0  0
  1  2  2  0
  2  3  1  0
  2  4  1  0
  5  4  1  6
  5  6  1  0
  5 18  1  0
  6  7  2  0
  6  8  1  0
  8  9  1  0
  9 10  1  0
 10 11  1  0
 11 12  1  0
 12 13  1  0
 13 14  1  0
 14 15  2  0
 14 16  1  0
 16 17  1  0
 17 18  1  0
 18 19  2  0
M  END
