
     RDKit          3D

 19 20  0  0  0  0  0  0  0  0999 V2000
   -2.6230    1.9860   -0.9830 O   0  0  0  0  0  0  0  0  0  0  0  0
   -2.5620    0.7760   -0.7410 C   0  0  0  0  0  0  0  0  0  0  0  0
   -3.6660    0.1750   -0.0600 N   0  0  0  0  0  0  0  0  0  0  0  0
   -4.7320    0.9230    0.2990 O   0  0  0  0  0  0  0  0  0  0  0  0
   -5.2590    1.3880   -0.8160 O   0  0  0  0  0  0  0  0  0  0  0  0
   -1.4280   -0.0790   -1.1080 C   0  0  1  0  0  0  0  0  0  0  0  0
   -0.3680    0.5660   -1.7810 O   0  0  0  0  0  0  0  0  0  0  0  0
    0.4180   -0.4830   -1.2460 C   0  0  1  0  0  0  0  0  0  0  0  0
    1.8470   -0.2110   -1.1270 C   0  0  0  0  0  0  0  0  0  0  0  0
    2.3220    0.8850   -1.4790 O   0  0  0  0  0  0  0  0  0  0  0  0
    2.6560   -1.2110   -0.6110 O   0  0  0  0  0  0  0  0  0  0  0  0
    4.0600   -1.0490   -0.4540 C   0  0  0  0  0  0  0  0  0  0  0  0
    4.2770    0.0230    0.4070 O   0  0  0  0  0  0  0  0  0  0  0  0
    5.5600    0.2080    0.5790 O   0  0  0  0  0  0  0  0  0  0  0  0
   -0.4180   -0.3360   -0.0100 C   0  0  1  0  0  0  0  0  0  0  0  0
   -0.1360    0.7610    0.7810 O   0  0  0  0  0  0  0  0  0  0  0  0
   -0.2320    0.3700    2.1000 C   0  0  0  0  0  0  0  0  0  0  0  0
   -0.9970   -0.9190    2.0300 C   0  0  0  0  0  0  0  0  0  0  0  0
   -0.6080   -1.4310    0.7820 O   0  0  0  0  0  0  0  0  0  0  0  0
  1  2  2  0
  2  3  1  0
  6  2  1  1
  3  4  1  0
  4  5  1  0
  6  7  1  0
  6 15  1  0
  7  8  1  0
  8  9  1  1
  8 15  1  0
  9 10  2  0
  9 11  1  0
 11 12  1  0
 12 13  1  0
 13 14  1  0
 15 16  1  1
 15 19  1  0
 16 17  1  0
 17 18  1  0
 18 19  1  0
M  END
