
     RDKit          3D

 27 27  0  0  0  0  0  0  0  0999 V2000
    2.1390    2.3190   -2.8020 C   0  0  0  0  0  0  0  0  0  0  0  0
    1.1410    1.6540   -1.8810 C   0  0  0  0  0  0  0  0  0  0  0  0
    1.4260    1.8910   -0.5420 O   0  0  0  0  0  0  0  0  0  0  0  0
    0.3000    1.1430    0.4950 P   0  0  0  0  0  0  0  0  0  0  0  0
    0.1720    1.9330    2.1530 C   0  0  0  0  0  0  0  0  0  0  0  0
   -0.3710    3.7030    2.0400 P   0  0  0  0  0  0  0  0  0  0  0  0
    1.0400    4.8410    1.6780 C   0  0  0  0  0  0  0  0  0  0  0  0
   -1.9990    3.9630    0.6830 S   0  0  0  0  0  0  0  0  0  0  0  0
    0.3920   -0.6590    0.5560 C   0  0  0  0  0  0  0  0  0  0  0  0
    1.5280   -1.2560    0.7680 C   0  0  0  0  0  0  0  0  0  0  0  0
    2.7800   -0.4440    0.9650 C   0  0  0  0  0  0  0  0  0  0  0  0
    3.7200   -0.6020    0.1700 O   0  0  0  0  0  0  0  0  0  0  0  0
    4.6560   -0.7600   -0.6220 C   0  0  0  0  0  0  0  0  0  0  0  0
    4.4780   -1.7790   -1.6420 O   0  0  0  0  0  0  0  0  0  0  0  0
    4.3540   -3.0710   -1.2230 C   0  0  0  0  0  0  0  0  0  0  0  0
    4.4040   -3.3640   -0.0100 O   0  0  0  0  0  0  0  0  0  0  0  0
    1.6280   -2.6300    0.8200 O   0  0  0  0  0  0  0  0  0  0  0  0
    0.5130   -3.3490    0.6460 O   0  0  0  0  0  0  0  0  0  0  0  0
   -0.7410   -2.8080    0.4160 C   0  0  0  0  0  0  0  0  0  0  0  0
   -0.8370   -1.4670    0.3640 C   0  0  0  0  0  0  0  0  0  0  0  0
   -2.0730   -0.7870    0.1080 C   0  0  0  0  0  0  0  0  0  0  0  0
   -1.9730    0.5160    0.1280 O   0  0  0  0  0  0  0  0  0  0  0  0
   -3.3510   -1.2360   -0.1560 N   0  0  0  0  0  0  0  0  0  0  0  0
   -3.8590   -2.5670   -0.3210 C   0  0  0  0  0  0  0  0  0  0  0  0
   -4.2990   -3.2350    0.9410 C   0  0  0  0  0  0  0  0  0  0  0  0
   -4.4370   -0.1900   -0.2980 C   0  0  0  0  0  0  0  0  0  0  0  0
   -4.4940    0.1690   -1.6380 O   0  0  0  0  0  0  0  0  0  0  0  0
  1  2  1  0
  2  3  1  0
  3  4  1  0
  4  5  1  0
  4  9  1  0
  5  6  1  0
  6  7  1  0
  6  8  1  0
  9 10  2  0
  9 20  1  0
 10 11  1  0
 10 17  1  0
 11 12  1  0
 12 13  1  0
 13 14  1  0
 14 15  1  0
 15 16  2  0
 17 18  1  0
 18 19  1  0
 19 20  2  0
 20 21  1  0
 21 22  2  0
 21 23  1  0
 23 24  1  0
 23 26  1  0
 24 25  1  0
 26 27  1  0
M  END
