
     RDKit          3D

 19 18  0  0  0  0  0  0  0  0999 V2000
   -3.6770   -3.7770   -1.1030 O   0  0  0  0  0  0  0  0  0  0  0  0
   -2.1790   -3.5280   -0.9080 P   0  0  0  0  0  0  0  0  0  0  0  0
   -1.4570   -1.8880   -0.4350 C   0  0  1  0  0  0  0  0  0  0  0  0
   -0.1360   -1.7640   -0.8340 O   0  0  0  0  0  0  0  0  0  0  0  0
    0.6450   -1.5620    0.2970 C   0  0  0  0  0  0  0  0  0  0  0  0
    2.0830   -1.4200   -0.0550 C   0  0  0  0  0  0  0  0  0  0  0  0
    2.4360   -1.4900   -1.2580 O   0  0  0  0  0  0  0  0  0  0  0  0
    3.0510   -1.2120    0.9010 O   0  0  0  0  0  0  0  0  0  0  0  0
    4.4170   -1.0790    0.5410 C   0  0  0  0  0  0  0  0  0  0  0  0
    4.6450   -0.0200   -0.3080 O   0  0  0  0  0  0  0  0  0  0  0  0
    4.1570    1.4340    0.4690 P   0  0  0  0  0  0  0  0  0  0  0  0
    3.4570    2.4940   -0.7140 O   0  0  0  0  0  0  0  0  0  0  0  0
    2.9430    1.1170    1.6690 O   0  0  0  0  0  0  0  0  0  0  0  0
   -2.1680   -0.8130   -1.0210 O   0  0  0  0  0  0  0  0  0  0  0  0
   -2.7980    0.1710   -0.3020 C   0  0  0  0  0  0  0  0  0  0  0  0
   -2.7650    0.1520    0.9440 O   0  0  0  0  0  0  0  0  0  0  0  0
   -3.5010    1.2330   -0.9410 N   0  0  0  0  0  0  0  0  0  0  0  0
   -4.1360    2.2280   -0.1230 C   0  0  0  0  0  0  0  0  0  0  0  0
   -4.7560    3.1570   -0.9520 O   0  0  0  0  0  0  0  0  0  0  0  0
  1  2  2  0
  2  3  1  0
  3  4  1  6
  3 14  1  0
  4  5  1  0
  5  6  1  0
  6  7  2  0
  6  8  1  0
  8  9  1  0
  9 10  1  0
 10 11  1  0
 11 12  1  0
 11 13  1  0
 14 15  1  0
 15 16  2  0
 15 17  1  0
 17 18  1  0
 18 19  1  0
M  END
