
     RDKit          3D

 27 27  0  0  0  0  0  0  0  0999 V2000
    8.8550   -1.0080    0.5080 C   0  0  0  0  0  0  0  0  0  0  0  0
    8.1560    0.1460   -0.0970 C   0  0  0  0  0  0  0  0  0  0  0  0
    6.6920    0.6380    0.4980 P   0  0  0  0  0  0  0  0  0  0  0  0
    5.9980   -0.2200    1.8340 O   0  0  0  0  0  0  0  0  0  0  0  0
    4.3860    0.3930    2.0450 S   0  0  0  0  0  0  0  0  0  0  0  0
    3.3240   -0.8470    1.4600 O   0  0  0  0  0  0  0  0  0  0  0  0
    2.2300   -0.4330    0.6700 C   0  0  0  0  0  0  0  0  0  0  0  0
    2.3550   -0.3220   -0.6880 C   0  0  0  0  0  0  0  0  0  0  0  0
    1.2760    0.0830   -1.4320 C   0  0  0  0  0  0  0  0  0  0  0  0
    0.0510    0.3900   -0.8700 C   0  0  0  0  0  0  0  0  0  0  0  0
   -1.1150    0.8270   -1.7520 C   0  0  1  0  0  0  0  0  0  0  0  0
   -1.7630   -0.2380   -2.2850 N   0  0  0  0  0  0  0  0  0  0  0  0
   -2.5170   -1.2430   -1.8140 C   0  0  0  0  0  0  0  0  0  0  0  0
   -3.8490   -1.1940   -1.2110 C   0  0  2  0  0  0  0  0  0  0  0  0
   -3.9610   -0.4720   -0.0280 O   0  0  0  0  0  0  0  0  0  0  0  0
   -4.2570   -2.9710   -0.6940 P   0  0  0  0  0  0  0  0  0  0  0  0
   -5.0850   -3.7890   -1.9960 O   0  0  0  0  0  0  0  0  0  0  0  0
   -5.6630   -2.9330    1.0210 P   0  0  0  0  0  0  0  0  0  0  0  0
   -4.7390   -2.4360    2.4100 O   0  0  0  0  0  0  0  0  0  0  0  0
   -1.7790    1.9590   -1.1170 C   0  0  0  0  0  0  0  0  0  0  0  0
   -3.0050    2.1600   -1.0240 O   0  0  0  0  0  0  0  0  0  0  0  0
   -0.9730    2.9350   -0.5440 O   0  0  0  0  0  0  0  0  0  0  0  0
   -1.5650    4.0520    0.0830 C   0  0  0  0  0  0  0  0  0  0  0  0
   -0.0520    0.2730    0.4810 C   0  0  0  0  0  0  0  0  0  0  0  0
   -1.2660    0.5710    1.0870 O   0  0  0  0  0  0  0  0  0  0  0  0
   -1.4820    0.4850    2.4800 C   0  0  0  0  0  0  0  0  0  0  0  0
    1.0170   -0.1320    1.2510 C   0  0  0  0  0  0  0  0  0  0  0  0
  1  2  1  0
  2  3  2  3
  3  4  1  0
  4  5  1  0
  5  6  1  0
  6  7  1  0
  7  8  2  0
  7 27  1  0
  8  9  1  0
  9 10  2  0
 10 11  1  0
 10 24  1  0
 11 12  1  1
 11 20  1  0
 12 13  1  0
 13 14  1  0
 14 15  1  1
 14 16  1  0
 16 17  1  0
 16 18  1  0
 18 19  1  0
 20 21  2  0
 20 22  1  0
 22 23  1  0
 24 25  1  0
 24 27  2  0
 25 26  1  0
M  END
