
     RDKit          3D

 27 27  0  0  0  0  0  0  0  0999 V2000
    2.6810   -3.3550   -2.5170 C   0  0  0  0  0  0  0  0  0  0  0  0
    2.7070   -3.3910   -0.9410 C   0  0  0  0  0  0  0  0  0  0  0  0
    1.4630   -2.9830   -0.6510 O   0  0  0  0  0  0  0  0  0  0  0  0
    1.2780   -1.5740    0.2520 P   0  0  0  0  0  0  0  0  0  0  0  0
    2.3090   -1.0300    1.5110 C   0  0  0  0  0  0  0  0  0  0  0  0
    3.2680    0.0760    1.2480 C   0  0  0  0  0  0  0  0  0  0  0  0
    2.8820    1.3850    1.5150 C   0  0  0  0  0  0  0  0  0  0  0  0
    3.7400    2.4460    1.2240 C   0  0  0  0  0  0  0  0  0  0  0  0
    5.0030    2.2240    0.6510 C   0  0  0  0  0  0  0  0  0  0  0  0
    6.1270    3.5830    0.2540 P   0  0  0  0  0  0  0  0  0  0  0  0
    5.3180    0.9780    0.4230 O   0  0  0  0  0  0  0  0  0  0  0  0
    4.5160   -0.0630    0.7030 C   0  0  0  0  0  0  0  0  0  0  0  0
    5.0190   -1.1730    0.4180 O   0  0  0  0  0  0  0  0  0  0  0  0
   -0.1480   -0.8820   -0.3870 O   0  0  0  0  0  0  0  0  0  0  0  0
   -1.2810   -0.7210    0.4390 C   0  0  0  0  0  0  0  0  0  0  0  0
   -1.3730   -0.8590    1.5440 O   0  0  0  0  0  0  0  0  0  0  0  0
   -2.4960   -0.3310   -0.3920 C   0  0  0  0  0  0  0  0  0  0  0  0
   -3.4430   -1.4090    0.3150 N   0  0  0  0  0  0  0  0  0  0  0  0
   -4.1640   -1.2230    1.2370 C   0  0  0  0  0  0  0  0  0  0  0  0
   -4.8500   -2.4680    1.6180 O   0  0  0  0  0  0  0  0  0  0  0  0
   -4.4390    0.0110    1.9750 C   0  0  0  0  0  0  0  0  0  0  0  0
   -3.4570    0.3410    3.4350 S   0  0  0  0  0  0  0  0  0  0  0  0
   -3.1540    0.4590   -0.9560 C   0  0  0  0  0  0  0  0  0  0  0  0
   -4.4150   -0.1620   -1.7020 C   0  0  0  0  0  0  0  0  0  0  0  0
   -3.1270    1.7990   -1.1550 O   0  0  0  0  0  0  0  0  0  0  0  0
   -3.0330    2.8030   -2.0010 C   0  0  0  0  0  0  0  0  0  0  0  0
   -3.1970    4.0280   -1.3030 O   0  0  0  0  0  0  0  0  0  0  0  0
  1  2  1  0
  2  3  1  0
  3  4  1  0
  4  5  1  0
  4 14  1  0
  5  6  1  0
  6  7  2  0
  6 12  1  0
  7  8  1  0
  8  9  2  0
  9 10  1  0
  9 11  1  0
 11 12  1  0
 12 13  2  0
 14 15  1  0
 15 16  2  0
 15 17  1  0
 17 18  1  0
 17 23  2  3
 18 19  2  3
 19 20  1  0
 19 21  1  0
 21 22  1  0
 23 24  1  0
 23 25  1  0
 25 26  1  0
 26 27  1  0
M  END
