
     RDKit          3D

 26 25  0  0  0  0  0  0  0  0999 V2000
   -5.1150    4.1320    0.6390 C   0  0  0  0  0  0  0  0  0  0  0  0
   -4.6930    3.7250   -0.5420 C   0  0  0  0  0  0  0  0  0  0  0  0
   -5.5120    2.9620   -1.3590 O   0  0  0  0  0  0  0  0  0  0  0  0
   -5.0620    2.2060   -2.3400 O   0  0  0  0  0  0  0  0  0  0  0  0
   -4.4880    0.6640   -1.8340 P   0  0  0  0  0  0  0  0  0  0  0  0
   -2.6750    0.7740   -1.6270 C   0  0  0  0  0  0  0  0  0  0  0  0
   -2.0390    0.0200   -0.7450 C   0  0  0  0  0  0  0  0  0  0  0  0
   -0.5830    0.1030   -0.5740 C   0  0  0  0  0  0  0  0  0  0  0  0
    0.0410   -0.6540    0.3100 C   0  0  0  0  0  0  0  0  0  0  0  0
    1.4160   -0.5660    0.4610 O   0  0  0  0  0  0  0  0  0  0  0  0
    2.2410   -0.6610   -0.6830 C   0  0  0  0  0  0  0  0  0  0  0  0
    3.6860   -0.5330   -0.2410 C   0  0  0  0  0  0  0  0  0  0  0  0
    4.4770   -0.6300   -1.3870 O   0  0  0  0  0  0  0  0  0  0  0  0
    6.1370   -0.4840   -0.8810 P   0  0  0  0  0  0  0  0  0  0  0  0
    6.7420   -2.0610   -0.1250 C   0  0  0  0  0  0  0  0  0  0  0  0
    6.2210    0.8020    0.2850 O   0  0  0  0  0  0  0  0  0  0  0  0
    7.2620    1.6480   -0.1280 C   0  0  0  0  0  0  0  0  0  0  0  0
    7.3330    2.7660    0.8890 C   0  0  0  0  0  0  0  0  0  0  0  0
   -0.6540   -1.5480    1.1010 O   0  0  0  0  0  0  0  0  0  0  0  0
   -0.6020   -2.8630    0.7530 O   0  0  0  0  0  0  0  0  0  0  0  0
    0.5190   -3.6410    1.0300 C   0  0  0  0  0  0  0  0  0  0  0  0
    1.4830   -3.1110    1.6070 O   0  0  0  0  0  0  0  0  0  0  0  0
   -5.3370    0.1910   -0.2730 C   0  0  0  0  0  0  0  0  0  0  0  0
   -5.1550   -1.1970    0.0710 N   0  0  0  0  0  0  0  0  0  0  0  0
   -5.8070   -1.5770    1.2800 C   0  0  0  0  0  0  0  0  0  0  0  0
   -5.4030   -2.0940   -1.0290 C   0  0  0  0  0  0  0  0  0  0  0  0
  1  2  2  0
  2  3  1  0
  3  4  1  0
  4  5  1  0
  5  6  1  0
  5 23  1  0
  6  7  2  3
  7  8  1  0
  8  9  2  3
  9 10  1  0
  9 19  1  0
 10 11  1  0
 11 12  1  0
 12 13  1  0
 13 14  1  0
 14 15  1  0
 14 16  1  0
 16 17  1  0
 17 18  1  0
 19 20  1  0
 20 21  1  0
 21 22  2  0
 23 24  1  0
 24 25  1  0
 24 26  1  0
M  END
