
     RDKit          3D

 27 28  0  0  0  0  0  0  0  0999 V2000
   -0.1430   -2.1240   -1.2410 C   0  0  0  0  0  0  0  0  0  0  0  0
   -0.9100   -0.8890   -1.7820 C   0  0  0  0  0  0  0  0  0  0  0  0
   -0.9770    0.0670   -0.6910 C   0  0  0  0  0  0  0  0  0  0  0  0
    0.3730    0.5000   -0.1240 C   0  0  0  0  0  0  0  0  0  0  0  0
    1.1210    1.1310   -1.1820 N   0  0  0  0  0  0  0  0  0  0  0  0
    2.3560    1.5810   -0.8010 O   0  0  0  0  0  0  0  0  0  0  0  0
    3.2030    0.9120    0.0600 C   0  0  0  0  0  0  0  0  0  0  0  0
    4.0350   -0.0840   -0.4070 C   0  0  0  0  0  0  0  0  0  0  0  0
    4.8990   -0.7850    0.4050 C   0  0  0  0  0  0  0  0  0  0  0  0
    5.7920   -1.8670   -0.1450 C   0  0  0  0  0  0  0  0  0  0  0  0
    5.5810   -1.9820   -1.5110 O   0  0  0  0  0  0  0  0  0  0  0  0
    4.9200   -0.4630    1.7450 C   0  0  0  0  0  0  0  0  0  0  0  0
    4.1040    0.5270    2.2520 C   0  0  0  0  0  0  0  0  0  0  0  0
    3.2350    1.2230    1.4000 C   0  0  0  0  0  0  0  0  0  0  0  0
    2.4290    2.2070    1.9160 O   0  0  0  0  0  0  0  0  0  0  0  0
    2.8810    3.8640    2.0300 S   0  0  0  0  0  0  0  0  0  0  0  0
   -2.0460    0.5670   -0.1580 C   0  0  0  0  0  0  0  0  0  0  0  0
   -1.9290    1.4980    0.9130 O   0  0  0  0  0  0  0  0  0  0  0  0
   -3.0040    1.7010    1.8020 C   0  0  0  0  0  0  0  0  0  0  0  0
   -4.2440    1.7270    1.0910 O   0  0  0  0  0  0  0  0  0  0  0  0
   -4.4440    0.8320    0.0590 C   0  0  0  0  0  0  0  0  0  0  0  0
   -6.1320    0.4030   -0.4940 P   0  0  0  0  0  0  0  0  0  0  0  0
   -7.2570    1.6710   -0.1910 O   0  0  0  0  0  0  0  0  0  0  0  0
   -6.8160   -1.4830    0.4180 P   0  0  0  0  0  0  0  0  0  0  0  0
   -3.3880    0.2590   -0.5580 C   0  0  0  0  0  0  0  0  0  0  0  0
   -3.6940   -0.6340   -1.5920 O   0  0  0  0  0  0  0  0  0  0  0  0
   -4.8020   -0.4390   -2.3170 O   0  0  0  0  0  0  0  0  0  0  0  0
  1  2  1  0
  2  3  1  0
  3  4  1  0
  3 17  2  3
  4  5  1  0
  5  6  1  0
  6  7  1  0
  7  8  2  0
  7 14  1  0
  8  9  1  0
  9 10  1  0
  9 12  2  0
 10 11  1  0
 12 13  1  0
 13 14  2  0
 14 15  1  0
 15 16  1  0
 17 18  1  0
 17 25  1  0
 18 19  1  0
 19 20  1  0
 20 21  1  0
 21 22  1  0
 21 25  2  0
 22 23  1  0
 22 24  1  0
 25 26  1  0
 26 27  1  0
M  END
