
     RDKit          3D

 19 18  0  0  0  0  0  0  0  0999 V2000
   -3.9930   -1.3940   -3.1270 O   0  0  0  0  0  0  0  0  0  0  0  0
   -4.6780   -0.7850   -2.2670 C   0  0  0  0  0  0  0  0  0  0  0  0
   -4.0920   -0.1120   -1.1670 N   0  0  0  0  0  0  0  0  0  0  0  0
   -4.9420    0.5520   -0.2440 C   0  0  0  0  0  0  0  0  0  0  0  0
   -6.2000    0.5360   -0.4110 O   0  0  0  0  0  0  0  0  0  0  0  0
   -4.5060    1.2430    0.8680 O   0  0  0  0  0  0  0  0  0  0  0  0
   -2.6950   -0.1260   -1.0310 C   0  0  0  0  0  0  0  0  0  0  0  0
   -2.0220   -0.7300   -1.8830 O   0  0  0  0  0  0  0  0  0  0  0  0
   -2.0630    0.5550    0.0870 C   0  0  0  0  0  0  0  0  0  0  0  0
   -0.7010    0.4920    0.1570 O   0  0  0  0  0  0  0  0  0  0  0  0
   -0.1230   -0.7210    0.2620 C   0  0  0  0  0  0  0  0  0  0  0  0
    1.3960   -0.5020    0.3230 C   0  0  0  0  0  0  0  0  0  0  0  0
    1.7120    0.2890    1.4360 O   0  0  0  0  0  0  0  0  0  0  0  0
    3.4290    0.5280    1.4930 P   0  0  0  0  0  0  0  0  0  0  0  0
    4.0000   -0.1830    2.9890 O   0  0  0  0  0  0  0  0  0  0  0  0
    4.2250   -0.3100    0.2000 O   0  0  0  0  0  0  0  0  0  0  0  0
    5.8010    0.3270   -0.0980 P   0  0  0  0  0  0  0  0  0  0  0  0
    6.0810    1.7590    0.8460 O   0  0  0  0  0  0  0  0  0  0  0  0
    6.1140    0.5660   -1.7680 O   0  0  0  0  0  0  0  0  0  0  0  0
  1  2  2  0
  2  3  1  0
  3  4  1  0
  3  7  1  0
  4  5  2  0
  4  6  1  0
  7  8  2  0
  7  9  1  0
  9 10  1  0
 10 11  1  0
 11 12  1  0
 12 13  1  0
 13 14  1  0
 14 15  1  0
 14 16  1  0
 16 17  1  0
 17 18  1  0
 17 19  1  0
M  END
