
     RDKit          3D

 27 27  0  0  0  0  0  0  0  0999 V2000
   -6.7530   -0.1650   -0.6180 C   0  0  0  0  0  0  0  0  0  0  0  0
   -5.5020    0.4950   -0.9150 N   0  0  0  0  0  0  0  0  0  0  0  0
   -5.4260    1.3170   -2.1020 C   0  0  0  0  0  0  0  0  0  0  0  0
   -4.4160    0.3010   -0.0240 C   0  0  0  0  0  0  0  0  0  0  0  0
   -3.2070   -0.2650   -0.4360 C   0  0  0  0  0  0  0  0  0  0  0  0
   -2.1620   -0.4470    0.4380 C   0  0  0  0  0  0  0  0  0  0  0  0
   -0.9760   -1.0100    0.0040 O   0  0  0  0  0  0  0  0  0  0  0  0
   -0.8120   -2.7510    0.0980 P   0  0  0  0  0  0  0  0  0  0  0  0
    0.6890   -3.4280   -0.0040 C   0  0  0  0  0  0  0  0  0  0  0  0
    0.7870   -4.8000    0.0730 O   0  0  0  0  0  0  0  0  0  0  0  0
    2.1400   -2.3360   -0.2120 P   0  0  0  0  0  0  0  0  0  0  0  0
    3.1920   -2.9050   -1.4670 O   0  0  0  0  0  0  0  0  0  0  0  0
    1.6660   -0.7060   -0.4410 O   0  0  0  0  0  0  0  0  0  0  0  0
    1.7350    0.2080    1.0290 P   0  0  0  0  0  0  0  0  0  0  0  0
    0.9450    1.7220    0.8230 O   0  0  0  0  0  0  0  0  0  0  0  0
    3.5220    0.5500    1.4650 C   0  0  0  0  0  0  0  0  0  0  0  0
    3.9150    1.7860    0.8160 C   0  0  0  0  0  0  0  0  0  0  0  0
    4.8550    1.9490   -0.0590 C   0  0  0  0  0  0  0  0  0  0  0  0
    4.9580    3.3330   -0.4860 O   0  0  0  0  0  0  0  0  0  0  0  0
    5.7760    1.0480   -0.6620 C   0  0  0  0  0  0  0  0  0  0  0  0
    6.8370    1.7120   -1.7670 S   0  0  0  0  0  0  0  0  0  0  0  0
    5.8970   -0.3870   -0.4200 C   0  0  0  0  0  0  0  0  0  0  0  0
    6.9110   -0.9300   -1.2870 O   0  0  0  0  0  0  0  0  0  0  0  0
   -2.2580   -0.0810    1.7590 C   0  0  0  0  0  0  0  0  0  0  0  0
   -3.4570    0.4840    2.1810 C   0  0  0  0  0  0  0  0  0  0  0  0
   -4.5020    0.6650    1.3020 C   0  0  0  0  0  0  0  0  0  0  0  0
   -5.6780    1.2330    1.7740 O   0  0  0  0  0  0  0  0  0  0  0  0
  1  2  1  0
  2  3  1  0
  2  4  1  0
  4  5  2  0
  4 26  1  0
  5  6  1  0
  6  7  1  0
  6 24  2  0
  7  8  1  0
  8  9  2  3
  9 10  1  0
  9 11  1  0
 11 12  1  0
 11 13  1  0
 13 14  1  0
 14 15  1  0
 14 16  1  0
 16 17  1  0
 17 18  2  3
 18 19  1  0
 18 20  1  0
 20 21  2  0
 20 22  1  0
 22 23  1  0
 24 25  1  0
 25 26  2  0
 26 27  1  0
M  END
