
     RDKit          3D

 27 28  0  0  0  0  0  0  0  0999 V2000
    1.1350    3.2100   -3.0790 O   0  0  0  0  0  0  0  0  0  0  0  0
    1.5440    1.7950   -2.5460 P   0  0  0  0  0  0  0  0  0  0  0  0
    0.4380    0.7710   -1.5120 C   0  0  0  0  0  0  0  0  0  0  0  0
    1.0520    0.3960   -0.1660 C   0  0  2  0  0  0  0  0  0  0  0  0
    0.0390   -0.3960    0.4850 O   0  0  0  0  0  0  0  0  0  0  0  0
   -1.2170    0.1380    0.7530 C   0  0  0  0  0  0  0  0  0  0  0  0
   -1.4540    0.7790    1.9490 C   0  0  0  0  0  0  0  0  0  0  0  0
   -2.6920    1.3120    2.2240 C   0  0  0  0  0  0  0  0  0  0  0  0
   -3.7630    1.2330    1.3200 C   0  0  0  0  0  0  0  0  0  0  0  0
   -4.9890    1.7840    1.6330 O   0  0  0  0  0  0  0  0  0  0  0  0
   -3.4980    0.5890    0.1410 C   0  0  0  0  0  0  0  0  0  0  0  0
   -4.5870    0.4350   -0.8660 C   0  0  0  0  0  0  0  0  0  0  0  0
   -5.4920   -0.7070   -0.4610 C   0  0  0  0  0  0  0  0  0  0  0  0
   -4.6250   -1.9590   -0.4180 C   0  0  0  0  0  0  0  0  0  0  0  0
   -5.4130   -3.0610   -0.0450 O   0  0  0  0  0  0  0  0  0  0  0  0
   -2.2420    0.0430   -0.1520 C   0  0  0  0  0  0  0  0  0  0  0  0
    1.2850    1.4550    0.5600 O   0  0  0  0  0  0  0  0  0  0  0  0
    2.4850    1.9170    0.6540 N   0  0  0  0  0  0  0  0  0  0  0  0
    2.8260    3.5050   -0.0150 P   0  0  0  0  0  0  0  0  0  0  0  0
    4.2250    3.9290   -0.5540 O   0  0  0  0  0  0  0  0  0  0  0  0
    3.4860    0.6060   -0.0790 P   0  0  0  0  0  0  0  0  0  0  0  0
    4.5670   -0.0820    1.2630 C   0  0  0  0  0  0  0  0  0  0  0  0
    5.8960   -0.0610    0.9400 O   0  0  0  0  0  0  0  0  0  0  0  0
    6.2840   -0.7470   -0.1710 C   0  0  0  0  0  0  0  0  0  0  0  0
    6.0170   -2.2120   -0.1710 C   0  0  0  0  0  0  0  0  0  0  0  0
    4.7060   -2.5900   -0.0550 O   0  0  0  0  0  0  0  0  0  0  0  0
    2.1080   -0.4440   -0.3760 O   0  0  0  0  0  0  0  0  0  0  0  0
  1  2  2  0
  2  3  1  0
  4  3  1  6
  4  5  1  0
  4 17  1  0
  4 27  1  0
  5  6  1  0
  6  7  2  0
  6 16  1  0
  7  8  1  0
  8  9  2  0
  9 10  1  0
  9 11  1  0
 11 12  1  0
 11 16  2  0
 12 13  1  0
 13 14  1  0
 14 15  1  0
 17 18  1  0
 18 19  1  0
 18 21  1  0
 19 20  2  0
 21 22  1  0
 21 27  1  0
 22 23  1  0
 23 24  1  0
 24 25  1  0
 25 26  1  0
M  END
