
     RDKit          3D

 23 23  0  0  0  0  0  0  0  0999 V2000
   -1.8060   -3.9770    0.8160 C   0  0  0  0  0  0  0  0  0  0  0  0
   -1.7990   -3.4090   -0.3660 C   0  0  0  0  0  0  0  0  0  0  0  0
   -2.0630   -4.2350   -1.5660 C   0  0  0  0  0  0  0  0  0  0  0  0
   -1.5370   -1.9790   -0.5240 C   0  0  0  0  0  0  0  0  0  0  0  0
   -1.5340   -1.4530   -1.6590 O   0  0  0  0  0  0  0  0  0  0  0  0
   -1.2920   -1.1850    0.5630 O   0  0  0  0  0  0  0  0  0  0  0  0
   -1.0280    0.2010    0.5340 C   0  0  1  0  0  0  0  0  0  0  0  0
   -2.0300    0.9270    1.1860 O   0  0  0  0  0  0  0  0  0  0  0  0
   -1.9030    2.2450    0.8400 C   0  0  0  0  0  0  0  0  0  0  0  0
   -0.5780    2.8520    1.2310 C   0  0  2  0  0  0  0  0  0  0  0  0
   -0.5530    3.1400    2.6990 C   0  0  0  0  0  0  0  0  0  0  0  0
   -0.4610    4.1740    0.5000 C   0  0  0  0  0  0  0  0  0  0  0  0
    0.7820    4.8500    0.8020 N   0  0  0  0  0  0  0  0  0  0  0  0
    0.5860    1.9860    0.7780 C   0  0  0  0  0  0  0  0  0  0  0  0
    0.2670    0.5760    1.2190 C   0  0  2  0  0  0  0  0  0  0  0  0
    1.3620   -0.3950    0.9290 C   0  0  0  0  0  0  0  0  0  0  0  0
    1.7280   -0.5530   -0.4700 C   0  0  0  0  0  0  0  0  0  0  0  0
    1.1280    0.0880   -1.3590 O   0  0  0  0  0  0  0  0  0  0  0  0
    2.7420   -1.4120   -0.8390 O   0  0  0  0  0  0  0  0  0  0  0  0
    3.1070   -1.5760   -2.1760 C   0  0  0  0  0  0  0  0  0  0  0  0
    1.9990   -2.0940   -3.0600 C   0  0  0  0  0  0  0  0  0  0  0  0
    1.4450   -3.7530   -2.4340 P   0  0  0  0  0  0  0  0  0  0  0  0
    2.2800   -4.5130   -1.3560 O   0  0  0  0  0  0  0  0  0  0  0  0
  1  2  2  0
  2  3  1  0
  2  4  1  0
  4  5  2  0
  4  6  1  0
  7  6  1  1
  7  8  1  0
  7 15  1  0
  8  9  1  0
  9 10  1  0
 10 11  1  1
 10 12  1  0
 10 14  1  0
 12 13  1  0
 14 15  1  0
 15 16  1  6
 16 17  1  0
 17 18  2  0
 17 19  1  0
 19 20  1  0
 20 21  1  0
 21 22  1  0
 22 23  2  0
M  END
