
     RDKit          3D

 23 23  0  0  0  0  0  0  0  0999 V2000
    6.4290   -2.6000   -0.1580 C   0  0  0  0  0  0  0  0  0  0  0  0
    5.1800   -2.2380    0.6830 C   0  0  0  0  0  0  0  0  0  0  0  0
    5.5520   -0.9450    1.0870 O   0  0  0  0  0  0  0  0  0  0  0  0
    4.4610    0.1980    0.6800 P   0  0  0  0  0  0  0  0  0  0  0  0
    2.6970    0.0880    0.6860 C   0  0  0  0  0  0  0  0  0  0  0  0
    2.0470   -0.6680   -0.4440 C   0  0  0  0  0  0  0  0  0  0  0  0
    0.9670    0.0470   -1.1630 C   0  0  0  0  0  0  0  0  0  0  0  0
   -0.2460    0.3980   -0.4960 N   0  0  0  0  0  0  0  0  0  0  0  0
   -0.4160    1.7220    0.1330 C   0  0  0  0  0  0  0  0  0  0  0  0
   -1.8550    1.8500    0.5580 C   0  0  0  0  0  0  0  0  0  0  0  0
   -2.8090    1.4270   -0.5490 C   0  0  0  0  0  0  0  0  0  0  0  0
   -2.7670   -0.0680   -0.4860 C   0  0  2  0  0  0  0  0  0  0  0  0
   -3.1060   -0.3550   -1.9110 O   0  0  0  0  0  0  0  0  0  0  0  0
   -3.8220   -0.8030    0.1990 C   0  0  1  0  0  0  0  0  0  0  0  0
   -4.1930   -0.2880    1.6060 C   0  0  0  0  0  0  0  0  0  0  0  0
   -5.0150   -1.3080   -0.5060 C   0  0  0  0  0  0  0  0  0  0  0  0
   -5.9600   -0.3490   -1.1320 C   0  0  0  0  0  0  0  0  0  0  0  0
   -1.3730   -0.5010   -0.4500 C   0  0  0  0  0  0  0  0  0  0  0  0
   -1.0880   -1.7010   -0.3580 O   0  0  0  0  0  0  0  0  0  0  0  0
    5.1740    1.7990    0.6700 O   0  0  0  0  0  0  0  0  0  0  0  0
    4.5170    2.7960   -0.0620 C   0  0  0  0  0  0  0  0  0  0  0  0
    3.4690    2.6130   -0.6820 O   0  0  0  0  0  0  0  0  0  0  0  0
    5.0960    4.0670   -0.1120 O   0  0  0  0  0  0  0  0  0  0  0  0
  1  2  1  0
  2  3  1  0
  3  4  1  0
  4  5  1  0
  4 20  1  0
  5  6  1  0
  6  7  1  0
  7  8  1  0
  8  9  1  0
  8 18  1  0
  9 10  1  0
 10 11  1  0
 11 12  1  0
 12 13  1  6
 12 14  1  0
 12 18  1  0
 14 15  1  1
 14 16  1  0
 16 17  1  0
 18 19  2  0
 20 21  1  0
 21 22  2  0
 21 23  1  0
M  END
