
     RDKit          3D

 23 23  0  0  0  0  0  0  0  0999 V2000
   -6.2670    1.7520   -0.3900 C   0  0  0  0  0  0  0  0  0  0  0  0
   -4.8110    1.2880   -0.0800 C   0  0  0  0  0  0  0  0  0  0  0  0
   -4.6300    0.2080   -0.8380 O   0  0  0  0  0  0  0  0  0  0  0  0
   -3.2570   -0.8270   -0.4650 P   0  0  0  0  0  0  0  0  0  0  0  0
   -2.2700   -0.2700    0.9380 C   0  0  0  0  0  0  0  0  0  0  0  0
   -1.2320    0.7350    0.2800 C   0  0  0  0  0  0  0  0  0  0  0  0
   -0.5120    0.0230   -0.7430 C   0  0  0  0  0  0  0  0  0  0  0  0
   -0.9400   -0.0400   -1.9270 O   0  0  0  0  0  0  0  0  0  0  0  0
    0.7700   -0.6920   -0.5320 C   0  0  0  0  0  0  0  0  0  0  0  0
    1.6540    0.1190    0.3810 C   0  0  1  0  0  0  0  0  0  0  0  0
    3.0490   -0.5140    0.4740 C   0  0  0  0  0  0  0  0  0  0  0  0
    3.8250   -0.0810   -0.7750 C   0  0  2  0  0  0  0  0  0  0  0  0
    5.0580    0.6070   -0.4060 N   0  0  0  0  0  0  0  0  0  0  0  0
    6.1990   -0.1410    0.0800 C   0  0  0  0  0  0  0  0  0  0  0  0
    6.1570   -1.3770    0.2190 O   0  0  0  0  0  0  0  0  0  0  0  0
    7.3790    0.5350    0.4010 O   0  0  0  0  0  0  0  0  0  0  0  0
    8.5060   -0.1910    0.8940 C   0  0  0  0  0  0  0  0  0  0  0  0
    3.0390    0.8540   -1.6120 C   0  0  0  0  0  0  0  0  0  0  0  0
    2.4040    1.9340   -0.7800 C   0  0  0  0  0  0  0  0  0  0  0  0
    1.6210    1.4460    0.2290 O   0  0  0  0  0  0  0  0  0  0  0  0
   -4.0810   -2.4120   -0.2360 O   0  0  0  0  0  0  0  0  0  0  0  0
   -5.2360   -2.0070    0.5250 C   0  0  0  0  0  0  0  0  0  0  0  0
   -6.3950   -2.4820   -0.2860 C   0  0  0  0  0  0  0  0  0  0  0  0
  1  2  1  0
  2  3  1  0
  3  4  1  0
  4  5  1  0
  4 21  1  0
  5  6  1  0
  6  7  1  0
  7  8  2  0
  7  9  1  0
 10  9  1  6
 10 11  1  0
 10 20  1  0
 11 12  1  0
 12 13  1  1
 12 18  1  0
 13 14  1  0
 14 15  2  0
 14 16  1  0
 16 17  1  0
 18 19  1  0
 19 20  1  0
 21 22  1  0
 22 23  1  0
M  END
