
     RDKit          3D

 23 23  0  0  0  0  0  0  0  0999 V2000
   -4.5880    0.9620    2.2300 C   0  0  0  0  0  0  0  0  0  0  0  0
   -4.8440    1.7630    1.0070 C   0  0  0  0  0  0  0  0  0  0  0  0
   -4.9600    1.0440   -0.2780 C   0  0  0  0  0  0  0  0  0  0  0  0
   -3.8070    0.2840   -0.7950 C   0  0  2  0  0  0  0  0  0  0  0  0
   -4.2210   -0.3300   -2.1300 C   0  0  0  0  0  0  0  0  0  0  0  0
   -3.3830   -0.8190    0.1040 C   0  0  0  0  0  0  0  0  0  0  0  0
   -2.3580   -1.7360   -0.5590 C   0  0  0  0  0  0  0  0  0  0  0  0
   -1.1320   -0.9310   -0.9810 C   0  0  2  0  0  0  0  0  0  0  0  0
   -0.8070   -1.2890   -2.4010 C   0  0  0  0  0  0  0  0  0  0  0  0
   -0.0400   -1.3070   -0.1750 O   0  0  0  0  0  0  0  0  0  0  0  0
    1.2270   -0.7850   -0.3430 C   0  0  0  0  0  0  0  0  0  0  0  0
    1.4920    0.0670   -1.2470 O   0  0  0  0  0  0  0  0  0  0  0  0
    2.3270   -1.1650    0.4860 N   0  0  0  0  0  0  0  0  0  0  0  0
    3.6540   -0.5530    0.2330 C   0  0  0  0  0  0  0  0  0  0  0  0
    4.5720   -1.1430    1.2450 C   0  0  0  0  0  0  0  0  0  0  0  0
    5.9870   -0.7830    1.2740 C   0  0  0  0  0  0  0  0  0  0  0  0
    6.2770    0.6560    1.5340 C   0  0  0  0  0  0  0  0  0  0  0  0
    5.7320    1.8840    0.3240 P   0  0  0  0  0  0  0  0  0  0  0  0
    4.5460    2.9930    0.8090 O   0  0  0  0  0  0  0  0  0  0  0  0
    5.6230    1.3120   -1.2780 O   0  0  0  0  0  0  0  0  0  0  0  0
   -1.3910    0.5210   -0.7710 C   0  0  0  0  0  0  0  0  0  0  0  0
   -0.5380    1.3230   -0.3300 O   0  0  0  0  0  0  0  0  0  0  0  0
   -2.6590    1.0680   -1.0730 O   0  0  0  0  0  0  0  0  0  0  0  0
  1  2  1  0
  2  3  1  0
  3  4  1  0
  4  5  1  6
  4  6  1  0
  4 23  1  0
  6  7  1  0
  7  8  1  0
  8  9  1  6
  8 10  1  0
  8 21  1  0
 10 11  1  0
 11 12  2  0
 11 13  1  0
 13 14  1  0
 14 15  1  0
 15 16  1  0
 16 17  1  0
 17 18  1  0
 18 19  1  0
 18 20  1  0
 21 22  2  0
 21 23  1  0
M  END
