
     RDKit          3D

 14 15  0  0  0  0  0  0  0  0999 V2000
   -1.6000    1.1900   -1.1660 C   0  0  0  0  0  0  0  0  0  0  0  0
   -1.5900    0.2120    0.0200 C   0  0  2  0  0  0  0  0  0  0  0  0
   -3.0080   -0.0360    0.3890 C   0  0  0  0  0  0  0  0  0  0  0  0
   -0.8380    0.8820    1.1040 N   0  0  0  0  0  0  0  0  0  0  0  0
    0.6950    1.3030    0.2840 P   0  0  0  0  0  0  0  0  0  0  0  0
    2.4670    1.2580    1.6330 P   0  0  0  0  0  0  0  0  0  0  0  0
    3.2660   -0.1600    0.6620 C   0  0  0  0  0  0  0  0  0  0  0  0
    2.5330   -0.2080   -0.6100 N   0  0  0  0  0  0  0  0  0  0  0  0
    2.7970    0.8760   -1.4140 N   0  0  0  0  0  0  0  0  0  0  0  0
    1.1930   -0.4350   -0.3260 C   0  0  2  0  0  0  0  0  0  0  0  0
    0.2680   -0.7840   -1.2000 O   0  0  0  0  0  0  0  0  0  0  0  0
   -0.9230   -1.0320   -0.4690 C   0  0  2  0  0  0  0  0  0  0  0  0
   -1.8590   -1.7710   -1.2800 N   0  0  0  0  0  0  0  0  0  0  0  0
   -0.6540   -1.8310    0.6540 O   0  0  0  0  0  0  0  0  0  0  0  0
  2  1  1  6
  2  3  1  0
  2  4  1  0
  2 12  1  0
  4  5  1  0
  5  6  1  0
  5 10  1  0
  6  7  1  0
  7  8  1  0
  8  9  1  0
  8 10  1  0
 10 11  1  6
 11 12  1  0
 12 13  1  6
 12 14  1  0
M  END
