
     RDKit          3D

 23 23  0  0  0  0  0  0  0  0999 V2000
   -3.7680    2.8770    1.9550 C   0  0  0  0  0  0  0  0  0  0  0  0
   -2.9600    2.1530    0.8590 C   0  0  0  0  0  0  0  0  0  0  0  0
   -3.5920    0.9500    0.6630 O   0  0  0  0  0  0  0  0  0  0  0  0
   -2.8860   -0.1110   -0.4690 P   0  0  0  0  0  0  0  0  0  0  0  0
   -2.8950   -1.6360    0.2800 O   0  0  0  0  0  0  0  0  0  0  0  0
   -3.4630   -2.6320   -0.5420 C   0  0  0  0  0  0  0  0  0  0  0  0
   -4.5730   -3.1640    0.3950 C   0  0  0  0  0  0  0  0  0  0  0  0
   -1.3040    0.3600   -1.2110 C   0  0  1  0  0  0  0  0  0  0  0  0
   -1.1990   -0.4450   -2.3480 O   0  0  0  0  0  0  0  0  0  0  0  0
   -1.3470    1.6570   -1.6650 O   0  0  0  0  0  0  0  0  0  0  0  0
   -0.1540    0.1270   -0.2010 C   0  0  0  0  0  0  0  0  0  0  0  0
    1.0860   -0.1900   -0.6790 N   0  0  0  0  0  0  0  0  0  0  0  0
    1.2710   -1.5660   -1.1110 C   0  0  0  0  0  0  0  0  0  0  0  0
    1.2340   -2.4920    0.1260 C   0  0  0  0  0  0  0  0  0  0  0  0
    1.9730   -1.8800    1.3000 C   0  0  0  0  0  0  0  0  0  0  0  0
    3.3600   -1.4220    1.0030 C   0  0  0  0  0  0  0  0  0  0  0  0
    3.6160    0.0410    1.2880 C   0  0  0  0  0  0  0  0  0  0  0  0
    2.5360    0.9440    0.8390 C   0  0  0  0  0  0  0  0  0  0  0  0
    2.2430    0.5750   -0.6220 C   0  0  2  0  0  0  0  0  0  0  0  0
    2.0420    1.8840   -1.4100 C   0  0  0  0  0  0  0  0  0  0  0  0
    3.3030    2.5590   -1.4180 C   0  0  0  0  0  0  0  0  0  0  0  0
    4.2050    1.8130   -2.0380 O   0  0  0  0  0  0  0  0  0  0  0  0
    3.6090    3.7630   -0.8960 O   0  0  0  0  0  0  0  0  0  0  0  0
  1  2  1  0
  2  3  1  0
  3  4  1  0
  4  5  1  0
  4  8  1  0
  5  6  1  0
  6  7  1  0
  8  9  1  6
  8 10  1  0
  8 11  1  0
 11 12  1  0
 12 13  1  0
 12 19  1  0
 13 14  1  0
 14 15  1  0
 15 16  1  0
 16 17  1  0
 17 18  1  0
 18 19  1  0
 19 20  1  6
 20 21  1  0
 21 22  2  0
 21 23  1  0
M  END
