
     RDKit          3D

 23 24  0  0  0  0  0  0  0  0999 V2000
   -6.4250   -2.2550    0.9490 C   0  0  0  0  0  0  0  0  0  0  0  0
   -5.2170   -1.6980    0.2710 C   0  0  0  0  0  0  0  0  0  0  0  0
   -5.5230   -0.6990   -0.6480 O   0  0  0  0  0  0  0  0  0  0  0  0
   -4.1360   -0.0620   -1.4270 P   0  0  0  0  0  0  0  0  0  0  0  0
   -4.0700    1.6410   -1.4510 O   0  0  0  0  0  0  0  0  0  0  0  0
   -5.2670    2.1200   -0.8740 C   0  0  0  0  0  0  0  0  0  0  0  0
   -5.2560    3.6350   -0.8700 C   0  0  0  0  0  0  0  0  0  0  0  0
   -2.6650   -0.8720   -1.0520 O   0  0  0  0  0  0  0  0  0  0  0  0
   -1.4960   -0.2930   -0.6060 C   0  0  0  0  0  0  0  0  0  0  0  0
   -1.3060    1.0400   -0.3850 C   0  0  0  0  0  0  0  0  0  0  0  0
   -0.0140    1.1980    0.0500 C   0  0  0  0  0  0  0  0  0  0  0  0
    0.5370   -0.0660    0.0770 C   0  0  0  0  0  0  0  0  0  0  0  0
    1.9040   -0.3910    0.4800 C   0  0  0  0  0  0  0  0  0  0  0  0
    2.8410    0.4840    0.8860 C   0  0  0  0  0  0  0  0  0  0  0  0
    4.1060   -0.1930    1.2140 C   0  0  2  0  0  0  0  0  0  0  0  0
    5.1970    0.1400    0.3550 N   0  0  0  0  0  0  0  0  0  0  0  0
    4.9230   -0.2630   -0.9980 C   0  0  0  0  0  0  0  0  0  0  0  0
    6.1480    0.1400   -1.8260 C   0  0  2  0  0  0  0  0  0  0  0  0
    7.2330   -0.5470   -1.2730 O   0  0  0  0  0  0  0  0  0  0  0  0
    6.3190    1.5130   -1.6890 O   0  0  0  0  0  0  0  0  0  0  0  0
    3.7640   -1.6570    1.2420 C   0  0  0  0  0  0  0  0  0  0  0  0
    2.4600   -1.7670    0.4950 C   0  0  0  0  0  0  0  0  0  0  0  0
   -0.3620   -0.9190   -0.3140 O   0  0  0  0  0  0  0  0  0  0  0  0
  1  2  1  0
  2  3  1  0
  3  4  1  0
  4  5  1  0
  4  8  1  0
  5  6  1  0
  6  7  1  0
  8  9  1  0
  9 10  2  0
  9 23  1  0
 10 11  1  0
 11 12  2  0
 12 13  1  0
 12 23  1  0
 13 14  2  0
 13 22  1  0
 14 15  1  0
 15 16  1  6
 15 21  1  0
 16 17  1  0
 17 18  1  0
 18 19  1  1
 18 20  1  0
 21 22  1  0
M  END
