
     RDKit          3D

 23 23  0  0  0  0  0  0  0  0999 V2000
   -5.7310   -0.1040   -1.8340 C   0  0  0  0  0  0  0  0  0  0  0  0
   -4.7780    0.2290   -0.6740 C   0  0  1  0  0  0  0  0  0  0  0  0
   -5.0210    1.6880   -0.3610 C   0  0  0  0  0  0  0  0  0  0  0  0
   -5.1920   -0.5880    0.5070 C   0  0  0  0  0  0  0  0  0  0  0  0
   -3.4980   -0.0290   -1.1490 O   0  0  0  0  0  0  0  0  0  0  0  0
   -2.4110    0.1930   -0.2900 C   0  0  0  0  0  0  0  0  0  0  0  0
   -2.6950    0.6110    0.8500 O   0  0  0  0  0  0  0  0  0  0  0  0
   -1.0230   -0.0560   -0.7160 C   0  0  0  0  0  0  0  0  0  0  0  0
   -0.0760    0.1160    0.4090 C   0  0  1  0  0  0  0  0  0  0  0  0
   -0.3080   -0.8270    1.5270 C   0  0  0  0  0  0  0  0  0  0  0  0
   -0.0260   -2.2710    1.1670 C   0  0  0  0  0  0  0  0  0  0  0  0
    1.4530   -2.5090    1.0560 C   0  0  0  0  0  0  0  0  0  0  0  0
    2.1530   -1.2960    1.6120 C   0  0  0  0  0  0  0  0  0  0  0  0
    2.8130   -1.5000    2.5940 O   0  0  0  0  0  0  0  0  0  0  0  0
    2.1490    0.1000    1.1310 C   0  0  1  0  0  0  0  0  0  0  0  0
    3.5570    0.6070    0.8840 C   0  0  0  0  0  0  0  0  0  0  0  0
    4.2800   -0.2210   -0.1540 C   0  0  0  0  0  0  0  0  0  0  0  0
    5.9750    0.5020   -0.3560 P   0  0  0  0  0  0  0  0  0  0  0  0
    6.3370    1.6620    0.8760 O   0  0  0  0  0  0  0  0  0  0  0  0
    6.1010    1.2020   -1.9480 O   0  0  0  0  0  0  0  0  0  0  0  0
    6.0640    2.5710   -2.1080 C   0  0  0  0  0  0  0  0  0  0  0  0
    5.9370    3.2780   -1.0670 O   0  0  0  0  0  0  0  0  0  0  0  0
    1.3120    0.1780   -0.0240 N   0  0  0  0  0  0  0  0  0  0  0  0
  2  1  1  6
  2  3  1  0
  2  4  1  0
  2  5  1  0
  5  6  1  0
  6  7  2  0
  6  8  1  0
  9  8  1  6
  9 10  1  0
  9 23  1  0
 10 11  1  0
 11 12  1  0
 12 13  1  0
 13 14  2  0
 13 15  1  0
 15 16  1  6
 15 23  1  0
 16 17  1  0
 17 18  1  0
 18 19  1  0
 18 20  1  0
 20 21  1  0
 21 22  2  0
M  END
