
     RDKit          3D

 25 27  0  0  0  0  0  0  0  0999 V2000
   -7.3820   -0.6520    1.0910 N   0  0  0  0  0  0  0  0  0  0  0  0
   -6.7610    0.6330    0.8130 C   0  0  0  0  0  0  0  0  0  0  0  0
   -5.3220    0.4820    0.4900 C   0  0  0  0  0  0  0  0  0  0  0  0
   -4.8980    0.4200   -0.8180 C   0  0  0  0  0  0  0  0  0  0  0  0
   -3.5330    0.2790   -1.0550 C   0  0  0  0  0  0  0  0  0  0  0  0
   -2.5960    0.1980   -0.0500 C   0  0  0  0  0  0  0  0  0  0  0  0
   -1.1850    0.0490   -0.4610 C   0  0  0  0  0  0  0  0  0  0  0  0
   -0.2120   -0.0340    0.4080 C   0  0  0  0  0  0  0  0  0  0  0  0
    1.2140   -0.1840    0.0610 C   0  0  0  0  0  0  0  0  0  0  0  0
    2.0800   -0.2800    1.0220 C   0  0  0  0  0  0  0  0  0  0  0  0
    3.5090   -0.4250    0.8400 C   0  0  0  0  0  0  0  0  0  0  0  0
    4.1240   -1.4410    1.5500 C   0  0  0  0  0  0  0  0  0  0  0  0
    5.4820   -1.5680    1.4090 C   0  0  0  0  0  0  0  0  0  0  0  0
    6.2350   -0.7310    0.5990 C   0  0  0  0  0  0  0  0  0  0  0  0
    5.6210    0.2730   -0.1020 C   0  0  0  0  0  0  0  0  0  0  0  0
    6.2880    1.1810   -0.9720 N   0  0  0  0  0  0  0  0  0  0  0  0
    7.6150    1.0120   -1.4120 C   0  0  0  0  0  0  0  0  0  0  0  0
    8.3350    0.0530   -1.0890 O   0  0  0  0  0  0  0  0  0  0  0  0
    4.2320    0.4120    0.0350 C   0  0  0  0  0  0  0  0  0  0  0  0
    1.5360   -0.2410   -1.3160 N   0  0  0  0  0  0  0  0  0  0  0  0
    0.4940   -0.1510   -2.2680 C   0  0  0  0  0  0  0  0  0  0  0  0
    0.7950   -0.2050   -3.5030 O   0  0  0  0  0  0  0  0  0  0  0  0
   -0.9130    0.0010   -1.9110 C   0  0  0  0  0  0  0  0  0  0  0  0
   -3.0190    0.2590    1.2410 C   0  0  0  0  0  0  0  0  0  0  0  0
   -4.3900    0.4020    1.4990 C   0  0  0  0  0  0  0  0  0  0  0  0
  1  2  1  0
  2  3  1  0
  3  4  2  0
  3 25  1  0
  4  5  1  0
  5  6  2  0
  6  7  1  0
  6 24  1  0
  7  8  2  0
  7 23  1  0
  8  9  1  0
  9 10  2  3
  9 20  1  0
 10 11  1  0
 11 12  2  0
 11 19  1  0
 12 13  1  0
 13 14  2  0
 14 15  1  0
 15 16  1  0
 15 19  2  0
 16 17  1  0
 17 18  2  0
 20 21  1  0
 21 22  2  0
 21 23  1  0
 24 25  2  0
M  CHG  1   1   1
M  END
