
     RDKit          3D

 25 27  0  0  0  0  0  0  0  0999 V2000
   -6.2800    1.2420    0.7540 C   0  0  0  0  0  0  0  0  0  0  0  0
   -4.9540    0.6180    0.4980 C   0  0  0  0  0  0  0  0  0  0  0  0
   -4.9560   -0.6450   -0.0220 C   0  0  0  0  0  0  0  0  0  0  0  0
   -3.7280   -1.2470   -0.2690 C   0  0  0  0  0  0  0  0  0  0  0  0
   -3.7780   -2.4930   -0.7860 N   0  0  0  0  0  0  0  0  0  0  0  0
   -2.6440   -3.1320   -1.0530 C   0  0  0  0  0  0  0  0  0  0  0  0
   -2.6700   -4.3150   -1.5450 O   0  0  0  0  0  0  0  0  0  0  0  0
   -1.4530   -2.4940   -0.7890 C   0  0  0  0  0  0  0  0  0  0  0  0
   -0.4330   -3.1640   -1.0660 O   0  0  0  0  0  0  0  0  0  0  0  0
   -1.3440   -1.2660   -0.2800 N   0  0  0  0  0  0  0  0  0  0  0  0
   -0.1480   -0.5950   -0.0350 N   0  0  0  0  0  0  0  0  0  0  0  0
    1.1620   -0.9780   -0.3310 C   0  0  0  0  0  0  0  0  0  0  0  0
    1.4130   -2.0330   -0.8910 O   0  0  0  0  0  0  0  0  0  0  0  0
    2.3410   -0.0880    0.0350 C   0  0  0  0  0  0  0  0  0  0  0  0
    3.5710   -0.6930   -0.3690 N   0  0  0  0  0  0  0  0  0  0  0  0
    4.7820    0.0010   -0.1060 C   0  0  0  0  0  0  0  0  0  0  0  0
    6.0650   -0.3960   -0.4070 C   0  0  0  0  0  0  0  0  0  0  0  0
    6.9490    0.5700    0.0210 C   0  0  0  0  0  0  0  0  0  0  0  0
    8.3550    0.5950   -0.0730 N   0  0  0  0  0  0  0  0  0  0  0  0
    6.1890    1.5450    0.5780 N   0  0  0  0  0  0  0  0  0  0  0  0
    4.9360    1.2060    0.5000 N   0  0  0  0  0  0  0  0  0  0  0  0
   -2.5290   -0.6160   -0.0080 C   0  0  0  0  0  0  0  0  0  0  0  0
   -2.5230    0.6460    0.5110 C   0  0  0  0  0  0  0  0  0  0  0  0
   -3.7710    1.2520    0.7600 C   0  0  0  0  0  0  0  0  0  0  0  0
   -3.7920    2.6120    1.3200 C   0  0  0  0  0  0  0  0  0  0  0  0
  1  2  1  0
  2  3  2  0
  2 24  1  0
  3  4  1  0
  4  5  1  0
  4 22  2  0
  5  6  1  0
  6  7  2  0
  6  8  1  0
  8  9  2  0
  8 10  1  0
 10 11  1  0
 10 22  1  0
 11 12  1  0
 12 13  2  0
 12 14  1  0
 14 15  1  0
 15 16  1  0
 16 17  2  0
 16 21  1  0
 17 18  1  0
 18 19  1  0
 18 20  2  0
 20 21  1  0
 22 23  1  0
 23 24  2  0
 24 25  1  0
M  CHG  1  20   1
M  END
