
     RDKit          3D

 25 27  0  0  0  0  0  0  0  0999 V2000
   -3.4990    1.7520   -1.9270 C   0  0  0  0  0  0  0  0  0  0  0  0
   -3.2220    1.0830   -0.6220 C   0  0  0  0  0  0  0  0  0  0  0  0
   -2.0150    1.1310   -0.0390 N   0  0  0  0  0  0  0  0  0  0  0  0
   -1.7040    0.5520    1.1290 C   0  0  0  0  0  0  0  0  0  0  0  0
   -0.4560    0.6060    1.7790 N   0  0  0  0  0  0  0  0  0  0  0  0
    0.8160    0.5140    1.2800 N   0  0  0  0  0  0  0  0  0  0  0  0
    1.4250   -0.5900    0.6650 C   0  0  0  0  0  0  0  0  0  0  0  0
    0.6540   -1.6290    0.5450 O   0  0  0  0  0  0  0  0  0  0  0  0
    2.7630   -0.7280    0.1720 C   0  0  0  0  0  0  0  0  0  0  0  0
    3.2110   -1.9980   -0.2150 C   0  0  0  0  0  0  0  0  0  0  0  0
    4.4770   -2.1840   -0.6190 N   0  0  0  0  0  0  0  0  0  0  0  0
    5.3710   -1.1570   -0.6730 C   0  0  0  0  0  0  0  0  0  0  0  0
    4.9790    0.0550   -0.3190 N   0  0  0  0  0  0  0  0  0  0  0  0
    3.7080    0.2620    0.0930 C   0  0  0  0  0  0  0  0  0  0  0  0
    3.3930    1.4340    0.4120 O   0  0  0  0  0  0  0  0  0  0  0  0
    5.9290    1.1460   -0.3720 C   0  0  0  0  0  0  0  0  0  0  0  0
    7.1560    0.9110   -0.7690 C   0  0  0  0  0  0  0  0  0  0  0  0
    7.5860   -0.3300   -1.1420 O   0  0  0  0  0  0  0  0  0  0  0  0
    6.7630   -1.4770   -1.0940 C   0  0  0  0  0  0  0  0  0  0  0  0
   -2.7600   -0.1410    1.7330 C   0  0  0  0  0  0  0  0  0  0  0  0
   -2.4900   -0.7930    2.9590 N   0  0  0  0  0  0  0  0  0  0  0  0
   -4.0160   -0.2190    1.1800 C   0  0  0  0  0  0  0  0  0  0  0  0
   -4.2820    0.3960   -0.0210 C   0  0  0  0  0  0  0  0  0  0  0  0
   -5.6200    0.3630   -0.6550 C   0  0  0  0  0  0  0  0  0  0  0  0
   -6.5520   -0.3530    0.1630 N   0  0  0  0  0  0  0  0  0  0  0  0
  1  2  1  0
  2  3  2  0
  2 23  1  0
  3  4  1  0
  4  5  1  0
  4 20  2  0
  5  6  1  0
  6  7  1  0
  7  8  2  0
  7  9  1  0
  9 10  2  0
  9 14  1  0
 10 11  1  0
 11 12  2  0
 12 13  1  0
 12 19  1  0
 13 14  1  0
 13 16  1  0
 14 15  2  0
 16 17  2  0
 17 18  1  0
 18 19  1  0
 20 21  1  0
 20 22  1  0
 22 23  2  0
 23 24  1  0
 24 25  1  0
M  CHG  1  25   1
M  END
