
     RDKit          3D

 25 27  0  0  0  0  0  0  0  0999 V2000
   -6.5370   -2.1360    0.1900 C   0  0  0  0  0  0  0  0  0  0  0  0
   -5.2610   -1.9310    0.4010 C   0  0  0  0  0  0  0  0  0  0  0  0
   -4.4120   -2.8210    0.9530 N   0  0  0  0  0  0  0  0  0  0  0  0
   -3.2440   -2.2950    1.0110 N   0  0  0  0  0  0  0  0  0  0  0  0
   -3.2520   -1.0140    0.4990 C   0  0  0  0  0  0  0  0  0  0  0  0
   -2.0310   -0.2300    0.4390 C   0  0  0  0  0  0  0  0  0  0  0  0
   -1.9960    0.9800    0.2930 O   0  0  0  0  0  0  0  0  0  0  0  0
   -0.7460   -0.8800    0.5520 N   0  0  0  0  0  0  0  0  0  0  0  0
    0.4460   -0.0800    0.4740 C   0  0  0  0  0  0  0  0  0  0  0  0
    0.3990    1.2460    0.3080 N   0  0  0  0  0  0  0  0  0  0  0  0
    1.4820    2.0220    0.2310 N   0  0  0  0  0  0  0  0  0  0  0  0
    2.7350    1.4940    0.3200 C   0  0  0  0  0  0  0  0  0  0  0  0
    2.8040    0.1300    0.4910 C   0  0  0  0  0  0  0  0  0  0  0  0
    1.6780   -0.6620    0.5690 C   0  0  0  0  0  0  0  0  0  0  0  0
    1.8170   -2.0580    0.7450 N   0  0  0  0  0  0  0  0  0  0  0  0
    4.1300   -0.5110    0.5960 C   0  0  0  0  0  0  0  0  0  0  0  0
    5.1750    0.4280    0.0490 C   0  0  2  0  0  0  0  0  0  0  0  0
    5.1740    0.5030   -1.4410 C   0  0  0  0  0  0  0  0  0  0  0  0
    6.5380   -0.1140    0.4800 C   0  0  0  0  0  0  0  0  0  0  0  0
    5.0710    1.7010    0.6010 O   0  0  0  0  0  0  0  0  0  0  0  0
    3.9290    2.3620    0.2340 C   0  0  0  0  0  0  0  0  0  0  0  0
   -4.5200   -0.7640    0.1050 C   0  0  0  0  0  0  0  0  0  0  0  0
   -5.0620    0.2810   -0.4650 C   0  0  0  0  0  0  0  0  0  0  0  0
   -4.4390    1.5570   -0.8380 C   0  0  0  0  0  0  0  0  0  0  0  0
   -5.4770    2.3380   -1.6160 N   0  0  0  0  0  0  0  0  0  0  0  0
  1  2  2  0
  2  3  1  0
  2 22  1  0
  3  4  1  0
  4  5  2  0
  5  6  1  0
  5 22  1  0
  6  7  2  0
  6  8  1  0
  8  9  1  0
  9 10  2  0
  9 14  1  0
 10 11  1  0
 11 12  2  0
 12 13  1  0
 12 21  1  0
 13 14  2  0
 13 16  1  0
 14 15  1  0
 16 17  1  0
 17 18  1  6
 17 19  1  0
 17 20  1  0
 20 21  1  0
 22 23  2  3
 23 24  1  0
 24 25  1  0
M  CHG  1  25   1
M  END
