
     RDKit          3D

 25 27  0  0  0  0  0  0  0  0999 V2000
   -5.5060    3.8890   -1.1230 C   0  0  0  0  0  0  0  0  0  0  0  0
   -4.8490    3.0680   -0.0200 C   0  0  0  0  0  0  0  0  0  0  0  0
   -3.4750    2.7110   -0.3550 C   0  0  0  0  0  0  0  0  0  0  0  0
   -3.0570    1.4630   -0.4890 C   0  0  0  0  0  0  0  0  0  0  0  0
   -3.9380    0.3350   -0.3140 C   0  0  0  0  0  0  0  0  0  0  0  0
   -3.4450   -0.8940   -0.0400 C   0  0  0  0  0  0  0  0  0  0  0  0
   -4.4290   -1.9230    0.1210 C   0  0  0  0  0  0  0  0  0  0  0  0
   -5.6790   -1.5840   -0.0000 O   0  0  0  0  0  0  0  0  0  0  0  0
   -4.2860   -3.2920    0.3990 N   0  0  0  0  0  0  0  0  0  0  0  0
   -5.4860   -4.1540    0.5200 C   0  0  0  0  0  0  0  0  0  0  0  0
   -1.9980   -1.0550   -0.0430 C   0  0  0  0  0  0  0  0  0  0  0  0
   -1.2140   -2.1020    0.2870 N   0  0  0  0  0  0  0  0  0  0  0  0
    0.1070   -1.7570    0.2200 C   0  0  0  0  0  0  0  0  0  0  0  0
    0.2000   -0.4550   -0.1630 C   0  0  0  0  0  0  0  0  0  0  0  0
    1.3680    0.3780   -0.3770 C   0  0  0  0  0  0  0  0  0  0  0  0
    1.2350    1.5650   -0.7320 O   0  0  0  0  0  0  0  0  0  0  0  0
    2.7110   -0.1800   -0.1730 C   0  0  0  0  0  0  0  0  0  0  0  0
    3.7560    0.7860   -0.4300 N   0  0  0  0  0  0  0  0  0  0  0  0
    4.8910    0.4340    0.3980 C   0  0  2  0  0  0  0  0  0  0  0  0
    6.1840    1.0350   -0.1100 C   0  0  0  0  0  0  0  0  0  0  0  0
    7.2200    0.2330    0.6580 C   0  0  0  0  0  0  0  0  0  0  0  0
    6.6540   -1.1560    0.6480 C   0  0  0  0  0  0  0  0  0  0  0  0
    5.1810   -1.0500    0.3820 C   0  0  0  0  0  0  0  0  0  0  0  0
   -1.1400   -0.0230   -0.3280 C   0  0  0  0  0  0  0  0  0  0  0  0
   -1.6340    1.2770   -0.8050 C   0  0  0  0  0  0  0  0  0  0  0  0
  1  2  1  0
  2  3  1  0
  3  4  2  3
  4  5  1  0
  4 25  1  0
  5  6  2  0
  6  7  1  0
  6 11  1  0
  7  8  2  0
  7  9  1  0
  9 10  1  0
 11 12  1  0
 11 24  2  0
 12 13  1  0
 13 14  2  0
 14 15  1  0
 14 24  1  0
 15 16  2  0
 15 17  1  0
 17 18  1  0
 19 18  1  6
 19 20  1  0
 19 23  1  0
 20 21  1  0
 21 22  1  0
 22 23  1  0
 24 25  1  0
M  CHG  1  18   1
M  END
