
     RDKit          3D

 25 27  0  0  0  0  0  0  0  0999 V2000
    6.8230    0.1720    1.7970 C   0  0  0  0  0  0  0  0  0  0  0  0
    6.3080   -1.1200    1.4380 N   0  0  0  0  0  0  0  0  0  0  0  0
    4.9170   -1.2850    1.7270 C   0  0  0  0  0  0  0  0  0  0  0  0
    4.0420   -0.5900    0.7460 C   0  0  0  0  0  0  0  0  0  0  0  0
    4.5760    0.1530   -0.2670 C   0  0  0  0  0  0  0  0  0  0  0  0
    3.7290    0.7690   -1.1420 C   0  0  0  0  0  0  0  0  0  0  0  0
    2.3660    0.6540   -1.0190 C   0  0  0  0  0  0  0  0  0  0  0  0
    1.8370   -0.0950    0.0040 C   0  0  0  0  0  0  0  0  0  0  0  0
    2.7000   -0.7280    0.9040 C   0  0  0  0  0  0  0  0  0  0  0  0
    0.4330   -0.2540    0.2010 C   0  0  1  0  0  0  0  0  0  0  0  0
    0.0280    0.1670    1.4970 O   0  0  0  0  0  0  0  0  0  0  0  0
   -0.4460    0.4150   -0.8100 C   0  0  0  0  0  0  0  0  0  0  0  0
   -1.8660    0.1170   -0.5470 C   0  0  0  0  0  0  0  0  0  0  0  0
   -2.0540   -0.6010    0.4910 O   0  0  0  0  0  0  0  0  0  0  0  0
   -3.0050    0.4880   -1.2400 N   0  0  0  0  0  0  0  0  0  0  0  0
   -4.3100    0.0890   -0.7810 C   0  0  0  0  0  0  0  0  0  0  0  0
   -5.2840    0.0280   -1.7800 C   0  0  0  0  0  0  0  0  0  0  0  0
   -6.5770   -0.3150   -1.4680 C   0  0  0  0  0  0  0  0  0  0  0  0
   -6.9340   -0.6050   -0.1560 C   0  0  0  0  0  0  0  0  0  0  0  0
   -5.9910   -0.5490    0.8340 C   0  0  0  0  0  0  0  0  0  0  0  0
   -6.3820   -0.8600    2.2230 C   0  0  0  0  0  0  0  0  0  0  0  0
   -4.6810   -0.1960    0.4790 C   0  0  0  0  0  0  0  0  0  0  0  0
    0.0370    1.1230   -1.7760 C   0  0  0  0  0  0  0  0  0  0  0  0
   -0.8330    1.7950   -2.7830 C   0  0  0  0  0  0  0  0  0  0  0  0
    1.4660    1.2690   -1.9170 N   0  0  0  0  0  0  0  0  0  0  0  0
  1  2  1  0
  2  3  1  0
  3  4  1  0
  4  5  2  0
  4  9  1  0
  5  6  1  0
  6  7  2  0
  7  8  1  0
  7 25  1  0
  8  9  2  0
  8 10  1  0
 10 11  1  1
 10 12  1  0
 12 13  1  0
 12 23  2  0
 13 14  2  0
 13 15  1  0
 15 16  1  0
 16 17  2  0
 16 22  1  0
 17 18  1  0
 18 19  2  0
 19 20  1  0
 20 21  1  0
 20 22  2  0
 23 24  1  0
 23 25  1  0
M  CHG  1   2   1
M  END
