
     RDKit          3D

 25 28  0  0  0  0  0  0  0  0999 V2000
   -1.6910    1.1110    0.4950 O   0  0  0  0  0  0  0  0  0  0  0  0
   -1.5710   -0.1010    0.3350 C   0  0  0  0  0  0  0  0  0  0  0  0
   -0.3350   -0.6630    0.0320 N   0  0  0  0  0  0  0  0  0  0  0  0
    0.9120   -0.0250   -0.1390 C   0  0  0  0  0  0  0  0  0  0  0  0
    1.0820    1.3280   -0.0200 C   0  0  0  0  0  0  0  0  0  0  0  0
    2.3150    1.9570   -0.1900 C   0  0  0  0  0  0  0  0  0  0  0  0
    3.4240    1.2100   -0.4900 C   0  0  0  0  0  0  0  0  0  0  0  0
    4.7480    1.8640   -0.6750 C   0  0  0  0  0  0  0  0  0  0  0  0
    5.4410    1.9280    0.5800 N   0  0  0  0  0  0  0  0  0  0  0  0
    6.2460    0.7760    0.8660 C   0  0  2  0  0  0  0  0  0  0  0  0
    7.7690    1.0360    0.7900 C   0  0  0  0  0  0  0  0  0  0  0  0
    7.0910    0.1160   -0.1360 C   0  0  0  0  0  0  0  0  0  0  0  0
    3.2530   -0.1450   -0.6090 C   0  0  0  0  0  0  0  0  0  0  0  0
    2.0490   -0.7680   -0.4440 C   0  0  0  0  0  0  0  0  0  0  0  0
    1.9140   -2.1430   -0.5720 O   0  0  0  0  0  0  0  0  0  0  0  0
   -2.7730   -0.8900    0.4800 N   0  0  0  0  0  0  0  0  0  0  0  0
   -4.0270   -0.2430    0.7970 C   0  0  2  0  0  0  0  0  0  0  0  0
   -4.5420   -0.6630    2.1630 C   0  0  0  0  0  0  0  0  0  0  0  0
   -5.7580   -1.5100    1.8770 C   0  0  0  0  0  0  0  0  0  0  0  0
   -6.0850   -1.2590    0.4660 C   0  0  0  0  0  0  0  0  0  0  0  0
   -7.2250   -1.6620   -0.2400 C   0  0  0  0  0  0  0  0  0  0  0  0
   -7.3640   -1.3370   -1.5630 C   0  0  0  0  0  0  0  0  0  0  0  0
   -6.3930   -0.6210   -2.1920 C   0  0  0  0  0  0  0  0  0  0  0  0
   -5.2550   -0.2200   -1.4820 C   0  0  0  0  0  0  0  0  0  0  0  0
   -5.0940   -0.5340   -0.1560 C   0  0  0  0  0  0  0  0  0  0  0  0
  1  2  2  0
  2  3  1  0
  2 16  1  0
  3  4  1  0
  4  5  2  0
  4 14  1  0
  5  6  1  0
  6  7  2  0
  7  8  1  0
  7 13  1  0
  8  9  1  0
 10  9  1  6
 10 11  1  0
 10 12  1  0
 11 12  1  0
 13 14  2  0
 14 15  1  0
 17 16  1  6
 17 18  1  0
 17 25  1  0
 18 19  1  0
 19 20  1  0
 20 21  2  0
 20 25  1  0
 21 22  1  0
 22 23  2  0
 23 24  1  0
 24 25  2  0
M  CHG  1   9   1
M  END
