
     RDKit          3D

 25 27  0  0  0  0  0  0  0  0999 V2000
    3.3080   -1.4850    2.0700 C   0  0  0  0  0  0  0  0  0  0  0  0
    3.2590   -0.8300    0.7520 N   0  0  0  0  0  0  0  0  0  0  0  0
    1.8860   -0.3370    0.5580 C   0  0  0  0  0  0  0  0  0  0  0  0
    1.6820    0.6290   -0.3370 C   0  0  0  0  0  0  0  0  0  0  0  0
    2.9220    1.1060   -1.0880 C   0  0  0  0  0  0  0  0  0  0  0  0
    2.6020    0.7210   -2.5500 C   0  0  0  0  0  0  0  0  0  0  0  0
    1.5170    1.6270   -2.9730 C   0  0  0  0  0  0  0  0  0  0  0  0
    0.4790    1.8190   -1.9710 C   0  0  0  0  0  0  0  0  0  0  0  0
    0.4790    1.3760   -0.6920 C   0  0  0  0  0  0  0  0  0  0  0  0
   -0.6760    1.7390    0.1260 C   0  0  0  0  0  0  0  0  0  0  0  0
   -0.9370    3.0480    0.0620 O   0  0  0  0  0  0  0  0  0  0  0  0
   -1.5640    1.0340    0.9580 N   0  0  0  0  0  0  0  0  0  0  0  0
   -2.7420    0.2500    0.6900 C   0  0  0  0  0  0  0  0  0  0  0  0
   -2.9770   -0.4550   -0.4690 C   0  0  0  0  0  0  0  0  0  0  0  0
   -4.2310   -1.0060   -0.3070 N   0  0  0  0  0  0  0  0  0  0  0  0
   -4.7340   -0.6930    0.8210 N   0  0  0  0  0  0  0  0  0  0  0  0
   -3.9010    0.0700    1.5010 C   0  0  0  0  0  0  0  0  0  0  0  0
   -4.0870    0.6660    2.8760 C   0  0  0  0  0  0  0  0  0  0  0  0
   -2.1200   -0.6460   -1.6430 C   0  0  0  0  0  0  0  0  0  0  0  0
   -2.4630   -0.1300   -2.7550 O   0  0  0  0  0  0  0  0  0  0  0  0
   -0.8830   -1.4010   -1.6220 N   0  0  0  0  0  0  0  0  0  0  0  0
   -0.4370   -2.2030   -0.5630 N   0  0  0  0  0  0  0  0  0  0  0  0
   -0.1800   -1.8830    0.8000 C   0  0  0  0  0  0  0  0  0  0  0  0
   -0.9750   -2.4540    1.6600 O   0  0  0  0  0  0  0  0  0  0  0  0
    0.8600   -1.0040    1.3010 N   0  0  0  0  0  0  0  0  0  0  0  0
  1  2  1  0
  2  3  1  0
  3  4  2  0
  3 25  1  0
  4  5  1  0
  4  9  1  0
  5  6  1  0
  6  7  1  0
  7  8  1  0
  8  9  2  0
  9 10  1  0
 10 11  2  0
 10 12  1  0
 12 13  1  0
 13 14  1  0
 13 17  2  0
 14 15  2  0
 14 19  1  0
 15 16  1  0
 16 17  1  0
 17 18  1  0
 19 20  2  0
 19 21  1  0
 21 22  1  0
 22 23  1  0
 23 24  2  0
 23 25  1  0
M  CHG  1   2   1
M  END
