
     RDKit          3D

 25 27  0  0  0  0  0  0  0  0999 V2000
    8.0220    1.8090   -0.1780 C   0  0  0  0  0  0  0  0  0  0  0  0
    6.7570    1.0950    0.1280 C   0  0  0  0  0  0  0  0  0  0  0  0
    6.2230    0.2050   -0.7670 C   0  0  0  0  0  0  0  0  0  0  0  0
    5.0270   -0.4590   -0.4580 C   0  0  0  0  0  0  0  0  0  0  0  0
    4.3460   -0.2680    0.7090 C   0  0  0  0  0  0  0  0  0  0  0  0
    3.1350   -0.8730    1.1020 N   0  0  0  0  0  0  0  0  0  0  0  0
    2.3050   -1.6100    0.2180 C   0  0  0  0  0  0  0  0  0  0  0  0
    2.5820   -1.7690   -0.9770 O   0  0  0  0  0  0  0  0  0  0  0  0
    1.0910   -2.2120    0.6750 N   0  0  0  0  0  0  0  0  0  0  0  0
    0.2090   -2.9500   -0.1400 C   0  0  0  0  0  0  0  0  0  0  0  0
   -0.4480   -2.2510   -1.2800 C   0  0  2  0  0  0  0  0  0  0  0  0
    0.4000   -1.7370   -2.2230 O   0  0  0  0  0  0  0  0  0  0  0  0
   -1.4130   -1.2040   -0.7940 C   0  0  0  0  0  0  0  0  0  0  0  0
   -0.8970    0.0580   -0.4940 C   0  0  0  0  0  0  0  0  0  0  0  0
   -1.7880    1.0130   -0.0480 C   0  0  0  0  0  0  0  0  0  0  0  0
   -3.1270    0.7030    0.0850 C   0  0  0  0  0  0  0  0  0  0  0  0
   -3.6390   -0.5440   -0.2110 C   0  0  0  0  0  0  0  0  0  0  0  0
   -2.7560   -1.4980   -0.6550 C   0  0  0  0  0  0  0  0  0  0  0  0
   -5.0950   -0.7970   -0.0400 C   0  0  0  0  0  0  0  0  0  0  0  0
   -5.8270    0.3470   -0.6820 C   0  0  0  0  0  0  0  0  0  0  0  0
   -5.2680    1.6940   -0.3940 C   0  0  1  0  0  0  0  0  0  0  0  0
   -6.2810    2.6190    0.0910 N   0  0  0  0  0  0  0  0  0  0  0  0
   -4.1100    1.7100    0.5630 C   0  0  0  0  0  0  0  0  0  0  0  0
    4.9270    0.6500    1.5970 C   0  0  0  0  0  0  0  0  0  0  0  0
    6.0900    1.3040    1.3120 C   0  0  0  0  0  0  0  0  0  0  0  0
  1  2  1  0
  2  3  2  0
  2 25  1  0
  3  4  1  0
  4  5  2  0
  5  6  1  0
  5 24  1  0
  6  7  1  0
  7  8  2  0
  7  9  1  0
  9 10  1  0
 10 11  1  0
 11 12  1  6
 11 13  1  0
 13 14  2  0
 13 18  1  0
 14 15  1  0
 15 16  2  0
 16 17  1  0
 16 23  1  0
 17 18  2  0
 17 19  1  0
 19 20  1  0
 20 21  1  0
 21 22  1  1
 21 23  1  0
 24 25  2  0
M  CHG  1  22   1
M  END
