
     RDKit          3D

 25 26  0  0  0  0  0  0  0  0999 V2000
    1.5650   -4.9150    0.1880 C   0  0  0  0  0  0  0  0  0  0  0  0
    1.9790   -3.5950    0.3000 O   0  0  0  0  0  0  0  0  0  0  0  0
    1.2230   -2.4560    0.1150 C   0  0  0  0  0  0  0  0  0  0  0  0
   -0.1080   -2.4840   -0.2260 C   0  0  0  0  0  0  0  0  0  0  0  0
   -0.8600   -1.3230   -0.4060 C   0  0  0  0  0  0  0  0  0  0  0  0
   -0.2330   -0.0870   -0.2320 C   0  0  0  0  0  0  0  0  0  0  0  0
   -0.9250    1.0560   -0.3840 O   0  0  0  0  0  0  0  0  0  0  0  0
   -2.2090    1.4040   -0.6660 C   0  0  0  0  0  0  0  0  0  0  0  0
   -3.2560    0.9670    0.3360 C   0  0  0  0  0  0  0  0  0  0  0  0
   -4.6570    1.4480   -0.0380 C   0  0  0  0  0  0  0  0  0  0  0  0
   -5.5460    0.8950    1.0840 C   0  0  0  0  0  0  0  0  0  0  0  0
   -6.9450    1.2890    0.9420 C   0  0  0  0  0  0  0  0  0  0  0  0
   -7.4260    2.2490    1.6290 O   0  0  0  0  0  0  0  0  0  0  0  0
   -7.7920    0.6320    0.0530 O   0  0  0  0  0  0  0  0  0  0  0  0
    1.1220   -0.0540    0.1120 C   0  0  0  0  0  0  0  0  0  0  0  0
    1.8050   -1.2170    0.2760 C   0  0  0  0  0  0  0  0  0  0  0  0
    3.2440   -1.1770    0.6750 C   0  0  0  0  0  0  0  0  0  0  0  0
    3.8280    0.1540    0.4860 C   0  0  0  0  0  0  0  0  0  0  0  0
    4.0260    1.0210    1.5560 C   0  0  0  0  0  0  0  0  0  0  0  0
    4.5460    2.2270    1.2840 N   0  0  0  0  0  0  0  0  0  0  0  0
    4.8700    2.5960    0.0230 C   0  0  0  0  0  0  0  0  0  0  0  0
    5.4100    3.9050   -0.1400 N   0  0  0  0  0  0  0  0  0  0  0  0
    4.6750    1.7480   -1.0030 N   0  0  0  0  0  0  0  0  0  0  0  0
    4.1550    0.5110   -0.8260 C   0  0  0  0  0  0  0  0  0  0  0  0
    3.9630   -0.3680   -1.9260 N   0  0  0  0  0  0  0  0  0  0  0  0
  1  2  1  0
  2  3  1  0
  3  4  2  0
  3 16  1  0
  4  5  1  0
  5  6  2  0
  6  7  1  0
  6 15  1  0
  7  8  1  0
  8  9  1  0
  9 10  1  0
 10 11  1  0
 11 12  1  0
 12 13  2  0
 12 14  1  0
 15 16  2  0
 16 17  1  0
 17 18  1  0
 18 19  2  0
 18 24  1  0
 19 20  1  0
 20 21  2  0
 21 22  1  0
 21 23  1  0
 23 24  2  0
 24 25  1  0
M  END
