
     RDKit          3D

 21 21  0  0  0  0  0  0  0  0999 V2000
   -3.8040   -3.5480   -0.5390 C   0  0  0  0  0  0  0  0  0  0  0  0
   -4.1060   -2.4520    0.1330 C   0  0  0  0  0  0  0  0  0  0  0  0
   -3.0780   -1.4900    0.6640 C   0  0  0  0  0  0  0  0  0  0  0  0
   -1.7360   -2.0040    0.2870 C   0  0  0  0  0  0  0  0  0  0  0  0
   -0.5680   -1.1680    0.7610 C   0  0  1  0  0  0  0  0  0  0  0  0
    0.6250   -1.8370    0.2960 N   0  0  0  0  0  0  0  0  0  0  0  0
    1.8830   -1.2530    0.6220 C   0  0  0  0  0  0  0  0  0  0  0  0
    3.0310   -1.4490   -0.2170 N   0  0  0  0  0  0  0  0  0  0  0  0
    1.9170   -0.5510    1.7030 N   0  0  0  0  0  0  0  0  0  0  0  0
    3.1500    0.0460    2.0620 C   0  0  0  0  0  0  0  0  0  0  0  0
    4.4330    0.2230    1.0300 P   0  0  0  0  0  0  0  0  0  0  0  0
    6.3210    1.1480    1.6130 P   0  0  0  0  0  0  0  0  0  0  0  0
    7.2800    1.8860    0.4930 C   0  0  0  0  0  0  0  0  0  0  0  0
   -0.6170    0.2070    0.1790 C   0  0  1  0  0  0  0  0  0  0  0  0
   -0.6620    0.2220   -1.2150 O   0  0  0  0  0  0  0  0  0  0  0  0
    0.0420    1.3160   -1.6690 C   0  0  0  0  0  0  0  0  0  0  0  0
   -0.6400    2.5150   -1.4870 O   0  0  0  0  0  0  0  0  0  0  0  0
   -1.3610    2.6160    0.0840 P   0  0  0  0  0  0  0  0  0  0  0  0
   -2.8130    3.5480    0.0670 O   0  0  0  0  0  0  0  0  0  0  0  0
   -3.0290    4.1950   -1.1380 C   0  0  0  0  0  0  0  0  0  0  0  0
   -1.6690    0.9830    0.6450 O   0  0  0  0  0  0  0  0  0  0  0  0
  1  2  2  0
  2  3  1  0
  3  4  1  0
  5  4  1  6
  5  6  1  0
  5 14  1  0
  6  7  1  0
  7  8  1  0
  7  9  2  3
  9 10  1  0
 10 11  2  3
 11 12  1  0
 12 13  2  0
 14 15  1  6
 14 21  1  0
 15 16  1  0
 16 17  1  0
 17 18  1  0
 18 19  1  0
 18 21  1  0
 19 20  1  0
M  END
