
     RDKit          3D

 21 22  0  0  0  0  0  0  0  0999 V2000
    2.7700    2.5270    1.4930 C   0  0  0  0  0  0  0  0  0  0  0  0
    1.8260    2.6180    0.4490 O   0  0  0  0  0  0  0  0  0  0  0  0
    0.7740    1.2410    0.4640 P   0  0  0  0  0  0  0  0  0  0  0  0
    1.4290   -0.1030   -0.6840 C   0  0  1  0  0  0  0  0  0  0  0  0
    1.7340    0.7940   -2.3070 P   0  0  0  0  0  0  0  0  0  0  0  0
    2.4650    2.1600   -2.2120 O   0  0  0  0  0  0  0  0  0  0  0  0
    3.0610   -0.6230   -0.0350 P   0  0  0  0  0  0  0  0  0  0  0  0
    2.9830   -1.3550    1.5150 O   0  0  0  0  0  0  0  0  0  0  0  0
    0.4680   -1.1160   -0.7820 N   0  0  0  0  0  0  0  0  0  0  0  0
   -0.8090   -0.8100   -1.3110 C   0  0  0  0  0  0  0  0  0  0  0  0
   -1.6400    0.0620   -0.4730 C   0  0  0  0  0  0  0  0  0  0  0  0
   -2.0460    1.2120   -0.9110 C   0  0  0  0  0  0  0  0  0  0  0  0
   -2.8610    2.1520   -0.1770 C   0  0  0  0  0  0  0  0  0  0  0  0
   -3.3730    1.7210    1.1290 C   0  0  0  0  0  0  0  0  0  0  0  0
   -2.9000    0.4800    1.6180 N   0  0  0  0  0  0  0  0  0  0  0  0
   -2.8740   -0.4930    2.6830 C   0  0  0  0  0  0  0  0  0  0  0  0
   -2.0520   -1.2640    1.7990 N   0  0  0  0  0  0  0  0  0  0  0  0
   -2.0720   -0.3690    0.8790 C   0  0  0  0  0  0  0  0  0  0  0  0
    0.8550   -2.4270   -1.1410 C   0  0  1  0  0  0  0  0  0  0  0  0
    1.4570   -2.6100   -2.4960 C   0  0  0  0  0  0  0  0  0  0  0  0
    1.6400   -3.0680   -0.1810 O   0  0  0  0  0  0  0  0  0  0  0  0
  1  2  1  0
  2  3  1  0
  4  3  1  1
  4  5  1  0
  4  7  1  0
  4  9  1  0
  5  6  2  0
  7  8  1  0
  9 10  1  0
  9 19  1  0
 10 11  1  0
 11 12  2  0
 11 18  1  0
 12 13  1  0
 13 14  1  0
 14 15  1  0
 15 16  1  0
 15 18  1  0
 16 17  1  0
 17 18  2  0
 19 20  1  6
 19 21  1  0
M  END
