
     RDKit          3D

 21 22  0  0  0  0  0  0  0  0999 V2000
   -0.7000   -2.6300   -2.7970 C   0  0  0  0  0  0  0  0  0  0  0  0
   -0.5690   -2.0860   -1.6020 C   0  0  0  0  0  0  0  0  0  0  0  0
   -1.5100   -1.0890   -1.0900 C   0  0  0  0  0  0  0  0  0  0  0  0
   -2.5630   -0.7980   -1.7030 O   0  0  0  0  0  0  0  0  0  0  0  0
   -1.0000   -0.3330    0.5000 P   0  0  0  0  0  0  0  0  0  0  0  0
   -1.4630    1.4280    0.5450 C   0  0  0  0  0  0  0  0  0  0  0  0
   -2.6930    1.7590    0.4800 N   0  0  0  0  0  0  0  0  0  0  0  0
   -3.7500    0.8180    0.3730 C   0  0  0  0  0  0  0  0  0  0  0  0
   -4.6820    1.0700   -0.4280 O   0  0  0  0  0  0  0  0  0  0  0  0
   -3.7850   -0.3470    1.1090 O   0  0  0  0  0  0  0  0  0  0  0  0
   -4.8600   -1.2340    0.9540 C   0  0  0  0  0  0  0  0  0  0  0  0
   -0.4100    2.4570    0.6560 C   0  0  0  0  0  0  0  0  0  0  0  0
    0.7990    1.7410    1.2790 C   0  0  0  0  0  0  0  0  0  0  0  0
    1.2780    0.8140    0.3090 N   0  0  0  0  0  0  0  0  0  0  0  0
    2.9690    0.9370   -0.1060 P   0  0  0  0  0  0  0  0  0  0  0  0
    4.1610    2.1060    1.3010 P   0  0  0  0  0  0  0  0  0  0  0  0
    4.5680    3.7930    0.6490 C   0  0  0  0  0  0  0  0  0  0  0  0
    0.8170   -0.4880    0.5290 N   0  0  0  0  0  0  0  0  0  0  0  0
    1.2610   -1.2910   -0.4370 O   0  0  0  0  0  0  0  0  0  0  0  0
    0.5370   -2.4260   -0.6650 C   0  0  2  0  0  0  0  0  0  0  0  0
    1.3570   -3.5840   -1.1640 C   0  0  0  0  0  0  0  0  0  0  0  0
  1  2  2  0
  2  3  1  0
  2 20  1  0
  3  4  2  0
  3  5  1  0
  5  6  1  0
  5 18  1  0
  6  7  2  3
  6 12  1  0
  7  8  1  0
  8  9  2  0
  8 10  1  0
 10 11  1  0
 12 13  1  0
 13 14  1  0
 14 15  1  0
 14 18  1  0
 15 16  1  0
 16 17  1  0
 18 19  1  0
 19 20  1  0
 20 21  1  6
M  END
