
     RDKit          3D

 21 23  0  0  0  0  0  0  0  0999 V2000
    6.0260   -2.2260   -1.8500 O   0  0  0  0  0  0  0  0  0  0  0  0
    5.4250   -1.3890   -1.1550 C   0  0  0  0  0  0  0  0  0  0  0  0
    6.0570   -0.0300   -1.0010 C   0  0  0  0  0  0  0  0  0  0  0  0
    5.0180    0.9250   -1.5260 C   0  0  0  0  0  0  0  0  0  0  0  0
    3.7390    0.6740   -0.7990 C   0  0  0  0  0  0  0  0  0  0  0  0
    2.4550    1.8760   -0.4130 S   0  0  0  0  0  0  0  0  0  0  0  0
    1.3890    0.6190    0.4060 C   0  0  0  0  0  0  0  0  0  0  0  0
    0.0790    0.9760    0.9920 C   0  0  0  0  0  0  0  0  0  0  0  0
   -0.3040    2.1750    0.9220 O   0  0  0  0  0  0  0  0  0  0  0  0
   -0.7340    0.0230    1.6160 N   0  0  0  0  0  0  0  0  0  0  0  0
   -2.0190    0.3260    2.2000 C   0  0  0  0  0  0  0  0  0  0  0  0
   -2.9810    0.8790    1.1680 C   0  0  0  0  0  0  0  0  0  0  0  0
   -3.2600   -0.3400   -0.2060 P   0  0  0  0  0  0  0  0  0  0  0  0
   -4.5260   -1.4240    0.2930 O   0  0  0  0  0  0  0  0  0  0  0  0
   -5.7240   -0.7020    0.2020 C   0  0  0  0  0  0  0  0  0  0  0  0
   -5.9380   -0.2250   -1.0850 O   0  0  0  0  0  0  0  0  0  0  0  0
   -5.1520    0.8940   -1.3470 C   0  0  0  0  0  0  0  0  0  0  0  0
   -3.8350    0.5150   -1.6030 O   0  0  0  0  0  0  0  0  0  0  0  0
    2.0890   -0.5230    0.3030 C   0  0  0  0  0  0  0  0  0  0  0  0
    3.2870   -0.4960   -0.3100 C   0  0  0  0  0  0  0  0  0  0  0  0
    4.1810   -1.6260   -0.4920 N   0  0  0  0  0  0  0  0  0  0  0  0
  1  2  2  0
  2  3  1  0
  2 21  1  0
  3  4  1  0
  4  5  1  0
  5  6  1  0
  5 20  2  0
  6  7  1  0
  7  8  1  0
  7 19  2  0
  8  9  2  0
  8 10  1  0
 10 11  1  0
 11 12  1  0
 12 13  1  0
 13 14  1  0
 13 18  1  0
 14 15  1  0
 15 16  1  0
 16 17  1  0
 17 18  1  0
 19 20  1  0
 20 21  1  0
M  END
