
     RDKit          3D

 21 21  0  0  0  0  0  0  0  0999 V2000
   -1.9270    3.2420   -0.6990 C   0  0  0  0  0  0  0  0  0  0  0  0
   -1.8860    2.3950    0.5280 C   0  0  0  0  0  0  0  0  0  0  0  0
   -1.6600    0.9260    0.1770 C   0  0  0  0  0  0  0  0  0  0  0  0
   -0.7180    0.2770    0.5650 N   0  0  0  0  0  0  0  0  0  0  0  0
   -0.1650   -1.0030    0.4870 C   0  0  2  0  0  0  0  0  0  0  0  0
    1.2260   -0.7840   -0.0660 C   0  0  1  0  0  0  0  0  0  0  0  0
    1.8480    0.0760    0.9720 N   0  0  0  0  0  0  0  0  0  0  0  0
    3.2150    0.3840    0.6230 C   0  0  0  0  0  0  0  0  0  0  0  0
    3.7590    1.2590    1.7360 C   0  0  0  0  0  0  0  0  0  0  0  0
    2.9230    2.4460    1.7770 N   0  0  0  0  0  0  0  0  0  0  0  0
    1.9640   -1.8640   -0.1850 O   0  0  0  0  0  0  0  0  0  0  0  0
    1.6830   -3.1820   -1.1380 P   0  0  0  0  0  0  0  0  0  0  0  0
    1.6830   -3.3020   -2.6700 O   0  0  0  0  0  0  0  0  0  0  0  0
    1.0660    0.2060   -1.6480 P   0  0  0  0  0  0  0  0  0  0  0  0
    1.4600    1.8460   -1.3790 O   0  0  0  0  0  0  0  0  0  0  0  0
    1.9880   -0.4500   -2.9250 O   0  0  0  0  0  0  0  0  0  0  0  0
   -0.9750   -2.0400   -0.1790 C   0  0  1  0  0  0  0  0  0  0  0  0
   -0.9990   -3.3240    0.6480 C   0  0  0  0  0  0  0  0  0  0  0  0
   -2.7720   -1.5310   -0.3570 P   0  0  0  0  0  0  0  0  0  0  0  0
   -3.7050   -1.8360    1.2250 C   0  0  0  0  0  0  0  0  0  0  0  0
   -2.7040    0.3100   -0.6990 C   0  0  0  0  0  0  0  0  0  0  0  0
  1  2  1  0
  2  3  1  0
  3  4  2  0
  3 21  1  0
  5  4  1  6
  5  6  1  0
  5 17  1  0
  6  7  1  1
  6 11  1  0
  6 14  1  0
  7  8  1  0
  8  9  1  0
  9 10  1  0
 11 12  1  0
 12 13  2  0
 14 15  1  0
 14 16  1  0
 17 18  1  1
 17 19  1  0
 19 20  1  0
 19 21  1  0
M  END
