
     RDKit          3D

 21 20  0  0  0  0  0  0  0  0999 V2000
   -0.6830    5.9630   -0.1010 C   0  0  0  0  0  0  0  0  0  0  0  0
   -0.0680    4.5950    0.5700 P   0  0  0  0  0  0  0  0  0  0  0  0
    1.0460    3.5010   -0.3670 C   0  0  0  0  0  0  0  0  0  0  0  0
    0.9590    2.2190   -0.4430 C   0  0  0  0  0  0  0  0  0  0  0  0
   -0.0170    1.3750    0.1820 C   0  0  0  0  0  0  0  0  0  0  0  0
   -1.0890    1.9320    1.0300 C   0  0  0  0  0  0  0  0  0  0  0  0
    0.0480    0.0370   -0.0120 C   0  0  0  0  0  0  0  0  0  0  0  0
    1.0570   -0.5410   -0.8160 N   0  0  0  0  0  0  0  0  0  0  0  0
    2.4850   -1.4020   -0.1550 P   0  0  0  0  0  0  0  0  0  0  0  0
    2.0020   -2.3530    1.1920 O   0  0  0  0  0  0  0  0  0  0  0  0
    2.5780   -3.5760    1.1930 N   0  0  0  0  0  0  0  0  0  0  0  0
    3.7920   -0.3560    0.1970 O   0  0  0  0  0  0  0  0  0  0  0  0
    4.4880    0.0550   -0.9320 C   0  0  0  0  0  0  0  0  0  0  0  0
    5.6270    0.9660   -0.6260 C   0  0  0  0  0  0  0  0  0  0  0  0
   -1.2110   -0.9880    0.8020 P   0  0  0  0  0  0  0  0  0  0  0  0
   -0.7750   -2.6640    0.8040 O   0  0  0  0  0  0  0  0  0  0  0  0
   -2.7930   -0.7230    0.0930 O   0  0  0  0  0  0  0  0  0  0  0  0
   -3.7710   -1.6810    0.1610 C   0  0  0  0  0  0  0  0  0  0  0  0
   -3.4930   -3.0750   -0.2520 C   0  0  0  0  0  0  0  0  0  0  0  0
   -4.9880   -1.3870    0.5970 C   0  0  0  0  0  0  0  0  0  0  0  0
   -6.0250   -2.3390    0.6850 N   0  0  0  0  0  0  0  0  0  0  0  0
  1  2  2  0
  2  3  1  0
  3  4  2  3
  4  5  1  0
  5  6  1  0
  5  7  2  3
  7  8  1  0
  7 15  1  0
  8  9  1  0
  9 10  1  0
  9 12  1  0
 10 11  1  0
 12 13  1  0
 13 14  1  0
 15 16  1  0
 15 17  1  0
 17 18  1  0
 18 19  1  0
 18 20  2  3
 20 21  1  0
M  END
