
     RDKit          3D

 21 21  0  0  0  0  0  0  0  0999 V2000
    3.1440   -2.4690   -0.6580 C   0  0  0  0  0  0  0  0  0  0  0  0
    3.3100   -1.0360   -0.5650 N   0  0  0  0  0  0  0  0  0  0  0  0
    2.1810   -0.2220   -0.6760 N   0  0  0  0  0  0  0  0  0  0  0  0
    1.8850    0.2640    0.6650 C   0  0  0  0  0  0  0  0  0  0  0  0
    0.7080    1.1330    0.6450 C   0  0  0  0  0  0  0  0  0  0  0  0
    0.6470    2.3180   -0.1110 N   0  0  0  0  0  0  0  0  0  0  0  0
   -0.3450    0.7960    1.3550 C   0  0  0  0  0  0  0  0  0  0  0  0
   -1.8240    0.1940    1.8210 P   0  0  0  0  0  0  0  0  0  0  0  0
   -2.7040   -0.9200    0.6630 C   0  0  0  0  0  0  0  0  0  0  0  0
   -2.1240   -1.9580    0.1930 O   0  0  0  0  0  0  0  0  0  0  0  0
   -4.0700   -0.5930    0.2970 C   0  0  0  0  0  0  0  0  0  0  0  0
   -4.7760   -1.4060   -0.5710 C   0  0  0  0  0  0  0  0  0  0  0  0
   -6.0780   -1.0510   -0.8910 C   0  0  0  0  0  0  0  0  0  0  0  0
   -6.6300    0.0630   -0.3610 N   0  0  0  0  0  0  0  0  0  0  0  0
   -5.9620    0.8700    0.4870 C   0  0  0  0  0  0  0  0  0  0  0  0
   -4.6530    0.5310    0.8200 C   0  0  0  0  0  0  0  0  0  0  0  0
    4.5610   -0.4000   -0.3640 C   0  0  0  0  0  0  0  0  0  0  0  0
    5.5950   -1.1340   -0.2610 O   0  0  0  0  0  0  0  0  0  0  0  0
    4.7290    0.9520   -0.2740 O   0  0  0  0  0  0  0  0  0  0  0  0
    5.9060    1.5550   -0.0850 O   0  0  0  0  0  0  0  0  0  0  0  0
    5.7640    2.8000    0.2500 O   0  0  0  0  0  0  0  0  0  0  0  0
  1  2  1  0
  2  3  1  0
  2 17  1  0
  3  4  1  0
  4  5  1  0
  5  6  1  0
  5  7  2  0
  7  8  2  0
  8  9  1  0
  9 10  2  0
  9 11  1  0
 11 12  2  0
 11 16  1  0
 12 13  1  0
 13 14  2  0
 14 15  1  0
 15 16  2  0
 17 18  2  0
 17 19  1  0
 19 20  1  0
 20 21  1  0
M  END
