
     RDKit          3D

 25 25  0  0  0  0  0  0  0  0999 V2000
    1.2260   -1.8830    0.3590 O   0  0  0  0  0  0  0  0  0  0  0  0
    2.2450   -1.2690    0.7140 C   0  0  0  0  0  0  0  0  0  0  0  0
    3.4830   -1.9960    1.2040 C   0  0  0  0  0  0  0  0  0  0  0  0
    4.8420   -1.9740    0.1180 P   0  0  0  0  0  0  0  0  0  0  0  0
    5.2940   -0.6150   -0.6600 O   0  0  0  0  0  0  0  0  0  0  0  0
    5.9730   -1.9160    1.1480 O   0  0  0  0  0  0  0  0  0  0  0  0
    5.5540   -3.4410   -0.3970 O   0  0  0  0  0  0  0  0  0  0  0  0
    2.2640    0.1480    0.6610 N   0  0  0  0  0  0  0  0  0  0  0  0
    1.2300    0.9950    0.2550 C   0  0  0  0  0  0  0  0  0  0  0  0
   -0.1180    0.6480    0.2030 C   0  0  0  0  0  0  0  0  0  0  0  0
   -1.1100    1.4910   -0.2180 C   0  0  0  0  0  0  0  0  0  0  0  0
   -2.4960    1.2020   -0.2510 N   0  0  0  0  0  0  0  0  0  0  0  0
   -3.1490    0.1860    0.4830 C   0  0  0  0  0  0  0  0  0  0  0  0
   -2.4580   -0.5360    1.2460 O   0  0  0  0  0  0  0  0  0  0  0  0
   -4.6400   -0.0590    0.3780 C   0  0  0  0  0  0  0  0  0  0  0  0
   -4.8130   -1.5670   -0.4420 P   0  0  0  0  0  0  0  0  0  0  0  0
   -3.5070   -2.5810   -0.6010 O   0  0  0  0  0  0  0  0  0  0  0  0
   -5.3080   -2.4470    0.7220 O   0  0  0  0  0  0  0  0  0  0  0  0
   -6.2480   -1.9450   -1.2430 O   0  0  0  0  0  0  0  0  0  0  0  0
   -0.7100    2.7730   -0.6170 C   0  0  0  0  0  0  0  0  0  0  0  0
    0.5980    3.1980   -0.5980 C   0  0  0  0  0  0  0  0  0  0  0  0
    0.9850    4.5480   -1.0110 C   0  0  0  0  0  0  0  0  0  0  0  0
    2.1900    4.9040   -0.9960 O   0  0  0  0  0  0  0  0  0  0  0  0
    0.0310    5.4420   -1.4220 O   0  0  0  0  0  0  0  0  0  0  0  0
    1.5420    2.2930   -0.1600 C   0  0  0  0  0  0  0  0  0  0  0  0
  1  2  2  0
  2  3  1  0
  2  8  1  0
  3  4  1  0
  4  5  1  0
  4  6  1  0
  4  7  1  0
  8  9  1  0
  9 10  2  0
  9 25  1  0
 10 11  1  0
 11 12  1  0
 11 20  2  0
 12 13  1  0
 13 14  2  0
 13 15  1  0
 15 16  1  0
 16 17  1  0
 16 18  1  0
 16 19  1  0
 20 21  1  0
 21 22  1  0
 21 25  2  0
 22 23  2  0
 22 24  1  0
M  END
