
     RDKit          3D

 21 21  0  0  0  0  0  0  0  0999 V2000
    5.6980   -1.0180    0.8970 C   0  0  0  0  0  0  0  0  0  0  0  0
    4.7280   -0.4840    0.2190 C   0  0  0  0  0  0  0  0  0  0  0  0
    4.8760   -0.2120   -1.1550 O   0  0  0  0  0  0  0  0  0  0  0  0
    3.9050   -0.3720   -2.1800 C   0  0  0  0  0  0  0  0  0  0  0  0
    2.6360    0.3750   -1.9470 C   0  0  0  0  0  0  0  0  0  0  0  0
    1.8450   -0.0280   -0.7910 C   0  0  0  0  0  0  0  0  0  0  0  0
    0.4500   -0.1880   -1.0050 N   0  0  0  0  0  0  0  0  0  0  0  0
   -0.7620    0.0090    0.3130 P   0  0  0  0  0  0  0  0  0  0  0  0
   -1.3210    1.6420    0.2780 O   0  0  0  0  0  0  0  0  0  0  0  0
   -2.1680   -1.0760    0.0650 N   0  0  0  0  0  0  0  0  0  0  0  0
   -2.5950   -1.3130   -1.3080 C   0  0  0  0  0  0  0  0  0  0  0  0
   -2.8430   -1.6840    1.1590 C   0  0  0  0  0  0  0  0  0  0  0  0
   -3.8560   -1.1100    1.6870 N   0  0  0  0  0  0  0  0  0  0  0  0
   -4.3510    0.1390    1.2210 C   0  0  0  0  0  0  0  0  0  0  0  0
   -4.4880    1.4210    2.2980 P   0  0  0  0  0  0  0  0  0  0  0  0
   -4.7140    0.2880   -0.1120 O   0  0  0  0  0  0  0  0  0  0  0  0
   -6.0700    0.5740   -0.4680 C   0  0  0  0  0  0  0  0  0  0  0  0
    2.1660   -0.2820    0.4570 N   0  0  0  0  0  0  0  0  0  0  0  0
    3.5170   -0.1990    0.9650 C   0  0  0  0  0  0  0  0  0  0  0  0
    3.6140    0.1850    2.2180 C   0  0  0  0  0  0  0  0  0  0  0  0
    2.4600    0.4650    2.9630 O   0  0  0  0  0  0  0  0  0  0  0  0
  1  2  2  0
  2  3  1  0
  2 19  1  0
  3  4  1  0
  4  5  1  0
  5  6  1  0
  6  7  1  0
  6 18  2  0
  7  8  1  0
  8  9  1  0
  8 10  1  0
 10 11  1  0
 10 12  1  0
 12 13  2  3
 13 14  1  0
 14 15  2  0
 14 16  1  0
 16 17  1  0
 18 19  1  0
 19 20  2  3
 20 21  1  0
M  END
