
     RDKit          3D

 18 19  0  0  0  0  0  0  0  0999 V2000
   -4.4620   -0.1810   -0.1270 C   0  0  0  0  0  0  0  0  0  0  0  0
   -3.0300    0.1870   -0.2490 C   0  0  0  0  0  0  0  0  0  0  0  0
   -2.0490   -0.7250    0.0640 C   0  0  0  0  0  0  0  0  0  0  0  0
   -0.7120   -0.4220   -0.0360 C   0  0  0  0  0  0  0  0  0  0  0  0
   -0.3750    0.8420   -0.4660 C   0  0  0  0  0  0  0  0  0  0  0  0
   -1.3370    1.7750   -0.7860 C   0  0  0  0  0  0  0  0  0  0  0  0
   -0.9000    3.3730   -1.3300 Cl  0  0  0  0  0  0  0  0  0  0  0  0
   -2.6690    1.4550   -0.6810 C   0  0  0  0  0  0  0  0  0  0  0  0
   -3.9260    2.6280   -1.0840 Cl  0  0  0  0  0  0  0  0  0  0  0  0
    0.9590    1.1840   -0.5790 O   0  0  0  0  0  0  0  0  0  0  0  0
    2.0160    0.2890   -0.2710 C   0  0  0  0  0  0  0  0  0  0  0  0
    3.2530    0.6400   -0.3880 C   0  0  0  0  0  0  0  0  0  0  0  0
    4.5020   -0.0530   -0.1480 C   0  0  0  0  0  0  0  0  0  0  0  0
    5.4110   -0.0910   -1.7120 Cl  0  0  0  0  0  0  0  0  0  0  0  0
    1.6090   -1.0190    0.1740 C   0  0  0  0  0  0  0  0  0  0  0  0
    2.5330   -1.9860    0.5060 O   0  0  0  0  0  0  0  0  0  0  0  0
    0.3230   -1.3870    0.2960 C   0  0  0  0  0  0  0  0  0  0  0  0
   -0.1200   -2.9860    0.8400 Cl  0  0  0  0  0  0  0  0  0  0  0  0
  1  2  1  0
  2  3  2  0
  2  8  1  0
  3  4  1  0
  4  5  2  0
  4 17  1  0
  5  6  1  0
  5 10  1  0
  6  7  1  0
  6  8  2  0
  8  9  1  0
 10 11  1  0
 11 12  2  3
 11 15  1  0
 12 13  1  0
 13 14  1  0
 15 16  1  0
 15 17  2  0
 17 18  1  0
M  END
