
     RDKit          3D

 18 19  0  0  0  0  0  0  0  0999 V2000
    2.0270   -1.1390    2.0550 O   0  0  0  0  0  0  0  0  0  0  0  0
    2.4110   -0.3020    1.0250 C   0  0  0  0  0  0  0  0  0  0  0  0
    1.4620    0.1740    0.1680 C   0  0  0  0  0  0  0  0  0  0  0  0
    0.0340   -0.1290    0.2420 C   0  0  0  0  0  0  0  0  0  0  0  0
   -0.6140   -0.9240    1.1550 C   0  0  0  0  0  0  0  0  0  0  0  0
   -1.9670   -0.9190    0.8340 C   0  0  0  0  0  0  0  0  0  0  0  0
   -2.0620   -0.1090   -0.2720 C   0  0  0  0  0  0  0  0  0  0  0  0
   -3.2770    0.2480   -1.0320 C   0  0  0  0  0  0  0  0  0  0  0  0
   -4.5140   -0.4020   -0.4480 C   0  0  0  0  0  0  0  0  0  0  0  0
   -4.8070    0.0740    1.2130 Cl  0  0  0  0  0  0  0  0  0  0  0  0
   -0.8710    0.3300   -0.5830 O   0  0  0  0  0  0  0  0  0  0  0  0
    1.8970    1.0140   -0.8540 C   0  0  0  0  0  0  0  0  0  0  0  0
    3.2200    1.3630   -1.0140 C   0  0  0  0  0  0  0  0  0  0  0  0
    3.7420    2.4220   -2.3080 Cl  0  0  0  0  0  0  0  0  0  0  0  0
    4.1750    0.8700   -0.1320 C   0  0  0  0  0  0  0  0  0  0  0  0
    5.8420    1.3300   -0.3610 Cl  0  0  0  0  0  0  0  0  0  0  0  0
    3.7470    0.0390    0.8790 C   0  0  0  0  0  0  0  0  0  0  0  0
    4.9300   -0.5930    1.9980 Cl  0  0  0  0  0  0  0  0  0  0  0  0
  1  2  1  0
  2  3  2  0
  2 17  1  0
  3  4  1  0
  3 12  1  0
  4  5  2  0
  4 11  1  0
  5  6  1  0
  6  7  2  0
  7  8  1  0
  7 11  1  0
  8  9  1  0
  9 10  1  0
 12 13  2  0
 13 14  1  0
 13 15  1  0
 15 16  1  0
 15 17  2  0
 17 18  1  0
M  END
