
     RDKit          3D

 18 19  0  0  0  0  0  0  0  0999 V2000
   -4.8040   -0.1500    0.7890 O   0  0  0  0  0  0  0  0  0  0  0  0
   -3.4460   -0.1040    0.5470 C   0  0  0  0  0  0  0  0  0  0  0  0
   -2.6300   -0.9080    1.3350 C   0  0  0  0  0  0  0  0  0  0  0  0
   -3.2930   -1.9460    2.5930 Cl  0  0  0  0  0  0  0  0  0  0  0  0
   -1.2740   -0.8610    1.0930 C   0  0  0  0  0  0  0  0  0  0  0  0
   -0.6990   -0.0690    0.1230 C   0  0  0  0  0  0  0  0  0  0  0  0
    0.7370   -0.0500   -0.0990 C   0  0  0  0  0  0  0  0  0  0  0  0
    1.3550    1.1000   -0.5460 C   0  0  0  0  0  0  0  0  0  0  0  0
    2.7120    1.1430   -0.7630 C   0  0  0  0  0  0  0  0  0  0  0  0
    3.5130    2.6080   -1.3340 Cl  0  0  0  0  0  0  0  0  0  0  0  0
    3.4460   -0.0020   -0.5210 C   0  0  0  0  0  0  0  0  0  0  0  0
    4.8190    0.0040   -0.7290 O   0  0  0  0  0  0  0  0  0  0  0  0
    2.8590   -1.1670   -0.0740 C   0  0  0  0  0  0  0  0  0  0  0  0
    3.7890   -2.6170    0.2320 Cl  0  0  0  0  0  0  0  0  0  0  0  0
    1.4960   -1.1880    0.1370 C   0  0  0  0  0  0  0  0  0  0  0  0
   -1.5490    0.7130   -0.6350 C   0  0  0  0  0  0  0  0  0  0  0  0
   -2.9230    0.7130   -0.4430 C   0  0  0  0  0  0  0  0  0  0  0  0
   -3.9950    1.7150   -1.4170 Cl  0  0  0  0  0  0  0  0  0  0  0  0
  1  2  1  0
  2  3  2  0
  2 17  1  0
  3  4  1  0
  3  5  1  0
  5  6  2  0
  6  7  1  0
  6 16  1  0
  7  8  2  0
  7 15  1  0
  8  9  1  0
  9 10  1  0
  9 11  2  0
 11 12  1  0
 11 13  1  0
 13 14  1  0
 13 15  2  0
 16 17  2  0
 17 18  1  0
M  END
