
     RDKit          3D

 18 19  0  0  0  0  0  0  0  0999 V2000
   -3.0940   -1.2310   -0.2420 C   0  0  0  0  0  0  0  0  0  0  0  0
   -2.2430    0.0070   -0.1720 C   0  0  0  0  0  0  0  0  0  0  0  0
   -2.7370    1.2740   -0.0350 C   0  0  0  0  0  0  0  0  0  0  0  0
   -4.5300    1.4030   -0.0280 Cl  0  0  0  0  0  0  0  0  0  0  0  0
   -2.0050    2.3930    0.1120 C   0  0  0  0  0  0  0  0  0  0  0  0
   -2.7720    3.9820    0.2910 Cl  0  0  0  0  0  0  0  0  0  0  0  0
   -0.6160    2.2740    0.1650 C   0  0  0  0  0  0  0  0  0  0  0  0
    0.3430    3.7090    0.4750 Cl  0  0  0  0  0  0  0  0  0  0  0  0
   -0.0430    1.0540    0.0660 C   0  0  0  0  0  0  0  0  0  0  0  0
    1.3320    0.9530    0.1400 C   0  0  0  0  0  0  0  0  0  0  0  0
    1.9710   -0.2720    0.0180 C   0  0  0  0  0  0  0  0  0  0  0  0
    3.3910   -0.5230    0.4150 C   0  0  0  0  0  0  0  0  0  0  0  0
    4.4410   -0.0380   -0.2880 O   0  0  0  0  0  0  0  0  0  0  0  0
    1.1870   -1.3620   -0.1680 C   0  0  0  0  0  0  0  0  0  0  0  0
    1.7890   -2.5900   -0.3000 O   0  0  0  0  0  0  0  0  0  0  0  0
   -0.2100   -1.2620   -0.2360 C   0  0  0  0  0  0  0  0  0  0  0  0
   -1.1540   -2.6640   -0.6550 Cl  0  0  0  0  0  0  0  0  0  0  0  0
   -0.8160   -0.0850   -0.1130 C   0  0  0  0  0  0  0  0  0  0  0  0
  1  2  1  0
  2  3  2  0
  2 18  1  0
  3  4  1  0
  3  5  1  0
  5  6  1  0
  5  7  2  0
  7  8  1  0
  7  9  1  0
  9 10  2  0
  9 18  1  0
 10 11  1  0
 11 12  1  0
 11 14  2  0
 12 13  1  0
 14 15  1  0
 14 16  1  0
 16 17  1  0
 16 18  2  0
M  END
