
     RDKit          3D

 17 18  0  0  0  0  0  0  0  0999 V2000
    0.1130    2.8630   -0.0200 O   0  0  0  0  0  0  0  0  0  0  0  0
   -0.4300    1.5760   -0.0620 C   0  0  0  0  0  0  0  0  0  0  0  0
   -1.7530    1.5540   -0.1230 C   0  0  0  0  0  0  0  0  0  0  0  0
   -2.7760    0.5040   -0.1850 C   0  0  0  0  0  0  0  0  0  0  0  0
   -4.3690    1.1730   -0.4300 Cl  0  0  0  0  0  0  0  0  0  0  0  0
   -2.8010   -0.8190   -0.1020 C   0  0  0  0  0  0  0  0  0  0  0  0
   -1.8060   -1.8730    0.0920 C   0  0  0  0  0  0  0  0  0  0  0  0
   -2.5690   -3.4390    0.2760 Cl  0  0  0  0  0  0  0  0  0  0  0  0
   -0.4850   -1.8840    0.1550 C   0  0  0  0  0  0  0  0  0  0  0  0
    0.5530   -0.8450    0.0590 C   0  0  0  0  0  0  0  0  0  0  0  0
    1.7420   -1.5400    0.0650 C   0  0  0  0  0  0  0  0  0  0  0  0
    2.9360   -0.8580   -0.0140 C   0  0  0  0  0  0  0  0  0  0  0  0
    4.4780   -1.7010   -0.0090 Cl  0  0  0  0  0  0  0  0  0  0  0  0
    2.9700    0.5330   -0.1020 C   0  0  0  0  0  0  0  0  0  0  0  0
    4.4880    1.3990   -0.2030 Cl  0  0  0  0  0  0  0  0  0  0  0  0
    1.7850    1.2370   -0.1090 C   0  0  0  0  0  0  0  0  0  0  0  0
    0.6000    0.5320   -0.0290 C   0  0  0  0  0  0  0  0  0  0  0  0
  1  2  1  0
  2  3  2  0
  2 17  1  0
  3  4  1  0
  4  5  1  0
  4  6  2  0
  6  7  1  0
  7  8  1  0
  7  9  2  0
  9 10  1  0
 10 11  2  0
 10 17  1  0
 11 12  1  0
 12 13  1  0
 12 14  2  0
 14 15  1  0
 14 16  1  0
 16 17  2  0
M  END
