
     RDKit          3D

 17 18  0  0  0  0  0  0  0  0999 V2000
    0.2280    2.0790   -0.2440 O   0  0  0  0  0  0  0  0  0  0  0  0
    1.2780    1.1920   -0.1740 C   0  0  0  0  0  0  0  0  0  0  0  0
    2.5680    1.6260   -0.2670 C   0  0  0  0  0  0  0  0  0  0  0  0
    2.9750    3.3290   -0.4790 Cl  0  0  0  0  0  0  0  0  0  0  0  0
    3.6200    0.7260   -0.1950 C   0  0  0  0  0  0  0  0  0  0  0  0
    3.3330   -0.6090   -0.0300 C   0  0  0  0  0  0  0  0  0  0  0  0
    4.6410   -1.7690    0.0640 Cl  0  0  0  0  0  0  0  0  0  0  0  0
    2.0090   -1.0820    0.0680 C   0  0  0  0  0  0  0  0  0  0  0  0
    1.7200   -2.7790    0.2760 Cl  0  0  0  0  0  0  0  0  0  0  0  0
    0.9940   -0.1730   -0.0060 C   0  0  0  0  0  0  0  0  0  0  0  0
   -0.4210   -0.5630    0.0860 C   0  0  0  0  0  0  0  0  0  0  0  0
   -1.0020   -1.7740    0.2450 C   0  0  0  0  0  0  0  0  0  0  0  0
   -2.3930   -1.6060    0.2710 C   0  0  0  0  0  0  0  0  0  0  0  0
   -2.5820   -0.2580    0.1200 C   0  0  0  0  0  0  0  0  0  0  0  0
   -3.9310    0.3910    0.0880 C   0  0  0  0  0  0  0  0  0  0  0  0
   -4.3830    0.8300    1.7540 Cl  0  0  0  0  0  0  0  0  0  0  0  0
   -1.4190    0.3140    0.0160 O   0  0  0  0  0  0  0  0  0  0  0  0
  1  2  1  0
  2  3  2  0
  2 10  1  0
  3  4  1  0
  3  5  1  0
  5  6  2  0
  6  7  1  0
  6  8  1  0
  8  9  1  0
  8 10  2  0
 10 11  1  0
 11 12  2  0
 11 17  1  0
 12 13  1  0
 13 14  2  0
 14 15  1  0
 14 17  1  0
 15 16  1  0
M  END
