
     RDKit          3D

 18 18  0  0  0  0  0  0  0  0999 V2000
   -2.1310   -1.8620   -1.7330 C   0  0  0  0  0  0  0  0  0  0  0  0
   -1.3570   -0.8920   -0.9030 C   0  0  0  0  0  0  0  0  0  0  0  0
   -2.0640   -0.1850    0.0410 C   0  0  0  0  0  0  0  0  0  0  0  0
   -3.5190   -0.4100    0.2150 C   0  0  0  0  0  0  0  0  0  0  0  0
   -1.3770    0.7150    0.8040 C   0  0  0  0  0  0  0  0  0  0  0  0
   -2.0300    1.4600    1.7710 O   0  0  0  0  0  0  0  0  0  0  0  0
    0.0230    0.9180    0.6320 C   0  0  0  0  0  0  0  0  0  0  0  0
    0.6180    1.9920    1.4420 C   0  0  1  0  0  0  0  0  0  0  0  0
    0.7170    1.7050    3.1610 Cl  0  0  0  0  0  0  0  0  0  0  0  0
    1.9790    2.8580    0.7940 Cl  0  0  0  0  0  0  0  0  0  0  0  0
   -0.7390    3.3050    1.3500 Cl  0  0  0  0  0  0  0  0  0  0  0  0
    0.7210    0.2210   -0.2850 C   0  0  0  0  0  0  0  0  0  0  0  0
    2.1530    0.1420   -0.3770 C   0  0  0  0  0  0  0  0  0  0  0  0
    3.0550    0.2790    0.5320 C   0  0  0  0  0  0  0  0  0  0  0  0
    4.5160    0.1700    0.2470 C   0  0  0  0  0  0  0  0  0  0  0  0
    5.1770   -1.1630    1.2260 Cl  0  0  0  0  0  0  0  0  0  0  0  0
   -0.0100   -0.7190   -1.0860 C   0  0  0  0  0  0  0  0  0  0  0  0
    0.7180   -1.4070   -2.0150 O   0  0  0  0  0  0  0  0  0  0  0  0
  1  2  1  0
  2  3  2  0
  2 17  1  0
  3  4  1  0
  3  5  1  0
  5  6  1  0
  5  7  2  0
  7  8  1  0
  7 12  1  0
  8  9  1  1
  8 10  1  0
  8 11  1  0
 12 13  1  0
 12 17  2  0
 13 14  2  3
 14 15  1  0
 15 16  1  0
 17 18  1  0
M  END
