
     RDKit          3D

 17 18  0  0  0  0  0  0  0  0999 V2000
   -3.3780    0.9300    0.5820 O   0  0  0  0  0  0  0  0  0  0  0  0
   -2.3650    1.1630   -0.3840 C   0  0  0  0  0  0  0  0  0  0  0  0
   -1.3200    0.1350   -0.2070 C   0  0  0  0  0  0  0  0  0  0  0  0
   -1.6750   -1.2110   -0.2410 C   0  0  0  0  0  0  0  0  0  0  0  0
   -3.3830   -1.5520   -0.4470 Cl  0  0  0  0  0  0  0  0  0  0  0  0
   -0.7840   -2.2400   -0.1390 C   0  0  0  0  0  0  0  0  0  0  0  0
    0.5330   -1.8880    0.0030 C   0  0  0  0  0  0  0  0  0  0  0  0
    1.5030   -2.8970    0.1070 O   0  0  0  0  0  0  0  0  0  0  0  0
    0.9850   -0.5780    0.0490 C   0  0  0  0  0  0  0  0  0  0  0  0
    2.3260   -0.2970    0.1600 C   0  0  0  0  0  0  0  0  0  0  0  0
    3.4780   -1.6040    0.2830 Cl  0  0  0  0  0  0  0  0  0  0  0  0
    2.7990    1.0170    0.1720 C   0  0  0  0  0  0  0  0  0  0  0  0
    4.4950    1.3910    0.3070 Cl  0  0  0  0  0  0  0  0  0  0  0  0
    1.8290    2.0080    0.0660 C   0  0  0  0  0  0  0  0  0  0  0  0
    2.4050    3.6580    0.0840 Cl  0  0  0  0  0  0  0  0  0  0  0  0
    0.4630    1.7100   -0.0470 C   0  0  0  0  0  0  0  0  0  0  0  0
    0.0250    0.4290   -0.0590 C   0  0  0  0  0  0  0  0  0  0  0  0
  1  2  1  0
  2  3  1  0
  3  4  2  0
  3 17  1  0
  4  5  1  0
  4  6  1  0
  6  7  2  0
  7  8  1  0
  7  9  1  0
  9 10  2  0
  9 17  1  0
 10 11  1  0
 10 12  1  0
 12 13  1  0
 12 14  2  0
 14 15  1  0
 14 16  1  0
 16 17  2  0
M  END
