
     RDKit          3D

 27 28  0  0  0  0  0  0  0  0999 V2000
   -2.7160   -2.8530    3.1440 N   0  0  0  0  0  0  0  0  0  0  0  0
   -2.3820   -2.2170    2.0350 C   0  0  0  0  0  0  0  0  0  0  0  0
   -1.3810   -1.2820    2.0180 N   0  0  0  0  0  0  0  0  0  0  0  0
   -1.0390   -0.6130    0.9400 C   0  0  0  0  0  0  0  0  0  0  0  0
    0.0030    0.3160    0.9770 N   0  0  0  0  0  0  0  0  0  0  0  0
    0.8600    0.3830   -0.2260 C   0  0  2  0  0  0  0  0  0  0  0  0
    1.3700    1.7170   -0.5310 C   0  0  0  0  0  0  0  0  0  0  0  0
    2.5140    2.0450    0.3270 O   0  0  0  0  0  0  0  0  0  0  0  0
    3.7500    1.6330   -0.2440 C   0  0  0  0  0  0  0  0  0  0  0  0
    3.7150    1.0830   -1.3780 O   0  0  0  0  0  0  0  0  0  0  0  0
    5.0040    1.7920    0.3050 O   0  0  0  0  0  0  0  0  0  0  0  0
    6.4250    1.3700   -0.5710 P   0  0  0  0  0  0  0  0  0  0  0  0
    7.4890    2.7240   -0.8730 O   0  0  0  0  0  0  0  0  0  0  0  0
    7.4080   -0.4040    0.0340 P   0  0  0  0  0  0  0  0  0  0  0  0
    9.1070   -0.2590    0.2940 O   0  0  0  0  0  0  0  0  0  0  0  0
    6.6280   -1.4310    1.1250 O   0  0  0  0  0  0  0  0  0  0  0  0
    0.1860   -0.4210   -1.2820 C   0  0  0  0  0  0  0  0  0  0  0  0
   -1.1800   -0.3600   -1.3540 O   0  0  0  0  0  0  0  0  0  0  0  0
   -1.8820   -0.7340   -0.2520 C   0  0  2  0  0  0  0  0  0  0  0  0
   -2.8770    0.3310   -0.0650 O   0  0  0  0  0  0  0  0  0  0  0  0
   -3.9470    0.4710   -0.8080 C   0  0  0  0  0  0  0  0  0  0  0  0
   -4.2420   -0.3320   -1.7800 O   0  0  0  0  0  0  0  0  0  0  0  0
   -5.0540    1.5230   -0.6490 C   0  0  0  0  0  0  0  0  0  0  0  0
   -6.2510    0.6940   -0.4690 N   0  0  0  0  0  0  0  0  0  0  0  0
   -7.1950    0.6900   -1.3290 O   0  0  0  0  0  0  0  0  0  0  0  0
   -2.7190   -1.9750   -0.3890 C   0  0  0  0  0  0  0  0  0  0  0  0
   -3.1510   -2.5780    0.9130 N   0  0  0  0  0  0  0  0  0  0  0  0
  1  2  2  0
  2  3  1  0
  2 27  1  0
  3  4  2  0
  4  5  1  0
  4 19  1  0
  5  6  1  0
  6  7  1  6
  6 17  1  0
  7  8  1  0
  8  9  1  0
  9 10  2  0
  9 11  1  0
 11 12  1  0
 12 13  1  0
 12 14  1  0
 14 15  1  0
 14 16  1  0
 17 18  1  0
 18 19  1  0
 19 20  1  1
 19 26  1  0
 20 21  1  0
 21 22  2  0
 21 23  1  0
 23 24  1  0
 24 25  1  0
 26 27  1  0
M  END
