
     RDKit          3D

 16 16  0  0  0  0  0  0  0  0999 V2000
   -4.0780   -1.6630   -1.0400 C   0  0  0  0  0  0  0  0  0  0  0  0
   -3.7670   -0.4910   -0.5680 C   0  0  0  0  0  0  0  0  0  0  0  0
   -3.2120   -0.2190    0.7940 C   0  0  0  0  0  0  0  0  0  0  0  0
   -1.9040    0.3810    0.5860 N   0  0  0  0  0  0  0  0  0  0  0  0
   -0.8610   -0.5120    0.0900 C   0  0  0  0  0  0  0  0  0  0  0  0
    0.3360    0.1260   -0.0840 O   0  0  0  0  0  0  0  0  0  0  0  0
    1.6200   -0.3440   -0.5330 S   0  0  0  0  0  0  0  0  0  0  0  0
    2.0020   -0.7320   -2.2100 O   0  0  0  0  0  0  0  0  0  0  0  0
    1.2730   -1.8840   -0.4520 O   0  0  0  0  0  0  0  0  0  0  0  0
    2.9800   -0.7370    0.4530 O   0  0  0  0  0  0  0  0  0  0  0  0
    4.0820   -0.7270   -0.2250 O   0  0  0  0  0  0  0  0  0  0  0  0
    4.9460    0.0690    0.4890 N   0  0  0  0  0  0  0  0  0  0  0  0
    5.2970    1.1820   -0.2440 N   0  0  0  0  0  0  0  0  0  0  0  0
   -1.7270    1.7480    0.8460 C   0  0  0  0  0  0  0  0  0  0  0  0
   -1.5040    2.9800    0.4130 C   0  0  0  0  0  0  0  0  0  0  0  0
   -1.6620    2.7780    1.7460 O   0  0  0  0  0  0  0  0  0  0  0  0
  1  2  2  0
  2  3  1  0
  3  4  1  0
  4  5  1  0
  4 14  1  0
  5  6  1  0
  6  7  1  0
  7  8  2  0
  7  9  1  0
  7 10  1  0
 10 11  1  0
 11 12  1  0
 12 13  1  0
 14 15  2  0
 14 16  1  0
 15 16  1  0
M  END
