
     RDKit          3D

 16 15  0  0  0  0  0  0  0  0999 V2000
    6.4090    1.6950   -0.0400 C   0  0  0  0  0  0  0  0  0  0  0  0
    5.4300    0.8570    0.1600 C   0  0  0  0  0  0  0  0  0  0  0  0
    4.3090    0.8800   -0.6830 O   0  0  0  0  0  0  0  0  0  0  0  0
    3.2780    0.0100   -0.4860 C   0  0  0  0  0  0  0  0  0  0  0  0
    3.3880   -0.8080    0.4870 O   0  0  0  0  0  0  0  0  0  0  0  0
    2.1250   -0.0620   -1.2460 O   0  0  0  0  0  0  0  0  0  0  0  0
    1.1330   -0.9780   -0.9680 N   0  0  0  0  0  0  0  0  0  0  0  0
   -0.1910   -0.5300   -0.6180 C   0  0  0  0  0  0  0  0  0  0  0  0
   -0.4790    0.7130   -0.5550 O   0  0  0  0  0  0  0  0  0  0  0  0
   -1.1980   -1.4170   -0.3370 O   0  0  0  0  0  0  0  0  0  0  0  0
   -2.5220   -0.9800    0.0160 C   0  0  0  0  0  0  0  0  0  0  0  0
   -3.3850   -2.0830    0.2590 N   0  0  0  0  0  0  0  0  0  0  0  0
   -4.6430   -2.1130    0.3630 C   0  0  0  0  0  0  0  0  0  0  0  0
   -5.3430   -0.9220    0.2320 O   0  0  0  0  0  0  0  0  0  0  0  0
   -4.7580    0.4340    1.1910 S   0  0  0  0  0  0  0  0  0  0  0  0
   -4.8200    1.9350    0.3090 N   0  0  0  0  0  0  0  0  0  0  0  0
  1  2  2  0
  2  3  1  0
  3  4  1  0
  4  5  2  0
  4  6  1  0
  6  7  1  0
  7  8  1  0
  8  9  2  0
  8 10  1  0
 10 11  1  0
 11 12  1  0
 12 13  2  3
 13 14  1  0
 14 15  1  0
 15 16  1  0
M  END
