
     RDKit          3D

 15 16  0  0  0  0  0  0  0  0999 V2000
   -1.3040    2.5180   -0.2360 C   0  0  0  0  0  0  0  0  0  0  0  0
   -0.1360    1.6500   -0.1110 N   0  0  0  0  0  0  0  0  0  0  0  0
   -0.5300    0.2860    0.1870 C   0  0  2  0  0  0  0  0  0  0  0  0
    0.5620   -0.5160    0.4860 O   0  0  0  0  0  0  0  0  0  0  0  0
    1.5700   -0.4920   -0.8980 S   0  0  0  0  0  0  0  0  0  0  0  0
    2.4910    1.0050    0.5700 O   0  0  0  0  0  0  0  0  0  0  0  0
    1.9830   -1.1370   -1.2660 O   0  0  0  0  0  0  0  0  0  0  0  0
    3.1200   -0.9380   -0.7000 C   0  0  0  0  0  0  0  0  0  0  0  0
    4.3720   -1.4410   -0.6540 C   0  0  0  0  0  0  0  0  0  0  0  0
    5.2940   -0.8250    0.1720 O   0  0  0  0  0  0  0  0  0  0  0  0
   -1.3640   -0.2980   -0.9440 C   0  0  0  0  0  0  0  0  0  0  0  0
   -2.6710    0.0560   -0.5560 O   0  0  0  0  0  0  0  0  0  0  0  0
   -2.6910   -0.1170    0.7680 N   0  0  0  0  0  0  0  0  0  0  0  0
   -3.0280   -1.4760    1.1510 C   0  0  0  0  0  0  0  0  0  0  0  0
   -1.4590    0.2850    1.2750 N   0  0  0  0  0  0  0  0  0  0  0  0
  1  2  1  0
  3  2  1  6
  3  4  1  0
  3 11  1  0
  3 15  1  0
  4  5  1  0
  5  6  2  0
  5  7  1  0
  5  8  1  0
  7  8  1  0
  8  9  2  3
  9 10  1  0
 11 12  1  0
 12 13  1  0
 13 14  1  0
 13 15  1  0
M  END
