
     RDKit          3D

 16 15  0  0  0  0  0  0  0  0999 V2000
    5.1390    1.0100   -1.2690 C   0  0  0  0  0  0  0  0  0  0  0  0
    4.6210   -0.3150   -0.6050 S   0  0  0  0  0  0  0  0  0  0  0  0
    5.5830   -0.9330    0.6080 O   0  0  0  0  0  0  0  0  0  0  0  0
    5.1020   -2.1010    0.9800 O   0  0  0  0  0  0  0  0  0  0  0  0
    2.9630   -0.4220   -0.3520 O   0  0  0  0  0  0  0  0  0  0  0  0
    2.0520    0.6140   -0.4460 C   0  0  0  0  0  0  0  0  0  0  0  0
    2.5140    1.7480   -0.7510 O   0  0  0  0  0  0  0  0  0  0  0  0
    0.6320    0.4080   -0.2060 C   0  0  0  0  0  0  0  0  0  0  0  0
    0.2190   -0.7310    0.0930 O   0  0  0  0  0  0  0  0  0  0  0  0
   -0.2630    1.4410   -0.3010 O   0  0  0  0  0  0  0  0  0  0  0  0
   -1.6230    1.2250   -0.0670 C   0  0  0  0  0  0  0  0  0  0  0  0
   -2.5310    2.3100   -0.1710 N   0  0  0  0  0  0  0  0  0  0  0  0
   -1.9920    0.0320    0.2380 N   0  0  0  0  0  0  0  0  0  0  0  0
   -3.3470   -0.3040    0.4970 C   0  0  0  0  0  0  0  0  0  0  0  0
   -3.6290   -1.5820    0.5350 N   0  0  0  0  0  0  0  0  0  0  0  0
   -4.9750   -2.0580    0.7910 C   0  0  0  0  0  0  0  0  0  0  0  0
  1  2  2  0
  2  3  1  1
  2  5  1  0
  3  4  1  0
  5  6  1  0
  6  7  2  0
  6  8  1  0
  8  9  2  0
  8 10  1  0
 10 11  1  0
 11 12  1  0
 11 13  2  3
 13 14  1  0
 14 15  2  3
 15 16  1  0
M  END
