
     RDKit          3D

 11 11  0  0  0  0  0  0  0  0999 V2000
   -3.7070   -0.7170   -1.0480 C   0  0  0  0  0  0  0  0  0  0  0  0
   -2.3950   -0.6850   -0.5770 O   0  0  0  0  0  0  0  0  0  0  0  0
   -1.9750    0.6390   -0.4930 C   0  0  0  0  0  0  0  0  0  0  0  0
   -0.5730    0.7740    0.0050 C   0  0  1  0  0  0  0  0  0  0  0  0
   -0.3620    0.2600    1.2520 O   0  0  0  0  0  0  0  0  0  0  0  0
    0.9960   -0.0950    1.3340 C   0  0  0  0  0  0  0  0  0  0  0  0
    1.5090    0.3240   -0.0120 C   0  0  1  0  0  0  0  0  0  0  0  0
    2.6680   -0.5090   -0.4720 C   0  0  2  0  0  0  0  0  0  0  0  0
    3.7360   -0.2420    0.3830 O   0  0  0  0  0  0  0  0  0  0  0  0
    3.0160   -0.2960   -1.7820 O   0  0  0  0  0  0  0  0  0  0  0  0
    0.3650    0.1380   -0.8060 O   0  0  0  0  0  0  0  0  0  0  0  0
  1  2  1  0
  2  3  1  0
  4  3  1  6
  4  5  1  0
  4 11  1  0
  5  6  1  0
  7  6  1  1
  7  8  1  0
  7 11  1  0
  8  9  1  1
  8 10  1  0
M  END
