
     RDKit          3D

 12 11  0  0  0  0  0  0  0  0999 V2000
   -2.4930    0.9660   -0.2470 C   0  0  0  0  0  0  0  0  0  0  0  0
   -1.3580   -0.0300   -0.3770 C   0  0  1  0  0  0  0  0  0  0  0  0
   -1.8470   -1.4460   -0.0900 C   0  0  0  0  0  0  0  0  0  0  0  0
   -0.9230   -0.0040   -1.6760 O   0  0  0  0  0  0  0  0  0  0  0  0
   -0.3110    0.3480    0.6270 C   0  0  1  0  0  0  0  0  0  0  0  0
   -0.8920    0.2830    1.9040 O   0  0  0  0  0  0  0  0  0  0  0  0
    0.8220   -0.4390    0.5850 O   0  0  0  0  0  0  0  0  0  0  0  0
    1.9420    0.3370    0.4350 C   0  0  1  0  0  0  0  0  0  0  0  0
    2.8190    0.1860    1.5350 O   0  0  0  0  0  0  0  0  0  0  0  0
    2.6720   -0.0560   -0.7840 C   0  0  0  0  0  0  0  0  0  0  0  0
    2.1380   -0.0070   -1.9140 O   0  0  0  0  0  0  0  0  0  0  0  0
    3.9940   -0.5030   -0.7400 O   0  0  0  0  0  0  0  0  0  0  0  0
  2  1  1  6
  2  3  1  0
  2  4  1  0
  2  5  1  0
  5  6  1  1
  5  7  1  0
  7  8  1  0
  8  9  1  1
  8 10  1  0
 10 11  2  0
 10 12  1  0
M  END
