
     RDKit          3D

 11 11  0  0  0  0  0  0  0  0999 V2000
    2.9120    1.5680    0.0490 O   0  0  0  0  0  0  0  0  0  0  0  0
    2.0790    0.4880    0.3020 C   0  0  2  0  0  0  0  0  0  0  0  0
    2.7210   -0.7300    0.0800 O   0  0  0  0  0  0  0  0  0  0  0  0
    0.8860    0.5200   -0.6490 C   0  0  0  0  0  0  0  0  0  0  0  0
    0.0120   -0.6770   -0.3300 C   0  0  2  0  0  0  0  0  0  0  0  0
    0.7320   -1.8570   -0.5060 O   0  0  0  0  0  0  0  0  0  0  0  0
   -1.1330   -0.7070   -1.3260 C   0  0  0  0  0  0  0  0  0  0  0  0
   -1.8760    0.4580   -1.1140 O   0  0  0  0  0  0  0  0  0  0  0  0
   -2.4860    0.3220    0.1320 C   0  0  0  0  0  0  0  0  0  0  0  0
   -1.4280    0.2770    1.2100 C   0  0  0  0  0  0  0  0  0  0  0  0
   -0.4510   -0.6510    0.9590 O   0  0  0  0  0  0  0  0  0  0  0  0
  2  1  1  6
  2  3  1  0
  2  4  1  0
  4  5  1  0
  5  6  1  1
  5  7  1  0
  5 11  1  0
  7  8  1  0
  8  9  1  0
  9 10  1  0
 10 11  1  0
M  END
