
     RDKit          3D

 12 11  0  0  0  0  0  0  0  0999 V2000
    2.9910    1.0240   -1.2640 C   0  0  0  0  0  0  0  0  0  0  0  0
    3.1280   -0.2280   -0.7240 O   0  0  0  0  0  0  0  0  0  0  0  0
    2.1160   -0.5970    0.1290 C   0  0  0  0  0  0  0  0  0  0  0  0
    0.7930   -0.5900   -0.5880 C   0  0  1  0  0  0  0  0  0  0  0  0
    0.8790   -1.4960   -1.6400 O   0  0  0  0  0  0  0  0  0  0  0  0
   -0.2400   -0.9570    0.2810 O   0  0  0  0  0  0  0  0  0  0  0  0
   -1.1590    0.0540    0.4480 C   0  0  2  0  0  0  0  0  0  0  0  0
   -1.3900    0.4210    1.8900 C   0  0  0  0  0  0  0  0  0  0  0  0
   -0.2350    0.8570    2.5200 O   0  0  0  0  0  0  0  0  0  0  0  0
   -2.4980   -0.4710   -0.0860 C   0  0  1  0  0  0  0  0  0  0  0  0
   -3.4580    0.5310    0.0680 O   0  0  0  0  0  0  0  0  0  0  0  0
   -2.4020   -0.8820   -1.3970 O   0  0  0  0  0  0  0  0  0  0  0  0
  1  2  1  0
  2  3  1  0
  3  4  1  0
  4  5  1  6
  4  6  1  0
  6  7  1  0
  7  8  1  1
  7 10  1  0
  8  9  1  0
 10 11  1  6
 10 12  1  0
M  END
