
     RDKit          3D

 11 10  0  0  0  0  0  0  0  0999 V2000
   -2.1720   -2.0730   -0.3750 C   0  0  0  0  0  0  0  0  0  0  0  0
   -1.4750   -0.8830   -0.5840 O   0  0  0  0  0  0  0  0  0  0  0  0
   -0.8690   -0.5330    0.5940 C   0  0  0  0  0  0  0  0  0  0  0  0
   -0.0720    0.7260    0.5570 C   0  0  2  0  0  0  0  0  0  0  0  0
    0.4560    0.9310    1.8480 O   0  0  0  0  0  0  0  0  0  0  0  0
   -0.9480    1.9190    0.2660 C   0  0  0  0  0  0  0  0  0  0  0  0
   -0.1600    3.0860    0.3170 O   0  0  0  0  0  0  0  0  0  0  0  0
    1.0850    0.6050   -0.3820 C   0  0  1  0  0  0  0  0  0  0  0  0
    1.8750    1.7660   -0.3950 O   0  0  0  0  0  0  0  0  0  0  0  0
    1.8460   -0.5070   -0.0370 O   0  0  0  0  0  0  0  0  0  0  0  0
    1.9710   -1.4490   -1.0260 C   0  0  0  0  0  0  0  0  0  0  0  0
  1  2  1  0
  2  3  1  0
  3  4  1  0
  4  5  1  1
  4  6  1  0
  4  8  1  0
  6  7  1  0
  8  9  1  1
  8 10  1  0
 10 11  1  0
M  END
