
     RDKit          3D

 11 10  0  0  0  0  0  0  0  0999 V2000
   -0.4360   -0.8120    1.5800 C   0  0  0  0  0  0  0  0  0  0  0  0
    0.1350   -0.0870    0.3550 C   0  0  1  0  0  0  0  0  0  0  0  0
   -0.3310    1.3610    0.5120 C   0  0  0  0  0  0  0  0  0  0  0  0
    0.0990    1.7850    1.7920 O   0  0  0  0  0  0  0  0  0  0  0  0
    1.4920   -0.2080    0.4530 O   0  0  0  0  0  0  0  0  0  0  0  0
    2.2700    0.3480   -0.5050 C   0  0  0  0  0  0  0  0  0  0  0  0
    3.6130    0.0690   -0.1440 O   0  0  0  0  0  0  0  0  0  0  0  0
   -0.4920   -0.7130   -0.8310 C   0  0  2  0  0  0  0  0  0  0  0  0
   -0.0980   -0.2630   -2.0650 O   0  0  0  0  0  0  0  0  0  0  0  0
   -1.9960   -0.5610   -0.7420 C   0  0  0  0  0  0  0  0  0  0  0  0
   -2.5640   -1.3460   -1.7740 O   0  0  0  0  0  0  0  0  0  0  0  0
  2  1  1  1
  2  3  1  0
  2  5  1  0
  2  8  1  0
  3  4  1  0
  5  6  1  0
  6  7  1  0
  8  9  1  6
  8 10  1  0
 10 11  1  0
M  END
