
     RDKit          3D

 10  9  0  0  0  0  0  0  0  0999 V2000
    3.1160    0.8200   -0.2350 O   0  0  0  0  0  0  0  0  0  0  0  0
    2.9760   -0.0350    0.6750 C   0  0  0  0  0  0  0  0  0  0  0  0
    4.1270   -0.6320    1.1600 O   0  0  0  0  0  0  0  0  0  0  0  0
    1.7010   -0.3380    1.1460 O   0  0  0  0  0  0  0  0  0  0  0  0
    0.5560    0.2600    0.6590 C   0  0  0  0  0  0  0  0  0  0  0  0
    0.7170    1.1200   -0.2580 O   0  0  0  0  0  0  0  0  0  0  0  0
   -0.7170   -0.0360    1.1220 O   0  0  0  0  0  0  0  0  0  0  0  0
   -1.7430    0.6250    0.5560 O   0  0  0  0  0  0  0  0  0  0  0  0
   -2.7620   -0.2910    0.2950 C   0  0  0  0  0  0  0  0  0  0  0  0
   -3.8410    0.3770   -0.2960 O   0  0  0  0  0  0  0  0  0  0  0  0
  1  2  2  0
  2  3  1  0
  2  4  1  0
  4  5  1  0
  5  6  2  0
  5  7  1  0
  7  8  1  0
  8  9  1  0
  9 10  1  0
M  END
