
     RDKit          3D

 11 10  0  0  0  0  0  0  0  0999 V2000
   -4.6630   -0.6070   -0.0370 O   0  0  0  0  0  0  0  0  0  0  0  0
   -3.6150   -0.8790   -0.7990 O   0  0  0  0  0  0  0  0  0  0  0  0
   -2.8030    0.2480   -0.7820 C   0  0  0  0  0  0  0  0  0  0  0  0
   -1.6430    0.0030    0.1790 C   0  0  0  0  0  0  0  0  0  0  0  0
   -0.8330    1.1440    0.0720 O   0  0  0  0  0  0  0  0  0  0  0  0
    0.2960    0.7910   -0.5290 O   0  0  0  0  0  0  0  0  0  0  0  0
    1.0810    0.2090    0.4780 C   0  0  0  0  0  0  0  0  0  0  0  0
    2.4210   -0.2550   -0.0590 C   0  0  0  0  0  0  0  0  0  0  0  0
    3.0870   -0.9100    0.9650 O   0  0  0  0  0  0  0  0  0  0  0  0
    4.0860   -0.1430    1.3730 O   0  0  0  0  0  0  0  0  0  0  0  0
    4.8300    0.1250    0.3160 O   0  0  0  0  0  0  0  0  0  0  0  0
  1  2  1  0
  2  3  1  0
  3  4  1  0
  4  5  1  0
  5  6  1  0
  6  7  1  0
  7  8  1  0
  8  9  1  0
  9 10  1  0
 10 11  1  0
M  END
