
     RDKit          3D

 16 16  0  0  0  0  0  0  0  0999 V2000
   -3.7500   -1.2350    0.5180 C   0  0  0  0  0  0  0  0  0  0  0  0
   -3.1670   -0.0760    0.6040 C   0  0  0  0  0  0  0  0  0  0  0  0
   -4.0570    1.5390    0.7350 P   0  0  0  0  0  0  0  0  0  0  0  0
   -2.5920    2.4550    0.0480 C   0  0  0  0  0  0  0  0  0  0  0  0
   -2.5790    3.5700   -0.5250 O   0  0  0  0  0  0  0  0  0  0  0  0
   -1.4930    1.5580    0.3430 C   0  0  0  0  0  0  0  0  0  0  0  0
   -1.7680    0.3180    0.6160 C   0  0  0  0  0  0  0  0  0  0  0  0
   -0.7840   -0.6770    0.9270 O   0  0  0  0  0  0  0  0  0  0  0  0
    0.1360   -1.0840    0.0010 N   0  0  0  0  0  0  0  0  0  0  0  0
    1.4390   -0.5180    0.0370 C   0  0  0  0  0  0  0  0  0  0  0  0
    1.7900    0.3520    0.8920 O   0  0  0  0  0  0  0  0  0  0  0  0
    2.4310   -0.9720   -0.9790 C   0  0  0  0  0  0  0  0  0  0  0  0
    3.6640   -0.2960   -0.7920 O   0  0  0  0  0  0  0  0  0  0  0  0
    4.3840   -0.3800    0.3820 C   0  0  0  0  0  0  0  0  0  0  0  0
    3.9490   -1.0800    1.3380 O   0  0  0  0  0  0  0  0  0  0  0  0
    5.5840    0.2880    0.5480 O   0  0  0  0  0  0  0  0  0  0  0  0
  1  2  2  0
  2  3  1  0
  2  7  1  0
  3  4  1  0
  4  5  2  0
  4  6  1  0
  6  7  2  0
  7  8  1  0
  8  9  1  0
  9 10  1  0
 10 11  2  0
 10 12  1  0
 12 13  1  0
 13 14  1  0
 14 15  2  0
 14 16  1  0
M  END
