
     RDKit          3D

 11 10  0  0  0  0  0  0  0  0999 V2000
    3.7450   -2.0060   -0.5690 O   0  0  0  0  0  0  0  0  0  0  0  0
    3.5480   -0.7880   -0.3830 C   0  0  0  0  0  0  0  0  0  0  0  0
    4.6420    0.0940   -0.4610 O   0  0  0  0  0  0  0  0  0  0  0  0
    2.2730   -0.3590   -0.1090 O   0  0  0  0  0  0  0  0  0  0  0  0
    1.2800   -1.2600   -0.0500 O   0  0  0  0  0  0  0  0  0  0  0  0
    0.2350   -0.5990    0.6590 C   0  0  0  0  0  0  0  0  0  0  0  0
   -0.0650    0.5020   -0.0950 O   0  0  0  0  0  0  0  0  0  0  0  0
   -1.0530    1.3290    0.3790 C   0  0  0  0  0  0  0  0  0  0  0  0
   -2.3460    0.5920    0.4780 C   0  0  0  0  0  0  0  0  0  0  0  0
   -2.6740    0.1350   -0.7990 O   0  0  0  0  0  0  0  0  0  0  0  0
   -3.7960   -0.5150   -0.7630 O   0  0  0  0  0  0  0  0  0  0  0  0
  1  2  2  0
  2  3  1  0
  2  4  1  0
  4  5  1  0
  5  6  1  0
  6  7  1  0
  7  8  1  0
  8  9  1  0
  9 10  1  0
 10 11  1  0
M  END
