
     RDKit          3D

 11 10  0  0  0  0  0  0  0  0999 V2000
   -2.1250    1.9050   -0.1280 O   0  0  0  0  0  0  0  0  0  0  0  0
   -2.6760    0.6300   -0.3060 C   0  0  0  0  0  0  0  0  0  0  0  0
   -1.5480   -0.3670   -0.5460 C   0  0  2  0  0  0  0  0  0  0  0  0
   -2.1030   -1.6390   -0.5330 O   0  0  0  0  0  0  0  0  0  0  0  0
   -0.6020   -0.2380    0.6120 C   0  0  0  0  0  0  0  0  0  0  0  0
    0.6520   -0.7810    0.3640 O   0  0  0  0  0  0  0  0  0  0  0  0
    1.2790   -0.8000    1.5310 O   0  0  0  0  0  0  0  0  0  0  0  0
    2.4590   -1.3460    1.4640 O   0  0  0  0  0  0  0  0  0  0  0  0
    3.7010   -0.1850    1.0820 P   0  0  0  0  0  0  0  0  0  0  0  0
    4.4020   -0.7100   -0.4290 O   0  0  0  0  0  0  0  0  0  0  0  0
    3.0510    1.3970    0.8490 O   0  0  0  0  0  0  0  0  0  0  0  0
  1  2  1  0
  2  3  1  0
  3  4  1  1
  3  5  1  0
  5  6  1  0
  6  7  1  0
  7  8  1  0
  8  9  1  0
  9 10  1  0
  9 11  1  0
M  END
