
     RDKit          3D

 11 11  0  0  0  0  0  0  0  0999 V2000
    2.9800   -0.3740   -1.5030 O   0  0  0  0  0  0  0  0  0  0  0  0
    1.6760   -0.5610   -1.5960 O   0  0  0  0  0  0  0  0  0  0  0  0
    1.1260   -0.0370   -0.5460 O   0  0  0  0  0  0  0  0  0  0  0  0
    1.3930   -0.7490    0.6010 C   0  0  0  0  0  0  0  0  0  0  0  0
    0.7350   -0.1010    1.7860 C   0  0  0  0  0  0  0  0  0  0  0  0
   -0.6080   -0.0180    1.6950 O   0  0  0  0  0  0  0  0  0  0  0  0
   -1.2010    0.7190    0.7350 C   0  0  1  0  0  0  0  0  0  0  0  0
   -2.1210   -0.1920   -0.1080 C   0  0  0  0  0  0  0  0  0  0  0  0
   -3.0720    0.7130   -0.4990 O   0  0  0  0  0  0  0  0  0  0  0  0
   -3.0240    1.7570    0.2440 O   0  0  0  0  0  0  0  0  0  0  0  0
   -2.1990    1.5830    1.2210 O   0  0  0  0  0  0  0  0  0  0  0  0
  1  2  1  0
  2  3  1  0
  3  4  1  0
  4  5  1  0
  5  6  1  0
  7  6  1  1
  7  8  1  0
  7 11  1  0
  8  9  1  0
  9 10  1  0
 10 11  1  0
M  END
