
     RDKit          3D

 11 11  0  0  0  0  0  0  0  0999 V2000
   -1.8940    1.2660    1.7480 O   0  0  0  0  0  0  0  0  0  0  0  0
   -1.7630    0.3250    0.9490 C   0  0  0  0  0  0  0  0  0  0  0  0
   -2.5390   -0.8200    0.9130 O   0  0  0  0  0  0  0  0  0  0  0  0
   -2.2010   -1.5630   -0.1650 O   0  0  0  0  0  0  0  0  0  0  0  0
   -0.8470   -1.3340   -0.3570 C   0  0  0  0  0  0  0  0  0  0  0  0
   -0.7870    0.1840   -0.1270 C   0  0  1  0  0  0  0  0  0  0  0  0
   -1.1470    0.8340   -1.2810 O   0  0  0  0  0  0  0  0  0  0  0  0
    0.6240    0.5260    0.2790 C   0  0  0  0  0  0  0  0  0  0  0  0
    1.4520    0.1190   -0.7860 O   0  0  0  0  0  0  0  0  0  0  0  0
    2.7200    0.3730   -0.5350 O   0  0  0  0  0  0  0  0  0  0  0  0
    2.8870    0.2370    0.7580 O   0  0  0  0  0  0  0  0  0  0  0  0
  1  2  2  0
  2  3  1  0
  2  6  1  0
  3  4  1  0
  4  5  1  0
  5  6  1  0
  6  7  1  6
  6  8  1  0
  8  9  1  0
  9 10  1  0
 10 11  1  0
M  END
