
     RDKit          3D

 33 34  0  0  0  0  0  0  0  0999 V2000
    8.0220    1.6590   -0.3630 C   0  0  0  0  0  0  0  0  0  0  0  0
    6.6470    1.0500   -0.3710 C   0  0  0  0  0  0  0  0  0  0  0  0
    6.5710   -0.3120   -0.3750 N   0  0  0  0  0  0  0  0  0  0  0  0
    5.4030   -1.0890   -0.2170 C   0  0  0  0  0  0  0  0  0  0  0  0
    4.7590   -1.1710    1.0760 C   0  0  0  0  0  0  0  0  0  0  0  0
    3.9710   -0.2230    1.8230 C   0  0  0  0  0  0  0  0  0  0  0  0
    2.5810    0.0820    1.4240 C   0  0  0  0  0  0  0  0  0  0  0  0
    1.5750   -0.7030    2.0840 C   0  0  0  0  0  0  0  0  0  0  0  0
    0.2520   -0.5590    1.8060 C   0  0  0  0  0  0  0  0  0  0  0  0
   -0.2210    0.3470    0.8740 C   0  0  0  0  0  0  0  0  0  0  0  0
   -1.6510    0.4300    0.6550 C   0  0  0  0  0  0  0  0  0  0  0  0
   -2.4210   -0.3500    1.3370 O   0  0  0  0  0  0  0  0  0  0  0  0
   -2.3450    1.2760   -0.2320 N   0  0  0  0  0  0  0  0  0  0  0  0
   -3.8050    1.2490   -0.3390 C   0  0  0  0  0  0  0  0  0  0  0  0
   -4.3010   -0.0840   -0.7560 C   0  0  0  0  0  0  0  0  0  0  0  0
   -3.4610   -0.9810   -0.9780 O   0  0  0  0  0  0  0  0  0  0  0  0
   -5.6610   -0.3750   -0.9070 N   0  0  0  0  0  0  0  0  0  0  0  0
   -6.1570   -1.6650   -1.3050 C   0  0  0  0  0  0  0  0  0  0  0  0
   -7.2340   -2.1820   -0.4020 C   0  0  0  0  0  0  0  0  0  0  0  0
   -8.1870   -1.1610    0.1170 C   0  0  0  0  0  0  0  0  0  0  0  0
   -7.4650    0.0720    0.5370 C   0  0  2  0  0  0  0  0  0  0  0  0
   -8.2710    1.0780    1.2790 C   0  0  0  0  0  0  0  0  0  0  0  0
   -8.7430    0.4370    2.4450 O   0  0  0  0  0  0  0  0  0  0  0  0
   -6.7180    0.6240   -0.6590 C   0  0  2  0  0  0  0  0  0  0  0  0
   -7.5750    0.6510   -1.8970 C   0  0  0  0  0  0  0  0  0  0  0  0
   -8.6210    1.5650   -1.8000 O   0  0  0  0  0  0  0  0  0  0  0  0
    0.7300    1.1210    0.2190 C   0  0  0  0  0  0  0  0  0  0  0  0
    0.4460    2.0130   -0.6800 O   0  0  0  0  0  0  0  0  0  0  0  0
    2.1130    0.9540    0.5260 C   0  0  0  0  0  0  0  0  0  0  0  0
    3.0760    1.8590   -0.2010 C   0  0  0  0  0  0  0  0  0  0  0  0
    7.7550   -1.1160   -0.5570 C   0  0  1  0  0  0  0  0  0  0  0  0
    8.4710   -1.0010   -1.8360 C   0  0  0  0  0  0  0  0  0  0  0  0
    8.6060   -0.9970    0.6860 C   0  0  0  0  0  0  0  0  0  0  0  0
  1  2  1  0
  2  3  1  0
  3  4  1  0
  3 31  1  0
  4  5  1  0
  5  6  1  0
  6  7  1  0
  7  8  2  0
  7 29  1  0
  8  9  1  0
  9 10  2  0
 10 11  1  0
 10 27  1  0
 11 12  2  0
 11 13  1  0
 13 14  1  0
 14 15  1  0
 15 16  2  0
 15 17  1  0
 17 18  1  0
 17 24  1  0
 18 19  1  0
 19 20  1  0
 20 21  1  0
 21 22  1  6
 21 24  1  0
 22 23  1  0
 24 25  1  6
 25 26  1  0
 27 28  1  0
 27 29  2  0
 29 30  1  0
 31 32  1  6
 31 33  1  0
M  END
