
     RDKit          3D

 33 34  0  0  0  0  0  0  0  0999 V2000
   -8.0330    3.8020    0.6570 C   0  0  0  0  0  0  0  0  0  0  0  0
   -6.6120    3.5760    1.0590 C   0  0  0  0  0  0  0  0  0  0  0  0
   -5.9150    2.6000    0.1970 C   0  0  0  0  0  0  0  0  0  0  0  0
   -5.0170    2.9440   -0.7470 N   0  0  0  0  0  0  0  0  0  0  0  0
   -4.3930    1.9910   -1.5050 C   0  0  0  0  0  0  0  0  0  0  0  0
   -3.5690    2.4050   -2.3620 O   0  0  0  0  0  0  0  0  0  0  0  0
   -4.6570    0.6610   -1.3340 C   0  0  0  0  0  0  0  0  0  0  0  0
   -3.9700   -0.3940   -2.1080 C   0  0  0  0  0  0  0  0  0  0  0  0
   -2.5810   -0.5550   -1.5030 C   0  0  0  0  0  0  0  0  0  0  0  0
   -1.8360    0.4290   -1.6660 O   0  0  0  0  0  0  0  0  0  0  0  0
   -2.2360   -1.7420   -0.8250 N   0  0  0  0  0  0  0  0  0  0  0  0
   -0.9880   -1.9730   -0.2300 C   0  0  0  0  0  0  0  0  0  0  0  0
    0.0450   -1.1060   -0.3320 C   0  0  0  0  0  0  0  0  0  0  0  0
    1.2510   -1.4130    0.3040 C   0  0  0  0  0  0  0  0  0  0  0  0
    2.3980   -0.4820    0.1740 C   0  0  1  0  0  0  0  0  0  0  0  0
    2.1720    0.7200    1.0930 C   0  0  0  0  0  0  0  0  0  0  0  0
    3.6320   -1.1650    0.6520 C   0  0  0  0  0  0  0  0  0  0  0  0
    4.8670   -0.2990    0.5420 C   0  0  0  0  0  0  0  0  0  0  0  0
    4.7780    0.8520    0.0910 O   0  0  0  0  0  0  0  0  0  0  0  0
    6.0780   -0.8540    0.9650 N   0  0  0  0  0  0  0  0  0  0  0  0
    7.3660   -0.2600    0.9430 C   0  0  0  0  0  0  0  0  0  0  0  0
    8.0330    0.0440   -0.3230 C   0  0  1  0  0  0  0  0  0  0  0  0
    8.1110   -1.1540   -1.0810 O   0  0  0  0  0  0  0  0  0  0  0  0
    7.5610    1.2090   -1.0770 C   0  0  0  0  0  0  0  0  0  0  0  0
    7.7140    2.4520   -0.1930 C   0  0  0  0  0  0  0  0  0  0  0  0
    1.3720   -2.5810    1.0190 C   0  0  0  0  0  0  0  0  0  0  0  0
    0.3010   -3.4640    1.1140 C   0  0  0  0  0  0  0  0  0  0  0  0
   -0.8820   -3.1780    0.4990 C   0  0  0  0  0  0  0  0  0  0  0  0
   -1.9880   -4.0500    0.5750 O   0  0  0  0  0  0  0  0  0  0  0  0
   -1.8120   -5.2350    1.3190 C   0  0  0  0  0  0  0  0  0  0  0  0
   -5.5710    0.2780   -0.3780 C   0  0  0  0  0  0  0  0  0  0  0  0
   -6.1900    1.2660    0.3780 C   0  0  0  0  0  0  0  0  0  0  0  0
   -7.1500    0.8460    1.3940 C   0  0  0  0  0  0  0  0  0  0  0  0
  1  2  1  0
  2  3  1  0
  3  4  1  0
  3 32  2  0
  4  5  1  0
  5  6  2  0
  5  7  1  0
  7  8  1  0
  7 31  2  0
  8  9  1  0
  9 10  2  0
  9 11  1  0
 11 12  1  0
 12 13  2  0
 12 28  1  0
 13 14  1  0
 14 15  1  0
 14 26  2  0
 15 16  1  1
 15 17  1  0
 17 18  1  0
 18 19  2  0
 18 20  1  0
 20 21  1  0
 21 22  1  0
 22 23  1  6
 22 24  1  0
 24 25  1  0
 26 27  1  0
 27 28  2  0
 28 29  1  0
 29 30  1  0
 31 32  1  0
 32 33  1  0
M  END
