
     RDKit          3D

 32 36  0  0  0  0  0  0  0  0999 V2000
    7.2550    2.4830    1.5320 N   0  0  0  0  0  0  0  0  0  0  0  0
    6.9570    1.6640    0.5900 C   0  0  0  0  0  0  0  0  0  0  0  0
    7.9160    1.3050   -0.4720 C   0  0  0  0  0  0  0  0  0  0  0  0
    8.1370   -0.1280   -0.4240 N   0  0  0  0  0  0  0  0  0  0  0  0
    5.6170    1.0720    0.5790 C   0  0  0  0  0  0  0  0  0  0  0  0
    5.1540    0.2000   -0.3370 N   0  0  0  0  0  0  0  0  0  0  0  0
    3.8690   -0.1010    0.0160 C   0  0  0  0  0  0  0  0  0  0  0  0
    3.0540   -1.0730   -0.6750 C   0  0  0  0  0  0  0  0  0  0  0  0
    3.7590   -2.1190   -1.3120 C   0  0  0  0  0  0  0  0  0  0  0  0
    3.0940   -3.0960   -1.9850 C   0  0  0  0  0  0  0  0  0  0  0  0
    1.7220   -3.0580   -2.0410 C   0  0  0  0  0  0  0  0  0  0  0  0
    1.0370   -2.0450   -1.4260 C   0  0  0  0  0  0  0  0  0  0  0  0
    1.7040   -1.0370   -0.7360 C   0  0  0  0  0  0  0  0  0  0  0  0
    0.9450    0.1080   -0.2100 C   0  0  0  0  0  0  0  0  0  0  0  0
   -0.3700    0.1110   -0.1090 C   0  0  0  0  0  0  0  0  0  0  0  0
   -1.0420    1.2740    0.4180 N   0  0  0  0  0  0  0  0  0  0  0  0
   -0.4170    2.4010    0.8330 C   0  0  0  0  0  0  0  0  0  0  0  0
   -1.3580    3.3030    1.2730 C   0  0  0  0  0  0  0  0  0  0  0  0
   -2.5780    2.6930    1.1140 C   0  0  0  0  0  0  0  0  0  0  0  0
   -2.3550    1.4360    0.5830 C   0  0  0  0  0  0  0  0  0  0  0  0
   -3.4410    0.5120    0.2870 C   0  0  0  0  0  0  0  0  0  0  0  0
   -3.2790   -0.7130   -0.2270 N   0  0  0  0  0  0  0  0  0  0  0  0
   -4.2810   -1.5610   -0.4990 C   0  0  0  0  0  0  0  0  0  0  0  0
   -5.5920   -1.1920   -0.2480 C   0  0  0  0  0  0  0  0  0  0  0  0
   -5.7770    0.0590    0.2780 C   0  0  0  0  0  0  0  0  0  0  0  0
   -4.7400    0.8640    0.5290 N   0  0  0  0  0  0  0  0  0  0  0  0
   -7.1550    0.5070    0.5660 C   0  0  0  0  0  0  0  0  0  0  0  0
   -8.0620   -0.6470    0.9040 C   0  0  0  0  0  0  0  0  0  0  0  0
   -8.0000   -1.7780   -0.0500 C   0  0  0  0  0  0  0  0  0  0  0  0
   -6.6600   -2.1420   -0.5560 C   0  0  0  0  0  0  0  0  0  0  0  0
    3.5950    0.6000    1.1390 C   0  0  0  0  0  0  0  0  0  0  0  0
    4.6790    1.3260    1.4860 N   0  0  0  0  0  0  0  0  0  0  0  0
  1  2  2  0
  2  3  1  0
  2  5  1  0
  3  4  1  0
  5  6  2  0
  5 32  1  0
  6  7  1  0
  7  8  1  0
  7 31  2  0
  8  9  2  0
  8 13  1  0
  9 10  1  0
 10 11  2  0
 11 12  1  0
 12 13  2  0
 13 14  1  0
 14 15  2  3
 15 16  1  0
 16 17  1  0
 16 20  1  0
 17 18  2  0
 18 19  1  0
 19 20  2  0
 20 21  1  0
 21 22  2  0
 21 26  1  0
 22 23  1  0
 23 24  2  0
 24 25  1  0
 24 30  1  0
 25 26  2  0
 25 27  1  0
 27 28  1  0
 28 29  1  0
 29 30  1  0
 31 32  1  0
M  CHG  1   4   1
M  END
