
     RDKit          3D

 33 34  0  0  0  0  0  0  0  0999 V2000
   -2.9270    0.1380   -1.0840 C   0  0  0  0  0  0  0  0  0  0  0  0
   -2.2530   -1.1710   -0.8760 C   0  0  2  0  0  0  0  0  0  0  0  0
   -3.1070   -2.3790   -0.8830 C   0  0  0  0  0  0  0  0  0  0  0  0
   -4.2260   -2.5250    0.0660 C   0  0  0  0  0  0  0  0  0  0  0  0
   -5.2990   -1.6090    0.1120 C   0  0  0  0  0  0  0  0  0  0  0  0
   -5.6380   -1.2620    1.3800 O   0  0  0  0  0  0  0  0  0  0  0  0
   -6.1040   -0.9900   -0.8070 N   0  0  0  0  0  0  0  0  0  0  0  0
   -5.9760   -1.1470   -2.2310 C   0  0  0  0  0  0  0  0  0  0  0  0
   -6.3790    0.2190   -2.8180 C   0  0  0  0  0  0  0  0  0  0  0  0
   -6.0040    1.2640   -1.9670 O   0  0  0  0  0  0  0  0  0  0  0  0
   -6.7950    1.2790   -0.8210 C   0  0  1  0  0  0  0  0  0  0  0  0
   -8.0330    2.1600   -1.0560 C   0  0  0  0  0  0  0  0  0  0  0  0
   -8.8630    2.2090    0.0540 O   0  0  0  0  0  0  0  0  0  0  0  0
   -7.2060   -0.1050   -0.3970 C   0  0  0  0  0  0  0  0  0  0  0  0
   -1.2060   -1.1110    0.1570 C   0  0  0  0  0  0  0  0  0  0  0  0
   -0.0450   -0.2270   -0.1350 C   0  0  0  0  0  0  0  0  0  0  0  0
    0.7200   -0.6470   -1.4110 C   0  0  1  0  0  0  0  0  0  0  0  0
    1.1380   -2.0610   -1.2600 C   0  0  0  0  0  0  0  0  0  0  0  0
    0.0580   -0.2500   -2.5850 N   0  0  0  0  0  0  0  0  0  0  0  0
    2.0170    0.2210   -1.3640 C   0  0  0  0  0  0  0  0  0  0  0  0
    2.0970    1.1820   -2.1310 O   0  0  0  0  0  0  0  0  0  0  0  0
    3.0250   -0.1400   -0.4630 N   0  0  0  0  0  0  0  0  0  0  0  0
    4.2800    0.5540   -0.3340 C   0  0  0  0  0  0  0  0  0  0  0  0
    4.6350    1.6120   -1.1020 C   0  0  0  0  0  0  0  0  0  0  0  0
    5.8670    2.2360   -0.9780 C   0  0  0  0  0  0  0  0  0  0  0  0
    6.8010    1.7740   -0.0300 C   0  0  0  0  0  0  0  0  0  0  0  0
    6.4410    0.6910    0.7560 C   0  0  0  0  0  0  0  0  0  0  0  0
    7.3530    0.2560    1.6540 O   0  0  0  0  0  0  0  0  0  0  0  0
    7.5860    0.6120    2.9610 C   0  0  2  0  0  0  0  0  0  0  0  0
    7.8700    2.0930    3.1810 C   0  0  0  0  0  0  0  0  0  0  0  0
    8.9100   -0.0800    3.4200 C   0  0  0  0  0  0  0  0  0  0  0  0
    6.5250    0.1680    3.9030 C   0  0  0  0  0  0  0  0  0  0  0  0
    5.1900    0.0900    0.6030 C   0  0  0  0  0  0  0  0  0  0  0  0
  2  1  1  1
  2  3  1  0
  2 15  1  0
  3  4  1  0
  4  5  1  0
  5  6  2  0
  5  7  1  0
  7  8  1  0
  7 14  1  0
  8  9  1  0
  9 10  1  0
 10 11  1  0
 11 12  1  6
 11 14  1  0
 12 13  1  0
 15 16  1  0
 16 17  1  0
 17 18  1  6
 17 19  1  0
 17 20  1  0
 20 21  2  0
 20 22  1  0
 22 23  1  0
 23 24  2  0
 23 33  1  0
 24 25  1  0
 25 26  2  0
 26 27  1  0
 27 28  1  0
 27 33  2  0
 28 29  1  0
 29 30  1  6
 29 31  1  0
 29 32  1  0
M  END
