
     RDKit          3D

 33 34  0  0  0  0  0  0  0  0999 V2000
   -5.2960    0.4900   -4.0180 C   0  0  0  0  0  0  0  0  0  0  0  0
   -5.7420    0.8150   -2.7190 O   0  0  0  0  0  0  0  0  0  0  0  0
   -4.8870    0.5950   -1.6490 C   0  0  0  0  0  0  0  0  0  0  0  0
   -3.6280    0.0710   -1.8360 C   0  0  0  0  0  0  0  0  0  0  0  0
   -2.7630   -0.1550   -0.7760 C   0  0  0  0  0  0  0  0  0  0  0  0
   -1.4160   -0.7160   -1.0370 C   0  0  2  0  0  0  0  0  0  0  0  0
   -1.4570   -1.8050   -1.8850 O   0  0  0  0  0  0  0  0  0  0  0  0
   -0.6260   -0.9600    0.2290 C   0  0  1  0  0  0  0  0  0  0  0  0
   -1.1840   -2.0700    1.0540 C   0  0  0  0  0  0  0  0  0  0  0  0
    0.7570   -1.2880   -0.1500 N   0  0  0  0  0  0  0  0  0  0  0  0
    1.7950   -0.3900    0.1550 C   0  0  0  0  0  0  0  0  0  0  0  0
    1.5960    0.6920    0.7400 O   0  0  0  0  0  0  0  0  0  0  0  0
    3.1910   -0.6880   -0.2060 N   0  0  0  0  0  0  0  0  0  0  0  0
    4.1800    0.2510    0.1260 C   0  0  0  0  0  0  0  0  0  0  0  0
    5.5680   -0.0100   -0.1060 C   0  0  0  0  0  0  0  0  0  0  0  0
    6.4440    1.0670    0.2070 C   0  0  0  0  0  0  0  0  0  0  0  0
    5.7890    2.3160    0.7060 C   0  0  0  0  0  0  0  0  0  0  0  0
    7.7940    1.0150    0.0750 C   0  0  0  0  0  0  0  0  0  0  0  0
    8.3620   -0.1330   -0.3850 C   0  0  0  0  0  0  0  0  0  0  0  0
    9.8370   -0.2090   -0.5380 C   0  0  0  0  0  0  0  0  0  0  0  0
    7.5810   -1.1990   -0.7020 C   0  0  0  0  0  0  0  0  0  0  0  0
    6.1860   -1.1300   -0.5590 C   0  0  0  0  0  0  0  0  0  0  0  0
    5.4630   -2.3880   -0.9000 C   0  0  0  0  0  0  0  0  0  0  0  0
   -3.1640    0.1500    0.5020 C   0  0  0  0  0  0  0  0  0  0  0  0
   -4.4340    0.6840    0.7500 C   0  0  0  0  0  0  0  0  0  0  0  0
   -4.8290    1.0090    2.0700 N   0  0  0  0  0  0  0  0  0  0  0  0
   -4.9670    2.3900    2.4540 C   0  0  0  0  0  0  0  0  0  0  0  0
   -5.0980   -0.0380    3.0130 C   0  0  0  0  0  0  0  0  0  0  0  0
   -4.9750   -1.4310    2.4530 C   0  0  0  0  0  0  0  0  0  0  0  0
   -5.2760   -2.3180    3.5170 O   0  0  0  0  0  0  0  0  0  0  0  0
   -5.2460    0.8850   -0.3440 C   0  0  0  0  0  0  0  0  0  0  0  0
   -6.5130    1.4130   -0.1520 O   0  0  0  0  0  0  0  0  0  0  0  0
   -6.8210    2.7740   -0.1650 C   0  0  0  0  0  0  0  0  0  0  0  0
  1  2  1  0
  2  3  1  0
  3  4  2  0
  3 31  1  0
  4  5  1  0
  5  6  1  0
  5 24  2  0
  6  7  1  1
  6  8  1  0
  8  9  1  6
  8 10  1  0
 10 11  1  0
 11 12  2  0
 11 13  1  0
 13 14  1  0
 14 15  1  0
 15 16  2  0
 15 22  1  0
 16 17  1  0
 16 18  1  0
 18 19  2  0
 19 20  1  0
 19 21  1  0
 21 22  2  0
 22 23  1  0
 24 25  1  0
 25 26  1  0
 25 31  2  0
 26 27  1  0
 26 28  1  0
 28 29  1  0
 29 30  1  0
 31 32  1  0
 32 33  1  0
M  END
