
     RDKit          3D

 34 36  0  0  0  0  0  0  0  0999 V2000
   -2.9960   -2.5240    0.7300 C   0  0  0  0  0  0  0  0  0  0  0  0
   -2.3150   -1.5620    1.5570 N   0  0  0  0  0  0  0  0  0  0  0  0
   -2.2620   -1.8920    3.0010 C   0  0  0  0  0  0  0  0  0  0  0  0
   -1.7390   -0.4050    1.1050 C   0  0  0  0  0  0  0  0  0  0  0  0
   -1.1380    0.3240    2.0110 O   0  0  0  0  0  0  0  0  0  0  0  0
   -1.6680    0.1800   -0.2260 C   0  0  1  0  0  0  0  0  0  0  0  0
   -0.4050    0.8240   -0.4130 N   0  0  0  0  0  0  0  0  0  0  0  0
    0.8190   -0.0270   -0.1700 C   0  0  0  0  0  0  0  0  0  0  0  0
    0.6040   -1.1700    0.0960 O   0  0  0  0  0  0  0  0  0  0  0  0
    1.9340    0.7700   -0.3090 N   0  0  0  0  0  0  0  0  0  0  0  0
    3.0890   -0.4370    0.1070 C   0  0  0  0  0  0  0  0  0  0  0  0
    2.6510   -1.4740    0.3890 O   0  0  0  0  0  0  0  0  0  0  0  0
    4.4180    0.0420    0.0410 C   0  0  0  0  0  0  0  0  0  0  0  0
    4.7740    1.1750   -0.3570 O   0  0  0  0  0  0  0  0  0  0  0  0
    5.5230   -0.7940    0.4580 N   0  0  0  0  0  0  0  0  0  0  0  0
    6.8630   -0.2520    0.3840 C   0  0  0  0  0  0  0  0  0  0  0  0
    7.4950    0.7140    0.0920 N   0  0  0  0  0  0  0  0  0  0  0  0
    8.7730    0.8300    0.1780 N   0  0  0  0  0  0  0  0  0  0  0  0
    9.5220   -0.0160    0.5630 C   0  0  0  0  0  0  0  0  0  0  0  0
   10.9350   -0.2640    0.7930 C   0  0  0  0  0  0  0  0  0  0  0  0
   11.7420    0.6590    0.5350 O   0  0  0  0  0  0  0  0  0  0  0  0
   11.4160   -1.4570    1.2770 O   0  0  0  0  0  0  0  0  0  0  0  0
    8.2630   -1.3880    0.9410 S   0  0  0  0  0  0  0  0  0  0  0  0
   -2.0330   -0.5770   -1.4140 C   0  0  0  0  0  0  0  0  0  0  0  0
   -2.1620    0.5820   -2.4510 C   0  0  0  0  0  0  0  0  0  0  0  0
   -2.8730    1.5740   -1.7100 N   0  0  1  0  0  0  0  0  0  0  0  0
   -2.2100    2.7710   -1.9580 O   0  0  0  0  0  0  0  0  0  0  0  0
   -4.2360    1.7070   -2.1470 C   0  0  0  0  0  0  0  0  0  0  0  0
   -5.2330    1.2160   -1.1880 C   0  0  0  0  0  0  0  0  0  0  0  0
   -6.1750    1.9400   -0.6140 C   0  0  0  0  0  0  0  0  0  0  0  0
   -6.9540    1.0470    0.2760 C   0  0  0  0  0  0  0  0  0  0  0  0
   -6.1090   -0.0360    0.4460 O   0  0  0  0  0  0  0  0  0  0  0  0
   -5.4120   -0.0640   -0.6910 O   0  0  0  0  0  0  0  0  0  0  0  0
   -2.7350    1.3410   -0.3140 C   0  0  0  0  0  0  0  0  0  0  0  0
  1  2  1  0
  2  3  1  0
  2  4  1  0
  4  5  2  0
  4  6  1  0
  6  7  1  6
  6 24  1  0
  6 34  1  0
  7  8  1  0
  8  9  2  0
  8 10  1  0
 10 11  1  0
 11 12  2  0
 11 13  1  0
 13 14  2  0
 13 15  1  0
 15 16  1  0
 16 17  2  0
 16 23  1  0
 17 18  1  0
 18 19  2  0
 19 20  1  0
 19 23  1  0
 20 21  2  0
 20 22  1  0
 24 25  1  0
 25 26  1  0
 26 27  1  1
 26 28  1  0
 26 34  1  0
 28 29  1  0
 29 30  2  0
 29 33  1  0
 30 31  1  0
 31 32  1  0
 32 33  1  0
M  CHG  2  26   1  27  -1
M  END
