
     RDKit          3D

 34 36  0  0  0  0  0  0  0  0999 V2000
    0.8240   -1.9170    0.9480 C   0  0  0  0  0  0  0  0  0  0  0  0
    1.1260   -0.7440    0.0550 N   0  0  1  0  0  0  0  0  0  0  0  0
    2.3080   -0.1680    0.5940 C   0  0  0  0  0  0  0  0  0  0  0  0
    3.5310   -0.3160   -0.1810 C   0  0  0  0  0  0  0  0  0  0  0  0
    4.8040    0.1620    0.3320 N   0  0  0  0  0  0  0  0  0  0  0  0
    5.0440    1.5200    0.6300 C   0  0  0  0  0  0  0  0  0  0  0  0
    4.0850    2.3170    0.4260 O   0  0  0  0  0  0  0  0  0  0  0  0
    6.2740    1.9760    1.1270 O   0  0  0  0  0  0  0  0  0  0  0  0
    6.4260    3.3520    1.4020 C   0  0  0  0  0  0  0  0  0  0  0  0
    7.7900    3.5930    1.9080 C   0  0  0  0  0  0  0  0  0  0  0  0
    8.1710    4.8910    2.2860 N   0  0  0  0  0  0  0  0  0  0  0  0
    8.5960    2.6460    1.9970 O   0  0  0  0  0  0  0  0  0  0  0  0
    3.4730   -0.8920   -1.3510 C   0  0  0  0  0  0  0  0  0  0  0  0
    2.2620   -1.4080   -1.9280 C   0  0  0  0  0  0  0  0  0  0  0  0
    1.1140   -1.3170   -1.2250 C   0  0  0  0  0  0  0  0  0  0  0  0
   -0.0810   -1.8880   -1.8300 C   0  0  0  0  0  0  0  0  0  0  0  0
   -1.2930   -1.9620   -1.5130 C   0  0  0  0  0  0  0  0  0  0  0  0
   -2.1620   -1.5580   -0.4750 C   0  0  0  0  0  0  0  0  0  0  0  0
   -3.3970   -2.0840   -0.5990 O   0  0  0  0  0  0  0  0  0  0  0  0
   -2.1650   -0.7650    0.6590 N   0  0  0  0  0  0  0  0  0  0  0  0
   -3.2950   -0.6060    1.5260 N   0  0  0  0  0  0  0  0  0  0  0  0
   -3.2130   -1.1390    2.7640 O   0  0  0  0  0  0  0  0  0  0  0  0
   -4.4680    0.0710    1.1550 C   0  0  0  0  0  0  0  0  0  0  0  0
   -5.4150    0.1950    1.9600 O   0  0  0  0  0  0  0  0  0  0  0  0
   -4.6160    0.6310   -0.1370 N   0  0  0  0  0  0  0  0  0  0  0  0
   -5.8400    1.3120   -0.4420 C   0  0  0  0  0  0  0  0  0  0  0  0
   -7.0540    0.4300   -0.2870 C   0  0  0  0  0  0  0  0  0  0  0  0
   -8.0020    0.7350    0.5780 C   0  0  0  0  0  0  0  0  0  0  0  0
   -9.1960   -0.6020    0.3790 S   0  0  0  0  0  0  0  0  0  0  0  0
   -8.0520   -1.6400   -0.5310 N   0  0  0  0  0  0  0  0  0  0  0  0
   -7.2320   -0.6910   -1.0090 O   0  0  0  0  0  0  0  0  0  0  0  0
   -1.9570   -2.7100   -2.6070 O   0  0  0  0  0  0  0  0  0  0  0  0
   -1.1740   -2.4190   -3.7880 C   0  0  0  0  0  0  0  0  0  0  0  0
    0.0910   -2.5560   -3.1260 O   0  0  0  0  0  0  0  0  0  0  0  0
  2  1  1  1
  2  3  1  0
  2 15  1  0
  3  4  1  0
  4  5  1  0
  4 13  2  0
  5  6  1  0
  6  7  2  0
  6  8  1  0
  8  9  1  0
  9 10  1  0
 10 11  1  0
 10 12  2  0
 13 14  1  0
 14 15  2  0
 15 16  1  0
 16 17  2  0
 16 34  1  0
 17 18  1  0
 17 32  1  0
 18 19  2  0
 18 20  1  0
 20 21  1  0
 21 22  1  0
 21 23  1  0
 23 24  2  0
 23 25  1  0
 25 26  1  0
 26 27  1  0
 27 28  2  0
 27 31  1  0
 28 29  1  0
 29 30  1  0
 30 31  1  0
 32 33  1  0
 33 34  1  0
M  CHG  2   2   1  22  -1
M  END
