
     RDKit          3D

 34 36  0  0  0  0  0  0  0  0999 V2000
   -9.0140    2.1740    1.8750 O   0  0  0  0  0  0  0  0  0  0  0  0
   -9.4210    1.0090    1.6070 C   0  0  0  0  0  0  0  0  0  0  0  0
  -10.2840    0.3720    2.4580 O   0  0  0  0  0  0  0  0  0  0  0  0
   -8.9600    0.3830    0.4050 N   0  0  0  0  0  0  0  0  0  0  0  0
   -8.0650    1.0730   -0.4540 C   0  0  0  0  0  0  0  0  0  0  0  0
   -6.8790    0.5970   -0.7370 C   0  0  0  0  0  0  0  0  0  0  0  0
   -6.3620   -0.9110   -0.0590 S   0  0  2  0  0  0  0  0  0  0  0  0
   -7.1030   -2.0560   -0.6970 O   0  0  0  0  0  0  0  0  0  0  0  0
   -6.6950   -0.8920    1.4040 O   0  0  0  0  0  0  0  0  0  0  0  0
   -4.6670   -1.1290   -0.2160 N   0  0  0  0  0  0  0  0  0  0  0  0
   -4.1950   -1.1650   -1.5460 C   0  0  0  0  0  0  0  0  0  0  0  0
   -3.5320    0.0590   -2.0470 C   0  0  0  0  0  0  0  0  0  0  0  0
   -3.0370    0.9430   -1.1530 O   0  0  0  0  0  0  0  0  0  0  0  0
   -2.7960    0.4700    0.0950 C   0  0  2  0  0  0  0  0  0  0  0  0
   -1.5130   -0.2370    0.2860 C   0  0  0  0  0  0  0  0  0  0  0  0
   -1.2700   -0.7330    1.4310 O   0  0  0  0  0  0  0  0  0  0  0  0
   -0.5160   -0.4140   -0.6980 N   0  0  0  0  0  0  0  0  0  0  0  0
    0.6630   -1.1010   -0.3990 N   0  0  0  0  0  0  0  0  0  0  0  0
    1.8960   -0.3920   -0.1340 C   0  0  0  0  0  0  0  0  0  0  0  0
    1.8810    0.8370   -0.1790 O   0  0  0  0  0  0  0  0  0  0  0  0
    3.0810   -1.0880    0.1690 N   0  0  0  0  0  0  0  0  0  0  0  0
    4.3400   -0.5470    0.4460 C   0  0  0  0  0  0  0  0  0  0  0  0
    4.7000    0.7690    0.3710 C   0  0  0  0  0  0  0  0  0  0  0  0
    5.9810    1.2100    0.6800 C   0  0  0  0  0  0  0  0  0  0  0  0
    6.9340    0.3130    1.0740 C   0  0  0  0  0  0  0  0  0  0  0  0
    8.2410    0.6220    1.4090 O   0  0  0  0  0  0  0  0  0  0  0  0
    9.1910    0.7190    0.4170 C   0  0  0  0  0  0  0  0  0  0  0  0
    9.9870   -0.2950   -0.0930 C   0  0  0  0  0  0  0  0  0  0  0  0
   10.7660    0.2550   -1.0420 N   0  0  0  0  0  0  0  0  0  0  0  0
   10.4770    1.5120   -1.1150 O   0  0  0  0  0  0  0  0  0  0  0  0
    9.5370    1.8550   -0.2640 C   0  0  0  0  0  0  0  0  0  0  0  0
    6.5980   -0.9860    1.1530 N   0  0  0  0  0  0  0  0  0  0  0  0
    5.3630   -1.4140    0.8560 C   0  0  0  0  0  0  0  0  0  0  0  0
   -3.9100   -0.3170    0.6870 C   0  0  0  0  0  0  0  0  0  0  0  0
  1  2  2  0
  2  3  1  0
  2  4  1  0
  4  5  1  0
  5  6  2  3
  6  7  1  0
  7  8  2  0
  7  9  2  0
  7 10  1  1
 10 11  1  0
 10 34  1  0
 11 12  1  0
 12 13  1  0
 13 14  1  0
 14 15  1  6
 14 34  1  0
 15 16  2  0
 15 17  1  0
 17 18  1  0
 18 19  1  0
 19 20  2  0
 19 21  1  0
 21 22  1  0
 22 23  2  0
 22 33  1  0
 23 24  1  0
 24 25  2  0
 25 26  1  0
 25 32  1  0
 26 27  1  0
 27 28  1  0
 27 31  2  0
 28 29  2  0
 29 30  1  0
 30 31  1  0
 32 33  2  0
M  CHG  2   3  -1  29   1
M  END
