
     RDKit          3D

 34 36  0  0  0  0  0  0  0  0999 V2000
   -6.8220    3.2770    1.5840 C   0  0  0  0  0  0  0  0  0  0  0  0
   -5.6200    2.4830    1.7550 N   0  0  0  0  0  0  0  0  0  0  0  0
   -5.1870    1.5030    0.8500 C   0  0  0  0  0  0  0  0  0  0  0  0
   -5.8610    1.2780   -0.1820 O   0  0  0  0  0  0  0  0  0  0  0  0
   -3.9830    0.7320    1.0560 N   0  0  0  0  0  0  0  0  0  0  0  0
   -3.5900   -0.2420    0.1140 C   0  0  0  0  0  0  0  0  0  0  0  0
   -4.3560   -0.4610   -1.0060 N   0  0  0  0  0  0  0  0  0  0  0  0
   -3.9890   -1.3870   -1.9070 C   0  0  0  0  0  0  0  0  0  0  0  0
   -4.8180   -1.5720   -3.0470 N   0  0  0  0  0  0  0  0  0  0  0  0
   -4.4520   -2.5470   -4.0170 C   0  0  0  0  0  0  0  0  0  0  0  0
   -3.4130   -3.2590   -3.9050 O   0  0  0  0  0  0  0  0  0  0  0  0
   -2.8940   -2.0870   -1.7180 O   0  0  0  0  0  0  0  0  0  0  0  0
   -2.1350   -1.9090   -0.6630 C   0  0  0  0  0  0  0  0  0  0  0  0
   -1.0810   -2.6020   -0.5090 O   0  0  0  0  0  0  0  0  0  0  0  0
   -2.4530   -0.9680    0.3100 C   0  0  0  0  0  0  0  0  0  0  0  0
   -1.6470   -0.7670    1.4480 N   0  0  0  0  0  0  0  0  0  0  0  0
   -0.4630   -1.6020    1.5410 C   0  0  0  0  0  0  0  0  0  0  0  0
    0.7560   -1.3010    1.0910 C   0  0  0  0  0  0  0  0  0  0  0  0
    1.1470   -0.0810    0.4190 C   0  0  0  0  0  0  0  0  0  0  0  0
    0.3000    0.8100    0.2130 O   0  0  0  0  0  0  0  0  0  0  0  0
    2.4410    0.1090    0.0020 O   0  0  0  0  0  0  0  0  0  0  0  0
    2.8710    1.2980   -0.6670 C   0  0  0  0  0  0  0  0  0  0  0  0
    4.3520    1.1930   -0.9920 C   0  0  0  0  0  0  0  0  0  0  0  0
    5.1590    1.0320    0.1740 N   0  0  1  0  0  0  0  0  0  0  0  0
    4.4160    0.7040    1.2310 O   0  0  0  0  0  0  0  0  0  0  0  0
    6.1280   -0.0120   -0.0340 C   0  0  0  0  0  0  0  0  0  0  0  0
    6.9960    0.4200   -1.2160 C   0  0  0  0  0  0  0  0  0  0  0  0
    7.1680    2.2070   -0.8100 S   0  0  0  0  0  0  0  0  0  0  0  0
    5.8870    2.2460    0.5120 C   0  0  0  0  0  0  0  0  0  0  0  0
    1.6590   -2.4320    1.3950 C   0  0  0  0  0  0  0  0  0  0  0  0
    2.8760   -2.4370    1.0900 O   0  0  0  0  0  0  0  0  0  0  0  0
    0.9180   -3.4310    2.0530 N   0  0  0  0  0  0  0  0  0  0  0  0
   -0.4080   -2.9250    2.1500 C   0  0  0  0  0  0  0  0  0  0  0  0
   -1.3370   -3.5840    2.6950 O   0  0  0  0  0  0  0  0  0  0  0  0
  1  2  1  0
  2  3  1  0
  3  4  2  0
  3  5  1  0
  5  6  1  0
  6  7  1  0
  6 15  2  0
  7  8  2  0
  8  9  1  0
  8 12  1  0
  9 10  1  0
 10 11  2  0
 12 13  1  0
 13 14  2  0
 13 15  1  0
 15 16  1  0
 16 17  1  0
 17 18  2  0
 17 33  1  0
 18 19  1  0
 18 30  1  0
 19 20  2  0
 19 21  1  0
 21 22  1  0
 22 23  1  0
 23 24  1  0
 24 25  1  1
 24 26  1  0
 24 29  1  0
 26 27  1  0
 27 28  1  0
 28 29  1  0
 30 31  2  0
 30 32  1  0
 32 33  1  0
 33 34  2  0
M  CHG  2  24   1  25  -1
M  END
