
     RDKit          3D

 34 36  0  0  0  0  0  0  0  0999 V2000
    6.5430   -2.9700    1.5270 C   0  0  0  0  0  0  0  0  0  0  0  0
    6.2880   -2.1280    0.3700 O   0  0  0  0  0  0  0  0  0  0  0  0
    7.2450   -1.1300    0.1010 C   0  0  0  0  0  0  0  0  0  0  0  0
    8.3430   -1.4760   -0.6120 C   0  0  0  0  0  0  0  0  0  0  0  0
    8.4320   -2.7910   -1.0250 O   0  0  0  0  0  0  0  0  0  0  0  0
    9.2980   -0.5460   -0.8900 O   0  0  0  0  0  0  0  0  0  0  0  0
    9.2360    0.7910   -0.5030 C   0  0  0  0  0  0  0  0  0  0  0  0
    8.0320    1.0860    0.2590 C   0  0  0  0  0  0  0  0  0  0  0  0
    7.0910    0.2020    0.5500 C   0  0  0  0  0  0  0  0  0  0  0  0
    6.0360    0.6860    1.3400 N   0  0  0  0  0  0  0  0  0  0  0  0
    4.8050    1.0790    0.8020 C   0  0  0  0  0  0  0  0  0  0  0  0
    4.5720    0.9770   -0.4510 O   0  0  0  0  0  0  0  0  0  0  0  0
    3.8400    1.6090    1.6220 O   0  0  0  0  0  0  0  0  0  0  0  0
    2.6470    2.1450    1.2830 C   0  0  0  0  0  0  0  0  0  0  0  0
    1.4530    1.6090    0.7330 C   0  0  0  0  0  0  0  0  0  0  0  0
    0.7440    2.4370    0.0170 O   0  0  0  0  0  0  0  0  0  0  0  0
    0.8460    0.3220    0.8280 N   0  0  0  0  0  0  0  0  0  0  0  0
   -0.4870    0.1880    0.1880 C   0  0  0  0  0  0  0  0  0  0  0  0
   -1.1540    0.7950   -0.5860 N   0  0  0  0  0  0  0  0  0  0  0  0
   -2.4100    0.5380   -0.7580 N   0  0  0  0  0  0  0  0  0  0  0  0
   -3.0950   -0.2300   -0.2750 C   0  0  0  0  0  0  0  0  0  0  0  0
   -4.4560   -0.7450   -0.0810 C   0  0  0  0  0  0  0  0  0  0  0  0
   -4.9480   -1.5260    0.6050 O   0  0  0  0  0  0  0  0  0  0  0  0
   -5.5460    0.0780   -1.1520 N   0  0  0  0  0  0  0  0  0  0  0  0
   -6.7220   -0.3060   -0.5030 C   0  0  0  0  0  0  0  0  0  0  0  0
   -6.9980   -0.9460    0.4280 O   0  0  0  0  0  0  0  0  0  0  0  0
   -7.7990    0.3590   -1.3400 N   0  0  0  0  0  0  0  0  0  0  0  0
   -9.1190    0.2480   -0.9510 C   0  0  0  0  0  0  0  0  0  0  0  0
   -9.6170   -0.1670    0.2040 C   0  0  0  0  0  0  0  0  0  0  0  0
  -11.0560   -0.1130    0.1370 C   0  0  0  0  0  0  0  0  0  0  0  0
  -11.4180    0.3130   -1.0120 N   0  0  0  0  0  0  0  0  0  0  0  0
  -12.7370    0.4760   -1.3750 O   0  0  0  0  0  0  0  0  0  0  0  0
  -10.2790    0.5620   -1.8470 C   0  0  0  0  0  0  0  0  0  0  0  0
   -1.7460   -1.0150    0.8680 S   0  0  0  0  0  0  0  0  0  0  0  0
  1  2  1  0
  2  3  1  0
  3  4  2  0
  3  9  1  0
  4  5  1  0
  4  6  1  0
  6  7  1  0
  7  8  1  0
  8  9  2  0
  9 10  1  0
 10 11  1  0
 11 12  2  0
 11 13  1  0
 13 14  1  0
 14 15  1  0
 15 16  2  0
 15 17  1  0
 17 18  1  0
 18 19  2  0
 18 34  1  0
 19 20  1  0
 20 21  2  0
 21 22  1  0
 21 34  1  0
 22 23  2  0
 22 24  1  0
 24 25  1  0
 25 26  2  0
 25 27  1  0
 27 28  1  0
 28 29  2  0
 28 33  1  0
 29 30  1  0
 30 31  2  0
 31 32  1  0
 31 33  1  0
M  CHG  2  31   1  32  -1
M  END
