
     RDKit          3D

 34 36  0  0  0  0  0  0  0  0999 V2000
   -8.4910    0.5630   -3.3840 C   0  0  0  0  0  0  0  0  0  0  0  0
   -7.8560    0.2700   -2.1390 O   0  0  0  0  0  0  0  0  0  0  0  0
   -8.5840   -0.0580   -1.0120 C   0  0  0  0  0  0  0  0  0  0  0  0
   -9.8250   -0.0980   -1.0920 O   0  0  0  0  0  0  0  0  0  0  0  0
   -7.9320   -0.3550    0.2550 C   0  0  0  0  0  0  0  0  0  0  0  0
   -8.6740   -0.6780    1.3560 C   0  0  0  0  0  0  0  0  0  0  0  0
   -8.0360   -0.9540    2.5380 C   0  0  0  0  0  0  0  0  0  0  0  0
   -6.6880   -0.9060    2.6060 N   0  0  0  0  0  0  0  0  0  0  0  0
   -6.0670   -1.1850    3.7960 O   0  0  0  0  0  0  0  0  0  0  0  0
   -5.9050   -0.5920    1.5450 C   0  0  0  0  0  0  0  0  0  0  0  0
   -4.5220   -0.5630    1.6910 N   0  0  0  0  0  0  0  0  0  0  0  0
   -3.5590   -0.2610    0.7120 C   0  0  0  0  0  0  0  0  0  0  0  0
   -3.9110    0.0230   -0.4490 O   0  0  0  0  0  0  0  0  0  0  0  0
   -2.1410   -0.2760    1.0370 N   0  0  0  0  0  0  0  0  0  0  0  0
   -1.2320    0.0400   -0.0100 C   0  0  0  0  0  0  0  0  0  0  0  0
    0.1730   -0.0040    0.4220 C   0  0  0  0  0  0  0  0  0  0  0  0
    1.0440    0.2710   -0.4740 O   0  0  0  0  0  0  0  0  0  0  0  0
    0.6710   -0.3130    1.7040 N   0  0  0  0  0  0  0  0  0  0  0  0
    2.0950   -0.3250    2.0150 C   0  0  0  0  0  0  0  0  0  0  0  0
    2.8610   -0.5150    2.8890 N   0  0  0  0  0  0  0  0  0  0  0  0
    4.1540   -0.4290    2.7990 N   0  0  0  0  0  0  0  0  0  0  0  0
    4.7560   -0.1470    1.8280 C   0  0  0  0  0  0  0  0  0  0  0  0
    6.0970    0.0370    1.3720 N   0  0  0  0  0  0  0  0  0  0  0  0
    6.4100    0.4040    0.0150 C   0  0  0  0  0  0  0  0  0  0  0  0
    5.4360    0.5590   -0.7600 O   0  0  0  0  0  0  0  0  0  0  0  0
    7.7910    0.5790   -0.4000 C   0  0  0  0  0  0  0  0  0  0  0  0
    8.1640    0.9150   -1.6200 C   0  0  0  0  0  0  0  0  0  0  0  0
    7.3160    1.1570   -2.7120 O   0  0  0  0  0  0  0  0  0  0  0  0
    9.5340    1.0050   -1.7140 O   0  0  0  0  0  0  0  0  0  0  0  0
   10.0510    0.9890   -0.4150 C   0  0  2  0  0  0  0  0  0  0  0  0
   11.2290    0.0890   -0.2290 C   0  0  0  0  0  0  0  0  0  0  0  0
    8.9560    0.4450    0.3330 O   0  0  0  0  0  0  0  0  0  0  0  0
    3.3150    0.0940    0.6300 S   0  0  0  0  0  0  0  0  0  0  0  0
   -6.5410   -0.3190    0.3740 C   0  0  0  0  0  0  0  0  0  0  0  0
  1  2  1  0
  2  3  1  0
  3  4  2  0
  3  5  1  0
  5  6  2  0
  5 34  1  0
  6  7  1  0
  7  8  2  0
  8  9  1  0
  8 10  1  0
 10 11  1  0
 10 34  2  0
 11 12  1  0
 12 13  2  0
 12 14  1  0
 14 15  1  0
 15 16  1  0
 16 17  2  0
 16 18  1  0
 18 19  1  0
 19 20  2  0
 19 33  1  0
 20 21  1  0
 21 22  2  0
 22 23  1  0
 22 33  1  0
 23 24  1  0
 24 25  2  0
 24 26  1  0
 26 27  2  0
 26 32  1  0
 27 28  1  0
 27 29  1  0
 29 30  1  0
 30 31  1  6
 30 32  1  0
M  CHG  2   8   1   9  -1
M  END
