
     RDKit          3D

 34 37  0  0  0  0  0  0  0  0999 V2000
    4.4890    1.3190   -1.2060 O   0  0  0  0  0  0  0  0  0  0  0  0
    4.8890    0.6090   -0.2670 C   0  0  0  0  0  0  0  0  0  0  0  0
    3.9590   -0.1990    0.4270 N   0  0  0  0  0  0  0  0  0  0  0  0
    2.5710   -0.3060    0.1770 C   0  0  0  0  0  0  0  0  0  0  0  0
    1.8380   -1.1770    1.0000 C   0  0  0  0  0  0  0  0  0  0  0  0
    0.4870   -1.3700    0.8610 C   0  0  0  0  0  0  0  0  0  0  0  0
   -0.1970   -0.6790   -0.1340 C   0  0  0  0  0  0  0  0  0  0  0  0
   -1.5620   -0.8720   -0.2770 O   0  0  0  0  0  0  0  0  0  0  0  0
   -2.2520   -0.1810   -1.2740 C   0  0  1  0  0  0  0  0  0  0  0  0
   -2.8140   -1.1690   -2.2670 C   0  0  0  0  0  0  0  0  0  0  0  0
   -3.8120   -2.0380   -1.6800 N   0  0  0  0  0  0  0  0  0  0  0  0
   -4.4620   -1.3040   -0.5990 C   0  0  0  0  0  0  0  0  0  0  0  0
   -4.4670    0.1620   -1.0540 C   0  0  1  0  0  0  0  0  0  0  0  0
   -5.5650    0.8200   -0.3150 C   0  0  0  0  0  0  0  0  0  0  0  0
   -5.4300    1.7480    0.4980 O   0  0  0  0  0  0  0  0  0  0  0  0
   -6.8570    0.3550   -0.5550 O   0  0  0  0  0  0  0  0  0  0  0  0
   -7.9610    0.9580    0.1360 C   0  0  0  0  0  0  0  0  0  0  0  0
   -9.2030    0.2090   -0.3660 C   0  0  1  0  0  0  0  0  0  0  0  0
  -10.3420    0.7160    0.2440 O   0  0  0  0  0  0  0  0  0  0  0  0
   -9.2620    0.2990   -1.7540 O   0  0  0  0  0  0  0  0  0  0  0  0
   -3.2280    0.6710   -0.7670 O   0  0  0  0  0  0  0  0  0  0  0  0
    0.5040    0.1530   -0.9190 N   0  0  0  0  0  0  0  0  0  0  0  0
    1.8500    0.3370   -0.7710 C   0  0  0  0  0  0  0  0  0  0  0  0
    6.3070    0.6450    0.0740 C   0  0  0  0  0  0  0  0  0  0  0  0
    6.7580   -0.0710    1.0340 N   0  0  0  0  0  0  0  0  0  0  0  0
    8.0570   -0.1600    1.4910 N   0  0  0  0  0  0  0  0  0  0  0  0
    9.0850    0.5790    0.9030 C   0  0  0  0  0  0  0  0  0  0  0  0
    9.0100    1.4520   -0.1390 C   0  0  0  0  0  0  0  0  0  0  0  0
   10.2340    1.9400   -0.3800 N   0  0  0  0  0  0  0  0  0  0  0  0
   10.5930    2.8610   -1.3610 O   0  0  0  0  0  0  0  0  0  0  0  0
   11.1090    1.4270    0.4570 N   0  0  0  0  0  0  0  0  0  0  0  0
   10.4430    0.5970    1.2490 C   0  0  0  0  0  0  0  0  0  0  0  0
   11.0210   -0.0570    2.1710 O   0  0  0  0  0  0  0  0  0  0  0  0
    7.4030    1.7020   -0.8670 S   0  0  0  0  0  0  0  0  0  0  0  0
  1  2  2  0
  2  3  1  0
  2 24  1  0
  3  4  1  0
  4  5  2  0
  4 23  1  0
  5  6  1  0
  6  7  2  0
  7  8  1  0
  7 22  1  0
  9  8  1  1
  9 10  1  0
  9 21  1  0
 10 11  1  0
 11 12  1  0
 12 13  1  0
 13 14  1  1
 13 21  1  0
 14 15  2  0
 14 16  1  0
 16 17  1  0
 17 18  1  0
 18 19  1  1
 18 20  1  0
 22 23  2  0
 24 25  2  0
 24 34  1  0
 25 26  1  0
 26 27  1  0
 27 28  2  0
 27 32  1  0
 28 29  1  0
 28 34  1  0
 29 30  1  0
 29 31  1  0
 31 32  1  0
 32 33  2  0
M  CHG  2  11   1  30  -1
M  END
