
     RDKit          3D

 34 36  0  0  0  0  0  0  0  0999 V2000
   -1.7120   -6.6320    1.2560 N   0  0  0  0  0  0  0  0  0  0  0  0
   -1.4560   -5.7300    0.2040 C   0  0  0  0  0  0  0  0  0  0  0  0
   -1.5000   -6.1250   -0.9780 O   0  0  0  0  0  0  0  0  0  0  0  0
   -1.1410   -4.3420    0.4820 C   0  0  0  0  0  0  0  0  0  0  0  0
   -1.0830   -3.8890    1.6490 O   0  0  0  0  0  0  0  0  0  0  0  0
   -0.8860   -3.4520   -0.5900 N   0  0  0  0  0  0  0  0  0  0  0  0
   -0.5590   -2.0180   -0.3110 C   0  0  1  0  0  0  0  0  0  0  0  0
    0.8810   -1.8960   -0.6620 C   0  0  0  0  0  0  0  0  0  0  0  0
    1.5340   -0.6390   -0.5240 N   0  0  0  0  0  0  0  0  0  0  0  0
    1.2790    0.4820   -1.3210 C   0  0  0  0  0  0  0  0  0  0  0  0
    0.3800    0.2330   -2.2500 O   0  0  0  0  0  0  0  0  0  0  0  0
    1.8410    1.7930   -1.2550 C   0  0  0  0  0  0  0  0  0  0  0  0
    2.6780    2.4610   -0.5800 C   0  0  0  0  0  0  0  0  0  0  0  0
    3.5340    2.1930    0.5370 C   0  0  0  0  0  0  0  0  0  0  0  0
    3.6620    1.1100    1.1840 N   0  0  0  0  0  0  0  0  0  0  0  0
    4.6340    1.2760    2.2420 C   0  0  0  0  0  0  0  0  0  0  0  0
    5.0020    0.8590    3.3930 C   0  0  0  0  0  0  0  0  0  0  0  0
    6.1010    1.4420    3.9780 O   0  0  0  0  0  0  0  0  0  0  0  0
    6.1710    3.0150    3.1790 S   0  0  0  0  0  0  0  0  0  0  0  0
    5.1580    3.9620    3.8440 O   0  0  0  0  0  0  0  0  0  0  0  0
    5.4780    2.3820    1.6460 C   0  0  2  0  0  0  0  0  0  0  0  0
    4.4240    3.1650    1.1230 O   0  0  0  0  0  0  0  0  0  0  0  0
   -1.5460   -1.1970   -0.9990 C   0  0  0  0  0  0  0  0  0  0  0  0
   -2.0590   -1.5770   -2.1020 O   0  0  0  0  0  0  0  0  0  0  0  0
   -1.9750    0.0420   -0.4700 N   0  0  0  0  0  0  0  0  0  0  0  0
   -2.9060    0.9360   -1.0040 C   0  0  0  0  0  0  0  0  0  0  0  0
   -3.3090    2.0170   -0.2090 C   0  0  0  0  0  0  0  0  0  0  0  0
   -4.2140    2.9550   -0.6490 C   0  0  0  0  0  0  0  0  0  0  0  0
   -4.7560    2.8580   -1.8970 C   0  0  0  0  0  0  0  0  0  0  0  0
   -5.7000    3.8220   -2.3800 N   0  0  0  0  0  0  0  0  0  0  0  0
   -6.0060    4.7530   -1.6150 O   0  0  0  0  0  0  0  0  0  0  0  0
   -6.2510    3.7420   -3.6160 O   0  0  0  0  0  0  0  0  0  0  0  0
   -4.3750    1.8280   -2.6590 N   0  0  0  0  0  0  0  0  0  0  0  0
   -3.4740    0.8810   -2.2420 C   0  0  0  0  0  0  0  0  0  0  0  0
  1  2  1  0
  2  3  2  0
  2  4  1  0
  4  5  2  0
  4  6  1  0
  6  7  1  0
  7  8  1  6
  7 23  1  0
  8  9  1  0
  9 10  1  0
 10 11  2  0
 10 12  1  0
 12 13  2  3
 13 14  1  0
 14 15  2  0
 14 22  1  0
 15 16  1  0
 16 17  2  0
 16 21  1  0
 17 18  1  0
 19 18  1  1
 19 20  2  0
 19 21  1  0
 21 22  1  1
 23 24  2  0
 23 25  1  0
 25 26  1  0
 26 27  2  0
 26 34  1  0
 27 28  1  0
 28 29  2  0
 29 30  1  0
 29 33  1  0
 30 31  2  0
 30 32  1  0
 33 34  2  0
M  CHG  2  30   1  32  -1
M  END
