
     RDKit          3D

 28 30  0  0  0  0  0  0  0  0999 V2000
   -1.5960   -0.4320    3.0550 C   0  0  0  0  0  0  0  0  0  0  0  0
   -1.8090    0.3070    1.9600 C   0  0  0  0  0  0  0  0  0  0  0  0
   -1.8400   -0.3980    0.6620 C   0  0  0  0  0  0  0  0  0  0  0  0
   -1.0430   -0.0970   -0.4820 C   0  0  2  0  0  0  0  0  0  0  0  0
   -1.4180    1.3090   -0.9200 C   0  0  0  0  0  0  0  0  0  0  0  0
   -1.3500    2.4610   -0.0240 C   0  0  0  0  0  0  0  0  0  0  0  0
   -2.4910    3.1640    0.2580 C   0  0  0  0  0  0  0  0  0  0  0  0
   -2.2390    4.2710    1.1580 C   0  0  0  0  0  0  0  0  0  0  0  0
   -0.8050    4.2050    1.3970 C   0  0  0  0  0  0  0  0  0  0  0  0
   -0.3490    3.1720    0.7160 C   0  0  0  0  0  0  0  0  0  0  0  0
   -1.8400   -0.9570   -1.6010 C   0  0  2  0  0  0  0  0  0  0  0  0
   -3.1860   -0.3460   -1.8750 C   0  0  0  0  0  0  0  0  0  0  0  0
   -4.0840   -1.5450   -2.3260 C   0  0  0  0  0  0  0  0  0  0  0  0
   -3.7200   -2.4190   -1.1850 C   0  0  0  0  0  0  0  0  0  0  0  0
   -2.1570   -2.3200   -1.3670 C   0  0  2  0  0  0  0  0  0  0  0  0
   -1.6560   -3.4370   -0.6390 C   0  0  0  0  0  0  0  0  0  0  0  0
    0.3750   -0.3250   -0.7840 C   0  0  2  0  0  0  0  0  0  0  0  0
    0.8060    0.3190   -2.1160 C   0  0  0  0  0  0  0  0  0  0  0  0
    0.6900   -1.8190   -1.2190 C   0  0  0  0  0  0  0  0  0  0  0  0
    1.4260   -0.2310    0.2780 C   0  0  2  0  0  0  0  0  0  0  0  0
    1.1990   -1.2630    1.4170 C   0  0  0  0  0  0  0  0  0  0  0  0
    2.4260    0.8080    0.4680 C   0  0  1  0  0  0  0  0  0  0  0  0
    2.9880    1.1960    1.8030 C   0  0  1  0  0  0  0  0  0  0  0  0
    4.0060    2.3190    1.6870 C   0  0  0  0  0  0  0  0  0  0  0  0
    1.9960    1.6340    2.6750 O   0  0  0  0  0  0  0  0  0  0  0  0
    2.8680   -0.4040   -0.2440 C   0  0  1  0  0  0  0  0  0  0  0  0
    3.8240   -1.3460    0.3950 C   0  0  0  0  0  0  0  0  0  0  0  0
    5.1430   -1.2670   -0.3480 C   0  0  0  0  0  0  0  0  0  0  0  0
  1  2  2  0
  2  3  1  0
  4  3  1  1
  4  5  1  0
  4 11  1  0
  4 17  1  0
  5  6  1  0
  6  7  2  0
  6 10  1  0
  7  8  1  0
  8  9  1  0
  9 10  2  0
 11 12  1  1
 11 15  1  0
 12 13  1  0
 13 14  1  0
 14 15  1  0
 15 16  1  1
 17 18  1  6
 17 19  1  0
 17 20  1  0
 20 21  1  1
 20 22  1  0
 20 26  1  0
 22 23  1  1
 22 26  1  0
 23 24  1  6
 23 25  1  0
 26 27  1  1
 27 28  1  0
M  END
