
     RDKit          3D

 28 30  0  0  0  0  0  0  0  0999 V2000
    4.1960   -1.3000   -2.1250 C   0  0  0  0  0  0  0  0  0  0  0  0
    3.7600   -2.0230   -0.8630 C   0  0  0  0  0  0  0  0  0  0  0  0
    2.2910   -1.9910   -0.6020 C   0  0  0  0  0  0  0  0  0  0  0  0
    1.6840   -0.6760   -0.3950 C   0  0  2  0  0  0  0  0  0  0  0  0
    2.1570    0.0640    0.8030 C   0  0  0  0  0  0  0  0  0  0  0  0
    3.5760    0.4040    0.9430 C   0  0  0  0  0  0  0  0  0  0  0  0
    4.3660    0.0250    1.9640 C   0  0  0  0  0  0  0  0  0  0  0  0
    5.7350    0.5510    1.7760 C   0  0  0  0  0  0  0  0  0  0  0  0
    5.6340    1.2980    0.5190 C   0  0  0  0  0  0  0  0  0  0  0  0
    4.4150    1.1980    0.0720 C   0  0  0  0  0  0  0  0  0  0  0  0
    0.1590   -0.7350   -0.3680 C   0  0  2  0  0  0  0  0  0  0  0  0
   -0.4430   -1.2630   -1.6500 C   0  0  0  0  0  0  0  0  0  0  0  0
   -1.7590   -1.9250   -1.2760 C   0  0  0  0  0  0  0  0  0  0  0  0
   -2.1690   -1.6930    0.1290 C   0  0  2  0  0  0  0  0  0  0  0  0
   -3.6680   -1.9140    0.1710 C   0  0  0  0  0  0  0  0  0  0  0  0
   -4.2290   -2.9190    0.7630 C   0  0  0  0  0  0  0  0  0  0  0  0
   -5.7030   -3.0540    0.7540 C   0  0  0  0  0  0  0  0  0  0  0  0
   -3.4060   -3.9420    1.4530 C   0  0  0  0  0  0  0  0  0  0  0  0
   -1.9130   -0.4020    0.7740 C   0  0  0  0  0  0  0  0  0  0  0  0
   -0.5930    0.3030    0.2910 C   0  0  2  0  0  0  0  0  0  0  0  0
   -1.0720    1.5530   -0.3080 C   0  0  2  0  0  0  0  0  0  0  0  0
   -2.0960    1.4400   -1.4250 C   0  0  0  0  0  0  0  0  0  0  0  0
   -0.0520    2.5120   -0.8570 C   0  0  0  0  0  0  0  0  0  0  0  0
   -0.7690    3.7830   -1.3580 C   0  0  0  0  0  0  0  0  0  0  0  0
   -1.4840    4.4800   -0.2500 C   0  0  0  0  0  0  0  0  0  0  0  0
   -1.2660    3.7010    1.0150 C   0  0  1  0  0  0  0  0  0  0  0  0
   -2.0750    4.2600    2.0340 O   0  0  0  0  0  0  0  0  0  0  0  0
   -1.7830    2.3150    0.8150 C   0  0  0  0  0  0  0  0  0  0  0  0
  1  2  1  0
  2  3  1  0
  4  3  1  1
  4  5  1  0
  4 11  1  0
  5  6  1  0
  6  7  2  0
  6 10  1  0
  7  8  1  0
  8  9  1  0
  9 10  2  0
 11 12  1  6
 11 20  1  0
 12 13  1  0
 13 14  1  0
 14 15  1  6
 14 19  1  0
 15 16  2  3
 16 17  1  0
 16 18  1  0
 20 19  1  6
 20 21  1  0
 21 22  1  6
 21 23  1  0
 21 28  1  0
 23 24  1  0
 24 25  1  0
 25 26  1  0
 26 27  1  1
 26 28  1  0
M  END
