
     RDKit          3D

 28 30  0  0  0  0  0  0  0  0999 V2000
   -0.0190    3.9020    2.0790 C   0  0  0  0  0  0  0  0  0  0  0  0
   -1.0160    2.8150    2.4210 C   0  0  0  0  0  0  0  0  0  0  0  0
   -0.5340    1.4570    1.8640 C   0  0  0  0  0  0  0  0  0  0  0  0
   -0.4290    1.6360    0.4010 C   0  0  0  0  0  0  0  0  0  0  0  0
   -0.0100    0.5470   -0.4600 C   0  0  2  0  0  0  0  0  0  0  0  0
   -0.7880   -0.7140   -0.4470 C   0  0  0  0  0  0  0  0  0  0  0  0
   -2.1960   -0.7340   -0.8110 C   0  0  2  0  0  0  0  0  0  0  0  0
   -3.2330   -0.0190   -0.0610 C   0  0  0  0  0  0  0  0  0  0  0  0
   -4.4140    0.2160   -1.0120 C   0  0  2  0  0  0  0  0  0  0  0  0
   -4.1430    1.5550   -1.6830 C   0  0  0  0  0  0  0  0  0  0  0  0
   -5.7010    0.3530   -0.2310 C   0  0  0  0  0  0  0  0  0  0  0  0
   -4.5880   -0.8350   -2.0400 C   0  0  0  0  0  0  0  0  0  0  0  0
   -4.0190   -2.1730   -1.6810 C   0  0  0  0  0  0  0  0  0  0  0  0
   -4.4280   -3.4100   -1.8320 C   0  0  0  0  0  0  0  0  0  0  0  0
   -3.4020   -4.3050   -1.2610 C   0  0  0  0  0  0  0  0  0  0  0  0
   -2.3480   -3.3580   -0.7640 C   0  0  0  0  0  0  0  0  0  0  0  0
   -2.7290   -2.1330   -1.0190 C   0  0  0  0  0  0  0  0  0  0  0  0
    1.4400    0.2250   -0.5850 C   0  0  2  0  0  0  0  0  0  0  0  0
    2.2020   -0.1650    0.6140 C   0  0  0  0  0  0  0  0  0  0  0  0
    3.6360   -0.4950    0.1000 C   0  0  2  0  0  0  0  0  0  0  0  0
    4.2100   -1.6000    0.8210 C   0  0  0  0  0  0  0  0  0  0  0  0
    5.3310   -1.6650    1.4560 C   0  0  0  0  0  0  0  0  0  0  0  0
    6.3590   -0.6350    1.6330 C   0  0  0  0  0  0  0  0  0  0  0  0
    5.6770   -2.9990    2.1510 C   0  0  0  0  0  0  0  0  0  0  0  0
    4.3320    0.8100    0.0230 C   0  0  0  0  0  0  0  0  0  0  0  0
    3.3020    1.8650   -0.4410 C   0  0  0  0  0  0  0  0  0  0  0  0
    2.2590    1.2440   -1.3420 C   0  0  2  0  0  0  0  0  0  0  0  0
    1.4780    2.2750   -1.8520 O   0  0  0  0  0  0  0  0  0  0  0  0
  1  2  1  0
  2  3  1  0
  3  4  1  0
  5  4  1  1
  5  6  1  0
  5 18  1  0
  7  6  1  1
  7  8  1  0
  7 17  1  0
  8  9  1  0
  9 10  1  6
  9 11  1  0
  9 12  1  0
 12 13  1  0
 13 14  2  0
 13 17  1  0
 14 15  1  0
 15 16  1  0
 16 17  2  0
 18 19  1  1
 18 27  1  0
 19 20  1  0
 20 21  1  1
 20 25  1  0
 21 22  2  3
 22 23  1  0
 22 24  1  0
 25 26  1  0
 26 27  1  0
 27 28  1  1
M  END
