
     RDKit          3D

 25 29  0  0  0  0  0  0  0  0999 V2000
    4.7380    2.9690    0.8940 C   0  0  0  0  0  0  0  0  0  0  0  0
    3.6980    3.7350    0.4300 C   0  0  0  0  0  0  0  0  0  0  0  0
    2.7090    2.9580    0.1010 O   0  0  0  0  0  0  0  0  0  0  0  0
    3.0060    1.7070    0.3100 C   0  0  0  0  0  0  0  0  0  0  0  0
    2.2340    0.4980    0.0970 C   0  0  0  0  0  0  0  0  0  0  0  0
    2.6960   -0.7540    0.3960 C   0  0  0  0  0  0  0  0  0  0  0  0
    1.9480   -1.8830    0.1970 C   0  0  0  0  0  0  0  0  0  0  0  0
    0.6680   -1.7610   -0.3280 C   0  0  0  0  0  0  0  0  0  0  0  0
    0.1850   -0.4970   -0.6370 C   0  0  0  0  0  0  0  0  0  0  0  0
    0.9480    0.6280   -0.4320 C   0  0  0  0  0  0  0  0  0  0  0  0
    0.4410    1.9660   -0.7740 C   0  0  0  0  0  0  0  0  0  0  0  0
   -0.8700    1.8920   -1.4550 C   0  0  0  0  0  0  0  0  0  0  0  0
   -1.7710    0.8680   -1.0410 N   0  0  2  0  0  0  0  0  0  0  0  0
   -2.2070    1.0570    0.3290 C   0  0  0  0  0  0  0  0  0  0  0  0
   -3.5600    0.4900    0.5280 C   0  0  0  0  0  0  0  0  0  0  0  0
   -4.3110   -0.2510   -0.3730 C   0  0  0  0  0  0  0  0  0  0  0  0
   -5.5120   -0.5750    0.2210 C   0  0  0  0  0  0  0  0  0  0  0  0
   -5.5050   -0.0680    1.4130 O   0  0  0  0  0  0  0  0  0  0  0  0
   -4.3790    0.5710    1.6480 C   0  0  0  0  0  0  0  0  0  0  0  0
   -1.2000   -0.4620   -1.1790 C   0  0  0  0  0  0  0  0  0  0  0  0
   -0.0930   -2.9100   -0.5300 O   0  0  0  0  0  0  0  0  0  0  0  0
    0.2460   -4.1720   -0.0060 C   0  0  0  0  0  0  0  0  0  0  0  0
    1.7330   -4.3300    0.1490 C   0  0  0  0  0  0  0  0  0  0  0  0
    2.4040   -3.1560    0.4950 O   0  0  0  0  0  0  0  0  0  0  0  0
    4.3110    1.6640    0.8240 C   0  0  0  0  0  0  0  0  0  0  0  0
  1  2  2  0
  1 25  1  0
  2  3  1  0
  3  4  1  0
  4  5  1  0
  4 25  2  0
  5  6  2  0
  5 10  1  0
  6  7  1  0
  7  8  2  0
  7 24  1  0
  8  9  1  0
  8 21  1  0
  9 10  2  0
  9 20  1  0
 10 11  1  0
 11 12  1  0
 12 13  1  0
 13 14  1  1
 13 20  1  0
 14 15  1  0
 15 16  1  0
 15 19  2  0
 16 17  2  0
 17 18  1  0
 18 19  1  0
 21 22  1  0
 22 23  1  0
 23 24  1  0
M  CHG  1  13   1
M  END
