
     RDKit          3D

 28 30  0  0  0  0  0  0  0  0999 V2000
    7.2980   -0.9500   -1.7490 C   0  0  0  0  0  0  0  0  0  0  0  0
    5.8200   -0.8310   -2.0560 C   0  0  0  0  0  0  0  0  0  0  0  0
    5.1390   -0.4130   -0.7660 C   0  0  0  0  0  0  0  0  0  0  0  0
    3.6540   -0.2610   -0.9450 C   0  0  0  0  0  0  0  0  0  0  0  0
    2.9920    0.1740    0.3880 C   0  0  1  0  0  0  0  0  0  0  0  0
    3.6040    1.4910    0.6940 C   0  0  0  0  0  0  0  0  0  0  0  0
    1.5340    0.2590    0.1120 C   0  0  0  0  0  0  0  0  0  0  0  0
    0.6060    0.5860    1.1950 C   0  0  1  0  0  0  0  0  0  0  0  0
    0.8470   -0.6000    2.1950 C   0  0  0  0  0  0  0  0  0  0  0  0
    0.9860    1.7040    2.1360 C   0  0  0  0  0  0  0  0  0  0  0  0
   -0.8620    0.5960    0.9110 C   0  0  1  0  0  0  0  0  0  0  0  0
   -1.3200    0.9520    2.2300 O   0  0  0  0  0  0  0  0  0  0  0  0
   -1.4300    1.6810    0.1000 C   0  0  2  0  0  0  0  0  0  0  0  0
   -0.9700    1.9320   -1.2850 C   0  0  0  0  0  0  0  0  0  0  0  0
   -2.1000    2.7640   -1.9390 C   0  0  0  0  0  0  0  0  0  0  0  0
   -1.9150    4.1790   -1.4800 C   0  0  0  0  0  0  0  0  0  0  0  0
   -1.2360    4.1730   -0.1590 C   0  0  0  0  0  0  0  0  0  0  0  0
   -1.6600    3.0210    0.7380 C   0  0  0  0  0  0  0  0  0  0  0  0
   -1.5190   -0.7680    0.7150 C   0  0  2  0  0  0  0  0  0  0  0  0
   -1.1030   -1.6330   -0.3740 C   0  0  0  0  0  0  0  0  0  0  0  0
   -2.1620   -2.4580   -1.0820 C   0  0  1  0  0  0  0  0  0  0  0  0
   -1.3870   -3.4620   -1.9660 C   0  0  0  0  0  0  0  0  0  0  0  0
   -3.0680   -3.2520   -0.2470 C   0  0  0  0  0  0  0  0  0  0  0  0
   -4.2920   -2.4180    0.0590 C   0  0  1  0  0  0  0  0  0  0  0  0
   -4.5350   -2.6120    1.5620 C   0  0  0  0  0  0  0  0  0  0  0  0
   -3.3140   -1.9070    2.1030 C   0  0  0  0  0  0  0  0  0  0  0  0
   -2.9770   -0.7930    1.1000 C   0  0  2  0  0  0  0  0  0  0  0  0
   -3.9800   -0.9380    0.0400 C   0  0  0  0  0  0  0  0  0  0  0  0
  1  2  1  0
  2  3  1  0
  3  4  1  0
  4  5  1  0
  5  6  1  6
  5  7  1  0
  7  8  1  0
  8  9  1  1
  8 10  1  0
  8 11  1  0
 11 12  1  1
 11 13  1  0
 11 19  1  0
 13 14  1  6
 13 18  1  0
 14 15  1  0
 15 16  1  0
 16 17  1  0
 17 18  1  0
 19 20  1  6
 19 27  1  0
 20 21  1  0
 21 22  1  6
 21 23  1  0
 24 23  1  1
 24 25  1  0
 24 28  1  0
 25 26  1  0
 27 26  1  1
 27 28  1  0
M  END
