
     RDKit          3D

 28 30  0  0  0  0  0  0  0  0999 V2000
    4.3640   -2.0600    1.2690 C   0  0  0  0  0  0  0  0  0  0  0  0
    2.9400   -2.5230    1.1800 C   0  0  0  0  0  0  0  0  0  0  0  0
    1.8810   -1.6330    1.6310 C   0  0  0  0  0  0  0  0  0  0  0  0
    1.5920   -0.3010    1.1400 C   0  0  1  0  0  0  0  0  0  0  0  0
    2.8630    0.5130    1.4530 C   0  0  0  0  0  0  0  0  0  0  0  0
    2.5020    1.9490    1.5060 C   0  0  0  0  0  0  0  0  0  0  0  0
    1.5240    2.3470    0.7590 C   0  0  0  0  0  0  0  0  0  0  0  0
    1.1630    3.8210    0.8210 C   0  0  0  0  0  0  0  0  0  0  0  0
    0.7020    1.5610   -0.1480 C   0  0  0  0  0  0  0  0  0  0  0  0
    1.0260    0.0440   -0.1620 C   0  0  1  0  0  0  0  0  0  0  0  0
    2.1700    0.0090   -1.1740 C   0  0  0  0  0  0  0  0  0  0  0  0
    2.8690    1.0630   -1.6190 C   0  0  0  0  0  0  0  0  0  0  0  0
    3.9100    0.6630   -2.5900 C   0  0  0  0  0  0  0  0  0  0  0  0
    3.7390   -0.7870   -2.6390 C   0  0  0  0  0  0  0  0  0  0  0  0
    2.7460   -1.1350   -1.8320 C   0  0  0  0  0  0  0  0  0  0  0  0
   -0.1340   -0.5900   -0.7470 C   0  0  1  0  0  0  0  0  0  0  0  0
   -0.2740    0.1430   -2.0940 C   0  0  0  0  0  0  0  0  0  0  0  0
    0.2900   -1.9050   -1.1090 O   0  0  0  0  0  0  0  0  0  0  0  0
   -1.4800   -0.8350   -0.2180 C   0  0  2  0  0  0  0  0  0  0  0  0
   -1.5730   -1.6980    0.9890 C   0  0  0  0  0  0  0  0  0  0  0  0
   -2.1480   -1.6930   -1.3130 C   0  0  0  0  0  0  0  0  0  0  0  0
   -3.1820   -0.8420   -1.9480 C   0  0  0  0  0  0  0  0  0  0  0  0
   -3.8020   -0.3320   -0.6150 C   0  0  2  0  0  0  0  0  0  0  0  0
   -4.8620    0.6080   -0.9810 C   0  0  0  0  0  0  0  0  0  0  0  0
   -2.4710    0.2860   -0.1010 C   0  0  1  0  0  0  0  0  0  0  0  0
   -2.7280    0.8270    1.2720 C   0  0  1  0  0  0  0  0  0  0  0  0
   -3.6340    2.0910    1.1480 C   0  0  0  0  0  0  0  0  0  0  0  0
   -3.5610   -0.0080    2.2050 C   0  0  0  0  0  0  0  0  0  0  0  0
  1  2  1  0
  2  3  1  0
  4  3  1  6
  4  5  1  0
  4 10  1  0
  5  6  1  0
  6  7  2  0
  7  8  1  0
  7  9  1  0
  9 10  1  0
 10 11  1  6
 10 16  1  0
 11 12  2  0
 11 15  1  0
 12 13  1  0
 13 14  1  0
 14 15  2  0
 16 17  1  6
 16 18  1  0
 16 19  1  0
 19 20  1  1
 19 21  1  0
 19 25  1  0
 21 22  1  0
 22 23  1  0
 23 24  1  6
 23 25  1  0
 25 26  1  1
 26 27  1  6
 26 28  1  0
M  END
