
     RDKit          3D

 28 30  0  0  0  0  0  0  0  0999 V2000
   -4.6000   -3.0140    0.8120 C   0  0  0  0  0  0  0  0  0  0  0  0
   -3.3640   -2.1540    0.9810 C   0  0  0  0  0  0  0  0  0  0  0  0
   -2.8550   -1.5790   -0.0510 C   0  0  0  0  0  0  0  0  0  0  0  0
   -3.5430   -1.8040   -1.4150 C   0  0  0  0  0  0  0  0  0  0  0  0
   -3.6010   -0.3870   -1.8500 C   0  0  0  0  0  0  0  0  0  0  0  0
   -2.5650    0.2610   -1.3220 C   0  0  0  0  0  0  0  0  0  0  0  0
   -1.7680   -0.7050   -0.5030 C   0  0  2  0  0  0  0  0  0  0  0  0
   -1.1860   -1.5020   -1.5170 O   0  0  0  0  0  0  0  0  0  0  0  0
   -0.7940   -0.1260    0.4370 C   0  0  1  0  0  0  0  0  0  0  0  0
   -1.6250    0.5770    1.4740 C   0  0  0  0  0  0  0  0  0  0  0  0
   -0.2100   -1.3180    1.2540 C   0  0  0  0  0  0  0  0  0  0  0  0
    0.9930   -0.7570    1.9270 C   0  0  0  0  0  0  0  0  0  0  0  0
    1.2740    0.4910    1.2250 C   0  0  0  0  0  0  0  0  0  0  0  0
    0.3580    0.5930   -0.0410 C   0  0  2  0  0  0  0  0  0  0  0  0
    0.3570    2.0420   -0.3170 C   0  0  0  0  0  0  0  0  0  0  0  0
    0.0980    3.1350    0.6050 C   0  0  0  0  0  0  0  0  0  0  0  0
    1.1520    3.8810    1.0930 C   0  0  0  0  0  0  0  0  0  0  0  0
    0.7080    4.9350    1.9870 C   0  0  0  0  0  0  0  0  0  0  0  0
   -0.7500    4.8090    1.9260 C   0  0  0  0  0  0  0  0  0  0  0  0
   -1.0460    3.7800    1.1450 C   0  0  0  0  0  0  0  0  0  0  0  0
   -2.5260    3.5420    0.8880 C   0  0  0  0  0  0  0  0  0  0  0  0
    1.0620   -0.0120   -1.2500 C   0  0  1  0  0  0  0  0  0  0  0  0
    2.2290    0.9190   -1.7070 C   0  0  0  0  0  0  0  0  0  0  0  0
    1.7350   -1.3070   -1.2370 C   0  0  1  0  0  0  0  0  0  0  0  0
    2.1640   -1.5220   -2.7490 C   0  0  0  0  0  0  0  0  0  0  0  0
    3.1240   -1.3840   -0.6060 C   0  0  0  0  0  0  0  0  0  0  0  0
    3.5940   -2.8580   -0.7070 C   0  0  0  0  0  0  0  0  0  0  0  0
    4.9650   -2.9260   -0.0850 C   0  0  0  0  0  0  0  0  0  0  0  0
  1  2  1  0
  2  3  2  3
  3  4  1  0
  3  7  1  0
  4  5  1  0
  5  6  2  0
  6  7  1  0
  7  8  1  6
  7  9  1  0
  9 10  1  1
  9 11  1  0
  9 14  1  0
 11 12  1  0
 12 13  1  0
 13 14  1  0
 14 15  1  6
 14 22  1  0
 15 16  1  0
 16 17  2  0
 16 20  1  0
 17 18  1  0
 18 19  1  0
 19 20  2  0
 20 21  1  0
 22 23  1  1
 22 24  1  0
 24 25  1  6
 24 26  1  0
 26 27  1  0
 27 28  1  0
M  END
