
     RDKit          3D

 28 30  0  0  0  0  0  0  0  0999 V2000
   -4.9230    0.4970    2.5380 C   0  0  0  0  0  0  0  0  0  0  0  0
   -5.3270    0.3980    1.2950 C   0  0  0  0  0  0  0  0  0  0  0  0
   -5.8060    1.6080    0.5360 C   0  0  0  0  0  0  0  0  0  0  0  0
   -7.1490    1.2590   -0.0320 C   0  0  0  0  0  0  0  0  0  0  0  0
   -7.0990    0.0110   -0.8870 C   0  0  2  0  0  0  0  0  0  0  0  0
   -8.4010   -0.2260   -1.3300 O   0  0  0  0  0  0  0  0  0  0  0  0
   -6.7040   -1.1340    0.0040 C   0  0  0  0  0  0  0  0  0  0  0  0
   -5.3370   -0.8920    0.5740 C   0  0  1  0  0  0  0  0  0  0  0  0
   -4.2590   -0.9080   -0.4960 C   0  0  0  0  0  0  0  0  0  0  0  0
   -2.9420   -0.7130    0.1950 C   0  0  0  0  0  0  0  0  0  0  0  0
   -1.7760   -0.7070   -0.7530 C   0  0  2  0  0  0  0  0  0  0  0  0
   -1.6720   -2.0320   -1.5260 C   0  0  0  0  0  0  0  0  0  0  0  0
   -0.5200   -1.9040   -2.4560 C   0  0  0  0  0  0  0  0  0  0  0  0
    0.7840   -1.4990   -1.8570 C   0  0  0  0  0  0  0  0  0  0  0  0
    0.7430   -0.4360   -0.8220 C   0  0  1  0  0  0  0  0  0  0  0  0
    0.6230    0.9520   -1.4260 C   0  0  0  0  0  0  0  0  0  0  0  0
   -0.5380   -0.6090    0.0170 C   0  0  1  0  0  0  0  0  0  0  0  0
   -0.4070    0.4950    0.9890 C   0  0  0  0  0  0  0  0  0  0  0  0
    1.0760    0.4650    1.3030 C   0  0  0  0  0  0  0  0  0  0  0  0
    1.6980   -0.5200    0.2960 C   0  0  2  0  0  0  0  0  0  0  0  0
    3.1330   -0.2880    0.1040 C   0  0  2  0  0  0  0  0  0  0  0  0
    3.8670   -1.1700   -0.8190 C   0  0  0  0  0  0  0  0  0  0  0  0
    3.8330   -0.3560    1.4520 C   0  0  0  0  0  0  0  0  0  0  0  0
    5.3010   -0.1200    1.3850 C   0  0  0  0  0  0  0  0  0  0  0  0
    5.6510    1.2530    0.8320 C   0  0  0  0  0  0  0  0  0  0  0  0
    7.1450    1.4010    0.7960 C   0  0  1  0  0  0  0  0  0  0  0  0
    7.7790    0.3620   -0.0710 C   0  0  0  0  0  0  0  0  0  0  0  0
    7.5480    2.7570    0.2860 C   0  0  0  0  0  0  0  0  0  0  0  0
  1  2  2  0
  2  3  1  0
  2  8  1  0
  3  4  1  0
  4  5  1  0
  5  6  1  1
  5  7  1  0
  7  8  1  0
  8  9  1  6
  9 10  1  0
 11 10  1  1
 11 12  1  0
 11 17  1  0
 12 13  1  0
 13 14  1  0
 14 15  1  0
 15 16  1  6
 15 17  1  0
 15 20  1  0
 17 18  1  1
 18 19  1  0
 20 19  1  1
 20 21  1  0
 21 22  1  6
 21 23  1  0
 23 24  1  0
 24 25  1  0
 25 26  1  0
 26 27  1  6
 26 28  1  0
M  END
