
     RDKit          3D

 28 30  0  0  0  0  0  0  0  0999 V2000
   -4.6600   -3.5530    0.3580 C   0  0  0  0  0  0  0  0  0  0  0  0
   -3.6850   -3.2560   -0.7620 C   0  0  0  0  0  0  0  0  0  0  0  0
   -3.2750   -1.8130   -0.8410 C   0  0  1  0  0  0  0  0  0  0  0  0
   -4.4840   -1.0180   -1.0570 C   0  0  0  0  0  0  0  0  0  0  0  0
   -4.5290    0.3690   -0.5520 C   0  0  0  0  0  0  0  0  0  0  0  0
   -3.8230    0.5580    0.7290 C   0  0  0  0  0  0  0  0  0  0  0  0
   -2.5140   -0.1280    0.9060 C   0  0  2  0  0  0  0  0  0  0  0  0
   -1.5090   -0.1620   -0.2370 C   0  0  1  0  0  0  0  0  0  0  0  0
   -2.1080    0.4460   -1.4320 O   0  0  0  0  0  0  0  0  0  0  0  0
   -0.2090    0.4640   -0.0210 C   0  0  1  0  0  0  0  0  0  0  0  0
   -0.5430    1.9460    0.3090 C   0  0  0  0  0  0  0  0  0  0  0  0
    0.5780    2.8230    0.5720 C   0  0  0  0  0  0  0  0  0  0  0  0
    0.8930    3.8740   -0.2330 C   0  0  0  0  0  0  0  0  0  0  0  0
    0.0280    4.0850   -1.4060 C   0  0  0  0  0  0  0  0  0  0  0  0
    2.0270    4.7770    0.0160 C   0  0  0  0  0  0  0  0  0  0  0  0
    0.8890   -0.1100    0.7390 C   0  0  2  0  0  0  0  0  0  0  0  0
    0.7940   -0.3540    2.2030 C   0  0  0  0  0  0  0  0  0  0  0  0
    1.8320   -1.4150    2.5660 C   0  0  0  0  0  0  0  0  0  0  0  0
    3.1790   -0.7710    2.5070 C   0  0  0  0  0  0  0  0  0  0  0  0
    3.1180    0.5150    1.7110 C   0  0  1  0  0  0  0  0  0  0  0  0
    4.5460    0.7990    1.2820 C   0  0  0  0  0  0  0  0  0  0  0  0
    2.3020    0.3450    0.4350 C   0  0  1  0  0  0  0  0  0  0  0  0
    3.0640   -0.6240   -0.4580 C   0  0  0  0  0  0  0  0  0  0  0  0
    2.4890   -0.8660   -1.7970 C   0  0  2  0  0  0  0  0  0  0  0  0
    3.4120   -1.8830   -2.5130 C   0  0  0  0  0  0  0  0  0  0  0  0
    2.5600    0.3660   -2.7000 C   0  0  0  0  0  0  0  0  0  0  0  0
   -2.2370   -1.3430    0.1480 C   0  0  2  0  0  0  0  0  0  0  0  0
   -1.7290   -2.4820    1.0040 C   0  0  0  0  0  0  0  0  0  0  0  0
  1  2  1  0
  3  2  1  1
  3  4  1  0
  3 27  1  0
  4  5  1  0
  5  6  1  0
  7  6  1  6
  7  8  1  0
  7 27  1  0
  8  9  1  6
  8 10  1  0
  8 27  1  0
 10 11  1  1
 10 16  1  0
 11 12  1  0
 12 13  2  3
 13 14  1  0
 13 15  1  0
 16 17  1  1
 16 22  1  0
 17 18  1  0
 18 19  1  0
 19 20  1  0
 20 21  1  6
 20 22  1  0
 22 23  1  6
 23 24  1  0
 24 25  1  6
 24 26  1  0
 27 28  1  1
M  END
