
     RDKit          3D

 12 11  0  0  0  0  0  0  0  0999 V2000
   -2.9450   -1.5190   -0.1830 C   0  0  0  0  0  0  0  0  0  0  0  0
   -3.3190   -0.2820    0.0330 C   0  0  0  0  0  0  0  0  0  0  0  0
   -2.3630    0.6770    0.5190 C   0  0  0  0  0  0  0  0  0  0  0  0
   -2.7350    1.9120    0.7350 C   0  0  0  0  0  0  0  0  0  0  0  0
   -1.0670    0.3020    0.7550 O   0  0  0  0  0  0  0  0  0  0  0  0
   -0.0440    0.3530   -0.1730 C   0  0  0  0  0  0  0  0  0  0  0  0
   -0.3230    0.7740   -1.3180 O   0  0  0  0  0  0  0  0  0  0  0  0
    1.2970   -0.0880    0.2440 C   0  0  0  0  0  0  0  0  0  0  0  0
    2.2530    0.0090   -0.7840 O   0  0  0  0  0  0  0  0  0  0  0  0
    3.5520   -0.3850   -0.4860 C   0  0  0  0  0  0  0  0  0  0  0  0
    4.6140   -0.3470   -1.4030 N   0  0  0  0  0  0  0  0  0  0  0  0
    3.8250   -0.8130    0.6870 O   0  0  0  0  0  0  0  0  0  0  0  0
  1  2  2  0
  2  3  1  0
  3  4  2  0
  3  5  1  0
  5  6  1  0
  6  7  2  0
  6  8  1  0
  8  9  1  0
  9 10  1  0
 10 11  1  0
 10 12  2  0
M  END
