
     RDKit          3D

 12 12  0  0  0  0  0  0  0  0999 V2000
    2.4370   -1.0980    0.0520 C   0  0  0  0  0  0  0  0  0  0  0  0
    1.5920   -0.2150   -0.8610 C   0  0  0  0  0  0  0  0  0  0  0  0
    0.1720   -0.2480   -0.4730 C   0  0  0  0  0  0  0  0  0  0  0  0
   -0.4710    0.7960   -0.0250 C   0  0  0  0  0  0  0  0  0  0  0  0
    0.1460    2.0920    0.1410 C   0  0  0  0  0  0  0  0  0  0  0  0
    1.3220    2.3700   -0.1080 O   0  0  0  0  0  0  0  0  0  0  0  0
   -0.6390    3.1410    0.6240 O   0  0  0  0  0  0  0  0  0  0  0  0
   -1.8880    0.6810    0.3290 N   0  0  0  0  0  0  0  0  0  0  0  0
   -2.4740   -0.5940    0.1540 C   0  0  0  0  0  0  0  0  0  0  0  0
   -3.7080   -0.6830   -0.0790 O   0  0  0  0  0  0  0  0  0  0  0  0
   -1.5680   -1.7610    0.2600 C   0  0  0  0  0  0  0  0  0  0  0  0
   -0.4920   -1.4880   -0.6060 O   0  0  0  0  0  0  0  0  0  0  0  0
  1  2  1  0
  2  3  1  0
  3  4  2  0
  3 12  1  0
  4  5  1  0
  4  8  1  0
  5  6  2  0
  5  7  1  0
  8  9  1  0
  9 10  2  0
  9 11  1  0
 11 12  1  0
M  END
