
     RDKit          3D

 12 12  0  0  0  0  0  0  0  0999 V2000
    2.5420    1.1460   -0.5170 N   0  0  0  0  0  0  0  0  0  0  0  0
    3.2900    0.0270   -0.0650 C   0  0  0  0  0  0  0  0  0  0  0  0
    4.5290    0.1200    0.0990 O   0  0  0  0  0  0  0  0  0  0  0  0
    2.5720   -1.2380    0.2040 C   0  0  0  0  0  0  0  0  0  0  0  0
    1.1860   -1.1020   -0.0400 O   0  0  0  0  0  0  0  0  0  0  0  0
    0.4290   -0.1840    0.6680 C   0  0  0  0  0  0  0  0  0  0  0  0
    0.9690    0.5540    1.5530 O   0  0  0  0  0  0  0  0  0  0  0  0
   -1.0030   -0.0280    0.4300 C   0  0  0  0  0  0  0  0  0  0  0  0
   -1.6780   -0.7430   -0.4700 C   0  0  0  0  0  0  0  0  0  0  0  0
   -3.1000   -0.3150   -0.4350 C   0  0  0  0  0  0  0  0  0  0  0  0
   -2.9940    1.0360    0.2340 C   0  0  0  0  0  0  0  0  0  0  0  0
   -1.8680    0.8510    1.0680 O   0  0  0  0  0  0  0  0  0  0  0  0
  1  2  1  0
  2  3  2  0
  2  4  1  0
  4  5  1  0
  5  6  1  0
  6  7  2  0
  6  8  1  0
  8  9  2  0
  8 12  1  0
  9 10  1  0
 10 11  1  0
 11 12  1  0
M  END
