
     RDKit          3D

 12 12  0  0  0  0  0  0  0  0999 V2000
    3.8000    0.3070   -0.2030 C   0  0  0  0  0  0  0  0  0  0  0  0
    2.3990    0.4660   -0.2600 O   0  0  0  0  0  0  0  0  0  0  0  0
    1.4880   -0.5120    0.0290 C   0  0  0  0  0  0  0  0  0  0  0  0
    1.9050   -1.6450    0.3740 O   0  0  0  0  0  0  0  0  0  0  0  0
    0.0320   -0.3010   -0.0440 C   0  0  0  0  0  0  0  0  0  0  0  0
   -0.8500   -1.3120    0.2560 C   0  0  0  0  0  0  0  0  0  0  0  0
   -2.2240   -1.1360    0.1930 C   0  0  0  0  0  0  0  0  0  0  0  0
   -2.7270    0.0740   -0.1760 C   0  0  0  0  0  0  0  0  0  0  0  0
   -4.1020    0.3270   -0.2610 O   0  0  0  0  0  0  0  0  0  0  0  0
   -1.8170    1.0890   -0.4770 C   0  0  0  0  0  0  0  0  0  0  0  0
   -2.3110    2.1970   -0.8150 O   0  0  0  0  0  0  0  0  0  0  0  0
   -0.4960    0.8780   -0.4040 N   0  0  0  0  0  0  0  0  0  0  0  0
  1  2  1  0
  2  3  1  0
  3  4  2  0
  3  5  1  0
  5  6  2  0
  5 12  1  0
  6  7  1  0
  7  8  2  0
  8  9  1  0
  8 10  1  0
 10 11  2  0
 10 12  1  0
M  END
