
     RDKit          3D

 28 32  0  0  0  0  0  0  0  0999 V2000
    9.3450    0.3830    0.0990 C   0  0  0  0  0  0  0  0  0  0  0  0
    7.8470    0.2390    0.2030 C   0  0  0  0  0  0  0  0  0  0  0  0
    7.1910    0.5880   -0.9910 O   0  0  0  0  0  0  0  0  0  0  0  0
    5.8250    0.5120   -1.0590 C   0  0  0  0  0  0  0  0  0  0  0  0
    5.1680    0.8540   -2.2320 C   0  0  0  0  0  0  0  0  0  0  0  0
    3.7990    0.7600   -2.2480 C   0  0  0  0  0  0  0  0  0  0  0  0
    3.0450    0.3450   -1.1620 C   0  0  0  0  0  0  0  0  0  0  0  0
    1.7030    0.2640   -1.2110 N   0  0  0  0  0  0  0  0  0  0  0  0
    0.9760   -0.1420   -0.1450 C   0  0  0  0  0  0  0  0  0  0  0  0
    1.5900   -0.4920    1.0400 C   0  0  0  0  0  0  0  0  0  0  0  0
    2.9640   -0.4130    1.1040 C   0  0  0  0  0  0  0  0  0  0  0  0
    3.7110    0.0070    0.0030 C   0  0  0  0  0  0  0  0  0  0  0  0
    5.0860    0.0940    0.0400 C   0  0  0  0  0  0  0  0  0  0  0  0
    0.9610   -0.9470    2.2750 C   0  0  0  0  0  0  0  0  0  0  0  0
    1.7520   -1.1300    3.2540 O   0  0  0  0  0  0  0  0  0  0  0  0
   -0.3910   -1.1910    2.4700 O   0  0  0  0  0  0  0  0  0  0  0  0
   -1.3220   -1.5670    1.5100 C   0  0  0  0  0  0  0  0  0  0  0  0
   -1.3600   -0.7560    0.3000 C   0  0  0  0  0  0  0  0  0  0  0  0
   -2.6630   -0.5700   -0.2410 N   0  0  0  0  0  0  0  0  0  0  0  0
   -3.1980   -1.2580   -1.3740 C   0  0  0  0  0  0  0  0  0  0  0  0
   -4.2810   -0.2830   -1.8500 C   0  0  0  0  0  0  0  0  0  0  0  0
   -4.8320    0.2430   -0.5680 C   0  0  2  0  0  0  0  0  0  0  0  0
   -5.8210   -0.6700    0.0890 C   0  0  0  0  0  0  0  0  0  0  0  0
   -6.5670    0.2880    1.0140 C   0  0  0  0  0  0  0  0  0  0  0  0
   -6.8280    1.4570    0.0830 C   0  0  0  0  0  0  0  0  0  0  0  0
   -5.5500    1.5620   -0.7290 C   0  0  0  0  0  0  0  0  0  0  0  0
   -3.6170    0.3690    0.3200 C   0  0  0  0  0  0  0  0  0  0  0  0
   -0.4260   -0.1600   -0.3990 N   0  0  0  0  0  0  0  0  0  0  0  0
  1  2  1  0
  2  3  1  0
  3  4  1  0
  4  5  2  0
  4 13  1  0
  5  6  1  0
  6  7  2  0
  7  8  1  0
  7 12  1  0
  8  9  2  0
  9 10  1  0
  9 28  1  0
 10 11  2  0
 10 14  1  0
 11 12  1  0
 12 13  2  0
 14 15  2  0
 14 16  1  0
 16 17  1  0
 17 18  1  0
 18 19  1  0
 18 28  2  0
 19 20  1  0
 19 27  1  0
 20 21  1  0
 22 21  1  6
 22 23  1  0
 22 26  1  0
 22 27  1  0
 23 24  1  0
 24 25  1  0
 25 26  1  0
M  END
