
     RDKit          3D

 12 12  0  0  0  0  0  0  0  0999 V2000
    2.8340   -0.2950    0.2370 C   0  0  0  0  0  0  0  0  0  0  0  0
    1.3540   -0.2080    0.1460 C   0  0  0  0  0  0  0  0  0  0  0  0
    0.5940   -1.1920    0.6490 N   0  0  0  0  0  0  0  0  0  0  0  0
   -0.7230   -1.0970    0.5580 C   0  0  0  0  0  0  0  0  0  0  0  0
   -1.4500   -2.0150    1.0270 O   0  0  0  0  0  0  0  0  0  0  0  0
   -1.3140   -0.0060   -0.0450 C   0  0  0  0  0  0  0  0  0  0  0  0
   -2.7730    0.0770   -0.1340 C   0  0  0  0  0  0  0  0  0  0  0  0
   -3.3170    1.0680   -0.6820 O   0  0  0  0  0  0  0  0  0  0  0  0
   -3.5780   -0.9180    0.3740 O   0  0  0  0  0  0  0  0  0  0  0  0
   -0.5420    1.0110   -0.5660 C   0  0  0  0  0  0  0  0  0  0  0  0
    0.8310    0.9090   -0.4690 C   0  0  0  0  0  0  0  0  0  0  0  0
    1.6660    1.9040   -0.9760 O   0  0  0  0  0  0  0  0  0  0  0  0
  1  2  1  0
  2  3  1  0
  2 11  2  0
  3  4  1  0
  4  5  2  0
  4  6  1  0
  6  7  1  0
  6 10  2  0
  7  8  2  0
  7  9  1  0
 10 11  1  0
 11 12  1  0
M  END
