
     RDKit          3D

 12 11  0  0  0  0  0  0  0  0999 V2000
    3.4530    0.2000   -1.0830 C   0  0  0  0  0  0  0  0  0  0  0  0
    2.2280   -0.3630   -0.6530 O   0  0  0  0  0  0  0  0  0  0  0  0
    1.1480    0.4670   -0.2820 C   0  0  0  0  0  0  0  0  0  0  0  0
    1.3600    1.6800   -0.3620 O   0  0  0  0  0  0  0  0  0  0  0  0
   -0.1080   -0.1030    0.1580 C   0  0  0  0  0  0  0  0  0  0  0  0
   -1.2210    0.5470    0.5420 O   0  0  0  0  0  0  0  0  0  0  0  0
   -1.5440    1.8530    0.6470 C   0  0  0  0  0  0  0  0  0  0  0  0
   -2.9080    2.3080    1.1190 C   0  0  0  0  0  0  0  0  0  0  0  0
   -0.7010    2.7110    0.3490 O   0  0  0  0  0  0  0  0  0  0  0  0
   -0.1940   -1.4660    0.1960 C   0  0  0  0  0  0  0  0  0  0  0  0
   -1.4580   -2.0640    0.6390 C   0  0  0  0  0  0  0  0  0  0  0  0
    0.9150   -2.2600   -0.1860 N   0  0  0  0  0  0  0  0  0  0  0  0
  1  2  1  0
  2  3  1  0
  3  4  2  0
  3  5  1  0
  5  6  1  0
  5 10  2  3
  6  7  1  0
  7  8  1  0
  7  9  2  0
 10 11  1  0
 10 12  1  0
M  END
