
     RDKit          3D

 12 11  0  0  0  0  0  0  0  0999 V2000
    3.1670    1.1100    0.4910 C   0  0  0  0  0  0  0  0  0  0  0  0
    2.0810    0.2320    0.1810 O   0  0  0  0  0  0  0  0  0  0  0  0
    2.1560   -0.5720   -0.9240 C   0  0  0  0  0  0  0  0  0  0  0  0
    3.1940   -0.5040   -1.6340 O   0  0  0  0  0  0  0  0  0  0  0  0
    1.1070   -1.5230   -1.3560 C   0  0  0  0  0  0  0  0  0  0  0  0
   -0.0070   -1.5280   -0.5050 O   0  0  0  0  0  0  0  0  0  0  0  0
   -0.7080   -0.3250   -0.3510 C   0  0  0  0  0  0  0  0  0  0  0  0
   -0.3150    0.6920   -0.9700 O   0  0  0  0  0  0  0  0  0  0  0  0
   -1.8800   -0.2350    0.5140 C   0  0  0  0  0  0  0  0  0  0  0  0
   -2.3570   -1.4460    1.2570 C   0  0  0  0  0  0  0  0  0  0  0  0
   -2.5050    0.9110    0.6280 C   0  0  0  0  0  0  0  0  0  0  0  0
   -2.0760    2.0690   -0.0630 N   0  0  0  0  0  0  0  0  0  0  0  0
  1  2  1  0
  2  3  1  0
  3  4  2  0
  3  5  1  0
  5  6  1  0
  6  7  1  0
  7  8  2  0
  7  9  1  0
  9 10  1  0
  9 11  2  3
 11 12  1  0
M  END
