
     RDKit          3D

 12 12  0  0  0  0  0  0  0  0999 V2000
    3.3610   -0.8380   -1.2860 O   0  0  0  0  0  0  0  0  0  0  0  0
    2.9000   -0.3750   -0.2320 C   0  0  0  0  0  0  0  0  0  0  0  0
    3.7760   -0.0240    0.7820 O   0  0  0  0  0  0  0  0  0  0  0  0
    1.4570   -0.2210   -0.1090 C   0  0  0  0  0  0  0  0  0  0  0  0
    0.9170    0.3000    1.0720 C   0  0  0  0  0  0  0  0  0  0  0  0
   -0.4430    0.4600    1.2250 C   0  0  0  0  0  0  0  0  0  0  0  0
   -1.2720    0.0970    0.1880 C   0  0  0  0  0  0  0  0  0  0  0  0
   -2.7690    0.2500    0.3000 C   0  0  0  0  0  0  0  0  0  0  0  0
   -3.3930   -0.1750   -0.8490 O   0  0  0  0  0  0  0  0  0  0  0  0
   -0.7520   -0.3990   -0.9330 N   0  0  0  0  0  0  0  0  0  0  0  0
    0.5890   -0.5720   -1.1200 C   0  0  0  0  0  0  0  0  0  0  0  0
    1.0440   -1.0470   -2.2040 O   0  0  0  0  0  0  0  0  0  0  0  0
  1  2  2  0
  2  3  1  0
  2  4  1  0
  4  5  2  0
  4 11  1  0
  5  6  1  0
  6  7  2  0
  7  8  1  0
  7 10  1  0
  8  9  1  0
 10 11  1  0
 11 12  2  0
M  END
