
     RDKit          3D

 19 20  0  0  0  0  0  0  0  0999 V2000
    6.4900    0.4880   -0.2160 N   0  0  0  0  0  0  0  0  0  0  0  0
    5.0980    0.8200   -0.0870 C   0  0  0  0  0  0  0  0  0  0  0  0
    4.8510    2.0430    0.0250 O   0  0  0  0  0  0  0  0  0  0  0  0
    4.1390   -0.2020   -0.0950 C   0  0  0  0  0  0  0  0  0  0  0  0
    4.5980   -1.4560   -0.2240 O   0  0  0  0  0  0  0  0  0  0  0  0
    2.8200   -0.3450   -0.0100 N   0  0  0  0  0  0  0  0  0  0  0  0
    1.5090   -0.2440    0.1010 C   0  0  0  0  0  0  0  0  0  0  0  0
    0.9820   -1.4490    0.0170 O   0  0  0  0  0  0  0  0  0  0  0  0
    0.6080    0.7660    0.2790 N   0  0  0  0  0  0  0  0  0  0  0  0
   -0.7810    0.5150    0.3790 C   0  0  0  0  0  0  0  0  0  0  0  0
   -1.3200    0.8470    1.5560 C   0  0  0  0  0  0  0  0  0  0  0  0
   -2.6940    0.6500    1.8000 N   0  0  0  0  0  0  0  0  0  0  0  0
   -3.4820    0.0860    0.7500 C   0  0  0  0  0  0  0  0  0  0  0  0
   -4.7550   -0.1230    0.9100 N   0  0  0  0  0  0  0  0  0  0  0  0
   -5.5420   -0.6840   -0.1320 C   0  0  0  0  0  0  0  0  0  0  0  0
   -5.0080   -1.0130   -1.3010 C   0  0  0  0  0  0  0  0  0  0  0  0
   -3.6520   -0.8110   -1.5230 O   0  0  0  0  0  0  0  0  0  0  0  0
   -2.8540   -0.2590   -0.5110 C   0  0  0  0  0  0  0  0  0  0  0  0
   -1.5620   -0.0560   -0.6950 C   0  0  0  0  0  0  0  0  0  0  0  0
  1  2  1  0
  2  3  2  0
  2  4  1  0
  4  5  2  0
  4  6  1  0
  6  7  1  0
  7  8  2  0
  7  9  1  0
  9 10  1  0
 10 11  2  0
 10 19  1  0
 11 12  1  0
 12 13  1  0
 13 14  2  0
 13 18  1  0
 14 15  1  0
 15 16  2  0
 16 17  1  0
 17 18  1  0
 18 19  2  0
M  END
