
     RDKit          3D

 11 11  0  0  0  0  0  0  0  0999 V2000
   -2.3090    1.8950   -0.6060 C   0  0  0  0  0  0  0  0  0  0  0  0
   -2.0960    0.5950   -0.5760 C   0  0  0  0  0  0  0  0  0  0  0  0
   -3.0750   -0.2540    0.1460 C   0  0  0  0  0  0  0  0  0  0  0  0
   -0.9250    0.0310   -1.2440 C   0  0  0  0  0  0  0  0  0  0  0  0
   -0.0240   -0.6680   -0.3740 N   0  0  0  0  0  0  0  0  0  0  0  0
   -0.4500   -1.9130    0.2310 C   0  0  0  0  0  0  0  0  0  0  0  0
    1.2850   -0.1970   -0.0770 C   0  0  0  0  0  0  0  0  0  0  0  0
    2.1500   -0.6930    0.7230 N   0  0  0  0  0  0  0  0  0  0  0  0
    3.3710    0.0720    0.7560 C   0  0  0  0  0  0  0  0  0  0  0  0
    3.2650    0.8740   -0.5210 C   0  0  0  0  0  0  0  0  0  0  0  0
    1.8570    0.9560   -0.6560 O   0  0  0  0  0  0  0  0  0  0  0  0
  1  2  2  0
  2  3  1  0
  2  4  1  0
  4  5  1  0
  5  6  1  0
  5  7  1  0
  7  8  2  0
  7 11  1  0
  8  9  1  0
  9 10  1  0
 10 11  1  0
M  END
