
     RDKit          3D

 19 20  0  0  0  0  0  0  0  0999 V2000
    4.9320    0.9700    1.2210 N   0  0  0  0  0  0  0  0  0  0  0  0
    4.4410   -0.1810    0.4510 C   0  0  1  0  0  0  0  0  0  0  0  0
    2.9790   -0.1650    0.3420 C   0  0  0  0  0  0  0  0  0  0  0  0
    2.3530   -0.1160   -0.8000 C   0  0  0  0  0  0  0  0  0  0  0  0
    0.8770   -0.0970   -0.9740 C   0  0  0  0  0  0  0  0  0  0  0  0
    0.1090   -0.1370    0.2180 N   0  0  0  0  0  0  0  0  0  0  0  0
   -1.3270   -0.1190    0.0660 C   0  0  0  0  0  0  0  0  0  0  0  0
   -1.8290   -0.0710   -1.0840 O   0  0  0  0  0  0  0  0  0  0  0  0
   -2.2260   -0.1570    1.2300 C   0  0  0  0  0  0  0  0  0  0  0  0
   -3.6090   -0.1290    0.8070 N   0  0  0  0  0  0  0  0  0  0  0  0
   -4.3130    0.9970    0.6320 N   0  0  0  0  0  0  0  0  0  0  0  0
   -5.5630    0.6920    0.2380 C   0  0  0  0  0  0  0  0  0  0  0  0
   -6.4650    1.5310   -0.0080 O   0  0  0  0  0  0  0  0  0  0  0  0
   -5.6310   -0.6530    0.1690 N   0  0  0  0  0  0  0  0  0  0  0  0
   -4.4170   -1.1610    0.5220 C   0  0  0  0  0  0  0  0  0  0  0  0
   -4.1250   -2.3840    0.5680 O   0  0  0  0  0  0  0  0  0  0  0  0
    3.1550   -0.0740   -2.0420 C   0  0  0  0  0  0  0  0  0  0  0  0
    4.4710   -0.0860   -2.0150 C   0  0  0  0  0  0  0  0  0  0  0  0
    5.0820   -0.1380   -0.7820 O   0  0  0  0  0  0  0  0  0  0  0  0
  2  1  1  1
  2  3  1  0
  2 19  1  0
  3  4  2  0
  4  5  1  0
  4 17  1  0
  5  6  1  0
  6  7  1  0
  7  8  2  0
  7  9  1  0
  9 10  1  0
 10 11  1  0
 10 15  1  0
 11 12  1  0
 12 13  2  0
 12 14  1  0
 14 15  1  0
 15 16  2  0
 17 18  2  0
 18 19  1  0
M  END
