
     RDKit          3D

 19 20  0  0  0  0  0  0  0  0999 V2000
    6.2330    0.6900   -0.0220 N   0  0  0  0  0  0  0  0  0  0  0  0
    5.0750    1.0030    0.7660 C   0  0  0  0  0  0  0  0  0  0  0  0
    3.8630    0.3750    0.1850 C   0  0  0  0  0  0  0  0  0  0  0  0
    2.6530    0.5270    0.7500 N   0  0  0  0  0  0  0  0  0  0  0  0
    1.5350   -0.0490    0.2190 C   0  0  0  0  0  0  0  0  0  0  0  0
    0.3000    0.1170    0.8460 N   0  0  0  0  0  0  0  0  0  0  0  0
   -0.9790   -0.4000    0.4290 C   0  0  1  0  0  0  0  0  0  0  0  0
   -1.9770   -0.1950    1.5410 C   0  0  0  0  0  0  0  0  0  0  0  0
   -3.3410    0.2140    1.1220 C   0  0  2  0  0  0  0  0  0  0  0  0
   -4.2190   -0.9270    0.6590 C   0  0  0  0  0  0  0  0  0  0  0  0
   -5.4690   -0.5060    0.2780 O   0  0  0  0  0  0  0  0  0  0  0  0
   -3.1930    1.3190    0.1230 C   0  0  0  0  0  0  0  0  0  0  0  0
   -2.3770    1.1010   -0.9170 O   0  0  0  0  0  0  0  0  0  0  0  0
   -1.4010    0.1800   -0.8790 C   0  0  2  0  0  0  0  0  0  0  0  0
   -1.7370   -0.8180   -1.8080 O   0  0  0  0  0  0  0  0  0  0  0  0
    1.6830   -0.7720   -0.8850 N   0  0  0  0  0  0  0  0  0  0  0  0
    2.8990   -0.9490   -1.4900 C   0  0  0  0  0  0  0  0  0  0  0  0
    2.9710   -1.6450   -2.5340 O   0  0  0  0  0  0  0  0  0  0  0  0
    3.9850   -0.3610   -0.9330 N   0  0  0  0  0  0  0  0  0  0  0  0
  1  2  1  0
  2  3  1  0
  3  4  1  0
  3 19  2  0
  4  5  2  0
  5  6  1  0
  5 16  1  0
  7  6  1  1
  7  8  1  0
  7 14  1  0
  8  9  1  0
  9 10  1  6
  9 12  1  0
 10 11  1  0
 12 13  1  0
 13 14  1  0
 14 15  1  6
 16 17  1  0
 17 18  2  0
 17 19  1  0
M  END
