
     RDKit          3D

 27 30  0  0  0  0  0  0  0  0999 V2000
   -2.4450   -3.6820    0.4600 C   0  0  0  0  0  0  0  0  0  0  0  0
   -1.9040   -2.3840    1.0200 C   0  0  0  0  0  0  0  0  0  0  0  0
   -1.6800   -1.4300   -0.0950 C   0  0  2  0  0  0  0  0  0  0  0  0
   -2.7540   -1.0460   -0.8810 N   0  0  0  0  0  0  0  0  0  0  0  0
   -3.8460   -0.3200   -0.4150 C   0  0  0  0  0  0  0  0  0  0  0  0
   -3.4990    1.0830   -0.0760 C   0  0  0  0  0  0  0  0  0  0  0  0
   -3.6680    2.0890   -0.9050 N   0  0  0  0  0  0  0  0  0  0  0  0
   -3.2530    3.3310   -0.3360 C   0  0  0  0  0  0  0  0  0  0  0  0
   -2.7740    2.9740    1.0060 C   0  0  0  0  0  0  0  0  0  0  0  0
   -2.9390    1.6540    1.1130 C   0  0  0  0  0  0  0  0  0  0  0  0
   -2.5070    0.8250    2.5930 Cl  0  0  0  0  0  0  0  0  0  0  0  0
   -0.6740   -2.0940   -1.0150 C   0  0  0  0  0  0  0  0  0  0  0  0
   -0.9490   -3.0660   -1.9160 N   0  0  0  0  0  0  0  0  0  0  0  0
    0.1810   -3.3800   -2.5380 N   0  0  0  0  0  0  0  0  0  0  0  0
    1.1470   -2.6220   -2.0380 C   0  0  0  0  0  0  0  0  0  0  0  0
    2.5910   -2.6250   -2.4370 C   0  0  0  0  0  0  0  0  0  0  0  0
    0.6120   -1.8140   -1.0830 N   0  0  0  0  0  0  0  0  0  0  0  0
    1.3590   -0.8610   -0.3480 C   0  0  0  0  0  0  0  0  0  0  0  0
    1.8320   -1.2240    0.9030 C   0  0  0  0  0  0  0  0  0  0  0  0
    2.5770   -0.3390    1.6620 C   0  0  0  0  0  0  0  0  0  0  0  0
    2.8770    0.9340    1.2070 C   0  0  0  0  0  0  0  0  0  0  0  0
    3.5960    1.9730    1.7790 C   0  0  0  0  0  0  0  0  0  0  0  0
    3.5510    2.9900    0.8370 C   0  0  0  0  0  0  0  0  0  0  0  0
    4.1720    4.2490    1.0270 N   0  0  0  0  0  0  0  0  0  0  0  0
    2.8370    2.5650   -0.2350 N   0  0  0  0  0  0  0  0  0  0  0  0
    2.4110    1.3020   -0.0340 C   0  0  0  0  0  0  0  0  0  0  0  0
    1.6620    0.4060   -0.7920 C   0  0  0  0  0  0  0  0  0  0  0  0
  1  2  1  0
  3  2  1  1
  3  4  1  0
  3 12  1  0
  4  5  1  0
  5  6  1  0
  6  7  2  0
  6 10  1  0
  7  8  1  0
  8  9  1  0
  9 10  2  0
 10 11  1  0
 12 13  2  0
 12 17  1  0
 13 14  1  0
 14 15  2  0
 15 16  1  0
 15 17  1  0
 17 18  1  0
 18 19  2  0
 18 27  1  0
 19 20  1  0
 20 21  2  0
 21 22  1  0
 21 26  1  0
 22 23  2  0
 23 24  1  0
 23 25  1  0
 25 26  1  0
 26 27  2  0
M  CHG  1  24   1
M  END
