
     RDKit          3D

 27 30  0  0  0  0  0  0  0  0999 V2000
   -4.2770   -3.9530   -0.3700 N   0  0  0  0  0  0  0  0  0  0  0  0
   -4.1060   -2.5410   -0.7300 C   0  0  0  0  0  0  0  0  0  0  0  0
   -2.8530   -2.0580   -0.0540 C   0  0  0  0  0  0  0  0  0  0  0  0
   -2.5100   -0.6170   -0.3300 C   0  0  1  0  0  0  0  0  0  0  0  0
   -3.5870    0.2710    0.1400 C   0  0  0  0  0  0  0  0  0  0  0  0
   -3.6810    1.5530   -0.7040 C   0  0  0  0  0  0  0  0  0  0  0  0
   -2.3930    2.2990   -0.6220 C   0  0  0  0  0  0  0  0  0  0  0  0
   -2.0870    2.5950    0.8160 C   0  0  0  0  0  0  0  0  0  0  0  0
   -0.8590    1.8680    1.2190 C   0  0  0  0  0  0  0  0  0  0  0  0
   -0.9920    0.3620    1.2920 C   0  0  0  0  0  0  0  0  0  0  0  0
   -1.1800   -0.2760    0.0630 N   0  0  0  0  0  0  0  0  0  0  0  0
   -0.2090   -1.2730   -0.2560 C   0  0  0  0  0  0  0  0  0  0  0  0
    1.1380   -0.6460   -0.4940 C   0  0  0  0  0  0  0  0  0  0  0  0
    2.1420   -1.0600    0.2720 C   0  0  0  0  0  0  0  0  0  0  0  0
    1.7370   -2.3000    1.4610 Cl  0  0  0  0  0  0  0  0  0  0  0  0
    3.5440   -0.6580    0.2950 C   0  0  0  0  0  0  0  0  0  0  0  0
    4.1370    0.3230   -0.3560 C   0  0  0  0  0  0  0  0  0  0  0  0
    3.5610    1.3000   -1.2980 C   0  0  0  0  0  0  0  0  0  0  0  0
    4.4820    2.0850   -1.7080 N   0  0  0  0  0  0  0  0  0  0  0  0
    5.7320    1.7430   -1.1150 C   0  0  0  0  0  0  0  0  0  0  0  0
    6.9910    2.2240   -1.1910 N   0  0  0  0  0  0  0  0  0  0  0  0
    8.0060    1.7050   -0.5120 N   0  0  0  0  0  0  0  0  0  0  0  0
    7.8770    0.6580    0.3100 C   0  0  0  0  0  0  0  0  0  0  0  0
    6.6120    0.1090    0.4410 C   0  0  0  0  0  0  0  0  0  0  0  0
    5.5550    0.6500   -0.2670 C   0  0  0  0  0  0  0  0  0  0  0  0
    2.1840    1.3200   -1.6620 N   0  0  0  0  0  0  0  0  0  0  0  0
    1.2160    0.3320   -1.5120 N   0  0  0  0  0  0  0  0  0  0  0  0
  1  2  1  0
  2  3  1  0
  4  3  1  1
  4  5  1  0
  4 11  1  0
  5  6  1  0
  6  7  1  0
  7  8  1  0
  8  9  1  0
  9 10  1  0
 10 11  1  0
 11 12  1  0
 12 13  1  0
 13 14  2  0
 13 27  1  0
 14 15  1  0
 14 16  1  0
 16 17  2  0
 17 18  1  0
 17 25  1  0
 18 19  2  0
 18 26  1  0
 19 20  1  0
 20 21  2  0
 20 25  1  0
 21 22  1  0
 22 23  2  0
 23 24  1  0
 24 25  2  0
 26 27  1  0
M  CHG  1   1   1
M  END
