
     RDKit          3D

 21 22  0  0  0  0  0  0  0  0999 V2000
   -1.6180    2.1300   -0.1950 O   0  0  0  0  0  0  0  0  0  0  0  0
   -2.1170    0.9920    0.1120 C   0  0  0  0  0  0  0  0  0  0  0  0
   -1.1740   -0.0330    0.3500 N   0  0  0  0  0  0  0  0  0  0  0  0
    0.2220    0.2050    0.2500 N   0  0  0  0  0  0  0  0  0  0  0  0
    1.0520   -0.7400   -0.0360 C   0  0  0  0  0  0  0  0  0  0  0  0
    2.4880   -0.5190   -0.1430 C   0  0  0  0  0  0  0  0  0  0  0  0
    2.9520    0.7900    0.0800 C   0  0  0  0  0  0  0  0  0  0  0  0
    4.3000    1.0450   -0.0110 C   0  0  0  0  0  0  0  0  0  0  0  0
    4.9810    2.7900    0.2790 Br  0  0  0  0  0  0  0  0  0  0  0  0
    5.1950    0.0340   -0.3180 C   0  0  0  0  0  0  0  0  0  0  0  0
    6.5400    0.3100   -0.4040 O   0  0  0  0  0  0  0  0  0  0  0  0
    4.7350   -1.2440   -0.5350 C   0  0  0  0  0  0  0  0  0  0  0  0
    5.9020   -2.6890   -0.9610 Br  0  0  0  0  0  0  0  0  0  0  0  0
    3.3730   -1.5240   -0.4470 C   0  0  0  0  0  0  0  0  0  0  0  0
    2.9180   -2.7910   -0.6630 O   0  0  0  0  0  0  0  0  0  0  0  0
   -3.5450    0.8090    0.1990 C   0  0  0  0  0  0  0  0  0  0  0  0
   -4.0580   -0.4210    0.5300 C   0  0  0  0  0  0  0  0  0  0  0  0
   -5.4370   -0.5910    0.6120 C   0  0  0  0  0  0  0  0  0  0  0  0
   -6.2350    0.5000    0.3530 C   0  0  0  0  0  0  0  0  0  0  0  0
   -5.7250    1.7050    0.0290 N   0  0  0  0  0  0  0  0  0  0  0  0
   -4.4000    1.8920   -0.0560 C   0  0  0  0  0  0  0  0  0  0  0  0
  1  2  2  0
  2  3  1  0
  2 16  1  0
  3  4  1  0
  4  5  2  3
  5  6  1  0
  6  7  2  0
  6 14  1  0
  7  8  1  0
  8  9  1  0
  8 10  2  0
 10 11  1  0
 10 12  1  0
 12 13  1  0
 12 14  2  0
 14 15  1  0
 16 17  2  0
 16 21  1  0
 17 18  1  0
 18 19  2  0
 19 20  1  0
 20 21  2  0
M  END
