
     RDKit          3D

 26 29  0  0  0  0  0  0  0  0999 V2000
    6.9700    2.4650    0.7020 N   0  0  0  0  0  0  0  0  0  0  0  0
    6.4560    1.1440    0.5170 C   0  0  0  0  0  0  0  0  0  0  0  0
    7.3410    0.0790    0.3930 C   0  0  0  0  0  0  0  0  0  0  0  0
    6.8410   -1.1960    0.2140 C   0  0  0  0  0  0  0  0  0  0  0  0
    5.4690   -1.3940    0.1610 C   0  0  0  0  0  0  0  0  0  0  0  0
    4.9230   -2.6480   -0.0160 C   0  0  0  0  0  0  0  0  0  0  0  0
    3.5760   -2.8530   -0.0690 N   0  0  0  0  0  0  0  0  0  0  0  0
    2.7260   -1.8260    0.0510 C   0  0  0  0  0  0  0  0  0  0  0  0
    1.2920   -2.0420   -0.0060 N   0  0  0  0  0  0  0  0  0  0  0  0
    0.4230   -0.9480    0.1230 C   0  0  0  0  0  0  0  0  0  0  0  0
   -1.0230   -1.2780    0.0510 C   0  0  0  0  0  0  0  0  0  0  0  0
   -1.4680   -2.4900   -0.1180 C   0  0  0  0  0  0  0  0  0  0  0  0
   -2.9000   -2.7540   -0.1800 C   0  0  0  0  0  0  0  0  0  0  0  0
   -3.7580   -1.7710   -0.0650 C   0  0  0  0  0  0  0  0  0  0  0  0
   -5.4790   -2.1820   -0.1530 Cl  0  0  0  0  0  0  0  0  0  0  0  0
   -3.3320   -0.4310    0.1240 N   0  0  0  0  0  0  0  0  0  0  0  0
   -4.4150    0.5280    0.2420 C   0  0  2  0  0  0  0  0  0  0  0  0
   -5.2710    0.5210   -1.0080 C   0  0  0  0  0  0  0  0  0  0  0  0
   -5.4130    1.9860   -1.4060 C   0  0  0  0  0  0  0  0  0  0  0  0
   -4.1040    2.5420   -0.9130 C   0  0  0  0  0  0  0  0  0  0  0  0
   -3.9820    1.9250    0.4630 C   0  0  1  0  0  0  0  0  0  0  0  0
   -4.8580    2.6200    1.4180 N   0  0  0  0  0  0  0  0  0  0  0  0
   -1.9730   -0.1140    0.1850 C   0  0  0  0  0  0  0  0  0  0  0  0
    3.2580   -0.5680    0.2280 C   0  0  0  0  0  0  0  0  0  0  0  0
    4.6130   -0.3280    0.2860 C   0  0  0  0  0  0  0  0  0  0  0  0
    5.1450    0.8850    0.4570 N   0  0  0  0  0  0  0  0  0  0  0  0
  1  2  1  0
  2  3  2  0
  2 26  1  0
  3  4  1  0
  4  5  2  0
  5  6  1  0
  5 25  1  0
  6  7  2  0
  7  8  1  0
  8  9  1  0
  8 24  2  0
  9 10  1  0
 10 11  1  0
 11 12  2  0
 11 23  1  0
 12 13  1  0
 13 14  2  0
 14 15  1  0
 14 16  1  0
 17 16  1  6
 16 23  1  0
 17 18  1  0
 17 21  1  0
 18 19  1  0
 19 20  1  0
 20 21  1  0
 21 22  1  1
 24 25  1  0
 25 26  2  0
M  CHG  1  26   1
M  END
