
     RDKit          3D

 24 24  0  0  0  0  0  0  0  0999 V2000
    4.8670    0.3960    0.4070 C   0  0  0  0  0  0  0  0  0  0  0  0
    3.9500   -0.3270   -0.2210 C   0  0  0  0  0  0  0  0  0  0  0  0
    4.3650   -1.0160   -1.3620 O   0  0  0  0  0  0  0  0  0  0  0  0
    2.5560   -0.4390    0.2090 C   0  0  0  0  0  0  0  0  0  0  0  0
    1.7760   -1.2060   -0.5310 C   0  0  0  0  0  0  0  0  0  0  0  0
    2.2690   -1.8560   -1.6470 F   0  0  0  0  0  0  0  0  0  0  0  0
    0.3400   -1.4890   -0.2870 C   0  0  2  0  0  0  0  0  0  0  0  0
    0.3030   -2.7410    0.3420 O   0  0  0  0  0  0  0  0  0  0  0  0
   -0.3060   -1.4590   -1.5280 O   0  0  0  0  0  0  0  0  0  0  0  0
   -1.5810   -1.8070   -1.8590 C   0  0  0  0  0  0  0  0  0  0  0  0
   -2.6870   -1.2310   -1.4100 C   0  0  0  0  0  0  0  0  0  0  0  0
   -2.7910   -0.1300   -0.4920 C   0  0  0  0  0  0  0  0  0  0  0  0
   -3.5710   -0.1440    0.5730 C   0  0  0  0  0  0  0  0  0  0  0  0
   -4.4270   -1.2840    0.9520 C   0  0  2  0  0  0  0  0  0  0  0  0
   -4.0930   -2.4550    0.3270 F   0  0  0  0  0  0  0  0  0  0  0  0
   -5.7340   -0.9770    0.5920 F   0  0  0  0  0  0  0  0  0  0  0  0
   -4.4520   -1.4460    2.3410 F   0  0  0  0  0  0  0  0  0  0  0  0
   -1.9890    1.1250   -0.7260 C   0  0  0  0  0  0  0  0  0  0  0  0
   -1.6600    1.6430    0.5200 O   0  0  0  0  0  0  0  0  0  0  0  0
   -0.6400    2.5540    0.4860 C   0  0  0  0  0  0  0  0  0  0  0  0
    0.7270    1.9350    0.3650 C   0  0  1  0  0  0  0  0  0  0  0  0
    1.6270    3.0190    0.2210 O   0  0  0  0  0  0  0  0  0  0  0  0
    1.0940    1.1010    1.5640 C   0  0  0  0  0  0  0  0  0  0  0  0
    2.1430    0.2300    1.3170 O   0  0  0  0  0  0  0  0  0  0  0  0
  1  2  2  0
  2  3  1  0
  2  4  1  0
  4  5  2  0
  4 24  1  0
  5  6  1  0
  5  7  1  0
  7  8  1  6
  7  9  1  0
  9 10  1  0
 10 11  2  0
 11 12  1  0
 12 13  2  3
 12 18  1  0
 13 14  1  0
 14 15  1  6
 14 16  1  0
 14 17  1  0
 18 19  1  0
 19 20  1  0
 20 21  1  0
 21 22  1  1
 21 23  1  0
 23 24  1  0
M  END
