
     RDKit          3D

 27 30  0  0  0  0  0  0  0  0999 V2000
   -4.5730   -2.2580    0.4680 C   0  0  0  0  0  0  0  0  0  0  0  0
   -4.7420   -1.0980    1.3810 C   0  0  0  0  0  0  0  0  0  0  0  0
   -4.4430    0.2310    0.8070 C   0  0  0  0  0  0  0  0  0  0  0  0
   -5.4310    0.9890    0.4310 N   0  0  0  0  0  0  0  0  0  0  0  0
   -5.3000    2.3020   -0.1410 C   0  0  1  0  0  0  0  0  0  0  0  0
   -5.5800    3.5520    1.1240 Cl  0  0  0  0  0  0  0  0  0  0  0  0
   -3.8870    2.5080   -0.6150 C   0  0  0  0  0  0  0  0  0  0  0  0
   -2.9600    2.1520    0.5290 C   0  0  0  0  0  0  0  0  0  0  0  0
   -3.1100    0.6830    0.6770 N   0  0  0  0  0  0  0  0  0  0  0  0
   -1.9160   -0.0740    0.7310 C   0  0  0  0  0  0  0  0  0  0  0  0
   -1.0510   -0.0820   -0.4720 C   0  0  2  0  0  0  0  0  0  0  0  0
   -1.5810   -0.6130   -1.7420 C   0  0  0  0  0  0  0  0  0  0  0  0
   -1.9640   -1.9930   -1.7240 N   0  0  0  0  0  0  0  0  0  0  0  0
    0.1780   -0.8850   -0.1420 C   0  0  0  0  0  0  0  0  0  0  0  0
    1.4120   -0.2800   -0.1380 C   0  0  0  0  0  0  0  0  0  0  0  0
    2.5750   -0.9660    0.1590 C   0  0  0  0  0  0  0  0  0  0  0  0
    3.8830   -0.2830    0.1550 C   0  0  0  0  0  0  0  0  0  0  0  0
    4.1490    1.0270   -0.1180 C   0  0  0  0  0  0  0  0  0  0  0  0
    5.5060    1.2180   -0.0010 C   0  0  0  0  0  0  0  0  0  0  0  0
    6.0240   -0.0020    0.3440 C   0  0  0  0  0  0  0  0  0  0  0  0
    5.0390   -0.8860    0.4320 N   0  0  0  0  0  0  0  0  0  0  0  0
    7.5020    0.1890    0.4750 C   0  0  0  0  0  0  0  0  0  0  0  0
    7.7380    1.3150   -0.4120 N   0  0  0  0  0  0  0  0  0  0  0  0
    6.6210    2.2230   -0.1030 C   0  0  0  0  0  0  0  0  0  0  0  0
    2.4780   -2.2740    0.4510 N   0  0  0  0  0  0  0  0  0  0  0  0
    1.2610   -2.8890    0.4510 C   0  0  0  0  0  0  0  0  0  0  0  0
    0.1400   -2.1940    0.1570 N   0  0  0  0  0  0  0  0  0  0  0  0
  1  2  1  0
  2  3  1  0
  3  4  2  0
  3  9  1  0
  4  5  1  0
  5  6  1  1
  5  7  1  0
  7  8  1  0
  8  9  1  0
  9 10  1  0
 11 10  1  1
 11 12  1  0
 11 14  1  0
 12 13  1  0
 14 15  2  0
 14 27  1  0
 15 16  1  0
 16 17  1  0
 16 25  2  0
 17 18  2  0
 17 21  1  0
 18 19  1  0
 19 20  2  0
 19 24  1  0
 20 21  1  0
 20 22  1  0
 22 23  1  0
 23 24  1  0
 25 26  1  0
 26 27  2  0
M  CHG  1  13   1
M  END
