
     RDKit          3D

 27 30  0  0  0  0  0  0  0  0999 V2000
   -2.4640    2.4760    1.8000 C   0  0  0  0  0  0  0  0  0  0  0  0
   -2.6380    2.1120    0.3580 C   0  0  0  0  0  0  0  0  0  0  0  0
   -3.3500    0.8920    0.1060 C   0  0  2  0  0  0  0  0  0  0  0  0
   -2.9500   -0.4640    0.3920 C   0  0  0  0  0  0  0  0  0  0  0  0
   -1.7290   -1.1690    0.5940 C   0  0  0  0  0  0  0  0  0  0  0  0
   -0.5480   -0.3520    0.5380 C   0  0  0  0  0  0  0  0  0  0  0  0
    0.4880   -0.3660   -0.3830 N   0  0  0  0  0  0  0  0  0  0  0  0
    1.1300    0.9400   -0.1380 C   0  0  0  0  0  0  0  0  0  0  0  0
    2.5560    0.7880   -0.2900 C   0  0  0  0  0  0  0  0  0  0  0  0
    2.7550   -0.5970   -0.8930 C   0  0  1  0  0  0  0  0  0  0  0  0
    3.8940   -1.1640   -0.1620 N   0  0  0  0  0  0  0  0  0  0  0  0
    5.1810   -0.6060   -0.3210 C   0  0  0  0  0  0  0  0  0  0  0  0
    6.2730   -1.0750    0.3450 C   0  0  0  0  0  0  0  0  0  0  0  0
    7.3720   -0.2580   -0.0260 C   0  0  0  0  0  0  0  0  0  0  0  0
    8.7470   -0.3960    0.5220 C   0  0  0  0  0  0  0  0  0  0  0  0
    6.8830    0.6230   -0.8660 N   0  0  0  0  0  0  0  0  0  0  0  0
    5.5480    0.4290   -1.0630 N   0  0  0  0  0  0  0  0  0  0  0  0
    1.4730   -1.3320   -0.4980 C   0  0  0  0  0  0  0  0  0  0  0  0
   -2.0690   -2.4230    0.8930 C   0  0  0  0  0  0  0  0  0  0  0  0
   -3.4270   -2.5420    0.8830 N   0  0  0  0  0  0  0  0  0  0  0  0
   -3.9180   -1.3630    0.5710 N   0  0  0  0  0  0  0  0  0  0  0  0
   -5.2580   -1.1240    0.0230 C   0  0  0  0  0  0  0  0  0  0  0  0
   -6.3690   -2.0470    0.3450 C   0  0  0  0  0  0  0  0  0  0  0  0
   -5.4470   -0.0300   -0.6810 C   0  0  0  0  0  0  0  0  0  0  0  0
   -6.9980    0.3650   -1.3750 Cl  0  0  0  0  0  0  0  0  0  0  0  0
   -4.2640    0.8190   -1.1040 C   0  0  2  0  0  0  0  0  0  0  0  0
   -3.5920    0.0390   -2.1490 N   0  0  0  0  0  0  0  0  0  0  0  0
  1  2  1  0
  3  2  1  6
  3  4  1  0
  3 26  1  0
  4  5  2  0
  4 21  1  0
  5  6  1  0
  5 19  1  0
  6  7  1  0
  7  8  1  0
  7 18  1  0
  8  9  1  0
  9 10  1  0
 10 11  1  1
 10 18  1  0
 11 12  1  0
 12 13  2  0
 12 17  1  0
 13 14  1  0
 14 15  1  0
 14 16  2  0
 16 17  1  0
 19 20  2  0
 20 21  1  0
 21 22  1  0
 22 23  1  0
 22 24  2  0
 24 25  1  0
 24 26  1  0
 26 27  1  6
M  CHG  1  27   1
M  END
