
     RDKit          3D

 25 25  0  0  0  0  0  0  0  0999 V2000
   -1.0170   -1.9830    1.9150 O   0  0  0  0  0  0  0  0  0  0  0  0
   -0.2330   -1.6720    1.0070 C   0  0  0  0  0  0  0  0  0  0  0  0
    0.9650   -1.0930    1.3100 O   0  0  0  0  0  0  0  0  0  0  0  0
    2.2050   -1.3310    0.7030 C   0  0  2  0  0  0  0  0  0  0  0  0
    3.2070   -1.5640    1.8430 C   0  0  2  0  0  0  0  0  0  0  0  0
    3.1980   -0.4010    2.6010 F   0  0  0  0  0  0  0  0  0  0  0  0
    4.4420   -1.8880    1.3720 F   0  0  0  0  0  0  0  0  0  0  0  0
    2.6580   -2.5570    2.6350 F   0  0  0  0  0  0  0  0  0  0  0  0
    2.6740   -0.1420   -0.1310 C   0  0  0  0  0  0  0  0  0  0  0  0
    1.7070    0.8420    0.0070 O   0  0  0  0  0  0  0  0  0  0  0  0
    1.3730    1.4440   -1.1930 C   0  0  2  0  0  0  0  0  0  0  0  0
    2.0170    2.8360   -1.1470 C   0  0  0  0  0  0  0  0  0  0  0  0
    3.4000    2.7210   -1.0100 O   0  0  0  0  0  0  0  0  0  0  0  0
   -0.1410    1.6280   -1.1860 C   0  0  0  0  0  0  0  0  0  0  0  0
   -0.6600    1.5280    0.1850 C   0  0  0  0  0  0  0  0  0  0  0  0
   -1.6040    0.7690    0.6720 C   0  0  0  0  0  0  0  0  0  0  0  0
   -1.8350    0.9470    2.0450 F   0  0  0  0  0  0  0  0  0  0  0  0
   -2.4230   -0.2270    0.0040 C   0  0  0  0  0  0  0  0  0  0  0  0
   -3.7260   -0.1260    0.1060 C   0  0  0  0  0  0  0  0  0  0  0  0
   -4.4440    0.9200    0.8470 C   0  0  0  0  0  0  0  0  0  0  0  0
   -5.2300    0.3720    1.8640 F   0  0  0  0  0  0  0  0  0  0  0  0
   -1.9250   -1.3860   -0.7840 C   0  0  2  0  0  0  0  0  0  0  0  0
   -2.8680   -2.4340   -0.7740 O   0  0  0  0  0  0  0  0  0  0  0  0
   -0.6080   -1.9360   -0.3900 C   0  0  1  0  0  0  0  0  0  0  0  0
    0.4170   -1.6550   -1.2900 O   0  0  0  0  0  0  0  0  0  0  0  0
  1  2  2  0
  2  3  1  0
  2 24  1  0
  3  4  1  0
  4  5  1  0
  4  9  1  1
  5  6  1  1
  5  7  1  0
  5  8  1  0
  9 10  1  0
 10 11  1  0
 11 12  1  1
 11 14  1  0
 12 13  1  0
 14 15  1  0
 15 16  2  0
 16 17  1  0
 16 18  1  0
 18 19  2  3
 18 22  1  0
 19 20  1  0
 20 21  1  0
 22 23  1  1
 22 24  1  0
 24 25  1  6
M  END
