
     RDKit          3D

 25 26  0  0  0  0  0  0  0  0999 V2000
    5.3910    1.5350   -1.0890 C   0  0  0  0  0  0  0  0  0  0  0  0
    4.4690    0.6350   -0.3460 C   0  0  0  0  0  0  0  0  0  0  0  0
    4.0260    1.0200    0.7500 O   0  0  0  0  0  0  0  0  0  0  0  0
    4.0820   -0.5990   -0.8080 O   0  0  0  0  0  0  0  0  0  0  0  0
    3.2270   -1.5050   -0.1860 C   0  0  0  0  0  0  0  0  0  0  0  0
    1.8330   -0.9700    0.0460 C   0  0  0  0  0  0  0  0  0  0  0  0
    0.7090   -1.4750   -0.4350 C   0  0  0  0  0  0  0  0  0  0  0  0
   -0.4090   -0.5900    0.0840 C   0  0  1  0  0  0  0  0  0  0  0  0
   -1.5790   -0.6090   -0.8080 C   0  0  1  0  0  0  0  0  0  0  0  0
   -2.0590   -1.9260   -0.9490 O   0  0  0  0  0  0  0  0  0  0  0  0
   -2.6950    0.2300   -0.2970 C   0  0  0  0  0  0  0  0  0  0  0  0
   -3.7130   -0.3880    0.2880 C   0  0  0  0  0  0  0  0  0  0  0  0
   -3.6750   -1.7820    0.3860 F   0  0  0  0  0  0  0  0  0  0  0  0
   -4.8660    0.3440    0.8150 C   0  0  0  0  0  0  0  0  0  0  0  0
   -4.7200    1.7100    0.7450 O   0  0  0  0  0  0  0  0  0  0  0  0
   -3.6670    2.3380    0.1340 C   0  0  0  0  0  0  0  0  0  0  0  0
   -2.6440    1.6650   -0.3960 C   0  0  0  0  0  0  0  0  0  0  0  0
   -1.7030    2.4060   -1.0010 F   0  0  0  0  0  0  0  0  0  0  0  0
   -0.6810   -1.1490    1.4680 C   0  0  2  0  0  0  0  0  0  0  0  0
    0.4960   -1.0420    2.2170 F   0  0  0  0  0  0  0  0  0  0  0  0
   -0.9760   -2.4950    1.4440 F   0  0  0  0  0  0  0  0  0  0  0  0
   -1.6480   -0.5060    2.1640 F   0  0  0  0  0  0  0  0  0  0  0  0
    0.3710    0.6870    0.1430 C   0  0  2  0  0  0  0  0  0  0  0  0
    0.8620    1.0320   -1.0930 O   0  0  0  0  0  0  0  0  0  0  0  0
    1.5600    0.1540    0.8150 O   0  0  0  0  0  0  0  0  0  0  0  0
  1  2  1  0
  2  3  2  0
  2  4  1  0
  4  5  1  0
  5  6  1  0
  6  7  2  0
  6 25  1  0
  8  7  1  6
  8  9  1  0
  8 19  1  0
  8 23  1  0
  9 10  1  1
  9 11  1  0
 11 12  2  0
 11 17  1  0
 12 13  1  0
 12 14  1  0
 14 15  1  0
 15 16  1  0
 16 17  2  0
 17 18  1  0
 19 20  1  1
 19 21  1  0
 19 22  1  0
 23 24  1  6
 23 25  1  0
M  END
