
     RDKit          3D

 23 25  0  0  0  0  0  0  0  0999 V2000
   -2.1720    4.1070   -1.4980 C   0  0  0  0  0  0  0  0  0  0  0  0
   -2.0650    2.7280   -1.1770 O   0  0  0  0  0  0  0  0  0  0  0  0
   -0.9270    2.1590   -0.6340 C   0  0  0  0  0  0  0  0  0  0  0  0
    0.0480    2.8930   -0.4170 O   0  0  0  0  0  0  0  0  0  0  0  0
   -0.8450    0.7710   -0.3210 N   0  0  0  0  0  0  0  0  0  0  0  0
    0.1760    0.0740    0.2030 C   0  0  0  0  0  0  0  0  0  0  0  0
    1.3750    0.5520    0.5460 C   0  0  0  0  0  0  0  0  0  0  0  0
    2.4230   -0.3490    1.1220 C   0  0  2  0  0  0  0  0  0  0  0  0
    2.3010   -0.4130    2.5260 O   0  0  0  0  0  0  0  0  0  0  0  0
    4.1200    0.3640    0.7580 P   0  0  0  0  0  0  0  0  0  0  0  0
    5.0700   -0.7910   -0.0960 O   0  0  0  0  0  0  0  0  0  0  0  0
    3.9610    1.8370   -0.1190 O   0  0  0  0  0  0  0  0  0  0  0  0
   -0.1690   -1.2580    0.3540 C   0  0  0  0  0  0  0  0  0  0  0  0
   -1.4470   -1.2890   -0.1270 N   0  0  0  0  0  0  0  0  0  0  0  0
   -1.8670   -0.0800   -0.5270 C   0  0  0  0  0  0  0  0  0  0  0  0
   -2.9800    0.2430   -1.0040 O   0  0  0  0  0  0  0  0  0  0  0  0
   -1.8260   -2.6310   -0.2660 C   0  0  2  0  0  0  0  0  0  0  0  0
   -3.0860   -3.2320   -0.1210 C   0  0  0  0  0  0  0  0  0  0  0  0
   -4.2520   -2.9520   -0.5560 O   0  0  0  0  0  0  0  0  0  0  0  0
   -2.8580   -4.3700    0.7030 O   0  0  0  0  0  0  0  0  0  0  0  0
   -1.5210   -4.3420    1.1130 N   0  0  0  0  0  0  0  0  0  0  0  0
   -0.9000   -3.3440    0.6120 C   0  0  0  0  0  0  0  0  0  0  0  0
    0.2630   -2.4650    0.6140 N   0  0  0  0  0  0  0  0  0  0  0  0
  1  2  1  0
  2  3  1  0
  3  4  2  0
  3  5  1  0
  5  6  1  0
  5 15  1  0
  6  7  2  3
  6 13  1  0
  7  8  1  0
  8  9  1  1
  8 10  1  0
 10 11  1  0
 10 12  1  0
 13 14  1  0
 13 23  2  0
 14 15  1  0
 17 14  1  1
 15 16  2  0
 17 18  1  0
 17 22  1  0
 18 19  2  0
 18 20  1  0
 20 21  1  0
 21 22  2  0
 22 23  1  0
M  END
