
     RDKit          3D

 22 23  0  0  0  0  0  0  0  0999 V2000
   -2.1220    1.0490    0.0070 O   0  0  0  0  0  0  0  0  0  0  0  0
   -2.3670    0.0760   -0.7450 C   0  0  0  0  0  0  0  0  0  0  0  0
   -3.7280   -0.4300   -0.7890 C   0  0  0  0  0  0  0  0  0  0  0  0
   -4.6680    0.1430   -0.0420 C   0  0  0  0  0  0  0  0  0  0  0  0
   -4.4960    1.2160    0.8150 O   0  0  0  0  0  0  0  0  0  0  0  0
   -5.7340    1.7500    1.2460 C   0  0  0  0  0  0  0  0  0  0  0  0
   -6.6620    0.6880    0.9790 N   0  0  0  0  0  0  0  0  0  0  0  0
   -6.0820   -0.2200    0.0500 C   0  0  0  0  0  0  0  0  0  0  0  0
   -6.6530   -1.1560   -0.5790 O   0  0  0  0  0  0  0  0  0  0  0  0
   -1.3310   -0.5060   -1.5270 N   0  0  0  0  0  0  0  0  0  0  0  0
    0.0270   -0.0250   -1.5030 C   0  0  0  0  0  0  0  0  0  0  0  0
    0.6400   -0.1080   -0.1240 C   0  0  2  0  0  0  0  0  0  0  0  0
    1.9950    0.3960   -0.2070 N   0  0  0  0  0  0  0  0  0  0  0  0
    2.7410   -0.7870   -0.5710 C   0  0  1  0  0  0  0  0  0  0  0  0
    4.1640   -0.6170   -0.4120 N   0  0  0  0  0  0  0  0  0  0  0  0
    4.5510   -0.3090    0.9480 C   0  0  0  0  0  0  0  0  0  0  0  0
    6.4130   -0.1270    0.9570 P   0  0  0  0  0  0  0  0  0  0  0  0
    7.1390   -1.0680   -0.3030 O   0  0  0  0  0  0  0  0  0  0  0  0
    6.8720    1.5270    0.7140 O   0  0  0  0  0  0  0  0  0  0  0  0
    2.2080   -1.7670    0.2820 O   0  0  0  0  0  0  0  0  0  0  0  0
    0.8380   -1.5100    0.3090 C   0  0  0  0  0  0  0  0  0  0  0  0
   -0.0550   -2.3430    0.6470 O   0  0  0  0  0  0  0  0  0  0  0  0
  1  2  2  0
  2  3  1  0
  2 10  1  0
  3  4  2  3
  4  5  1  0
  4  8  1  0
  5  6  1  0
  6  7  1  0
  7  8  1  0
  8  9  2  0
 10 11  1  0
 12 11  1  6
 12 13  1  0
 12 21  1  0
 13 14  1  0
 14 15  1  1
 14 20  1  0
 15 16  1  0
 16 17  1  0
 17 18  1  0
 17 19  1  0
 20 21  1  0
 21 22  2  0
M  END
