
     RDKit          3D

 23 25  0  0  0  0  0  0  0  0999 V2000
   -3.6390   -0.4330    2.5750 O   0  0  0  0  0  0  0  0  0  0  0  0
   -2.8710   -0.1810    1.6350 C   0  0  0  0  0  0  0  0  0  0  0  0
   -1.4510   -0.3340    1.7570 N   0  0  0  0  0  0  0  0  0  0  0  0
   -0.6400   -0.5630    0.6110 C   0  0  0  0  0  0  0  0  0  0  0  0
    0.8500   -0.7240    0.7260 C   0  0  2  0  0  0  0  0  0  0  0  0
    1.3900    0.4910    1.3050 N   0  0  0  0  0  0  0  0  0  0  0  0
    2.5500    1.0570    0.7340 C   0  0  0  0  0  0  0  0  0  0  0  0
    2.7840    2.2690    0.9150 O   0  0  0  0  0  0  0  0  0  0  0  0
    3.4440    0.2230   -0.0500 C   0  0  2  0  0  0  0  0  0  0  0  0
    4.1570    0.8970   -1.0250 O   0  0  0  0  0  0  0  0  0  0  0  0
    5.8490    0.8640   -0.8140 P   0  0  0  0  0  0  0  0  0  0  0  0
    6.3510    0.4840    0.7830 O   0  0  0  0  0  0  0  0  0  0  0  0
    6.6710    2.2000   -1.4930 O   0  0  0  0  0  0  0  0  0  0  0  0
    2.7160   -0.9530   -0.6210 C   0  0  0  0  0  0  0  0  0  0  0  0
    1.3440   -0.8490   -0.5480 O   0  0  0  0  0  0  0  0  0  0  0  0
   -1.2480   -0.6230   -0.5250 N   0  0  0  0  0  0  0  0  0  0  0  0
   -2.6310   -0.4790   -0.6820 N   0  0  0  0  0  0  0  0  0  0  0  0
   -3.2800   -1.1060   -1.7850 C   0  0  0  0  0  0  0  0  0  0  0  0
   -2.5860   -1.5720   -2.7220 O   0  0  0  0  0  0  0  0  0  0  0  0
   -4.6530   -1.1640   -1.7590 O   0  0  0  0  0  0  0  0  0  0  0  0
   -5.4060   -0.7980   -0.6210 C   0  0  0  0  0  0  0  0  0  0  0  0
   -4.8070    0.3140    0.1590 C   0  0  0  0  0  0  0  0  0  0  0  0
   -3.3370    0.3030    0.2890 C   0  0  1  0  0  0  0  0  0  0  0  0
  1  2  2  0
  2  3  1  0
  2 23  1  0
  3  4  1  0
  5  4  1  6
  4 16  2  0
  5  6  1  0
  5 15  1  0
  6  7  1  0
  7  8  2  0
  7  9  1  0
  9 10  1  6
  9 14  1  0
 10 11  1  0
 11 12  1  0
 11 13  1  0
 14 15  1  0
 16 17  1  0
 17 18  1  0
 17 23  1  0
 18 19  2  0
 18 20  1  0
 20 21  1  0
 21 22  1  0
 23 22  1  1
M  END
