
     RDKit          3D

 22 24  0  0  0  0  0  0  0  0999 V2000
   -3.1470   -2.8410    0.2370 N   0  0  0  0  0  0  0  0  0  0  0  0
   -2.4480   -1.7300    0.7680 C   0  0  0  0  0  0  0  0  0  0  0  0
   -1.9470   -1.7440    1.9340 O   0  0  0  0  0  0  0  0  0  0  0  0
   -2.2740   -0.4990   -0.0290 C   0  0  1  0  0  0  0  0  0  0  0  0
   -3.6580   -0.0070   -0.4080 C   0  0  0  0  0  0  0  0  0  0  0  0
   -3.7080    1.3400   -0.6470 O   0  0  0  0  0  0  0  0  0  0  0  0
   -3.3280    2.1470    0.3810 C   0  0  0  0  0  0  0  0  0  0  0  0
   -2.3190    1.5670    1.3170 C   0  0  0  0  0  0  0  0  0  0  0  0
   -1.5400    0.4990    0.6950 N   0  0  0  0  0  0  0  0  0  0  0  0
   -0.1430    0.4390    0.7920 N   0  0  0  0  0  0  0  0  0  0  0  0
    0.5880   -0.2130   -0.0350 C   0  0  0  0  0  0  0  0  0  0  0  0
    2.0670   -0.2930    0.0450 C   0  0  1  0  0  0  0  0  0  0  0  0
    2.6220    0.2940   -1.2610 C   0  0  0  0  0  0  0  0  0  0  0  0
    2.9980    1.5670   -0.8200 O   0  0  0  0  0  0  0  0  0  0  0  0
    3.6040    1.2350    0.4130 C   0  0  2  0  0  0  0  0  0  0  0  0
    4.9630    0.0480    0.0410 P   0  0  0  0  0  0  0  0  0  0  0  0
    6.3490    0.8020   -0.6320 O   0  0  0  0  0  0  0  0  0  0  0  0
    5.3100   -1.0170    1.3330 O   0  0  0  0  0  0  0  0  0  0  0  0
    2.5730    0.5400    1.0390 O   0  0  0  0  0  0  0  0  0  0  0  0
   -0.0630   -0.9000   -1.0920 N   0  0  0  0  0  0  0  0  0  0  0  0
   -1.4860   -0.8750   -1.2420 C   0  0  0  0  0  0  0  0  0  0  0  0
   -2.0510   -1.1530   -2.3340 O   0  0  0  0  0  0  0  0  0  0  0  0
  1  2  1  0
  2  3  2  0
  4  2  1  1
  4  5  1  0
  4  9  1  0
  4 21  1  0
  5  6  1  0
  6  7  1  0
  7  8  1  0
  8  9  1  0
  9 10  1  0
 10 11  2  0
 12 11  1  6
 11 20  1  0
 12 13  1  0
 12 19  1  0
 13 14  1  0
 14 15  1  0
 15 16  1  6
 15 19  1  0
 16 17  1  0
 16 18  1  0
 20 21  1  0
 21 22  2  0
M  END
