
     RDKit          3D

 22 23  0  0  0  0  0  0  0  0999 V2000
    2.3110   -1.1770    2.4550 N   0  0  0  0  0  0  0  0  0  0  0  0
    2.8660   -1.3750    1.3320 C   0  0  0  0  0  0  0  0  0  0  0  0
    4.2450   -1.1470    1.1640 N   0  0  0  0  0  0  0  0  0  0  0  0
    5.1480   -0.4410    2.5640 P   0  0  0  0  0  0  0  0  0  0  0  0
    6.3670    0.4980    2.2890 O   0  0  0  0  0  0  0  0  0  0  0  0
    2.0930   -1.8140    0.2930 O   0  0  0  0  0  0  0  0  0  0  0  0
    0.8050   -1.3740   -0.0060 C   0  0  0  0  0  0  0  0  0  0  0  0
    0.6550    0.0690   -0.3200 C   0  0  2  0  0  0  0  0  0  0  0  0
    0.8110    1.0130    0.8420 C   0  0  0  0  0  0  0  0  0  0  0  0
    0.0310    2.2220    0.3050 C   0  0  0  0  0  0  0  0  0  0  0  0
   -0.7730    1.7690   -0.7030 O   0  0  0  0  0  0  0  0  0  0  0  0
   -0.7940    0.3840   -0.7020 C   0  0  2  0  0  0  0  0  0  0  0  0
   -1.7870   -0.0710    0.3140 C   0  0  0  0  0  0  0  0  0  0  0  0
   -3.0490    0.4780   -0.1060 O   0  0  0  0  0  0  0  0  0  0  0  0
   -4.1810    0.2300    0.6420 C   0  0  0  0  0  0  0  0  0  0  0  0
   -5.4580    0.7510    0.2700 N   0  0  0  0  0  0  0  0  0  0  0  0
   -4.0400   -0.4860    1.6820 O   0  0  0  0  0  0  0  0  0  0  0  0
   -1.1730   -0.1510   -2.0530 C   0  0  0  0  0  0  0  0  0  0  0  0
   -0.0970   -0.6420   -2.8450 N   0  0  0  0  0  0  0  0  0  0  0  0
    1.2200   -0.1350   -2.6670 C   0  0  0  0  0  0  0  0  0  0  0  0
    2.0500   -0.2450   -3.5770 O   0  0  0  0  0  0  0  0  0  0  0  0
    1.4550    0.4650   -1.4260 O   0  0  0  0  0  0  0  0  0  0  0  0
  1  2  2  0
  2  3  1  0
  2  6  1  0
  3  4  1  0
  4  5  2  0
  6  7  1  0
  8  7  1  1
  8  9  1  0
  8 12  1  0
  8 22  1  0
  9 10  1  0
 10 11  1  0
 11 12  1  0
 12 13  1  1
 12 18  1  0
 13 14  1  0
 14 15  1  0
 15 16  1  0
 15 17  2  0
 18 19  1  0
 19 20  1  0
 20 21  2  0
 20 22  1  0
M  END
