
     RDKit          3D

 22 23  0  0  0  0  0  0  0  0999 V2000
    2.1180    2.7620    1.6230 C   0  0  0  0  0  0  0  0  0  0  0  0
    1.7370    1.6810    0.7990 O   0  0  0  0  0  0  0  0  0  0  0  0
    2.3840    0.4650    0.7700 C   0  0  0  0  0  0  0  0  0  0  0  0
    3.3710    0.2740    1.5060 O   0  0  0  0  0  0  0  0  0  0  0  0
    1.9050   -0.5760   -0.1180 C   0  0  1  0  0  0  0  0  0  0  0  0
    2.7090   -1.7330    0.0130 O   0  0  0  0  0  0  0  0  0  0  0  0
    2.4180   -2.6230   -0.9880 C   0  0  2  0  0  0  0  0  0  0  0  0
    2.9000   -2.0380   -2.2950 C   0  0  0  0  0  0  0  0  0  0  0  0
    1.0970   -3.0240   -1.0240 O   0  0  0  0  0  0  0  0  0  0  0  0
    0.1860   -2.0060   -0.9940 C   0  0  0  0  0  0  0  0  0  0  0  0
    0.4950   -1.0420    0.1630 C   0  0  2  0  0  0  0  0  0  0  0  0
   -0.4760    0.0030    0.1120 N   0  0  0  0  0  0  0  0  0  0  0  0
   -0.4670    1.0960   -0.6020 N   0  0  0  0  0  0  0  0  0  0  0  0
   -1.5770    1.8170   -0.3530 C   0  0  0  0  0  0  0  0  0  0  0  0
   -1.9790    3.1190   -0.9370 C   0  0  0  0  0  0  0  0  0  0  0  0
   -2.7270    2.9030   -2.0830 O   0  0  0  0  0  0  0  0  0  0  0  0
   -2.2870    1.1210    0.5550 N   0  0  0  0  0  0  0  0  0  0  0  0
   -1.6070    0.0130    0.8350 C   0  0  0  0  0  0  0  0  0  0  0  0
   -2.0140   -1.0080    1.7580 N   0  0  0  0  0  0  0  0  0  0  0  0
   -3.5440   -0.8980    2.6740 P   0  0  0  0  0  0  0  0  0  0  0  0
   -4.6590   -2.1460    2.1910 O   0  0  0  0  0  0  0  0  0  0  0  0
   -4.2770    0.6530    2.3580 O   0  0  0  0  0  0  0  0  0  0  0  0
  1  2  1  0
  2  3  1  0
  3  4  2  0
  5  3  1  1
  5  6  1  0
  5 11  1  0
  6  7  1  0
  7  8  1  6
  7  9  1  0
  9 10  1  0
 10 11  1  0
 11 12  1  6
 12 13  1  0
 12 18  1  0
 13 14  2  0
 14 15  1  0
 14 17  1  0
 15 16  1  0
 17 18  2  0
 18 19  1  0
 19 20  1  0
 20 21  1  0
 20 22  1  0
M  END
