
     RDKit          3D

 22 23  0  0  0  0  0  0  0  0999 V2000
    6.7970   -2.1150    0.1510 O   0  0  0  0  0  0  0  0  0  0  0  0
    6.8030   -0.6730    0.6990 P   0  0  0  0  0  0  0  0  0  0  0  0
    5.6130    0.5050    0.0290 N   0  0  0  0  0  0  0  0  0  0  0  0
    4.2170    0.2520    0.0730 C   0  0  0  0  0  0  0  0  0  0  0  0
    3.8350   -0.8240    0.5960 O   0  0  0  0  0  0  0  0  0  0  0  0
    3.2520    1.2230   -0.4790 C   0  0  0  0  0  0  0  0  0  0  0  0
    1.9210    0.8070   -0.3480 O   0  0  0  0  0  0  0  0  0  0  0  0
    1.3960   -0.3350   -0.8880 C   0  0  0  0  0  0  0  0  0  0  0  0
    2.1980   -1.0590   -1.5560 O   0  0  0  0  0  0  0  0  0  0  0  0
    0.0120   -0.7050   -0.7140 C   0  0  0  0  0  0  0  0  0  0  0  0
   -0.9140   -0.0550   -0.0510 C   0  0  0  0  0  0  0  0  0  0  0  0
   -0.6530    1.1600    0.6200 N   0  0  0  0  0  0  0  0  0  0  0  0
   -1.7800    2.0640    0.7310 C   0  0  0  0  0  0  0  0  0  0  0  0
   -1.6100    3.1630    1.3170 O   0  0  0  0  0  0  0  0  0  0  0  0
   -3.0570    1.7380    0.1980 N   0  0  0  0  0  0  0  0  0  0  0  0
   -3.1790    0.5500   -0.6060 C   0  0  0  0  0  0  0  0  0  0  0  0
   -2.3140   -0.5280    0.0480 C   0  0  2  0  0  0  0  0  0  0  0  0
   -2.7410   -0.7380    1.4850 C   0  0  0  0  0  0  0  0  0  0  0  0
   -3.9290   -1.5130    1.2990 O   0  0  0  0  0  0  0  0  0  0  0  0
   -3.7370   -2.3010    0.1700 C   0  0  0  0  0  0  0  0  0  0  0  0
   -4.4550   -3.2890   -0.1460 O   0  0  0  0  0  0  0  0  0  0  0  0
   -2.5930   -1.7840   -0.5490 N   0  0  0  0  0  0  0  0  0  0  0  0
  1  2  2  0
  2  3  1  0
  3  4  1  0
  4  5  2  0
  4  6  1  0
  6  7  1  0
  7  8  1  0
  8  9  2  0
  8 10  1  0
 10 11  2  3
 11 12  1  0
 11 17  1  0
 12 13  1  0
 13 14  2  0
 13 15  1  0
 15 16  1  0
 17 16  1  6
 17 18  1  0
 17 22  1  0
 18 19  1  0
 19 20  1  0
 20 21  2  0
 20 22  1  0
M  END
