
     RDKit          3D

 23 22  0  0  0  0  0  0  0  0999 V2000
    2.9620    2.2620   -0.9170 N   0  0  0  0  0  0  0  0  0  0  0  0
    3.9850    1.3340   -1.1740 C   0  0  0  0  0  0  0  0  0  0  0  0
    4.7930    1.3770   -2.5870 S   0  0  0  0  0  0  0  0  0  0  0  0
    4.3430    0.3150   -0.1850 C   0  0  0  0  0  0  0  0  0  0  0  0
    3.2380   -0.5390    0.1220 O   0  0  0  0  0  0  0  0  0  0  0  0
    3.3900   -1.5670    1.0420 C   0  0  0  0  0  0  0  0  0  0  0  0
    4.5260   -1.6900    1.5670 O   0  0  0  0  0  0  0  0  0  0  0  0
    2.3280   -2.5050    1.4350 C   0  0  0  0  0  0  0  0  0  0  0  0
    1.1090   -2.2820    0.7950 O   0  0  0  0  0  0  0  0  0  0  0  0
    0.3830   -1.1030    0.8810 C   0  0  0  0  0  0  0  0  0  0  0  0
    0.9210   -0.2010    1.6100 O   0  0  0  0  0  0  0  0  0  0  0  0
   -0.8830   -0.8870    0.2080 C   0  0  0  0  0  0  0  0  0  0  0  0
   -1.6130    0.3590    0.3220 C   0  0  0  0  0  0  0  0  0  0  0  0
   -1.1280    1.2770    1.0270 O   0  0  0  0  0  0  0  0  0  0  0  0
   -2.8070    0.5830   -0.3030 O   0  0  0  0  0  0  0  0  0  0  0  0
   -3.5630    1.7500   -0.2410 C   0  0  0  0  0  0  0  0  0  0  0  0
   -3.9870    2.1020    1.1310 C   0  0  0  0  0  0  0  0  0  0  0  0
   -3.6560    1.3680    2.0910 O   0  0  0  0  0  0  0  0  0  0  0  0
   -4.7480    3.2420    1.3390 O   0  0  0  0  0  0  0  0  0  0  0  0
   -5.1400    3.5770    2.5640 O   0  0  0  0  0  0  0  0  0  0  0  0
   -1.3860   -1.8540   -0.5300 C   0  0  0  0  0  0  0  0  0  0  0  0
   -2.6210   -1.7280   -1.2230 N   0  0  0  0  0  0  0  0  0  0  0  0
   -0.7020   -3.0920   -0.6670 N   0  0  0  0  0  0  0  0  0  0  0  0
  1  2  1  0
  2  3  2  0
  2  4  1  0
  4  5  1  0
  5  6  1  0
  6  7  2  0
  6  8  1  0
  8  9  1  0
  9 10  1  0
 10 11  2  0
 10 12  1  0
 12 13  1  0
 12 21  2  3
 13 14  2  0
 13 15  1  0
 15 16  1  0
 16 17  1  0
 17 18  2  0
 17 19  1  0
 19 20  1  0
 21 22  1  0
 21 23  1  0
M  END
