
     RDKit          3D

 23 22  0  0  0  0  0  0  0  0999 V2000
   -2.6170    0.9660   -1.6520 C   0  0  0  0  0  0  0  0  0  0  0  0
   -3.4120    0.6580   -0.3720 C   0  0  1  0  0  0  0  0  0  0  0  0
   -3.9100    1.9280    0.2320 C   0  0  0  0  0  0  0  0  0  0  0  0
   -2.9200    2.8230    0.5860 O   0  0  0  0  0  0  0  0  0  0  0  0
   -4.6520   -0.0240   -0.9000 C   0  0  0  0  0  0  0  0  0  0  0  0
   -5.5860    0.6680   -1.7000 N   0  0  0  0  0  0  0  0  0  0  0  0
   -4.8040   -1.2300   -0.5930 O   0  0  0  0  0  0  0  0  0  0  0  0
   -2.6240   -0.2160    0.5490 C   0  0  2  0  0  0  0  0  0  0  0  0
   -3.3170   -0.5500    1.8360 C   0  0  0  0  0  0  0  0  0  0  0  0
   -3.3400    0.4960    2.7460 O   0  0  0  0  0  0  0  0  0  0  0  0
   -1.2560    0.1630    0.6960 N   0  0  0  0  0  0  0  0  0  0  0  0
   -0.1930   -0.6510    0.2250 C   0  0  0  0  0  0  0  0  0  0  0  0
   -0.4730   -1.7220   -0.3290 O   0  0  0  0  0  0  0  0  0  0  0  0
    1.1460   -0.3080    0.3530 O   0  0  0  0  0  0  0  0  0  0  0  0
    2.1950   -1.1390   -0.1270 C   0  0  0  0  0  0  0  0  0  0  0  0
    3.4850   -0.4500    0.1860 C   0  0  0  0  0  0  0  0  0  0  0  0
    4.6130   -1.2130   -0.2610 O   0  0  0  0  0  0  0  0  0  0  0  0
    5.8930   -0.7380   -0.0620 C   0  0  0  0  0  0  0  0  0  0  0  0
    6.0330    0.3590    0.5100 O   0  0  0  0  0  0  0  0  0  0  0  0
    7.0580   -1.4340   -0.4750 N   0  0  0  0  0  0  0  0  0  0  0  0
    8.6510   -0.8160   -0.2130 S   0  0  2  0  0  0  0  0  0  0  0  0
    8.6760    0.6780   -0.1460 O   0  0  0  0  0  0  0  0  0  0  0  0
    9.5450   -1.3430   -1.2980 O   0  0  0  0  0  0  0  0  0  0  0  0
  2  1  1  6
  2  3  1  0
  2  5  1  0
  2  8  1  0
  3  4  1  0
  5  6  1  0
  5  7  2  0
  8  9  1  1
  8 11  1  0
  9 10  1  0
 11 12  1  0
 12 13  2  0
 12 14  1  0
 14 15  1  0
 15 16  1  0
 16 17  1  0
 17 18  1  0
 18 19  2  0
 18 20  1  0
 21 20  1  6
 21 22  2  0
 21 23  2  0
M  END
