
     RDKit          3D

 23 22  0  0  0  0  0  0  0  0999 V2000
   -2.8230    1.8190   -0.3350 C   0  0  0  0  0  0  0  0  0  0  0  0
   -3.4150    0.7960    0.6030 C   0  0  2  0  0  0  0  0  0  0  0  0
   -3.1710    1.1380    2.0530 C   0  0  0  0  0  0  0  0  0  0  0  0
   -3.7500    2.3790    2.3650 O   0  0  0  0  0  0  0  0  0  0  0  0
   -3.0170   -0.6270    0.2590 C   0  0  1  0  0  0  0  0  0  0  0  0
   -3.4650   -0.9650   -1.0770 N   0  0  0  0  0  0  0  0  0  0  0  0
   -4.6340   -2.2300   -1.0020 S   0  0  2  0  0  0  0  0  0  0  0  0
   -4.4210   -3.1220    0.1910 O   0  0  0  0  0  0  0  0  0  0  0  0
   -4.5350   -3.0210   -2.2610 O   0  0  0  0  0  0  0  0  0  0  0  0
   -6.1920   -1.6010   -0.8600 O   0  0  0  0  0  0  0  0  0  0  0  0
   -1.5750   -0.8770    0.4310 C   0  0  0  0  0  0  0  0  0  0  0  0
   -0.9400   -1.3230   -0.5670 O   0  0  0  0  0  0  0  0  0  0  0  0
   -0.8420   -0.6780    1.5660 O   0  0  0  0  0  0  0  0  0  0  0  0
    0.5220   -0.9140    1.7320 C   0  0  0  0  0  0  0  0  0  0  0  0
    1.4130   -0.1380    0.8290 C   0  0  0  0  0  0  0  0  0  0  0  0
    2.7850   -0.4900    1.1210 N   0  0  0  0  0  0  0  0  0  0  0  0
    3.8820    0.0900    0.4180 C   0  0  0  0  0  0  0  0  0  0  0  0
    3.6140    0.9240   -0.4710 O   0  0  0  0  0  0  0  0  0  0  0  0
    5.1770   -0.2840    0.7380 O   0  0  0  0  0  0  0  0  0  0  0  0
    6.2370    0.3030    0.0290 C   0  0  0  0  0  0  0  0  0  0  0  0
    6.1700    0.0400   -1.4150 C   0  0  0  0  0  0  0  0  0  0  0  0
    7.1460    0.5450   -2.3060 N   0  0  0  0  0  0  0  0  0  0  0  0
    5.2310   -0.6460   -1.8730 O   0  0  0  0  0  0  0  0  0  0  0  0
  2  1  1  6
  2  3  1  0
  2  5  1  0
  3  4  1  0
  5  6  1  6
  5 11  1  0
  6  7  1  0
  7  8  2  0
  7  9  2  0
  7 10  1  1
 11 12  2  0
 11 13  1  0
 13 14  1  0
 14 15  1  0
 15 16  1  0
 16 17  1  0
 17 18  2  0
 17 19  1  0
 19 20  1  0
 20 21  1  0
 21 22  1  0
 21 23  2  0
M  END
