
     RDKit          3D

 22 21  0  0  0  0  0  0  0  0999 V2000
   -4.1290   -1.4280   -2.2980 N   0  0  0  0  0  0  0  0  0  0  0  0
   -3.6700   -1.1570   -0.9780 C   0  0  0  0  0  0  0  0  0  0  0  0
   -4.4220   -0.7420   -0.0740 O   0  0  0  0  0  0  0  0  0  0  0  0
   -2.3500   -1.3620   -0.6980 O   0  0  0  0  0  0  0  0  0  0  0  0
   -1.7130   -1.1480    0.5460 C   0  0  1  0  0  0  0  0  0  0  0  0
   -1.0810   -2.3990    1.0530 C   0  0  0  0  0  0  0  0  0  0  0  0
   -0.3990   -2.3530    2.2940 N   0  0  0  0  0  0  0  0  0  0  0  0
   -1.1410   -3.4600    0.4210 O   0  0  0  0  0  0  0  0  0  0  0  0
   -0.6580   -0.0710    0.3060 C   0  0  2  0  0  0  0  0  0  0  0  0
   -1.4190    1.1710   -0.1030 C   0  0  0  0  0  0  0  0  0  0  0  0
   -2.5540    1.7060    1.1760 S   0  0  0  0  0  0  0  0  0  0  0  0
   -3.4210    3.1610    0.6540 C   0  0  0  0  0  0  0  0  0  0  0  0
   -3.1650    3.7210   -0.6110 N   0  0  0  0  0  0  0  0  0  0  0  0
   -4.2620    3.6920    1.4090 O   0  0  0  0  0  0  0  0  0  0  0  0
    0.2320   -0.4910   -0.6440 O   0  0  0  0  0  0  0  0  0  0  0  0
    1.5400   -0.6010   -0.2670 C   0  0  0  0  0  0  0  0  0  0  0  0
    2.1890    0.6720    0.1950 C   0  0  0  0  0  0  0  0  0  0  0  0
    3.5260    0.4820    0.5650 O   0  0  0  0  0  0  0  0  0  0  0  0
    4.5160    0.0380   -0.2570 C   0  0  0  0  0  0  0  0  0  0  0  0
    4.2570   -0.2320   -1.4460 O   0  0  0  0  0  0  0  0  0  0  0  0
    5.8860   -0.1080    0.3070 C   0  0  0  0  0  0  0  0  0  0  0  0
    6.7270   -0.5670   -0.6880 O   0  0  0  0  0  0  0  0  0  0  0  0
  1  2  1  0
  2  3  2  0
  2  4  1  0
  5  4  1  6
  5  6  1  0
  5  9  1  0
  6  7  1  0
  6  8  2  0
  9 10  1  6
  9 15  1  0
 10 11  1  0
 11 12  1  0
 12 13  1  0
 12 14  2  0
 15 16  1  0
 16 17  1  0
 17 18  1  0
 18 19  1  0
 19 20  2  0
 19 21  1  0
 21 22  1  0
M  END
