
     RDKit          3D

 23 22  0  0  0  0  0  0  0  0999 V2000
   -7.0670    1.3900    0.5860 N   0  0  0  0  0  0  0  0  0  0  0  0
   -5.6740    1.6270    0.5230 C   0  0  0  0  0  0  0  0  0  0  0  0
   -5.2290    2.8040    0.6280 O   0  0  0  0  0  0  0  0  0  0  0  0
   -4.7790    0.4690    0.3330 C   0  0  0  0  0  0  0  0  0  0  0  0
   -3.4140    0.8560    0.2890 O   0  0  0  0  0  0  0  0  0  0  0  0
   -2.4820   -0.1460    0.1140 C   0  0  0  0  0  0  0  0  0  0  0  0
   -2.8110   -1.3490   -0.0010 O   0  0  0  0  0  0  0  0  0  0  0  0
   -1.0170    0.1860    0.0570 C   0  0  0  0  0  0  0  0  0  0  0  0
   -0.2150   -1.0380   -0.1340 C   0  0  0  0  0  0  0  0  0  0  0  0
    1.2990   -0.8180   -0.2180 C   0  0  1  0  0  0  0  0  0  0  0  0
    1.6360    0.0850   -1.3410 C   0  0  0  0  0  0  0  0  0  0  0  0
    2.9820    0.3670   -1.4540 O   0  0  0  0  0  0  0  0  0  0  0  0
    3.7480    1.1680   -0.6460 C   0  0  0  0  0  0  0  0  0  0  0  0
    3.2070    1.7550    0.3150 O   0  0  0  0  0  0  0  0  0  0  0  0
    5.1150    1.3670   -0.8420 O   0  0  0  0  0  0  0  0  0  0  0  0
    6.0470    2.3820    0.1940 S   0  0  0  0  0  0  0  0  0  0  0  0
    5.2200    2.9540    1.3280 O   0  0  0  0  0  0  0  0  0  0  0  0
    1.8800   -0.5600    1.0780 C   0  0  0  0  0  0  0  0  0  0  0  0
    3.1870   -1.0010    1.5010 N   0  0  0  0  0  0  0  0  0  0  0  0
    1.1880    0.1090    1.9230 O   0  0  0  0  0  0  0  0  0  0  0  0
    1.7730   -2.1890   -0.6980 C   0  0  0  0  0  0  0  0  0  0  0  0
    1.3680   -2.5780   -1.9820 N   0  0  0  0  0  0  0  0  0  0  0  0
    2.4660   -2.8920    0.0200 O   0  0  0  0  0  0  0  0  0  0  0  0
  1  2  1  0
  2  3  2  0
  2  4  1  0
  4  5  1  0
  5  6  1  0
  6  7  2  0
  6  8  1  0
  8  9  1  0
 10  9  1  1
 10 11  1  0
 10 18  1  0
 10 21  1  0
 11 12  1  0
 12 13  1  0
 13 14  2  0
 13 15  1  0
 15 16  1  0
 16 17  2  0
 18 19  1  0
 18 20  2  0
 21 22  1  0
 21 23  2  0
M  END
