
     RDKit          3D

 22 21  0  0  0  0  0  0  0  0999 V2000
    4.9850    2.3060    1.5290 C   0  0  0  0  0  0  0  0  0  0  0  0
    4.1950    1.2070    1.8400 O   0  0  0  0  0  0  0  0  0  0  0  0
    3.8560    0.5470    0.6550 C   0  0  0  0  0  0  0  0  0  0  0  0
    3.0620   -0.5690    0.8990 O   0  0  0  0  0  0  0  0  0  0  0  0
    2.7610   -1.1750   -0.2900 C   0  0  1  0  0  0  0  0  0  0  0  0
    3.3380   -2.5600   -0.2680 C   0  0  0  0  0  0  0  0  0  0  0  0
    3.1310   -3.3570   -1.4240 N   0  0  0  0  0  0  0  0  0  0  0  0
    3.9770   -2.9990    0.7250 O   0  0  0  0  0  0  0  0  0  0  0  0
    1.2930   -1.2360   -0.5540 C   0  0  0  0  0  0  0  0  0  0  0  0
    0.9120   -1.7760   -1.6250 O   0  0  0  0  0  0  0  0  0  0  0  0
    0.3350   -0.7410    0.2980 O   0  0  0  0  0  0  0  0  0  0  0  0
   -1.0540   -0.7930    0.0580 C   0  0  0  0  0  0  0  0  0  0  0  0
   -1.4550   -0.0710   -1.2030 C   0  0  0  0  0  0  0  0  0  0  0  0
   -2.8780   -0.2140   -1.3040 O   0  0  0  0  0  0  0  0  0  0  0  0
   -3.7290    0.2610   -0.3290 C   0  0  0  0  0  0  0  0  0  0  0  0
   -4.3850   -0.6760    0.5630 C   0  0  0  0  0  0  0  0  0  0  0  0
   -4.1710   -2.0860    0.4590 N   0  0  0  0  0  0  0  0  0  0  0  0
   -5.1770   -0.3100    1.4780 O   0  0  0  0  0  0  0  0  0  0  0  0
   -3.9310    1.5440   -0.2250 C   0  0  0  0  0  0  0  0  0  0  0  0
   -4.8050    2.0320    0.7740 N   0  0  0  0  0  0  0  0  0  0  0  0
   -3.1140    2.6640   -1.3330 S   0  0  0  0  0  0  0  0  0  0  0  0
   -3.5210    4.2830   -1.0190 O   0  0  0  0  0  0  0  0  0  0  0  0
  1  2  1  0
  2  3  1  0
  3  4  1  0
  5  4  1  1
  5  6  1  0
  5  9  1  0
  6  7  1  0
  6  8  2  0
  9 10  2  0
  9 11  1  0
 11 12  1  0
 12 13  1  0
 13 14  1  0
 14 15  1  0
 15 16  1  0
 15 19  2  3
 16 17  1  0
 16 18  2  0
 19 20  1  0
 19 21  1  0
 21 22  1  0
M  END
