
     RDKit          3D

 22 21  0  0  0  0  0  0  0  0999 V2000
    5.8080   -0.1660    0.6660 N   0  0  0  0  0  0  0  0  0  0  0  0
    4.8690   -0.0300   -0.3970 C   0  0  0  0  0  0  0  0  0  0  0  0
    5.1060    0.8570   -1.2550 O   0  0  0  0  0  0  0  0  0  0  0  0
    3.6920   -0.8820   -0.4810 C   0  0  0  0  0  0  0  0  0  0  0  0
    3.4380   -1.7690    0.3620 O   0  0  0  0  0  0  0  0  0  0  0  0
    2.8010   -0.7290   -1.5190 O   0  0  0  0  0  0  0  0  0  0  0  0
    1.6390   -1.4320   -1.7640 C   0  0  0  0  0  0  0  0  0  0  0  0
    0.5760   -1.3420   -0.7620 C   0  0  0  0  0  0  0  0  0  0  0  0
   -0.5220   -1.9480   -0.8970 O   0  0  0  0  0  0  0  0  0  0  0  0
    0.7330   -0.5800    0.3810 O   0  0  0  0  0  0  0  0  0  0  0  0
   -0.2950   -0.4910    1.3220 C   0  0  2  0  0  0  0  0  0  0  0  0
   -0.6960    0.9640    1.4230 C   0  0  0  0  0  0  0  0  0  0  0  0
   -1.2660    1.5060   -0.2060 S   0  0  0  0  0  0  0  0  0  0  0  0
   -2.7960    0.7150   -0.7120 C   0  0  1  0  0  0  0  0  0  0  0  0
   -3.9070    1.1980    0.2320 C   0  0  0  0  0  0  0  0  0  0  0  0
   -5.1040    0.5750   -0.1710 O   0  0  0  0  0  0  0  0  0  0  0  0
   -3.1040    1.0800   -2.1040 C   0  0  0  0  0  0  0  0  0  0  0  0
   -3.2910    2.4460   -2.4530 N   0  0  0  0  0  0  0  0  0  0  0  0
   -3.2010    0.1910   -2.9830 O   0  0  0  0  0  0  0  0  0  0  0  0
    0.1460   -1.0380    2.6110 C   0  0  0  0  0  0  0  0  0  0  0  0
    1.4580   -1.5470    2.7410 N   0  0  0  0  0  0  0  0  0  0  0  0
   -0.6300   -1.0650    3.6250 O   0  0  0  0  0  0  0  0  0  0  0  0
  1  2  1  0
  2  3  2  0
  2  4  1  0
  4  5  2  0
  4  6  1  0
  6  7  1  0
  7  8  1  0
  8  9  2  0
  8 10  1  0
 10 11  1  0
 11 12  1  1
 11 20  1  0
 12 13  1  0
 13 14  1  0
 14 15  1  1
 14 17  1  0
 15 16  1  0
 17 18  1  0
 17 19  2  0
 20 21  1  0
 20 22  2  0
M  END
