
     RDKit          3D

 23 22  0  0  0  0  0  0  0  0999 V2000
   -4.0560   -2.1210    0.7250 N   0  0  0  0  0  0  0  0  0  0  0  0
   -3.8230   -0.8850    1.3790 C   0  0  0  0  0  0  0  0  0  0  0  0
   -4.0570   -0.8220    2.6130 O   0  0  0  0  0  0  0  0  0  0  0  0
   -3.3190    0.2550    0.5770 C   0  0  1  0  0  0  0  0  0  0  0  0
   -3.1660   -0.1250   -0.7170 O   0  0  0  0  0  0  0  0  0  0  0  0
   -1.8930   -0.0300   -1.2300 C   0  0  0  0  0  0  0  0  0  0  0  0
   -1.3130    1.3400   -1.2190 C   0  0  0  0  0  0  0  0  0  0  0  0
    0.0180    1.3450   -1.7750 N   0  0  0  0  0  0  0  0  0  0  0  0
    1.0900    0.6050   -1.2290 C   0  0  0  0  0  0  0  0  0  0  0  0
    0.9160   -0.1100   -0.1970 O   0  0  0  0  0  0  0  0  0  0  0  0
    2.4220    0.6900   -1.8970 C   0  0  0  0  0  0  0  0  0  0  0  0
    3.3600   -0.1150   -1.2170 O   0  0  0  0  0  0  0  0  0  0  0  0
    3.1230   -1.4730   -1.1170 C   0  0  0  0  0  0  0  0  0  0  0  0
    2.0900   -1.9790   -1.6240 O   0  0  0  0  0  0  0  0  0  0  0  0
    4.0490   -2.4090   -0.4200 C   0  0  0  0  0  0  0  0  0  0  0  0
    5.1610   -1.7230    0.1010 O   0  0  0  0  0  0  0  0  0  0  0  0
    4.9490   -0.7170    1.0320 C   0  0  0  0  0  0  0  0  0  0  0  0
    3.7750   -0.4550    1.3770 O   0  0  0  0  0  0  0  0  0  0  0  0
    6.2910    0.2060    1.7470 S   0  0  0  0  0  0  0  0  0  0  0  0
    5.6810    1.3490    2.8390 O   0  0  0  0  0  0  0  0  0  0  0  0
   -4.3910    1.3100    0.6490 C   0  0  0  0  0  0  0  0  0  0  0  0
   -4.7390    1.8730    1.9020 N   0  0  0  0  0  0  0  0  0  0  0  0
   -4.9750    1.6930   -0.3920 O   0  0  0  0  0  0  0  0  0  0  0  0
  1  2  1  0
  2  3  2  0
  2  4  1  0
  4  5  1  6
  4 21  1  0
  5  6  1  0
  6  7  1  0
  7  8  1  0
  8  9  1  0
  9 10  2  0
  9 11  1  0
 11 12  1  0
 12 13  1  0
 13 14  2  0
 13 15  1  0
 15 16  1  0
 16 17  1  0
 17 18  2  0
 17 19  1  0
 19 20  1  0
 21 22  1  0
 21 23  2  0
M  END
