
     RDKit          3D

 22 21  0  0  0  0  0  0  0  0999 V2000
   -6.5350   -0.1610   -0.1420 C   0  0  0  0  0  0  0  0  0  0  0  0
   -5.3890   -0.1720    0.6420 O   0  0  0  0  0  0  0  0  0  0  0  0
   -4.2090    0.0080   -0.1010 C   0  0  1  0  0  0  0  0  0  0  0  0
   -3.5940    1.3350    0.2250 C   0  0  0  0  0  0  0  0  0  0  0  0
   -2.3380    1.5270   -0.3330 O   0  0  0  0  0  0  0  0  0  0  0  0
   -1.1460    0.9850    0.0560 C   0  0  0  0  0  0  0  0  0  0  0  0
   -1.1290    0.2240    1.0670 O   0  0  0  0  0  0  0  0  0  0  0  0
    0.1440    1.2310   -0.6330 C   0  0  0  0  0  0  0  0  0  0  0  0
    1.1970    0.5350    0.0010 O   0  0  0  0  0  0  0  0  0  0  0  0
    2.4950    0.6070   -0.4570 C   0  0  0  0  0  0  0  0  0  0  0  0
    2.7370    1.3110   -1.4640 O   0  0  0  0  0  0  0  0  0  0  0  0
    3.6320   -0.1110    0.1810 C   0  0  1  0  0  0  0  0  0  0  0  0
    4.8430    0.1250   -0.4710 O   0  0  0  0  0  0  0  0  0  0  0  0
    5.6420   -0.8650   -1.0170 C   0  0  0  0  0  0  0  0  0  0  0  0
    6.8390   -0.4810   -1.6470 N   0  0  0  0  0  0  0  0  0  0  0  0
    5.2400   -2.0490   -0.9110 O   0  0  0  0  0  0  0  0  0  0  0  0
    3.7820    0.2700    1.6050 C   0  0  0  0  0  0  0  0  0  0  0  0
    5.0250    0.7730    2.0540 N   0  0  0  0  0  0  0  0  0  0  0  0
    2.8490    0.1640    2.4300 O   0  0  0  0  0  0  0  0  0  0  0  0
   -3.3540   -1.1620   -0.1700 C   0  0  0  0  0  0  0  0  0  0  0  0
   -3.5440   -2.2940    0.6960 N   0  0  0  0  0  0  0  0  0  0  0  0
   -2.3810   -1.2870   -0.9850 O   0  0  0  0  0  0  0  0  0  0  0  0
  1  2  1  0
  2  3  1  0
  3  4  1  1
  3 20  1  0
  4  5  1  0
  5  6  1  0
  6  7  2  0
  6  8  1  0
  8  9  1  0
  9 10  1  0
 10 11  2  0
 10 12  1  0
 12 13  1  6
 12 17  1  0
 13 14  1  0
 14 15  1  0
 14 16  2  0
 17 18  1  0
 17 19  2  0
 20 21  1  0
 20 22  2  0
M  END
