
     RDKit          3D

 19 19  0  0  0  0  0  0  0  0999 V2000
    4.2850   -0.1250    0.2960 C   0  0  0  0  0  0  0  0  0  0  0  0
    3.0120   -0.1970   -0.0470 C   0  0  0  0  0  0  0  0  0  0  0  0
    2.5260   -1.3620   -0.8070 C   0  0  0  0  0  0  0  0  0  0  0  0
    3.6480   -2.3540   -1.1000 C   0  0  0  0  0  0  0  0  0  0  0  0
    2.1320    0.9020    0.3530 C   0  0  0  0  0  0  0  0  0  0  0  0
    2.6100    1.8910    1.0150 O   0  0  0  0  0  0  0  0  0  0  0  0
    0.7210    0.9790    0.0590 C   0  0  0  0  0  0  0  0  0  0  0  0
   -0.1270    0.0180    0.5400 C   0  0  0  0  0  0  0  0  0  0  0  0
   -1.5000    0.0550    0.2790 C   0  0  0  0  0  0  0  0  0  0  0  0
   -2.0350    1.0910   -0.4900 C   0  0  0  0  0  0  0  0  0  0  0  0
   -3.3630    1.2150   -0.8030 O   0  0  0  0  0  0  0  0  0  0  0  0
   -4.4050    0.3700   -0.4240 C   0  0  0  0  0  0  0  0  0  0  0  0
   -4.6090    0.2880    1.0420 C   0  0  0  0  0  0  0  0  0  0  0  0
   -3.9440    0.9480    1.8410 O   0  0  0  0  0  0  0  0  0  0  0  0
   -5.5890   -0.5690    1.5210 O   0  0  0  0  0  0  0  0  0  0  0  0
   -1.1800    2.0530   -0.9700 C   0  0  0  0  0  0  0  0  0  0  0  0
   -1.8010    3.3640   -1.9320 Cl  0  0  0  0  0  0  0  0  0  0  0  0
    0.1850    1.9960   -0.6970 C   0  0  0  0  0  0  0  0  0  0  0  0
    1.2140    3.2520   -1.3380 Cl  0  0  0  0  0  0  0  0  0  0  0  0
  1  2  2  0
  2  3  1  0
  2  5  1  0
  3  4  1  0
  5  6  2  0
  5  7  1  0
  7  8  2  0
  7 18  1  0
  8  9  1  0
  9 10  2  0
 10 11  1  0
 10 16  1  0
 11 12  1  0
 12 13  1  0
 13 14  2  0
 13 15  1  0
 16 17  1  0
 16 18  2  0
 18 19  1  0
M  END
