
     RDKit          3D

 17 19  0  0  0  0  0  0  0  0999 V2000
    3.8200    1.0990    0.3230 C   0  0  0  0  0  0  0  0  0  0  0  0
    2.8140    0.0660   -0.0570 C   0  0  0  0  0  0  0  0  0  0  0  0
    3.2370   -1.2120   -0.2830 C   0  0  0  0  0  0  0  0  0  0  0  0
    4.9350   -1.6390   -0.1300 Cl  0  0  0  0  0  0  0  0  0  0  0  0
    2.3280   -2.1900   -0.6380 C   0  0  0  0  0  0  0  0  0  0  0  0
    0.9900   -1.8930   -0.7670 C   0  0  0  0  0  0  0  0  0  0  0  0
    0.5900   -0.5850   -0.5310 C   0  0  0  0  0  0  0  0  0  0  0  0
   -0.6620   -0.0070   -0.5850 C   0  0  0  0  0  0  0  0  0  0  0  0
   -0.5110    1.3060   -0.2660 C   0  0  0  0  0  0  0  0  0  0  0  0
    0.7740    1.5280   -0.0280 N   0  0  0  0  0  0  0  0  0  0  0  0
    1.4840    0.3890   -0.1800 C   0  0  0  0  0  0  0  0  0  0  0  0
   -1.6810    2.2200   -0.2320 C   0  0  0  0  0  0  0  0  0  0  0  0
   -2.9630    1.5300   -0.5610 C   0  0  0  0  0  0  0  0  0  0  0  0
   -2.8360    0.4290   -1.3690 O   0  0  0  0  0  0  0  0  0  0  0  0
   -1.9930   -0.5400   -0.9000 C   0  0  2  0  0  0  0  0  0  0  0  0
   -2.5740   -1.3420    0.2440 C   0  0  0  0  0  0  0  0  0  0  0  0
   -3.7450   -1.9870   -0.1480 O   0  0  0  0  0  0  0  0  0  0  0  0
  1  2  1  0
  2  3  2  0
  2 11  1  0
  3  4  1  0
  3  5  1  0
  5  6  2  0
  6  7  1  0
  7  8  1  0
  7 11  2  0
  8  9  2  0
  8 15  1  0
  9 10  1  0
  9 12  1  0
 10 11  1  0
 12 13  1  0
 13 14  1  0
 14 15  1  0
 15 16  1  1
 16 17  1  0
M  END
