
     RDKit          3D

 28 30  0  0  0  0  0  0  0  0999 V2000
    5.4520    2.0770   -1.2680 C   0  0  0  0  0  0  0  0  0  0  0  0
    5.0780    1.7140   -0.0550 C   0  0  0  0  0  0  0  0  0  0  0  0
    5.4340    0.3870    0.4950 C   0  0  0  0  0  0  0  0  0  0  0  0
    4.1990   -0.3890    0.8360 C   0  0  2  0  0  0  0  0  0  0  0  0
    4.4650   -1.7240    1.3940 C   0  0  0  0  0  0  0  0  0  0  0  0
    5.2800   -1.8740    2.5490 N   0  0  0  0  0  0  0  0  0  0  0  0
    3.9710   -2.7280    0.8470 O   0  0  0  0  0  0  0  0  0  0  0  0
    3.3510   -0.4560   -0.3460 N   0  0  1  0  0  0  0  0  0  0  0  0
    3.9760   -1.1490   -1.4330 C   0  0  0  0  0  0  0  0  0  0  0  0
    2.9590   -2.0140   -2.0970 C   0  0  0  0  0  0  0  0  0  0  0  0
    1.8530   -2.1190   -1.1040 C   0  0  0  0  0  0  0  0  0  0  0  0
    2.0810   -1.0490   -0.0640 C   0  0  2  0  0  0  0  0  0  0  0  0
    1.0180    0.0300   -0.2330 C   0  0  0  0  0  0  0  0  0  0  0  0
    1.3710    1.1860   -0.5650 O   0  0  0  0  0  0  0  0  0  0  0  0
   -0.3300   -0.3490    0.0020 N   0  0  0  0  0  0  0  0  0  0  0  0
   -1.4260    0.5410   -0.1150 C   0  0  0  0  0  0  0  0  0  0  0  0
   -1.2720    1.8430   -0.4510 C   0  0  0  0  0  0  0  0  0  0  0  0
   -2.3630    2.6760   -0.5530 C   0  0  0  0  0  0  0  0  0  0  0  0
   -3.6800    2.2430   -0.3190 C   0  0  0  0  0  0  0  0  0  0  0  0
   -4.8000    3.1800   -0.4500 C   0  0  0  0  0  0  0  0  0  0  0  0
   -3.8480    0.9240    0.0240 C   0  0  0  0  0  0  0  0  0  0  0  0
   -5.1060    0.4260    0.2680 C   0  0  0  0  0  0  0  0  0  0  0  0
   -6.2840    1.2790    0.1800 C   0  0  0  0  0  0  0  0  0  0  0  0
   -5.2240   -0.9330    0.6140 C   0  0  0  0  0  0  0  0  0  0  0  0
   -6.5990   -1.4450    0.8670 C   0  0  0  0  0  0  0  0  0  0  0  0
   -4.1550   -1.7800    0.7200 C   0  0  0  0  0  0  0  0  0  0  0  0
   -2.8970   -1.2580    0.4710 C   0  0  0  0  0  0  0  0  0  0  0  0
   -2.7190    0.0580    0.1290 C   0  0  0  0  0  0  0  0  0  0  0  0
  1  2  2  0
  2  3  1  0
  4  3  1  6
  4  5  1  0
  4  8  1  0
  5  6  1  0
  5  7  2  0
  8  9  1  6
  8 12  1  0
  9 10  1  0
 10 11  1  0
 11 12  1  0
 12 13  1  6
 13 14  2  0
 13 15  1  0
 15 16  1  0
 16 17  2  0
 16 28  1  0
 17 18  1  0
 18 19  2  0
 19 20  1  0
 19 21  1  0
 21 22  2  0
 21 28  1  0
 22 23  1  0
 22 24  1  0
 24 25  1  0
 24 26  2  0
 26 27  1  0
 27 28  2  0
M  CHG  1   8   1
M  END
