
     RDKit          3D

 28 30  0  0  0  0  0  0  0  0999 V2000
   -1.9800    1.4320   -3.5780 C   0  0  0  0  0  0  0  0  0  0  0  0
   -0.8920    0.9590   -2.7440 C   0  0  0  0  0  0  0  0  0  0  0  0
    0.0170    0.0360   -3.2920 C   0  0  0  0  0  0  0  0  0  0  0  0
    1.0700   -0.4310   -2.5190 C   0  0  0  0  0  0  0  0  0  0  0  0
    1.2530   -0.0120   -1.2160 C   0  0  0  0  0  0  0  0  0  0  0  0
    2.3910   -0.5380   -0.4590 C   0  0  0  0  0  0  0  0  0  0  0  0
    3.3280   -1.0750   -1.0890 O   0  0  0  0  0  0  0  0  0  0  0  0
    2.4960   -0.4760    0.9500 N   0  0  0  0  0  0  0  0  0  0  0  0
    3.5080   -0.8990    1.8240 C   0  0  0  0  0  0  0  0  0  0  0  0
    4.8370   -0.2860    1.8720 C   0  0  1  0  0  0  0  0  0  0  0  0
    5.6020   -1.0740    2.9960 C   0  0  0  0  0  0  0  0  0  0  0  0
    6.4620   -2.0630    2.3010 C   0  0  0  0  0  0  0  0  0  0  0  0
    6.2870   -1.8360    0.8950 N   0  0  0  0  0  0  0  0  0  0  0  0
    5.8010   -0.4620    0.7690 C   0  0  0  0  0  0  0  0  0  0  0  0
    0.3700    0.8750   -0.7050 C   0  0  0  0  0  0  0  0  0  0  0  0
   -0.7200    1.3790   -1.4550 C   0  0  0  0  0  0  0  0  0  0  0  0
   -1.6590    2.3310   -0.8600 C   0  0  2  0  0  0  0  0  0  0  0  0
   -1.1730    2.8880    0.4680 C   0  0  0  0  0  0  0  0  0  0  0  0
   -3.0190    1.8180   -0.7270 N   0  0  0  0  0  0  0  0  0  0  0  0
   -2.9140    0.4430   -0.3310 C   0  0  0  0  0  0  0  0  0  0  0  0
   -4.2220   -0.1390    0.0230 C   0  0  0  0  0  0  0  0  0  0  0  0
   -5.3410    0.6820   -0.0720 C   0  0  0  0  0  0  0  0  0  0  0  0
   -6.5560    0.1220    0.2630 C   0  0  0  0  0  0  0  0  0  0  0  0
   -6.6590   -1.1870    0.6720 C   0  0  0  0  0  0  0  0  0  0  0  0
   -5.5590   -1.9870    0.7630 C   0  0  0  0  0  0  0  0  0  0  0  0
   -4.3270   -1.4480    0.4330 C   0  0  0  0  0  0  0  0  0  0  0  0
   -3.1360   -2.2840    0.5230 C   0  0  0  0  0  0  0  0  0  0  0  0
   -1.9780   -1.8780    0.2360 O   0  0  0  0  0  0  0  0  0  0  0  0
  1  2  1  0
  2  3  2  0
  2 16  1  0
  3  4  1  0
  4  5  2  0
  5  6  1  0
  5 15  1  0
  6  7  2  0
  6  8  1  0
  8  9  1  0
 10  9  1  6
 10 11  1  0
 10 14  1  0
 11 12  1  0
 12 13  1  0
 13 14  1  0
 15 16  2  0
 16 17  1  0
 17 18  1  1
 17 19  1  0
 19 20  1  0
 20 21  1  0
 21 22  2  0
 21 26  1  0
 22 23  1  0
 23 24  2  0
 24 25  1  0
 25 26  2  0
 26 27  1  0
 27 28  2  0
M  CHG  1  19   1
M  END
