
     RDKit          3D

 17 19  0  0  0  0  0  0  0  0999 V2000
   -1.0380    2.5700    1.9630 O   0  0  0  0  0  0  0  0  0  0  0  0
   -0.6790    1.4840    1.1650 C   0  0  0  0  0  0  0  0  0  0  0  0
    0.6420    1.1090    0.9910 C   0  0  0  0  0  0  0  0  0  0  0  0
    0.9930    0.0340    0.2020 C   0  0  0  0  0  0  0  0  0  0  0  0
    2.4100   -0.3600    0.0210 C   0  0  0  0  0  0  0  0  0  0  0  0
    3.4550    0.2340    0.5610 C   0  0  0  0  0  0  0  0  0  0  0  0
    4.6610   -0.4880    0.1130 C   0  0  2  0  0  0  0  0  0  0  0  0
    5.6100    0.6580   -0.8730 Cl  0  0  0  0  0  0  0  0  0  0  0  0
    4.1210   -1.5550   -0.7450 C   0  0  0  0  0  0  0  0  0  0  0  0
    2.8470   -1.4430   -0.7660 N   0  0  0  0  0  0  0  0  0  0  0  0
   -0.0130   -0.6580   -0.4100 C   0  0  0  0  0  0  0  0  0  0  0  0
   -1.3590   -0.3390   -0.2800 C   0  0  0  0  0  0  0  0  0  0  0  0
   -1.6500    0.7450    0.5210 C   0  0  0  0  0  0  0  0  0  0  0  0
   -2.9880    1.1140    0.6900 O   0  0  0  0  0  0  0  0  0  0  0  0
   -4.0420    0.3050    0.2300 C   0  0  0  0  0  0  0  0  0  0  0  0
   -3.6270   -0.2460   -1.1400 C   0  0  0  0  0  0  0  0  0  0  0  0
   -2.4140   -1.1360   -0.9750 C   0  0  0  0  0  0  0  0  0  0  0  0
  1  2  1  0
  2  3  2  0
  2 13  1  0
  3  4  1  0
  4  5  1  0
  4 11  2  0
  5  6  2  0
  5 10  1  0
  6  7  1  0
  7  8  1  6
  7  9  1  0
  9 10  2  0
 11 12  1  0
 12 13  2  0
 12 17  1  0
 13 14  1  0
 14 15  1  0
 15 16  1  0
 16 17  1  0
M  END
