
     RDKit          3D

 17 19  0  0  0  0  0  0  0  0999 V2000
   -3.1640   -0.4590    0.8600 C   0  0  0  0  0  0  0  0  0  0  0  0
   -3.2780    0.7450   -0.0240 C   0  0  1  0  0  0  0  0  0  0  0  0
   -2.1610    1.7030    0.3370 C   0  0  0  0  0  0  0  0  0  0  0  0
   -0.8900    0.9440    0.1180 C   0  0  0  0  0  0  0  0  0  0  0  0
    0.2080    1.1580    0.8490 N   0  0  0  0  0  0  0  0  0  0  0  0
    1.3860    0.4620    0.6530 C   0  0  0  0  0  0  0  0  0  0  0  0
    1.4260   -0.4760   -0.3240 C   0  0  0  0  0  0  0  0  0  0  0  0
    0.2880   -0.7040   -1.0860 C   0  0  0  0  0  0  0  0  0  0  0  0
    0.4020   -1.6890   -2.0740 O   0  0  0  0  0  0  0  0  0  0  0  0
   -0.8850   -0.0050   -0.8830 C   0  0  0  0  0  0  0  0  0  0  0  0
   -2.0770   -0.2760   -1.7150 C   0  0  0  0  0  0  0  0  0  0  0  0
   -3.1730    0.4660   -1.3710 O   0  0  0  0  0  0  0  0  0  0  0  0
    2.6870   -1.1870   -0.6090 C   0  0  0  0  0  0  0  0  0  0  0  0
    3.7740   -0.9150    0.0670 C   0  0  0  0  0  0  0  0  0  0  0  0
    5.3030   -1.7590   -0.2490 Cl  0  0  0  0  0  0  0  0  0  0  0  0
    3.8080    0.1410    1.0710 C   0  0  0  0  0  0  0  0  0  0  0  0
    2.5260    0.6980    1.5330 C   0  0  0  0  0  0  0  0  0  0  0  0
  2  1  1  1
  2  3  1  0
  2 12  1  0
  3  4  1  0
  4  5  2  0
  4 10  1  0
  5  6  1  0
  6  7  2  0
  6 17  1  0
  7  8  1  0
  7 13  1  0
  8  9  1  0
  8 10  2  0
 10 11  1  0
 11 12  1  0
 13 14  2  0
 14 15  1  0
 14 16  1  0
 16 17  1  0
M  END
