
     RDKit          3D

 17 19  0  0  0  0  0  0  0  0999 V2000
    4.3970    1.6980    0.0080 C   0  0  0  0  0  0  0  0  0  0  0  0
    4.1640    0.3260    0.2820 O   0  0  0  0  0  0  0  0  0  0  0  0
    2.8690   -0.1860    0.3220 C   0  0  0  0  0  0  0  0  0  0  0  0
    1.7650    0.6020    0.1010 C   0  0  0  0  0  0  0  0  0  0  0  0
    0.4880    0.0450    0.1510 C   0  0  0  0  0  0  0  0  0  0  0  0
    0.3880   -1.2990    0.4260 C   0  0  0  0  0  0  0  0  0  0  0  0
    1.5030   -2.1100    0.6510 C   0  0  0  0  0  0  0  0  0  0  0  0
    2.7460   -1.5320    0.5950 C   0  0  0  0  0  0  0  0  0  0  0  0
    4.1800   -2.5220    0.8740 Cl  0  0  0  0  0  0  0  0  0  0  0  0
   -1.0580   -1.6170    0.4180 C   0  0  2  0  0  0  0  0  0  0  0  0
   -1.3790   -2.6110   -0.5990 N   0  0  0  0  0  0  0  0  0  0  0  0
   -1.7140   -0.3270    0.1160 C   0  0  0  0  0  0  0  0  0  0  0  0
   -0.8370    0.6420   -0.0400 C   0  0  0  0  0  0  0  0  0  0  0  0
   -1.2370    1.9480   -0.3330 O   0  0  0  0  0  0  0  0  0  0  0  0
   -2.5390    2.1200   -0.9130 C   0  0  0  0  0  0  0  0  0  0  0  0
   -3.4970    1.3910    0.0100 C   0  0  0  0  0  0  0  0  0  0  0  0
   -3.1930   -0.0710   -0.0130 C   0  0  0  0  0  0  0  0  0  0  0  0
  1  2  1  0
  2  3  1  0
  3  4  2  0
  3  8  1  0
  4  5  1  0
  5  6  2  0
  5 13  1  0
  6  7  1  0
  6 10  1  0
  7  8  2  0
  8  9  1  0
 10 11  1  6
 10 12  1  0
 12 13  2  0
 12 17  1  0
 13 14  1  0
 14 15  1  0
 15 16  1  0
 16 17  1  0
M  END
