
     RDKit          3D

 34 37  0  0  0  0  0  0  0  0999 V2000
    2.0400   -0.3280    2.9040 C   0  0  0  0  0  0  0  0  0  0  0  0
    1.0180   -1.2740    2.3140 C   0  0  1  0  0  0  0  0  0  0  0  0
   -0.3050   -0.5910    2.2250 C   0  0  0  0  0  0  0  0  0  0  0  0
   -0.3190    0.2880    1.0330 C   0  0  2  0  0  0  0  0  0  0  0  0
   -1.3550    1.3680    0.9880 C   0  0  2  0  0  0  0  0  0  0  0  0
   -1.0280    2.3130    2.1440 C   0  0  0  0  0  0  0  0  0  0  0  0
   -2.1020    2.1810    3.1570 C   0  0  0  0  0  0  0  0  0  0  0  0
   -3.2840    1.5150    2.4550 C   0  0  0  0  0  0  0  0  0  0  0  0
   -2.7750    0.9240    1.1890 C   0  0  1  0  0  0  0  0  0  0  0  0
   -3.6400    0.9800   -0.0140 C   0  0  1  0  0  0  0  0  0  0  0  0
   -2.9470    0.0820   -0.9270 O   0  0  0  0  0  0  0  0  0  0  0  0
   -4.9380    0.3030    0.1490 C   0  0  0  0  0  0  0  0  0  0  0  0
   -5.9300    0.6950    1.1510 C   0  0  0  0  0  0  0  0  0  0  0  0
   -7.0530   -0.1790    0.9570 O   0  0  0  0  0  0  0  0  0  0  0  0
   -3.6310    2.2230   -0.8270 C   0  0  2  0  0  0  0  0  0  0  0  0
   -4.0280    3.5150   -0.2740 C   0  0  0  0  0  0  0  0  0  0  0  0
   -4.6490    4.2010   -1.5190 C   0  0  0  0  0  0  0  0  0  0  0  0
   -5.1640    3.1220   -2.2790 O   0  0  0  0  0  0  0  0  0  0  0  0
   -4.4340    1.9890   -2.0600 C   0  0  0  0  0  0  0  0  0  0  0  0
   -4.4110    0.9410   -2.7350 O   0  0  0  0  0  0  0  0  0  0  0  0
   -0.2080   -0.5700   -0.1810 C   0  0  0  0  0  0  0  0  0  0  0  0
    1.2530   -1.0850   -0.1780 C   0  0  2  0  0  0  0  0  0  0  0  0
    1.4430   -1.7890   -1.4540 C   0  0  0  0  0  0  0  0  0  0  0  0
    2.7700   -2.3950   -1.7440 C   0  0  0  0  0  0  0  0  0  0  0  0
    3.8950   -1.4390   -1.7850 C   0  0  0  0  0  0  0  0  0  0  0  0
    3.7280   -0.2440   -1.4600 O   0  0  0  0  0  0  0  0  0  0  0  0
    5.1700   -1.8980   -2.1980 N   0  0  0  0  0  0  0  0  0  0  0  0
    5.5000   -3.2490   -2.6050 C   0  0  0  0  0  0  0  0  0  0  0  0
    6.4030   -2.8430   -4.1690 S   0  0  0  0  0  0  0  0  0  0  0  0
    6.6600   -1.0510   -3.8250 C   0  0  0  0  0  0  0  0  0  0  0  0
    6.3900   -1.0820   -2.3020 C   0  0  2  0  0  0  0  0  0  0  0  0
    7.5700   -1.7620   -1.6550 C   0  0  0  0  0  0  0  0  0  0  0  0
    1.5370   -1.8820    1.0480 C   0  0  1  0  0  0  0  0  0  0  0  0
    2.9230   -1.9680    1.1970 O   0  0  0  0  0  0  0  0  0  0  0  0
  2  1  1  6
  2  3  1  0
  2 33  1  0
  4  3  1  1
  4  5  1  0
  4 21  1  0
  5  6  1  1
  5  9  1  0
  6  7  1  0
  7  8  1  0
  9  8  1  1
  9 10  1  0
 10 11  1  6
 10 12  1  0
 10 15  1  0
 12 13  1  0
 13 14  1  0
 15 16  1  1
 15 19  1  0
 16 17  1  0
 17 18  1  0
 18 19  1  0
 19 20  2  0
 21 22  1  0
 22 23  1  6
 22 33  1  0
 23 24  1  0
 24 25  1  0
 25 26  2  0
 25 27  1  0
 27 28  1  0
 27 31  1  0
 28 29  1  0
 29 30  1  0
 30 31  1  0
 31 32  1  1
 33 34  1  1
M  END
