
     RDKit          3D

 33 35  0  0  0  0  0  0  0  0999 V2000
    6.3980   -2.5870   -0.6890 C   0  0  0  0  0  0  0  0  0  0  0  0
    5.6350   -1.2520   -1.6210 S   0  0  0  0  0  0  0  0  0  0  0  0
    3.9420   -1.0640   -1.1950 C   0  0  0  0  0  0  0  0  0  0  0  0
    3.3720   -0.1160   -0.5630 C   0  0  0  0  0  0  0  0  0  0  0  0
    1.8910   -0.1900   -0.3280 N   0  0  0  0  0  0  0  0  0  0  0  0
    1.0280   -1.0680   -0.9400 C   0  0  0  0  0  0  0  0  0  0  0  0
    1.4870   -1.8650   -1.7740 O   0  0  0  0  0  0  0  0  0  0  0  0
   -0.4590   -1.1480   -0.6780 C   0  0  0  0  0  0  0  0  0  0  0  0
   -1.1220   -2.0560   -1.3610 C   0  0  0  0  0  0  0  0  0  0  0  0
   -0.6860   -3.0080   -2.3330 C   0  0  0  0  0  0  0  0  0  0  0  0
   -1.6070   -3.8360   -2.8830 C   0  0  0  0  0  0  0  0  0  0  0  0
   -2.9990   -3.7150   -2.4580 C   0  0  0  0  0  0  0  0  0  0  0  0
   -1.2470   -4.7490   -3.8010 F   0  0  0  0  0  0  0  0  0  0  0  0
   -1.0720   -0.2620    0.2590 C   0  0  0  0  0  0  0  0  0  0  0  0
   -0.3000    0.5780    0.8730 O   0  0  0  0  0  0  0  0  0  0  0  0
   -2.4250   -0.1570    0.6290 N   0  0  0  0  0  0  0  0  0  0  0  0
   -2.7560    0.8880    1.6790 C   0  0  0  0  0  0  0  0  0  0  0  0
   -4.0590    1.3980    1.1300 C   0  0  2  0  0  0  0  0  0  0  0  0
   -4.8980    2.1460    2.1350 C   0  0  0  0  0  0  0  0  0  0  0  0
   -6.3140    2.1640    1.6050 C   0  0  0  0  0  0  0  0  0  0  0  0
   -6.4040    1.7810    0.1480 C   0  0  0  0  0  0  0  0  0  0  0  0
   -5.8690    0.3920   -0.1240 C   0  0  0  0  0  0  0  0  0  0  0  0
   -4.7740    0.0960    0.8650 C   0  0  1  0  0  0  0  0  0  0  0  0
   -3.6690   -0.7810    0.2940 C   0  0  2  0  0  0  0  0  0  0  0  0
   -3.7650   -2.1010    1.0850 C   0  0  0  0  0  0  0  0  0  0  0  0
    3.9600    1.0880   -0.0390 C   0  0  0  0  0  0  0  0  0  0  0  0
    2.9910    1.8450    0.6060 O   0  0  0  0  0  0  0  0  0  0  0  0
    5.1540    1.7340    0.0370 N   0  0  0  0  0  0  0  0  0  0  0  0
    6.4320    1.4140   -0.4790 C   0  0  0  0  0  0  0  0  0  0  0  0
    7.3850    2.6220   -0.2380 C   0  0  0  0  0  0  0  0  0  0  0  0
    7.5170    2.9430    1.0750 O   0  0  0  0  0  0  0  0  0  0  0  0
    6.3310    2.8730    1.7830 C   0  0  0  0  0  0  0  0  0  0  0  0
    5.2010    3.0510    0.8200 C   0  0  0  0  0  0  0  0  0  0  0  0
  1  2  1  0
  2  3  1  0
  3  4  2  3
  4  5  1  0
  4 26  1  0
  5  6  1  0
  6  7  2  0
  6  8  1  0
  8  9  2  3
  8 14  1  0
  9 10  1  0
 10 11  2  3
 11 12  1  0
 11 13  1  0
 14 15  2  0
 14 16  1  0
 16 17  1  0
 16 24  1  0
 18 17  1  1
 18 19  1  0
 18 23  1  0
 19 20  1  0
 20 21  1  0
 21 22  1  0
 23 22  1  6
 23 24  1  0
 24 25  1  1
 26 27  2  0
 26 28  1  0
 28 29  1  0
 28 33  1  0
 29 30  1  0
 30 31  1  0
 31 32  1  0
 32 33  1  0
M  END
