
     RDKit          3D

 34 35  0  0  0  0  0  0  0  0999 V2000
   -1.3720    5.3240    1.3380 C   0  0  0  0  0  0  0  0  0  0  0  0
   -0.4340    4.6820    0.6900 C   0  0  0  0  0  0  0  0  0  0  0  0
   -0.7920    3.7530   -0.4310 C   0  0  0  0  0  0  0  0  0  0  0  0
   -0.3630    2.4660   -0.1660 O   0  0  0  0  0  0  0  0  0  0  0  0
   -0.9560    1.9670    0.9460 C   0  0  1  0  0  0  0  0  0  0  0  0
   -1.5780    0.6160    0.8440 C   0  0  0  0  0  0  0  0  0  0  0  0
   -2.2900    0.2820   -0.3760 C   0  0  0  0  0  0  0  0  0  0  0  0
   -3.2310    1.3430   -0.9110 C   0  0  0  0  0  0  0  0  0  0  0  0
   -2.2470   -0.8190   -1.1010 C   0  0  0  0  0  0  0  0  0  0  0  0
   -1.4520   -2.0070   -0.8580 C   0  0  0  0  0  0  0  0  0  0  0  0
   -1.9590   -3.1770   -0.5570 C   0  0  0  0  0  0  0  0  0  0  0  0
   -3.2060   -3.7690   -0.3560 C   0  0  0  0  0  0  0  0  0  0  0  0
   -3.1210   -5.0880   -0.0800 O   0  0  0  0  0  0  0  0  0  0  0  0
   -4.5090   -3.3250   -0.3710 N   0  0  0  0  0  0  0  0  0  0  0  0
   -5.5440   -4.3920   -0.1230 C   0  0  0  0  0  0  0  0  0  0  0  0
   -5.1000   -2.0310   -0.5560 C   0  0  0  0  0  0  0  0  0  0  0  0
    0.0760   -1.9480   -0.9310 C   0  0  0  0  0  0  0  0  0  0  0  0
    0.5620   -0.9030   -1.7620 N   0  0  0  0  0  0  0  0  0  0  0  0
    1.8490   -0.6880   -2.2620 C   0  0  0  0  0  0  0  0  0  0  0  0
    1.9170   -0.4800   -3.5390 O   0  0  0  0  0  0  0  0  0  0  0  0
    3.0750   -0.6620   -1.5930 N   0  0  0  0  0  0  0  0  0  0  0  0
    3.4650    0.2680   -0.5220 C   0  0  2  0  0  0  0  0  0  0  0  0
    4.2070   -0.5340    0.5100 C   0  0  0  0  0  0  0  0  0  0  0  0
    3.5570   -1.0610    1.6720 C   0  0  0  0  0  0  0  0  0  0  0  0
    4.7910   -1.9840    2.5320 S   0  0  0  0  0  0  0  0  0  0  0  0
    6.0970   -1.6430    1.3430 C   0  0  0  0  0  0  0  0  0  0  0  0
    5.5090   -0.8700    0.4020 C   0  0  0  0  0  0  0  0  0  0  0  0
    6.4020   -0.3590   -0.7520 C   0  0  0  0  0  0  0  0  0  0  0  0
    6.7330    0.9420   -0.4610 F   0  0  0  0  0  0  0  0  0  0  0  0
    2.2670    0.9800   -0.0110 C   0  0  0  0  0  0  0  0  0  0  0  0
    2.3730    1.6920    1.2860 C   0  0  0  0  0  0  0  0  0  0  0  0
    1.2900    1.5050    2.1950 N   0  0  0  0  0  0  0  0  0  0  0  0
   -0.0380    1.9380    2.1310 C   0  0  0  0  0  0  0  0  0  0  0  0
   -0.5560    2.3700    3.2270 O   0  0  0  0  0  0  0  0  0  0  0  0
  1  2  2  0
  2  3  1  0
  3  4  1  0
  5  4  1  6
  5  6  1  0
  5 33  1  0
  6  7  1  0
  7  8  1  0
  7  9  2  0
  9 10  1  0
 10 11  2  3
 10 17  1  0
 11 12  1  0
 12 13  2  0
 12 14  1  0
 14 15  1  0
 14 16  1  0
 17 18  1  0
 18 19  1  0
 19 20  2  0
 19 21  1  0
 21 22  1  0
 22 23  1  1
 22 30  1  0
 23 24  2  0
 23 27  1  0
 24 25  1  0
 25 26  1  0
 26 27  2  0
 27 28  1  0
 28 29  1  0
 30 31  1  0
 31 32  1  0
 32 33  1  0
 33 34  2  0
M  END
