
     RDKit          3D

 33 36  0  0  0  0  0  0  0  0999 V2000
    7.0590    0.2280   -1.3570 C   0  0  0  0  0  0  0  0  0  0  0  0
    5.7880    0.4350   -0.7800 O   0  0  0  0  0  0  0  0  0  0  0  0
    4.9940   -0.5850   -0.2770 C   0  0  0  0  0  0  0  0  0  0  0  0
    5.3670   -1.7400   -0.3110 O   0  0  0  0  0  0  0  0  0  0  0  0
    3.6490   -0.1040    0.2960 C   0  0  2  0  0  0  0  0  0  0  0  0
    3.9900    1.0590    1.1430 C   0  0  0  0  0  0  0  0  0  0  0  0
    3.2400   -1.2600    1.2220 C   0  0  0  0  0  0  0  0  0  0  0  0
    4.2020   -1.4980    2.3070 C   0  0  0  0  0  0  0  0  0  0  0  0
    5.2860   -2.0820    2.1760 O   0  0  0  0  0  0  0  0  0  0  0  0
    3.9200   -1.0510    3.6180 O   0  0  0  0  0  0  0  0  0  0  0  0
    2.7790    0.0060   -0.8400 C   0  0  0  0  0  0  0  0  0  0  0  0
    1.4080    0.4770   -0.9130 C   0  0  1  0  0  0  0  0  0  0  0  0
    1.3910    1.8180   -0.4660 O   0  0  0  0  0  0  0  0  0  0  0  0
    1.0590    0.5710   -2.4090 C   0  0  0  0  0  0  0  0  0  0  0  0
   -0.2260   -0.1290   -2.7290 C   0  0  0  0  0  0  0  0  0  0  0  0
   -1.3850    0.4920   -1.9230 C   0  0  1  0  0  0  0  0  0  0  0  0
   -1.4540    1.9290   -2.4820 C   0  0  0  0  0  0  0  0  0  0  0  0
   -2.6060   -0.1770   -2.4210 C   0  0  0  0  0  0  0  0  0  0  0  0
   -3.7470    0.0130   -1.4340 C   0  0  0  0  0  0  0  0  0  0  0  0
   -3.2490   -0.6830   -0.1910 C   0  0  2  0  0  0  0  0  0  0  0  0
   -2.7910   -2.0580   -0.6830 C   0  0  0  0  0  0  0  0  0  0  0  0
   -4.3980   -1.0150    0.6920 C   0  0  0  0  0  0  0  0  0  0  0  0
   -3.9560   -1.8920    1.8310 C   0  0  0  0  0  0  0  0  0  0  0  0
   -2.5640   -1.7420    2.2670 C   0  0  0  0  0  0  0  0  0  0  0  0
   -1.5890   -0.9500    1.4910 C   0  0  2  0  0  0  0  0  0  0  0  0
   -0.9260    0.2430    2.7510 S   0  0  0  0  0  0  0  0  0  0  0  0
   -2.5850    1.0600    2.7240 C   0  0  0  0  0  0  0  0  0  0  0  0
   -2.6050    1.2690    1.2050 C   0  0  2  0  0  0  0  0  0  0  0  0
   -1.7690    2.5510    1.0830 C   0  0  0  0  0  0  0  0  0  0  0  0
   -3.8720    1.7290    0.8730 O   0  0  0  0  0  0  0  0  0  0  0  0
   -2.1140    0.0790    0.5000 C   0  0  2  0  0  0  0  0  0  0  0  0
   -1.0330    0.4020   -0.5120 C   0  0  1  0  0  0  0  0  0  0  0  0
    0.3070   -0.3080   -0.2590 C   0  0  0  0  0  0  0  0  0  0  0  0
  1  2  1  0
  2  3  1  0
  3  4  2  0
  3  5  1  0
  5  6  1  1
  5  7  1  0
  5 11  1  0
  7  8  1  0
  8  9  2  0
  8 10  1  0
 11 12  1  0
 12 13  1  1
 12 14  1  0
 12 33  1  0
 14 15  1  0
 15 16  1  0
 16 17  1  6
 16 18  1  0
 16 32  1  0
 18 19  1  0
 19 20  1  0
 20 21  1  6
 20 22  1  0
 20 31  1  0
 22 23  1  0
 23 24  1  0
 25 24  1  1
 25 26  1  0
 25 31  1  0
 26 27  1  0
 27 28  1  0
 28 29  1  1
 28 30  1  0
 31 28  1  1
 31 32  1  0
 32 33  1  6
M  END
