
     RDKit          3D

 34 37  0  0  0  0  0  0  0  0999 V2000
   -5.4850   -3.5120    0.9540 C   0  0  0  0  0  0  0  0  0  0  0  0
   -5.2860   -2.0080    0.6200 S   0  0  0  0  0  0  0  0  0  0  0  0
   -5.6800   -2.0810   -0.8740 O   0  0  0  0  0  0  0  0  0  0  0  0
   -5.8640   -1.4970    2.0310 F   0  0  0  0  0  0  0  0  0  0  0  0
   -4.2760   -0.8610    0.4710 C   0  0  0  0  0  0  0  0  0  0  0  0
   -3.2070   -0.9600   -0.5970 C   0  0  1  0  0  0  0  0  0  0  0  0
   -3.7550   -1.0500   -1.9700 C   0  0  0  0  0  0  0  0  0  0  0  0
   -2.8410   -0.4910   -2.9850 N   0  0  0  0  0  0  0  0  0  0  0  0
   -1.5030   -0.1530   -2.7200 C   0  0  0  0  0  0  0  0  0  0  0  0
   -0.7260    0.1550   -3.6280 O   0  0  0  0  0  0  0  0  0  0  0  0
   -1.0480   -0.1740   -1.3090 C   0  0  1  0  0  0  0  0  0  0  0  0
    0.1820    0.5060   -1.0980 N   0  0  0  0  0  0  0  0  0  0  0  0
    0.3840    1.8840   -1.3760 C   0  0  0  0  0  0  0  0  0  0  0  0
    0.2770    2.8550   -0.2680 C   0  0  0  0  0  0  0  0  0  0  0  0
   -1.0230    3.0690    0.3930 C   0  0  0  0  0  0  0  0  0  0  0  0
   -1.2830    2.8370    1.6740 C   0  0  0  0  0  0  0  0  0  0  0  0
   -2.6860    3.1790    1.9480 C   0  0  0  0  0  0  0  0  0  0  0  0
   -3.2070    3.6660    0.6630 C   0  0  0  0  0  0  0  0  0  0  0  0
   -2.2420    3.5920   -0.2170 C   0  0  0  0  0  0  0  0  0  0  0  0
    1.2800   -0.2770   -0.6610 C   0  0  0  0  0  0  0  0  0  0  0  0
    1.0450   -1.5140   -0.4340 O   0  0  0  0  0  0  0  0  0  0  0  0
    2.6430    0.1550   -0.4420 C   0  0  0  0  0  0  0  0  0  0  0  0
    2.9530    1.3380   -0.6950 O   0  0  0  0  0  0  0  0  0  0  0  0
    3.6500   -0.7090    0.0510 N   0  0  0  0  0  0  0  0  0  0  0  0
    5.0060   -0.3940    0.3000 C   0  0  0  0  0  0  0  0  0  0  0  0
    5.6160    0.8170    0.1040 C   0  0  0  0  0  0  0  0  0  0  0  0
    6.9520    1.0710    0.3650 C   0  0  0  0  0  0  0  0  0  0  0  0
    7.7160    0.0440    0.8530 C   0  0  0  0  0  0  0  0  0  0  0  0
    7.1420   -1.1960    1.0660 C   0  0  0  0  0  0  0  0  0  0  0  0
    7.6830   -2.3490    1.5350 N   0  0  0  0  0  0  0  0  0  0  0  0
    6.7560   -3.3180    1.5840 C   0  0  0  0  0  0  0  0  0  0  0  0
    5.5900   -2.7320    1.1220 C   0  0  0  0  0  0  0  0  0  0  0  0
    5.8210   -1.4200    0.8000 C   0  0  0  0  0  0  0  0  0  0  0  0
   -2.2400    0.2340   -0.4930 C   0  0  0  0  0  0  0  0  0  0  0  0
  1  2  1  0
  2  3  2  0
  2  4  1  0
  2  5  1  0
  6  5  1  1
  6  7  1  0
  6 34  1  0
  7  8  1  0
  8  9  1  0
  9 10  2  0
  9 11  1  0
 11 12  1  6
 11 34  1  0
 12 13  1  0
 12 20  1  0
 13 14  1  0
 14 15  1  0
 15 16  2  0
 15 19  1  0
 16 17  1  0
 17 18  1  0
 18 19  2  0
 20 21  2  0
 20 22  1  0
 22 23  2  0
 22 24  1  0
 24 25  1  0
 25 26  2  0
 25 33  1  0
 26 27  1  0
 27 28  2  0
 28 29  1  0
 29 30  1  0
 29 33  2  0
 30 31  1  0
 31 32  2  0
 32 33  1  0
M  END
