
     RDKit          3D

 34 37  0  0  0  0  0  0  0  0999 V2000
    4.0040   -3.3890    0.6950 C   0  0  0  0  0  0  0  0  0  0  0  0
    2.8930   -2.3890    0.9450 C   0  0  0  0  0  0  0  0  0  0  0  0
    2.0740   -2.0820   -0.2900 C   0  0  1  0  0  0  0  0  0  0  0  0
    2.9020   -1.5260   -1.3910 C   0  0  2  0  0  0  0  0  0  0  0  0
    3.9360   -2.4110   -1.7510 O   0  0  0  0  0  0  0  0  0  0  0  0
    3.3860   -0.1540   -1.3840 C   0  0  0  0  0  0  0  0  0  0  0  0
    4.2630    0.3250   -0.2860 C   0  0  0  0  0  0  0  0  0  0  0  0
    4.6870    1.7960   -0.5320 C   0  0  1  0  0  0  0  0  0  0  0  0
    3.5690    2.6030   -0.5880 O   0  0  0  0  0  0  0  0  0  0  0  0
    3.1760    2.9290    0.6860 C   0  0  0  0  0  0  0  0  0  0  0  0
    4.3000    2.6130    1.6300 C   0  0  0  0  0  0  0  0  0  0  0  0
    5.4320    2.3110    0.6590 C   0  0  2  0  0  0  0  0  0  0  0  0
    6.1050    3.4750    0.3040 O   0  0  0  0  0  0  0  0  0  0  0  0
    1.5690   -3.4270   -0.7550 C   0  0  0  0  0  0  0  0  0  0  0  0
    0.3610   -3.3860   -1.6280 C   0  0  0  0  0  0  0  0  0  0  0  0
   -0.6970   -2.6810   -0.8500 C   0  0  0  0  0  0  0  0  0  0  0  0
   -1.7370   -3.2610   -0.6440 O   0  0  0  0  0  0  0  0  0  0  0  0
   -0.3640   -1.3180   -0.4000 C   0  0  1  0  0  0  0  0  0  0  0  0
   -0.6030   -0.3950   -1.5980 C   0  0  0  0  0  0  0  0  0  0  0  0
   -2.0310   -0.5790   -2.1010 C   0  0  0  0  0  0  0  0  0  0  0  0
   -2.9700    0.0250   -1.1000 C   0  0  1  0  0  0  0  0  0  0  0  0
   -4.2440   -0.7750   -0.9510 C   0  0  0  0  0  0  0  0  0  0  0  0
   -5.2550    0.0720   -0.2010 C   0  0  0  0  0  0  0  0  0  0  0  0
   -4.5170    0.9480    0.6900 N   0  0  0  0  0  0  0  0  0  0  0  0
   -4.9420    2.2860    0.9570 C   0  0  0  0  0  0  0  0  0  0  0  0
   -4.2310    2.9690    1.7470 O   0  0  0  0  0  0  0  0  0  0  0  0
   -6.1470    2.8750    0.3570 C   0  0  0  0  0  0  0  0  0  0  0  0
   -6.3060    4.2930    0.8560 C   0  0  0  0  0  0  0  0  0  0  0  0
   -6.4590    4.1860    2.6770 S   0  0  0  0  0  0  0  0  0  0  0  0
   -3.3230    0.4030    1.3010 C   0  0  0  0  0  0  0  0  0  0  0  0
   -2.2600    0.2330    0.2060 C   0  0  1  0  0  0  0  0  0  0  0  0
   -1.4130   -0.9230    0.6310 C   0  0  1  0  0  0  0  0  0  0  0  0
   -2.2270   -1.9580    1.0130 O   0  0  0  0  0  0  0  0  0  0  0  0
    0.9950   -1.1410    0.1370 C   0  0  0  0  0  0  0  0  0  0  0  0
  1  2  1  0
  3  2  1  1
  3  4  1  0
  3 14  1  0
  3 34  1  0
  4  5  1  1
  4  6  1  0
  6  7  1  0
  8  7  1  1
  8  9  1  0
  8 12  1  0
  9 10  1  0
 10 11  1  0
 11 12  1  0
 12 13  1  6
 14 15  1  0
 15 16  1  0
 16 17  2  0
 16 18  1  0
 18 19  1  6
 18 32  1  0
 18 34  1  0
 19 20  1  0
 21 20  1  6
 21 22  1  0
 21 31  1  0
 22 23  1  0
 23 24  1  0
 24 25  1  0
 24 30  1  0
 25 26  2  0
 25 27  1  0
 27 28  1  0
 28 29  1  0
 31 30  1  1
 31 32  1  0
 32 33  1  6
M  END
