
     RDKit          3D

 35 37  0  0  0  0  0  0  0  0999 V2000
    6.1990   -2.1470    0.2760 N   0  0  0  0  0  0  0  0  0  0  0  0
    5.1200   -2.8760   -0.3180 C   0  0  1  0  0  0  0  0  0  0  0  0
    3.9610   -1.9680   -0.7120 C   0  0  0  0  0  0  0  0  0  0  0  0
    3.4720   -1.2930    0.5430 C   0  0  0  0  0  0  0  0  0  0  0  0
    2.3330   -0.3780    0.2740 C   0  0  0  0  0  0  0  0  0  0  0  0
    1.8430   -0.1900   -0.8480 O   0  0  0  0  0  0  0  0  0  0  0  0
    1.7660    0.3280    1.3680 N   0  0  0  0  0  0  0  0  0  0  0  0
    0.6380    1.2480    1.1990 C   0  0  1  0  0  0  0  0  0  0  0  0
   -0.4460    0.9990    2.1860 C   0  0  0  0  0  0  0  0  0  0  0  0
   -1.2010   -0.5750    2.1920 S   0  0  0  0  0  0  0  0  0  0  0  0
   -2.2290   -1.0790    0.8390 C   0  0  1  0  0  0  0  0  0  0  0  0
   -3.4180   -0.2160    0.7910 C   0  0  0  0  0  0  0  0  0  0  0  0
   -3.7390    0.5870    1.8690 C   0  0  0  0  0  0  0  0  0  0  0  0
   -4.9070    1.3370    1.9200 C   0  0  0  0  0  0  0  0  0  0  0  0
   -5.7520    1.2500    0.8370 C   0  0  0  0  0  0  0  0  0  0  0  0
   -5.4590    0.4580   -0.2540 C   0  0  0  0  0  0  0  0  0  0  0  0
   -4.2720   -0.2840   -0.2750 C   0  0  0  0  0  0  0  0  0  0  0  0
   -3.8650   -1.0550   -1.4660 C   0  0  0  0  0  0  0  0  0  0  0  0
   -4.7990   -1.2400   -2.4580 C   0  0  0  0  0  0  0  0  0  0  0  0
   -4.4520   -2.0950   -3.5100 C   0  0  0  0  0  0  0  0  0  0  0  0
   -3.2240   -2.7140   -3.5310 C   0  0  0  0  0  0  0  0  0  0  0  0
   -2.2940   -2.5190   -2.5320 C   0  0  0  0  0  0  0  0  0  0  0  0
   -2.6340   -1.6680   -1.4860 C   0  0  0  0  0  0  0  0  0  0  0  0
   -1.6300   -1.3070   -0.4560 C   0  0  2  0  0  0  0  0  0  0  0  0
   -0.6160   -2.2730   -0.4760 O   0  0  0  0  0  0  0  0  0  0  0  0
    1.1370    2.6610    1.2660 C   0  0  0  0  0  0  0  0  0  0  0  0
    2.3630    2.8780    1.4440 O   0  0  0  0  0  0  0  0  0  0  0  0
    0.2800    3.7800    1.1370 N   0  0  0  0  0  0  0  0  0  0  0  0
    0.7700    5.1490    1.2030 C   0  0  0  0  0  0  0  0  0  0  0  0
   -0.3220    6.1280    1.0410 C   0  0  0  0  0  0  0  0  0  0  0  0
   -1.5020    5.7800    0.8700 O   0  0  0  0  0  0  0  0  0  0  0  0
    0.0530    7.4810    1.0900 O   0  0  0  0  0  0  0  0  0  0  0  0
    5.6240   -3.6460   -1.4660 C   0  0  0  0  0  0  0  0  0  0  0  0
    4.8280   -4.3480   -2.1130 O   0  0  0  0  0  0  0  0  0  0  0  0
    6.9520   -3.5990   -1.8290 O   0  0  0  0  0  0  0  0  0  0  0  0
  2  1  1  6
  2  3  1  0
  2 33  1  0
  3  4  1  0
  4  5  1  0
  5  6  2  0
  5  7  1  0
  7  8  1  0
  8  9  1  1
  8 26  1  0
  9 10  1  0
 11 10  1  1
 11 12  1  0
 11 24  1  0
 12 13  2  0
 12 17  1  0
 13 14  1  0
 14 15  2  0
 15 16  1  0
 16 17  2  0
 17 18  1  0
 18 19  2  0
 18 23  1  0
 19 20  1  0
 20 21  2  0
 21 22  1  0
 22 23  2  0
 23 24  1  0
 24 25  1  1
 26 27  2  0
 26 28  1  0
 28 29  1  0
 29 30  1  0
 30 31  2  0
 30 32  1  0
 33 34  2  0
 33 35  1  0
M  CHG  1   1   1
M  END
