
     RDKit          3D

 34 37  0  0  0  0  0  0  0  0999 V2000
    7.0290    2.6390   -1.4870 C   0  0  0  0  0  0  0  0  0  0  0  0
    6.2300    2.7520   -0.2280 C   0  0  2  0  0  0  0  0  0  0  0  0
    7.1880    2.9510    0.9290 C   0  0  0  0  0  0  0  0  0  0  0  0
    7.9480    4.1210    0.7530 O   0  0  0  0  0  0  0  0  0  0  0  0
    5.4380    1.4890    0.0700 C   0  0  0  0  0  0  0  0  0  0  0  0
    4.2870    1.0880   -1.2110 S   0  0  0  0  0  0  0  0  0  0  0  0
    3.4090    2.2370   -1.6130 O   0  0  0  0  0  0  0  0  0  0  0  0
    3.3840   -0.3970   -0.7930 C   0  0  2  0  0  0  0  0  0  0  0  0
    4.3370   -1.5420   -0.6300 C   0  0  0  0  0  0  0  0  0  0  0  0
    5.2810   -1.3770    0.3700 O   0  0  0  0  0  0  0  0  0  0  0  0
    2.3220   -0.7000   -1.8430 C   0  0  0  0  0  0  0  0  0  0  0  0
    0.9280   -0.7210   -1.2600 C   0  0  0  0  0  0  0  0  0  0  0  0
    0.9400   -1.6980   -0.1040 C   0  0  2  0  0  0  0  0  0  0  0  0
   -0.4110   -2.0620    0.3480 C   0  0  0  0  0  0  0  0  0  0  0  0
   -0.7660   -3.2640    0.3150 O   0  0  0  0  0  0  0  0  0  0  0  0
   -1.3540   -1.1640    0.8210 O   0  0  0  0  0  0  0  0  0  0  0  0
   -2.6320   -1.4900    1.2510 C   0  0  1  0  0  0  0  0  0  0  0  0
   -3.1850   -0.9250    2.4700 C   0  0  1  0  0  0  0  0  0  0  0  0
   -2.7730    0.3060    3.0990 C   0  0  1  0  0  0  0  0  0  0  0  0
   -1.9650    1.2980    2.4080 C   0  0  0  0  0  0  0  0  0  0  0  0
   -4.0570    0.9400    3.4540 N   0  0  0  0  0  0  0  0  0  0  0  0
   -4.7540    0.8040    2.1640 C   0  0  0  0  0  0  0  0  0  0  0  0
   -4.4450   -0.5400    1.6850 C   0  0  1  0  0  0  0  0  0  0  0  0
   -3.7250   -0.7990    0.4460 C   0  0  1  0  0  0  0  0  0  0  0  0
   -3.2020    0.2860   -0.4020 C   0  0  0  0  0  0  0  0  0  0  0  0
   -3.6180   -0.0900   -1.8310 C   0  0  2  0  0  0  0  0  0  0  0  0
   -2.4640    0.0610   -2.7960 C   0  0  0  0  0  0  0  0  0  0  0  0
   -4.7280    0.8070   -2.3160 C   0  0  0  0  0  0  0  0  0  0  0  0
   -3.9670   -1.4240   -1.7830 O   0  0  0  0  0  0  0  0  0  0  0  0
   -4.4670   -1.6800   -0.5200 C   0  0  2  0  0  0  0  0  0  0  0  0
   -5.9540   -1.3530   -0.5580 C   0  0  0  0  0  0  0  0  0  0  0  0
   -4.3420   -3.1420   -0.2400 C   0  0  0  0  0  0  0  0  0  0  0  0
    1.8220   -1.2100    1.0140 C   0  0  0  0  0  0  0  0  0  0  0  0
    2.6670   -0.0870    0.5260 C   0  0  0  0  0  0  0  0  0  0  0  0
  2  1  1  6
  2  3  1  0
  2  5  1  0
  3  4  1  0
  6  5  1  1
  6  7  2  0
  6  8  1  0
  8  9  1  1
  8 11  1  0
  8 34  1  0
  9 10  1  0
 11 12  1  0
 12 13  1  0
 13 14  1  1
 13 33  1  0
 14 15  2  0
 14 16  1  0
 17 16  1  6
 17 18  1  0
 17 24  1  0
 18 19  1  6
 18 23  1  0
 19 20  1  6
 19 21  1  0
 21 22  1  0
 23 22  1  6
 23 24  1  0
 24 25  1  6
 24 30  1  0
 25 26  1  0
 26 27  1  6
 26 28  1  0
 26 29  1  0
 29 30  1  0
 30 31  1  6
 30 32  1  0
 33 34  1  0
M  END
