
     RDKit          3D

 16 15  0  0  0  0  0  0  0  0999 V2000
   -2.4300   -3.0600   -0.9960 C   0  0  0  0  0  0  0  0  0  0  0  0
   -2.1250   -1.9380   -1.7560 O   0  0  0  0  0  0  0  0  0  0  0  0
   -0.4880   -1.4090   -1.5060 P   0  0  0  0  0  0  0  0  0  0  0  0
    0.5430   -2.6960   -1.0350 O   0  0  0  0  0  0  0  0  0  0  0  0
   -0.5330   -0.1010   -0.2020 C   0  0  2  0  0  0  0  0  0  0  0  0
   -1.5050    0.8410   -0.4050 O   0  0  0  0  0  0  0  0  0  0  0  0
   -2.3970    0.8970    0.5550 O   0  0  0  0  0  0  0  0  0  0  0  0
   -3.3610    1.8650    0.3020 C   0  0  0  0  0  0  0  0  0  0  0  0
   -2.8280    3.1400    0.1830 O   0  0  0  0  0  0  0  0  0  0  0  0
    0.7830    0.6140   -0.0520 C   0  0  2  0  0  0  0  0  0  0  0  0
    0.6220    1.5500    1.1430 C   0  0  0  0  0  0  0  0  0  0  0  0
    1.0880    1.3580   -1.2000 O   0  0  0  0  0  0  0  0  0  0  0  0
    1.9350   -0.3040    0.2290 C   0  0  0  0  0  0  0  0  0  0  0  0
    3.1810    0.5400    0.3550 C   0  0  0  0  0  0  0  0  0  0  0  0
    4.3370   -0.3370    0.6330 C   0  0  0  0  0  0  0  0  0  0  0  0
    5.4400    0.1630    0.7680 O   0  0  0  0  0  0  0  0  0  0  0  0
  1  2  1  0
  2  3  1  0
  3  4  1  0
  3  5  1  0
  5  6  1  6
  5 10  1  0
  6  7  1  0
  7  8  1  0
  8  9  1  0
 10 11  1  1
 10 12  1  0
 10 13  1  0
 13 14  1  0
 14 15  1  0
 15 16  2  0
M  END
