
     RDKit          3D

 16 15  0  0  0  0  0  0  0  0999 V2000
    4.6170    0.0890    0.2990 C   0  0  0  0  0  0  0  0  0  0  0  0
    3.3090    0.1500    0.9410 C   0  0  0  0  0  0  0  0  0  0  0  0
    2.1720   -0.6440    0.2600 C   0  0  0  0  0  0  0  0  0  0  0  0
    1.2830   -0.7210    1.3560 O   0  0  0  0  0  0  0  0  0  0  0  0
   -0.1300    0.1480    1.2320 P   0  0  0  0  0  0  0  0  0  0  0  0
    0.3460    1.7420    0.6040 O   0  0  0  0  0  0  0  0  0  0  0  0
   -1.4280   -0.5050    0.1250 C   0  0  1  0  0  0  0  0  0  0  0  0
   -0.9470   -0.4270   -1.1510 O   0  0  0  0  0  0  0  0  0  0  0  0
   -1.8980   -1.8230    0.5560 C   0  0  0  0  0  0  0  0  0  0  0  0
   -1.9390   -2.9090   -0.4640 C   0  0  0  0  0  0  0  0  0  0  0  0
   -2.2490   -2.0310    1.6690 O   0  0  0  0  0  0  0  0  0  0  0  0
   -2.5750    0.4990    0.2170 C   0  0  0  0  0  0  0  0  0  0  0  0
   -3.4930    0.2460    0.8980 O   0  0  0  0  0  0  0  0  0  0  0  0
   -2.4730    1.7380   -0.5330 C   0  0  0  0  0  0  0  0  0  0  0  0
   -3.5630    2.5610   -0.0510 O   0  0  0  0  0  0  0  0  0  0  0  0
   -2.8880    3.5090    0.6440 O   0  0  0  0  0  0  0  0  0  0  0  0
  1  2  1  0
  2  3  1  0
  3  4  1  0
  4  5  1  0
  5  6  1  0
  5  7  1  0
  7  8  1  6
  7  9  1  0
  7 12  1  0
  9 10  1  0
  9 11  2  0
 12 13  2  0
 12 14  1  0
 14 15  1  0
 15 16  1  0
M  END
