
     RDKit          3D

 15 14  0  0  0  0  0  0  0  0999 V2000
   -2.0260   -1.4510    0.8430 C   0  0  0  0  0  0  0  0  0  0  0  0
   -2.0790   -0.3580   -0.2120 C   0  0  1  0  0  0  0  0  0  0  0  0
   -2.6760    0.8310    0.5400 C   0  0  0  0  0  0  0  0  0  0  0  0
   -0.8180   -0.0800   -0.8510 C   0  0  0  0  0  0  0  0  0  0  0  0
    0.3240    0.5490   -0.0110 C   0  0  1  0  0  0  0  0  0  0  0  0
    1.2900    0.6520   -1.0230 O   0  0  0  0  0  0  0  0  0  0  0  0
    2.2130   -0.2630   -1.0260 C   0  0  0  0  0  0  0  0  0  0  0  0
    2.9950   -0.5700    0.2210 C   0  0  0  0  0  0  0  0  0  0  0  0
    3.9660   -1.5090   -0.2190 O   0  0  0  0  0  0  0  0  0  0  0  0
    5.1350   -0.8590    0.1780 O   0  0  0  0  0  0  0  0  0  0  0  0
    0.0190    1.9530    0.2580 C   0  0  0  0  0  0  0  0  0  0  0  0
   -0.3320    2.4730    1.2720 O   0  0  0  0  0  0  0  0  0  0  0  0
    0.1480    2.9060   -0.8420 O   0  0  0  0  0  0  0  0  0  0  0  0
   -3.3180   -0.8500   -1.4960 P   0  0  0  0  0  0  0  0  0  0  0  0
   -4.7680   -1.0930   -1.0920 O   0  0  0  0  0  0  0  0  0  0  0  0
  2  1  1  1
  2  3  1  0
  2  4  1  0
  2 14  1  0
  5  4  1  6
  5  6  1  0
  5 11  1  0
  6  7  1  0
  7  8  1  0
  8  9  1  0
  9 10  1  0
 11 12  2  0
 11 13  1  0
 14 15  2  0
M  END
