
     RDKit          3D

 16 15  0  0  0  0  0  0  0  0999 V2000
    4.2900    1.3780    0.0780 C   0  0  0  0  0  0  0  0  0  0  0  0
    3.2950    0.3310   -0.5040 C   0  0  0  0  0  0  0  0  0  0  0  0
    2.5080   -0.0890    0.6240 O   0  0  0  0  0  0  0  0  0  0  0  0
    0.9610    0.4180    0.5000 P   0  0  0  0  0  0  0  0  0  0  0  0
    0.6910    1.7910    1.6240 O   0  0  0  0  0  0  0  0  0  0  0  0
   -0.5220   -0.2480   -0.0990 C   0  0  2  0  0  0  0  0  0  0  0  0
   -1.5210   -0.0710    0.8350 O   0  0  0  0  0  0  0  0  0  0  0  0
   -2.6810    0.2640    0.6650 O   0  0  0  0  0  0  0  0  0  0  0  0
   -2.8720    1.6470    0.8720 C   0  0  0  0  0  0  0  0  0  0  0  0
   -4.2900    1.9920    0.6090 C   0  0  0  0  0  0  0  0  0  0  0  0
   -4.6700    3.1400    0.6620 O   0  0  0  0  0  0  0  0  0  0  0  0
   -0.6250   -1.7800   -0.3920 C   0  0  2  0  0  0  0  0  0  0  0  0
    0.2800   -2.2880   -1.3820 C   0  0  0  0  0  0  0  0  0  0  0  0
   -1.9700   -1.8190   -0.8700 O   0  0  0  0  0  0  0  0  0  0  0  0
   -0.6500   -2.4710    0.9380 C   0  0  0  0  0  0  0  0  0  0  0  0
   -1.7050   -2.3740    1.5900 O   0  0  0  0  0  0  0  0  0  0  0  0
  1  2  1  0
  2  3  1  0
  3  4  1  0
  4  5  1  0
  4  6  1  0
  6  7  1  1
  6 12  1  0
  7  8  1  0
  8  9  1  0
  9 10  1  0
 10 11  2  0
 12 13  1  6
 12 14  1  0
 12 15  1  0
 15 16  2  0
M  END
