
     RDKit          3D

 16 15  0  0  0  0  0  0  0  0999 V2000
   -3.6360   -0.8610   -0.3480 C   0  0  0  0  0  0  0  0  0  0  0  0
   -2.6120    0.2420   -0.1210 C   0  0  0  0  0  0  0  0  0  0  0  0
   -1.3970   -0.3280    0.3060 O   0  0  0  0  0  0  0  0  0  0  0  0
   -0.5500    0.6330    0.4900 O   0  0  0  0  0  0  0  0  0  0  0  0
    0.7020    0.4160   -0.0180 C   0  0  1  0  0  0  0  0  0  0  0  0
    0.7180    0.1930   -1.5150 C   0  0  0  0  0  0  0  0  0  0  0  0
   -0.2680   -1.2480   -2.0520 P   0  0  0  0  0  0  0  0  0  0  0  0
   -0.5880   -2.4840   -1.2060 O   0  0  0  0  0  0  0  0  0  0  0  0
    1.5540    1.5990    0.2580 C   0  0  0  0  0  0  0  0  0  0  0  0
    1.0140    2.7770    0.9840 C   0  0  0  0  0  0  0  0  0  0  0  0
    2.7340    1.6660   -0.0940 O   0  0  0  0  0  0  0  0  0  0  0  0
    1.3480   -0.7990    0.5890 C   0  0  0  0  0  0  0  0  0  0  0  0
    0.7420   -1.4790    1.4550 O   0  0  0  0  0  0  0  0  0  0  0  0
    2.6140   -1.1990    0.2180 O   0  0  0  0  0  0  0  0  0  0  0  0
    3.2250   -2.3180    0.7690 C   0  0  0  0  0  0  0  0  0  0  0  0
    2.6100   -3.0090    1.6480 O   0  0  0  0  0  0  0  0  0  0  0  0
  1  2  1  0
  2  3  1  0
  3  4  1  0
  4  5  1  0
  5  6  1  6
  5  9  1  0
  5 12  1  0
  6  7  1  0
  7  8  2  0
  9 10  1  0
  9 11  2  0
 12 13  2  0
 12 14  1  0
 14 15  1  0
 15 16  2  0
M  END
