
     RDKit          3D

 16 16  0  0  0  0  0  0  0  0999 V2000
    3.5160   -1.3080   -0.8190 C   0  0  0  0  0  0  0  0  0  0  0  0
    2.1610   -1.0640   -0.8290 O   0  0  0  0  0  0  0  0  0  0  0  0
    1.6500   -0.7810    0.3270 O   0  0  0  0  0  0  0  0  0  0  0  0
    0.5480    0.0660    0.2390 C   0  0  1  0  0  0  0  0  0  0  0  0
    1.0100    1.3230   -0.4040 C   0  0  0  0  0  0  0  0  0  0  0  0
    0.1440    2.2210   -0.5710 O   0  0  0  0  0  0  0  0  0  0  0  0
    2.2990    1.5450   -0.8140 O   0  0  0  0  0  0  0  0  0  0  0  0
   -0.6190   -0.5600   -0.4380 C   0  0  0  0  0  0  0  0  0  0  0  0
   -1.8570   -0.1440    0.2880 C   0  0  1  0  0  0  0  0  0  0  0  0
   -2.8510    0.5550   -0.6090 C   0  0  0  0  0  0  0  0  0  0  0  0
   -2.7360   -1.5960    1.0650 P   0  0  0  0  0  0  0  0  0  0  0  0
   -4.1640   -1.3350    1.6180 O   0  0  0  0  0  0  0  0  0  0  0  0
   -1.3870    0.7170    1.3910 C   0  0  0  0  0  0  0  0  0  0  0  0
   -2.0930    1.5290    2.0350 O   0  0  0  0  0  0  0  0  0  0  0  0
    0.0190    0.4370    1.5670 C   0  0  0  0  0  0  0  0  0  0  0  0
    0.6960    0.4850    2.6180 O   0  0  0  0  0  0  0  0  0  0  0  0
  1  2  1  0
  2  3  1  0
  4  3  1  1
  4  5  1  0
  4  8  1  0
  4 15  1  0
  5  6  2  0
  5  7  1  0
  8  9  1  0
  9 10  1  6
  9 11  1  0
  9 13  1  0
 11 12  2  0
 13 14  2  0
 13 15  1  0
 15 16  2  0
M  END
