
     RDKit          3D

 23 25  0  0  0  0  0  0  0  0999 V2000
   -5.8560    2.0770    0.1670 N   0  0  0  0  0  0  0  0  0  0  0  0
   -4.6350    1.5250   -0.3050 C   0  0  0  0  0  0  0  0  0  0  0  0
   -4.2520    1.6620   -1.5940 N   0  0  0  0  0  0  0  0  0  0  0  0
   -3.0930    1.1410   -2.0540 C   0  0  0  0  0  0  0  0  0  0  0  0
   -2.2670    0.4580   -1.2390 N   0  0  0  0  0  0  0  0  0  0  0  0
   -2.5830    0.2830    0.0520 C   0  0  0  0  0  0  0  0  0  0  0  0
   -3.7700    0.8190    0.5120 C   0  0  0  0  0  0  0  0  0  0  0  0
   -3.8190    0.4940    1.8090 N   0  0  0  0  0  0  0  0  0  0  0  0
   -2.7180   -0.2080    2.1310 C   0  0  0  0  0  0  0  0  0  0  0  0
   -1.9350   -0.3500    1.0470 N   0  0  0  0  0  0  0  0  0  0  0  0
   -0.6670   -1.0420    0.9920 C   0  0  2  0  0  0  0  0  0  0  0  0
    0.4140   -0.1590    0.9980 O   0  0  0  0  0  0  0  0  0  0  0  0
    1.4540   -0.9980    0.6990 C   0  0  2  0  0  0  0  0  0  0  0  0
    2.7810   -0.3300    0.5390 C   0  0  0  0  0  0  0  0  0  0  0  0
    2.8110    0.6070   -0.4580 O   0  0  0  0  0  0  0  0  0  0  0  0
    4.3150    1.2580   -0.5240 P   0  0  0  0  0  0  0  0  0  0  0  0
    4.7710    0.1990   -1.5310 O   0  0  0  0  0  0  0  0  0  0  0  0
    4.5860    2.4710   -1.6220 O   0  0  0  0  0  0  0  0  0  0  0  0
    3.9270    2.3370    0.4910 O   0  0  0  0  0  0  0  0  0  0  0  0
    0.9820   -1.7040   -0.5400 C   0  0  1  0  0  0  0  0  0  0  0  0
    1.6350   -2.9080   -0.6380 O   0  0  0  0  0  0  0  0  0  0  0  0
   -0.5090   -1.8880   -0.2240 C   0  0  1  0  0  0  0  0  0  0  0  0
   -0.6770   -3.2480    0.0800 O   0  0  0  0  0  0  0  0  0  0  0  0
  1  2  1  0
  2  3  2  0
  2  7  1  0
  3  4  1  0
  4  5  2  0
  5  6  1  0
  6  7  2  0
  6 10  1  0
  7  8  1  0
  8  9  2  0
  9 10  1  0
 11 10  1  6
 11 12  1  0
 11 22  1  0
 12 13  1  0
 13 14  1  6
 13 20  1  0
 14 15  1  0
 15 16  1  0
 16 17  1  0
 16 18  1  0
 16 19  1  0
 20 21  1  1
 20 22  1  0
 22 23  1  1
M  END
