
     RDKit          3D

 16 16  0  0  0  0  0  0  0  0999 V2000
    4.4940    0.0770   -0.0890 C   0  0  0  0  0  0  0  0  0  0  0  0
    3.1190   -0.0990   -0.2480 O   0  0  0  0  0  0  0  0  0  0  0  0
    2.8030   -1.2850    0.2260 O   0  0  0  0  0  0  0  0  0  0  0  0
    1.4970   -1.4320    0.2760 O   0  0  0  0  0  0  0  0  0  0  0  0
    0.9270   -0.1750    0.1030 C   0  0  0  0  0  0  0  0  0  0  0  0
   -0.5540   -0.2290    0.1440 C   0  0  0  0  0  0  0  0  0  0  0  0
   -1.2140    0.1790   -0.9250 C   0  0  0  0  0  0  0  0  0  0  0  0
   -0.5550    0.6410   -2.0480 O   0  0  0  0  0  0  0  0  0  0  0  0
   -0.0450    2.3240   -2.1090 P   0  0  0  0  0  0  0  0  0  0  0  0
   -1.1440    3.4170   -1.9630 O   0  0  0  0  0  0  0  0  0  0  0  0
   -2.6680    0.1440   -0.9310 C   0  0  0  0  0  0  0  0  0  0  0  0
   -3.2760    0.5880   -1.9370 O   0  0  0  0  0  0  0  0  0  0  0  0
   -3.4860   -0.3850    0.1800 C   0  0  0  0  0  0  0  0  0  0  0  0
   -2.6510   -0.5590    1.3970 C   0  0  0  0  0  0  0  0  0  0  0  0
   -3.2180   -0.5550    2.4800 O   0  0  0  0  0  0  0  0  0  0  0  0
   -1.1920   -0.7340    1.3750 C   0  0  0  0  0  0  0  0  0  0  0  0
  1  2  1  0
  2  3  1  0
  3  4  1  0
  4  5  1  0
  5  6  1  0
  6  7  2  0
  6 16  1  0
  7  8  1  0
  7 11  1  0
  8  9  1  0
  9 10  2  0
 11 12  2  0
 11 13  1  0
 13 14  1  0
 14 15  2  0
 14 16  1  0
M  END
