
     RDKit          3D

 15 14  0  0  0  0  0  0  0  0999 V2000
    4.5750    0.5940   -0.4900 C   0  0  0  0  0  0  0  0  0  0  0  0
    3.5780   -0.3460    0.1480 C   0  0  0  0  0  0  0  0  0  0  0  0
    2.2410    0.2570    0.1130 C   0  0  0  0  0  0  0  0  0  0  0  0
    2.0770    1.3590   -0.3820 O   0  0  0  0  0  0  0  0  0  0  0  0
    0.7490   -0.5610    0.7880 P   0  0  0  0  0  0  0  0  0  0  0  0
   -0.7580    0.0380   -0.0790 C   0  0  1  0  0  0  0  0  0  0  0  0
   -0.4130    0.7310   -1.3990 C   0  0  0  0  0  0  0  0  0  0  0  0
   -1.6770   -1.1300   -0.4550 C   0  0  0  0  0  0  0  0  0  0  0  0
   -2.0470   -1.7820    0.6980 O   0  0  0  0  0  0  0  0  0  0  0  0
   -2.8910   -2.8490    0.3240 C   0  0  0  0  0  0  0  0  0  0  0  0
   -1.4680    0.9920    0.8100 C   0  0  0  0  0  0  0  0  0  0  0  0
   -1.0200    1.2810    1.9720 O   0  0  0  0  0  0  0  0  0  0  0  0
   -2.6490    1.6290    0.4550 O   0  0  0  0  0  0  0  0  0  0  0  0
   -3.2540    2.4840    1.2920 O   0  0  0  0  0  0  0  0  0  0  0  0
   -2.5810    3.6060    1.4320 O   0  0  0  0  0  0  0  0  0  0  0  0
  1  2  1  0
  2  3  1  0
  3  4  2  0
  3  5  1  0
  5  6  1  0
  6  7  1  6
  6  8  1  0
  6 11  1  0
  8  9  1  0
  9 10  1  0
 11 12  2  0
 11 13  1  0
 13 14  1  0
 14 15  1  0
M  END
