
     RDKit          3D

 16 15  0  0  0  0  0  0  0  0999 V2000
    3.0980   -1.2410   -1.2970 C   0  0  0  0  0  0  0  0  0  0  0  0
    1.9780   -0.2940   -0.9280 C   0  0  0  0  0  0  0  0  0  0  0  0
    1.6320   -0.4330    0.4160 O   0  0  0  0  0  0  0  0  0  0  0  0
    0.6060    0.4490    0.7150 C   0  0  1  0  0  0  0  0  0  0  0  0
    0.1380    0.2920    2.1330 C   0  0  0  0  0  0  0  0  0  0  0  0
    1.0320    1.7570    0.4720 O   0  0  0  0  0  0  0  0  0  0  0  0
    2.1180    2.0780    1.2400 C   0  0  0  0  0  0  0  0  0  0  0  0
   -0.8390    0.0470   -0.4010 P   0  0  0  0  0  0  0  0  0  0  0  0
   -1.7970   -1.1720    0.4350 O   0  0  0  0  0  0  0  0  0  0  0  0
   -2.4780   -2.1780   -0.2440 C   0  0  0  0  0  0  0  0  0  0  0  0
   -3.2860   -3.2050    0.4840 C   0  0  0  0  0  0  0  0  0  0  0  0
   -2.3790   -2.1800   -1.4960 O   0  0  0  0  0  0  0  0  0  0  0  0
   -1.8370    1.5050   -0.4680 O   0  0  0  0  0  0  0  0  0  0  0  0
   -1.8610    2.3390   -1.5700 C   0  0  0  0  0  0  0  0  0  0  0  0
   -1.1370    2.0310   -2.5510 O   0  0  0  0  0  0  0  0  0  0  0  0
   -2.6580    3.4760   -1.5850 O   0  0  0  0  0  0  0  0  0  0  0  0
  1  2  1  0
  2  3  1  0
  3  4  1  0
  4  5  1  1
  4  6  1  0
  4  8  1  0
  6  7  1  0
  8  9  1  0
  8 13  1  0
  9 10  1  0
 10 11  1  0
 10 12  2  0
 13 14  1  0
 14 15  2  0
 14 16  1  0
M  END
