
     RDKit          3D

 39 42  0  0  0  0  0  0  0  0999 V2000
   -5.2740    4.8910   -2.9900 N   0  0  0  0  0  0  0  0  0  0  0  0
   -3.9760    4.3580   -2.7380 C   0  0  0  0  0  0  0  0  0  0  0  0
   -3.0980    4.3710   -3.6540 N   0  0  0  0  0  0  0  0  0  0  0  0
   -3.6640    3.7980   -1.4150 C   0  0  0  0  0  0  0  0  0  0  0  0
   -4.6900    3.8150   -0.4610 C   0  0  0  0  0  0  0  0  0  0  0  0
   -4.4110    3.2970    0.7800 C   0  0  0  0  0  0  0  0  0  0  0  0
   -3.1860    2.7850    1.0770 C   0  0  0  0  0  0  0  0  0  0  0  0
   -2.1950    2.7730    0.1410 C   0  0  0  0  0  0  0  0  0  0  0  0
   -0.8240    2.1940    0.4690 C   0  0  0  0  0  0  0  0  0  0  0  0
   -0.7290    0.7820    0.0680 C   0  0  2  0  0  0  0  0  0  0  0  0
   -1.7290   -0.0270    0.7470 N   0  0  0  0  0  0  0  0  0  0  0  0
   -2.9930   -0.6100   -0.1820 S   0  0  1  0  0  0  0  0  0  0  0  0
   -4.2970   -0.1500    0.4750 O   0  0  0  0  0  0  0  0  0  0  0  0
   -3.0130   -0.0850   -1.5950 O   0  0  0  0  0  0  0  0  0  0  0  0
   -3.1270   -2.3430   -0.3060 C   0  0  0  0  0  0  0  0  0  0  0  0
   -2.1200   -3.1850    0.0840 C   0  0  0  0  0  0  0  0  0  0  0  0
   -2.2170   -4.5660   -0.0340 C   0  0  0  0  0  0  0  0  0  0  0  0
   -3.3660   -5.1250   -0.5620 C   0  0  0  0  0  0  0  0  0  0  0  0
   -3.4970   -6.4980   -0.6960 C   0  0  0  0  0  0  0  0  0  0  0  0
   -4.6620   -7.0000   -1.2290 C   0  0  0  0  0  0  0  0  0  0  0  0
   -5.7050   -6.1950   -1.6340 C   0  0  0  0  0  0  0  0  0  0  0  0
   -5.5770   -4.8320   -1.5020 C   0  0  0  0  0  0  0  0  0  0  0  0
   -4.4000   -4.3100   -0.9640 C   0  0  0  0  0  0  0  0  0  0  0  0
   -4.2650   -2.9430   -0.8310 C   0  0  0  0  0  0  0  0  0  0  0  0
    0.5580    0.1500   -0.1440 C   0  0  0  0  0  0  0  0  0  0  0  0
    0.5100   -1.0930   -0.5430 O   0  0  0  0  0  0  0  0  0  0  0  0
    1.8790    0.6100   -0.0060 N   0  0  0  0  0  0  0  0  0  0  0  0
    2.1470    1.9260    0.4910 C   0  0  0  0  0  0  0  0  0  0  0  0
    3.5700    2.0490    1.0900 C   0  0  0  0  0  0  0  0  0  0  0  0
    3.8970    0.6670    1.5780 C   0  0  2  0  0  0  0  0  0  0  0  0
    4.8560    0.5950    2.6900 C   0  0  0  0  0  0  0  0  0  0  0  0
    6.2060    1.1670    2.5050 C   0  0  0  0  0  0  0  0  0  0  0  0
    6.8990    0.5220    1.4210 N   0  0  0  0  0  0  0  0  0  0  0  0
    7.3370   -0.6860    1.4520 C   0  0  0  0  0  0  0  0  0  0  0  0
    7.1820   -1.5340    2.5750 N   0  0  0  0  0  0  0  0  0  0  0  0
    8.0100   -1.1570    0.2620 N   0  0  0  0  0  0  0  0  0  0  0  0
    4.2230   -0.1400    0.3470 C   0  0  0  0  0  0  0  0  0  0  0  0
    2.9460   -0.3080   -0.4110 C   0  0  0  0  0  0  0  0  0  0  0  0
   -2.4270    3.2810   -1.1140 C   0  0  0  0  0  0  0  0  0  0  0  0
  1  2  1  0
  2  3  2  0
  2  4  1  0
  4  5  2  0
  4 39  1  0
  5  6  1  0
  6  7  2  0
  7  8  1  0
  8  9  1  0
  8 39  2  0
 10  9  1  1
 10 11  1  0
 10 25  1  0
 12 11  1  1
 12 13  2  0
 12 14  2  0
 12 15  1  0
 15 16  2  0
 15 24  1  0
 16 17  1  0
 17 18  2  0
 18 19  1  0
 18 23  1  0
 19 20  2  0
 20 21  1  0
 21 22  2  0
 22 23  1  0
 23 24  2  0
 25 26  2  0
 25 27  1  0
 27 28  1  0
 27 38  1  0
 28 29  1  0
 29 30  1  0
 30 31  1  1
 30 37  1  0
 31 32  1  0
 32 33  1  0
 33 34  2  3
 34 35  1  0
 34 36  1  0
 37 38  1  0
M  CHG  2   3   1  33   1
M  END
