
     RDKit          3D

 39 43  0  0  0  0  0  0  0  0999 V2000
   -4.1740   -0.4550   -1.4180 C   0  0  0  0  0  0  0  0  0  0  0  0
   -4.3320    0.6230   -0.3300 C   0  0  0  0  0  0  0  0  0  0  0  0
   -3.3230    1.5010   -0.1580 C   0  0  0  0  0  0  0  0  0  0  0  0
   -1.9420    1.6860   -0.5430 C   0  0  0  0  0  0  0  0  0  0  0  0
   -1.4080    2.8700   -0.2920 O   0  0  0  0  0  0  0  0  0  0  0  0
   -1.0620    0.8170   -1.1360 N   0  0  0  0  0  0  0  0  0  0  0  0
    0.1620    1.4380   -1.7510 C   0  0  0  0  0  0  0  0  0  0  0  0
    1.5110    1.5710   -0.6010 S   0  0  0  0  0  0  0  0  0  0  0  0
    2.1880    0.0000   -0.0810 C   0  0  0  0  0  0  0  0  0  0  0  0
    3.3300    0.2350    0.8490 C   0  0  0  0  0  0  0  0  0  0  0  0
    3.9200   -0.7760    1.3020 O   0  0  0  0  0  0  0  0  0  0  0  0
    3.7690    1.4850    1.2350 O   0  0  0  0  0  0  0  0  0  0  0  0
    4.8800    1.5940    2.1350 C   0  0  0  0  0  0  0  0  0  0  0  0
    6.0490    0.9340    1.4550 C   0  0  0  0  0  0  0  0  0  0  0  0
    6.2370    1.2830    0.1350 C   0  0  0  0  0  0  0  0  0  0  0  0
    7.2840    0.7150   -0.5350 C   0  0  0  0  0  0  0  0  0  0  0  0
    8.1390   -0.1870    0.0890 C   0  0  0  0  0  0  0  0  0  0  0  0
    9.2450   -0.8930   -0.3350 C   0  0  0  0  0  0  0  0  0  0  0  0
    9.6590   -1.6210    0.7420 C   0  0  0  0  0  0  0  0  0  0  0  0
    8.8660   -1.3800    1.7530 O   0  0  0  0  0  0  0  0  0  0  0  0
    7.9300   -0.5200    1.4090 C   0  0  0  0  0  0  0  0  0  0  0  0
    6.8680    0.0510    2.0990 C   0  0  0  0  0  0  0  0  0  0  0  0
   -1.1120   -0.5930   -1.3040 C   0  0  0  0  0  0  0  0  0  0  0  0
   -1.0590   -1.1050   -2.5780 C   0  0  0  0  0  0  0  0  0  0  0  0
   -1.0740   -2.4850   -2.8110 C   0  0  0  0  0  0  0  0  0  0  0  0
   -1.1420   -3.3630   -1.7550 C   0  0  0  0  0  0  0  0  0  0  0  0
   -1.1940   -2.8360   -0.4830 C   0  0  0  0  0  0  0  0  0  0  0  0
   -1.1800   -1.4710   -0.2420 C   0  0  0  0  0  0  0  0  0  0  0  0
   -1.2300   -0.9450    0.9970 F   0  0  0  0  0  0  0  0  0  0  0  0
   -4.0250    2.6350    1.0640 S   0  0  0  0  0  0  0  0  0  0  0  0
   -5.5820    1.8270    1.2300 C   0  0  0  0  0  0  0  0  0  0  0  0
   -6.6570    2.1150    2.0070 N   0  0  0  0  0  0  0  0  0  0  0  0
   -7.7260    1.3340    1.9610 C   0  0  0  0  0  0  0  0  0  0  0  0
   -9.0420    1.6420    2.8780 S   0  0  0  0  0  0  0  0  0  0  0  0
   -7.6820    0.2820    1.1320 N   0  0  0  0  0  0  0  0  0  0  0  0
   -8.8760   -0.5540    1.1040 C   0  0  0  0  0  0  0  0  0  0  0  0
   -6.6360   -0.0350    0.3480 C   0  0  0  0  0  0  0  0  0  0  0  0
   -6.7600   -1.0390   -0.3550 O   0  0  0  0  0  0  0  0  0  0  0  0
   -5.4790    0.7890    0.3800 C   0  0  0  0  0  0  0  0  0  0  0  0
  1  2  1  0
  2  3  2  0
  2 39  1  0
  3  4  1  0
  3 30  1  0
  4  5  2  0
  4  6  1  0
  6  7  1  0
  6 23  1  0
  7  8  1  0
  8  9  1  0
  9 10  1  0
 10 11  2  0
 10 12  1  0
 12 13  1  0
 13 14  1  0
 14 15  2  0
 14 22  1  0
 15 16  1  0
 16 17  2  0
 17 18  1  0
 17 21  1  0
 18 19  2  0
 19 20  1  0
 20 21  1  0
 21 22  2  0
 23 24  2  0
 23 28  1  0
 24 25  1  0
 25 26  2  0
 26 27  1  0
 27 28  2  0
 28 29  1  0
 30 31  1  0
 31 32  1  0
 31 39  2  0
 32 33  1  0
 33 34  2  0
 33 35  1  0
 35 36  1  0
 35 37  1  0
 37 38  2  0
 37 39  1  0
M  END
