
     RDKit          3D

 39 40  0  0  0  0  0  0  0  0999 V2000
   -3.2310    6.0040   -2.3370 C   0  0  0  0  0  0  0  0  0  0  0  0
   -3.5760    4.7970   -2.7230 C   0  0  0  0  0  0  0  0  0  0  0  0
   -2.9490    3.5700   -2.1730 C   0  0  0  0  0  0  0  0  0  0  0  0
   -4.0410    2.7560   -1.5190 C   0  0  0  0  0  0  0  0  0  0  0  0
   -3.5920    1.5650   -0.9500 O   0  0  0  0  0  0  0  0  0  0  0  0
   -4.5130    0.7450   -0.3240 C   0  0  0  0  0  0  0  0  0  0  0  0
   -5.8500    1.0650   -0.2460 C   0  0  0  0  0  0  0  0  0  0  0  0
   -6.7720    0.2540    0.3760 C   0  0  0  0  0  0  0  0  0  0  0  0
   -6.2950   -0.9050    0.9240 C   0  0  0  0  0  0  0  0  0  0  0  0
   -4.9360   -1.2720    0.8670 C   0  0  0  0  0  0  0  0  0  0  0  0
   -4.0300   -0.4440    0.2390 C   0  0  0  0  0  0  0  0  0  0  0  0
   -2.6610   -0.7240    0.1300 N   0  0  0  0  0  0  0  0  0  0  0  0
   -1.9390   -1.8360    0.6340 C   0  0  0  0  0  0  0  0  0  0  0  0
   -2.6110   -2.6710    1.2490 O   0  0  0  0  0  0  0  0  0  0  0  0
   -0.4560   -1.9570    0.4170 C   0  0  0  0  0  0  0  0  0  0  0  0
    0.2310   -2.9660    0.8630 C   0  0  0  0  0  0  0  0  0  0  0  0
   -0.3880   -4.0340    1.5810 N   0  0  0  0  0  0  0  0  0  0  0  0
    0.2920   -5.1870    2.0820 C   0  0  0  0  0  0  0  0  0  0  0  0
    1.5020   -5.3480    1.8870 O   0  0  0  0  0  0  0  0  0  0  0  0
   -0.4030   -6.1950    2.8240 N   0  0  0  0  0  0  0  0  0  0  0  0
    0.2790   -7.3690    3.3350 C   0  0  0  0  0  0  0  0  0  0  0  0
    1.7060   -3.0500    0.7670 C   0  0  0  0  0  0  0  0  0  0  0  0
    2.4220   -1.7890    0.4380 C   0  0  2  0  0  0  0  0  0  0  0  0
    3.7220   -2.0930   -0.3240 C   0  0  0  0  0  0  0  0  0  0  0  0
    2.8930   -1.1970    1.7810 C   0  0  0  0  0  0  0  0  0  0  0  0
    1.6500   -0.7470   -0.2350 C   0  0  2  0  0  0  0  0  0  0  0  0
    1.9530    0.6090    0.3500 C   0  0  0  0  0  0  0  0  0  0  0  0
    1.0850    1.2770    0.9680 O   0  0  0  0  0  0  0  0  0  0  0  0
    3.2480    1.1770    0.2140 N   0  0  0  0  0  0  0  0  0  0  0  0
    3.5010    2.4940    0.7920 C   0  0  0  0  0  0  0  0  0  0  0  0
    4.9490    2.9050    0.5290 C   0  0  0  0  0  0  0  0  0  0  0  0
    5.2580    4.2540    1.0980 C   0  0  0  0  0  0  0  0  0  0  0  0
    4.3780    5.3160    0.4860 C   0  0  0  0  0  0  0  0  0  0  0  0
    4.6280    5.3260   -0.9990 C   0  0  0  0  0  0  0  0  0  0  0  0
    0.1840   -0.8910   -0.3810 C   0  0  1  0  0  0  0  0  0  0  0  0
   -0.2180   -0.8550   -1.8180 C   0  0  0  0  0  0  0  0  0  0  0  0
   -0.9710   -1.6070   -2.5380 C   0  0  0  0  0  0  0  0  0  0  0  0
   -1.7390   -2.8230   -2.2010 C   0  0  0  0  0  0  0  0  0  0  0  0
   -1.1310   -1.2000   -4.0120 C   0  0  0  0  0  0  0  0  0  0  0  0
  1  2  2  0
  2  3  1  0
  3  4  1  0
  4  5  1  0
  5  6  1  0
  6  7  2  0
  6 11  1  0
  7  8  1  0
  8  9  2  0
  9 10  1  0
 10 11  2  0
 11 12  1  0
 12 13  1  0
 13 14  2  0
 13 15  1  0
 15 16  2  0
 15 35  1  0
 16 17  1  0
 16 22  1  0
 17 18  1  0
 18 19  2  0
 18 20  1  0
 20 21  1  0
 22 23  1  0
 23 24  1  6
 23 25  1  0
 23 26  1  0
 26 27  1  1
 26 35  1  0
 27 28  2  0
 27 29  1  0
 29 30  1  0
 30 31  1  0
 31 32  1  0
 32 33  1  0
 33 34  1  0
 35 36  1  6
 36 37  2  3
 37 38  1  0
 37 39  1  0
M  END
