
     RDKit          3D

 38 42  0  0  0  0  0  0  0  0999 V2000
    3.8260   -4.7490    0.7740 C   0  0  0  0  0  0  0  0  0  0  0  0
    4.4300   -3.8680   -0.1610 O   0  0  0  0  0  0  0  0  0  0  0  0
    4.0070   -2.4500   -0.0700 C   0  0  0  0  0  0  0  0  0  0  0  0
    4.5370   -1.8610    0.9010 C   0  0  0  0  0  0  0  0  0  0  0  0
    4.6760   -0.6630    1.6460 C   0  0  0  0  0  0  0  0  0  0  0  0
    5.6060   -0.8200    2.6310 O   0  0  0  0  0  0  0  0  0  0  0  0
    4.1030    0.5950    1.6050 N   0  0  0  0  0  0  0  0  0  0  0  0
    3.0000    1.0050    0.8200 C   0  0  0  0  0  0  0  0  0  0  0  0
    3.3960    1.8760   -0.3480 C   0  0  0  0  0  0  0  0  0  0  0  0
    4.3100    3.3280    0.2530 S   0  0  0  0  0  0  0  0  0  0  0  0
    4.8780    2.9630    1.9060 C   0  0  0  0  0  0  0  0  0  0  0  0
    5.4700    3.7220    2.8330 C   0  0  0  0  0  0  0  0  0  0  0  0
    5.7570    5.0260    2.6290 F   0  0  0  0  0  0  0  0  0  0  0  0
    5.7300    2.8990    3.9990 C   0  0  0  0  0  0  0  0  0  0  0  0
    6.2750    3.2620    5.0730 O   0  0  0  0  0  0  0  0  0  0  0  0
    5.2290    1.5750    3.6650 C   0  0  0  0  0  0  0  0  0  0  0  0
    4.7300    1.6280    2.4310 C   0  0  0  0  0  0  0  0  0  0  0  0
    3.1060   -2.1250   -1.1310 C   0  0  0  0  0  0  0  0  0  0  0  0
    2.5660   -3.0460   -2.0740 C   0  0  0  0  0  0  0  0  0  0  0  0
    1.7570   -2.3620   -2.9300 C   0  0  0  0  0  0  0  0  0  0  0  0
    1.8000   -1.0510   -2.5180 C   0  0  0  0  0  0  0  0  0  0  0  0
    1.0980    0.1240   -3.1020 C   0  0  0  0  0  0  0  0  0  0  0  0
   -0.2520    0.1230   -2.5860 N   0  0  0  0  0  0  0  0  0  0  0  0
   -0.5820    0.8200   -1.3470 C   0  0  0  0  0  0  0  0  0  0  0  0
   -1.2660   -0.5610   -3.2820 C   0  0  0  0  0  0  0  0  0  0  0  0
   -1.0040   -1.1650   -4.3350 O   0  0  0  0  0  0  0  0  0  0  0  0
   -2.6610   -0.5730   -2.7700 C   0  0  0  0  0  0  0  0  0  0  0  0
   -3.6760   -1.2420   -3.4310 C   0  0  0  0  0  0  0  0  0  0  0  0
   -5.1160   -0.9380   -2.4030 S   0  0  0  0  0  0  0  0  0  0  0  0
   -4.1180    0.0850   -1.1820 C   0  0  0  0  0  0  0  0  0  0  0  0
   -4.8680    0.6610    0.0070 C   0  0  1  0  0  0  0  0  0  0  0  0
   -5.9890    1.5410   -0.4810 C   0  0  0  0  0  0  0  0  0  0  0  0
   -6.5260    2.3130    0.6910 C   0  0  0  0  0  0  0  0  0  0  0  0
   -6.8090    1.3460    1.8020 C   0  0  0  0  0  0  0  0  0  0  0  0
   -6.7330   -0.0970    1.3880 C   0  0  0  0  0  0  0  0  0  0  0  0
   -5.4150   -0.4970    0.8140 C   0  0  0  0  0  0  0  0  0  0  0  0
   -3.0660    0.0230   -1.6800 N   0  0  0  0  0  0  0  0  0  0  0  0
    2.5870   -1.0050   -1.4960 O   0  0  0  0  0  0  0  0  0  0  0  0
  1  2  1  0
  2  3  1  0
  3  4  2  3
  3 18  1  0
  4  5  1  0
  5  6  2  0
  5  7  1  0
  7  8  1  0
  7 17  1  0
  8  9  1  0
  9 10  1  0
 10 11  1  0
 11 12  2  0
 11 17  1  0
 12 13  1  0
 12 14  1  0
 14 15  2  0
 14 16  1  0
 16 17  2  0
 18 19  2  0
 18 38  1  0
 19 20  1  0
 20 21  2  0
 21 22  1  0
 21 38  1  0
 22 23  1  0
 23 24  1  0
 23 25  1  0
 25 26  2  0
 25 27  1  0
 27 28  2  0
 27 37  1  0
 28 29  1  0
 29 30  1  0
 31 30  1  6
 30 37  2  0
 31 32  1  0
 31 36  1  0
 32 33  1  0
 33 34  1  0
 34 35  1  0
 35 36  1  0
M  END
