
     RDKit          3D

 39 43  0  0  0  0  0  0  0  0999 V2000
    0.5140   -5.1750   -0.1500 C   0  0  0  0  0  0  0  0  0  0  0  0
   -0.5180   -4.6840    0.8320 C   0  0  0  0  0  0  0  0  0  0  0  0
   -0.2290   -4.4910    2.0410 O   0  0  0  0  0  0  0  0  0  0  0  0
   -1.8390   -4.4590    0.2860 C   0  0  0  0  0  0  0  0  0  0  0  0
   -2.8360   -5.4010    0.2200 C   0  0  0  0  0  0  0  0  0  0  0  0
   -2.6760   -6.8040    0.7220 C   0  0  0  0  0  0  0  0  0  0  0  0
   -3.8750   -4.8850   -0.3210 O   0  0  0  0  0  0  0  0  0  0  0  0
   -3.6240   -3.6040   -0.6340 C   0  0  0  0  0  0  0  0  0  0  0  0
   -4.6730   -2.8020   -1.2710 C   0  0  0  0  0  0  0  0  0  0  0  0
   -2.3680   -3.2780   -0.2790 C   0  0  0  0  0  0  0  0  0  0  0  0
   -1.5890   -2.0890   -0.3660 C   0  0  0  0  0  0  0  0  0  0  0  0
   -0.3350   -2.2380    0.1440 O   0  0  0  0  0  0  0  0  0  0  0  0
   -1.7070   -0.7890   -0.8180 N   0  0  0  0  0  0  0  0  0  0  0  0
   -2.8310   -0.1440   -1.4010 C   0  0  0  0  0  0  0  0  0  0  0  0
   -3.8800    0.6530   -0.1440 S   0  0  0  0  0  0  0  0  0  0  0  0
   -2.9700    2.0000    0.5970 C   0  0  0  0  0  0  0  0  0  0  0  0
   -2.1830    1.8700    1.7000 C   0  0  0  0  0  0  0  0  0  0  0  0
   -1.5160    2.9790    2.2020 C   0  0  0  0  0  0  0  0  0  0  0  0
   -1.6290    4.2270    1.6090 C   0  0  0  0  0  0  0  0  0  0  0  0
   -2.4240    4.3430    0.5000 C   0  0  0  0  0  0  0  0  0  0  0  0
   -3.0840    3.2360    0.0050 C   0  0  0  0  0  0  0  0  0  0  0  0
   -2.3640    5.7630    0.0780 C   0  0  0  0  0  0  0  0  0  0  0  0
   -1.8270    6.4580    1.2930 C   0  0  0  0  0  0  0  0  0  0  0  0
   -1.0610    5.4440    1.9410 O   0  0  0  0  0  0  0  0  0  0  0  0
   -0.5560    0.0980   -0.6980 C   0  0  0  0  0  0  0  0  0  0  0  0
   -0.2680    1.3030   -0.9390 N   0  0  0  0  0  0  0  0  0  0  0  0
    0.8780    1.7980   -0.7170 N   0  0  0  0  0  0  0  0  0  0  0  0
    1.8500    1.1550   -0.2380 C   0  0  0  0  0  0  0  0  0  0  0  0
    3.2440    1.3540    0.1400 C   0  0  0  0  0  0  0  0  0  0  0  0
    4.1690    1.0650   -1.0180 C   0  0  0  0  0  0  0  0  0  0  0  0
    5.6060    1.2780   -0.6140 C   0  0  0  0  0  0  0  0  0  0  0  0
    6.2770    0.2120   -0.0960 C   0  0  0  0  0  0  0  0  0  0  0  0
    7.5990    0.2270    0.3260 C   0  0  0  0  0  0  0  0  0  0  0  0
    8.1900   -0.8930    0.8340 F   0  0  0  0  0  0  0  0  0  0  0  0
    8.3800    1.7290    0.1520 S   0  0  0  0  0  0  0  0  0  0  0  0
    7.3820    2.9470   -0.5140 C   0  0  0  0  0  0  0  0  0  0  0  0
    7.7770    4.1400   -0.7250 O   0  0  0  0  0  0  0  0  0  0  0  0
    6.0970    2.5350   -0.8110 C   0  0  0  0  0  0  0  0  0  0  0  0
    1.0780   -0.4840   -0.0300 S   0  0  0  0  0  0  0  0  0  0  0  0
  1  2  1  0
  2  3  2  0
  2  4  1  0
  4  5  2  0
  4 10  1  0
  5  6  1  0
  5  7  1  0
  7  8  1  0
  8  9  1  0
  8 10  2  0
 10 11  1  0
 11 12  2  0
 11 13  1  0
 13 14  1  0
 13 25  1  0
 14 15  1  0
 15 16  1  0
 16 17  2  0
 16 21  1  0
 17 18  1  0
 18 19  2  0
 19 20  1  0
 19 24  1  0
 20 21  2  0
 20 22  1  0
 22 23  1  0
 23 24  1  0
 25 26  2  0
 25 39  1  0
 26 27  1  0
 27 28  2  0
 28 29  1  0
 28 39  1  0
 29 30  1  0
 30 31  1  0
 31 32  1  0
 31 38  2  0
 32 33  2  0
 33 34  1  0
 33 35  1  0
 35 36  1  0
 36 37  2  0
 36 38  1  0
M  END
