
     RDKit          3D

 38 42  0  0  0  0  0  0  0  0999 V2000
    7.3090    2.4870    0.9130 C   0  0  0  0  0  0  0  0  0  0  0  0
    7.2590    2.4050   -0.3990 C   0  0  0  0  0  0  0  0  0  0  0  0
    6.0050    2.6450   -1.1900 C   0  0  0  0  0  0  0  0  0  0  0  0
    5.6370    1.1390   -2.1010 S   0  0  0  0  0  0  0  0  0  0  0  0
    5.2190   -0.1790   -0.9700 C   0  0  0  0  0  0  0  0  0  0  0  0
    5.2240    0.0670    0.2210 O   0  0  0  0  0  0  0  0  0  0  0  0
    4.8900   -1.4950   -1.5550 C   0  0  1  0  0  0  0  0  0  0  0  0
    4.5720   -2.5660   -0.5670 C   0  0  0  0  0  0  0  0  0  0  0  0
    5.7130   -2.8220    0.3410 C   0  0  0  0  0  0  0  0  0  0  0  0
    5.9240   -2.1620    1.3700 O   0  0  0  0  0  0  0  0  0  0  0  0
    6.6070   -3.8540    0.0440 O   0  0  0  0  0  0  0  0  0  0  0  0
    7.7080   -4.1260    0.8900 C   0  0  0  0  0  0  0  0  0  0  0  0
    3.6030   -1.2860   -2.8020 S   0  0  0  0  0  0  0  0  0  0  0  0
    2.0490   -0.7620   -2.1230 C   0  0  0  0  0  0  0  0  0  0  0  0
    1.7290    0.5470   -1.9910 N   0  0  0  0  0  0  0  0  0  0  0  0
    0.5570    0.8660   -1.4840 C   0  0  0  0  0  0  0  0  0  0  0  0
   -0.1360    2.5370   -1.1930 S   0  0  0  0  0  0  0  0  0  0  0  0
   -1.7150    1.8970   -0.5050 C   0  0  0  0  0  0  0  0  0  0  0  0
   -2.8050    2.5800   -0.0360 C   0  0  0  0  0  0  0  0  0  0  0  0
   -2.8360    3.9530   -0.0020 C   0  0  0  0  0  0  0  0  0  0  0  0
   -3.8980    4.6680    0.4830 C   0  0  0  0  0  0  0  0  0  0  0  0
   -4.9930    3.9920    0.9630 C   0  0  0  0  0  0  0  0  0  0  0  0
   -4.9690    2.5920    0.9320 C   0  0  0  0  0  0  0  0  0  0  0  0
   -3.9090    1.8710    0.4450 C   0  0  0  0  0  0  0  0  0  0  0  0
   -3.8120    0.5150    0.4050 N   0  0  0  0  0  0  0  0  0  0  0  0
   -4.9900   -0.2090    0.8490 C   0  0  2  0  0  0  0  0  0  0  0  0
   -5.1880   -0.0820    2.3450 C   0  0  0  0  0  0  0  0  0  0  0  0
   -4.7980   -1.6910    0.5800 C   0  0  0  0  0  0  0  0  0  0  0  0
   -6.2770   -2.2200    0.6720 C   0  0  0  0  0  0  0  0  0  0  0  0
   -6.8440   -1.2590   -0.3650 C   0  0  0  0  0  0  0  0  0  0  0  0
   -6.2620    0.1050    0.0910 C   0  0  0  0  0  0  0  0  0  0  0  0
   -2.7210   -0.1280   -0.0600 C   0  0  0  0  0  0  0  0  0  0  0  0
   -2.7440   -1.3690   -0.0350 O   0  0  0  0  0  0  0  0  0  0  0  0
   -1.5730    0.5390   -0.5580 C   0  0  0  0  0  0  0  0  0  0  0  0
   -0.4300    0.0250   -1.0510 C   0  0  0  0  0  0  0  0  0  0  0  0
   -0.0550   -1.3390   -1.2060 C   0  0  0  0  0  0  0  0  0  0  0  0
   -0.7760   -2.3010   -0.8880 O   0  0  0  0  0  0  0  0  0  0  0  0
    1.1470   -1.6400   -1.7270 N   0  0  0  0  0  0  0  0  0  0  0  0
  1  2  2  0
  2  3  1  0
  3  4  1  0
  4  5  1  0
  5  6  2  0
  5  7  1  0
  7  8  1  1
  7 13  1  0
  8  9  1  0
  9 10  2  0
  9 11  1  0
 11 12  1  0
 13 14  1  0
 14 15  2  0
 14 38  1  0
 15 16  1  0
 16 17  1  0
 16 35  2  0
 17 18  1  0
 18 19  1  0
 18 34  2  0
 19 20  2  0
 19 24  1  0
 20 21  1  0
 21 22  2  0
 22 23  1  0
 23 24  2  0
 24 25  1  0
 25 26  1  0
 25 32  1  0
 26 27  1  1
 26 28  1  0
 26 31  1  0
 28 29  1  0
 29 30  1  0
 30 31  1  0
 32 33  2  0
 32 34  1  0
 34 35  1  0
 35 36  1  0
 36 37  2  0
 36 38  1  0
M  END
