
     RDKit          3D

 40 42  0  0  0  0  0  0  0  0999 V2000
   12.2380    2.1560    0.0930 C   0  0  0  0  0  0  0  0  0  0  0  0
   11.3500    0.9870    0.4940 C   0  0  0  0  0  0  0  0  0  0  0  0
   10.4700    0.6870   -0.6740 C   0  0  1  0  0  0  0  0  0  0  0  0
   11.2540    0.3150   -1.9140 C   0  0  0  0  0  0  0  0  0  0  0  0
    9.5710   -0.4010   -0.4150 O   0  0  0  0  0  0  0  0  0  0  0  0
    8.2030   -0.2400   -0.4810 C   0  0  0  0  0  0  0  0  0  0  0  0
    7.7680    0.8990   -0.7770 O   0  0  0  0  0  0  0  0  0  0  0  0
    7.2780   -1.3330   -0.2210 C   0  0  0  0  0  0  0  0  0  0  0  0
    7.6590   -2.6060    0.1120 C   0  0  0  0  0  0  0  0  0  0  0  0
    6.7520   -3.6170    0.3500 C   0  0  0  0  0  0  0  0  0  0  0  0
    5.4100   -3.3530    0.2550 C   0  0  0  0  0  0  0  0  0  0  0  0
    4.9680   -2.0700   -0.0820 C   0  0  0  0  0  0  0  0  0  0  0  0
    3.5790   -1.8770   -0.1430 N   0  0  0  0  0  0  0  0  0  0  0  0
    2.9780   -0.7550   -0.7530 C   0  0  0  0  0  0  0  0  0  0  0  0
    3.5990    0.1730   -1.3020 O   0  0  0  0  0  0  0  0  0  0  0  0
    1.5730   -0.6220   -0.7730 O   0  0  0  0  0  0  0  0  0  0  0  0
    0.9660    0.5030   -1.3850 C   0  0  0  0  0  0  0  0  0  0  0  0
   -0.5460    0.4250   -1.2860 C   0  0  1  0  0  0  0  0  0  0  0  0
   -0.9020   -0.7590   -1.9510 O   0  0  0  0  0  0  0  0  0  0  0  0
   -1.0120    0.4210    0.1400 C   0  0  0  0  0  0  0  0  0  0  0  0
   -2.4390    0.2950    0.3000 N   0  0  0  0  0  0  0  0  0  0  0  0
   -3.3020    1.2600   -0.2220 C   0  0  0  0  0  0  0  0  0  0  0  0
   -2.7850    2.2640   -0.8410 O   0  0  0  0  0  0  0  0  0  0  0  0
   -4.7780    1.2760   -0.1500 C   0  0  2  0  0  0  0  0  0  0  0  0
   -5.3410    1.3110    1.2400 C   0  0  0  0  0  0  0  0  0  0  0  0
   -6.7860    1.3170    1.1130 N   0  0  0  0  0  0  0  0  0  0  0  0
   -7.3060    2.5080    0.5520 C   0  0  0  0  0  0  0  0  0  0  0  0
   -8.6420    2.8570    1.1110 C   0  0  0  0  0  0  0  0  0  0  0  0
   -9.7210    1.3770    1.0020 S   0  0  0  0  0  0  0  0  0  0  0  0
   -8.6900    0.0290    1.7110 C   0  0  2  0  0  0  0  0  0  0  0  0
   -9.4770   -0.6030    2.8100 C   0  0  0  0  0  0  0  0  0  0  0  0
   -7.4560    0.7740    2.2460 C   0  0  0  0  0  0  0  0  0  0  0  0
   -5.2940    0.0760   -0.8480 C   0  0  0  0  0  0  0  0  0  0  0  0
   -5.7170    0.1480   -2.1690 C   0  0  0  0  0  0  0  0  0  0  0  0
   -6.1980   -0.9890   -2.7580 C   0  0  0  0  0  0  0  0  0  0  0  0
   -6.2730   -2.1860   -2.0870 C   0  0  0  0  0  0  0  0  0  0  0  0
   -6.7660   -3.3320   -2.7060 O   0  0  0  0  0  0  0  0  0  0  0  0
   -5.8580   -2.2770   -0.7780 C   0  0  0  0  0  0  0  0  0  0  0  0
   -5.3690   -1.1190   -0.1820 C   0  0  0  0  0  0  0  0  0  0  0  0
    5.8940   -1.1000   -0.3090 C   0  0  0  0  0  0  0  0  0  0  0  0
  1  2  1  0
  2  3  1  0
  3  4  1  6
  3  5  1  0
  5  6  1  0
  6  7  2  0
  6  8  1  0
  8  9  2  0
  8 40  1  0
  9 10  1  0
 10 11  2  0
 11 12  1  0
 12 13  1  0
 12 40  2  0
 13 14  1  0
 14 15  2  0
 14 16  1  0
 16 17  1  0
 17 18  1  0
 18 19  1  1
 18 20  1  0
 20 21  1  0
 21 22  1  0
 22 23  2  0
 22 24  1  0
 24 25  1  1
 24 33  1  0
 25 26  1  0
 26 27  1  0
 26 32  1  0
 27 28  1  0
 28 29  1  0
 29 30  1  0
 30 31  1  1
 30 32  1  0
 33 34  2  0
 33 39  1  0
 34 35  1  0
 35 36  2  0
 36 37  1  0
 36 38  1  0
 38 39  2  0
M  END
