
     RDKit          3D

 40 43  0  0  0  0  0  0  0  0999 V2000
   -2.8480   -0.7750    4.9720 C   0  0  0  0  0  0  0  0  0  0  0  0
   -3.8290   -0.9390    3.9670 O   0  0  0  0  0  0  0  0  0  0  0  0
   -3.7600   -0.2540    2.7500 C   0  0  0  0  0  0  0  0  0  0  0  0
   -2.7240    0.6050    2.5010 C   0  0  0  0  0  0  0  0  0  0  0  0
   -2.6270    1.2990    1.3020 C   0  0  0  0  0  0  0  0  0  0  0  0
   -3.5750    1.1310    0.3470 C   0  0  0  0  0  0  0  0  0  0  0  0
   -3.5740    1.8350   -0.9290 C   0  0  0  0  0  0  0  0  0  0  0  0
   -4.1040    2.9900   -0.8900 O   0  0  0  0  0  0  0  0  0  0  0  0
   -3.0480    1.2910   -2.1210 N   0  0  0  0  0  0  0  0  0  0  0  0
   -2.3980    0.0250   -2.1590 C   0  0  0  0  0  0  0  0  0  0  0  0
   -0.9220   -0.0050   -2.1760 C   0  0  0  0  0  0  0  0  0  0  0  0
   -0.1650    0.6840   -1.1180 C   0  0  1  0  0  0  0  0  0  0  0  0
    1.2710    0.4380   -1.3960 N   0  0  0  0  0  0  0  0  0  0  0  0
    2.1640   -0.0530   -0.4240 C   0  0  0  0  0  0  0  0  0  0  0  0
    1.7150   -0.2890    0.7390 O   0  0  0  0  0  0  0  0  0  0  0  0
    3.5410   -0.3000   -0.6710 N   0  0  0  0  0  0  0  0  0  0  0  0
    4.4430   -0.7960    0.3240 C   0  0  2  0  0  0  0  0  0  0  0  0
    5.6100    0.1260    0.6040 C   0  0  0  0  0  0  0  0  0  0  0  0
    6.5870   -0.5680    1.4830 C   0  0  1  0  0  0  0  0  0  0  0  0
    7.0600    0.1830    2.6760 C   0  0  0  0  0  0  0  0  0  0  0  0
    7.5380   -0.8970    3.6460 C   0  0  0  0  0  0  0  0  0  0  0  0
    7.1070   -2.2310    3.0350 C   0  0  0  0  0  0  0  0  0  0  0  0
    5.9930   -1.8240    2.1410 C   0  0  2  0  0  0  0  0  0  0  0  0
    5.7150   -2.7420    1.0220 C   0  0  0  0  0  0  0  0  0  0  0  0
    6.0210   -4.0020    0.6180 C   0  0  0  0  0  0  0  0  0  0  0  0
    5.3760   -4.1900   -0.5870 C   0  0  0  0  0  0  0  0  0  0  0  0
    4.7070   -3.0800   -0.8920 O   0  0  0  0  0  0  0  0  0  0  0  0
    4.8830   -2.2010    0.0350 C   0  0  0  0  0  0  0  0  0  0  0  0
   -0.3210    2.4980   -1.2250 S   0  0  0  0  0  0  0  0  0  0  0  0
    0.4580    3.1290   -2.7320 C   0  0  0  0  0  0  0  0  0  0  0  0
   -3.2080    2.1070   -3.3250 C   0  0  0  0  0  0  0  0  0  0  0  0
   -4.4940    1.8010   -4.0420 C   0  0  2  0  0  0  0  0  0  0  0  0
   -4.5850    2.7380   -5.2280 C   0  0  0  0  0  0  0  0  0  0  0  0
   -5.6120    2.0370   -3.2490 O   0  0  0  0  0  0  0  0  0  0  0  0
   -4.6400    0.2530    0.5950 C   0  0  0  0  0  0  0  0  0  0  0  0
   -5.6270    0.0540   -0.3490 O   0  0  0  0  0  0  0  0  0  0  0  0
   -5.5830   -0.9320   -1.3390 C   0  0  0  0  0  0  0  0  0  0  0  0
   -4.7180   -0.4210    1.7810 C   0  0  0  0  0  0  0  0  0  0  0  0
   -5.7730   -1.3070    2.0580 O   0  0  0  0  0  0  0  0  0  0  0  0
   -6.9580   -0.8630    2.6750 C   0  0  0  0  0  0  0  0  0  0  0  0
  1  2  1  0
  2  3  1  0
  3  4  2  0
  3 38  1  0
  4  5  1  0
  5  6  2  0
  6  7  1  0
  6 35  1  0
  7  8  2  0
  7  9  1  0
  9 10  1  0
  9 31  1  0
 10 11  1  0
 12 11  1  6
 12 13  1  0
 12 29  1  0
 13 14  1  0
 14 15  2  0
 14 16  1  0
 17 16  1  6
 17 18  1  0
 17 28  1  0
 19 18  1  1
 19 20  1  0
 19 23  1  0
 20 21  1  0
 21 22  1  0
 23 22  1  1
 23 24  1  0
 24 25  1  0
 24 28  2  0
 25 26  2  0
 26 27  1  0
 27 28  1  0
 29 30  1  0
 31 32  1  0
 32 33  1  6
 32 34  1  0
 35 36  1  0
 35 38  2  0
 36 37  1  0
 38 39  1  0
 39 40  1  0
M  END
