
     RDKit          3D

 49 52  0  0  0  0  0  0  0  0999 V2000
   -7.3180   -4.6380    0.0360 C   0  0  0  0  0  0  0  0  0  0  0  0
   -7.3940   -3.1300    0.2330 C   0  0  2  0  0  0  0  0  0  0  0  0
   -8.3660   -2.5750   -0.7520 C   0  0  0  0  0  0  0  0  0  0  0  0
   -6.0380   -2.5130    0.2000 C   0  0  0  0  0  0  0  0  0  0  0  0
   -5.8000   -1.1710    0.0280 C   0  0  0  0  0  0  0  0  0  0  0  0
   -4.5400   -0.6050    0.0430 C   0  0  0  0  0  0  0  0  0  0  0  0
   -4.3360    0.8230   -0.2370 C   0  0  2  0  0  0  0  0  0  0  0  0
   -5.6720    1.5430    0.0540 C   0  0  0  0  0  0  0  0  0  0  0  0
   -4.2470    0.9920   -1.7860 C   0  0  0  0  0  0  0  0  0  0  0  0
   -3.4300   -1.4120    0.2440 C   0  0  0  0  0  0  0  0  0  0  0  0
   -1.8250   -0.8860    0.2890 S   0  0  1  0  0  0  0  0  0  0  0  0
   -1.0070   -1.8120    1.2020 O   0  0  0  0  0  0  0  0  0  0  0  0
   -1.2000   -1.1500   -1.0880 O   0  0  0  0  0  0  0  0  0  0  0  0
   -1.3450    0.6650    0.7680 N   0  0  0  0  0  0  0  0  0  0  0  0
   -0.5650    1.3410   -0.2240 C   0  0  1  0  0  0  0  0  0  0  0  0
   -1.2020    2.5990   -0.6740 C   0  0  0  0  0  0  0  0  0  0  0  0
   -1.5400    3.6850    0.1990 C   0  0  0  0  0  0  0  0  0  0  0  0
   -1.1780    3.9150    1.4800 C   0  0  0  0  0  0  0  0  0  0  0  0
   -1.4110    5.1390    2.1530 C   0  0  0  0  0  0  0  0  0  0  0  0
   -2.0530    6.1600    1.4650 C   0  0  0  0  0  0  0  0  0  0  0  0
   -2.4510    5.9630    0.1470 C   0  0  0  0  0  0  0  0  0  0  0  0
   -3.0660    7.0710   -0.5790 C   0  0  0  0  0  0  0  0  0  0  0  0
   -3.0040    8.3880   -0.0320 N   0  0  0  0  0  0  0  0  0  0  0  0
   -3.6290    6.9570   -1.7110 N   0  0  0  0  0  0  0  0  0  0  0  0
   -2.2010    4.7540   -0.4660 C   0  0  0  0  0  0  0  0  0  0  0  0
    0.8300    1.6670    0.1070 C   0  0  0  0  0  0  0  0  0  0  0  0
    0.9690    2.9600    0.4260 O   0  0  0  0  0  0  0  0  0  0  0  0
    2.0290    1.0040    0.1910 N   0  0  0  0  0  0  0  0  0  0  0  0
    3.2370    1.8370    0.4470 C   0  0  0  0  0  0  0  0  0  0  0  0
    4.1130    1.6260   -0.7760 C   0  0  0  0  0  0  0  0  0  0  0  0
    4.4100    0.1760   -0.8540 N   0  0  0  0  0  0  0  0  0  0  0  0
    5.7630   -0.1540   -1.0010 C   0  0  0  0  0  0  0  0  0  0  0  0
    6.6290    0.7760   -1.1030 O   0  0  0  0  0  0  0  0  0  0  0  0
    6.2870   -1.5260   -1.0470 C   0  0  2  0  0  0  0  0  0  0  0  0
    6.5510   -2.0190    0.3510 C   0  0  0  0  0  0  0  0  0  0  0  0
    7.7530   -1.3040    0.8970 C   0  0  0  0  0  0  0  0  0  0  0  0
    8.8920   -1.5750    0.0750 N   0  0  0  0  0  0  0  0  0  0  0  0
    9.9800   -1.9790    0.6090 C   0  0  0  0  0  0  0  0  0  0  0  0
   11.1330   -2.2590   -0.1640 N   0  0  0  0  0  0  0  0  0  0  0  0
   10.0880   -2.1630    2.0060 N   0  0  0  0  0  0  0  0  0  0  0  0
    8.8040   -1.3960   -1.3470 C   0  0  0  0  0  0  0  0  0  0  0  0
    7.4760   -1.6460   -1.9560 C   0  0  0  0  0  0  0  0  0  0  0  0
    3.3560   -0.7770   -0.8050 C   0  0  0  0  0  0  0  0  0  0  0  0
    2.2640   -0.3780    0.1370 C   0  0  0  0  0  0  0  0  0  0  0  0
   -3.6640   -2.8020    0.4160 C   0  0  0  0  0  0  0  0  0  0  0  0
   -2.5900   -3.8060    0.6410 C   0  0  2  0  0  0  0  0  0  0  0  0
   -3.1410   -5.2020    0.2410 C   0  0  0  0  0  0  0  0  0  0  0  0
   -2.4290   -3.9280    2.1700 C   0  0  0  0  0  0  0  0  0  0  0  0
   -4.9370   -3.3190    0.3930 C   0  0  0  0  0  0  0  0  0  0  0  0
  2  1  1  6
  2  3  1  0
  2  4  1  0
  4  5  2  0
  4 49  1  0
  5  6  1  0
  6  7  1  0
  6 10  2  0
  7  8  1  6
  7  9  1  0
 10 11  1  0
 10 45  1  0
 11 12  2  0
 11 13  2  0
 11 14  1  1
 14 15  1  0
 15 16  1  1
 15 26  1  0
 16 17  1  0
 17 18  2  0
 17 25  1  0
 18 19  1  0
 19 20  2  0
 20 21  1  0
 21 22  1  0
 21 25  2  0
 22 23  1  0
 22 24  2  0
 26 27  2  0
 26 28  1  0
 28 29  1  0
 28 44  1  0
 29 30  1  0
 30 31  1  0
 31 32  1  0
 31 43  1  0
 32 33  2  0
 34 32  1  1
 34 35  1  0
 34 42  1  0
 35 36  1  0
 36 37  1  0
 37 38  2  3
 37 41  1  0
 38 39  1  0
 38 40  1  0
 41 42  1  0
 43 44  1  0
 45 46  1  0
 45 49  2  0
 46 47  1  1
 46 48  1  0
M  CHG  2  24   1  37   1
M  END
