
     RDKit          3D

 40 42  0  0  0  0  0  0  0  0999 V2000
   -3.5340    5.3600   -1.1690 C   0  0  0  0  0  0  0  0  0  0  0  0
   -4.2190    4.0760   -0.9070 C   0  0  0  0  0  0  0  0  0  0  0  0
   -3.9750    2.9310   -1.8180 C   0  0  0  0  0  0  0  0  0  0  0  0
   -2.5730    2.4630   -1.8310 C   0  0  2  0  0  0  0  0  0  0  0  0
   -1.5920    3.4790   -2.2920 C   0  0  0  0  0  0  0  0  0  0  0  0
   -2.3800    0.9660   -2.8780 S   0  0  0  0  0  0  0  0  0  0  0  0
   -3.2770   -0.3480   -2.0640 C   0  0  0  0  0  0  0  0  0  0  0  0
   -2.6510   -1.2200   -1.3080 C   0  0  0  0  0  0  0  0  0  0  0  0
   -1.1870   -1.2270   -1.0420 C   0  0  0  0  0  0  0  0  0  0  0  0
   -1.0540   -0.9800    0.4550 C   0  0  2  0  0  0  0  0  0  0  0  0
    0.3060   -1.2300    0.9010 N   0  0  0  0  0  0  0  0  0  0  0  0
    1.2580   -0.1360    1.0650 C   0  0  0  0  0  0  0  0  0  0  0  0
    0.7840    0.9870    0.7820 O   0  0  0  0  0  0  0  0  0  0  0  0
    2.6160   -0.3800    1.5140 C   0  0  0  0  0  0  0  0  0  0  0  0
    3.6520    0.6490    1.2260 C   0  0  1  0  0  0  0  0  0  0  0  0
    4.8870    0.1740    1.8590 O   0  0  0  0  0  0  0  0  0  0  0  0
    5.5560    1.0400    2.7270 C   0  0  0  0  0  0  0  0  0  0  0  0
    5.0110    2.1860    2.8830 O   0  0  0  0  0  0  0  0  0  0  0  0
    6.8040    0.7020    3.4370 C   0  0  2  0  0  0  0  0  0  0  0  0
    7.3190    1.9280    4.1960 C   0  0  0  0  0  0  0  0  0  0  0  0
    8.6010    1.9020    3.3970 C   0  0  0  0  0  0  0  0  0  0  0  0
    8.0700    0.7020    2.6300 C   0  0  0  0  0  0  0  0  0  0  0  0
    4.0150    0.5600   -0.2390 C   0  0  0  0  0  0  0  0  0  0  0  0
    5.1010   -0.0410   -0.5360 O   0  0  0  0  0  0  0  0  0  0  0  0
    3.2730    1.0750   -1.3010 N   0  0  0  0  0  0  0  0  0  0  0  0
    3.7480    0.8940   -2.6300 N   0  0  0  0  0  0  0  0  0  0  0  0
    4.9270    1.4650   -3.1320 C   0  0  0  0  0  0  0  0  0  0  0  0
    5.4300    1.2800   -4.5130 C   0  0  0  0  0  0  0  0  0  0  0  0
    5.6140    2.1930   -2.3450 O   0  0  0  0  0  0  0  0  0  0  0  0
   -2.1110   -1.6100    1.2790 C   0  0  0  0  0  0  0  0  0  0  0  0
   -2.8720   -2.7400    0.6560 C   0  0  0  0  0  0  0  0  0  0  0  0
   -3.4040   -2.2830   -0.6440 C   0  0  0  0  0  0  0  0  0  0  0  0
   -4.4750   -2.8150   -1.1570 C   0  0  0  0  0  0  0  0  0  0  0  0
   -5.2360   -3.8770   -0.5070 C   0  0  0  0  0  0  0  0  0  0  0  0
   -5.7510   -4.9870   -1.2020 C   0  0  0  0  0  0  0  0  0  0  0  0
   -6.4010   -5.7630   -0.2750 C   0  0  0  0  0  0  0  0  0  0  0  0
   -6.2750   -5.1300    0.9400 C   0  0  0  0  0  0  0  0  0  0  0  0
   -6.8310   -5.6110    2.2630 C   0  0  0  0  0  0  0  0  0  0  0  0
   -8.0960   -5.0710    2.3560 O   0  0  0  0  0  0  0  0  0  0  0  0
   -5.5880   -4.0450    0.7280 O   0  0  0  0  0  0  0  0  0  0  0  0
  1  2  1  0
  2  3  1  0
  3  4  1  0
  4  5  1  6
  4  6  1  0
  6  7  1  0
  7  8  2  3
  8  9  1  0
  8 32  1  0
  9 10  1  0
 10 11  1  1
 10 30  1  0
 11 12  1  0
 12 13  2  0
 12 14  1  0
 15 14  1  6
 15 16  1  0
 15 23  1  0
 16 17  1  0
 17 18  2  0
 19 17  1  6
 19 20  1  0
 19 22  1  0
 20 21  1  0
 21 22  1  0
 23 24  2  0
 23 25  1  0
 25 26  1  0
 26 27  1  0
 27 28  1  0
 27 29  2  0
 30 31  1  0
 31 32  1  0
 32 33  2  3
 33 34  1  0
 34 35  2  0
 34 40  1  0
 35 36  1  0
 36 37  2  0
 37 38  1  0
 37 40  1  0
 38 39  1  0
M  END
