
     RDKit          3D

 40 43  0  0  0  0  0  0  0  0999 V2000
   -2.1590   -0.1900    2.4820 C   0  0  0  0  0  0  0  0  0  0  0  0
   -2.4960    0.3940    1.1360 C   0  0  0  0  0  0  0  0  0  0  0  0
   -2.2720   -0.6130    0.0310 C   0  0  2  0  0  0  0  0  0  0  0  0
   -0.9590   -0.9880    0.0350 O   0  0  0  0  0  0  0  0  0  0  0  0
   -0.4320   -2.2480    0.1890 C   0  0  0  0  0  0  0  0  0  0  0  0
   -1.2430   -3.1910    0.3210 O   0  0  0  0  0  0  0  0  0  0  0  0
    1.0250   -2.4750    0.1990 C   0  0  0  0  0  0  0  0  0  0  0  0
    1.6410   -3.5950    0.3170 O   0  0  0  0  0  0  0  0  0  0  0  0
    2.9090   -3.4640    0.2940 N   0  0  0  0  0  0  0  0  0  0  0  0
    3.1970   -2.1460    0.1480 C   0  0  0  0  0  0  0  0  0  0  0  0
    4.3490   -1.6790    0.0920 O   0  0  0  0  0  0  0  0  0  0  0  0
    2.0210   -1.4780    0.0830 C   0  0  0  0  0  0  0  0  0  0  0  0
    1.6310   -0.0880   -0.0640 C   0  0  0  0  0  0  0  0  0  0  0  0
    2.7830    1.1970   -0.2180 S   0  0  0  0  0  0  0  0  0  0  0  0
    3.8640    1.6100    1.0790 C   0  0  0  0  0  0  0  0  0  0  0  0
    5.3010    1.2930    0.9640 C   0  0  0  0  0  0  0  0  0  0  0  0
    6.1280    1.4980    2.0800 C   0  0  0  0  0  0  0  0  0  0  0  0
    5.7190    1.9230    3.4490 C   0  0  0  0  0  0  0  0  0  0  0  0
    7.3680    1.2460    1.6740 N   0  0  0  0  0  0  0  0  0  0  0  0
    7.3860    0.8990    0.4060 N   0  0  0  0  0  0  0  0  0  0  0  0
    8.5610    0.5620   -0.3300 C   0  0  0  0  0  0  0  0  0  0  0  0
    8.9840   -0.8730   -0.2570 C   0  0  2  0  0  0  0  0  0  0  0  0
   10.2380   -0.9970   -1.1070 C   0  0  0  0  0  0  0  0  0  0  0  0
    8.0010   -1.7690   -0.5780 O   0  0  0  0  0  0  0  0  0  0  0  0
    6.1030    0.9190   -0.0720 C   0  0  0  0  0  0  0  0  0  0  0  0
    5.7130    0.6500   -1.4660 C   0  0  0  0  0  0  0  0  0  0  0  0
   -2.7740    0.0310   -1.2520 C   0  0  1  0  0  0  0  0  0  0  0  0
   -2.7330   -0.8710   -2.3000 O   0  0  0  0  0  0  0  0  0  0  0  0
   -4.1300    0.5800   -1.0760 C   0  0  0  0  0  0  0  0  0  0  0  0
   -4.2410    1.9700   -1.0450 C   0  0  0  0  0  0  0  0  0  0  0  0
   -5.4440    2.5800   -0.8520 C   0  0  0  0  0  0  0  0  0  0  0  0
   -6.5690    1.8050   -0.6830 C   0  0  0  0  0  0  0  0  0  0  0  0
   -6.4830    0.4030   -0.7100 C   0  0  0  0  0  0  0  0  0  0  0  0
   -5.2680   -0.1840   -0.9070 C   0  0  0  0  0  0  0  0  0  0  0  0
   -7.7570   -0.3060   -0.5000 C   0  0  1  0  0  0  0  0  0  0  0  0
   -7.7770   -1.7290   -0.9420 C   0  0  0  0  0  0  0  0  0  0  0  0
   -8.1660   -0.1870    0.9770 C   0  0  0  0  0  0  0  0  0  0  0  0
   -8.8180    0.4310   -1.3280 C   0  0  0  0  0  0  0  0  0  0  0  0
   -8.9950    1.8240   -0.8260 C   0  0  0  0  0  0  0  0  0  0  0  0
   -7.7830    2.4520   -0.4850 O   0  0  0  0  0  0  0  0  0  0  0  0
  1  2  1  0
  3  2  1  1
  3  4  1  0
  3 27  1  0
  4  5  1  0
  5  6  2  0
  5  7  1  0
  7  8  1  0
  7 12  2  0
  8  9  1  0
  9 10  1  0
 10 11  2  0
 10 12  1  0
 12 13  1  0
 13 14  1  0
 14 15  1  0
 15 16  1  0
 16 17  1  0
 16 25  2  0
 17 18  1  0
 17 19  2  0
 19 20  1  0
 20 21  1  0
 20 25  1  0
 21 22  1  0
 22 23  1  6
 22 24  1  0
 25 26  1  0
 27 28  1  6
 27 29  1  0
 29 30  2  0
 29 34  1  0
 30 31  1  0
 31 32  2  0
 32 33  1  0
 32 40  1  0
 33 34  2  0
 33 35  1  0
 35 36  1  6
 35 37  1  0
 35 38  1  0
 38 39  1  0
 39 40  1  0
M  END
