
     RDKit          3D

 40 43  0  0  0  0  0  0  0  0999 V2000
   -6.9720    3.9420    2.2730 C   0  0  0  0  0  0  0  0  0  0  0  0
   -6.6790    2.4450    2.3640 C   0  0  0  0  0  0  0  0  0  0  0  0
   -5.2820    2.1950    1.9520 C   0  0  2  0  0  0  0  0  0  0  0  0
   -5.0610    2.6570    0.4730 C   0  0  0  0  0  0  0  0  0  0  0  0
   -3.7470    1.9080    0.2000 C   0  0  0  0  0  0  0  0  0  0  0  0
   -2.7820    2.3810   -0.7610 C   0  0  0  0  0  0  0  0  0  0  0  0
   -1.4890    1.7960   -1.0880 C   0  0  0  0  0  0  0  0  0  0  0  0
   -3.1070    3.4580   -1.4090 O   0  0  0  0  0  0  0  0  0  0  0  0
   -3.6920    0.8280    1.0030 C   0  0  0  0  0  0  0  0  0  0  0  0
   -2.6800   -0.1380    1.1130 N   0  0  0  0  0  0  0  0  0  0  0  0
   -2.6070   -1.2100    2.0050 C   0  0  0  0  0  0  0  0  0  0  0  0
   -3.5030   -1.3580    2.8630 O   0  0  0  0  0  0  0  0  0  0  0  0
   -1.5250   -2.2300    2.0280 C   0  0  0  0  0  0  0  0  0  0  0  0
   -0.5100   -1.9600    1.0770 N   0  0  0  0  0  0  0  0  0  0  0  0
    0.3610   -0.8460    1.0660 C   0  0  0  0  0  0  0  0  0  0  0  0
    0.2620    0.0060    1.9790 O   0  0  0  0  0  0  0  0  0  0  0  0
    1.3830   -0.6490    0.0150 C   0  0  0  0  0  0  0  0  0  0  0  0
    2.2070    0.5940    0.2700 C   0  0  1  0  0  0  0  0  0  0  0  0
    2.9000    0.4350    1.6040 C   0  0  0  0  0  0  0  0  0  0  0  0
    3.1730    0.7990   -0.8440 C   0  0  0  0  0  0  0  0  0  0  0  0
    3.1500    1.9030   -1.4890 O   0  0  0  0  0  0  0  0  0  0  0  0
    4.0880   -0.1690   -1.1930 O   0  0  0  0  0  0  0  0  0  0  0  0
    4.9970    0.0770   -2.2610 C   0  0  2  0  0  0  0  0  0  0  0  0
    4.6570   -0.7350   -3.4470 C   0  0  0  0  0  0  0  0  0  0  0  0
    3.4210   -0.8700   -3.7770 O   0  0  0  0  0  0  0  0  0  0  0  0
    5.6400   -1.3620   -4.2230 N   0  0  0  0  0  0  0  0  0  0  0  0
    7.0060   -1.2680   -3.7690 C   0  0  0  0  0  0  0  0  0  0  0  0
    8.0650   -1.9360   -4.5840 C   0  0  0  0  0  0  0  0  0  0  0  0
    7.3290   -0.6330   -2.6990 C   0  0  0  0  0  0  0  0  0  0  0  0
    8.8660   -0.3070   -1.8270 S   0  0  0  0  0  0  0  0  0  0  0  0
    8.1120   -0.1790   -0.1420 C   0  0  0  0  0  0  0  0  0  0  0  0
    6.6520   -0.4890   -0.4420 C   0  0  0  0  0  0  0  0  0  0  0  0
    6.3810    0.1150   -1.8260 C   0  0  2  0  0  0  0  0  0  0  0  0
   -5.0550    0.7290    1.5940 C   0  0  0  0  0  0  0  0  0  0  0  0
   -5.8890   -0.2260    1.7370 C   0  0  0  0  0  0  0  0  0  0  0  0
   -5.8260   -1.6420    1.4370 C   0  0  0  0  0  0  0  0  0  0  0  0
   -6.3770   -2.6820    2.1870 C   0  0  0  0  0  0  0  0  0  0  0  0
   -6.0690   -3.8660    1.5170 C   0  0  0  0  0  0  0  0  0  0  0  0
   -5.3530   -3.4700    0.4100 C   0  0  0  0  0  0  0  0  0  0  0  0
   -5.2340   -2.1750    0.3990 O   0  0  0  0  0  0  0  0  0  0  0  0
  1  2  1  0
  3  2  1  6
  3  4  1  0
  3 34  1  0
  4  5  1  0
  5  6  1  0
  5  9  2  0
  6  7  1  0
  6  8  2  0
  9 10  1  0
  9 34  1  0
 10 11  1  0
 11 12  2  0
 11 13  1  0
 13 14  1  0
 14 15  1  0
 15 16  2  0
 15 17  1  0
 17 18  1  0
 18 19  1  1
 18 20  1  0
 20 21  2  0
 20 22  1  0
 23 22  1  1
 23 24  1  0
 23 33  1  0
 24 25  2  0
 24 26  1  0
 26 27  1  0
 27 28  1  0
 27 29  2  0
 29 30  1  0
 29 33  1  0
 30 31  1  0
 31 32  1  0
 33 32  1  1
 34 35  2  3
 35 36  1  0
 36 37  2  0
 36 40  1  0
 37 38  1  0
 38 39  2  0
 39 40  1  0
M  END
