
     RDKit          3D

 40 42  0  0  0  0  0  0  0  0999 V2000
    0.7970    7.1170   -2.6810 C   0  0  0  0  0  0  0  0  0  0  0  0
   -0.4060    6.7140   -3.4970 C   0  0  0  0  0  0  0  0  0  0  0  0
   -0.4260    5.2330   -3.8070 C   0  0  0  0  0  0  0  0  0  0  0  0
   -0.4580    4.4280   -2.5560 C   0  0  0  0  0  0  0  0  0  0  0  0
   -0.4630    5.0130   -1.4390 O   0  0  0  0  0  0  0  0  0  0  0  0
   -0.4830    3.0140   -2.6050 N   0  0  0  0  0  0  0  0  0  0  0  0
   -0.5150    2.1710   -1.4330 C   0  0  1  0  0  0  0  0  0  0  0  0
   -1.7830    1.3180   -1.4080 C   0  0  0  0  0  0  0  0  0  0  0  0
   -1.6660    0.2880   -0.2970 C   0  0  2  0  0  0  0  0  0  0  0  0
   -2.9920    0.1380    0.3390 C   0  0  0  0  0  0  0  0  0  0  0  0
   -3.2090    0.4130    1.5530 O   0  0  0  0  0  0  0  0  0  0  0  0
   -4.1090   -0.3340   -0.4050 N   0  0  0  0  0  0  0  0  0  0  0  0
   -5.4250   -0.5150    0.1130 C   0  0  1  0  0  0  0  0  0  0  0  0
   -6.5270    0.1330   -0.6230 C   0  0  0  0  0  0  0  0  0  0  0  0
   -7.6520   -0.6040   -0.0670 N   0  0  0  0  0  0  0  0  0  0  0  0
   -7.1460   -1.9710    0.0620 C   0  0  0  0  0  0  0  0  0  0  0  0
   -8.1590   -3.0780    0.0610 C   0  0  0  0  0  0  0  0  0  0  0  0
   -8.8870   -3.0860   -1.1560 O   0  0  0  0  0  0  0  0  0  0  0  0
   -5.8420   -1.9630    0.1670 C   0  0  0  0  0  0  0  0  0  0  0  0
   -4.7440   -3.3110    0.3100 S   0  0  0  0  0  0  0  0  0  0  0  0
   -5.2930   -4.9400    0.5630 C   0  0  0  0  0  0  0  0  0  0  0  0
   -5.9310   -5.2390    1.9140 C   0  0  0  0  0  0  0  0  0  0  0  0
   -0.6030    0.7110    0.6960 C   0  0  0  0  0  0  0  0  0  0  0  0
    0.7710    0.7350    0.0710 C   0  0  1  0  0  0  0  0  0  0  0  0
    1.4410   -0.4550    0.1510 O   0  0  0  0  0  0  0  0  0  0  0  0
    2.5960   -0.9180    0.6080 C   0  0  0  0  0  0  0  0  0  0  0  0
    2.8130   -2.2990    0.5150 C   0  0  0  0  0  0  0  0  0  0  0  0
    3.9450   -2.9000    0.9470 C   0  0  0  0  0  0  0  0  0  0  0  0
    4.9930   -2.1630    1.5260 C   0  0  0  0  0  0  0  0  0  0  0  0
    6.0630   -2.8880    1.9160 O   0  0  0  0  0  0  0  0  0  0  0  0
    7.1950   -2.5090    2.5750 C   0  0  2  0  0  0  0  0  0  0  0  0
    8.4470   -2.5740    1.6930 C   0  0  0  0  0  0  0  0  0  0  0  0
    7.4920   -3.5320    3.6960 C   0  0  0  0  0  0  0  0  0  0  0  0
    4.8050   -0.8280    1.6210 C   0  0  0  0  0  0  0  0  0  0  0  0
    5.7860   -0.0190    2.1680 O   0  0  0  0  0  0  0  0  0  0  0  0
    6.7580    0.6400    1.3620 C   0  0  0  0  0  0  0  0  0  0  0  0
    3.6250   -0.2080    1.1710 C   0  0  0  0  0  0  0  0  0  0  0  0
    3.5730    1.1760    1.3330 O   0  0  0  0  0  0  0  0  0  0  0  0
    4.0820    2.0970    0.3780 C   0  0  0  0  0  0  0  0  0  0  0  0
    0.7060    1.2910   -1.3390 C   0  0  0  0  0  0  0  0  0  0  0  0
  1  2  1  0
  2  3  1  0
  3  4  1  0
  4  5  2  0
  4  6  1  0
  7  6  1  6
  7  8  1  0
  7 40  1  0
  8  9  1  0
  9 10  1  1
  9 23  1  0
 10 11  2  0
 10 12  1  0
 13 12  1  6
 13 14  1  0
 13 19  1  0
 14 15  1  0
 15 16  1  0
 16 17  1  0
 16 19  2  0
 17 18  1  0
 19 20  1  0
 20 21  1  0
 21 22  1  0
 23 24  1  0
 24 25  1  6
 24 40  1  0
 25 26  1  0
 26 27  2  0
 26 37  1  0
 27 28  1  0
 28 29  2  0
 29 30  1  0
 29 34  1  0
 30 31  1  0
 31 32  1  6
 31 33  1  0
 34 35  1  0
 34 37  2  0
 35 36  1  0
 37 38  1  0
 38 39  1  0
M  END
