
     RDKit          3D

 30 34  0  0  0  0  0  0  0  0999 V2000
   -1.4630   -3.8430    1.3630 N   0  0  0  0  0  0  0  0  0  0  0  0
   -2.2960   -2.8790    1.1830 C   0  0  0  0  0  0  0  0  0  0  0  0
   -3.6760   -3.1290    1.3650 N   0  0  0  0  0  0  0  0  0  0  0  0
   -4.4400   -2.4160    0.3920 C   0  0  1  0  0  0  0  0  0  0  0  0
   -5.9220   -2.6810    0.4820 C   0  0  0  0  0  0  0  0  0  0  0  0
   -6.6110   -2.2340    2.0370 Cl  0  0  0  0  0  0  0  0  0  0  0  0
   -4.1370   -1.0040    0.5590 N   0  0  0  0  0  0  0  0  0  0  0  0
   -2.7640   -0.6260    0.4860 C   0  0  0  0  0  0  0  0  0  0  0  0
   -2.0990    0.5330    0.1520 C   0  0  0  0  0  0  0  0  0  0  0  0
   -2.7700    1.7670   -0.2400 C   0  0  0  0  0  0  0  0  0  0  0  0
   -3.3120    2.6150    0.7250 C   0  0  0  0  0  0  0  0  0  0  0  0
   -3.9510    3.7790    0.4310 C   0  0  0  0  0  0  0  0  0  0  0  0
   -4.0860    4.1700   -0.8710 C   0  0  0  0  0  0  0  0  0  0  0  0
   -3.5600    3.3560   -1.8730 C   0  0  0  0  0  0  0  0  0  0  0  0
   -2.9190    2.1810   -1.5410 C   0  0  0  0  0  0  0  0  0  0  0  0
   -0.7500    0.2590    0.2740 C   0  0  0  0  0  0  0  0  0  0  0  0
    0.2820    1.2590   -0.0190 C   0  0  0  0  0  0  0  0  0  0  0  0
    1.6490    0.8900    0.3520 C   0  0  0  0  0  0  0  0  0  0  0  0
    1.9430    0.6380    1.5680 O   0  0  0  0  0  0  0  0  0  0  0  0
    2.6600    0.8050   -0.6060 N   0  0  0  0  0  0  0  0  0  0  0  0
    3.9940    0.4580   -0.1320 C   0  0  0  0  0  0  0  0  0  0  0  0
    4.6130    0.2060    0.8600 N   0  0  0  0  0  0  0  0  0  0  0  0
    5.8800   -0.0730    0.8970 N   0  0  0  0  0  0  0  0  0  0  0  0
    6.5810   -0.1140   -0.0440 C   0  0  0  0  0  0  0  0  0  0  0  0
    8.0260   -0.3750   -0.3900 C   0  0  2  0  0  0  0  0  0  0  0  0
    8.8640   -1.1130    0.5540 C   0  0  0  0  0  0  0  0  0  0  0  0
    9.0590    0.4130    0.3380 C   0  0  0  0  0  0  0  0  0  0  0  0
    5.3550    0.3130   -1.4080 S   0  0  0  0  0  0  0  0  0  0  0  0
   -0.6570   -1.0360    0.6710 N   0  0  0  0  0  0  0  0  0  0  0  0
   -1.8460   -1.5880    0.8060 N   0  0  0  0  0  0  0  0  0  0  0  0
  1  2  2  0
  2  3  1  0
  2 30  1  0
  3  4  1  0
  4  5  1  1
  4  7  1  0
  5  6  1  0
  7  8  1  0
  8  9  2  0
  8 30  1  0
  9 10  1  0
  9 16  1  0
 10 11  2  0
 10 15  1  0
 11 12  1  0
 12 13  2  0
 13 14  1  0
 14 15  2  0
 16 17  1  0
 16 29  2  0
 17 18  1  0
 18 19  2  0
 18 20  1  0
 20 21  1  0
 21 22  2  0
 21 28  1  0
 22 23  1  0
 23 24  2  0
 25 24  1  1
 24 28  1  0
 25 26  1  0
 25 27  1  0
 26 27  1  0
 29 30  1  0
M  CHG  1   3   1
M  END
