
     RDKit          3D

 29 31  0  0  0  0  0  0  0  0999 V2000
    4.7400   -2.1290   -2.4860 O   0  0  0  0  0  0  0  0  0  0  0  0
    4.5880   -1.2540   -1.5780 C   0  0  0  0  0  0  0  0  0  0  0  0
    5.6380   -0.2670   -1.3740 C   0  0  0  0  0  0  0  0  0  0  0  0
    5.6170    0.6910   -0.4780 C   0  0  0  0  0  0  0  0  0  0  0  0
    6.6400    1.6810   -0.2520 C   0  0  0  0  0  0  0  0  0  0  0  0
    6.4620    2.6220    0.7310 C   0  0  0  0  0  0  0  0  0  0  0  0
    7.4170    3.6010    0.9930 C   0  0  0  0  0  0  0  0  0  0  0  0
    8.5740    3.6320    0.2490 C   0  0  0  0  0  0  0  0  0  0  0  0
    8.7400    2.7100   -0.7090 N   0  0  0  0  0  0  0  0  0  0  0  0
    7.8060    1.7510   -0.9660 C   0  0  0  0  0  0  0  0  0  0  0  0
    3.3920   -1.3280   -0.8470 N   0  0  0  0  0  0  0  0  0  0  0  0
    2.3680   -2.3310   -1.0850 C   0  0  0  0  0  0  0  0  0  0  0  0
    1.1970   -2.1260   -0.1120 C   0  0  0  0  0  0  0  0  0  0  0  0
    0.2130   -3.1900   -0.4340 C   0  0  0  0  0  0  0  0  0  0  0  0
   -1.0310   -3.2910    0.3400 C   0  0  0  0  0  0  0  0  0  0  0  0
   -1.9800   -2.1580    0.3430 C   0  0  2  0  0  0  0  0  0  0  0  0
   -1.4450   -0.9040    0.9110 C   0  0  0  0  0  0  0  0  0  0  0  0
   -2.3860   -0.3570    2.0010 C   0  0  0  0  0  0  0  0  0  0  0  0
   -3.6770   -0.1350    1.2970 N   0  0  0  0  0  0  0  0  0  0  0  0
   -4.0870    1.1870    1.1910 C   0  0  0  0  0  0  0  0  0  0  0  0
   -3.2640    2.0670    1.7050 O   0  0  0  0  0  0  0  0  0  0  0  0
   -5.2710    1.7540    0.6080 C   0  0  0  0  0  0  0  0  0  0  0  0
   -5.4060    3.1450    0.5430 C   0  0  0  0  0  0  0  0  0  0  0  0
   -6.4970    3.7920    0.0270 C   0  0  0  0  0  0  0  0  0  0  0  0
   -7.5430    3.0450   -0.4640 C   0  0  0  0  0  0  0  0  0  0  0  0
   -7.4630    1.6750   -0.4240 C   0  0  0  0  0  0  0  0  0  0  0  0
   -6.3300    1.0490    0.1110 C   0  0  0  0  0  0  0  0  0  0  0  0
   -4.2860   -1.3160    0.8250 C   0  0  0  0  0  0  0  0  0  0  0  0
   -3.3500   -2.5220    0.8630 C   0  0  0  0  0  0  0  0  0  0  0  0
  1  2  2  0
  2  3  1  0
  2 11  1  0
  3  4  2  3
  4  5  1  0
  5  6  2  0
  5 10  1  0
  6  7  1  0
  7  8  2  0
  8  9  1  0
  9 10  2  0
 11 12  1  0
 12 13  1  0
 13 14  1  0
 14 15  1  0
 16 15  1  1
 16 17  1  0
 16 29  1  0
 17 18  1  0
 18 19  1  0
 19 20  1  0
 19 28  1  0
 20 21  2  0
 20 22  1  0
 22 23  2  0
 22 27  1  0
 23 24  1  0
 24 25  2  0
 25 26  1  0
 26 27  2  0
 28 29  1  0
M  END
