
     RDKit          3D

 30 33  0  0  0  0  0  0  0  0999 V2000
    7.8650   -2.3050   -0.9970 C   0  0  0  0  0  0  0  0  0  0  0  0
    7.4910   -0.6420   -1.5500 S   0  0  0  0  0  0  0  0  0  0  0  0
    8.6910    0.2680   -1.4830 O   0  0  0  0  0  0  0  0  0  0  0  0
    6.0960    0.0300   -0.6630 C   0  0  0  0  0  0  0  0  0  0  0  0
    4.8130   -0.1460   -1.1380 C   0  0  0  0  0  0  0  0  0  0  0  0
    3.7420    0.3900   -0.4240 C   0  0  0  0  0  0  0  0  0  0  0  0
    3.9560    1.0880    0.7440 C   0  0  0  0  0  0  0  0  0  0  0  0
    2.8990    1.6510    1.5050 N   0  0  0  0  0  0  0  0  0  0  0  0
    1.5180    1.5040    1.0620 C   0  0  0  0  0  0  0  0  0  0  0  0
    0.8730    0.4040    1.3700 C   0  0  0  0  0  0  0  0  0  0  0  0
    1.4850   -0.5920    2.0970 N   0  0  0  0  0  0  0  0  0  0  0  0
    0.6330   -1.6090    2.2860 C   0  0  0  0  0  0  0  0  0  0  0  0
    0.8870   -2.8240    2.9880 N   0  0  0  0  0  0  0  0  0  0  0  0
   -0.5070   -1.2710    1.6910 N   0  0  0  0  0  0  0  0  0  0  0  0
   -0.3800   -0.0210    1.1140 C   0  0  0  0  0  0  0  0  0  0  0  0
   -1.3850    0.5060    0.4750 C   0  0  0  0  0  0  0  0  0  0  0  0
   -1.4940    1.7670   -0.1950 C   0  0  0  0  0  0  0  0  0  0  0  0
   -2.5850    2.1640   -0.8010 C   0  0  0  0  0  0  0  0  0  0  0  0
   -2.5030    3.7700   -1.5730 Cl  0  0  0  0  0  0  0  0  0  0  0  0
   -3.8090    1.4260   -0.8900 C   0  0  0  0  0  0  0  0  0  0  0  0
   -4.1880    0.2300   -0.4350 N   0  0  0  0  0  0  0  0  0  0  0  0
   -5.4530   -0.0480   -0.7690 C   0  0  0  0  0  0  0  0  0  0  0  0
   -6.2970   -1.1180   -0.5500 C   0  0  0  0  0  0  0  0  0  0  0  0
   -7.5730   -1.0830   -1.0450 C   0  0  0  0  0  0  0  0  0  0  0  0
   -8.0450    0.0140   -1.7680 C   0  0  0  0  0  0  0  0  0  0  0  0
   -7.2110    1.0780   -1.9890 C   0  0  0  0  0  0  0  0  0  0  0  0
   -5.9300    1.0300   -1.4850 C   0  0  0  0  0  0  0  0  0  0  0  0
   -4.9230    1.8980   -1.5430 N   0  0  0  0  0  0  0  0  0  0  0  0
    5.2260    1.2280    1.1600 N   0  0  0  0  0  0  0  0  0  0  0  0
    6.2420    0.7200    0.4830 N   0  0  0  0  0  0  0  0  0  0  0  0
  2  1  1  1
  2  3  2  0
  2  4  1  0
  4  5  2  0
  4 30  1  0
  5  6  1  0
  6  7  2  0
  7  8  1  0
  7 29  1  0
  8  9  1  0
  9 10  2  3
 10 11  1  0
 10 15  1  0
 11 12  2  0
 12 13  1  0
 12 14  1  0
 14 15  1  0
 15 16  2  3
 16 17  1  0
 17 18  2  3
 18 19  1  0
 18 20  1  0
 20 21  2  0
 20 28  1  0
 21 22  1  0
 22 23  2  0
 22 27  1  0
 23 24  1  0
 24 25  2  0
 25 26  1  0
 26 27  2  0
 27 28  1  0
 29 30  2  0
M  CHG  1  11   1
M  END
