
     RDKit          3D

 30 34  0  0  0  0  0  0  0  0999 V2000
   -2.2850   -3.0190    0.4090 C   0  0  0  0  0  0  0  0  0  0  0  0
   -2.8440   -1.6250    0.3990 C   0  0  0  0  0  0  0  0  0  0  0  0
   -2.2160   -0.5190   -0.0210 N   0  0  0  0  0  0  0  0  0  0  0  0
   -3.0130    0.5510    0.1130 C   0  0  0  0  0  0  0  0  0  0  0  0
   -2.7700    1.9730   -0.2150 C   0  0  1  0  0  0  0  0  0  0  0  0
   -3.0460    2.7900    0.9070 O   0  0  0  0  0  0  0  0  0  0  0  0
   -1.3840    2.2870   -0.6550 C   0  0  0  0  0  0  0  0  0  0  0  0
   -0.9280    1.5530   -1.7780 N   0  0  0  0  0  0  0  0  0  0  0  0
    0.6010    1.9290   -2.3810 S   0  0  2  0  0  0  0  0  0  0  0  0
    0.9290    3.4540   -2.2980 N   0  0  0  0  0  0  0  0  0  0  0  0
    0.6760    1.7060   -3.8790 O   0  0  0  0  0  0  0  0  0  0  0  0
    1.8410    1.0660   -1.5420 C   0  0  0  0  0  0  0  0  0  0  0  0
    1.4900    0.2070   -0.5310 C   0  0  0  0  0  0  0  0  0  0  0  0
    2.4160   -0.4930    0.1590 N   0  0  0  0  0  0  0  0  0  0  0  0
    3.7080   -0.3750   -0.1190 C   0  0  0  0  0  0  0  0  0  0  0  0
    4.0520    0.4910   -1.1360 C   0  0  0  0  0  0  0  0  0  0  0  0
    3.1510    1.1950   -1.8330 N   0  0  0  0  0  0  0  0  0  0  0  0
    5.4160    0.4200   -1.2060 N   0  0  0  0  0  0  0  0  0  0  0  0
    5.8900   -0.4380   -0.2890 C   0  0  0  0  0  0  0  0  0  0  0  0
    7.1660   -0.8550    0.0410 C   0  0  0  0  0  0  0  0  0  0  0  0
    7.3940   -1.7740    1.0550 C   0  0  0  0  0  0  0  0  0  0  0  0
    9.0370   -2.2700    1.4340 Cl  0  0  0  0  0  0  0  0  0  0  0  0
    6.3300   -2.3020    1.7700 C   0  0  0  0  0  0  0  0  0  0  0  0
    5.0640   -1.8800    1.4340 C   0  0  0  0  0  0  0  0  0  0  0  0
    4.8410   -0.9660    0.4250 C   0  0  0  0  0  0  0  0  0  0  0  0
   -4.1900    0.0350    0.6480 C   0  0  0  0  0  0  0  0  0  0  0  0
   -4.0770   -1.2810    0.8170 N   0  0  0  0  0  0  0  0  0  0  0  0
   -5.3090   -1.8510    1.3870 C   0  0  0  0  0  0  0  0  0  0  0  0
   -6.3280   -0.7580    1.1300 C   0  0  0  0  0  0  0  0  0  0  0  0
   -5.5320    0.5290    1.0840 C   0  0  0  0  0  0  0  0  0  0  0  0
  1  2  1  0
  2  3  2  0
  2 27  1  0
  3  4  1  0
  4  5  1  0
  4 26  2  0
  5  6  1  1
  5  7  1  0
  7  8  1  0
  9  8  1  1
  9 10  2  0
  9 11  2  0
  9 12  1  0
 12 13  2  0
 12 17  1  0
 13 14  1  0
 14 15  2  0
 15 16  1  0
 15 25  1  0
 16 17  2  0
 16 18  1  0
 18 19  1  0
 19 20  2  0
 19 25  1  0
 20 21  1  0
 21 22  1  0
 21 23  2  0
 23 24  1  0
 24 25  2  0
 26 27  1  0
 26 30  1  0
 27 28  1  0
 28 29  1  0
 29 30  1  0
M  CHG  1  10   1
M  END
