
     RDKit          3D

 30 33  0  0  0  0  0  0  0  0999 V2000
    4.6580   -2.2410    1.1210 C   0  0  0  0  0  0  0  0  0  0  0  0
    3.5410   -1.4160    0.5320 C   0  0  0  0  0  0  0  0  0  0  0  0
    2.2840   -1.7180    0.8720 N   0  0  0  0  0  0  0  0  0  0  0  0
    1.2400   -1.0180    0.3790 C   0  0  0  0  0  0  0  0  0  0  0  0
   -0.0770   -1.2880    0.7540 N   0  0  0  0  0  0  0  0  0  0  0  0
   -1.2180   -0.7170    0.1650 C   0  0  0  0  0  0  0  0  0  0  0  0
   -1.4050   -0.8240   -1.0730 N   0  0  0  0  0  0  0  0  0  0  0  0
   -0.5470   -1.4940   -1.9630 C   0  0  0  0  0  0  0  0  0  0  0  0
   -0.1790   -1.0880   -3.1700 C   0  0  0  0  0  0  0  0  0  0  0  0
    0.7180   -2.0630   -3.7750 C   0  0  0  0  0  0  0  0  0  0  0  0
    0.8430   -3.1000   -2.7880 N   0  0  0  0  0  0  0  0  0  0  0  0
    0.1370   -2.7780   -1.7820 C   0  0  0  0  0  0  0  0  0  0  0  0
   -2.2440   -0.0800    0.9550 N   0  0  0  0  0  0  0  0  0  0  0  0
   -2.9400    1.0410    0.5100 C   0  0  0  0  0  0  0  0  0  0  0  0
   -2.4710    1.7270   -0.6170 C   0  0  0  0  0  0  0  0  0  0  0  0
   -3.0770    2.8590   -1.0790 C   0  0  0  0  0  0  0  0  0  0  0  0
   -2.4420    3.6720   -2.4950 Cl  0  0  0  0  0  0  0  0  0  0  0  0
   -4.1880    3.3430   -0.4160 C   0  0  0  0  0  0  0  0  0  0  0  0
   -4.6510    2.6690    0.6930 C   0  0  0  0  0  0  0  0  0  0  0  0
   -5.7280    2.9440    1.5100 C   0  0  0  0  0  0  0  0  0  0  0  0
   -5.7280    1.9780    2.4200 N   0  0  0  0  0  0  0  0  0  0  0  0
   -4.7240    1.1120    2.2320 N   0  0  0  0  0  0  0  0  0  0  0  0
   -4.5200   -0.0360    3.0890 C   0  0  0  0  0  0  0  0  0  0  0  0
   -4.0490    1.5290    1.1660 C   0  0  0  0  0  0  0  0  0  0  0  0
    1.5550    0.0060   -0.4760 C   0  0  0  0  0  0  0  0  0  0  0  0
    2.8440    0.3480   -0.8510 C   0  0  0  0  0  0  0  0  0  0  0  0
    3.8800   -0.3920   -0.3260 C   0  0  0  0  0  0  0  0  0  0  0  0
    5.5300    0.0180   -0.7820 S   0  0  0  0  0  0  0  0  0  0  0  0
    6.2520    1.1850    0.2870 N   0  0  0  0  0  0  0  0  0  0  0  0
    6.4040   -1.2190   -0.9480 O   0  0  0  0  0  0  0  0  0  0  0  0
  1  2  1  0
  2  3  2  0
  2 27  1  0
  3  4  1  0
  4  5  1  0
  4 25  2  0
  5  6  1  0
  6  7  2  3
  6 13  1  0
  7  8  1  0
  8  9  2  0
  8 12  1  0
  9 10  1  0
 10 11  1  0
 11 12  2  0
 13 14  1  0
 14 15  2  0
 14 24  1  0
 15 16  1  0
 16 17  1  0
 16 18  2  0
 18 19  1  0
 19 20  1  0
 19 24  2  0
 20 21  2  0
 21 22  1  0
 22 23  1  0
 22 24  1  0
 25 26  1  0
 26 27  2  0
 27 28  1  0
 28 29  1  1
 28 30  2  0
M  CHG  1  29   1
M  END
