
     RDKit          3D

 30 33  0  0  0  0  0  0  0  0999 V2000
   -3.5040    1.8920   -0.6960 C   0  0  0  0  0  0  0  0  0  0  0  0
   -4.1400    1.4430    0.5250 N   0  0  0  0  0  0  0  0  0  0  0  0
   -4.5490    0.2800    0.8040 C   0  0  0  0  0  0  0  0  0  0  0  0
   -4.4080   -0.7980   -0.1340 N   0  0  0  0  0  0  0  0  0  0  0  0
   -3.1460   -1.1370   -0.6810 C   0  0  0  0  0  0  0  0  0  0  0  0
   -1.9450   -0.6770   -0.1880 C   0  0  0  0  0  0  0  0  0  0  0  0
   -0.7530   -1.0500   -0.7030 C   0  0  0  0  0  0  0  0  0  0  0  0
    0.5300   -0.6230   -0.2750 N   0  0  0  0  0  0  0  0  0  0  0  0
    0.7790    0.3910    0.6650 C   0  0  0  0  0  0  0  0  0  0  0  0
   -0.1660    1.0060    1.2010 O   0  0  0  0  0  0  0  0  0  0  0  0
    2.2040    0.7650    1.0550 C   0  0  0  0  0  0  0  0  0  0  0  0
    3.0690   -0.0790    0.3060 N   0  0  0  0  0  0  0  0  0  0  0  0
    4.3290   -0.1180    0.2260 C   0  0  0  0  0  0  0  0  0  0  0  0
    4.9970   -1.0140   -0.5590 N   0  0  0  0  0  0  0  0  0  0  0  0
    6.2820   -0.7870   -0.4150 N   0  0  0  0  0  0  0  0  0  0  0  0
    6.4760    0.2320    0.4430 C   0  0  0  0  0  0  0  0  0  0  0  0
    7.6180    0.8370    0.9150 C   0  0  0  0  0  0  0  0  0  0  0  0
    7.5370    1.8730    1.7980 C   0  0  0  0  0  0  0  0  0  0  0  0
    6.3040    2.3190    2.2220 C   0  0  0  0  0  0  0  0  0  0  0  0
    5.1820    1.6700    1.7130 C   0  0  0  0  0  0  0  0  0  0  0  0
    5.2380    0.6490    0.8440 N   0  0  0  0  0  0  0  0  0  0  0  0
   -0.7760   -1.9350   -1.7700 C   0  0  0  0  0  0  0  0  0  0  0  0
   -1.9520   -2.4130   -2.2850 C   0  0  0  0  0  0  0  0  0  0  0  0
   -2.2160   -3.2680   -3.3090 N   0  0  0  0  0  0  0  0  0  0  0  0
   -3.5280   -3.4450   -3.4580 C   0  0  0  0  0  0  0  0  0  0  0  0
   -4.1520   -2.6630   -2.4760 C   0  0  0  0  0  0  0  0  0  0  0  0
   -5.8780   -2.5710   -2.2920 Cl  0  0  0  0  0  0  0  0  0  0  0  0
   -3.1640   -2.0330   -1.7610 C   0  0  0  0  0  0  0  0  0  0  0  0
   -5.3860   -0.0240    2.3640 S   0  0  0  0  0  0  0  0  0  0  0  0
   -5.4520    1.4470    3.3810 C   0  0  0  0  0  0  0  0  0  0  0  0
  1  2  1  0
  2  3  2  3
  3  4  1  0
  3 29  1  0
  4  5  1  0
  5  6  2  0
  5 28  1  0
  6  7  1  0
  7  8  1  0
  7 22  2  0
  8  9  1  0
  9 10  2  0
  9 11  1  0
 11 12  1  0
 12 13  2  3
 13 14  1  0
 13 21  1  0
 14 15  1  0
 15 16  2  0
 16 17  1  0
 16 21  1  0
 17 18  2  0
 18 19  1  0
 19 20  2  0
 20 21  1  0
 22 23  1  0
 23 24  1  0
 23 28  2  0
 24 25  1  0
 25 26  2  0
 26 27  1  0
 26 28  1  0
 29 30  1  0
M  CHG  1   2   1
M  END
