
     RDKit          3D

 29 32  0  0  0  0  0  0  0  0999 V2000
    5.6880    0.6760   -1.1840 C   0  0  0  0  0  0  0  0  0  0  0  0
    6.1200    0.0870    0.0520 N   0  0  0  0  0  0  0  0  0  0  0  0
    7.5330    0.2740    0.3020 C   0  0  0  0  0  0  0  0  0  0  0  0
    5.6630   -1.2300    0.2600 C   0  0  0  0  0  0  0  0  0  0  0  0
    4.1460   -1.1970    0.4620 C   0  0  0  0  0  0  0  0  0  0  0  0
    3.3840   -0.0980    0.5160 C   0  0  0  0  0  0  0  0  0  0  0  0
    2.0640   -0.1890    0.7230 C   0  0  0  0  0  0  0  0  0  0  0  0
    1.0070    0.8620    0.8240 C   0  0  2  0  0  0  0  0  0  0  0  0
   -0.1470    0.5380    0.0700 N   0  0  0  0  0  0  0  0  0  0  0  0
   -0.7020    1.3280   -0.7590 C   0  0  0  0  0  0  0  0  0  0  0  0
   -1.8630    0.9350   -1.4840 N   0  0  0  0  0  0  0  0  0  0  0  0
   -2.9770    0.3400   -0.8290 C   0  0  0  0  0  0  0  0  0  0  0  0
   -4.0360   -0.2120   -1.5160 N   0  0  0  0  0  0  0  0  0  0  0  0
   -4.9750   -0.6650   -0.6910 C   0  0  0  0  0  0  0  0  0  0  0  0
   -6.2100   -1.2940   -0.8450 C   0  0  0  0  0  0  0  0  0  0  0  0
   -6.9900   -1.6620    0.2280 C   0  0  0  0  0  0  0  0  0  0  0  0
   -8.2570   -2.3070    0.0670 N   0  0  0  0  0  0  0  0  0  0  0  0
   -6.5180   -1.3920    1.4930 C   0  0  0  0  0  0  0  0  0  0  0  0
   -5.2860   -0.7650    1.6700 C   0  0  0  0  0  0  0  0  0  0  0  0
   -4.5260   -0.4070    0.5730 C   0  0  0  0  0  0  0  0  0  0  0  0
   -3.3030    0.2090    0.4570 N   0  0  0  0  0  0  0  0  0  0  0  0
   -2.5660    0.6580    1.6120 C   0  0  0  0  0  0  0  0  0  0  0  0
   -0.1720    2.6440   -1.0390 N   0  0  0  0  0  0  0  0  0  0  0  0
    1.0040    3.0400   -0.3530 C   0  0  0  0  0  0  0  0  0  0  0  0
    1.5430    4.1670   -0.5280 O   0  0  0  0  0  0  0  0  0  0  0  0
    1.5900    2.1390    0.5570 N   0  0  0  0  0  0  0  0  0  0  0  0
    1.7690   -1.8810    0.8650 S   0  0  0  0  0  0  0  0  0  0  0  0
    3.4600   -2.4370    0.6380 C   0  0  0  0  0  0  0  0  0  0  0  0
    4.0880   -4.0480    0.6350 Cl  0  0  0  0  0  0  0  0  0  0  0  0
  1  2  1  0
  2  3  1  0
  2  4  1  0
  4  5  1  0
  5  6  1  0
  5 28  2  0
  6  7  2  0
  8  7  1  6
  7 27  1  0
  8  9  1  0
  8 26  1  0
  9 10  2  0
 10 11  1  0
 10 23  1  0
 11 12  1  0
 12 13  2  0
 12 21  1  0
 13 14  1  0
 14 15  2  0
 14 20  1  0
 15 16  1  0
 16 17  1  0
 16 18  2  0
 18 19  1  0
 19 20  2  0
 20 21  1  0
 21 22  1  0
 23 24  1  0
 24 25  2  0
 24 26  1  0
 27 28  1  0
 28 29  1  0
M  CHG  1  13   1
M  END
