
     RDKit          3D

 30 33  0  0  0  0  0  0  0  0999 V2000
    8.0880    0.0010   -1.7810 C   0  0  0  0  0  0  0  0  0  0  0  0
    6.6810   -0.0970   -1.2580 C   0  0  0  0  0  0  0  0  0  0  0  0
    5.9460   -1.1940   -1.4250 N   0  0  0  0  0  0  0  0  0  0  0  0
    4.6850   -1.2520   -0.9430 C   0  0  0  0  0  0  0  0  0  0  0  0
    3.7440   -2.2320   -0.9790 N   0  0  0  0  0  0  0  0  0  0  0  0
    2.6490   -1.8050   -0.3590 C   0  0  0  0  0  0  0  0  0  0  0  0
    1.5730   -2.4990   -0.2200 N   0  0  0  0  0  0  0  0  0  0  0  0
    0.4590   -1.8860    0.4850 C   0  0  0  0  0  0  0  0  0  0  0  0
   -0.5740   -1.7830   -0.1830 O   0  0  0  0  0  0  0  0  0  0  0  0
    0.6350   -1.4810    1.7990 N   0  0  0  0  0  0  0  0  0  0  0  0
   -0.3470   -0.8580    2.6190 C   0  0  0  0  0  0  0  0  0  0  0  0
   -0.8910    0.4350    2.2860 C   0  0  2  0  0  0  0  0  0  0  0  0
   -1.8930    1.0250    3.3190 C   0  0  0  0  0  0  0  0  0  0  0  0
   -2.4980    2.5930    2.5500 S   0  0  0  0  0  0  0  0  0  0  0  0
   -1.4350    3.1490    1.2030 C   0  0  0  0  0  0  0  0  0  0  0  0
   -0.8090    1.9790    0.4290 C   0  0  0  0  0  0  0  0  0  0  0  0
   -1.4690    0.8130    1.0500 N   0  0  0  0  0  0  0  0  0  0  0  0
   -2.6270    0.3080    0.4180 C   0  0  0  0  0  0  0  0  0  0  0  0
   -3.3910   -0.7450    0.9370 C   0  0  0  0  0  0  0  0  0  0  0  0
   -4.5220   -1.2200    0.3100 C   0  0  0  0  0  0  0  0  0  0  0  0
   -4.9680   -0.6810   -0.8710 C   0  0  0  0  0  0  0  0  0  0  0  0
   -6.1440   -1.2010   -1.4910 N   0  0  0  0  0  0  0  0  0  0  0  0
   -6.6530   -0.6570   -2.7280 C   0  0  0  0  0  0  0  0  0  0  0  0
   -7.0810    1.0580   -2.6000 Cl  0  0  0  0  0  0  0  0  0  0  0  0
   -4.2470    0.3470   -1.4040 C   0  0  0  0  0  0  0  0  0  0  0  0
   -3.1190    0.8100   -0.7650 C   0  0  0  0  0  0  0  0  0  0  0  0
    2.8960   -0.5580    0.0670 N   0  0  0  0  0  0  0  0  0  0  0  0
    4.1440   -0.1770   -0.2730 C   0  0  0  0  0  0  0  0  0  0  0  0
    4.9010    0.9530   -0.1010 C   0  0  0  0  0  0  0  0  0  0  0  0
    6.1490    0.9560   -0.6010 N   0  0  0  0  0  0  0  0  0  0  0  0
  1  2  1  0
  2  3  2  0
  2 30  1  0
  3  4  1  0
  4  5  1  0
  4 28  2  0
  5  6  1  0
  6  7  2  3
  6 27  1  0
  7  8  1  0
  8  9  2  0
  8 10  1  0
 10 11  1  0
 12 11  1  6
 12 13  1  0
 12 17  1  0
 13 14  1  0
 14 15  1  0
 15 16  1  0
 16 17  1  0
 17 18  1  0
 18 19  2  0
 18 26  1  0
 19 20  1  0
 20 21  2  0
 21 22  1  0
 21 25  1  0
 22 23  1  0
 23 24  1  0
 25 26  2  0
 27 28  1  0
 28 29  1  0
 29 30  2  0
M  CHG  1  30   1
M  END
