
     RDKit          3D

 18 17  0  0  0  0  0  0  0  0999 V2000
   -2.2840   -3.6060    1.5040 N   0  0  0  0  0  0  0  0  0  0  0  0
   -1.5960   -2.4460    1.0820 C   0  0  0  0  0  0  0  0  0  0  0  0
   -0.5820   -2.0840    1.7120 O   0  0  0  0  0  0  0  0  0  0  0  0
   -2.0620   -1.6880   -0.0690 C   0  0  0  0  0  0  0  0  0  0  0  0
   -1.2440   -0.5140   -0.3820 N   0  0  0  0  0  0  0  0  0  0  0  0
   -0.1510   -0.6300   -1.2970 C   0  0  0  0  0  0  0  0  0  0  0  0
    1.4730   -1.0220   -0.4790 P   0  0  0  0  0  0  0  0  0  0  0  0
    1.6370   -0.0750    0.9630 O   0  0  0  0  0  0  0  0  0  0  0  0
    2.7400   -0.5450   -1.5640 O   0  0  0  0  0  0  0  0  0  0  0  0
    3.4110    0.9980   -1.1350 P   0  0  0  0  0  0  0  0  0  0  0  0
    4.8470    1.1970   -2.1160 O   0  0  0  0  0  0  0  0  0  0  0  0
    3.9080    1.0400    0.5290 O   0  0  0  0  0  0  0  0  0  0  0  0
   -1.6120    0.6950    0.2440 C   0  0  0  0  0  0  0  0  0  0  0  0
   -2.6420    0.6920    1.0280 O   0  0  0  0  0  0  0  0  0  0  0  0
   -0.9070    1.9480    0.0660 C   0  0  0  0  0  0  0  0  0  0  0  0
    0.1030    2.0410   -0.6620 O   0  0  0  0  0  0  0  0  0  0  0  0
   -1.3850    3.1210    0.7480 N   0  0  0  0  0  0  0  0  0  0  0  0
   -0.7840    4.3230    0.6330 O   0  0  0  0  0  0  0  0  0  0  0  0
  1  2  1  0
  2  3  2  0
  2  4  1  0
  4  5  1  0
  5  6  1  0
  5 13  1  0
  6  7  1  0
  7  8  1  0
  7  9  1  0
  9 10  1  0
 10 11  1  0
 10 12  1  0
 13 14  2  0
 13 15  1  0
 15 16  2  0
 15 17  1  0
 17 18  1  0
M  END
