
     RDKit          3D

  8  7  0  0  0  0  0  0  0  0999 V2000
   -3.2290    0.2030   -0.3150 N   0  0  0  0  0  0  0  0  0  0  0  0
   -1.9450    0.3210    0.0480 O   0  0  0  0  0  0  0  0  0  0  0  0
   -1.1760   -0.8010   -0.2300 C   0  0  0  0  0  0  0  0  0  0  0  0
    0.2420   -0.4360    0.2030 C   0  0  0  0  0  0  0  0  0  0  0  0
    0.6770    0.4950   -0.7370 O   0  0  0  0  0  0  0  0  0  0  0  0
    2.3120    0.9740   -0.5350 P   0  0  0  0  0  0  0  0  0  0  0  0
    2.5750    1.9180    0.8850 O   0  0  0  0  0  0  0  0  0  0  0  0
    3.3830   -0.3720   -0.6510 O   0  0  0  0  0  0  0  0  0  0  0  0
  1  2  1  0
  2  3  1  0
  3  4  1  0
  4  5  1  0
  5  6  1  0
  6  7  1  0
  6  8  1  0
M  END
