
     RDKit          3D

  8  7  0  0  0  0  0  0  0  0999 V2000
   -3.2290    1.1950   -0.7860 O   0  0  0  0  0  0  0  0  0  0  0  0
   -2.6420    0.1540   -0.8800 N   0  0  0  0  0  0  0  0  0  0  0  0
   -1.5910   -0.1550    0.0280 C   0  0  0  0  0  0  0  0  0  0  0  0
   -0.4180   -0.8530   -0.6550 C   0  0  0  0  0  0  0  0  0  0  0  0
    0.4790   -1.1090    0.3660 O   0  0  0  0  0  0  0  0  0  0  0  0
    1.6750    0.0940    0.5940 P   0  0  0  0  0  0  0  0  0  0  0  0
    3.1420   -0.3770   -0.2060 O   0  0  0  0  0  0  0  0  0  0  0  0
    1.1850    1.6710    0.1010 O   0  0  0  0  0  0  0  0  0  0  0  0
  1  2  2  0
  2  3  1  0
  3  4  1  0
  4  5  1  0
  5  6  1  0
  6  7  1  0
  6  8  1  0
M  END
