
     RDKit          3D

 15 16  0  0  0  0  0  0  0  0999 V2000
    0.1740    2.3260   -0.1560 N   0  0  0  0  0  0  0  0  0  0  0  0
   -0.1200    1.1840   -1.4490 P   0  0  2  0  0  0  0  0  0  0  0  0
    0.0580    1.8510   -2.7840 O   0  0  0  0  0  0  0  0  0  0  0  0
   -1.7120    0.6570   -1.3160 O   0  0  0  0  0  0  0  0  0  0  0  0
   -1.9770    0.0760   -0.0850 C   0  0  1  0  0  0  0  0  0  0  0  0
   -3.0650    0.8970    0.5740 C   0  0  0  0  0  0  0  0  0  0  0  0
   -3.6220   -0.0910    1.5840 C   0  0  0  0  0  0  0  0  0  0  0  0
   -3.7870   -1.3290    0.7120 C   0  0  0  0  0  0  0  0  0  0  0  0
   -2.5920   -1.2830   -0.2070 C   0  0  0  0  0  0  0  0  0  0  0  0
    0.9410   -0.0950   -1.3350 O   0  0  0  0  0  0  0  0  0  0  0  0
    2.0060    0.1240   -0.4840 C   0  0  1  0  0  0  0  0  0  0  0  0
    2.0910   -0.8590    0.6370 C   0  0  0  0  0  0  0  0  0  0  0  0
    3.5410   -0.9910    0.9740 C   0  0  0  0  0  0  0  0  0  0  0  0
    4.2780    0.0010    0.0660 C   0  0  0  0  0  0  0  0  0  0  0  0
    3.3410    0.0230   -1.1480 C   0  0  0  0  0  0  0  0  0  0  0  0
  2  1  1  1
  2  3  2  0
  2  4  1  0
  2 10  1  0
  5  4  1  6
  5  6  1  0
  5  9  1  0
  6  7  1  0
  7  8  1  0
  8  9  1  0
 11 10  1  6
 11 12  1  0
 11 15  1  0
 12 13  1  0
 13 14  1  0
 14 15  1  0
M  END
