
     RDKit          3D

  8  7  0  0  0  0  0  0  0  0999 V2000
    2.7410    0.2500    0.0390 C   0  0  0  0  0  0  0  0  0  0  0  0
    1.6750   -0.2970   -0.7010 O   0  0  0  0  0  0  0  0  0  0  0  0
    0.3950   -0.1140   -0.1830 C   0  0  0  0  0  0  0  0  0  0  0  0
    0.1980    0.5110    0.8960 O   0  0  0  0  0  0  0  0  0  0  0  0
   -0.6970   -0.6670   -0.9300 N   0  0  0  0  0  0  0  0  0  0  0  0
   -2.3510   -0.4390   -0.2800 P   0  0  0  0  0  0  0  0  0  0  0  0
   -2.6910    1.2550   -0.0760 O   0  0  0  0  0  0  0  0  0  0  0  0
   -2.4760   -1.3130    1.1870 O   0  0  0  0  0  0  0  0  0  0  0  0
  1  2  1  0
  2  3  1  0
  3  4  2  0
  3  5  1  0
  5  6  1  0
  6  7  1  0
  6  8  1  0
M  END
