
     RDKit          3D

 18 17  0  0  0  0  0  0  0  0999 V2000
    2.3850    2.6930   -0.5120 O   0  0  0  0  0  0  0  0  0  0  0  0
    2.1740    2.6630    0.7130 C   0  0  0  0  0  0  0  0  0  0  0  0
    3.1840    3.1380    1.5740 O   0  0  0  0  0  0  0  0  0  0  0  0
    0.9740    2.1780    1.2740 N   0  0  0  0  0  0  0  0  0  0  0  0
   -0.1440    1.6430    0.5670 C   0  0  0  0  0  0  0  0  0  0  0  0
    0.0410    0.3610   -0.1730 C   0  0  1  0  0  0  0  0  0  0  0  0
    0.4830   -0.7600    0.7850 C   0  0  0  0  0  0  0  0  0  0  0  0
    0.6940   -2.3140   -0.1710 P   0  0  0  0  0  0  0  0  0  0  0  0
   -0.2600   -3.5910    0.5290 O   0  0  0  0  0  0  0  0  0  0  0  0
    2.3500   -2.8090   -0.2130 O   0  0  0  0  0  0  0  0  0  0  0  0
   -1.2400   -0.0510   -0.7900 N   0  0  0  0  0  0  0  0  0  0  0  0
   -2.4020   -0.3180   -0.0260 C   0  0  0  0  0  0  0  0  0  0  0  0
   -2.3970   -0.2190    1.2100 O   0  0  0  0  0  0  0  0  0  0  0  0
   -3.6720   -0.7290   -0.6950 C   0  0  0  0  0  0  0  0  0  0  0  0
   -4.6510   -0.9310    0.2460 O   0  0  0  0  0  0  0  0  0  0  0  0
    1.2940    0.4190   -1.5140 P   0  0  0  0  0  0  0  0  0  0  0  0
    0.6950   -0.3390   -2.9390 O   0  0  0  0  0  0  0  0  0  0  0  0
    2.7770   -0.3360   -1.0170 O   0  0  0  0  0  0  0  0  0  0  0  0
  1  2  2  0
  2  3  1  0
  2  4  1  0
  4  5  1  0
  6  5  1  1
  6  7  1  0
  6 11  1  0
  6 16  1  0
  7  8  1  0
  8  9  1  0
  8 10  1  0
 11 12  1  0
 12 13  2  0
 12 14  1  0
 14 15  1  0
 16 17  1  0
 16 18  1  0
M  END
