
     RDKit          3D

  9  8  0  0  0  0  0  0  0  0999 V2000
   -2.4760   -1.0900    0.4250 N   0  0  0  0  0  0  0  0  0  0  0  0
   -1.8770    0.1270   -0.0600 C   0  0  1  0  0  0  0  0  0  0  0  0
   -2.8290    1.1410    0.0280 O   0  0  0  0  0  0  0  0  0  0  0  0
   -0.7240    0.4950    0.8380 C   0  0  0  0  0  0  0  0  0  0  0  0
    0.2610   -0.4700    0.8860 O   0  0  0  0  0  0  0  0  0  0  0  0
    0.8350   -0.7440   -0.3390 C   0  0  0  0  0  0  0  0  0  0  0  0
    1.4390    0.3710   -0.9150 O   0  0  0  0  0  0  0  0  0  0  0  0
    2.4330    0.8070   -0.0400 C   0  0  0  0  0  0  0  0  0  0  0  0
    3.3920   -0.2080    0.1650 O   0  0  0  0  0  0  0  0  0  0  0  0
  2  1  1  1
  2  3  1  0
  2  4  1  0
  4  5  1  0
  5  6  1  0
  6  7  1  0
  7  8  1  0
  8  9  1  0
M  END
