
     RDKit          3D

  9  8  0  0  0  0  0  0  0  0999 V2000
    3.0280    0.0930   -0.8960 N   0  0  0  0  0  0  0  0  0  0  0  0
    2.0750   -0.1350    0.1770 C   0  0  2  0  0  0  0  0  0  0  0  0
    2.4380   -1.3280    0.8040 O   0  0  0  0  0  0  0  0  0  0  0  0
    0.7820   -0.2960   -0.3100 O   0  0  0  0  0  0  0  0  0  0  0  0
   -0.0370    0.6030    0.3240 C   0  0  0  0  0  0  0  0  0  0  0  0
   -1.4700    0.5420   -0.1050 C   0  0  1  0  0  0  0  0  0  0  0  0
   -1.6610    0.7890   -1.4460 O   0  0  0  0  0  0  0  0  0  0  0  0
   -2.1490   -0.7540    0.2540 C   0  0  0  0  0  0  0  0  0  0  0  0
   -3.5140   -0.5860   -0.0430 O   0  0  0  0  0  0  0  0  0  0  0  0
  2  1  1  6
  2  3  1  0
  2  4  1  0
  4  5  1  0
  5  6  1  0
  6  7  1  6
  6  8  1  0
  8  9  1  0
M  END
