
     RDKit          3D

  9  8  0  0  0  0  0  0  0  0999 V2000
   -0.1500    1.5830   -0.3960 C   0  0  0  0  0  0  0  0  0  0  0  0
   -0.1200    0.1310   -0.3540 N   0  0  0  0  0  0  0  0  0  0  0  0
    0.8370   -0.3550    0.6150 C   0  0  0  0  0  0  0  0  0  0  0  0
    2.2650   -0.0770    0.2320 C   0  0  0  0  0  0  0  0  0  0  0  0
    2.6100   -0.6680   -0.9750 O   0  0  0  0  0  0  0  0  0  0  0  0
   -1.4310   -0.3560    0.1070 C   0  0  1  0  0  0  0  0  0  0  0  0
   -1.7190    0.1220    1.3790 O   0  0  0  0  0  0  0  0  0  0  0  0
   -2.4150    0.0950   -0.7870 O   0  0  0  0  0  0  0  0  0  0  0  0
   -1.4550   -1.7310    0.1400 O   0  0  0  0  0  0  0  0  0  0  0  0
  1  2  1  0
  2  3  1  0
  2  6  1  0
  3  4  1  0
  4  5  1  0
  6  7  1  1
  6  8  1  0
  6  9  1  0
M  END
