
     RDKit          3D

  9  8  0  0  0  0  0  0  0  0999 V2000
   -2.2620   -0.3580    0.8510 N   0  0  0  0  0  0  0  0  0  0  0  0
   -0.8470   -0.5340    1.0950 C   0  0  2  0  0  0  0  0  0  0  0  0
   -0.4370    0.2180    2.1940 O   0  0  0  0  0  0  0  0  0  0  0  0
   -0.0920   -0.1130   -0.1520 C   0  0  1  0  0  0  0  0  0  0  0  0
   -0.4330    1.3450   -0.4560 C   0  0  0  0  0  0  0  0  0  0  0  0
    0.1660    1.7690   -1.6260 O   0  0  0  0  0  0  0  0  0  0  0  0
    1.2730   -0.2440   -0.0190 O   0  0  0  0  0  0  0  0  0  0  0  0
    1.8210   -1.0940   -0.9790 C   0  0  0  0  0  0  0  0  0  0  0  0
    3.1810   -1.1930   -0.8080 O   0  0  0  0  0  0  0  0  0  0  0  0
  2  1  1  6
  2  3  1  0
  2  4  1  0
  4  5  1  1
  4  7  1  0
  5  6  1  0
  7  8  1  0
  8  9  1  0
M  END
