
     RDKit          3D

  9  8  0  0  0  0  0  0  0  0999 V2000
    2.5200    0.9500    0.4220 C   0  0  0  0  0  0  0  0  0  0  0  0
    1.3320    1.1130   -0.2770 O   0  0  0  0  0  0  0  0  0  0  0  0
    0.9840    0.1060   -1.0210 N   0  0  0  0  0  0  0  0  0  0  0  0
    0.0760   -0.8570   -0.5850 C   0  0  1  0  0  0  0  0  0  0  0  0
    0.5530   -1.4210    0.6130 O   0  0  0  0  0  0  0  0  0  0  0  0
   -1.3600   -0.4770   -0.4220 C   0  0  1  0  0  0  0  0  0  0  0  0
   -2.0060   -1.6690    0.0220 O   0  0  0  0  0  0  0  0  0  0  0  0
   -1.6320    0.5320    0.6460 C   0  0  0  0  0  0  0  0  0  0  0  0
   -1.0830    1.7650    0.3380 O   0  0  0  0  0  0  0  0  0  0  0  0
  1  2  1  0
  2  3  1  0
  3  4  1  0
  4  5  1  1
  4  6  1  0
  6  7  1  1
  6  8  1  0
  8  9  1  0
M  END
