
     RDKit          3D

 10 11  0  0  0  0  0  0  0  0999 V2000
   -1.8260    1.2680    0.1120 C   0  0  0  0  0  0  0  0  0  0  0  0
   -0.5800    0.4620    0.0420 C   0  0  0  0  0  0  0  0  0  0  0  0
    0.6600    0.9200    0.0510 C   0  0  0  0  0  0  0  0  0  0  0  0
    1.5010    2.0690    0.1090 N   0  0  0  0  0  0  0  0  0  0  0  0
    2.7140    1.7060    0.0680 N   0  0  0  0  0  0  0  0  0  0  0  0
    2.8350    0.3040   -0.0210 C   0  0  0  0  0  0  0  0  0  0  0  0
    1.6140   -0.2070   -0.0330 C   0  0  0  0  0  0  0  0  0  0  0  0
    0.7930   -1.3680   -0.0930 N   0  0  0  0  0  0  0  0  0  0  0  0
   -0.5820   -1.0130   -0.0490 C   0  0  0  0  0  0  0  0  0  0  0  0
   -1.6210   -1.7700   -0.0800 N   0  0  0  0  0  0  0  0  0  0  0  0
  1  2  1  0
  2  3  2  0
  2  9  1  0
  3  4  1  0
  3  7  1  0
  4  5  2  0
  5  6  1  0
  6  7  2  0
  7  8  1  0
  8  9  1  0
  9 10  2  0
M  CHG  1  10   1
M  END
