
     RDKit          3D

 20 20  0  0  0  0  0  0  0  0999 V2000
    5.4610   -0.5900    1.3350 C   0  0  0  0  0  0  0  0  0  0  0  0
    4.7550    0.5860    1.0920 O   0  0  0  0  0  0  0  0  0  0  0  0
    4.4000    0.7710   -0.2210 C   0  0  2  0  0  0  0  0  0  0  0  0
    5.3230    1.7220   -0.7870 O   0  0  0  0  0  0  0  0  0  0  0  0
    3.0330    1.1930   -0.5030 C   0  0  0  0  0  0  0  0  0  0  0  0
    2.8980    2.2930   -1.1880 O   0  0  0  0  0  0  0  0  0  0  0  0
    1.8360    0.5760   -0.1400 N   0  0  0  0  0  0  0  0  0  0  0  0
    0.4560    1.0350   -0.4680 C   0  0  0  0  0  0  0  0  0  0  0  0
   -0.3120   -0.2640   -0.6480 C   0  0  2  0  0  0  0  0  0  0  0  0
   -1.6780   -0.0450   -0.0490 C   0  0  0  0  0  0  0  0  0  0  0  0
   -1.9850   -0.6670    0.9850 O   0  0  0  0  0  0  0  0  0  0  0  0
   -2.5780    0.8460   -0.6530 N   0  0  0  0  0  0  0  0  0  0  0  0
   -3.9000    1.1380   -0.2150 C   0  0  0  0  0  0  0  0  0  0  0  0
   -4.8480    0.0160   -0.2990 C   0  0  0  0  0  0  0  0  0  0  0  0
   -4.5620   -1.4940    0.6550 P   0  0  0  0  0  0  0  0  0  0  0  0
   -4.3620   -2.8900   -0.3220 O   0  0  0  0  0  0  0  0  0  0  0  0
   -5.6720   -1.7390    1.9530 O   0  0  0  0  0  0  0  0  0  0  0  0
    0.4170   -1.2070    0.1380 N   0  0  0  0  0  0  0  0  0  0  0  0
    1.6410   -0.5990    0.6110 C   0  0  0  0  0  0  0  0  0  0  0  0
    2.3350   -1.0810    1.5140 O   0  0  0  0  0  0  0  0  0  0  0  0
  1  2  1  0
  2  3  1  0
  3  4  1  1
  3  5  1  0
  5  6  2  0
  5  7  1  0
  7  8  1  0
  7 19  1  0
  8  9  1  0
  9 10  1  1
  9 18  1  0
 10 11  2  0
 10 12  1  0
 12 13  1  0
 13 14  1  0
 14 15  1  0
 15 16  1  0
 15 17  1  0
 18 19  1  0
 19 20  2  0
M  END
