
     RDKit          3D

 24 23  0  0  0  0  0  0  0  0999 V2000
   -4.1190   -1.9300    2.0330 C   0  0  0  0  0  0  0  0  0  0  0  0
   -4.5950   -1.2510    1.0270 C   0  0  0  0  0  0  0  0  0  0  0  0
   -3.8070   -0.3650    0.1950 C   0  0  0  0  0  0  0  0  0  0  0  0
   -4.3590    0.2810   -0.7940 C   0  0  0  0  0  0  0  0  0  0  0  0
   -5.8050    0.1050   -1.0670 C   0  0  0  0  0  0  0  0  0  0  0  0
   -2.3700   -0.1980    0.4760 C   0  0  0  0  0  0  0  0  0  0  0  0
   -1.5580    0.9770   -0.7090 P   0  0  0  0  0  0  0  0  0  0  0  0
   -1.8610    2.6170   -0.3100 O   0  0  0  0  0  0  0  0  0  0  0  0
   -1.0610    3.0820    0.7250 C   0  0  0  0  0  0  0  0  0  0  0  0
   -1.4570    4.5440    0.9490 C   0  0  0  0  0  0  0  0  0  0  0  0
    0.1610    0.7360   -0.7400 O   0  0  0  0  0  0  0  0  0  0  0  0
    0.4320   -0.4230   -0.0360 C   0  0  0  0  0  0  0  0  0  0  0  0
    1.9220   -0.7300   -0.0010 C   0  0  2  0  0  0  0  0  0  0  0  0
    2.0550   -2.0280    0.8060 C   0  0  0  0  0  0  0  0  0  0  0  0
    1.3770   -1.7720    2.5140 P   0  0  0  0  0  0  0  0  0  0  0  0
    1.3880   -0.3900    3.2230 O   0  0  0  0  0  0  0  0  0  0  0  0
    2.6920    0.3250    0.6550 C   0  0  0  0  0  0  0  0  0  0  0  0
    2.1050    1.3510    1.0800 O   0  0  0  0  0  0  0  0  0  0  0  0
    4.1360    0.2930    0.8750 C   0  0  0  0  0  0  0  0  0  0  0  0
    4.8700   -0.7320    0.3250 O   0  0  0  0  0  0  0  0  0  0  0  0
    5.1130   -1.0060   -1.0000 C   0  0  0  0  0  0  0  0  0  0  0  0
    4.6280   -0.2320   -1.8620 O   0  0  0  0  0  0  0  0  0  0  0  0
    5.8760   -2.1090   -1.3860 O   0  0  0  0  0  0  0  0  0  0  0  0
    6.1080   -2.3630   -2.7620 C   0  0  0  0  0  0  0  0  0  0  0  0
  1  2  2  0
  2  3  1  0
  3  4  2  3
  3  6  1  0
  4  5  1  0
  6  7  1  0
  7  8  1  0
  7 11  1  0
  8  9  1  0
  9 10  1  0
 11 12  1  0
 13 12  1  1
 13 14  1  0
 13 17  1  0
 14 15  1  0
 15 16  2  0
 17 18  2  0
 17 19  1  0
 19 20  1  0
 20 21  1  0
 21 22  2  0
 21 23  1  0
 23 24  1  0
M  END
