
     RDKit          3D

 27 29  0  0  0  0  0  0  0  0999 V2000
    5.8380   -2.4540   -0.0310 N   0  0  0  0  0  0  0  0  0  0  0  0
    4.9300   -1.4820    0.4850 C   0  0  0  0  0  0  0  0  0  0  0  0
    5.3500   -0.5200    1.3270 N   0  0  0  0  0  0  0  0  0  0  0  0
    4.5240    0.4120    1.8330 C   0  0  0  0  0  0  0  0  0  0  0  0
    3.2260    0.3840    1.4850 N   0  0  0  0  0  0  0  0  0  0  0  0
    2.7080   -0.5340    0.6520 C   0  0  0  0  0  0  0  0  0  0  0  0
    3.5950   -1.4880    0.1450 C   0  0  0  0  0  0  0  0  0  0  0  0
    2.8410   -2.2700   -0.6440 N   0  0  0  0  0  0  0  0  0  0  0  0
    1.5630   -1.8490   -0.6430 C   0  0  0  0  0  0  0  0  0  0  0  0
    1.4840   -0.7760    0.1580 N   0  0  0  0  0  0  0  0  0  0  0  0
    0.3060   -0.0270    0.4370 C   0  0  2  0  0  0  0  0  0  0  0  0
   -0.8140   -0.8330    0.7200 O   0  0  0  0  0  0  0  0  0  0  0  0
   -1.7820    0.1660    0.7700 C   0  0  2  0  0  0  0  0  0  0  0  0
   -3.1350   -0.3130    1.1340 C   0  0  0  0  0  0  0  0  0  0  0  0
   -3.6000   -1.2390    0.2370 O   0  0  0  0  0  0  0  0  0  0  0  0
   -5.1250   -1.6940    0.7750 P   0  0  0  0  0  0  0  0  0  0  0  0
   -5.8250   -3.0460    0.2190 O   0  0  0  0  0  0  0  0  0  0  0  0
   -5.7510   -0.7340   -0.2350 O   0  0  0  0  0  0  0  0  0  0  0  0
   -5.8300   -0.8790    2.0310 O   0  0  0  0  0  0  0  0  0  0  0  0
   -1.6590    0.7920   -0.5750 C   0  0  1  0  0  0  0  0  0  0  0  0
   -2.2170    2.0470   -0.5310 O   0  0  0  0  0  0  0  0  0  0  0  0
   -0.1310    0.8580   -0.7450 C   0  0  1  0  0  0  0  0  0  0  0  0
    0.3350    2.0900   -0.5150 O   0  0  0  0  0  0  0  0  0  0  0  0
    1.3510    2.8790   -1.4810 P   0  0  0  0  0  0  0  0  0  0  0  0
    0.9440    3.4990   -2.9300 O   0  0  0  0  0  0  0  0  0  0  0  0
    2.8730    3.3750   -0.8450 O   0  0  0  0  0  0  0  0  0  0  0  0
    2.0470    1.6120   -1.9610 O   0  0  0  0  0  0  0  0  0  0  0  0
  1  2  1  0
  2  3  2  0
  2  7  1  0
  3  4  1  0
  4  5  2  0
  5  6  1  0
  6  7  2  0
  6 10  1  0
  7  8  1  0
  8  9  2  0
  9 10  1  0
 11 10  1  6
 11 12  1  0
 11 22  1  0
 12 13  1  0
 13 14  1  6
 13 20  1  0
 14 15  1  0
 15 16  1  0
 16 17  1  0
 16 18  1  0
 16 19  1  0
 20 21  1  1
 20 22  1  0
 22 23  1  1
 23 24  1  0
 24 25  1  0
 24 26  1  0
 24 27  1  0
M  END
