
     RDKit          3D

 24 23  0  0  0  0  0  0  0  0999 V2000
   -6.8630   -0.2670    2.4580 C   0  0  0  0  0  0  0  0  0  0  0  0
   -5.9640    0.1970    1.3800 C   0  0  0  0  0  0  0  0  0  0  0  0
   -5.4810   -0.8000    0.5520 O   0  0  0  0  0  0  0  0  0  0  0  0
   -4.4480   -0.2690   -0.6840 P   0  0  0  0  0  0  0  0  0  0  0  0
   -4.8380   -1.1600   -2.2860 C   0  0  0  0  0  0  0  0  0  0  0  0
   -2.7680   -0.3610   -0.3430 O   0  0  0  0  0  0  0  0  0  0  0  0
   -1.7650    0.4050   -0.8370 C   0  0  0  0  0  0  0  0  0  0  0  0
   -2.0490    1.3880   -1.9310 C   0  0  0  0  0  0  0  0  0  0  0  0
   -0.5430    0.3340   -0.4070 C   0  0  0  0  0  0  0  0  0  0  0  0
    0.4930    1.2120   -0.9990 C   0  0  0  0  0  0  0  0  0  0  0  0
    1.7550    1.1950   -0.6110 C   0  0  0  0  0  0  0  0  0  0  0  0
    2.7760    2.0360   -1.1700 C   0  0  0  0  0  0  0  0  0  0  0  0
    2.5060    2.8520   -2.0810 O   0  0  0  0  0  0  0  0  0  0  0  0
    4.4890    1.9250   -0.5540 P   0  0  0  0  0  0  0  0  0  0  0  0
    4.6280    2.9330    1.0010 C   0  0  0  0  0  0  0  0  0  0  0  0
    4.8070    0.1340   -0.0790 C   0  0  0  0  0  0  0  0  0  0  0  0
    5.5370    0.0820    1.2430 C   0  0  0  0  0  0  0  0  0  0  0  0
    5.8060   -1.1820    1.6790 O   0  0  0  0  0  0  0  0  0  0  0  0
    6.6060   -1.8640    0.7840 C   0  0  0  0  0  0  0  0  0  0  0  0
   -0.0810   -0.6040    0.6100 C   0  0  0  0  0  0  0  0  0  0  0  0
   -0.9670   -1.5050    1.1600 O   0  0  0  0  0  0  0  0  0  0  0  0
   -1.5160   -2.5800    0.5150 C   0  0  0  0  0  0  0  0  0  0  0  0
   -1.2210   -2.8400   -0.6840 O   0  0  0  0  0  0  0  0  0  0  0  0
   -2.4180   -3.4230    1.1600 O   0  0  0  0  0  0  0  0  0  0  0  0
  1  2  1  0
  2  3  1  0
  3  4  1  0
  4  5  1  0
  4  6  1  0
  6  7  1  0
  7  8  1  0
  7  9  2  3
  9 10  1  0
  9 20  1  0
 10 11  2  3
 11 12  1  0
 12 13  2  0
 12 14  1  0
 14 15  1  0
 14 16  1  0
 16 17  1  0
 17 18  1  0
 18 19  1  0
 20 21  1  0
 21 22  1  0
 22 23  2  0
 22 24  1  0
M  END
