
     RDKit          3D

 24 23  0  0  0  0  0  0  0  0999 V2000
   -0.8930   -5.3130   -0.5820 C   0  0  0  0  0  0  0  0  0  0  0  0
   -1.7700   -4.3290   -0.5390 C   0  0  0  0  0  0  0  0  0  0  0  0
   -1.3860   -2.9470   -0.3930 C   0  0  0  0  0  0  0  0  0  0  0  0
   -2.2620   -1.9590   -0.3490 C   0  0  0  0  0  0  0  0  0  0  0  0
   -4.0410   -2.4000   -0.4830 P   0  0  0  0  0  0  0  0  0  0  0  0
   -4.9240   -1.9330   -1.6660 O   0  0  0  0  0  0  0  0  0  0  0  0
   -1.8460   -0.5700   -0.2000 C   0  0  0  0  0  0  0  0  0  0  0  0
   -2.7510    0.4040   -0.1590 C   0  0  0  0  0  0  0  0  0  0  0  0
   -2.3440    1.7850   -0.0120 C   0  0  0  0  0  0  0  0  0  0  0  0
   -3.1760    2.7840    0.0350 C   0  0  0  0  0  0  0  0  0  0  0  0
   -4.6460    2.6990   -0.0510 C   0  0  0  0  0  0  0  0  0  0  0  0
   -5.2950    3.2600    1.2000 C   0  0  0  0  0  0  0  0  0  0  0  0
   -0.4890   -0.2960   -0.1030 O   0  0  0  0  0  0  0  0  0  0  0  0
    0.2260   -0.0560   -1.2390 C   0  0  0  0  0  0  0  0  0  0  0  0
   -0.3850   -0.0940   -2.3520 O   0  0  0  0  0  0  0  0  0  0  0  0
    1.6670    0.2470   -1.2980 C   0  0  0  0  0  0  0  0  0  0  0  0
    2.2840    0.2750   -0.0480 O   0  0  0  0  0  0  0  0  0  0  0  0
    3.6540    0.5520    0.0450 C   0  0  0  0  0  0  0  0  0  0  0  0
    4.2570    0.7620   -1.0180 O   0  0  0  0  0  0  0  0  0  0  0  0
    4.3440    0.6020    1.2160 O   0  0  0  0  0  0  0  0  0  0  0  0
    5.7160    0.8700    1.3870 C   0  0  0  0  0  0  0  0  0  0  0  0
    6.5200   -0.1890    0.6730 C   0  0  0  0  0  0  0  0  0  0  0  0
    8.3440    0.1150    0.8710 P   0  0  0  0  0  0  0  0  0  0  0  0
    9.1500    0.9990   -0.1060 O   0  0  0  0  0  0  0  0  0  0  0  0
  1  2  2  0
  2  3  1  0
  3  4  2  3
  4  5  1  0
  4  7  1  0
  5  6  2  0
  7  8  2  3
  7 13  1  0
  8  9  1  0
  9 10  2  3
 10 11  1  0
 11 12  1  0
 13 14  1  0
 14 15  2  0
 14 16  1  0
 16 17  1  0
 17 18  1  0
 18 19  2  0
 18 20  1  0
 20 21  1  0
 21 22  1  0
 22 23  1  0
 23 24  2  0
M  END
