
     RDKit          3D

 20 20  0  0  0  0  0  0  0  0999 V2000
   -2.9490   -1.1980    0.2860 N   0  0  0  0  0  0  0  0  0  0  0  0
   -3.5220   -0.0460   -0.3100 C   0  0  1  0  0  0  0  0  0  0  0  0
   -4.6360    0.5550    0.5520 C   0  0  0  0  0  0  0  0  0  0  0  0
   -5.6170   -0.4110    0.7050 O   0  0  0  0  0  0  0  0  0  0  0  0
   -2.6080    1.0450   -0.6300 C   0  0  0  0  0  0  0  0  0  0  0  0
   -3.1610    2.1150   -1.0930 O   0  0  0  0  0  0  0  0  0  0  0  0
   -1.1950    1.0190   -0.4750 N   0  0  0  0  0  0  0  0  0  0  0  0
   -0.5690   -0.1730    0.0220 C   0  0  0  0  0  0  0  0  0  0  0  0
    0.9290   -0.0720    0.1700 C   0  0  1  0  0  0  0  0  0  0  0  0
    1.6160   -0.4000   -1.1480 C   0  0  0  0  0  0  0  0  0  0  0  0
    2.9810   -0.3280   -1.0930 O   0  0  0  0  0  0  0  0  0  0  0  0
    3.5730   -1.1750   -0.1920 C   0  0  0  0  0  0  0  0  0  0  0  0
    5.4380   -1.0010   -0.2000 P   0  0  0  0  0  0  0  0  0  0  0  0
    5.9660    0.0220    1.1000 O   0  0  0  0  0  0  0  0  0  0  0  0
    6.1360   -2.5690    0.0600 O   0  0  0  0  0  0  0  0  0  0  0  0
    1.2570    1.2950    0.6270 C   0  0  0  0  0  0  0  0  0  0  0  0
    1.8700    1.5500    1.7140 O   0  0  0  0  0  0  0  0  0  0  0  0
    0.8410    2.3650   -0.2390 N   0  0  0  0  0  0  0  0  0  0  0  0
   -0.4490    2.2150   -0.8170 C   0  0  0  0  0  0  0  0  0  0  0  0
   -0.9350    3.0660   -1.5890 O   0  0  0  0  0  0  0  0  0  0  0  0
  2  1  1  1
  2  3  1  0
  2  5  1  0
  3  4  1  0
  5  6  2  0
  5  7  1  0
  7  8  1  0
  7 19  1  0
  8  9  1  0
  9 10  1  6
  9 16  1  0
 10 11  1  0
 11 12  1  0
 12 13  1  0
 13 14  1  0
 13 15  1  0
 16 17  2  0
 16 18  1  0
 18 19  1  0
 19 20  2  0
M  END
