
     RDKit          3D

 25 27  0  0  0  0  0  0  0  0999 V2000
    1.6220    1.3140   -0.7710 O   0  0  0  0  0  0  0  0  0  0  0  0
    2.5290    0.5970   -0.6410 C   0  0  0  0  0  0  0  0  0  0  0  0
    3.9430    0.7160   -0.3020 C   0  0  0  0  0  0  0  0  0  0  0  0
    4.4640    2.1230   -0.5280 C   0  0  0  0  0  0  0  0  0  0  0  0
    3.7660    3.4070    0.4860 S   0  0  0  0  0  0  0  0  0  0  0  0
    4.2290    3.3310    2.2020 C   0  0  0  0  0  0  0  0  0  0  0  0
    5.0440    2.4310    2.7860 C   0  0  0  0  0  0  0  0  0  0  0  0
    5.1370    2.7490    4.2110 C   0  0  0  0  0  0  0  0  0  0  0  0
    4.6340    3.9630    4.2820 C   0  0  0  0  0  0  0  0  0  0  0  0
    3.8290    4.2360    3.2660 C   0  0  0  0  0  0  0  0  0  0  0  0
    2.1320   -1.0710   -0.9520 N   0  0  0  0  0  0  0  0  0  0  0  0
    0.7950   -0.8530   -1.3960 C   0  0  0  0  0  0  0  0  0  0  0  0
    0.0950    0.0860   -1.4370 O   0  0  0  0  0  0  0  0  0  0  0  0
    0.2370   -2.1180   -1.9080 N   0  0  0  0  0  0  0  0  0  0  0  0
   -1.0630   -2.1860   -2.4100 C   0  0  0  0  0  0  0  0  0  0  0  0
   -2.2170   -1.9350   -1.5200 C   0  0  1  0  0  0  0  0  0  0  0  0
   -2.6030   -3.0880   -0.6240 C   0  0  0  0  0  0  0  0  0  0  0  0
   -4.0770   -2.9020   -0.3020 C   0  0  0  0  0  0  0  0  0  0  0  0
   -4.2830   -1.5040    0.2090 C   0  0  0  0  0  0  0  0  0  0  0  0
   -5.3760   -1.1950    1.0030 C   0  0  0  0  0  0  0  0  0  0  0  0
   -5.6050    0.0410    1.4980 N   0  0  0  0  0  0  0  0  0  0  0  0
   -4.7380    1.0680    1.2300 C   0  0  0  0  0  0  0  0  0  0  0  0
   -3.6580    0.7800    0.4490 C   0  0  0  0  0  0  0  0  0  0  0  0
   -3.4110   -0.4780   -0.0680 C   0  0  0  0  0  0  0  0  0  0  0  0
   -2.2640   -0.6820   -0.8690 O   0  0  0  0  0  0  0  0  0  0  0  0
  1  2  2  0
  2  3  1  0
  2 11  1  0
  3  4  1  0
  4  5  1  0
  5  6  1  0
  6  7  2  0
  6 10  1  0
  7  8  1  0
  8  9  2  0
  9 10  2  0
 11 12  1  0
 12 13  2  0
 12 14  1  0
 14 15  1  0
 16 15  1  1
 16 17  1  0
 16 25  1  0
 17 18  1  0
 18 19  1  0
 19 20  2  0
 19 24  1  0
 20 21  1  0
 21 22  2  0
 22 23  1  0
 23 24  2  0
 24 25  1  0
M  CHG  1  21   1
M  END
