
     RDKit          3D

 25 27  0  0  0  0  0  0  0  0999 V2000
   -0.4920    5.5760    1.1260 C   0  0  0  0  0  0  0  0  0  0  0  0
   -1.5760    4.8260    0.5820 N   0  0  0  0  0  0  0  0  0  0  0  0
   -1.4670    3.4140    0.2900 C   0  0  0  0  0  0  0  0  0  0  0  0
   -0.4480    2.5760    0.4420 C   0  0  0  0  0  0  0  0  0  0  0  0
   -0.5720    1.2730    0.0950 C   0  0  0  0  0  0  0  0  0  0  0  0
    0.5120    0.2540    0.2650 C   0  0  0  0  0  0  0  0  0  0  0  0
    0.2870   -0.8810    0.9970 C   0  0  0  0  0  0  0  0  0  0  0  0
    1.2920   -1.8090    1.1200 C   0  0  0  0  0  0  0  0  0  0  0  0
    2.5080   -1.5960    0.5140 C   0  0  0  0  0  0  0  0  0  0  0  0
    2.7750   -0.4680   -0.2310 C   0  0  0  0  0  0  0  0  0  0  0  0
    1.7320    0.4430   -0.3300 C   0  0  0  0  0  0  0  0  0  0  0  0
    4.0010   -0.2480   -0.8450 O   0  0  0  0  0  0  0  0  0  0  0  0
    5.1330   -0.8990   -0.2470 C   0  0  2  0  0  0  0  0  0  0  0  0
    6.3460   -0.7760   -1.1310 C   0  0  0  0  0  0  0  0  0  0  0  0
    4.7810   -2.3180    0.0130 C   0  0  0  0  0  0  0  0  0  0  0  0
    5.5260   -3.2870   -0.3130 O   0  0  0  0  0  0  0  0  0  0  0  0
    3.5480   -2.5870    0.6580 N   0  0  0  0  0  0  0  0  0  0  0  0
   -1.7800    0.8880   -0.4070 C   0  0  0  0  0  0  0  0  0  0  0  0
   -2.3040   -0.3830   -0.9180 C   0  0  0  0  0  0  0  0  0  0  0  0
   -1.5590   -1.3510   -1.0070 O   0  0  0  0  0  0  0  0  0  0  0  0
   -3.6600   -0.5250   -1.3160 N   0  0  0  0  0  0  0  0  0  0  0  0
   -4.3720   -1.4930   -0.5210 C   0  0  2  0  0  0  0  0  0  0  0  0
   -4.0490   -1.4220    0.9400 C   0  0  0  0  0  0  0  0  0  0  0  0
   -4.1870   -2.8950   -1.0500 C   0  0  0  0  0  0  0  0  0  0  0  0
   -2.7320    2.4020   -0.3780 S   0  0  0  0  0  0  0  0  0  0  0  0
  1  2  1  0
  2  3  1  0
  3  4  2  0
  3 25  1  0
  4  5  1  0
  5  6  1  0
  5 18  2  0
  6  7  2  0
  6 11  1  0
  7  8  1  0
  8  9  2  0
  9 10  1  0
  9 17  1  0
 10 11  2  0
 10 12  1  0
 12 13  1  0
 13 14  1  6
 13 15  1  0
 15 16  2  0
 15 17  1  0
 18 19  1  0
 18 25  1  0
 19 20  2  0
 19 21  1  0
 21 22  1  0
 22 23  1  1
 22 24  1  0
M  CHG  1  21   1
M  END
