
     RDKit          3D

  9  8  0  0  0  0  0  0  0  0999 V2000
   -2.4390    0.8660   -0.0120 O   0  0  0  0  0  0  0  0  0  0  0  0
   -2.0170    0.0200   -0.8430 C   0  0  0  0  0  0  0  0  0  0  0  0
   -2.8850   -0.4810   -1.7780 O   0  0  0  0  0  0  0  0  0  0  0  0
   -0.6030   -0.4040   -0.7830 C   0  0  0  0  0  0  0  0  0  0  0  0
    0.1200    0.2750    0.3060 C   0  0  0  0  0  0  0  0  0  0  0  0
   -0.4920    1.0940    1.0290 O   0  0  0  0  0  0  0  0  0  0  0  0
    1.5260    0.0210    0.5630 C   0  0  0  0  0  0  0  0  0  0  0  0
    2.2000   -0.7960   -0.1330 O   0  0  0  0  0  0  0  0  0  0  0  0
    2.1880    0.6630    1.5830 O   0  0  0  0  0  0  0  0  0  0  0  0
  1  2  2  0
  2  3  1  0
  2  4  1  0
  4  5  1  0
  5  6  2  0
  5  7  1  0
  7  8  2  0
  7  9  1  0
M  CHG  1   3  -1
M  END
