
     RDKit          3D

 25 27  0  0  0  0  0  0  0  0999 V2000
   -6.7770    2.7350    0.4060 C   0  0  0  0  0  0  0  0  0  0  0  0
   -5.9040    1.8570   -0.0280 C   0  0  0  0  0  0  0  0  0  0  0  0
   -5.3050    0.8630    0.8900 C   0  0  0  0  0  0  0  0  0  0  0  0
   -3.8770    0.7460    0.5750 N   0  0  0  0  0  0  0  0  0  0  0  0
   -3.4180    0.3580   -0.7230 C   0  0  0  0  0  0  0  0  0  0  0  0
   -2.2360   -0.5310   -0.8570 C   0  0  1  0  0  0  0  0  0  0  0  0
   -1.9930   -0.7920   -2.3340 C   0  0  0  0  0  0  0  0  0  0  0  0
   -1.0450    0.0210   -0.2440 N   0  0  0  0  0  0  0  0  0  0  0  0
   -0.2830   -0.9540    0.4930 C   0  0  0  0  0  0  0  0  0  0  0  0
    1.1780   -0.8200    0.2650 C   0  0  0  0  0  0  0  0  0  0  0  0
    1.8630   -0.5750    1.3710 C   0  0  0  0  0  0  0  0  0  0  0  0
    3.3140   -0.3910    1.4830 C   0  0  0  0  0  0  0  0  0  0  0  0
    3.7180   -0.0560    2.7790 C   0  0  0  0  0  0  0  0  0  0  0  0
    5.0530    0.1560    3.0700 C   0  0  0  0  0  0  0  0  0  0  0  0
    5.9690    0.0270    2.0480 C   0  0  0  0  0  0  0  0  0  0  0  0
    5.6060   -0.3010    0.7600 C   0  0  0  0  0  0  0  0  0  0  0  0
    6.6100   -0.4290   -0.3000 C   0  0  0  0  0  0  0  0  0  0  0  0
    4.2750   -0.5060    0.4980 C   0  0  0  0  0  0  0  0  0  0  0  0
    4.0070   -0.8360   -0.8400 O   0  0  0  0  0  0  0  0  0  0  0  0
    2.9380   -1.6410   -1.2980 C   0  0  0  0  0  0  0  0  0  0  0  0
    1.5950   -0.9820   -1.1420 C   0  0  0  0  0  0  0  0  0  0  0  0
   -4.0340    0.7850   -1.7930 N   0  0  0  0  0  0  0  0  0  0  0  0
   -5.4180    1.8270   -1.7030 S   0  0  2  0  0  0  0  0  0  0  0  0
   -5.0850    3.1980   -2.2140 O   0  0  0  0  0  0  0  0  0  0  0  0
   -6.5430    1.2090   -2.4960 O   0  0  0  0  0  0  0  0  0  0  0  0
  1  2  2  0
  2  3  1  0
  2 23  1  0
  3  4  1  0
  4  5  1  0
  5  6  1  0
  5 22  2  0
  6  7  1  6
  6  8  1  0
  8  9  1  0
  9 10  1  0
 10 11  2  0
 10 21  1  0
 11 12  1  0
 12 13  2  0
 12 18  1  0
 13 14  1  0
 14 15  2  0
 15 16  1  0
 16 17  1  0
 16 18  2  0
 18 19  1  0
 19 20  1  0
 20 21  1  0
 23 22  1  1
 23 24  2  0
 23 25  2  0
M  CHG  1   8   1
M  END
