
     RDKit          3D

 25 27  0  0  0  0  0  0  0  0999 V2000
   -3.0420    4.4200   -0.7110 C   0  0  0  0  0  0  0  0  0  0  0  0
   -4.0460    3.3360   -0.7540 C   0  0  0  0  0  0  0  0  0  0  0  0
   -5.2210    3.6010   -0.9430 O   0  0  0  0  0  0  0  0  0  0  0  0
   -3.6990    1.8990   -0.5750 C   0  0  0  0  0  0  0  0  0  0  0  0
   -2.2420    1.6840   -0.3450 C   0  0  0  0  0  0  0  0  0  0  0  0
   -1.9550    0.2350   -0.1720 C   0  0  0  0  0  0  0  0  0  0  0  0
   -2.9850   -0.6750   -0.2180 C   0  0  0  0  0  0  0  0  0  0  0  0
   -2.8230   -2.0210   -0.0710 C   0  0  0  0  0  0  0  0  0  0  0  0
   -3.8860   -2.8840   -0.1250 C   0  0  0  0  0  0  0  0  0  0  0  0
   -5.0390   -2.4210   -0.3150 O   0  0  0  0  0  0  0  0  0  0  0  0
   -3.6940   -4.2180    0.0250 N   0  0  0  0  0  0  0  0  0  0  0  0
   -2.4410   -4.6640    0.2260 C   0  0  0  0  0  0  0  0  0  0  0  0
   -2.3080   -5.9110    0.3610 O   0  0  0  0  0  0  0  0  0  0  0  0
   -1.3780   -3.8130    0.2820 N   0  0  0  0  0  0  0  0  0  0  0  0
   -1.5410   -2.4890    0.1370 C   0  0  0  0  0  0  0  0  0  0  0  0
   -0.5010   -1.5900    0.1850 C   0  0  0  0  0  0  0  0  0  0  0  0
   -0.6760   -0.2360    0.0350 C   0  0  0  0  0  0  0  0  0  0  0  0
    0.6600    0.9300    0.0860 S   0  0  0  0  0  0  0  0  0  0  0  0
    2.2790    0.1960    0.2760 C   0  0  1  0  0  0  0  0  0  0  0  0
    2.7590   -0.5990   -0.8930 C   0  0  0  0  0  0  0  0  0  0  0  0
    4.0370   -1.3170   -0.4400 C   0  0  0  0  0  0  0  0  0  0  0  0
    5.0560   -0.2720   -0.0530 C   0  0  0  0  0  0  0  0  0  0  0  0
    4.5570    1.0680   -0.0780 N   0  0  0  0  0  0  0  0  0  0  0  0
    3.2970    1.2620    0.5750 C   0  0  2  0  0  0  0  0  0  0  0  0
    3.4390    1.3920    2.0770 C   0  0  0  0  0  0  0  0  0  0  0  0
  1  2  1  0
  2  3  2  0
  2  4  1  0
  4  5  1  0
  5  6  1  0
  6  7  2  0
  6 17  1  0
  7  8  1  0
  8  9  1  0
  8 15  2  0
  9 10  2  0
  9 11  1  0
 11 12  1  0
 12 13  2  0
 12 14  1  0
 14 15  1  0
 15 16  1  0
 16 17  2  0
 17 18  1  0
 19 18  1  6
 19 20  1  0
 19 24  1  0
 20 21  1  0
 21 22  1  0
 22 23  1  0
 23 24  1  0
 24 25  1  1
M  CHG  1  23   1
M  END
