
     RDKit          3D

 25 27  0  0  0  0  0  0  0  0999 V2000
   -7.5510    1.1950   -1.3490 C   0  0  0  0  0  0  0  0  0  0  0  0
   -7.2190   -0.1950   -1.0940 N   0  0  0  0  0  0  0  0  0  0  0  0
   -5.8180   -0.3940   -0.9500 C   0  0  0  0  0  0  0  0  0  0  0  0
   -5.0650   -1.1480   -1.8300 C   0  0  0  0  0  0  0  0  0  0  0  0
   -3.7290   -1.3440   -1.7110 C   0  0  0  0  0  0  0  0  0  0  0  0
   -3.0170   -0.7620   -0.6370 C   0  0  0  0  0  0  0  0  0  0  0  0
   -3.7540   -0.0210    0.2310 C   0  0  0  0  0  0  0  0  0  0  0  0
   -5.1230    0.1710    0.0950 C   0  0  0  0  0  0  0  0  0  0  0  0
   -2.5920    0.5700    1.4800 S   0  0  0  0  0  0  0  0  0  0  0  0
   -1.2150   -0.5080    0.9990 C   0  0  2  0  0  0  0  0  0  0  0  0
    0.0700    0.2230    1.0060 C   0  0  0  0  0  0  0  0  0  0  0  0
    0.6920    0.3500   -0.0750 O   0  0  0  0  0  0  0  0  0  0  0  0
    0.6570    0.8010    2.1700 N   0  0  0  0  0  0  0  0  0  0  0  0
    1.8910    1.4930    2.0850 N   0  0  0  0  0  0  0  0  0  0  0  0
    3.0580    0.9040    1.5120 C   0  0  0  0  0  0  0  0  0  0  0  0
    2.9500   -0.2720    1.0850 O   0  0  0  0  0  0  0  0  0  0  0  0
    4.3280    1.6300    1.4220 C   0  0  0  0  0  0  0  0  0  0  0  0
    5.3440    0.7550    0.7610 C   0  0  0  0  0  0  0  0  0  0  0  0
    6.1060   -0.0540    1.5660 C   0  0  0  0  0  0  0  0  0  0  0  0
    7.0620   -0.8840    1.0150 C   0  0  0  0  0  0  0  0  0  0  0  0
    7.2300   -0.8760   -0.3680 C   0  0  0  0  0  0  0  0  0  0  0  0
    6.4560   -0.0570   -1.1630 C   0  0  0  0  0  0  0  0  0  0  0  0
    6.6270   -0.0520   -2.5470 O   0  0  0  0  0  0  0  0  0  0  0  0
    5.5070    0.7640   -0.6000 C   0  0  0  0  0  0  0  0  0  0  0  0
   -1.5850   -0.8680   -0.3870 C   0  0  0  0  0  0  0  0  0  0  0  0
  1  2  1  0
  2  3  1  0
  3  4  2  0
  3  8  1  0
  4  5  1  0
  5  6  2  0
  6  7  1  0
  6 25  1  0
  7  8  2  0
  7  9  1  0
  9 10  1  0
 10 11  1  6
 10 25  1  0
 11 12  2  0
 11 13  1  0
 13 14  1  0
 14 15  1  0
 15 16  2  0
 15 17  1  0
 17 18  1  0
 18 19  2  0
 18 24  1  0
 19 20  1  0
 20 21  2  0
 21 22  1  0
 22 23  1  0
 22 24  2  0
M  CHG  1   2   1
M  END
