
     RDKit          3D

 25 27  0  0  0  0  0  0  0  0999 V2000
    5.4080    2.6730    0.1190 C   0  0  0  0  0  0  0  0  0  0  0  0
    6.0460    1.0270   -0.0640 S   0  0  2  0  0  0  0  0  0  0  0  0
    7.4240    0.9280    0.5020 O   0  0  0  0  0  0  0  0  0  0  0  0
    6.1570    0.7640   -1.5550 O   0  0  0  0  0  0  0  0  0  0  0  0
    4.9310   -0.1450    0.6850 C   0  0  2  0  0  0  0  0  0  0  0  0
    5.4500   -1.5440    0.5990 C   0  0  0  0  0  0  0  0  0  0  0  0
    4.6300   -2.4330   -0.2920 C   0  0  0  0  0  0  0  0  0  0  0  0
    3.1580   -2.3770   -0.0080 C   0  0  0  0  0  0  0  0  0  0  0  0
    2.6890   -1.0790    0.5530 C   0  0  2  0  0  0  0  0  0  0  0  0
    1.3010   -0.8190    0.3110 N   0  0  0  0  0  0  0  0  0  0  0  0
    1.1140   -0.3860   -1.0530 C   0  0  0  0  0  0  0  0  0  0  0  0
   -0.3080    0.0200   -1.2890 C   0  0  0  0  0  0  0  0  0  0  0  0
   -0.5730    0.4110   -2.4420 O   0  0  0  0  0  0  0  0  0  0  0  0
   -1.2930   -0.0260   -0.3040 N   0  0  0  0  0  0  0  0  0  0  0  0
   -2.6600    0.3400   -0.4310 C   0  0  0  0  0  0  0  0  0  0  0  0
   -3.2100    0.9610   -1.5220 C   0  0  0  0  0  0  0  0  0  0  0  0
   -4.5800    1.2810   -1.5830 C   0  0  0  0  0  0  0  0  0  0  0  0
   -5.3620    0.9540   -0.5100 C   0  0  0  0  0  0  0  0  0  0  0  0
   -4.8710    0.3300    0.6140 C   0  0  0  0  0  0  0  0  0  0  0  0
   -3.5390    0.0400    0.6280 C   0  0  0  0  0  0  0  0  0  0  0  0
   -5.6850   -0.0360    1.7860 C   0  0  0  0  0  0  0  0  0  0  0  0
   -7.1010    0.3890    1.7160 C   0  0  0  0  0  0  0  0  0  0  0  0
   -7.6320    0.5360    0.3130 C   0  0  0  0  0  0  0  0  0  0  0  0
   -6.7450    1.2650   -0.5440 N   0  0  0  0  0  0  0  0  0  0  0  0
    3.5820    0.0270    0.0490 C   0  0  0  0  0  0  0  0  0  0  0  0
  2  1  1  6
  2  3  2  0
  2  4  2  0
  2  5  1  0
  5  6  1  6
  5 25  1  0
  6  7  1  0
  7  8  1  0
  8  9  1  0
  9 10  1  6
  9 25  1  0
 10 11  1  0
 11 12  1  0
 12 13  2  0
 12 14  1  0
 14 15  1  0
 15 16  2  0
 15 20  1  0
 16 17  1  0
 17 18  2  0
 18 19  1  0
 18 24  1  0
 19 20  2  0
 19 21  1  0
 21 22  1  0
 22 23  1  0
 23 24  1  0
M  CHG  1  10   1
M  END
