
     RDKit          3D

 25 25  0  0  0  0  0  0  0  0999 V2000
   -2.9640   -0.1870    2.1040 C   0  0  0  0  0  0  0  0  0  0  0  0
   -3.0880    0.0090    0.6400 C   0  0  1  0  0  0  0  0  0  0  0  0
   -2.2200   -0.8950   -0.2260 C   0  0  2  0  0  0  0  0  0  0  0  0
   -2.8600   -0.7500   -1.5890 C   0  0  0  0  0  0  0  0  0  0  0  0
   -2.4080   -2.1660    0.2640 O   0  0  0  0  0  0  0  0  0  0  0  0
   -0.7800   -0.4670   -0.3390 C   0  0  1  0  0  0  0  0  0  0  0  0
   -0.0660   -1.4310   -1.2360 C   0  0  0  0  0  0  0  0  0  0  0  0
   -0.8230    0.7960   -0.9540 O   0  0  0  0  0  0  0  0  0  0  0  0
   -0.0250   -0.3230    0.9190 C   0  0  1  0  0  0  0  0  0  0  0  0
    0.1830   -1.4850    1.6280 O   0  0  0  0  0  0  0  0  0  0  0  0
    1.2460    0.4490    0.7660 C   0  0  0  0  0  0  0  0  0  0  0  0
    2.3460   -0.2180    0.1590 N   0  0  0  0  0  0  0  0  0  0  0  0
    3.5820    0.4820   -0.0450 C   0  0  0  0  0  0  0  0  0  0  0  0
    3.7250    1.6820    0.3000 O   0  0  0  0  0  0  0  0  0  0  0  0
    4.6690   -0.1480   -0.6340 O   0  0  0  0  0  0  0  0  0  0  0  0
    5.9040    0.5070   -0.8520 C   0  0  1  0  0  0  0  0  0  0  0  0
    6.8500   -0.4800   -1.5100 C   0  0  0  0  0  0  0  0  0  0  0  0
    5.7760    1.6120   -1.6770 O   0  0  0  0  0  0  0  0  0  0  0  0
    6.4490    0.8880    0.3760 O   0  0  0  0  0  0  0  0  0  0  0  0
    6.6490   -0.1670    1.1280 O   0  0  0  0  0  0  0  0  0  0  0  0
   -4.5370   -0.3950    0.2890 C   0  0  0  0  0  0  0  0  0  0  0  0
   -5.0830    0.3420   -0.7180 O   0  0  0  0  0  0  0  0  0  0  0  0
   -5.2930    1.6610   -0.3600 C   0  0  0  0  0  0  0  0  0  0  0  0
   -4.1480    2.0650    0.5510 C   0  0  0  0  0  0  0  0  0  0  0  0
   -2.9970    1.3380    0.2880 O   0  0  0  0  0  0  0  0  0  0  0  0
  2  1  1  1
  2  3  1  0
  2 21  1  0
  2 25  1  0
  3  4  1  6
  3  5  1  0
  3  6  1  0
  6  7  1  6
  6  8  1  0
  6  9  1  0
  9 10  1  6
  9 11  1  0
 11 12  1  0
 12 13  1  0
 13 14  2  0
 13 15  1  0
 15 16  1  0
 16 17  1  6
 16 18  1  0
 16 19  1  0
 19 20  1  0
 21 22  1  0
 22 23  1  0
 23 24  1  0
 24 25  1  0
M  END
