
     RDKit          3D

 25 25  0  0  0  0  0  0  0  0999 V2000
   -5.3600   -2.5240    0.7350 C   0  0  0  0  0  0  0  0  0  0  0  0
   -4.3090   -1.6790    0.3060 O   0  0  0  0  0  0  0  0  0  0  0  0
   -4.1990   -0.3480    0.6810 C   0  0  0  0  0  0  0  0  0  0  0  0
   -5.0880    0.1140    1.4410 O   0  0  0  0  0  0  0  0  0  0  0  0
   -3.0850    0.4950    0.2100 C   0  0  1  0  0  0  0  0  0  0  0  0
   -3.0350    0.6200   -1.2900 C   0  0  0  0  0  0  0  0  0  0  0  0
   -2.8520    1.7630    0.9600 C   0  0  1  0  0  0  0  0  0  0  0  0
   -4.0130    2.3380    1.6040 N   0  0  0  0  0  0  0  0  0  0  0  0
   -1.9150    1.0230    1.8820 C   0  0  0  0  0  0  0  0  0  0  0  0
   -1.7680   -0.0300    0.7970 C   0  0  2  0  0  0  0  0  0  0  0  0
   -0.7140    0.3130   -0.0700 O   0  0  0  0  0  0  0  0  0  0  0  0
    0.2540   -0.5750   -0.4910 C   0  0  0  0  0  0  0  0  0  0  0  0
    0.2010   -1.7570   -0.0830 O   0  0  0  0  0  0  0  0  0  0  0  0
    1.3680   -0.2140   -1.4070 C   0  0  1  0  0  0  0  0  0  0  0  0
    1.2400   -1.1470   -2.6160 C   0  0  0  0  0  0  0  0  0  0  0  0
    1.3380    1.1060   -1.7980 O   0  0  0  0  0  0  0  0  0  0  0  0
    2.6360   -0.5620   -0.7220 C   0  0  0  0  0  0  0  0  0  0  0  0
    2.7950   -1.7310   -0.3150 O   0  0  0  0  0  0  0  0  0  0  0  0
    3.6630    0.3440   -0.5060 O   0  0  0  0  0  0  0  0  0  0  0  0
    4.8520   -0.0450    0.1540 C   0  0  2  0  0  0  0  0  0  0  0  0
    5.1230    0.8200    1.3680 C   0  0  0  0  0  0  0  0  0  0  0  0
    4.0550    0.6880    2.2400 O   0  0  0  0  0  0  0  0  0  0  0  0
    5.9730    0.0730   -0.8100 C   0  0  0  0  0  0  0  0  0  0  0  0
    5.7790    0.4620   -1.9830 O   0  0  0  0  0  0  0  0  0  0  0  0
    7.2560   -0.2470   -0.4270 O   0  0  0  0  0  0  0  0  0  0  0  0
  1  2  1  0
  2  3  1  0
  3  4  2  0
  3  5  1  0
  5  6  1  6
  5  7  1  0
  5 10  1  0
  7  8  1  1
  7  9  1  0
  9 10  1  0
 10 11  1  6
 11 12  1  0
 12 13  2  0
 12 14  1  0
 14 15  1  6
 14 16  1  0
 14 17  1  0
 17 18  2  0
 17 19  1  0
 19 20  1  0
 20 21  1  1
 20 23  1  0
 21 22  1  0
 23 24  2  0
 23 25  1  0
M  END
