
     RDKit          3D

 25 26  0  0  0  0  0  0  0  0999 V2000
    5.9880    1.6460   -0.1480 C   0  0  0  0  0  0  0  0  0  0  0  0
    6.0710    0.3330   -0.0940 C   0  0  0  0  0  0  0  0  0  0  0  0
    7.3060   -0.3690   -0.4530 C   0  0  0  0  0  0  0  0  0  0  0  0
    4.9110   -0.3880    0.3280 N   0  0  0  0  0  0  0  0  0  0  0  0
    4.3200    0.0400    1.5900 C   0  0  0  0  0  0  0  0  0  0  0  0
    2.8550   -0.3420    1.5520 C   0  0  0  0  0  0  0  0  0  0  0  0
    2.3820   -0.1650    0.1200 C   0  0  2  0  0  0  0  0  0  0  0  0
    0.9330   -0.0980    0.0750 N   0  0  0  0  0  0  0  0  0  0  0  0
    0.5000    0.8510   -0.9260 C   0  0  0  0  0  0  0  0  0  0  0  0
   -0.9730    0.9290   -0.9600 C   0  0  0  0  0  0  0  0  0  0  0  0
   -1.5050    1.7100   -1.7780 O   0  0  0  0  0  0  0  0  0  0  0  0
   -1.7980    0.1380   -0.0860 N   0  0  0  0  0  0  0  0  0  0  0  0
   -3.2120    0.2810   -0.1920 C   0  0  0  0  0  0  0  0  0  0  0  0
   -3.9960    1.3800   -1.3410 S   0  0  0  0  0  0  0  0  0  0  0  0
   -5.7140    0.9670   -0.8410 C   0  0  0  0  0  0  0  0  0  0  0  0
   -6.7020    1.5620   -1.4450 C   0  0  0  0  0  0  0  0  0  0  0  0
   -8.1170    1.3880   -1.2120 C   0  0  0  0  0  0  0  0  0  0  0  0
   -5.5100    0.0590    0.1230 C   0  0  0  0  0  0  0  0  0  0  0  0
   -6.5960   -0.4950    0.7500 C   0  0  0  0  0  0  0  0  0  0  0  0
   -4.2460   -0.3120    0.4770 C   0  0  0  0  0  0  0  0  0  0  0  0
   -3.9000   -1.3140    1.5380 C   0  0  0  0  0  0  0  0  0  0  0  0
   -2.6940   -1.5730    1.7750 O   0  0  0  0  0  0  0  0  0  0  0  0
   -4.8090   -1.9930    2.2950 O   0  0  0  0  0  0  0  0  0  0  0  0
    2.8850   -1.3820   -0.6510 C   0  0  0  0  0  0  0  0  0  0  0  0
    4.3820   -1.4640   -0.4620 C   0  0  0  0  0  0  0  0  0  0  0  0
  1  2  2  0
  2  3  1  0
  2  4  1  0
  4  5  1  0
  4 25  1  0
  5  6  1  0
  6  7  1  0
  7  8  1  1
  7 24  1  0
  8  9  1  0
  9 10  1  0
 10 11  2  0
 10 12  1  0
 12 13  1  0
 13 14  1  0
 13 20  2  0
 14 15  1  0
 15 16  2  3
 15 18  1  0
 16 17  1  0
 18 19  2  0
 18 20  1  0
 20 21  1  0
 21 22  2  0
 21 23  1  0
 24 25  1  0
M  CHG  1   8   1
M  END
