
     RDKit          3D

 15 15  0  0  0  0  0  0  0  0999 V2000
   -3.1600    1.6910    0.9710 C   0  0  0  0  0  0  0  0  0  0  0  0
   -1.9660    1.0250    0.3620 C   0  0  0  0  0  0  0  0  0  0  0  0
   -2.1240   -0.0470   -0.3880 C   0  0  0  0  0  0  0  0  0  0  0  0
   -3.5030   -0.5950   -0.6270 C   0  0  0  0  0  0  0  0  0  0  0  0
   -1.0030   -0.6780   -0.9640 N   0  0  0  0  0  0  0  0  0  0  0  0
   -0.1040   -1.3860   -0.0960 C   0  0  0  0  0  0  0  0  0  0  0  0
   -0.5870   -2.6280    0.5200 C   0  0  0  0  0  0  0  0  0  0  0  0
    1.0940   -0.8800    0.0930 C   0  0  0  0  0  0  0  0  0  0  0  0
    1.5130    0.3500   -0.5420 C   0  0  0  0  0  0  0  0  0  0  0  0
    2.6980    0.8890   -0.3810 C   0  0  0  0  0  0  0  0  0  0  0  0
    3.0200    2.1840   -1.1040 C   0  0  0  0  0  0  0  0  0  0  0  0
    3.7340    0.2940    0.4710 C   0  0  0  0  0  0  0  0  0  0  0  0
    3.3330   -0.8800    1.0770 O   0  0  0  0  0  0  0  0  0  0  0  0
    2.1200   -1.4910    0.9520 C   0  0  0  0  0  0  0  0  0  0  0  0
    1.8020   -2.5710    1.5320 O   0  0  0  0  0  0  0  0  0  0  0  0
  1  2  1  0
  2  3  2  3
  3  4  1  0
  3  5  1  0
  5  6  1  0
  6  7  1  0
  6  8  2  3
  8  9  1  0
  8 14  1  0
  9 10  2  0
 10 11  1  0
 10 12  1  0
 12 13  1  0
 13 14  1  0
 14 15  2  0
M  END
