
     RDKit          3D

 15 15  0  0  0  0  0  0  0  0999 V2000
    3.4940    2.0990    0.0100 C   0  0  0  0  0  0  0  0  0  0  0  0
    3.2240    0.8240   -0.0100 C   0  0  0  0  0  0  0  0  0  0  0  0
    4.2920   -0.1890    0.0080 C   0  0  0  0  0  0  0  0  0  0  0  0
    1.7930    0.4130   -0.0510 C   0  0  0  0  0  0  0  0  0  0  0  0
    1.4660   -0.8350   -0.0730 C   0  0  0  0  0  0  0  0  0  0  0  0
    0.1790   -1.4800   -0.1130 C   0  0  0  0  0  0  0  0  0  0  0  0
    0.0300   -2.8280   -0.1310 C   0  0  0  0  0  0  0  0  0  0  0  0
   -1.3860   -3.1420   -0.1710 C   0  0  0  0  0  0  0  0  0  0  0  0
   -2.0830   -2.0710   -0.1780 N   0  0  0  0  0  0  0  0  0  0  0  0
   -1.1580   -0.9380   -0.1420 C   0  0  0  0  0  0  0  0  0  0  0  0
   -1.5440    0.3200   -0.1390 C   0  0  0  0  0  0  0  0  0  0  0  0
   -3.0060    0.5510   -0.1740 C   0  0  0  0  0  0  0  0  0  0  0  0
   -3.8390   -0.3940   -0.2060 O   0  0  0  0  0  0  0  0  0  0  0  0
   -3.5020    1.8310   -0.1740 O   0  0  0  0  0  0  0  0  0  0  0  0
   -4.8820    2.1290   -0.2060 C   0  0  0  0  0  0  0  0  0  0  0  0
  1  2  2  0
  2  3  1  0
  2  4  1  0
  4  5  2  3
  5  6  1  0
  6  7  2  0
  6 10  1  0
  7  8  1  0
  8  9  2  0
  9 10  1  0
 10 11  2  3
 11 12  1  0
 12 13  2  0
 12 14  1  0
 14 15  1  0
M  END
