
     RDKit          3D

 22 25  0  0  0  0  0  0  0  0999 V2000
   -4.6390   -2.4190   -1.2980 C   0  0  0  0  0  0  0  0  0  0  0  0
   -4.0430   -1.3280   -0.8540 C   0  0  0  0  0  0  0  0  0  0  0  0
   -2.6010   -1.4260   -0.5650 C   0  0  0  0  0  0  0  0  0  0  0  0
   -2.0500   -0.1490   -0.0770 C   0  0  0  0  0  0  0  0  0  0  0  0
   -0.7210    0.1290    0.2950 C   0  0  0  0  0  0  0  0  0  0  0  0
    0.3860   -0.8410    0.2640 C   0  0  0  0  0  0  0  0  0  0  0  0
    1.6380   -0.2720    0.6960 N   0  0  0  0  0  0  0  0  0  0  0  0
    2.1100    0.8160   -0.0920 C   0  0  0  0  0  0  0  0  0  0  0  0
    3.3350    0.3870   -0.9130 C   0  0  0  0  0  0  0  0  0  0  0  0
    4.3830    0.0230    0.0340 N   0  0  0  0  0  0  0  0  0  0  0  0
    5.6510    0.3410    0.2360 N   0  0  0  0  0  0  0  0  0  0  0  0
    6.1070   -0.3320    1.2900 C   0  0  0  0  0  0  0  0  0  0  0  0
    5.0670   -1.1130    1.7730 C   0  0  0  0  0  0  0  0  0  0  0  0
    3.9940   -0.8710    0.9650 C   0  0  0  0  0  0  0  0  0  0  0  0
    2.5900   -1.3320    0.8750 C   0  0  0  0  0  0  0  0  0  0  0  0
   -0.7350    1.4530    0.6720 C   0  0  0  0  0  0  0  0  0  0  0  0
   -1.9760    1.9490    0.5420 N   0  0  0  0  0  0  0  0  0  0  0  0
   -2.3470    3.3130    0.8520 C   0  0  0  0  0  0  0  0  0  0  0  0
   -2.8130    0.9700    0.0760 C   0  0  0  0  0  0  0  0  0  0  0  0
   -4.2420    1.0050   -0.2280 C   0  0  0  0  0  0  0  0  0  0  0  0
   -4.8270   -0.0830   -0.6690 C   0  0  0  0  0  0  0  0  0  0  0  0
   -6.5480   -0.1230   -1.0590 Cl  0  0  0  0  0  0  0  0  0  0  0  0
  1  2  2  0
  2  3  1  0
  2 21  1  0
  3  4  1  0
  4  5  1  0
  4 19  2  0
  5  6  1  0
  5 16  2  0
  6  7  1  0
  7  8  1  0
  7 15  1  0
  8  9  1  0
  9 10  1  0
 10 11  1  0
 10 14  1  0
 11 12  2  0
 12 13  1  0
 13 14  2  0
 14 15  1  0
 16 17  1  0
 17 18  1  0
 17 19  1  0
 19 20  1  0
 20 21  2  0
 21 22  1  0
M  END
