
     RDKit          3D

 15 16  0  0  0  0  0  0  0  0999 V2000
   -3.5040    1.9730   -0.3840 C   0  0  0  0  0  0  0  0  0  0  0  0
   -2.8710    0.6110   -0.5830 C   0  0  0  0  0  0  0  0  0  0  0  0
   -1.6300    0.3970   -0.1850 C   0  0  0  0  0  0  0  0  0  0  0  0
   -0.7630    1.4190    0.4690 C   0  0  0  0  0  0  0  0  0  0  0  0
    0.4860    0.8230    0.6290 O   0  0  0  0  0  0  0  0  0  0  0  0
    0.5710   -0.3090   -0.1520 C   0  0  0  0  0  0  0  0  0  0  0  0
    1.5840   -0.9100   -0.7110 C   0  0  0  0  0  0  0  0  0  0  0  0
    2.9330   -0.3440   -0.5270 C   0  0  0  0  0  0  0  0  0  0  0  0
    3.3070    0.9640   -0.5220 C   0  0  0  0  0  0  0  0  0  0  0  0
    4.6600    0.9950   -0.3140 C   0  0  0  0  0  0  0  0  0  0  0  0
    5.0810   -0.3200   -0.1960 C   0  0  0  0  0  0  0  0  0  0  0  0
    4.0030   -1.0670   -0.3320 O   0  0  0  0  0  0  0  0  0  0  0  0
   -0.8530   -0.8240   -0.2930 C   0  0  1  0  0  0  0  0  0  0  0  0
   -1.0070   -1.8270    0.6820 N   0  0  0  0  0  0  0  0  0  0  0  0
   -2.2580   -2.4700    0.8170 C   0  0  0  0  0  0  0  0  0  0  0  0
  1  2  1  0
  2  3  2  3
  3  4  1  0
  3 13  1  0
  4  5  1  0
  5  6  1  0
  6  7  2  3
  6 13  1  0
  7  8  1  0
  8  9  2  0
  8 12  1  0
  9 10  1  0
 10 11  2  0
 11 12  1  0
 13 14  1  1
 14 15  1  0
M  END
