
     RDKit          3D

 22 25  0  0  0  0  0  0  0  0999 V2000
   -5.2240    0.7020   -1.2000 C   0  0  0  0  0  0  0  0  0  0  0  0
   -4.5730   -0.3870   -0.9610 C   0  0  0  0  0  0  0  0  0  0  0  0
   -3.3440   -0.5580   -0.2040 C   0  0  0  0  0  0  0  0  0  0  0  0
   -3.2160   -1.7520    0.5330 C   0  0  0  0  0  0  0  0  0  0  0  0
   -4.5210   -2.9210    0.4960 Cl  0  0  0  0  0  0  0  0  0  0  0  0
   -2.0680   -1.9380    1.2460 C   0  0  0  0  0  0  0  0  0  0  0  0
   -1.0460   -1.0340    1.2820 C   0  0  0  0  0  0  0  0  0  0  0  0
   -1.1800    0.1460    0.5490 C   0  0  0  0  0  0  0  0  0  0  0  0
   -2.3350    0.3740   -0.1930 C   0  0  0  0  0  0  0  0  0  0  0  0
   -2.4370    1.6080   -1.0020 C   0  0  0  0  0  0  0  0  0  0  0  0
   -0.0710    1.1000    0.6250 C   0  0  0  0  0  0  0  0  0  0  0  0
    1.2320    0.3460    0.5240 C   0  0  0  0  0  0  0  0  0  0  0  0
    2.2530    0.7940   -0.2380 N   0  0  0  0  0  0  0  0  0  0  0  0
    3.3760    0.1260   -0.3080 N   0  0  0  0  0  0  0  0  0  0  0  0
    4.5580    0.3010   -0.9640 C   0  0  0  0  0  0  0  0  0  0  0  0
    4.8500    1.4610   -1.8650 C   0  0  0  0  0  0  0  0  0  0  0  0
    5.4140   -0.7380   -0.6670 C   0  0  0  0  0  0  0  0  0  0  0  0
    4.7270   -1.5330    0.1730 N   0  0  0  0  0  0  0  0  0  0  0  0
    3.4970   -1.0140    0.3900 C   0  0  0  0  0  0  0  0  0  0  0  0
    2.5050   -1.5000    1.1650 N   0  0  0  0  0  0  0  0  0  0  0  0
    1.3490   -0.8220    1.2440 C   0  0  0  0  0  0  0  0  0  0  0  0
    0.1910   -1.2930    2.0800 C   0  0  0  0  0  0  0  0  0  0  0  0
  1  2  2  0
  2  3  1  0
  3  4  2  0
  3  9  1  0
  4  5  1  0
  4  6  1  0
  6  7  2  0
  7  8  1  0
  7 22  1  0
  8  9  2  0
  8 11  1  0
  9 10  1  0
 11 12  1  0
 12 13  2  0
 12 21  1  0
 13 14  1  0
 14 15  1  0
 14 19  1  0
 15 16  1  0
 15 17  2  0
 17 18  1  0
 18 19  2  0
 19 20  1  0
 20 21  2  0
 21 22  1  0
M  END
