
     RDKit          3D

 15 15  0  0  0  0  0  0  0  0999 V2000
   -2.8360    0.0780   -2.8590 C   0  0  0  0  0  0  0  0  0  0  0  0
   -1.6830    0.3620   -1.9100 C   0  0  0  0  0  0  0  0  0  0  0  0
   -1.7080   -0.2640   -0.7920 C   0  0  0  0  0  0  0  0  0  0  0  0
   -2.7740   -1.2500   -0.3290 C   0  0  0  0  0  0  0  0  0  0  0  0
   -2.9460   -0.5990    0.9970 N   0  0  0  0  0  0  0  0  0  0  0  0
   -1.5790   -0.4080    1.4700 C   0  0  0  0  0  0  0  0  0  0  0  0
   -1.2410   -0.3930    2.9020 C   0  0  0  0  0  0  0  0  0  0  0  0
   -0.8250   -0.2180    0.3910 C   0  0  0  0  0  0  0  0  0  0  0  0
    0.6220   -0.0340    0.3250 C   0  0  0  0  0  0  0  0  0  0  0  0
    1.4070   -0.1540    1.5810 C   0  0  0  0  0  0  0  0  0  0  0  0
    1.2830    0.1410   -0.7630 C   0  0  0  0  0  0  0  0  0  0  0  0
    2.6940    0.3440   -0.9210 C   0  0  0  0  0  0  0  0  0  0  0  0
    3.1580    0.4750   -2.1250 O   0  0  0  0  0  0  0  0  0  0  0  0
    3.6060    0.4170    0.1050 O   0  0  0  0  0  0  0  0  0  0  0  0
    4.9670    0.6260   -0.2000 C   0  0  0  0  0  0  0  0  0  0  0  0
  1  2  1  0
  2  3  2  3
  3  4  1  0
  3  8  1  0
  4  5  1  0
  5  6  1  0
  6  7  1  0
  6  8  2  0
  8  9  1  0
  9 10  1  0
  9 11  2  3
 11 12  1  0
 12 13  2  0
 12 14  1  0
 14 15  1  0
M  END
