
     RDKit          3D

 10 10  0  0  0  0  0  0  0  0999 V2000
   -3.7990    0.8320    0.5430 O   0  0  0  0  0  0  0  0  0  0  0  0
   -3.2270    0.0630   -0.3840 O   0  0  0  0  0  0  0  0  0  0  0  0
   -1.9530   -0.3170    0.0670 C   0  0  0  0  0  0  0  0  0  0  0  0
   -1.3870   -1.1080   -0.9080 O   0  0  0  0  0  0  0  0  0  0  0  0
   -0.1930   -1.5340   -0.6170 O   0  0  0  0  0  0  0  0  0  0  0  0
    0.6800   -0.4890   -0.6520 C   0  0  1  0  0  0  0  0  0  0  0  0
    1.4330   -0.3150    0.6740 C   0  0  0  0  0  0  0  0  0  0  0  0
    2.5820    0.5090    0.1290 C   0  0  0  0  0  0  0  0  0  0  0  0
    2.6950    0.1240   -1.1760 O   0  0  0  0  0  0  0  0  0  0  0  0
    1.7700   -0.7080   -1.4890 O   0  0  0  0  0  0  0  0  0  0  0  0
  1  2  1  0
  2  3  1  0
  3  4  1  0
  4  5  1  0
  6  5  1  1
  6  7  1  0
  6 10  1  0
  7  8  1  0
  8  9  1  0
  9 10  1  0
M  END
