
     RDKit          3D

 13 13  0  0  0  0  0  0  0  0999 V2000
   -4.5770   -0.4160   -1.1750 O   0  0  0  0  0  0  0  0  0  0  0  0
   -3.8900   -0.4690    0.0360 C   0  0  0  0  0  0  0  0  0  0  0  0
   -2.4440   -0.0300   -0.2180 C   0  0  0  0  0  0  0  0  0  0  0  0
   -1.7070   -0.0920    1.1050 C   0  0  0  0  0  0  0  0  0  0  0  0
   -0.2870    0.3300    0.9020 C   0  0  2  0  0  0  0  0  0  0  0  0
   -0.2630    1.6320    0.4130 O   0  0  0  0  0  0  0  0  0  0  0  0
    1.0680    1.7760    0.0290 C   0  0  0  0  0  0  0  0  0  0  0  0
    1.4110    0.3930   -0.4770 C   0  0  1  0  0  0  0  0  0  0  0  0
    2.6190    0.0310    0.1180 O   0  0  0  0  0  0  0  0  0  0  0  0
    3.5360   -0.2400   -0.8930 C   0  0  0  0  0  0  0  0  0  0  0  0
    4.7730   -0.6100   -0.4080 O   0  0  0  0  0  0  0  0  0  0  0  0
    4.7360   -1.6900    0.3360 O   0  0  0  0  0  0  0  0  0  0  0  0
    0.3760   -0.4410   -0.0540 O   0  0  0  0  0  0  0  0  0  0  0  0
  1  2  1  0
  2  3  1  0
  3  4  1  0
  5  4  1  6
  5  6  1  0
  5 13  1  0
  6  7  1  0
  7  8  1  0
  8  9  1  1
  8 13  1  0
  9 10  1  0
 10 11  1  0
 11 12  1  0
M  END
