
     RDKit          3D

 10  9  0  0  0  0  0  0  0  0999 V2000
    1.0190   -1.7420    0.4470 O   0  0  0  0  0  0  0  0  0  0  0  0
    0.6130   -0.5570    0.3650 C   0  0  0  0  0  0  0  0  0  0  0  0
    1.4760    0.5060    0.6800 O   0  0  0  0  0  0  0  0  0  0  0  0
    2.7070    0.1570    1.0560 O   0  0  0  0  0  0  0  0  0  0  0  0
    3.6140    0.4070    0.1570 O   0  0  0  0  0  0  0  0  0  0  0  0
   -0.7480   -0.2860   -0.0550 C   0  0  0  0  0  0  0  0  0  0  0  0
   -1.5280   -1.2920   -0.3410 C   0  0  0  0  0  0  0  0  0  0  0  0
   -1.0560   -2.5820   -0.2430 O   0  0  0  0  0  0  0  0  0  0  0  0
   -1.2210    1.1030   -0.1490 C   0  0  0  0  0  0  0  0  0  0  0  0
   -0.5040    1.8800   -1.0410 O   0  0  0  0  0  0  0  0  0  0  0  0
  1  2  2  0
  2  3  1  0
  2  6  1  0
  3  4  1  0
  4  5  1  0
  6  7  2  3
  6  9  1  0
  7  8  1  0
  9 10  1  0
M  END
