
     RDKit          3D

 10  9  0  0  0  0  0  0  0  0999 V2000
    3.7420   -0.1440    0.5180 O   0  0  0  0  0  0  0  0  0  0  0  0
    2.9650    0.6290   -0.1040 C   0  0  0  0  0  0  0  0  0  0  0  0
    3.3950    1.8000   -0.6940 O   0  0  0  0  0  0  0  0  0  0  0  0
    1.6390    0.2680   -0.1830 O   0  0  0  0  0  0  0  0  0  0  0  0
    1.1340   -0.9190    0.4010 C   0  0  0  0  0  0  0  0  0  0  0  0
   -0.6910   -0.9430    0.0150 P   0  0  0  0  0  0  0  0  0  0  0  0
   -0.9550   -0.5800   -1.6350 O   0  0  0  0  0  0  0  0  0  0  0  0
   -1.5000    0.1460    1.0920 O   0  0  0  0  0  0  0  0  0  0  0  0
   -2.8670    0.0490    0.8730 C   0  0  0  0  0  0  0  0  0  0  0  0
   -3.1660    0.3920   -0.4620 O   0  0  0  0  0  0  0  0  0  0  0  0
  1  2  2  0
  2  3  1  0
  2  4  1  0
  4  5  1  0
  5  6  1  0
  6  7  1  0
  6  8  1  0
  8  9  1  0
  9 10  1  0
M  END
