
     RDKit          3D

 21 24  0  0  0  0  0  0  0  0999 V2000
   -4.6880    0.6770    1.2240 C   0  0  0  0  0  0  0  0  0  0  0  0
   -4.3880    0.0980   -0.1410 C   0  0  1  0  0  0  0  0  0  0  0  0
   -4.3830    1.2330   -1.0750 N   0  0  0  0  0  0  0  0  0  0  0  0
   -3.1550    1.9110   -0.6450 C   0  0  0  0  0  0  0  0  0  0  0  0
   -2.2280    0.7260   -0.5540 C   0  0  0  0  0  0  0  0  0  0  0  0
   -0.8630    0.6470   -0.7260 C   0  0  0  0  0  0  0  0  0  0  0  0
   -0.2320   -0.5970   -0.5840 C   0  0  0  0  0  0  0  0  0  0  0  0
   -0.9990   -1.6870   -0.2800 C   0  0  0  0  0  0  0  0  0  0  0  0
   -2.3860   -1.6120   -0.1030 C   0  0  0  0  0  0  0  0  0  0  0  0
   -2.9880   -0.3830   -0.2460 C   0  0  0  0  0  0  0  0  0  0  0  0
   -0.3190   -2.9590   -0.1740 C   0  0  0  0  0  0  0  0  0  0  0  0
    0.9700   -3.0380   -0.3700 C   0  0  0  0  0  0  0  0  0  0  0  0
    1.8400   -1.9150   -0.7060 C   0  0  0  0  0  0  0  0  0  0  0  0
    1.2310   -0.5860   -0.7520 C   0  0  2  0  0  0  0  0  0  0  0  0
    1.7640    0.3300    0.2580 N   0  0  0  0  0  0  0  0  0  0  0  0
    3.1250    0.6800    0.3820 C   0  0  0  0  0  0  0  0  0  0  0  0
    3.5810    1.4480    1.4330 C   0  0  0  0  0  0  0  0  0  0  0  0
    4.9080    1.8030    1.5580 C   0  0  0  0  0  0  0  0  0  0  0  0
    5.8210    1.3860    0.6130 C   0  0  0  0  0  0  0  0  0  0  0  0
    5.3900    0.6380   -0.4150 N   0  0  0  0  0  0  0  0  0  0  0  0
    4.0750    0.2920   -0.5310 C   0  0  0  0  0  0  0  0  0  0  0  0
  2  1  1  1
  2  3  1  0
  2 10  1  0
  3  4  1  0
  4  5  1  0
  5  6  2  0
  5 10  1  0
  6  7  1  0
  7  8  2  0
  7 14  1  0
  8  9  1  0
  8 11  1  0
  9 10  2  0
 11 12  2  0
 12 13  1  0
 13 14  1  0
 14 15  1  1
 15 16  1  0
 16 17  2  0
 16 21  1  0
 17 18  1  0
 18 19  2  0
 19 20  1  0
 20 21  2  0
M  END
