
     RDKit          3D

 21 23  0  0  0  0  0  0  0  0999 V2000
   -0.0020   -2.7460   -0.8220 C   0  0  0  0  0  0  0  0  0  0  0  0
    0.9690   -2.6690   -0.0030 C   0  0  0  0  0  0  0  0  0  0  0  0
    1.7500   -1.5420    0.3480 C   0  0  0  0  0  0  0  0  0  0  0  0
    2.8330   -1.7160    1.1260 C   0  0  0  0  0  0  0  0  0  0  0  0
    3.8610   -0.7940    1.6590 C   0  0  0  0  0  0  0  0  0  0  0  0
    4.3920    0.3200    1.1200 C   0  0  0  0  0  0  0  0  0  0  0  0
    4.1870    1.0520   -0.1510 C   0  0  0  0  0  0  0  0  0  0  0  0
    3.0990    1.2860   -0.9260 C   0  0  0  0  0  0  0  0  0  0  0  0
    1.7060    0.8560   -0.7270 C   0  0  0  0  0  0  0  0  0  0  0  0
    0.9490    1.9230   -1.1450 C   0  0  0  0  0  0  0  0  0  0  0  0
    1.5740    3.0580   -1.8330 C   0  0  0  0  0  0  0  0  0  0  0  0
   -0.3740    1.7950   -0.8600 N   0  0  0  0  0  0  0  0  0  0  0  0
   -0.9170    0.7410   -0.2280 C   0  0  0  0  0  0  0  0  0  0  0  0
   -2.3000    0.6650    0.0460 N   0  0  0  0  0  0  0  0  0  0  0  0
   -3.0150    0.5880    1.3110 C   0  0  0  0  0  0  0  0  0  0  0  0
   -4.1750   -0.3360    1.0820 C   0  0  0  0  0  0  0  0  0  0  0  0
   -4.3970   -0.3250   -0.4290 C   0  0  0  0  0  0  0  0  0  0  0  0
   -3.3640    0.6460   -0.9700 C   0  0  0  0  0  0  0  0  0  0  0  0
   -0.1430   -0.3360    0.1930 C   0  0  0  0  0  0  0  0  0  0  0  0
   -0.6610   -1.3470    1.0380 N   0  0  0  0  0  0  0  0  0  0  0  0
    1.1900   -0.2410   -0.0900 C   0  0  0  0  0  0  0  0  0  0  0  0
  1  2  2  0
  2  3  1  0
  3  4  2  0
  3 21  1  0
  4  5  1  0
  5  6  2  0
  6  7  1  0
  7  8  2  0
  8  9  1  0
  9 10  2  0
  9 21  1  0
 10 11  1  0
 10 12  1  0
 12 13  2  0
 13 14  1  0
 13 19  1  0
 14 15  1  0
 14 18  1  0
 15 16  1  0
 16 17  1  0
 17 18  1  0
 19 20  1  0
 19 21  2  0
M  END
