
     RDKit          3D

 21 23  0  0  0  0  0  0  0  0999 V2000
    6.5360   -0.2720   -1.0110 C   0  0  0  0  0  0  0  0  0  0  0  0
    5.1450   -0.4020   -0.5460 C   0  0  0  0  0  0  0  0  0  0  0  0
    4.2290    0.2480   -1.2320 C   0  0  0  0  0  0  0  0  0  0  0  0
    2.7920    0.3290   -1.0430 C   0  0  0  0  0  0  0  0  0  0  0  0
    2.0720   -0.2640   -0.0920 C   0  0  0  0  0  0  0  0  0  0  0  0
    2.4960   -1.0940    0.9420 C   0  0  0  0  0  0  0  0  0  0  0  0
    1.3600   -1.4500    1.6590 C   0  0  0  0  0  0  0  0  0  0  0  0
    0.2820   -0.8810    1.1160 N   0  0  0  0  0  0  0  0  0  0  0  0
    0.7060   -0.1640    0.0590 C   0  0  0  0  0  0  0  0  0  0  0  0
   -0.1380    0.5240   -0.6960 C   0  0  0  0  0  0  0  0  0  0  0  0
   -1.5760    0.5610   -0.4460 C   0  0  0  0  0  0  0  0  0  0  0  0
   -2.2800    1.6790   -0.0020 C   0  0  0  0  0  0  0  0  0  0  0  0
   -3.6120    1.3620    0.1270 C   0  0  0  0  0  0  0  0  0  0  0  0
   -4.7610    2.1880    0.5600 C   0  0  0  0  0  0  0  0  0  0  0  0
   -4.3440    3.5390    0.8850 N   0  0  0  0  0  0  0  0  0  0  0  0
   -3.7200    0.0370   -0.2420 C   0  0  0  0  0  0  0  0  0  0  0  0
   -4.9780   -0.7710   -0.2680 C   0  0  0  0  0  0  0  0  0  0  0  0
   -2.4870   -0.4070   -0.5770 N   0  0  0  0  0  0  0  0  0  0  0  0
   -2.2250   -1.7600   -1.0160 C   0  0  0  0  0  0  0  0  0  0  0  0
    3.8500   -1.5400    1.2630 C   0  0  0  0  0  0  0  0  0  0  0  0
    4.9640   -1.2400    0.6250 C   0  0  0  0  0  0  0  0  0  0  0  0
  1  2  1  0
  2  3  2  0
  2 21  1  0
  3  4  1  0
  4  5  2  0
  5  6  1  0
  5  9  1  0
  6  7  2  0
  6 20  1  0
  7  8  1  0
  8  9  1  0
  9 10  2  3
 10 11  1  0
 11 12  2  0
 11 18  1  0
 12 13  1  0
 13 14  1  0
 13 16  2  0
 14 15  1  0
 16 17  1  0
 16 18  1  0
 18 19  1  0
 20 21  2  0
M  END
