
     RDKit          3D

 21 24  0  0  0  0  0  0  0  0999 V2000
    3.6550    2.0770   -0.1480 C   0  0  0  0  0  0  0  0  0  0  0  0
    3.6670    0.6080   -0.1810 C   0  0  0  0  0  0  0  0  0  0  0  0
    4.8360   -0.0450   -0.5030 C   0  0  0  0  0  0  0  0  0  0  0  0
    4.8770   -1.4060   -0.4900 C   0  0  0  0  0  0  0  0  0  0  0  0
    3.7830   -2.1610   -0.1600 C   0  0  0  0  0  0  0  0  0  0  0  0
    2.5960   -1.4880    0.1650 C   0  0  0  0  0  0  0  0  0  0  0  0
    2.5440   -0.1240    0.1530 C   0  0  0  0  0  0  0  0  0  0  0  0
    1.2780    0.5960    0.4080 C   0  0  2  0  0  0  0  0  0  0  0  0
    0.3830   -0.0730    1.3840 C   0  0  0  0  0  0  0  0  0  0  0  0
   -1.0660   -0.0210    1.0650 C   0  0  0  0  0  0  0  0  0  0  0  0
   -1.9620    0.5160    1.8190 N   0  0  0  0  0  0  0  0  0  0  0  0
   -3.3370    0.4660    1.3910 C   0  0  0  0  0  0  0  0  0  0  0  0
   -4.4310    0.9910    1.9470 C   0  0  0  0  0  0  0  0  0  0  0  0
   -5.5590    0.6380    1.0700 C   0  0  0  0  0  0  0  0  0  0  0  0
   -4.9740   -0.1250   -0.0710 C   0  0  0  0  0  0  0  0  0  0  0  0
   -3.6890   -0.2100    0.1590 C   0  0  0  0  0  0  0  0  0  0  0  0
   -2.6770   -1.0320   -0.6230 C   0  0  0  0  0  0  0  0  0  0  0  0
   -1.3910   -0.4080   -0.3330 C   0  0  0  0  0  0  0  0  0  0  0  0
   -0.5070   -0.0810   -1.2990 C   0  0  0  0  0  0  0  0  0  0  0  0
   -0.7560   -0.4320   -2.6510 N   0  0  0  0  0  0  0  0  0  0  0  0
    0.6240    0.6720   -0.9060 N   0  0  0  0  0  0  0  0  0  0  0  0
  1  2  1  0
  2  3  2  0
  2  7  1  0
  3  4  1  0
  4  5  2  0
  5  6  1  0
  6  7  2  0
  8  7  1  6
  8  9  1  0
  8 21  1  0
  9 10  1  0
 10 11  2  0
 10 18  1  0
 11 12  1  0
 12 13  2  0
 12 16  1  0
 13 14  1  0
 14 15  1  0
 15 16  2  0
 16 17  1  0
 17 18  1  0
 18 19  2  0
 19 20  1  0
 19 21  1  0
M  END
