
     RDKit          3D

 21 24  0  0  0  0  0  0  0  0999 V2000
    1.2010    3.6340   -0.0410 C   0  0  0  0  0  0  0  0  0  0  0  0
    0.6260    2.2580    0.1520 C   0  0  0  0  0  0  0  0  0  0  0  0
   -0.6860    2.1270    0.1170 C   0  0  0  0  0  0  0  0  0  0  0  0
   -1.2560    0.7870    0.3040 C   0  0  0  0  0  0  0  0  0  0  0  0
   -0.4870   -0.3210    0.5110 C   0  0  0  0  0  0  0  0  0  0  0  0
   -1.2720   -1.3990    0.6480 N   0  0  0  0  0  0  0  0  0  0  0  0
   -2.5540   -1.0010    0.5310 C   0  0  0  0  0  0  0  0  0  0  0  0
   -2.5530    0.3790    0.3140 C   0  0  0  0  0  0  0  0  0  0  0  0
   -3.8780    1.0220    0.1570 C   0  0  0  0  0  0  0  0  0  0  0  0
   -4.6390    0.1910   -0.8730 C   0  0  0  0  0  0  0  0  0  0  0  0
   -4.8440   -1.2230   -0.4270 C   0  0  0  0  0  0  0  0  0  0  0  0
   -3.8580   -1.7040    0.5880 C   0  0  0  0  0  0  0  0  0  0  0  0
    0.9890   -0.2200    0.5570 C   0  0  1  0  0  0  0  0  0  0  0  0
    1.6220   -1.1770   -0.4620 C   0  0  0  0  0  0  0  0  0  0  0  0
    3.1020   -1.0680   -0.4070 C   0  0  0  0  0  0  0  0  0  0  0  0
    3.8460   -1.8690    0.4420 C   0  0  0  0  0  0  0  0  0  0  0  0
    5.2240   -1.7700    0.4960 C   0  0  0  0  0  0  0  0  0  0  0  0
    5.8670   -0.8480   -0.3190 C   0  0  0  0  0  0  0  0  0  0  0  0
    5.0960   -0.0630   -1.1560 C   0  0  0  0  0  0  0  0  0  0  0  0
    3.7580   -0.1810   -1.1870 N   0  0  0  0  0  0  0  0  0  0  0  0
    1.4490    1.1300    0.3640 N   0  0  0  0  0  0  0  0  0  0  0  0
  1  2  1  0
  2  3  2  0
  2 21  1  0
  3  4  1  0
  4  5  2  0
  4  8  1  0
  5  6  1  0
  5 13  1  0
  6  7  1  0
  7  8  2  0
  7 12  1  0
  8  9  1  0
  9 10  1  0
 10 11  1  0
 11 12  1  0
 13 14  1  6
 13 21  1  0
 14 15  1  0
 15 16  2  0
 15 20  1  0
 16 17  1  0
 17 18  2  0
 18 19  1  0
 19 20  2  0
M  END
