
     RDKit          3D

 21 22  0  0  0  0  0  0  0  0999 V2000
    4.1860   -0.6920    0.5410 O   0  0  0  0  0  0  0  0  0  0  0  0
    4.1770   -1.0780   -0.6330 C   0  0  0  0  0  0  0  0  0  0  0  0
    5.0620   -2.1410   -0.9490 O   0  0  0  0  0  0  0  0  0  0  0  0
    3.3760   -0.5800   -1.7260 C   0  0  0  0  0  0  0  0  0  0  0  0
    2.5420    0.4910   -1.5930 O   0  0  0  0  0  0  0  0  0  0  0  0
    1.4790    0.6670   -0.6870 C   0  0  0  0  0  0  0  0  0  0  0  0
    1.6660    1.3980    0.4420 C   0  0  0  0  0  0  0  0  0  0  0  0
    2.8220    2.1660    0.9080 C   0  0  0  0  0  0  0  0  0  0  0  0
    3.8290    2.2480    0.2060 O   0  0  0  0  0  0  0  0  0  0  0  0
    2.7710    2.7940    2.1340 O   0  0  0  0  0  0  0  0  0  0  0  0
    0.1630    1.3630    1.2800 S   0  0  0  0  0  0  0  0  0  0  0  0
   -0.7220    0.3030   -0.0020 C   0  0  0  0  0  0  0  0  0  0  0  0
   -2.0940   -0.0510    0.2100 C   0  0  0  0  0  0  0  0  0  0  0  0
   -2.7570    0.3820    1.3420 C   0  0  0  0  0  0  0  0  0  0  0  0
   -4.0990    0.0540    1.5810 C   0  0  0  0  0  0  0  0  0  0  0  0
   -4.7680   -0.7160    0.6650 C   0  0  0  0  0  0  0  0  0  0  0  0
   -6.0950   -1.0180    0.9380 O   0  0  0  0  0  0  0  0  0  0  0  0
   -4.1350   -1.1630   -0.4730 C   0  0  0  0  0  0  0  0  0  0  0  0
   -2.7900   -0.8120   -0.6740 C   0  0  0  0  0  0  0  0  0  0  0  0
    0.2500    0.1230   -0.8860 C   0  0  0  0  0  0  0  0  0  0  0  0
   -0.1270   -0.9500   -2.4930 Br  0  0  0  0  0  0  0  0  0  0  0  0
  1  2  2  0
  2  3  1  0
  2  4  1  0
  4  5  1  0
  5  6  1  0
  6  7  2  0
  6 20  1  0
  7  8  1  0
  7 11  1  0
  8  9  2  0
  8 10  1  0
 11 12  1  0
 12 13  1  0
 12 20  2  0
 13 14  2  0
 13 19  1  0
 14 15  1  0
 15 16  2  0
 16 17  1  0
 16 18  1  0
 18 19  2  0
 20 21  1  0
M  END
