
     RDKit          3D

 19 20  0  0  0  0  0  0  0  0999 V2000
    1.7860    2.6620    2.1620 C   0  0  0  0  0  0  0  0  0  0  0  0
    0.8260    1.7990    1.9730 C   0  0  0  0  0  0  0  0  0  0  0  0
    0.7390    0.7580    0.9690 C   0  0  0  0  0  0  0  0  0  0  0  0
    1.7690    0.0270    0.4520 C   0  0  0  0  0  0  0  0  0  0  0  0
    1.4840   -0.9110   -0.5440 C   0  0  0  0  0  0  0  0  0  0  0  0
    0.2210   -1.1320   -1.0250 C   0  0  0  0  0  0  0  0  0  0  0  0
    0.0140   -2.0990   -2.0380 O   0  0  0  0  0  0  0  0  0  0  0  0
   -0.8070   -0.4030   -0.5080 C   0  0  0  0  0  0  0  0  0  0  0  0
   -2.0880   -0.5910   -0.9550 O   0  0  0  0  0  0  0  0  0  0  0  0
   -3.0830   -1.4030   -0.4440 C   0  0  0  0  0  0  0  0  0  0  0  0
   -2.7070   -2.8530   -0.4010 C   0  0  0  0  0  0  0  0  0  0  0  0
   -1.5940   -2.9960    0.4050 O   0  0  0  0  0  0  0  0  0  0  0  0
   -0.5600    0.5210    0.4660 C   0  0  0  0  0  0  0  0  0  0  0  0
   -1.6080    1.2830    1.0120 O   0  0  0  0  0  0  0  0  0  0  0  0
   -1.9160    2.5060    0.4240 C   0  0  0  0  0  0  0  0  0  0  0  0
   -2.3250    2.4440   -1.0150 C   0  0  0  0  0  0  0  0  0  0  0  0
    2.7610   -1.5610   -0.9290 C   0  0  0  0  0  0  0  0  0  0  0  0
    3.7490   -0.4510   -0.6340 C   0  0  0  0  0  0  0  0  0  0  0  0
    3.2130   -0.0270    0.7520 C   0  0  0  0  0  0  0  0  0  0  0  0
  1  2  2  0
  2  3  1  0
  3  4  2  0
  3 13  1  0
  4  5  1  0
  4 19  1  0
  5  6  2  0
  5 17  1  0
  6  7  1  0
  6  8  1  0
  8  9  1  0
  8 13  2  0
  9 10  1  0
 10 11  1  0
 11 12  1  0
 13 14  1  0
 14 15  1  0
 15 16  1  0
 17 18  1  0
 18 19  1  0
M  END
