
     RDKit          3D

 19 20  0  0  0  0  0  0  0  0999 V2000
   -3.9520    2.1480    0.5440 C   0  0  0  0  0  0  0  0  0  0  0  0
   -4.1160    0.6770    0.5430 C   0  0  0  0  0  0  0  0  0  0  0  0
   -3.3210   -0.0430   -0.2300 C   0  0  0  0  0  0  0  0  0  0  0  0
   -2.2800    0.5880   -1.0860 C   0  0  0  0  0  0  0  0  0  0  0  0
   -0.9750    0.0450   -0.6430 C   0  0  0  0  0  0  0  0  0  0  0  0
    0.1660    0.7990   -0.7580 C   0  0  0  0  0  0  0  0  0  0  0  0
    1.3990    0.3320   -0.3570 C   0  0  0  0  0  0  0  0  0  0  0  0
    2.5980    1.1510   -0.4880 C   0  0  0  0  0  0  0  0  0  0  0  0
    2.4820    2.3030   -0.9790 O   0  0  0  0  0  0  0  0  0  0  0  0
    3.8480    0.7320   -0.1050 O   0  0  0  0  0  0  0  0  0  0  0  0
    5.0260    1.5090   -0.2220 C   0  0  0  0  0  0  0  0  0  0  0  0
    6.1660    0.6500    0.3230 C   0  0  0  0  0  0  0  0  0  0  0  0
    1.4250   -0.9430    0.1690 C   0  0  0  0  0  0  0  0  0  0  0  0
    0.2930   -1.7290    0.2980 C   0  0  0  0  0  0  0  0  0  0  0  0
    0.3750   -3.0090    0.8360 O   0  0  0  0  0  0  0  0  0  0  0  0
   -0.9380   -1.2230   -0.1180 C   0  0  0  0  0  0  0  0  0  0  0  0
   -2.0950   -2.1130    0.0500 C   0  0  2  0  0  0  0  0  0  0  0  0
   -1.8830   -3.3020   -0.6770 O   0  0  0  0  0  0  0  0  0  0  0  0
   -3.4170   -1.5240   -0.2910 C   0  0  0  0  0  0  0  0  0  0  0  0
  1  2  1  0
  2  3  2  3
  3  4  1  0
  3 19  1  0
  4  5  1  0
  5  6  2  0
  5 16  1  0
  6  7  1  0
  7  8  1  0
  7 13  2  0
  8  9  2  0
  8 10  1  0
 10 11  1  0
 11 12  1  0
 13 14  1  0
 14 15  1  0
 14 16  2  0
 16 17  1  0
 17 18  1  6
 17 19  1  0
M  END
