
     RDKit          3D

 19 20  0  0  0  0  0  0  0  0999 V2000
   -4.5090    1.6360   -0.5290 C   0  0  0  0  0  0  0  0  0  0  0  0
   -3.2880    0.8160   -0.3420 C   0  0  0  0  0  0  0  0  0  0  0  0
   -2.5940    0.8300    0.8580 C   0  0  0  0  0  0  0  0  0  0  0  0
   -1.4580    0.0740    1.0500 C   0  0  0  0  0  0  0  0  0  0  0  0
   -1.0430   -0.7010   -0.0190 C   0  0  0  0  0  0  0  0  0  0  0  0
   -1.7290   -0.7190   -1.2140 C   0  0  0  0  0  0  0  0  0  0  0  0
   -2.8650    0.0390   -1.3990 C   0  0  0  0  0  0  0  0  0  0  0  0
   -3.5610    0.0190   -2.6180 O   0  0  0  0  0  0  0  0  0  0  0  0
    0.1970   -1.5110    0.2240 C   0  0  1  0  0  0  0  0  0  0  0  0
    0.2920   -2.4720   -0.7530 O   0  0  0  0  0  0  0  0  0  0  0  0
    1.4230   -0.6600    0.2760 C   0  0  0  0  0  0  0  0  0  0  0  0
    1.7110    0.1110   -0.9370 C   0  0  0  0  0  0  0  0  0  0  0  0
    0.9890    0.0450   -1.9040 O   0  0  0  0  0  0  0  0  0  0  0  0
    2.9030    0.9850   -0.9850 C   0  0  2  0  0  0  0  0  0  0  0  0
    4.1770    0.1590   -0.7710 C   0  0  0  0  0  0  0  0  0  0  0  0
    2.8920    2.0690    0.0430 C   0  0  0  0  0  0  0  0  0  0  0  0
    0.0650   -2.1840    1.5760 C   0  0  0  0  0  0  0  0  0  0  0  0
   -0.1150   -1.1740    2.6870 C   0  0  0  0  0  0  0  0  0  0  0  0
   -0.7110    0.0290    2.2050 O   0  0  0  0  0  0  0  0  0  0  0  0
  1  2  1  0
  2  3  2  0
  2  7  1  0
  3  4  1  0
  4  5  2  0
  4 19  1  0
  5  6  1  0
  5  9  1  0
  6  7  2  0
  7  8  1  0
  9 10  1  6
  9 11  1  0
  9 17  1  0
 11 12  1  0
 12 13  2  0
 12 14  1  0
 14 15  1  1
 14 16  1  0
 17 18  1  0
 18 19  1  0
M  END
