
     RDKit          3D

 19 20  0  0  0  0  0  0  0  0999 V2000
   -4.7200    2.3750   -0.0240 O   0  0  0  0  0  0  0  0  0  0  0  0
   -3.5180    1.7050   -0.0740 C   0  0  0  0  0  0  0  0  0  0  0  0
   -3.7480    0.2400   -0.1380 C   0  0  0  0  0  0  0  0  0  0  0  0
   -4.9710   -0.2830   -0.1410 C   0  0  0  0  0  0  0  0  0  0  0  0
   -5.1870   -1.6200   -0.1990 O   0  0  0  0  0  0  0  0  0  0  0  0
   -4.2030   -2.6060   -0.2610 C   0  0  0  0  0  0  0  0  0  0  0  0
   -2.8550   -2.0070   -0.2550 C   0  0  0  0  0  0  0  0  0  0  0  0
   -2.6550   -0.7110   -0.1990 C   0  0  0  0  0  0  0  0  0  0  0  0
   -1.3520   -0.1730   -0.1960 O   0  0  0  0  0  0  0  0  0  0  0  0
   -0.5020   -0.6440    0.8550 C   0  0  0  0  0  0  0  0  0  0  0  0
    0.8140    0.0360    0.6820 C   0  0  0  0  0  0  0  0  0  0  0  0
    1.8900   -0.6870    0.4860 C   0  0  0  0  0  0  0  0  0  0  0  0
    3.2150   -0.1390    0.3060 C   0  0  0  0  0  0  0  0  0  0  0  0
    4.2700   -1.0030    0.1070 C   0  0  0  0  0  0  0  0  0  0  0  0
    5.5600   -0.5560   -0.0720 C   0  0  0  0  0  0  0  0  0  0  0  0
    5.7800    0.8120   -0.0470 C   0  0  0  0  0  0  0  0  0  0  0  0
    4.7610    1.7090    0.1480 C   0  0  0  0  0  0  0  0  0  0  0  0
    5.0240    3.0620    0.1660 O   0  0  0  0  0  0  0  0  0  0  0  0
    3.4770    1.2100    0.3240 C   0  0  0  0  0  0  0  0  0  0  0  0
  1  2  1  0
  2  3  1  0
  3  4  2  0
  3  8  1  0
  4  5  1  0
  5  6  1  0
  6  7  1  0
  7  8  2  0
  8  9  1  0
  9 10  1  0
 10 11  1  0
 11 12  2  3
 12 13  1  0
 13 14  2  0
 13 19  1  0
 14 15  1  0
 15 16  2  0
 16 17  1  0
 17 18  1  0
 17 19  2  0
M  END
