
     RDKit          3D

 19 20  0  0  0  0  0  0  0  0999 V2000
    4.7330   -0.5140    1.2640 O   0  0  0  0  0  0  0  0  0  0  0  0
    3.9930   -1.6630    0.9920 C   0  0  0  0  0  0  0  0  0  0  0  0
    2.8210   -1.1980    0.1090 C   0  0  0  0  0  0  0  0  0  0  0  0
    2.0660   -0.2030    0.9130 C   0  0  0  0  0  0  0  0  0  0  0  0
    0.9620    0.3850    0.3770 O   0  0  0  0  0  0  0  0  0  0  0  0
   -0.2380   -0.0390   -0.0610 C   0  0  0  0  0  0  0  0  0  0  0  0
   -0.6040   -1.3810   -0.0090 C   0  0  0  0  0  0  0  0  0  0  0  0
   -1.8250   -1.8380   -0.4490 C   0  0  0  0  0  0  0  0  0  0  0  0
   -2.1960   -3.2910   -0.3840 C   0  0  0  0  0  0  0  0  0  0  0  0
   -1.1910   -4.0560    0.1500 O   0  0  0  0  0  0  0  0  0  0  0  0
   -2.7340   -0.9580   -0.9600 C   0  0  0  0  0  0  0  0  0  0  0  0
   -3.9880   -1.4160   -1.4120 O   0  0  0  0  0  0  0  0  0  0  0  0
   -2.3980    0.3680   -1.0200 C   0  0  0  0  0  0  0  0  0  0  0  0
   -1.1590    0.8460   -0.5770 C   0  0  0  0  0  0  0  0  0  0  0  0
   -0.8980    2.2800   -0.6850 C   0  0  0  0  0  0  0  0  0  0  0  0
    0.1610    2.9660   -0.3490 C   0  0  0  0  0  0  0  0  0  0  0  0
   -0.0390    4.4260   -0.6530 C   0  0  0  0  0  0  0  0  0  0  0  0
   -1.3870    4.4590   -1.2180 C   0  0  0  0  0  0  0  0  0  0  0  0
   -1.8810    3.2410   -1.2390 C   0  0  0  0  0  0  0  0  0  0  0  0
  1  2  1  0
  2  3  1  0
  3  4  1  0
  4  5  1  0
  5  6  1  0
  6  7  2  0
  6 14  1  0
  7  8  1  0
  8  9  1  0
  8 11  2  0
  9 10  1  0
 11 12  1  0
 11 13  1  0
 13 14  2  0
 14 15  1  0
 15 16  2  0
 15 19  1  0
 16 17  1  0
 17 18  1  0
 18 19  2  0
M  END
