
     RDKit          3D

 20 21  0  0  0  0  0  0  0  0999 V2000
   -4.9310   -0.9860    1.5580 O   0  0  0  0  0  0  0  0  0  0  0  0
   -4.0020   -0.5120    0.8030 C   0  0  0  0  0  0  0  0  0  0  0  0
   -3.7640    0.8230    0.9170 O   0  0  0  0  0  0  0  0  0  0  0  0
   -3.3320   -1.4710   -0.0650 C   0  0  0  0  0  0  0  0  0  0  0  0
   -2.4210   -1.0320   -0.9710 O   0  0  0  0  0  0  0  0  0  0  0  0
   -1.2570   -0.2810   -0.8130 C   0  0  0  0  0  0  0  0  0  0  0  0
   -1.2900    1.0790   -1.1080 C   0  0  0  0  0  0  0  0  0  0  0  0
   -2.3780    1.9000   -1.6680 C   0  0  0  0  0  0  0  0  0  0  0  0
   -2.2260    3.1390   -1.8380 O   0  0  0  0  0  0  0  0  0  0  0  0
   -3.6050    1.3830   -2.0380 O   0  0  0  0  0  0  0  0  0  0  0  0
    0.2670    1.6410   -0.7860 S   0  0  0  0  0  0  0  0  0  0  0  0
    0.9830    0.0160   -0.2480 C   0  0  0  0  0  0  0  0  0  0  0  0
    2.3760   -0.0430    0.1550 C   0  0  0  0  0  0  0  0  0  0  0  0
    2.9460   -1.2070    0.5570 C   0  0  0  0  0  0  0  0  0  0  0  0
    4.2920   -1.2820    0.9500 C   0  0  0  0  0  0  0  0  0  0  0  0
    5.0810   -0.1620    0.9380 C   0  0  0  0  0  0  0  0  0  0  0  0
    4.5130    1.0240    0.5320 C   0  0  0  0  0  0  0  0  0  0  0  0
    3.1880    1.0780    0.1490 C   0  0  0  0  0  0  0  0  0  0  0  0
   -0.0570   -0.7500   -0.3800 C   0  0  0  0  0  0  0  0  0  0  0  0
    0.0910   -2.6600    0.0580 Br  0  0  0  0  0  0  0  0  0  0  0  0
  1  2  2  0
  2  3  1  0
  2  4  1  0
  4  5  1  0
  5  6  1  0
  6  7  2  0
  6 19  1  0
  7  8  1  0
  7 11  1  0
  8  9  2  0
  8 10  1  0
 11 12  1  0
 12 13  1  0
 12 19  2  0
 13 14  2  0
 13 18  1  0
 14 15  1  0
 15 16  2  0
 16 17  1  0
 17 18  2  0
 19 20  1  0
M  END
