
     RDKit          3D

 13 13  0  0  0  0  0  0  0  0999 V2000
    2.5250   -1.0390   -0.9730 O   0  0  0  0  0  0  0  0  0  0  0  0
    2.4540    0.1450   -0.6400 C   0  0  0  0  0  0  0  0  0  0  0  0
    3.9830    1.0960   -0.7610 S   0  0  0  0  0  0  0  0  0  0  0  0
    1.2540    0.7060   -0.1970 N   0  0  0  0  0  0  0  0  0  0  0  0
    0.0110    0.1550   -0.0400 N   0  0  0  0  0  0  0  0  0  0  0  0
   -0.3800   -1.0970   -0.2770 C   0  0  0  0  0  0  0  0  0  0  0  0
    0.4630   -1.9190   -0.7030 O   0  0  0  0  0  0  0  0  0  0  0  0
   -1.6640   -1.5440   -0.0820 N   0  0  0  0  0  0  0  0  0  0  0  0
   -2.5730   -0.6860    0.3690 C   0  0  0  0  0  0  0  0  0  0  0  0
   -3.7510   -1.0930    0.5490 O   0  0  0  0  0  0  0  0  0  0  0  0
   -2.2110    0.5830    0.6190 N   0  0  0  0  0  0  0  0  0  0  0  0
   -0.9610    0.9900    0.4210 C   0  0  0  0  0  0  0  0  0  0  0  0
   -0.6170    2.5390    0.7490 S   0  0  0  0  0  0  0  0  0  0  0  0
  1  2  2  0
  2  3  1  0
  2  4  1  0
  4  5  1  0
  5  6  1  0
  5 12  1  0
  6  7  2  0
  6  8  1  0
  8  9  1  0
  9 10  2  0
  9 11  1  0
 11 12  1  0
 12 13  2  0
M  END
