
     RDKit          3D

 12 12  0  0  0  0  0  0  0  0999 V2000
   -3.4950   -0.8390   -0.5570 O   0  0  0  0  0  0  0  0  0  0  0  0
   -2.3190   -0.4390   -0.3170 C   0  0  0  0  0  0  0  0  0  0  0  0
   -1.9060    0.6990   -0.9140 N   0  0  0  0  0  0  0  0  0  0  0  0
   -0.6630    1.1500   -0.6810 C   0  0  0  0  0  0  0  0  0  0  0  0
   -0.2320    2.2230   -1.2250 O   0  0  0  0  0  0  0  0  0  0  0  0
    0.1650    0.4690    0.1460 N   0  0  0  0  0  0  0  0  0  0  0  0
    1.5060    0.9280    0.4190 C   0  0  0  0  0  0  0  0  0  0  0  0
    2.7280    0.2650   -0.7470 S   0  0  0  0  0  0  0  0  0  0  0  0
    2.9320   -1.4170   -0.6200 O   0  0  0  0  0  0  0  0  0  0  0  0
   -0.2590   -0.6640    0.7350 C   0  0  0  0  0  0  0  0  0  0  0  0
    0.7380   -1.5110    1.7480 S   0  0  0  0  0  0  0  0  0  0  0  0
   -1.5050   -1.1200    0.5030 N   0  0  0  0  0  0  0  0  0  0  0  0
  1  2  2  0
  2  3  1  0
  2 12  1  0
  3  4  1  0
  4  5  2  0
  4  6  1  0
  6  7  1  0
  6 10  1  0
  7  8  1  0
  8  9  1  0
 10 11  2  0
 10 12  1  0
M  END
