
     RDKit          3D

 13 13  0  0  0  0  0  0  0  0999 V2000
    3.7940    0.3350    0.1010 N   0  0  0  0  0  0  0  0  0  0  0  0
    2.5030    0.2150   -0.4610 C   0  0  0  0  0  0  0  0  0  0  0  0
    1.9050    1.2740   -0.7830 O   0  0  0  0  0  0  0  0  0  0  0  0
    1.9410   -1.1400   -0.6310 C   0  0  0  0  0  0  0  0  0  0  0  0
    0.6340   -1.1620   -1.2050 N   0  0  0  0  0  0  0  0  0  0  0  0
   -0.4450   -0.5030   -0.5510 C   0  0  0  0  0  0  0  0  0  0  0  0
   -0.1930    0.0840    0.5330 O   0  0  0  0  0  0  0  0  0  0  0  0
   -1.7420   -0.5070   -1.0910 O   0  0  0  0  0  0  0  0  0  0  0  0
   -2.7700    0.1750   -0.3770 C   0  0  0  0  0  0  0  0  0  0  0  0
   -2.6210    0.7800    0.6930 N   0  0  0  0  0  0  0  0  0  0  0  0
   -3.5560    1.4340    1.3970 N   0  0  0  0  0  0  0  0  0  0  0  0
   -5.1700    0.8210    0.9900 S   0  0  0  0  0  0  0  0  0  0  0  0
   -4.4610    0.2290   -0.9800 S   0  0  0  0  0  0  0  0  0  0  0  0
  1  2  1  0
  2  3  2  0
  2  4  1  0
  4  5  1  0
  5  6  1  0
  6  7  2  0
  6  8  1  0
  8  9  1  0
  9 10  2  0
  9 13  1  0
 10 11  1  0
 11 12  1  0
 12 13  1  0
M  END
