
     RDKit          3D

 12 12  0  0  0  0  0  0  0  0999 V2000
    3.4660    0.6440   -0.4120 N   0  0  0  0  0  0  0  0  0  0  0  0
    2.3700   -0.1100   -0.5990 O   0  0  0  0  0  0  0  0  0  0  0  0
    2.1960   -1.0700    0.3890 C   0  0  0  0  0  0  0  0  0  0  0  0
    0.6880   -1.9820   -0.0240 S   0  0  0  0  0  0  0  0  0  0  0  0
   -0.7670   -0.9440    0.1280 C   0  0  0  0  0  0  0  0  0  0  0  0
   -1.9950   -1.4380   -0.1450 N   0  0  0  0  0  0  0  0  0  0  0  0
   -3.0730   -0.6770   -0.0310 N   0  0  0  0  0  0  0  0  0  0  0  0
   -2.9760    0.6090    0.3600 C   0  0  0  0  0  0  0  0  0  0  0  0
   -4.3480    1.5080    0.4830 S   0  0  0  0  0  0  0  0  0  0  0  0
   -1.7810    1.1470    0.6420 N   0  0  0  0  0  0  0  0  0  0  0  0
   -0.6990    0.3730    0.5240 C   0  0  0  0  0  0  0  0  0  0  0  0
    0.4070    0.8990    0.7960 O   0  0  0  0  0  0  0  0  0  0  0  0
  1  2  1  0
  2  3  1  0
  3  4  1  0
  4  5  1  0
  5  6  2  0
  5 11  1  0
  6  7  1  0
  7  8  1  0
  8  9  2  0
  8 10  1  0
 10 11  1  0
 11 12  2  0
M  END
