
     RDKit          3D

 13 13  0  0  0  0  0  0  0  0999 V2000
    3.3160   -0.4740    0.6190 N   0  0  0  0  0  0  0  0  0  0  0  0
    2.7250   -0.2030   -0.6460 C   0  0  0  0  0  0  0  0  0  0  0  0
    3.6230    0.4730   -1.8180 S   0  0  0  0  0  0  0  0  0  0  0  0
    1.3010   -0.5400   -0.8740 C   0  0  0  0  0  0  0  0  0  0  0  0
    0.4940    0.1960    0.0740 N   0  0  0  0  0  0  0  0  0  0  0  0
   -0.9510    0.0660    0.0880 C   0  0  0  0  0  0  0  0  0  0  0  0
   -1.4850   -0.9620   -0.4440 N   0  0  0  0  0  0  0  0  0  0  0  0
   -3.1870   -0.7670   -0.2360 S   0  0  2  0  0  0  0  0  0  0  0  0
   -3.7700   -1.7720    0.6970 O   0  0  0  0  0  0  0  0  0  0  0  0
   -3.9140   -0.6690   -1.5340 O   0  0  0  0  0  0  0  0  0  0  0  0
   -3.0800    0.7400    0.5850 N   0  0  0  0  0  0  0  0  0  0  0  0
   -1.8420    1.0170    0.6640 C   0  0  0  0  0  0  0  0  0  0  0  0
   -1.4570    2.2210    1.3020 O   0  0  0  0  0  0  0  0  0  0  0  0
  1  2  1  0
  2  3  2  0
  2  4  1  0
  4  5  1  0
  5  6  1  0
  6  7  2  0
  6 12  1  0
  8  7  1  6
  8  9  2  0
  8 10  2  0
  8 11  1  0
 11 12  2  0
 12 13  1  0
M  END
