
     RDKit          3D

 20 22  0  0  0  0  0  0  0  0999 V2000
   -5.2470   -0.7550   -1.2020 N   0  0  0  0  0  0  0  0  0  0  0  0
   -3.8690   -0.5480   -0.9020 C   0  0  0  0  0  0  0  0  0  0  0  0
   -2.8780   -0.7400   -1.8430 C   0  0  0  0  0  0  0  0  0  0  0  0
   -1.5880   -0.5330   -1.5170 N   0  0  0  0  0  0  0  0  0  0  0  0
   -1.1900   -0.1390   -0.3020 C   0  0  0  0  0  0  0  0  0  0  0  0
    0.2270    0.0730    0.0020 C   0  0  0  0  0  0  0  0  0  0  0  0
    0.6490    0.4770    1.2430 C   0  0  0  0  0  0  0  0  0  0  0  0
    1.9800    0.6850    1.5590 C   0  0  0  0  0  0  0  0  0  0  0  0
    2.9180    0.4700    0.5590 C   0  0  0  0  0  0  0  0  0  0  0  0
    4.2630    0.6540    0.7870 C   0  0  0  0  0  0  0  0  0  0  0  0
    4.8180    1.2110    2.5060 Br  0  0  0  0  0  0  0  0  0  0  0  0
    5.1650    0.4250   -0.2510 C   0  0  0  0  0  0  0  0  0  0  0  0
    4.7400    0.0190   -1.4990 C   0  0  0  0  0  0  0  0  0  0  0  0
    6.0050   -0.2840   -2.8930 Br  0  0  0  0  0  0  0  0  0  0  0  0
    3.3920   -0.1650   -1.7280 C   0  0  0  0  0  0  0  0  0  0  0  0
    2.4850    0.0650   -0.6860 C   0  0  0  0  0  0  0  0  0  0  0  0
    1.1680   -0.1230   -0.9360 N   0  0  0  0  0  0  0  0  0  0  0  0
   -2.1470    0.0520    0.6220 N   0  0  0  0  0  0  0  0  0  0  0  0
   -3.4520   -0.1410    0.3490 C   0  0  0  0  0  0  0  0  0  0  0  0
   -4.4710    0.0610    1.3280 N   0  0  0  0  0  0  0  0  0  0  0  0
  1  2  1  0
  2  3  2  0
  2 19  1  0
  3  4  1  0
  4  5  2  0
  5  6  1  0
  5 18  1  0
  6  7  2  0
  6 17  1  0
  7  8  1  0
  8  9  2  0
  9 10  1  0
  9 16  1  0
 10 11  1  0
 10 12  2  0
 12 13  1  0
 13 14  1  0
 13 15  2  0
 15 16  1  0
 16 17  2  0
 18 19  2  0
 19 20  1  0
M  END
