
     RDKit          3D

 13 13  0  0  0  0  0  0  0  0999 V2000
    2.7960   -1.3070   -1.8110 O   0  0  0  0  0  0  0  0  0  0  0  0
    2.9800   -0.5120   -0.8550 C   0  0  0  0  0  0  0  0  0  0  0  0
    4.1280    0.3010   -0.8180 O   0  0  0  0  0  0  0  0  0  0  0  0
    2.0250   -0.4180    0.2150 N   0  0  0  0  0  0  0  0  0  0  0  0
    0.8890   -1.2120    0.1950 N   0  0  0  0  0  0  0  0  0  0  0  0
   -0.2960   -0.7070    0.0540 C   0  0  0  0  0  0  0  0  0  0  0  0
   -1.7090   -1.6600    0.0260 S   0  0  0  0  0  0  0  0  0  0  0  0
   -3.1320   -0.7180   -0.1750 C   0  0  0  0  0  0  0  0  0  0  0  0
   -4.6380   -1.3560   -0.2390 S   0  0  0  0  0  0  0  0  0  0  0  0
   -2.9080    0.5990   -0.2760 N   0  0  0  0  0  0  0  0  0  0  0  0
   -1.7440    1.1990   -0.2370 N   0  0  0  0  0  0  0  0  0  0  0  0
   -0.5420    0.6390   -0.0880 C   0  0  0  0  0  0  0  0  0  0  0  0
    0.4930    1.4000   -0.0740 O   0  0  0  0  0  0  0  0  0  0  0  0
  1  2  2  0
  2  3  1  0
  2  4  1  0
  4  5  1  0
  5  6  2  3
  6  7  1  0
  6 12  1  0
  7  8  1  0
  8  9  2  0
  8 10  1  0
 10 11  1  0
 11 12  1  0
 12 13  2  0
M  END
