
     RDKit          3D

 12 12  0  0  0  0  0  0  0  0999 V2000
    3.5590   -0.0830    0.0240 C   0  0  0  0  0  0  0  0  0  0  0  0
    2.2250    0.6680   -0.0290 C   0  0  0  0  0  0  0  0  0  0  0  0
    1.2190   -0.3160    0.0300 O   0  0  0  0  0  0  0  0  0  0  0  0
   -0.1250   -0.0450    0.0070 C   0  0  0  0  0  0  0  0  0  0  0  0
   -0.5050    1.2730   -0.0780 C   0  0  0  0  0  0  0  0  0  0  0  0
   -1.8420    1.6010   -0.1050 C   0  0  0  0  0  0  0  0  0  0  0  0
   -2.3000    3.2960   -0.2140 Cl  0  0  0  0  0  0  0  0  0  0  0  0
   -2.7850    0.5950   -0.0440 C   0  0  0  0  0  0  0  0  0  0  0  0
   -2.3710   -0.7160    0.0410 C   0  0  0  0  0  0  0  0  0  0  0  0
   -3.3580   -1.6760    0.0980 O   0  0  0  0  0  0  0  0  0  0  0  0
   -1.0610   -1.0540    0.0670 C   0  0  0  0  0  0  0  0  0  0  0  0
   -0.5920   -2.3760    0.1530 O   0  0  0  0  0  0  0  0  0  0  0  0
  1  2  1  0
  2  3  1  0
  3  4  1  0
  4  5  2  0
  4 11  1  0
  5  6  1  0
  6  7  1  0
  6  8  2  0
  8  9  1  0
  9 10  1  0
  9 11  2  0
 11 12  1  0
M  END
