
     RDKit          3D

 12 12  0  0  0  0  0  0  0  0999 V2000
    3.4170   -0.9990    0.0150 C   0  0  0  0  0  0  0  0  0  0  0  0
    1.9000   -1.1990    0.1010 C   0  0  0  0  0  0  0  0  0  0  0  0
    1.3090    0.0640    0.1930 O   0  0  0  0  0  0  0  0  0  0  0  0
   -0.0490    0.2860    0.2880 C   0  0  0  0  0  0  0  0  0  0  0  0
   -0.9790   -0.7400    0.3020 C   0  0  0  0  0  0  0  0  0  0  0  0
   -2.3260   -0.4550    0.3990 C   0  0  0  0  0  0  0  0  0  0  0  0
   -3.2850   -1.4720    0.4150 O   0  0  0  0  0  0  0  0  0  0  0  0
   -2.8020    0.8420    0.4850 C   0  0  0  0  0  0  0  0  0  0  0  0
   -1.8760    1.8630    0.4710 C   0  0  0  0  0  0  0  0  0  0  0  0
   -2.3850    3.5260    0.5750 Cl  0  0  0  0  0  0  0  0  0  0  0  0
   -0.5120    1.5820    0.3730 C   0  0  0  0  0  0  0  0  0  0  0  0
    0.4280    2.6170    0.3590 O   0  0  0  0  0  0  0  0  0  0  0  0
  1  2  1  0
  2  3  1  0
  3  4  1  0
  4  5  2  0
  4 11  1  0
  5  6  1  0
  6  7  1  0
  6  8  2  0
  8  9  1  0
  9 10  1  0
  9 11  2  0
 11 12  1  0
M  END
