
     RDKit          3D

 12 12  0  0  0  0  0  0  0  0999 V2000
    3.4260   -0.2810   -0.1680 C   0  0  0  0  0  0  0  0  0  0  0  0
    2.0840   -0.6870    0.0180 O   0  0  0  0  0  0  0  0  0  0  0  0
    1.3180    0.4300   -0.2300 C   0  0  0  0  0  0  0  0  0  0  0  0
   -0.1370    0.1740   -0.0770 C   0  0  0  0  0  0  0  0  0  0  0  0
   -0.6360   -1.0620    0.2770 C   0  0  0  0  0  0  0  0  0  0  0  0
   -1.9950   -1.3040    0.4210 C   0  0  0  0  0  0  0  0  0  0  0  0
   -2.4850   -2.5560    0.7780 O   0  0  0  0  0  0  0  0  0  0  0  0
   -2.8960   -0.2710    0.2030 C   0  0  0  0  0  0  0  0  0  0  0  0
   -2.4160    0.9880   -0.1550 C   0  0  0  0  0  0  0  0  0  0  0  0
   -3.5720    2.2790   -0.4250 Cl  0  0  0  0  0  0  0  0  0  0  0  0
   -1.0580    1.1810   -0.2860 C   0  0  0  0  0  0  0  0  0  0  0  0
   -0.6110    2.4430   -0.6430 O   0  0  0  0  0  0  0  0  0  0  0  0
  1  2  1  0
  2  3  1  0
  3  4  1  0
  4  5  2  0
  4 11  1  0
  5  6  1  0
  6  7  1  0
  6  8  2  0
  8  9  1  0
  9 10  1  0
  9 11  2  0
 11 12  1  0
M  END
