
     RDKit          3D

 12 12  0  0  0  0  0  0  0  0999 V2000
    3.6020    0.1620    0.3390 C   0  0  0  0  0  0  0  0  0  0  0  0
    2.2270    0.2790   -0.2730 C   0  0  0  0  0  0  0  0  0  0  0  0
    1.3000   -0.1720    0.6970 O   0  0  0  0  0  0  0  0  0  0  0  0
   -0.0660   -0.2070    0.4820 C   0  0  0  0  0  0  0  0  0  0  0  0
   -0.8270    0.8870    0.8030 C   0  0  0  0  0  0  0  0  0  0  0  0
   -0.3030    2.0500    1.3400 O   0  0  0  0  0  0  0  0  0  0  0  0
   -2.1930    0.8150    0.5730 C   0  0  0  0  0  0  0  0  0  0  0  0
   -2.7380   -0.3150    0.0450 C   0  0  0  0  0  0  0  0  0  0  0  0
   -4.1000   -0.3900   -0.1850 O   0  0  0  0  0  0  0  0  0  0  0  0
   -1.9580   -1.4080   -0.2730 C   0  0  0  0  0  0  0  0  0  0  0  0
   -0.6030   -1.3530   -0.0510 C   0  0  0  0  0  0  0  0  0  0  0  0
    0.3830   -2.7360   -0.4530 Cl  0  0  0  0  0  0  0  0  0  0  0  0
  1  2  1  0
  2  3  1  0
  3  4  1  0
  4  5  2  0
  4 11  1  0
  5  6  1  0
  5  7  1  0
  7  8  2  0
  8  9  1  0
  8 10  1  0
 10 11  2  0
 11 12  1  0
M  END
