
     RDKit          3D

 20 20  0  0  0  0  0  0  0  0999 V2000
   -3.4970    2.6390   -0.6990 C   0  0  0  0  0  0  0  0  0  0  0  0
   -4.0160    1.4560   -0.9120 C   0  0  0  0  0  0  0  0  0  0  0  0
   -3.2820    0.1550   -0.7480 C   0  0  0  0  0  0  0  0  0  0  0  0
   -1.9100    0.4340   -0.2820 C   0  0  1  0  0  0  0  0  0  0  0  0
   -2.0110    1.0580    0.9840 O   0  0  0  0  0  0  0  0  0  0  0  0
   -0.9060   -0.6720   -0.2380 C   0  0  2  0  0  0  0  0  0  0  0  0
   -0.7600   -1.3030   -1.6420 C   0  0  0  0  0  0  0  0  0  0  0  0
   -1.2900   -1.7500    0.6990 C   0  0  0  0  0  0  0  0  0  0  0  0
   -2.5490   -2.4880    0.4390 C   0  0  0  0  0  0  0  0  0  0  0  0
    0.3550   -0.0470    0.1260 N   0  0  0  0  0  0  0  0  0  0  0  0
    1.1960   -0.7550    0.9910 C   0  0  0  0  0  0  0  0  0  0  0  0
    2.5980   -0.2480    1.1670 C   0  0  0  0  0  0  0  0  0  0  0  0
    3.0210    0.8220    0.2660 C   0  0  0  0  0  0  0  0  0  0  0  0
    4.2270    1.0610   -0.2180 C   0  0  0  0  0  0  0  0  0  0  0  0
    5.4450    0.2910    0.0410 C   0  0  1  0  0  0  0  0  0  0  0  0
    5.3290   -1.4480   -0.2110 Cl  0  0  0  0  0  0  0  0  0  0  0  0
    6.7330    0.8530   -1.1130 Cl  0  0  0  0  0  0  0  0  0  0  0  0
    6.0010    0.6780    1.7130 Cl  0  0  0  0  0  0  0  0  0  0  0  0
    1.8760    1.7600   -0.1260 C   0  0  0  0  0  0  0  0  0  0  0  0
    0.9500    0.7580   -0.8600 C   0  0  0  0  0  0  0  0  0  0  0  0
  1  2  2  0
  2  3  1  0
  3  4  1  0
  4  5  1  1
  4  6  1  0
  6  7  1  6
  6  8  1  0
  6 10  1  0
  8  9  1  0
 10 11  1  0
 10 20  1  0
 11 12  1  0
 12 13  1  0
 13 14  2  3
 13 19  1  0
 14 15  1  0
 15 16  1  1
 15 17  1  0
 15 18  1  0
 19 20  1  0
M  END
