
     RDKit          3D

 20 21  0  0  0  0  0  0  0  0999 V2000
   -5.5910    1.3010   -0.2120 C   0  0  0  0  0  0  0  0  0  0  0  0
   -4.2380    0.6840   -0.2040 C   0  0  0  0  0  0  0  0  0  0  0  0
   -3.9510   -0.5540    0.0390 C   0  0  0  0  0  0  0  0  0  0  0  0
   -2.4980   -0.9790   -0.0030 C   0  0  0  0  0  0  0  0  0  0  0  0
   -1.5980    0.1550   -0.3210 C   0  0  0  0  0  0  0  0  0  0  0  0
   -0.1860   -0.3200   -0.3660 C   0  0  0  0  0  0  0  0  0  0  0  0
    0.0510   -1.5210   -0.1490 O   0  0  0  0  0  0  0  0  0  0  0  0
    0.9010    0.5440   -0.6490 N   0  0  0  0  0  0  0  0  0  0  0  0
    2.2590    0.0790   -0.6920 C   0  0  1  0  0  0  0  0  0  0  0  0
    3.1650    0.6080   -1.8140 C   0  0  0  0  0  0  0  0  0  0  0  0
    3.4020    0.9310   -0.3560 C   0  0  2  0  0  0  0  0  0  0  0  0
    4.6470    0.3330    0.2050 C   0  0  0  0  0  0  0  0  0  0  0  0
    5.2120    0.6010    1.3860 C   0  0  0  0  0  0  0  0  0  0  0  0
    6.4180   -0.2020    1.5450 C   0  0  0  0  0  0  0  0  0  0  0  0
    6.4900   -0.9150    0.4560 C   0  0  0  0  0  0  0  0  0  0  0  0
    5.5200   -0.6750   -0.4120 C   0  0  0  0  0  0  0  0  0  0  0  0
   -4.9040   -1.6330    0.3630 C   0  0  1  0  0  0  0  0  0  0  0  0
   -6.5890   -1.1490    0.4110 Cl  0  0  0  0  0  0  0  0  0  0  0  0
   -4.7280   -2.9850   -0.8150 Cl  0  0  0  0  0  0  0  0  0  0  0  0
   -4.5060   -2.3710    1.9580 Cl  0  0  0  0  0  0  0  0  0  0  0  0
  1  2  1  0
  2  3  2  3
  3  4  1  0
  3 17  1  0
  4  5  1  0
  5  6  1  0
  6  7  2  0
  6  8  1  0
  9  8  1  6
  9 10  1  0
  9 11  1  0
 10 11  1  0
 11 12  1  1
 12 13  2  0
 12 16  1  0
 13 14  1  0
 14 15  2  0
 15 16  2  0
 17 18  1  1
 17 19  1  0
 17 20  1  0
M  END
