
     RDKit          3D

 20 21  0  0  0  0  0  0  0  0999 V2000
   -1.5310    4.7070   -0.2600 Cl  0  0  0  0  0  0  0  0  0  0  0  0
   -0.9450    3.1540   -0.9520 C   0  0  0  0  0  0  0  0  0  0  0  0
   -0.7920    2.2050    0.1950 C   0  0  0  0  0  0  0  0  0  0  0  0
   -0.3100    0.8790   -0.2140 N   0  0  0  0  0  0  0  0  0  0  0  0
    1.0220    0.7170   -0.7080 C   0  0  0  0  0  0  0  0  0  0  0  0
    2.1570    0.9580    0.2130 C   0  0  1  0  0  0  0  0  0  0  0  0
    2.2230    0.1960    1.4840 C   0  0  0  0  0  0  0  0  0  0  0  0
    2.6320   -1.2500    1.3490 C   0  0  0  0  0  0  0  0  0  0  0  0
    3.9060   -1.2980    0.5220 C   0  0  0  0  0  0  0  0  0  0  0  0
    3.6810   -0.5210   -0.7620 C   0  0  0  0  0  0  0  0  0  0  0  0
    3.3340    0.7780   -0.5260 O   0  0  0  0  0  0  0  0  0  0  0  0
   -1.2420   -0.1800   -0.1140 C   0  0  0  0  0  0  0  0  0  0  0  0
   -1.0790   -1.1270    0.8280 C   0  0  0  0  0  0  0  0  0  0  0  0
   -2.1290   -2.2090    0.8390 C   0  0  0  0  0  0  0  0  0  0  0  0
   -3.5200   -1.6330    0.8280 C   0  0  0  0  0  0  0  0  0  0  0  0
   -3.7280   -0.6760   -0.3130 C   0  0  0  0  0  0  0  0  0  0  0  0
   -2.4200   -0.2970   -0.9500 C   0  0  0  0  0  0  0  0  0  0  0  0
   -2.4100   -0.1090   -2.2170 C   0  0  0  0  0  0  0  0  0  0  0  0
   -3.8840   -0.2640   -3.1720 Cl  0  0  0  0  0  0  0  0  0  0  0  0
   -0.9840    0.2740   -3.1050 Cl  0  0  0  0  0  0  0  0  0  0  0  0
  1  2  1  0
  2  3  1  0
  3  4  1  0
  4  5  1  0
  4 12  1  0
  6  5  1  6
  6  7  1  0
  6 11  1  0
  7  8  1  0
  8  9  1  0
  9 10  1  0
 10 11  1  0
 12 13  2  0
 12 17  1  0
 13 14  1  0
 14 15  1  0
 15 16  1  0
 16 17  1  0
 17 18  2  3
 18 19  1  0
 18 20  1  0
M  END
