
     RDKit          3D

 22 22  0  0  0  0  0  0  0  0999 V2000
   -1.9320   -1.4500    1.4220 C   0  0  0  0  0  0  0  0  0  0  0  0
   -2.3750   -1.2320    0.0270 C   0  0  1  0  0  0  0  0  0  0  0  0
   -3.7850   -1.0280   -0.0310 O   0  0  0  0  0  0  0  0  0  0  0  0
   -1.7920   -0.0190   -0.6740 C   0  0  1  0  0  0  0  0  0  0  0  0
   -2.3830    0.0120   -2.0680 C   0  0  0  0  0  0  0  0  0  0  0  0
   -2.2740    1.2460    0.0240 C   0  0  2  0  0  0  0  0  0  0  0  0
   -1.8670    1.2770    1.3470 O   0  0  0  0  0  0  0  0  0  0  0  0
   -3.6970    1.2160    0.0660 O   0  0  0  0  0  0  0  0  0  0  0  0
   -0.3040   -0.0240   -0.7850 C   0  0  2  0  0  0  0  0  0  0  0  0
    0.2050   -1.2600   -1.5260 C   0  0  0  0  0  0  0  0  0  0  0  0
    0.0510   -2.4230   -0.7760 O   0  0  0  0  0  0  0  0  0  0  0  0
    0.4050    0.0670    0.3680 O   0  0  0  0  0  0  0  0  0  0  0  0
    1.3180    1.0700    0.2890 C   0  0  1  0  0  0  0  0  0  0  0  0
    2.7550    0.6420    0.4660 C   0  0  1  0  0  0  0  0  0  0  0  0
    3.5850    1.7430    0.3880 O   0  0  0  0  0  0  0  0  0  0  0  0
    3.0320   -0.1060    1.7270 C   0  0  0  0  0  0  0  0  0  0  0  0
    4.4600   -0.4450    1.7630 C   0  0  0  0  0  0  0  0  0  0  0  0
    5.2520    0.2360    2.4370 O   0  0  0  0  0  0  0  0  0  0  0  0
    4.9250   -1.5240    1.0440 O   0  0  0  0  0  0  0  0  0  0  0  0
    1.2220    1.6690   -0.9350 O   0  0  0  0  0  0  0  0  0  0  0  0
    0.1560    1.1470   -1.6140 C   0  0  1  0  0  0  0  0  0  0  0  0
    0.5320    0.7270   -2.9110 O   0  0  0  0  0  0  0  0  0  0  0  0
  2  1  1  1
  2  3  1  0
  2  4  1  0
  4  5  1  6
  4  6  1  0
  4  9  1  0
  6  7  1  1
  6  8  1  0
  9 10  1  6
  9 12  1  0
  9 21  1  0
 10 11  1  0
 13 12  1  6
 13 14  1  0
 13 20  1  0
 14 15  1  1
 14 16  1  0
 16 17  1  0
 17 18  2  0
 17 19  1  0
 20 21  1  0
 21 22  1  6
M  END
