
     RDKit          3D

 20 21  0  0  0  0  0  0  0  0999 V2000
    1.5730    3.9910   -0.1760 C   0  0  0  0  0  0  0  0  0  0  0  0
    1.1450    2.7750    0.0750 C   0  0  0  0  0  0  0  0  0  0  0  0
   -0.1200    2.2650    0.6310 C   0  0  0  0  0  0  0  0  0  0  0  0
   -0.1650    0.8310    0.2710 C   0  0  0  0  0  0  0  0  0  0  0  0
   -1.1690   -0.0420    0.3390 C   0  0  0  0  0  0  0  0  0  0  0  0
   -2.4900    0.1600    0.7950 C   0  0  0  0  0  0  0  0  0  0  0  0
   -3.2150   -0.9430    0.7910 O   0  0  0  0  0  0  0  0  0  0  0  0
   -3.2700    1.2920    1.2680 C   0  0  2  0  0  0  0  0  0  0  0  0
   -4.8990    0.6200    1.7920 Cl  0  0  0  0  0  0  0  0  0  0  0  0
   -3.7070    2.3800   -0.0900 Cl  0  0  0  0  0  0  0  0  0  0  0  0
   -2.6490    2.1540    2.6660 Cl  0  0  0  0  0  0  0  0  0  0  0  0
   -0.8420   -1.3510   -0.3870 C   0  0  2  0  0  0  0  0  0  0  0  0
   -1.8660   -2.4090   -0.3250 C   0  0  0  0  0  0  0  0  0  0  0  0
   -1.2900   -3.6140   -1.1230 C   0  0  0  0  0  0  0  0  0  0  0  0
    0.4290   -1.8330    0.0340 N   0  0  0  0  0  0  0  0  0  0  0  0
    1.5230   -0.8970   -0.0910 C   0  0  0  0  0  0  0  0  0  0  0  0
    2.8810   -1.3870   -0.3110 C   0  0  0  0  0  0  0  0  0  0  0  0
    1.2300    0.3800    0.0290 C   0  0  0  0  0  0  0  0  0  0  0  0
    2.0470    1.6040   -0.0950 C   0  0  0  0  0  0  0  0  0  0  0  0
    3.3270    1.6340   -0.3160 C   0  0  0  0  0  0  0  0  0  0  0  0
  1  2  2  0
  2  3  1  0
  2 19  1  0
  3  4  1  0
  4  5  2  0
  4 18  1  0
  5  6  1  0
  5 12  1  0
  6  7  2  0
  6  8  1  0
  8  9  1  1
  8 10  1  0
  8 11  1  0
 12 13  1  1
 12 15  1  0
 13 14  1  0
 15 16  1  0
 16 17  1  0
 16 18  2  0
 18 19  1  0
 19 20  2  0
M  END
