
     RDKit          3D

 22 23  0  0  0  0  0  0  0  0999 V2000
   -5.0650    0.8190    0.5870 C   0  0  0  0  0  0  0  0  0  0  0  0
   -4.2030   -0.1630   -0.1680 C   0  0  2  0  0  0  0  0  0  0  0  0
   -3.5970   -1.0310    0.7520 O   0  0  0  0  0  0  0  0  0  0  0  0
   -2.5900   -1.7200    0.0730 C   0  0  2  0  0  0  0  0  0  0  0  0
   -2.3010   -2.8640    0.8380 O   0  0  0  0  0  0  0  0  0  0  0  0
   -1.3590   -0.8220    0.0870 C   0  0  1  0  0  0  0  0  0  0  0  0
   -0.9230   -0.7810    1.3930 O   0  0  0  0  0  0  0  0  0  0  0  0
   -0.3120   -1.3800   -0.8080 C   0  0  0  0  0  0  0  0  0  0  0  0
    0.8790   -0.6950   -0.8800 O   0  0  0  0  0  0  0  0  0  0  0  0
    1.7820   -0.4940    0.1260 C   0  0  0  0  0  0  0  0  0  0  0  0
    1.5730   -0.9640    1.2690 O   0  0  0  0  0  0  0  0  0  0  0  0
    3.0280    0.2770   -0.0890 C   0  0  0  0  0  0  0  0  0  0  0  0
    3.9400    0.5100    0.8290 C   0  0  0  0  0  0  0  0  0  0  0  0
    3.8810    0.0660    2.1610 O   0  0  0  0  0  0  0  0  0  0  0  0
    5.0120    1.3130    0.1920 C   0  0  1  0  0  0  0  0  0  0  0  0
    6.2790    0.9730    0.6520 O   0  0  0  0  0  0  0  0  0  0  0  0
    4.8260    0.9600   -1.2680 C   0  0  2  0  0  0  0  0  0  0  0  0
    5.2880    1.9380   -2.1250 O   0  0  0  0  0  0  0  0  0  0  0  0
    3.3920    0.8580   -1.3070 O   0  0  0  0  0  0  0  0  0  0  0  0
   -1.8150    0.5640   -0.3310 C   0  0  0  0  0  0  0  0  0  0  0  0
   -3.1650    0.5220   -1.0310 C   0  0  2  0  0  0  0  0  0  0  0  0
   -3.5780    1.8420   -1.2060 O   0  0  0  0  0  0  0  0  0  0  0  0
  2  1  1  1
  2  3  1  0
  2 21  1  0
  3  4  1  0
  4  5  1  1
  4  6  1  0
  6  7  1  1
  6  8  1  0
  6 20  1  0
  8  9  1  0
  9 10  1  0
 10 11  2  0
 10 12  1  0
 12 13  2  0
 12 19  1  0
 13 14  1  0
 13 15  1  0
 15 16  1  1
 15 17  1  0
 17 18  1  6
 17 19  1  0
 20 21  1  0
 21 22  1  1
M  END
