
     RDKit          3D

 20 19  0  0  0  0  0  0  0  0999 V2000
   -6.2690    1.2060   -0.7110 C   0  0  0  0  0  0  0  0  0  0  0  0
   -5.8840   -0.1960   -0.6180 N   0  0  2  0  0  0  0  0  0  0  0  0
   -6.3120   -0.9400   -1.7820 C   0  0  0  0  0  0  0  0  0  0  0  0
   -6.4930   -0.7810    0.5480 C   0  0  0  0  0  0  0  0  0  0  0  0
   -4.4350   -0.2210   -0.5650 C   0  0  0  0  0  0  0  0  0  0  0  0
   -3.9020    0.3790    0.7040 C   0  0  0  0  0  0  0  0  0  0  0  0
   -2.4980    0.3250    0.6920 O   0  0  0  0  0  0  0  0  0  0  0  0
   -1.7520   -0.8270    0.6310 C   0  0  0  0  0  0  0  0  0  0  0  0
   -2.3370   -1.9340    0.5820 O   0  0  0  0  0  0  0  0  0  0  0  0
   -0.2850   -0.8070    0.6190 C   0  0  0  0  0  0  0  0  0  0  0  0
    0.2980   -0.9480   -0.7560 C   0  0  0  0  0  0  0  0  0  0  0  0
    1.7960   -0.9110   -0.6220 C   0  0  0  0  0  0  0  0  0  0  0  0
    2.5310   -1.0050   -1.6360 O   0  0  0  0  0  0  0  0  0  0  0  0
    2.4080   -0.7730    0.6100 O   0  0  0  0  0  0  0  0  0  0  0  0
    3.7990   -0.7270    0.8310 C   0  0  0  0  0  0  0  0  0  0  0  0
    4.4360    0.4340    0.1180 C   0  0  0  0  0  0  0  0  0  0  0  0
    5.8660    0.4770    0.3480 N   0  0  1  0  0  0  0  0  0  0  0  0
    6.3310    1.7650   -0.1380 C   0  0  0  0  0  0  0  0  0  0  0  0
    6.1710    0.4220    1.7680 C   0  0  0  0  0  0  0  0  0  0  0  0
    6.5610   -0.5400   -0.3810 C   0  0  0  0  0  0  0  0  0  0  0  0
  2  1  1  6
  2  3  1  0
  2  4  1  0
  2  5  1  0
  5  6  1  0
  6  7  1  0
  7  8  1  0
  8  9  2  0
  8 10  1  0
 10 11  1  0
 11 12  1  0
 12 13  2  0
 12 14  1  0
 14 15  1  0
 15 16  1  0
 16 17  1  0
 17 18  1  6
 17 19  1  0
 17 20  1  0
M  CHG  2   2   1  17   1
M  END
