
     RDKit          3D

 23 24  0  0  0  0  0  0  0  0999 V2000
    5.3030    0.6630   -1.4970 O   0  0  0  0  0  0  0  0  0  0  0  0
    5.3940    1.0450   -0.3060 C   0  0  0  0  0  0  0  0  0  0  0  0
    6.6010    1.5240    0.1580 O   0  0  0  0  0  0  0  0  0  0  0  0
    4.2050    0.9700    0.5610 C   0  0  0  0  0  0  0  0  0  0  0  0
    3.1100    0.4450   -0.1630 O   0  0  0  0  0  0  0  0  0  0  0  0
    1.8640    0.2600    0.3910 C   0  0  0  0  0  0  0  0  0  0  0  0
    1.7370    0.5850    1.5990 O   0  0  0  0  0  0  0  0  0  0  0  0
    0.7560   -0.2960   -0.4220 C   0  0  2  0  0  0  0  0  0  0  0  0
    1.2620   -0.5470   -1.7240 O   0  0  0  0  0  0  0  0  0  0  0  0
   -0.3430    0.7230   -0.6120 C   0  0  0  0  0  0  0  0  0  0  0  0
   -1.6520    0.1730   -0.1160 C   0  0  1  0  0  0  0  0  0  0  0  0
   -2.6760    1.0650   -0.0860 O   0  0  0  0  0  0  0  0  0  0  0  0
   -2.5150    2.1720    0.6950 C   0  0  2  0  0  0  0  0  0  0  0  0
   -3.5150    2.1220    1.6960 O   0  0  0  0  0  0  0  0  0  0  0  0
   -2.7640    3.3680   -0.0010 O   0  0  0  0  0  0  0  0  0  0  0  0
   -2.0910   -1.0360   -0.9140 C   0  0  0  0  0  0  0  0  0  0  0  0
   -2.5920   -2.1450   -0.0230 C   0  0  0  0  0  0  0  0  0  0  0  0
   -1.4790   -2.6940    0.8410 C   0  0  1  0  0  0  0  0  0  0  0  0
   -0.8290   -3.7130    0.1430 O   0  0  0  0  0  0  0  0  0  0  0  0
   -0.4930   -1.5420    1.1160 C   0  0  2  0  0  0  0  0  0  0  0  0
    0.2520   -1.8230    2.2690 O   0  0  0  0  0  0  0  0  0  0  0  0
   -1.3670   -0.3310    1.3000 C   0  0  0  0  0  0  0  0  0  0  0  0
    0.3450   -1.5120    0.0430 O   0  0  0  0  0  0  0  0  0  0  0  0
  1  2  2  0
  2  3  1  0
  2  4  1  0
  4  5  1  0
  5  6  1  0
  6  7  2  0
  6  8  1  0
  8  9  1  6
  8 10  1  0
  8 23  1  0
 10 11  1  0
 11 12  1  1
 11 16  1  0
 11 22  1  0
 12 13  1  0
 13 14  1  1
 13 15  1  0
 16 17  1  0
 17 18  1  0
 18 19  1  6
 18 20  1  0
 20 21  1  1
 20 22  1  0
 20 23  1  0
M  END
