
     RDKit          3D

  7  6  0  0  0  0  0  0  0  0999 V2000
    0.8030    1.6010    0.0920 C   0  0  0  0  0  0  0  0  0  0  0  0
    0.4160    0.2380   -0.4380 C   0  0  1  0  0  0  0  0  0  0  0  0
    1.4080   -0.8410   -0.1190 C   0  0  0  0  0  0  0  0  0  0  0  0
    2.6880   -0.4970   -0.4880 O   0  0  0  0  0  0  0  0  0  0  0  0
   -0.9130   -0.0380   -0.0670 N   0  0  0  0  0  0  0  0  0  0  0  0
   -1.2180   -0.1370    1.2960 C   0  0  0  0  0  0  0  0  0  0  0  0
   -1.8270   -0.5080   -1.0100 C   0  0  0  0  0  0  0  0  0  0  0  0
  2  1  1  1
  2  3  1  0
  2  5  1  0
  3  4  1  0
  5  6  1  0
  5  7  1  0
M  END
