
     RDKit          3D

  7  6  0  0  0  0  0  0  0  0999 V2000
   -0.8690    0.6680   -1.2740 C   0  0  0  0  0  0  0  0  0  0  0  0
   -0.5220   -0.0550   -0.0480 N   0  0  2  0  0  0  0  0  0  0  0  0
   -1.3130   -1.2920    0.0000 C   0  0  0  0  0  0  0  0  0  0  0  0
   -0.9480    0.7220    1.0740 C   0  0  0  0  0  0  0  0  0  0  0  0
    0.8490   -0.4240   -0.0600 C   0  0  0  0  0  0  0  0  0  0  0  0
    1.7280    0.3340    0.8800 C   0  0  0  0  0  0  0  0  0  0  0  0
    3.0380   -0.1290    0.7620 O   0  0  0  0  0  0  0  0  0  0  0  0
  2  1  1  6
  2  3  1  0
  2  4  1  0
  2  5  1  0
  5  6  1  0
  6  7  1  0
M  CHG  1   2   1
M  END
