
     RDKit          3D

  7  6  0  0  0  0  0  0  0  0999 V2000
   -2.2810   -0.7800    0.3930 C   0  0  0  0  0  0  0  0  0  0  0  0
   -0.9820   -0.6170   -0.3310 C   0  0  0  0  0  0  0  0  0  0  0  0
   -0.1810    0.4590    0.0240 N   0  0  0  0  0  0  0  0  0  0  0  0
   -0.5690    1.7650   -0.2550 C   0  0  0  0  0  0  0  0  0  0  0  0
    1.0820    0.2230    0.5950 C   0  0  0  0  0  0  0  0  0  0  0  0
    1.9660   -0.3950   -0.4930 C   0  0  0  0  0  0  0  0  0  0  0  0
    3.2010   -0.6250    0.0680 O   0  0  0  0  0  0  0  0  0  0  0  0
  1  2  1  0
  2  3  1  0
  3  4  1  0
  3  5  1  0
  5  6  1  0
  6  7  1  0
M  END
