
     RDKit          3D

  7  6  0  0  0  0  0  0  0  0999 V2000
    2.6360    0.5110    0.1220 C   0  0  0  0  0  0  0  0  0  0  0  0
    1.1910    0.6840    0.3710 N   0  0  0  0  0  0  0  0  0  0  0  0
    0.5310   -0.3070   -0.4620 C   0  0  0  0  0  0  0  0  0  0  0  0
   -0.9450   -0.3840   -0.1850 C   0  0  2  0  0  0  0  0  0  0  0  0
   -1.6700    0.9160   -0.2560 C   0  0  0  0  0  0  0  0  0  0  0  0
   -1.1860   -0.9790    1.2200 C   0  0  0  0  0  0  0  0  0  0  0  0
   -1.4870   -1.3400   -1.0480 O   0  0  0  0  0  0  0  0  0  0  0  0
  1  2  1  0
  2  3  1  0
  3  4  1  0
  4  5  1  1
  4  6  1  0
  4  7  1  0
M  END
