
     RDKit          3D

 20 21  0  0  0  0  0  0  0  0999 V2000
    4.5940    3.3660   -0.9450 C   0  0  0  0  0  0  0  0  0  0  0  0
    3.6000    2.6750   -0.2090 O   0  0  0  0  0  0  0  0  0  0  0  0
    3.6950    1.3630    0.1940 C   0  0  0  0  0  0  0  0  0  0  0  0
    4.7600    0.7570   -0.1290 O   0  0  0  0  0  0  0  0  0  0  0  0
    2.7320    0.6630    0.9150 N   0  0  0  0  0  0  0  0  0  0  0  0
    2.9060   -0.7220    1.3030 C   0  0  0  0  0  0  0  0  0  0  0  0
    1.5280   -1.2690    1.7140 C   0  0  0  0  0  0  0  0  0  0  0  0
    0.4820   -0.8730    0.7230 C   0  0  1  0  0  0  0  0  0  0  0  0
   -0.7780   -1.2610    1.3100 O   0  0  0  0  0  0  0  0  0  0  0  0
   -1.9700   -1.0100    0.5950 C   0  0  0  0  0  0  0  0  0  0  0  0
   -2.9550   -0.3190    1.2850 N   0  0  0  0  0  0  0  0  0  0  0  0
   -2.0460   -1.4370   -0.6230 C   0  0  0  0  0  0  0  0  0  0  0  0
   -3.1530   -1.3020   -1.5470 C   0  0  0  0  0  0  0  0  0  0  0  0
   -3.1280   -1.7900   -2.8090 C   0  0  0  0  0  0  0  0  0  0  0  0
   -4.3750   -1.5030   -3.4900 C   0  0  0  0  0  0  0  0  0  0  0  0
   -5.2010   -0.8470   -2.7090 C   0  0  0  0  0  0  0  0  0  0  0  0
   -4.4560   -0.6910   -1.4360 C   0  0  0  0  0  0  0  0  0  0  0  0
   -4.9110   -0.1080   -0.4160 O   0  0  0  0  0  0  0  0  0  0  0  0
    0.4020    0.6060    0.5220 C   0  0  0  0  0  0  0  0  0  0  0  0
    1.4930    1.2670    1.3260 C   0  0  0  0  0  0  0  0  0  0  0  0
  1  2  1  0
  2  3  1  0
  3  4  2  0
  3  5  1  0
  5  6  1  0
  5 20  1  0
  6  7  1  0
  7  8  1  0
  8  9  1  1
  8 19  1  0
  9 10  1  0
 10 11  1  0
 10 12  2  3
 12 13  1  0
 13 14  2  0
 13 17  1  0
 14 15  1  0
 15 16  2  0
 16 17  1  0
 17 18  2  0
 19 20  1  0
M  END
