
     RDKit          3D

  7  6  0  0  0  0  0  0  0  0999 V2000
    2.1180   -0.3780   -0.4140 C   0  0  0  0  0  0  0  0  0  0  0  0
    0.6720   -0.4080   -0.8630 C   0  0  0  0  0  0  0  0  0  0  0  0
   -0.1150    0.0740    0.2590 N   0  0  0  0  0  0  0  0  0  0  0  0
   -1.5390   -0.1220    0.0050 C   0  0  0  0  0  0  0  0  0  0  0  0
   -1.9540   -1.5330   -0.0190 C   0  0  0  0  0  0  0  0  0  0  0  0
    0.1020    1.4910    0.4910 C   0  0  0  0  0  0  0  0  0  0  0  0
    1.4370    1.7760    0.6680 O   0  0  0  0  0  0  0  0  0  0  0  0
  1  2  1  0
  2  3  1  0
  3  4  1  0
  3  6  1  0
  4  5  1  0
  6  7  1  0
M  END
