
     RDKit          3D

  7  6  0  0  0  0  0  0  0  0999 V2000
   -2.9900   -0.0790   -0.0520 C   0  0  0  0  0  0  0  0  0  0  0  0
   -1.5550   -0.2790    0.2090 N   0  0  0  0  0  0  0  0  0  0  0  0
   -0.8820    0.8740   -0.3280 C   0  0  0  0  0  0  0  0  0  0  0  0
    0.6110    0.7960   -0.2360 C   0  0  0  0  0  0  0  0  0  0  0  0
    1.1660   -0.3980   -0.9890 C   0  0  0  0  0  0  0  0  0  0  0  0
    2.5260   -0.4920   -0.9210 O   0  0  0  0  0  0  0  0  0  0  0  0
    3.0420   -0.6200    0.3460 C   0  0  0  0  0  0  0  0  0  0  0  0
  1  2  1  0
  2  3  1  0
  3  4  1  0
  4  5  1  0
  5  6  1  0
  6  7  1  0
M  CHG  1   2   1
M  END
