
     RDKit          3D

  7  6  0  0  0  0  0  0  0  0999 V2000
    3.3340    0.1780   -0.5800 C   0  0  0  0  0  0  0  0  0  0  0  0
    2.3730    0.0740    0.3300 C   0  0  0  0  0  0  0  0  0  0  0  0
    0.9770   -0.2290   -0.0900 C   0  0  0  0  0  0  0  0  0  0  0  0
    0.1300    0.8480    0.3300 O   0  0  0  0  0  0  0  0  0  0  0  0
   -1.2190    0.7490    0.0270 C   0  0  0  0  0  0  0  0  0  0  0  0
   -1.7310   -0.4180   -0.0790 N   0  0  0  0  0  0  0  0  0  0  0  0
   -3.1480   -0.5040   -0.3970 C   0  0  0  0  0  0  0  0  0  0  0  0
  1  2  2  0
  2  3  1  0
  3  4  1  0
  4  5  1  0
  5  6  2  3
  6  7  1  0
M  END
