
     RDKit          3D

  7  6  0  0  0  0  0  0  0  0999 V2000
    2.7530    0.5250    0.3020 C   0  0  0  0  0  0  0  0  0  0  0  0
    1.5540   -0.3500   -0.0970 C   0  0  0  0  0  0  0  0  0  0  0  0
    0.3670    0.3800    0.2470 N   0  0  0  0  0  0  0  0  0  0  0  0
   -0.8450   -0.2870   -0.1060 C   0  0  1  0  0  0  0  0  0  0  0  0
   -1.0260   -1.6000    0.6090 C   0  0  0  0  0  0  0  0  0  0  0  0
   -1.9840    0.6280    0.3650 C   0  0  0  0  0  0  0  0  0  0  0  0
   -1.8780    1.8590   -0.2790 O   0  0  0  0  0  0  0  0  0  0  0  0
  1  2  1  0
  2  3  1  0
  3  4  1  0
  4  5  1  1
  4  6  1  0
  6  7  1  0
M  END
