
     RDKit          3D

 20 21  0  0  0  0  0  0  0  0999 V2000
   -4.8940    1.3050   -1.1000 C   0  0  0  0  0  0  0  0  0  0  0  0
   -5.0850    0.0520   -0.3390 C   0  0  0  0  0  0  0  0  0  0  0  0
   -4.0550   -0.7770   -0.0700 C   0  0  0  0  0  0  0  0  0  0  0  0
   -2.7280   -0.4140   -0.5490 C   0  0  0  0  0  0  0  0  0  0  0  0
   -1.6610   -0.2350    0.4730 C   0  0  0  0  0  0  0  0  0  0  0  0
   -0.4110    0.1470   -0.2100 C   0  0  0  0  0  0  0  0  0  0  0  0
   -0.3770    0.2680   -1.4430 O   0  0  0  0  0  0  0  0  0  0  0  0
    0.7470    0.3730    0.5560 N   0  0  0  0  0  0  0  0  0  0  0  0
    2.0140    0.7500   -0.0350 C   0  0  1  0  0  0  0  0  0  0  0  0
    2.8940    1.7020    0.6850 C   0  0  0  0  0  0  0  0  0  0  0  0
    3.2210    0.2180    0.6440 C   0  0  2  0  0  0  0  0  0  0  0  0
    4.4470   -0.1170   -0.0910 C   0  0  0  0  0  0  0  0  0  0  0  0
    5.6280    0.4440    0.1310 C   0  0  0  0  0  0  0  0  0  0  0  0
    6.6170   -0.1440   -0.7960 C   0  0  0  0  0  0  0  0  0  0  0  0
    5.9500   -1.1280   -1.3700 C   0  0  0  0  0  0  0  0  0  0  0  0
    4.6440   -1.0820   -1.1680 C   0  0  0  0  0  0  0  0  0  0  0  0
   -4.2590   -2.0280    0.6940 C   0  0  2  0  0  0  0  0  0  0  0  0
   -3.4610   -1.8770    2.2620 Cl  0  0  0  0  0  0  0  0  0  0  0  0
   -3.3920   -3.3170   -0.2070 Cl  0  0  0  0  0  0  0  0  0  0  0  0
   -5.9790   -2.4340    0.8620 Cl  0  0  0  0  0  0  0  0  0  0  0  0
  1  2  1  0
  2  3  2  3
  3  4  1  0
  3 17  1  0
  4  5  1  0
  5  6  1  0
  6  7  2  0
  6  8  1  0
  9  8  1  1
  9 10  1  0
  9 11  1  0
 10 11  1  0
 11 12  1  6
 12 13  2  0
 12 16  1  0
 13 14  1  0
 14 15  2  0
 15 16  2  0
 17 18  1  1
 17 19  1  0
 17 20  1  0
M  END
