
     RDKit          3D

 20 19  0  0  0  0  0  0  0  0999 V2000
    6.5900   -0.9270   -0.0170 C   0  0  0  0  0  0  0  0  0  0  0  0
    5.6930    0.1930   -0.2340 N   0  0  1  0  0  0  0  0  0  0  0  0
    5.9770    1.2130    0.7600 C   0  0  0  0  0  0  0  0  0  0  0  0
    5.7840    0.7040   -1.5740 C   0  0  0  0  0  0  0  0  0  0  0  0
    4.3340   -0.3270   -0.0580 C   0  0  0  0  0  0  0  0  0  0  0  0
    3.3500    0.7620    0.2020 C   0  0  0  0  0  0  0  0  0  0  0  0
    2.0470    0.2630    0.3710 O   0  0  0  0  0  0  0  0  0  0  0  0
    1.7690   -0.6070    1.4040 C   0  0  0  0  0  0  0  0  0  0  0  0
    2.6590   -0.9680    2.2110 O   0  0  0  0  0  0  0  0  0  0  0  0
    0.4120   -1.1750    1.6380 C   0  0  0  0  0  0  0  0  0  0  0  0
   -0.5780   -0.6730    0.6100 C   0  0  0  0  0  0  0  0  0  0  0  0
   -1.9250   -1.2480    0.8550 C   0  0  0  0  0  0  0  0  0  0  0  0
   -2.1060   -2.0400    1.8240 O   0  0  0  0  0  0  0  0  0  0  0  0
   -3.0200   -0.9580    0.0650 O   0  0  0  0  0  0  0  0  0  0  0  0
   -4.3090   -1.5310    0.3300 C   0  0  0  0  0  0  0  0  0  0  0  0
   -5.3130   -1.0580   -0.6660 C   0  0  0  0  0  0  0  0  0  0  0  0
   -5.4950    0.3630   -0.6780 N   0  0  1  0  0  0  0  0  0  0  0  0
   -5.0820    1.0020    0.5560 C   0  0  0  0  0  0  0  0  0  0  0  0
   -4.6650    0.9250   -1.7360 C   0  0  0  0  0  0  0  0  0  0  0  0
   -6.8870    0.6520   -0.9420 C   0  0  0  0  0  0  0  0  0  0  0  0
  2  1  1  6
  2  3  1  0
  2  4  1  0
  2  5  1  0
  5  6  1  0
  6  7  1  0
  7  8  1  0
  8  9  2  0
  8 10  1  0
 10 11  1  0
 11 12  1  0
 12 13  2  0
 12 14  1  0
 14 15  1  0
 15 16  1  0
 16 17  1  0
 17 18  1  1
 17 19  1  0
 17 20  1  0
M  CHG  2   2   1  17   1
M  END
