
     RDKit          3D

 22 23  0  0  0  0  0  0  0  0999 V2000
    6.3480   -0.0660   -0.2790 O   0  0  0  0  0  0  0  0  0  0  0  0
    5.7460    1.1660    0.0530 C   0  0  0  0  0  0  0  0  0  0  0  0
    4.4180    0.9040    0.7360 C   0  0  0  0  0  0  0  0  0  0  0  0
    3.4800    0.1310   -0.1650 C   0  0  1  0  0  0  0  0  0  0  0  0
    3.2560    0.8830   -1.3230 O   0  0  0  0  0  0  0  0  0  0  0  0
    4.0400   -1.0740   -0.5090 O   0  0  0  0  0  0  0  0  0  0  0  0
    2.1530   -0.0510    0.5290 C   0  0  2  0  0  0  0  0  0  0  0  0
    2.2380   -0.7800    1.6900 O   0  0  0  0  0  0  0  0  0  0  0  0
    1.1070   -0.6400   -0.3950 C   0  0  0  0  0  0  0  0  0  0  0  0
   -0.0910   -0.6000    0.2810 O   0  0  0  0  0  0  0  0  0  0  0  0
   -1.1600   -1.1120   -0.4460 C   0  0  1  0  0  0  0  0  0  0  0  0
   -1.6190   -2.2170    0.2180 O   0  0  0  0  0  0  0  0  0  0  0  0
   -2.9310   -2.1820    0.5980 C   0  0  2  0  0  0  0  0  0  0  0  0
   -3.7650   -2.3490   -0.5000 O   0  0  0  0  0  0  0  0  0  0  0  0
   -3.1790   -1.0140    1.2890 O   0  0  0  0  0  0  0  0  0  0  0  0
   -3.2370    0.0390    0.3810 C   0  0  2  0  0  0  0  0  0  0  0  0
   -3.1940    1.3280    1.1730 C   0  0  0  0  0  0  0  0  0  0  0  0
   -4.6240    1.7670    1.2240 C   0  0  0  0  0  0  0  0  0  0  0  0
   -5.1340    1.3340    0.0170 O   0  0  0  0  0  0  0  0  0  0  0  0
   -4.6200    0.0630   -0.2110 C   0  0  0  0  0  0  0  0  0  0  0  0
   -2.1670   -0.0380   -0.6690 C   0  0  1  0  0  0  0  0  0  0  0  0
   -1.5210    1.2070   -0.7050 O   0  0  0  0  0  0  0  0  0  0  0  0
  1  2  1  0
  2  3  1  0
  3  4  1  0
  4  5  1  6
  4  6  1  0
  4  7  1  0
  7  8  1  1
  7  9  1  0
  9 10  1  0
 11 10  1  1
 11 12  1  0
 11 21  1  0
 12 13  1  0
 13 14  1  6
 13 15  1  0
 15 16  1  0
 16 17  1  1
 16 20  1  0
 16 21  1  0
 17 18  1  0
 18 19  1  0
 19 20  1  0
 21 22  1  1
M  END
