
     RDKit          3D

 20 20  0  0  0  0  0  0  0  0999 V2000
   -4.1580    1.7280   -0.6000 C   0  0  0  0  0  0  0  0  0  0  0  0
   -4.1780    0.4810   -0.9690 C   0  0  0  0  0  0  0  0  0  0  0  0
   -3.1070   -0.4000   -1.4050 C   0  0  0  0  0  0  0  0  0  0  0  0
   -1.7010    0.0020   -1.2160 C   0  0  1  0  0  0  0  0  0  0  0  0
   -1.4550    1.2040   -1.7860 O   0  0  0  0  0  0  0  0  0  0  0  0
   -1.0680   -0.3280    0.1130 C   0  0  2  0  0  0  0  0  0  0  0  0
   -1.3610   -1.8480    0.2840 C   0  0  0  0  0  0  0  0  0  0  0  0
   -1.7990    0.3780    1.1910 C   0  0  0  0  0  0  0  0  0  0  0  0
   -1.3400    0.1690    2.6070 C   0  0  0  0  0  0  0  0  0  0  0  0
    0.3330   -0.2550    0.0800 N   0  0  0  0  0  0  0  0  0  0  0  0
    1.0790   -0.5830    1.2120 C   0  0  0  0  0  0  0  0  0  0  0  0
    2.3510   -1.3910    0.8060 C   0  0  0  0  0  0  0  0  0  0  0  0
    3.1370   -0.3480    0.0480 C   0  0  0  0  0  0  0  0  0  0  0  0
    4.3890   -0.1650    0.4140 C   0  0  0  0  0  0  0  0  0  0  0  0
    5.2340    0.8310   -0.2680 C   0  0  2  0  0  0  0  0  0  0  0  0
    5.1780    0.6790   -2.0300 Cl  0  0  0  0  0  0  0  0  0  0  0  0
    6.9580    0.6230    0.1950 Cl  0  0  0  0  0  0  0  0  0  0  0  0
    4.7830    2.4940    0.2160 Cl  0  0  0  0  0  0  0  0  0  0  0  0
    2.4470    0.3600   -1.0150 C   0  0  0  0  0  0  0  0  0  0  0  0
    0.9750    0.5220   -0.9110 C   0  0  0  0  0  0  0  0  0  0  0  0
  1  2  2  0
  2  3  1  0
  3  4  1  0
  4  5  1  1
  4  6  1  0
  6  7  1  1
  6  8  1  0
  6 10  1  0
  8  9  1  0
 10 11  1  0
 10 20  1  0
 11 12  1  0
 12 13  1  0
 13 14  2  3
 13 19  1  0
 14 15  1  0
 15 16  1  6
 15 17  1  0
 15 18  1  0
 19 20  1  0
M  END
