
     RDKit          3D

 20 21  0  0  0  0  0  0  0  0999 V2000
   -0.2010    1.8690   -4.0220 Cl  0  0  0  0  0  0  0  0  0  0  0  0
   -0.0470    0.5110   -2.8850 C   0  0  0  0  0  0  0  0  0  0  0  0
    0.2550    1.0650   -1.5090 C   0  0  0  0  0  0  0  0  0  0  0  0
    0.4000    0.0240   -0.5190 N   0  0  0  0  0  0  0  0  0  0  0  0
   -0.6590   -0.7910   -0.0430 C   0  0  0  0  0  0  0  0  0  0  0  0
   -1.7420   -0.2220    0.7730 C   0  0  1  0  0  0  0  0  0  0  0  0
   -2.5500    0.8930    0.2360 C   0  0  0  0  0  0  0  0  0  0  0  0
   -3.9050    0.8710    0.9760 C   0  0  0  0  0  0  0  0  0  0  0  0
   -4.6700   -0.3050    0.3510 C   0  0  0  0  0  0  0  0  0  0  0  0
   -3.5900   -1.3690    0.0810 C   0  0  0  0  0  0  0  0  0  0  0  0
   -2.6360   -1.2840    1.1000 O   0  0  0  0  0  0  0  0  0  0  0  0
    1.7170   -0.2270   -0.0450 C   0  0  0  0  0  0  0  0  0  0  0  0
    2.0910   -1.5190    0.0620 C   0  0  0  0  0  0  0  0  0  0  0  0
    3.4880   -1.6950    0.5670 C   0  0  0  0  0  0  0  0  0  0  0  0
    4.3580   -0.8680   -0.3730 C   0  0  0  0  0  0  0  0  0  0  0  0
    4.1600    0.5770    0.0240 C   0  0  0  0  0  0  0  0  0  0  0  0
    2.6980    0.7570    0.3150 C   0  0  0  0  0  0  0  0  0  0  0  0
    2.3370    1.8500    0.9290 C   0  0  0  0  0  0  0  0  0  0  0  0
    3.5550    3.0300    1.3510 Cl  0  0  0  0  0  0  0  0  0  0  0  0
    0.6890    2.1720    1.3640 Cl  0  0  0  0  0  0  0  0  0  0  0  0
  1  2  1  0
  2  3  1  0
  3  4  1  0
  4  5  1  0
  4 12  1  0
  6  5  1  6
  6  7  1  0
  6 11  1  0
  7  8  1  0
  8  9  1  0
  9 10  1  0
 10 11  1  0
 12 13  2  0
 12 17  1  0
 13 14  1  0
 14 15  1  0
 15 16  1  0
 16 17  1  0
 17 18  2  3
 18 19  1  0
 18 20  1  0
M  END
