
     RDKit          3D

 20 21  0  0  0  0  0  0  0  0999 V2000
    3.1100   -1.7580    1.9940 C   0  0  0  0  0  0  0  0  0  0  0  0
    2.3060   -1.3190    1.0100 C   0  0  0  0  0  0  0  0  0  0  0  0
    0.9710   -1.8480    0.6360 C   0  0  0  0  0  0  0  0  0  0  0  0
    0.2690   -0.6290    0.1070 C   0  0  0  0  0  0  0  0  0  0  0  0
   -1.0130   -0.3720   -0.1580 C   0  0  0  0  0  0  0  0  0  0  0  0
   -2.0610   -1.3150    0.0120 C   0  0  0  0  0  0  0  0  0  0  0  0
   -3.2330   -0.8250   -0.3930 O   0  0  0  0  0  0  0  0  0  0  0  0
   -2.2140   -2.6630    0.5070 C   0  0  1  0  0  0  0  0  0  0  0  0
   -3.9570   -3.2190    0.2160 Cl  0  0  0  0  0  0  0  0  0  0  0  0
   -1.2610   -3.9320   -0.2230 Cl  0  0  0  0  0  0  0  0  0  0  0  0
   -2.1070   -2.7670    2.3040 Cl  0  0  0  0  0  0  0  0  0  0  0  0
   -1.2730    1.0720   -0.4730 C   0  0  2  0  0  0  0  0  0  0  0  0
   -2.6400    1.5870   -0.4730 C   0  0  0  0  0  0  0  0  0  0  0  0
   -3.3340    1.4980    0.8640 C   0  0  0  0  0  0  0  0  0  0  0  0
   -0.3920    1.4710   -1.5200 N   0  0  0  0  0  0  0  0  0  0  0  0
    1.0060    1.2390   -1.2380 C   0  0  0  0  0  0  0  0  0  0  0  0
    2.0240    2.0960   -1.8710 C   0  0  0  0  0  0  0  0  0  0  0  0
    1.3500    0.2260   -0.4480 C   0  0  0  0  0  0  0  0  0  0  0  0
    2.6190   -0.2100    0.1110 C   0  0  0  0  0  0  0  0  0  0  0  0
    3.8070    0.2760   -0.1250 C   0  0  0  0  0  0  0  0  0  0  0  0
  1  2  2  0
  2  3  1  0
  2 19  1  0
  3  4  1  0
  4  5  2  0
  4 18  1  0
  5  6  1  0
  5 12  1  0
  6  7  2  0
  6  8  1  0
  8  9  1  1
  8 10  1  0
  8 11  1  0
 12 13  1  6
 12 15  1  0
 13 14  1  0
 15 16  1  0
 16 17  1  0
 16 18  2  0
 18 19  1  0
 19 20  2  0
M  END
