
     RDKit          3D

 22 22  0  0  0  0  0  0  0  0999 V2000
   -3.6740    1.1430    1.3850 C   0  0  0  0  0  0  0  0  0  0  0  0
   -2.3860    1.3350    0.6630 C   0  0  1  0  0  0  0  0  0  0  0  0
   -1.6170    2.2250    1.4250 O   0  0  0  0  0  0  0  0  0  0  0  0
   -1.5940    0.1350    0.3290 C   0  0  1  0  0  0  0  0  0  0  0  0
   -1.2140   -0.5830    1.6090 C   0  0  0  0  0  0  0  0  0  0  0  0
   -2.4220   -0.8760   -0.4510 C   0  0  1  0  0  0  0  0  0  0  0  0
   -2.8920   -0.3620   -1.6440 O   0  0  0  0  0  0  0  0  0  0  0  0
   -1.7130   -2.0670   -0.6110 O   0  0  0  0  0  0  0  0  0  0  0  0
   -0.2900    0.4310   -0.3690 C   0  0  2  0  0  0  0  0  0  0  0  0
   -0.4410    1.1640   -1.6880 C   0  0  0  0  0  0  0  0  0  0  0  0
   -0.9260    2.4500   -1.5680 O   0  0  0  0  0  0  0  0  0  0  0  0
    0.2530   -0.8310   -0.7660 O   0  0  0  0  0  0  0  0  0  0  0  0
    1.3960   -1.0330   -0.0460 C   0  0  1  0  0  0  0  0  0  0  0  0
    2.4530   -1.7580   -0.8710 C   0  0  1  0  0  0  0  0  0  0  0  0
    2.7730   -1.0020   -2.0020 O   0  0  0  0  0  0  0  0  0  0  0  0
    3.6890   -2.0760   -0.0570 C   0  0  0  0  0  0  0  0  0  0  0  0
    4.3060   -0.8320    0.4680 C   0  0  0  0  0  0  0  0  0  0  0  0
    4.2600   -0.5950    1.6940 O   0  0  0  0  0  0  0  0  0  0  0  0
    4.9370    0.0880   -0.3570 O   0  0  0  0  0  0  0  0  0  0  0  0
    1.8310    0.1660    0.4290 O   0  0  0  0  0  0  0  0  0  0  0  0
    0.7840    1.0430    0.4040 C   0  0  1  0  0  0  0  0  0  0  0  0
    1.2700    2.1880   -0.3050 O   0  0  0  0  0  0  0  0  0  0  0  0
  2  1  1  1
  2  3  1  0
  2  4  1  0
  4  5  1  1
  4  6  1  0
  4  9  1  0
  6  7  1  6
  6  8  1  0
  9 10  1  6
  9 12  1  0
  9 21  1  0
 10 11  1  0
 13 12  1  6
 13 14  1  0
 13 20  1  0
 14 15  1  6
 14 16  1  0
 16 17  1  0
 17 18  2  0
 17 19  1  0
 20 21  1  0
 21 22  1  6
M  END
