
     RDKit          3D

 20 20  0  0  0  0  0  0  0  0999 V2000
    5.4790   -2.3590    0.8260 C   0  0  0  0  0  0  0  0  0  0  0  0
    4.7590   -1.9620   -0.4430 C   0  0  0  0  0  0  0  0  0  0  0  0
    3.3540   -1.6430   -0.0920 C   0  0  0  0  0  0  0  0  0  0  0  0
    2.8090   -0.4270   -0.3170 C   0  0  0  0  0  0  0  0  0  0  0  0
    1.4510   -0.2160    0.0540 C   0  0  0  0  0  0  0  0  0  0  0  0
    0.8100    0.9340   -0.1190 C   0  0  0  0  0  0  0  0  0  0  0  0
    1.2670    2.1940   -0.6860 C   0  0  0  0  0  0  0  0  0  0  0  0
    2.8710    2.5400   -1.3090 Cl  0  0  0  0  0  0  0  0  0  0  0  0
    0.2940    3.0890   -0.6770 C   0  0  0  0  0  0  0  0  0  0  0  0
    0.3900    4.4990   -1.1780 C   0  0  0  0  0  0  0  0  0  0  0  0
    0.0420    5.6230    0.1790 Cl  0  0  0  0  0  0  0  0  0  0  0  0
   -0.9220    2.5070   -0.1090 C   0  0  0  0  0  0  0  0  0  0  0  0
   -0.5680    1.1670    0.2430 N   0  0  0  0  0  0  0  0  0  0  0  0
   -1.4640    0.1810    0.8660 C   0  0  0  0  0  0  0  0  0  0  0  0
   -2.4930   -0.1870   -0.1540 C   0  0  1  0  0  0  0  0  0  0  0  0
   -1.6900   -0.8820   -1.5670 Cl  0  0  0  0  0  0  0  0  0  0  0  0
   -3.5930   -1.0540    0.3900 C   0  0  1  0  0  0  0  0  0  0  0  0
   -4.5510   -1.3540   -0.7430 C   0  0  0  0  0  0  0  0  0  0  0  0
   -3.1090   -2.2690    1.1040 C   0  0  0  0  0  0  0  0  0  0  0  0
   -4.3470   -0.2940    1.3180 O   0  0  0  0  0  0  0  0  0  0  0  0
  1  2  1  0
  2  3  1  0
  3  4  2  3
  4  5  1  0
  5  6  2  3
  6  7  1  0
  6 13  1  0
  7  8  1  0
  7  9  2  0
  9 10  1  0
  9 12  1  0
 10 11  1  0
 12 13  1  0
 13 14  1  0
 14 15  1  0
 15 16  1  6
 15 17  1  0
 17 18  1  6
 17 19  1  0
 17 20  1  0
M  END
