
     RDKit          3D

 20 21  0  0  0  0  0  0  0  0999 V2000
    1.6300   -1.5860    2.0400 O   0  0  0  0  0  0  0  0  0  0  0  0
    1.0850   -0.8980    1.1050 C   0  0  0  0  0  0  0  0  0  0  0  0
    1.8740   -0.3680    0.0740 N   0  0  0  0  0  0  0  0  0  0  0  0
    3.3030   -0.6400    0.1320 C   0  0  2  0  0  0  0  0  0  0  0  0
    4.1220    0.6360    0.1100 C   0  0  0  0  0  0  0  0  0  0  0  0
    5.4870    0.1550   -0.3210 C   0  0  0  0  0  0  0  0  0  0  0  0
    5.2990   -1.1980   -0.9610 C   0  0  0  0  0  0  0  0  0  0  0  0
    3.7990   -1.3290   -1.1220 C   0  0  0  0  0  0  0  0  0  0  0  0
   -0.3770   -0.7110    1.1880 C   0  0  0  0  0  0  0  0  0  0  0  0
   -1.1250   -1.4430    2.6130 Cl  0  0  0  0  0  0  0  0  0  0  0  0
   -1.0110   -0.0340    0.2930 C   0  0  0  0  0  0  0  0  0  0  0  0
   -2.4470    0.2530    0.2060 C   0  0  0  0  0  0  0  0  0  0  0  0
   -2.8070    1.0240   -0.8500 C   0  0  0  0  0  0  0  0  0  0  0  0
   -4.2170    1.3510   -0.9880 C   0  0  0  0  0  0  0  0  0  0  0  0
   -4.7990    1.5810   -2.1180 C   0  0  0  0  0  0  0  0  0  0  0  0
   -3.9110    1.5180   -3.6440 Cl  0  0  0  0  0  0  0  0  0  0  0  0
   -4.9950    1.4120    0.2880 C   0  0  0  0  0  0  0  0  0  0  0  0
   -4.8160    0.0940    0.9630 C   0  0  0  0  0  0  0  0  0  0  0  0
   -3.4040   -0.3010    1.1510 C   0  0  1  0  0  0  0  0  0  0  0  0
   -3.3210   -2.1060    0.9220 Cl  0  0  0  0  0  0  0  0  0  0  0  0
  1  2  2  0
  2  3  1  0
  2  9  1  0
  4  3  1  6
  4  5  1  0
  4  8  1  0
  5  6  1  0
  6  7  1  0
  7  8  1  0
  9 10  1  0
  9 11  2  3
 11 12  1  0
 12 13  2  0
 12 19  1  0
 13 14  1  0
 14 15  2  3
 14 17  1  0
 15 16  1  0
 17 18  1  0
 18 19  1  0
 19 20  1  6
M  END
