
     RDKit          3D

 22 24  0  0  0  0  0  0  0  0999 V2000
    1.4590    0.2530    3.6090 O   0  0  0  0  0  0  0  0  0  0  0  0
    0.4360    0.3990    2.8790 C   0  0  0  0  0  0  0  0  0  0  0  0
   -0.7950    0.4940    3.2960 O   0  0  0  0  0  0  0  0  0  0  0  0
   -1.6170    0.6400    2.2550 C   0  0  0  0  0  0  0  0  0  0  0  0
   -0.8150    0.6300    1.1410 C   0  0  0  0  0  0  0  0  0  0  0  0
   -1.1750    0.7220   -0.2700 C   0  0  0  0  0  0  0  0  0  0  0  0
   -2.5860    0.4460   -0.6580 C   0  0  1  0  0  0  0  0  0  0  0  0
   -3.0890   -0.9300   -0.3890 C   0  0  0  0  0  0  0  0  0  0  0  0
   -3.3420   -1.2840    0.9060 O   0  0  0  0  0  0  0  0  0  0  0  0
   -3.5270    1.4680   -0.2000 N   0  0  0  0  0  0  0  0  0  0  0  0
   -4.6000    1.3360   -1.1180 N   0  0  0  0  0  0  0  0  0  0  0  0
   -4.1280    0.8560   -2.2030 N   0  0  0  0  0  0  0  0  0  0  0  0
   -2.7590    0.6430   -2.0850 O   0  0  0  0  0  0  0  0  0  0  0  0
    0.4940    0.4760    1.5460 N   0  0  0  0  0  0  0  0  0  0  0  0
    1.6150    0.4200    0.6650 C   0  0  0  0  0  0  0  0  0  0  0  0
    2.5230   -0.4910    0.6260 N   0  0  0  0  0  0  0  0  0  0  0  0
    3.5190   -0.2470   -0.3850 C   0  0  1  0  0  0  0  0  0  0  0  0
    3.6100   -1.6210   -1.6270 P   0  0  0  0  0  0  0  0  0  0  0  0
    5.1650   -1.5590   -2.4000 O   0  0  0  0  0  0  0  0  0  0  0  0
    3.4940   -3.1760   -0.8350 O   0  0  0  0  0  0  0  0  0  0  0  0
    3.0670    1.0190   -0.9990 C   0  0  0  0  0  0  0  0  0  0  0  0
    1.9670    1.3800   -0.3740 C   0  0  0  0  0  0  0  0  0  0  0  0
  1  2  2  0
  2  3  1  0
  2 14  1  0
  3  4  1  0
  4  5  2  0
  5  6  1  0
  5 14  1  0
  7  6  1  1
  7  8  1  0
  7 10  1  0
  7 13  1  0
  8  9  1  0
 10 11  1  0
 11 12  2  0
 12 13  1  0
 14 15  1  0
 15 16  2  0
 15 22  1  0
 16 17  1  0
 17 18  1  6
 17 21  1  0
 18 19  1  0
 18 20  1  0
 21 22  2  0
M  END
