
     RDKit          3D

 21 23  0  0  0  0  0  0  0  0999 V2000
   -2.1200   -3.5510    0.8840 O   0  0  0  0  0  0  0  0  0  0  0  0
   -2.1050   -2.5450    0.1530 C   0  0  0  0  0  0  0  0  0  0  0  0
   -3.1940   -2.1710   -0.6730 N   0  0  0  0  0  0  0  0  0  0  0  0
   -3.2050   -0.9650   -1.4420 C   0  0  0  0  0  0  0  0  0  0  0  0
   -1.8730   -0.2700   -1.5800 C   0  0  0  0  0  0  0  0  0  0  0  0
   -1.2100   -0.2670   -0.2300 C   0  0  2  0  0  0  0  0  0  0  0  0
   -2.1950    0.3030    0.7210 C   0  0  0  0  0  0  0  0  0  0  0  0
   -2.9310   -0.4520    1.4020 O   0  0  0  0  0  0  0  0  0  0  0  0
   -2.2800    1.7150    0.8350 N   0  0  0  0  0  0  0  0  0  0  0  0
   -1.0290    2.4280    0.5500 C   0  0  0  0  0  0  0  0  0  0  0  0
    0.0590    1.4160    0.9370 C   0  0  0  0  0  0  0  0  0  0  0  0
    0.1420    0.3720   -0.1750 C   0  0  1  0  0  0  0  0  0  0  0  0
    1.0670   -0.6620    0.1670 N   0  0  0  0  0  0  0  0  0  0  0  0
    2.4920   -0.6180    0.3030 C   0  0  0  0  0  0  0  0  0  0  0  0
    3.1550   -1.6400    0.6500 O   0  0  0  0  0  0  0  0  0  0  0  0
    3.2440    0.5540    0.0610 N   0  0  0  0  0  0  0  0  0  0  0  0
    5.0330    0.6140    0.2370 P   0  0  0  0  0  0  0  0  0  0  0  0
    5.7810    1.5120   -1.0350 O   0  0  0  0  0  0  0  0  0  0  0  0
    5.7000   -0.9740    0.3640 O   0  0  0  0  0  0  0  0  0  0  0  0
    0.3290   -1.8420    0.3390 N   0  0  0  0  0  0  0  0  0  0  0  0
   -0.9190   -1.6930    0.1260 C   0  0  0  0  0  0  0  0  0  0  0  0
  1  2  2  0
  2  3  1  0
  2 21  1  0
  3  4  1  0
  4  5  1  0
  6  5  1  6
  6  7  1  0
  6 12  1  0
  6 21  1  0
  7  8  2  0
  7  9  1  0
  9 10  1  0
 10 11  1  0
 12 11  1  1
 12 13  1  0
 13 14  1  0
 13 20  1  0
 14 15  2  0
 14 16  1  0
 16 17  1  0
 17 18  1  0
 17 19  1  0
 20 21  2  0
M  END
