
     RDKit          3D

 22 25  0  0  0  0  0  0  0  0999 V2000
    5.9280    2.2230    0.9670 O   0  0  0  0  0  0  0  0  0  0  0  0
    5.4390    1.2650   -0.4100 P   0  0  0  0  0  0  0  0  0  0  0  0
    5.1390    2.4020   -1.7120 O   0  0  0  0  0  0  0  0  0  0  0  0
    3.9510    0.4730   -0.0460 O   0  0  0  0  0  0  0  0  0  0  0  0
    4.0630   -0.9150   -0.1510 C   0  0  0  0  0  0  0  0  0  0  0  0
    2.7240   -1.5290    0.1820 C   0  0  1  0  0  0  0  0  0  0  0  0
    2.1840   -1.0320    1.5010 C   0  0  0  0  0  0  0  0  0  0  0  0
    0.9300   -0.5070    1.1870 O   0  0  0  0  0  0  0  0  0  0  0  0
    0.5990   -1.1910    0.0210 C   0  0  1  0  0  0  0  0  0  0  0  0
   -0.5450   -0.5950   -0.6780 C   0  0  0  0  0  0  0  0  0  0  0  0
   -0.4810   -0.1410   -1.8910 N   0  0  0  0  0  0  0  0  0  0  0  0
   -1.7250    0.3610   -2.2760 N   0  0  0  0  0  0  0  0  0  0  0  0
   -2.6180    0.1930   -1.1960 C   0  0  0  0  0  0  0  0  0  0  0  0
   -3.8520    0.3900   -0.8030 C   0  0  0  0  0  0  0  0  0  0  0  0
   -5.0650    0.9570   -1.3790 C   0  0  0  0  0  0  0  0  0  0  0  0
   -6.1340    0.9920   -0.6920 N   0  0  0  0  0  0  0  0  0  0  0  0
   -6.1660    0.4830    0.6420 C   0  0  0  0  0  0  0  0  0  0  0  0
   -5.1060   -0.0500    1.2390 C   0  0  0  0  0  0  0  0  0  0  0  0
   -3.8720   -0.1290    0.5450 N   0  0  0  0  0  0  0  0  0  0  0  0
   -2.6780   -0.6030    0.8950 O   0  0  0  0  0  0  0  0  0  0  0  0
   -1.8680   -0.4230   -0.1590 N   0  0  0  0  0  0  0  0  0  0  0  0
    1.7710   -1.0530   -0.7180 O   0  0  0  0  0  0  0  0  0  0  0  0
  1  2  1  0
  2  3  1  0
  2  4  1  0
  4  5  1  0
  6  5  1  6
  6  7  1  0
  6 22  1  0
  7  8  1  0
  8  9  1  0
  9 10  1  6
  9 22  1  0
 10 11  2  0
 10 21  1  0
 11 12  1  0
 12 13  1  0
 13 14  2  0
 13 21  1  0
 14 15  1  0
 14 19  1  0
 15 16  2  0
 16 17  1  0
 17 18  2  0
 18 19  1  0
 19 20  1  0
 20 21  1  0
M  END
