
     RDKit          3D

 22 25  0  0  0  0  0  0  0  0999 V2000
    3.4320   -0.1680    1.4870 N   0  0  0  0  0  0  0  0  0  0  0  0
    3.2250   -0.0720    0.0770 C   0  0  1  0  0  0  0  0  0  0  0  0
    4.2140   -1.2810   -0.9030 P   0  0  0  0  0  0  0  0  0  0  0  0
    5.8220   -0.6720   -1.1350 O   0  0  0  0  0  0  0  0  0  0  0  0
    1.7890   -0.2040   -0.1810 N   0  0  0  0  0  0  0  0  0  0  0  0
    1.0360    0.9840   -0.0110 C   0  0  0  0  0  0  0  0  0  0  0  0
   -0.1860    1.0450   -0.3880 N   0  0  0  0  0  0  0  0  0  0  0  0
   -0.7910   -0.1100   -0.9900 C   0  0  0  0  0  0  0  0  0  0  0  0
   -0.5220   -0.6430   -2.1920 N   0  0  0  0  0  0  0  0  0  0  0  0
   -1.2790   -1.6770   -2.3660 O   0  0  0  0  0  0  0  0  0  0  0  0
   -2.0540   -1.8730   -1.3340 C   0  0  0  0  0  0  0  0  0  0  0  0
   -3.0380   -2.6430   -0.7550 C   0  0  0  0  0  0  0  0  0  0  0  0
   -3.3180   -2.1510    0.4090 O   0  0  0  0  0  0  0  0  0  0  0  0
   -2.5950   -1.1020    0.6610 C   0  0  0  0  0  0  0  0  0  0  0  0
   -2.5830   -0.2820    1.7890 O   0  0  0  0  0  0  0  0  0  0  0  0
   -3.2780    0.8730    1.9010 N   0  0  0  0  0  0  0  0  0  0  0  0
   -3.4970    1.7350    0.7790 C   0  0  0  0  0  0  0  0  0  0  0  0
   -4.5950    0.8660    1.2490 C   0  0  0  0  0  0  0  0  0  0  0  0
   -1.7670   -0.8770   -0.4210 C   0  0  0  0  0  0  0  0  0  0  0  0
    1.6780    2.1650    0.6110 C   0  0  0  0  0  0  0  0  0  0  0  0
    3.0660    2.0260    0.6630 O   0  0  0  0  0  0  0  0  0  0  0  0
    3.5340    1.2570   -0.2970 O   0  0  0  0  0  0  0  0  0  0  0  0
  2  1  1  1
  2  3  1  0
  2  5  1  0
  2 22  1  0
  3  4  1  0
  5  6  1  0
  6  7  2  3
  6 20  1  0
  7  8  1  0
  8  9  2  0
  8 19  1  0
  9 10  1  0
 10 11  1  0
 11 12  2  0
 11 19  1  0
 12 13  1  0
 13 14  1  0
 14 15  1  0
 14 19  2  0
 15 16  1  0
 16 17  1  0
 16 18  1  0
 17 18  1  0
 20 21  1  0
 21 22  1  0
M  END
