
     RDKit          3D

 22 24  0  0  0  0  0  0  0  0999 V2000
    4.2100    0.9120   -0.6780 O   0  0  0  0  0  0  0  0  0  0  0  0
    4.1680   -0.2550   -0.3620 C   0  0  0  0  0  0  0  0  0  0  0  0
    5.4990   -0.9630   -0.2140 N   0  0  0  0  0  0  0  0  0  0  0  0
    6.9610   -0.0710   -0.5030 P   0  0  0  0  0  0  0  0  0  0  0  0
    3.1640   -1.2090   -0.0710 N   0  0  0  0  0  0  0  0  0  0  0  0
    1.8270   -0.2030   -0.3700 C   0  0  0  0  0  0  0  0  0  0  0  0
    2.1190    0.8820   -0.7580 O   0  0  0  0  0  0  0  0  0  0  0  0
    0.5870   -0.7280   -0.1390 N   0  0  0  0  0  0  0  0  0  0  0  0
   -0.5170    0.2280   -0.4080 C   0  0  0  0  0  0  0  0  0  0  0  0
   -1.5790    0.1700    0.6420 C   0  0  1  0  0  0  0  0  0  0  0  0
   -1.0460    0.6810    1.8170 O   0  0  0  0  0  0  0  0  0  0  0  0
   -2.6200    1.1560    0.1830 C   0  0  0  0  0  0  0  0  0  0  0  0
   -2.4460    2.4230   -0.2490 N   0  0  0  0  0  0  0  0  0  0  0  0
   -3.5870    2.9580   -0.5490 N   0  0  0  0  0  0  0  0  0  0  0  0
   -4.5430    2.0530   -0.3180 C   0  0  0  0  0  0  0  0  0  0  0  0
   -3.9470    0.8900    0.1510 C   0  0  0  0  0  0  0  0  0  0  0  0
   -4.3790   -0.3620    0.5520 O   0  0  0  0  0  0  0  0  0  0  0  0
   -3.4920   -1.4570    0.3570 C   0  0  0  0  0  0  0  0  0  0  0  0
   -2.1190   -1.1930    0.8760 C   0  0  1  0  0  0  0  0  0  0  0  0
   -1.2500   -2.2020    0.3100 O   0  0  0  0  0  0  0  0  0  0  0  0
    0.1490   -1.9900    0.2890 C   0  0  0  0  0  0  0  0  0  0  0  0
    0.9030   -2.9120    0.6420 O   0  0  0  0  0  0  0  0  0  0  0  0
  1  2  2  0
  2  3  1  0
  2  5  1  0
  3  4  1  0
  5  6  1  0
  6  7  2  0
  6  8  1  0
  8  9  1  0
  8 21  1  0
  9 10  1  0
 10 11  1  1
 10 12  1  0
 10 19  1  0
 12 13  2  0
 12 16  1  0
 13 14  1  0
 14 15  1  0
 15 16  2  0
 16 17  1  0
 17 18  1  0
 19 18  1  6
 19 20  1  0
 20 21  1  0
 21 22  2  0
M  END
