
     RDKit          3D

 14 13  0  0  0  0  0  0  0  0999 V2000
   -2.2040   -1.8000   -0.8030 C   0  0  0  0  0  0  0  0  0  0  0  0
   -0.9970   -1.2990   -0.1420 C   0  0  0  0  0  0  0  0  0  0  0  0
   -0.2100   -2.2260    0.5670 O   0  0  0  0  0  0  0  0  0  0  0  0
   -0.5880   -0.0540   -0.1560 C   0  0  0  0  0  0  0  0  0  0  0  0
    0.5760    0.3350    0.5030 O   0  0  0  0  0  0  0  0  0  0  0  0
    1.8490   -0.1790    0.1550 C   0  0  0  0  0  0  0  0  0  0  0  0
    2.8110    0.3900    0.9840 O   0  0  0  0  0  0  0  0  0  0  0  0
    2.4730    0.0420    2.2970 C   0  0  0  0  0  0  0  0  0  0  0  0
    3.3830    0.5690    3.2110 O   0  0  0  0  0  0  0  0  0  0  0  0
   -1.3540    0.9520   -0.8680 C   0  0  0  0  0  0  0  0  0  0  0  0
   -2.5120    0.5580   -1.5230 O   0  0  0  0  0  0  0  0  0  0  0  0
   -0.9570    2.2200   -0.8940 C   0  0  0  0  0  0  0  0  0  0  0  0
   -1.9430    3.4060   -1.7880 S   0  0  0  0  0  0  0  0  0  0  0  0
    0.6140    2.8390   -0.0240 Br  0  0  0  0  0  0  0  0  0  0  0  0
  1  2  1  0
  2  3  1  0
  2  4  2  3
  4  5  1  0
  4 10  1  0
  5  6  1  0
  6  7  1  0
  7  8  1  0
  8  9  1  0
 10 11  1  0
 10 12  2  3
 12 13  1  0
 12 14  1  0
M  END
