
     RDKit          3D

 14 14  0  0  0  0  0  0  0  0999 V2000
   -0.3040    0.3250   -1.6430 O   0  0  0  0  0  0  0  0  0  0  0  0
   -0.0940    0.0320   -0.4390 C   0  0  0  0  0  0  0  0  0  0  0  0
   -1.1760   -0.0640    0.3910 O   0  0  0  0  0  0  0  0  0  0  0  0
   -2.5210    0.1570   -0.0650 C   0  0  0  0  0  0  0  0  0  0  0  0
   -3.5070   -0.0120    1.0510 C   0  0  0  0  0  0  0  0  0  0  0  0
   -4.7760    0.2160    0.5320 O   0  0  0  0  0  0  0  0  0  0  0  0
    1.2840   -0.1840   -0.0200 C   0  0  0  0  0  0  0  0  0  0  0  0
    2.3620   -0.1040   -0.7780 C   0  0  0  0  0  0  0  0  0  0  0  0
    2.3540    0.2090   -2.1490 O   0  0  0  0  0  0  0  0  0  0  0  0
    3.5790   -0.3850   -0.0110 C   0  0  1  0  0  0  0  0  0  0  0  0
    4.8170    1.0810   -0.0500 Br  0  0  0  0  0  0  0  0  0  0  0  0
    3.0510   -0.6510    1.3520 C   0  0  0  0  0  0  0  0  0  0  0  0
    4.0200   -1.0230    2.6160 S   0  0  0  0  0  0  0  0  0  0  0  0
    1.6910   -0.5170    1.2840 O   0  0  0  0  0  0  0  0  0  0  0  0
  1  2  2  0
  2  3  1  0
  2  7  1  0
  3  4  1  0
  4  5  1  0
  5  6  1  0
  7  8  2  0
  7 14  1  0
  8  9  1  0
  8 10  1  0
 10 11  1  1
 10 12  1  0
 12 13  2  0
 12 14  1  0
M  END
