
     RDKit          3D

 14 14  0  0  0  0  0  0  0  0999 V2000
   -1.1080   -0.3500    1.9600 C   0  0  0  0  0  0  0  0  0  0  0  0
   -1.5030   -0.0810    0.5550 C   0  0  0  0  0  0  0  0  0  0  0  0
   -2.7660    0.1840    0.2650 C   0  0  0  0  0  0  0  0  0  0  0  0
   -4.0540    0.2080    1.7030 Br  0  0  0  0  0  0  0  0  0  0  0  0
   -3.1340    0.4310   -1.0170 O   0  0  0  0  0  0  0  0  0  0  0  0
   -2.2880    0.4370   -2.1170 C   0  0  0  0  0  0  0  0  0  0  0  0
   -0.9060    0.1380   -1.7300 C   0  0  0  0  0  0  0  0  0  0  0  0
   -0.5100   -0.1050   -0.5160 C   0  0  0  0  0  0  0  0  0  0  0  0
    1.1440   -0.4600   -0.0780 S   0  0  1  0  0  0  0  0  0  0  0  0
    1.1230   -1.3470    1.1310 O   0  0  0  0  0  0  0  0  0  0  0  0
    1.8690   -1.1460   -1.2000 O   0  0  0  0  0  0  0  0  0  0  0  0
    2.0030    0.9220    0.2980 O   0  0  0  0  0  0  0  0  0  0  0  0
    3.3640    0.6990    0.2360 C   0  0  0  0  0  0  0  0  0  0  0  0
    3.7990   -0.2900    1.1160 O   0  0  0  0  0  0  0  0  0  0  0  0
  1  2  1  0
  2  3  2  0
  2  8  1  0
  3  4  1  0
  3  5  1  0
  5  6  1  0
  6  7  1  0
  7  8  2  0
  8  9  1  0
  9 10  2  0
  9 11  2  0
  9 12  1  1
 12 13  1  0
 13 14  1  0
M  END
