
     RDKit          3D

 14 14  0  0  0  0  0  0  0  0999 V2000
    2.0570    0.9770   -1.7580 C   0  0  0  0  0  0  0  0  0  0  0  0
    2.0510    0.1230   -0.7810 C   0  0  0  0  0  0  0  0  0  0  0  0
    0.9720   -0.4300    0.0260 C   0  0  0  0  0  0  0  0  0  0  0  0
   -0.3640    0.2070    0.0890 C   0  0  0  0  0  0  0  0  0  0  0  0
   -0.5600    1.2360   -0.5650 O   0  0  0  0  0  0  0  0  0  0  0  0
   -1.3800   -0.3130    0.8480 O   0  0  0  0  0  0  0  0  0  0  0  0
   -2.6640    0.2530    0.9370 C   0  0  0  0  0  0  0  0  0  0  0  0
   -3.3460    0.2910   -0.3890 C   0  0  0  0  0  0  0  0  0  0  0  0
   -5.1110    1.0740   -0.2100 Br  0  0  0  0  0  0  0  0  0  0  0  0
    1.2680   -1.5070    0.6730 C   0  0  0  0  0  0  0  0  0  0  0  0
    2.5430   -2.0060    0.5340 O   0  0  0  0  0  0  0  0  0  0  0  0
    3.4660   -0.7060   -0.0690 S   0  0  2  0  0  0  0  0  0  0  0  0
    4.0590    0.1230    1.0060 O   0  0  0  0  0  0  0  0  0  0  0  0
    4.4210   -1.1210   -1.1250 O   0  0  0  0  0  0  0  0  0  0  0  0
  1  2  2  0
  2  3  1  0
  2 12  1  0
  3  4  1  0
  3 10  2  0
  4  5  2  0
  4  6  1  0
  6  7  1  0
  7  8  1  0
  8  9  1  0
 10 11  1  0
 12 11  1  1
 12 13  2  0
 12 14  2  0
M  END
