
     RDKit          3D

 14 14  0  0  0  0  0  0  0  0999 V2000
   -2.5550   -2.6450    0.1140 C   0  0  0  0  0  0  0  0  0  0  0  0
   -0.8560   -2.1440    0.0900 S   0  0  0  0  0  0  0  0  0  0  0  0
   -0.5840   -0.3880    0.0150 C   0  0  0  0  0  0  0  0  0  0  0  0
   -1.5500    0.4940   -0.0270 C   0  0  0  0  0  0  0  0  0  0  0  0
   -3.4030   -0.0660   -0.0170 Br  0  0  0  0  0  0  0  0  0  0  0  0
   -1.3500    1.9230   -0.0540 C   0  0  0  0  0  0  0  0  0  0  0  0
   -0.2280    2.4370   -0.0300 O   0  0  0  0  0  0  0  0  0  0  0  0
   -2.4250    2.8340   -0.1110 O   0  0  0  0  0  0  0  0  0  0  0  0
    0.8420    0.0840   -0.0020 C   0  0  2  0  0  0  0  0  0  0  0  0
    1.2450    0.7000    1.1460 O   0  0  0  0  0  0  0  0  0  0  0  0
    1.1920    0.7520   -1.1590 O   0  0  0  0  0  0  0  0  0  0  0  0
    2.5770    0.8440   -1.0240 C   0  0  0  0  0  0  0  0  0  0  0  0
    2.9150   -0.5490   -0.5150 C   0  0  0  0  0  0  0  0  0  0  0  0
    1.6770   -1.0610   -0.1400 O   0  0  0  0  0  0  0  0  0  0  0  0
  1  2  1  0
  2  3  1  0
  3  4  2  3
  3  9  1  0
  4  5  1  0
  4  6  1  0
  6  7  2  0
  6  8  1  0
  9 10  1  1
  9 11  1  0
  9 14  1  0
 11 12  1  0
 12 13  1  0
 13 14  1  0
M  END
