
     RDKit          3D

 14 13  0  0  0  0  0  0  0  0999 V2000
   -0.5430   -0.4580   -1.0240 O   0  0  0  0  0  0  0  0  0  0  0  0
   -0.4790   -0.4470    0.2330 C   0  0  0  0  0  0  0  0  0  0  0  0
   -1.5950   -0.1070    0.9670 O   0  0  0  0  0  0  0  0  0  0  0  0
   -2.8370    0.2380    0.3400 C   0  0  0  0  0  0  0  0  0  0  0  0
   -3.8570    0.5580    1.3910 C   0  0  0  0  0  0  0  0  0  0  0  0
   -5.0480    0.8860    0.7340 O   0  0  0  0  0  0  0  0  0  0  0  0
    0.7380   -0.7860    0.8000 O   0  0  0  0  0  0  0  0  0  0  0  0
    1.8620   -1.1280    0.0560 C   0  0  0  0  0  0  0  0  0  0  0  0
    2.0310   -2.3990   -0.2430 C   0  0  0  0  0  0  0  0  0  0  0  0
    3.5500   -2.9270   -1.2590 Br  0  0  0  0  0  0  0  0  0  0  0  0
    2.8230   -0.1160   -0.3780 C   0  0  0  0  0  0  0  0  0  0  0  0
    3.9260   -0.5010   -1.1150 O   0  0  0  0  0  0  0  0  0  0  0  0
    2.6150    1.1430   -0.0560 C   0  0  0  0  0  0  0  0  0  0  0  0
    3.7790    2.3750   -0.5810 S   0  0  0  0  0  0  0  0  0  0  0  0
  1  2  2  0
  2  3  1  0
  2  7  1  0
  3  4  1  0
  4  5  1  0
  5  6  1  0
  7  8  1  0
  8  9  2  3
  8 11  1  0
  9 10  1  0
 11 12  1  0
 11 13  2  3
 13 14  1  0
M  END
