
     RDKit          3D

 14 14  0  0  0  0  0  0  0  0999 V2000
    3.3370   -0.7890   -1.7940 O   0  0  0  0  0  0  0  0  0  0  0  0
    2.6600   -0.8110   -0.7340 C   0  0  0  0  0  0  0  0  0  0  0  0
    3.1530   -1.5690    0.3110 O   0  0  0  0  0  0  0  0  0  0  0  0
    1.4170   -0.0400   -0.6910 C   0  0  0  0  0  0  0  0  0  0  0  0
    0.7520   -0.1460    0.5490 O   0  0  0  0  0  0  0  0  0  0  0  0
   -0.4760    0.5940    0.6440 C   0  0  0  0  0  0  0  0  0  0  0  0
   -0.4930    1.8600    1.0770 C   0  0  0  0  0  0  0  0  0  0  0  0
    1.1020    2.8520    1.6250 Br  0  0  0  0  0  0  0  0  0  0  0  0
   -1.6930    2.4890    1.1380 C   0  0  0  0  0  0  0  0  0  0  0  0
   -2.8550    1.2890    0.5750 S   0  0  0  0  0  0  0  0  0  0  0  0
   -1.6230   -0.0170    0.2860 C   0  0  0  0  0  0  0  0  0  0  0  0
   -1.9540   -1.3440   -0.2130 C   0  0  0  0  0  0  0  0  0  0  0  0
   -1.0270   -2.1550   -0.3720 O   0  0  0  0  0  0  0  0  0  0  0  0
   -3.2550   -1.7170   -0.5100 O   0  0  0  0  0  0  0  0  0  0  0  0
  1  2  2  0
  2  3  1  0
  2  4  1  0
  4  5  1  0
  5  6  1  0
  6  7  1  0
  6 11  2  0
  7  8  1  0
  7  9  2  0
  9 10  1  0
 10 11  1  0
 11 12  1  0
 12 13  2  0
 12 14  1  0
M  END
