
     RDKit          3D

 14 14  0  0  0  0  0  0  0  0999 V2000
    2.2720    2.1320    0.1270 O   0  0  0  0  0  0  0  0  0  0  0  0
    1.5090    1.2570    0.6120 C   0  0  0  0  0  0  0  0  0  0  0  0
    0.4720    1.7130    1.5690 C   0  0  0  0  0  0  0  0  0  0  0  0
   -0.5360    0.3360    2.1730 S   0  0  0  0  0  0  0  0  0  0  0  0
   -1.5150   -0.3830    0.8870 C   0  0  0  0  0  0  0  0  0  0  0  0
   -1.5540   -0.0120   -0.3660 C   0  0  0  0  0  0  0  0  0  0  0  0
   -2.4910   -0.8670   -1.0970 C   0  0  2  0  0  0  0  0  0  0  0  0
   -3.9130    0.1650   -1.9240 Br  0  0  0  0  0  0  0  0  0  0  0  0
   -3.0080   -1.7760   -0.1640 O   0  0  0  0  0  0  0  0  0  0  0  0
   -2.4240   -1.5020    1.0590 C   0  0  0  0  0  0  0  0  0  0  0  0
   -2.6940   -2.1630    2.0980 O   0  0  0  0  0  0  0  0  0  0  0  0
    1.6800   -0.0480    0.2290 O   0  0  0  0  0  0  0  0  0  0  0  0
    2.6570   -0.4970   -0.6780 C   0  0  0  0  0  0  0  0  0  0  0  0
    2.5420    0.0830   -1.9400 O   0  0  0  0  0  0  0  0  0  0  0  0
  1  2  2  0
  2  3  1  0
  2 12  1  0
  3  4  1  0
  4  5  1  0
  5  6  2  0
  5 10  1  0
  6  7  1  0
  7  8  1  1
  7  9  1  0
  9 10  1  0
 10 11  2  0
 12 13  1  0
 13 14  1  0
M  END
