
     RDKit          3D

 14 14  0  0  0  0  0  0  0  0999 V2000
   -1.2690    3.1190   -0.3630 O   0  0  0  0  0  0  0  0  0  0  0  0
    0.0210    2.3770    0.0050 S   0  0  1  0  0  0  0  0  0  0  0  0
    1.1150    2.7640   -0.9300 O   0  0  0  0  0  0  0  0  0  0  0  0
    0.3460    2.8550    1.6050 O   0  0  0  0  0  0  0  0  0  0  0  0
   -0.3320    0.6890    0.0200 C   0  0  0  0  0  0  0  0  0  0  0  0
   -1.6220    0.2970    0.0830 C   0  0  0  0  0  0  0  0  0  0  0  0
   -2.5970    1.3090    0.1320 O   0  0  0  0  0  0  0  0  0  0  0  0
   -2.0230   -1.1100    0.1010 C   0  0  0  0  0  0  0  0  0  0  0  0
   -0.9780   -2.0770   -0.3100 C   0  0  0  0  0  0  0  0  0  0  0  0
    0.3370   -1.6440   -0.0690 O   0  0  0  0  0  0  0  0  0  0  0  0
    0.7120   -0.3060   -0.0580 C   0  0  0  0  0  0  0  0  0  0  0  0
    1.9780    0.0170   -0.1150 C   0  0  0  0  0  0  0  0  0  0  0  0
    3.0820   -0.9810   -0.1980 C   0  0  0  0  0  0  0  0  0  0  0  0
    2.4280   -2.7720   -0.2120 Br  0  0  0  0  0  0  0  0  0  0  0  0
  1  2  2  0
  2  3  2  0
  2  4  1  1
  2  5  1  0
  5  6  2  0
  5 11  1  0
  6  7  1  0
  6  8  1  0
  8  9  1  0
  9 10  1  0
 10 11  1  0
 11 12  2  3
 12 13  1  0
 13 14  1  0
M  END
