
     RDKit          3D

 14 13  0  0  0  0  0  0  0  0999 V2000
    1.4250   -0.5230    0.2620 O   0  0  0  0  0  0  0  0  0  0  0  0
    1.5220    0.6320    0.7230 C   0  0  0  0  0  0  0  0  0  0  0  0
    0.3620    1.3090    1.3290 C   0  0  0  0  0  0  0  0  0  0  0  0
   -1.0770    0.2170    1.2450 S   0  0  0  0  0  0  0  0  0  0  0  0
   -1.5520   -0.0090   -0.4320 C   0  0  0  0  0  0  0  0  0  0  0  0
   -0.8770    0.6270   -1.4080 C   0  0  0  0  0  0  0  0  0  0  0  0
   -1.3500    0.4170   -3.2390 Br  0  0  0  0  0  0  0  0  0  0  0  0
   -2.6730   -0.8730   -0.7700 C   0  0  0  0  0  0  0  0  0  0  0  0
   -3.0380   -1.0350   -2.0930 O   0  0  0  0  0  0  0  0  0  0  0  0
   -3.3220   -1.4860    0.1940 C   0  0  0  0  0  0  0  0  0  0  0  0
   -2.9340   -1.3050    1.5100 O   0  0  0  0  0  0  0  0  0  0  0  0
    2.7360    1.2800    0.6620 O   0  0  0  0  0  0  0  0  0  0  0  0
    3.8990    0.7020    0.0960 C   0  0  0  0  0  0  0  0  0  0  0  0
    4.2480   -0.4830    0.7790 O   0  0  0  0  0  0  0  0  0  0  0  0
  1  2  2  0
  2  3  1  0
  2 12  1  0
  3  4  1  0
  4  5  1  0
  5  6  2  3
  5  8  1  0
  6  7  1  0
  8  9  1  0
  8 10  2  3
 10 11  1  0
 12 13  1  0
 13 14  1  0
M  END
