
     RDKit          3D

 39 41  0  0  0  0  0  0  0  0999 V2000
  -11.4920    0.3260    0.8990 C   0  0  0  0  0  0  0  0  0  0  0  0
  -10.3070    1.2720    1.1510 C   0  0  0  0  0  0  0  0  0  0  0  0
   -9.5330    1.5850   -0.0900 C   0  0  0  0  0  0  0  0  0  0  0  0
   -8.8740    0.4550   -0.7170 C   0  0  0  0  0  0  0  0  0  0  0  0
   -9.7570   -0.4010   -1.4360 C   0  0  0  0  0  0  0  0  0  0  0  0
   -9.2960   -1.5490   -2.0230 C   0  0  0  0  0  0  0  0  0  0  0  0
   -7.9710   -1.8880   -1.9250 C   0  0  0  0  0  0  0  0  0  0  0  0
   -7.1490   -1.0550   -1.2370 C   0  0  0  0  0  0  0  0  0  0  0  0
   -7.5560    0.1410   -0.6100 C   0  0  0  0  0  0  0  0  0  0  0  0
   -6.5440    0.9730    0.0050 C   0  0  0  0  0  0  0  0  0  0  0  0
   -6.1110    0.9430    1.3650 C   0  0  1  0  0  0  0  0  0  0  0  0
   -7.1330    1.2140    2.4770 C   0  0  0  0  0  0  0  0  0  0  0  0
   -5.0860    0.0410    1.9330 C   0  0  0  0  0  0  0  0  0  0  0  0
   -3.7360    0.0690    1.5520 N   0  0  0  0  0  0  0  0  0  0  0  0
   -3.0780   -0.2170    0.3570 C   0  0  0  0  0  0  0  0  0  0  0  0
   -3.7280   -0.5940   -0.6290 O   0  0  0  0  0  0  0  0  0  0  0  0
   -1.5940   -0.0810    0.2220 C   0  0  0  0  0  0  0  0  0  0  0  0
   -0.9630    0.2860    1.2210 O   0  0  0  0  0  0  0  0  0  0  0  0
   -0.9460   -0.3620   -0.9980 N   0  0  0  0  0  0  0  0  0  0  0  0
    0.4420   -0.2740   -1.2590 C   0  0  0  0  0  0  0  0  0  0  0  0
    0.8580   -0.5320   -2.5490 C   0  0  0  0  0  0  0  0  0  0  0  0
    2.2190   -0.4570   -2.8640 C   0  0  0  0  0  0  0  0  0  0  0  0
    3.1530   -0.1300   -1.9080 C   0  0  0  0  0  0  0  0  0  0  0  0
    4.5190    0.0220   -1.9070 C   0  0  0  0  0  0  0  0  0  0  0  0
    4.9370    0.3710   -0.6180 C   0  0  0  0  0  0  0  0  0  0  0  0
    6.3710    0.6340   -0.2560 C   0  0  0  0  0  0  0  0  0  0  0  0
    7.0100   -0.6380    0.1340 C   0  0  2  0  0  0  0  0  0  0  0  0
    6.9620   -1.6360   -1.0320 C   0  0  0  0  0  0  0  0  0  0  0  0
    7.5660   -2.8310   -0.6620 O   0  0  0  0  0  0  0  0  0  0  0  0
    6.0480   -1.2930    1.1620 C   0  0  0  0  0  0  0  0  0  0  0  0
    6.7050   -2.4980    1.5030 O   0  0  0  0  0  0  0  0  0  0  0  0
    8.3010   -0.6080    0.8230 C   0  0  0  0  0  0  0  0  0  0  0  0
    9.4930   -0.0020    0.2250 C   0  0  1  0  0  0  0  0  0  0  0  0
    9.9700   -0.5610   -1.0840 C   0  0  0  0  0  0  0  0  0  0  0  0
    9.5740    1.5110    0.3010 C   0  0  0  0  0  0  0  0  0  0  0  0
   10.8480    2.0220   -0.3490 C   0  0  0  0  0  0  0  0  0  0  0  0
    3.8430    0.4230    0.1210 N   0  0  0  0  0  0  0  0  0  0  0  0
    2.7590    0.1290   -0.6180 C   0  0  0  0  0  0  0  0  0  0  0  0
    1.3930    0.0490   -0.3240 C   0  0  0  0  0  0  0  0  0  0  0  0
  1  2  1  0
  2  3  1  0
  3  4  1  0
  4  5  2  0
  4  9  1  0
  5  6  1  0
  6  7  2  0
  7  8  1  0
  8  9  2  0
  9 10  1  0
 10 11  1  0
 11 12  1  1
 11 13  1  0
 13 14  1  0
 14 15  1  0
 15 16  2  0
 15 17  1  0
 17 18  2  0
 17 19  1  0
 19 20  1  0
 20 21  2  0
 20 39  1  0
 21 22  1  0
 22 23  2  0
 23 24  1  0
 23 38  1  0
 24 25  2  0
 25 26  1  0
 25 37  1  0
 27 26  1  6
 27 28  1  0
 27 30  1  0
 27 32  1  0
 28 29  1  0
 30 31  1  0
 32 33  1  0
 33 34  1  6
 33 35  1  0
 35 36  1  0
 37 38  1  0
 38 39  2  0
M  END
