
     RDKit          3D

 39 41  0  0  0  0  0  0  0  0999 V2000
   -0.5400    6.8630    0.4580 C   0  0  0  0  0  0  0  0  0  0  0  0
   -1.5520    6.0420   -0.2510 C   0  0  0  0  0  0  0  0  0  0  0  0
   -1.3490    4.6500   -0.1850 O   0  0  0  0  0  0  0  0  0  0  0  0
   -1.3330    3.8280    0.8480 C   0  0  0  0  0  0  0  0  0  0  0  0
   -1.5390    4.3900    2.0030 O   0  0  0  0  0  0  0  0  0  0  0  0
   -1.1210    2.4150    0.8710 C   0  0  0  0  0  0  0  0  0  0  0  0
   -1.1910    1.8160    2.1970 N   0  0  0  0  0  0  0  0  0  0  0  0
   -0.7680    1.6290   -0.1050 C   0  0  0  0  0  0  0  0  0  0  0  0
   -0.5000    2.0750   -1.4490 C   0  0  0  0  0  0  0  0  0  0  0  0
   -0.4810    3.3030   -2.0820 N   0  0  0  0  0  0  0  0  0  0  0  0
   -0.1930    1.0840   -2.2780 O   0  0  0  0  0  0  0  0  0  0  0  0
   -0.5850    0.1590    0.1600 C   0  0  2  0  0  0  0  0  0  0  0  0
   -1.5510   -0.5540    0.8190 N   0  0  0  0  0  0  0  0  0  0  0  0
   -2.8240   -0.6210    0.1600 C   0  0  2  0  0  0  0  0  0  0  0  0
   -3.9350    0.0710    0.9090 C   0  0  0  0  0  0  0  0  0  0  0  0
   -4.1680   -0.5360    2.2710 C   0  0  0  0  0  0  0  0  0  0  0  0
   -5.2180    0.1840    2.8780 O   0  0  0  0  0  0  0  0  0  0  0  0
   -5.4890   -0.3210    4.1500 C   0  0  0  0  0  0  0  0  0  0  0  0
   -3.1640   -1.9770   -0.3230 C   0  0  0  0  0  0  0  0  0  0  0  0
   -2.2040   -2.8290   -0.8280 C   0  0  0  0  0  0  0  0  0  0  0  0
   -2.5060   -4.1050   -1.2990 C   0  0  0  0  0  0  0  0  0  0  0  0
   -3.7670   -4.5980   -1.2950 C   0  0  0  0  0  0  0  0  0  0  0  0
   -4.1860   -5.9440   -1.7700 C   0  0  0  0  0  0  0  0  0  0  0  0
   -4.7640   -3.7480   -0.7870 C   0  0  0  0  0  0  0  0  0  0  0  0
   -4.4490   -2.4700   -0.3170 C   0  0  0  0  0  0  0  0  0  0  0  0
    0.8410   -0.1190    0.3730 C   0  0  0  0  0  0  0  0  0  0  0  0
    1.6830    0.9800    0.6100 C   0  0  0  0  0  0  0  0  0  0  0  0
    3.0350    0.8190    0.8270 C   0  0  0  0  0  0  0  0  0  0  0  0
    3.5540   -0.4540    0.8070 C   0  0  0  0  0  0  0  0  0  0  0  0
    5.0300   -0.5710    1.0410 C   0  0  0  0  0  0  0  0  0  0  0  0
    5.7590   -0.5610   -0.2530 C   0  0  0  0  0  0  0  0  0  0  0  0
    6.0850    0.6690   -0.8310 C   0  0  0  0  0  0  0  0  0  0  0  0
    6.7520    0.7420   -2.0020 C   0  0  0  0  0  0  0  0  0  0  0  0
    7.1280   -0.4280   -2.6580 C   0  0  0  0  0  0  0  0  0  0  0  0
    6.8430   -1.6530   -2.1530 C   0  0  0  0  0  0  0  0  0  0  0  0
    7.2650   -2.8790   -2.8590 C   0  0  0  0  0  0  0  0  0  0  0  0
    6.1460   -1.7010   -0.9290 C   0  0  0  0  0  0  0  0  0  0  0  0
    2.7650   -1.5250    0.5820 C   0  0  0  0  0  0  0  0  0  0  0  0
    1.4160   -1.3530    0.3660 C   0  0  0  0  0  0  0  0  0  0  0  0
  1  2  1  0
  2  3  1  0
  3  4  1  0
  4  5  2  0
  4  6  1  0
  6  7  1  0
  6  8  2  3
  8  9  1  0
  8 12  1  0
  9 10  1  0
  9 11  2  0
 12 13  1  1
 12 26  1  0
 13 14  1  0
 14 15  1  1
 14 19  1  0
 15 16  1  0
 16 17  1  0
 17 18  1  0
 19 20  2  0
 19 25  1  0
 20 21  1  0
 21 22  2  0
 22 23  1  0
 22 24  1  0
 24 25  2  0
 26 27  2  0
 26 39  1  0
 27 28  1  0
 28 29  2  0
 29 30  1  0
 29 38  1  0
 30 31  1  0
 31 32  2  0
 31 37  1  0
 32 33  1  0
 33 34  2  0
 34 35  1  0
 35 36  1  0
 35 37  2  0
 38 39  2  0
M  END
