
     RDKit          3D

 39 42  0  0  0  0  0  0  0  0999 V2000
   -2.6390   -0.1260   -4.3520 C   0  0  0  0  0  0  0  0  0  0  0  0
   -2.5610   -1.0230   -3.1180 C   0  0  1  0  0  0  0  0  0  0  0  0
   -1.5310   -2.0870   -3.4090 C   0  0  0  0  0  0  0  0  0  0  0  0
   -2.1870   -0.1430   -1.9460 C   0  0  0  0  0  0  0  0  0  0  0  0
   -2.0670   -0.8170   -0.7070 N   0  0  0  0  0  0  0  0  0  0  0  0
   -0.8960   -0.5960    0.0500 C   0  0  0  0  0  0  0  0  0  0  0  0
   -0.1260   -1.7740    0.5000 C   0  0  1  0  0  0  0  0  0  0  0  0
    0.2580   -2.4890   -0.6700 O   0  0  0  0  0  0  0  0  0  0  0  0
    1.1720   -1.4290    1.1700 C   0  0  2  0  0  0  0  0  0  0  0  0
    1.0850   -0.8230    2.5240 C   0  0  0  0  0  0  0  0  0  0  0  0
    0.4160   -1.6750    3.5350 C   0  0  0  0  0  0  0  0  0  0  0  0
   -0.9190   -1.6230    3.8370 C   0  0  0  0  0  0  0  0  0  0  0  0
   -1.4960   -2.4440    4.7720 C   0  0  0  0  0  0  0  0  0  0  0  0
   -0.7160   -3.3610    5.4430 C   0  0  0  0  0  0  0  0  0  0  0  0
    0.6240   -3.4420    5.1680 C   0  0  0  0  0  0  0  0  0  0  0  0
    1.1810   -2.5970    4.2150 C   0  0  0  0  0  0  0  0  0  0  0  0
    2.0100   -0.6000    0.3330 N   0  0  0  0  0  0  0  0  0  0  0  0
    3.2870   -1.0210   -0.1490 C   0  0  0  0  0  0  0  0  0  0  0  0
    3.7000   -2.1470    0.1620 O   0  0  0  0  0  0  0  0  0  0  0  0
    4.0760   -0.2200   -0.9480 O   0  0  0  0  0  0  0  0  0  0  0  0
    5.3420   -0.5970   -1.4450 C   0  0  2  0  0  0  0  0  0  0  0  0
    6.3760    0.4860   -1.1460 C   0  0  0  0  0  0  0  0  0  0  0  0
    6.2560    1.5180   -2.2190 C   0  0  2  0  0  0  0  0  0  0  0  0
    5.7480    2.8580   -1.7270 C   0  0  0  0  0  0  0  0  0  0  0  0
    4.2800    2.5780   -1.5850 C   0  0  0  0  0  0  0  0  0  0  0  0
    3.9720    1.4600   -2.3040 O   0  0  0  0  0  0  0  0  0  0  0  0
    5.0620    1.0640   -3.0360 C   0  0  2  0  0  0  0  0  0  0  0  0
    5.2830   -0.4550   -2.9770 C   0  0  0  0  0  0  0  0  0  0  0  0
   -3.4780   -0.9560    0.2000 S   0  0  1  0  0  0  0  0  0  0  0  0
   -4.4960   -1.7190   -0.6370 O   0  0  0  0  0  0  0  0  0  0  0  0
   -3.2270   -1.8070    1.4040 O   0  0  0  0  0  0  0  0  0  0  0  0
   -4.1720    0.5520    0.6820 C   0  0  0  0  0  0  0  0  0  0  0  0
   -3.8410    1.1770    1.8610 C   0  0  0  0  0  0  0  0  0  0  0  0
   -4.4160    2.3990    2.2260 C   0  0  0  0  0  0  0  0  0  0  0  0
   -5.3370    3.0100    1.4060 C   0  0  0  0  0  0  0  0  0  0  0  0
   -5.9800    4.3220    1.7500 C   0  0  0  0  0  0  0  0  0  0  0  0
   -7.0840    4.0390    2.5460 O   0  0  0  0  0  0  0  0  0  0  0  0
   -5.6730    2.3940    0.2280 C   0  0  0  0  0  0  0  0  0  0  0  0
   -5.0980    1.1770   -0.1320 C   0  0  0  0  0  0  0  0  0  0  0  0
  2  1  1  6
  2  3  1  0
  2  4  1  0
  4  5  1  0
  5  6  1  0
 29  5  1  6
  6  7  1  0
  7  8  1  6
  7  9  1  0
  9 10  1  1
  9 17  1  0
 10 11  1  0
 11 12  2  0
 11 16  1  0
 12 13  1  0
 13 14  2  0
 14 15  1  0
 15 16  2  0
 17 18  1  0
 18 19  2  0
 18 20  1  0
 21 20  1  1
 21 22  1  0
 21 28  1  0
 23 22  1  1
 23 24  1  0
 23 27  1  0
 24 25  1  0
 25 26  1  0
 26 27  1  0
 27 28  1  1
 29 30  2  0
 29 31  2  0
 29 32  1  0
 32 33  2  0
 32 39  1  0
 33 34  1  0
 34 35  2  0
 35 36  1  0
 35 38  1  0
 36 37  1  0
 38 39  2  0
M  END
