
     RDKit          3D

 39 41  0  0  0  0  0  0  0  0999 V2000
   -1.4470    3.2160   -1.2840 C   0  0  0  0  0  0  0  0  0  0  0  0
   -2.7190    2.4900   -1.4440 C   0  0  0  0  0  0  0  0  0  0  0  0
   -2.7350    1.0640   -1.4410 N   0  0  0  0  0  0  0  0  0  0  0  0
   -2.1780    0.2540   -2.4480 C   0  0  0  0  0  0  0  0  0  0  0  0
   -0.7300    0.0840   -2.5200 C   0  0  0  0  0  0  0  0  0  0  0  0
   -0.2420   -0.5870   -3.5360 O   0  0  0  0  0  0  0  0  0  0  0  0
    0.2650    0.5380   -1.6340 N   0  0  0  0  0  0  0  0  0  0  0  0
    1.6880    0.2570   -1.9240 C   0  0  0  0  0  0  0  0  0  0  0  0
    2.5650    0.8420   -0.8440 C   0  0  0  0  0  0  0  0  0  0  0  0
    3.9890    0.5610   -1.1820 C   0  0  2  0  0  0  0  0  0  0  0  0
    4.3160   -0.9080   -1.2800 C   0  0  0  0  0  0  0  0  0  0  0  0
    4.3420   -1.5080    0.1090 C   0  0  0  0  0  0  0  0  0  0  0  0
    5.7840   -1.8070    0.4580 C   0  0  1  0  0  0  0  0  0  0  0  0
    6.2920   -2.5580   -0.6260 O   0  0  0  0  0  0  0  0  0  0  0  0
    6.5300   -0.5020    0.5300 C   0  0  0  0  0  0  0  0  0  0  0  0
    7.8310   -0.7390    0.9460 C   0  0  0  0  0  0  0  0  0  0  0  0
    8.7210    0.3080    1.0950 C   0  0  0  0  0  0  0  0  0  0  0  0
   10.1270    0.0330    1.5420 C   0  0  2  0  0  0  0  0  0  0  0  0
   10.5200    0.8500    2.7370 C   0  0  0  0  0  0  0  0  0  0  0  0
   11.0340    0.4210    0.3900 C   0  0  0  0  0  0  0  0  0  0  0  0
    8.2860    1.5780    0.8240 C   0  0  0  0  0  0  0  0  0  0  0  0
    6.9930    1.7900    0.4140 C   0  0  0  0  0  0  0  0  0  0  0  0
    6.0820    0.7740    0.2540 C   0  0  0  0  0  0  0  0  0  0  0  0
    4.8160    1.1510   -0.1680 O   0  0  0  0  0  0  0  0  0  0  0  0
   -3.3820    0.3990   -0.3410 C   0  0  0  0  0  0  0  0  0  0  0  0
   -2.6540    0.0830    0.7670 C   0  0  0  0  0  0  0  0  0  0  0  0
   -3.2960   -0.5520    1.8300 C   0  0  0  0  0  0  0  0  0  0  0  0
   -4.6330   -0.8610    1.7790 C   0  0  0  0  0  0  0  0  0  0  0  0
   -5.2910   -1.5220    2.9300 C   0  0  0  0  0  0  0  0  0  0  0  0
   -4.2850   -1.7590    3.9580 N   0  0  0  0  0  0  0  0  0  0  0  0
   -5.4010   -0.5510    0.6600 C   0  0  0  0  0  0  0  0  0  0  0  0
   -6.8280   -0.8880    0.5970 C   0  0  1  0  0  0  0  0  0  0  0  0
   -7.5270   -0.4680    1.7240 O   0  0  0  0  0  0  0  0  0  0  0  0
   -7.5480   -0.5690   -0.6790 C   0  0  2  0  0  0  0  0  0  0  0  0
   -6.9500   -1.2720   -1.8730 C   0  0  0  0  0  0  0  0  0  0  0  0
   -7.5820    0.9190   -0.9580 C   0  0  0  0  0  0  0  0  0  0  0  0
   -8.9820   -1.0970   -0.5850 C   0  0  0  0  0  0  0  0  0  0  0  0
   -9.8140   -0.5150    0.4860 C   0  0  0  0  0  0  0  0  0  0  0  0
   -4.7330    0.0740   -0.3630 C   0  0  0  0  0  0  0  0  0  0  0  0
  1  2  1  0
  2  3  1  0
  3  4  1  0
  3 25  1  0
  4  5  1  0
  5  6  2  0
  5  7  1  0
  7  8  1  0
  8  9  1  0
 10  9  1  1
 10 11  1  0
 10 24  1  0
 11 12  1  0
 12 13  1  0
 13 14  1  6
 13 15  1  0
 15 16  2  0
 15 23  1  0
 16 17  1  0
 17 18  1  0
 17 21  2  0
 18 19  1  1
 18 20  1  0
 21 22  1  0
 22 23  2  0
 23 24  1  0
 25 26  2  0
 25 39  1  0
 26 27  1  0
 27 28  2  0
 28 29  1  0
 28 31  1  0
 29 30  1  0
 31 32  1  0
 31 39  2  0
 32 33  1  1
 32 34  1  0
 34 35  1  6
 34 36  1  0
 34 37  1  0
 37 38  1  0
M  END
