
     RDKit          3D

 39 41  0  0  0  0  0  0  0  0999 V2000
   -6.6520    4.1470   -1.9330 C   0  0  0  0  0  0  0  0  0  0  0  0
   -5.6470    3.6670   -0.9470 C   0  0  0  0  0  0  0  0  0  0  0  0
   -5.0200    2.5080   -1.0100 C   0  0  0  0  0  0  0  0  0  0  0  0
   -5.2940    1.5980   -2.1000 C   0  0  0  0  0  0  0  0  0  0  0  0
   -5.6370    0.3440   -2.0910 C   0  0  0  0  0  0  0  0  0  0  0  0
   -5.8610   -0.5590   -0.9530 C   0  0  0  0  0  0  0  0  0  0  0  0
   -4.8520   -1.6700   -0.8160 C   0  0  0  0  0  0  0  0  0  0  0  0
   -4.2350   -2.0750   -2.0490 N   0  0  0  0  0  0  0  0  0  0  0  0
   -2.9370   -1.7670   -2.4960 C   0  0  0  0  0  0  0  0  0  0  0  0
   -2.6420   -2.1880   -3.6750 O   0  0  0  0  0  0  0  0  0  0  0  0
   -1.9270   -1.0600   -1.8200 N   0  0  0  0  0  0  0  0  0  0  0  0
   -1.3890   -1.2910   -0.5190 C   0  0  0  0  0  0  0  0  0  0  0  0
   -1.0610   -0.1190    0.3240 C   0  0  2  0  0  0  0  0  0  0  0  0
   -0.1590   -0.6160    1.4150 C   0  0  0  0  0  0  0  0  0  0  0  0
    1.1260   -1.1880    0.8660 N   0  0  0  0  0  0  0  0  0  0  0  0
    1.6450   -1.9330    2.0050 C   0  0  0  0  0  0  0  0  0  0  0  0
    2.6390   -2.9900    1.6080 C   0  0  0  0  0  0  0  0  0  0  0  0
    1.9490   -3.9770    0.6360 C   0  0  0  0  0  0  0  0  0  0  0  0
    0.8820   -4.5370    1.2930 O   0  0  0  0  0  0  0  0  0  0  0  0
    1.9580   -0.0470    0.5240 C   0  0  0  0  0  0  0  0  0  0  0  0
    3.3820   -0.3270    0.2400 C   0  0  0  0  0  0  0  0  0  0  0  0
    4.0880    0.8920   -0.1130 O   0  0  0  0  0  0  0  0  0  0  0  0
    5.4370    0.7380   -0.3840 C   0  0  0  0  0  0  0  0  0  0  0  0
    6.0880   -0.4770   -0.3360 C   0  0  0  0  0  0  0  0  0  0  0  0
    7.4360   -0.5930   -0.6120 C   0  0  0  0  0  0  0  0  0  0  0  0
    8.1920    0.5060   -0.9480 C   0  0  0  0  0  0  0  0  0  0  0  0
    9.5450    0.4380   -1.2320 C   0  0  0  0  0  0  0  0  0  0  0  0
   10.3140    1.5270   -1.5700 C   0  0  0  0  0  0  0  0  0  0  0  0
    9.6660    2.7520   -1.6200 C   0  0  0  0  0  0  0  0  0  0  0  0
    8.3250    2.8390   -1.3410 C   0  0  0  0  0  0  0  0  0  0  0  0
    7.5570    1.7520   -1.0040 C   0  0  0  0  0  0  0  0  0  0  0  0
    6.2170    1.8230   -0.7240 C   0  0  0  0  0  0  0  0  0  0  0  0
   -2.0510    0.8390    0.8090 C   0  0  2  0  0  0  0  0  0  0  0  0
   -1.2100    2.0120    1.0860 O   0  0  0  0  0  0  0  0  0  0  0  0
   -2.7540    0.7070    2.0760 C   0  0  0  0  0  0  0  0  0  0  0  0
   -3.6490   -0.3350    2.5130 C   0  0  0  0  0  0  0  0  0  0  0  0
   -3.2740   -1.7400    2.6820 C   0  0  0  0  0  0  0  0  0  0  0  0
   -2.8920    1.4240   -0.3220 C   0  0  0  0  0  0  0  0  0  0  0  0
   -4.0410    2.2510    0.0920 C   0  0  0  0  0  0  0  0  0  0  0  0
  1  2  1  0
  2  3  2  3
  3  4  1  0
  3 39  1  0
  4  5  2  0
  5  6  1  0
  6  7  1  0
  7  8  1  0
  8  9  1  0
  9 10  2  0
  9 11  1  0
 11 12  1  0
 12 13  1  0
 13 14  1  1
 13 33  1  0
 14 15  1  0
 15 16  1  0
 15 20  1  0
 16 17  1  0
 17 18  1  0
 18 19  1  0
 20 21  1  0
 21 22  1  0
 22 23  1  0
 23 24  2  0
 23 32  1  0
 24 25  1  0
 25 26  2  0
 26 27  1  0
 26 31  1  0
 27 28  2  0
 28 29  1  0
 29 30  2  0
 30 31  1  0
 31 32  2  0
 33 34  1  1
 33 35  1  0
 33 38  1  0
 35 36  1  0
 36 37  1  0
 38 39  1  0
M  END
