
     RDKit          3D

 39 41  0  0  0  0  0  0  0  0999 V2000
    4.9050   -6.8140    1.9030 C   0  0  0  0  0  0  0  0  0  0  0  0
    4.9570   -5.5970    1.6970 C   0  0  0  0  0  0  0  0  0  0  0  0
    5.0300   -4.1770    1.4710 C   0  0  0  0  0  0  0  0  0  0  0  0
    4.1320   -3.3230    2.0560 C   0  0  0  0  0  0  0  0  0  0  0  0
    4.1770   -1.9720    1.7870 C   0  0  0  0  0  0  0  0  0  0  0  0
    3.2310   -1.0030    2.3090 C   0  0  0  0  0  0  0  0  0  0  0  0
    3.4720   -0.3890    3.3750 O   0  0  0  0  0  0  0  0  0  0  0  0
    1.9980   -0.7210    1.6270 N   0  0  0  0  0  0  0  0  0  0  0  0
    1.1290    0.2690    2.1730 C   0  0  0  0  0  0  0  0  0  0  0  0
   -0.2010    0.3860    1.4660 C   0  0  0  0  0  0  0  0  0  0  0  0
   -1.2400    0.2430    2.2680 C   0  0  0  0  0  0  0  0  0  0  0  0
   -2.6080    0.3090    1.7910 C   0  0  0  0  0  0  0  0  0  0  0  0
   -3.4790    1.1420    2.5220 C   0  0  0  0  0  0  0  0  0  0  0  0
   -4.7890    1.2200    2.1400 C   0  0  0  0  0  0  0  0  0  0  0  0
   -5.2880    0.4970    1.0480 C   0  0  0  0  0  0  0  0  0  0  0  0
   -6.5960    0.6090    0.7110 O   0  0  0  0  0  0  0  0  0  0  0  0
   -7.2260   -0.0390   -0.3260 C   0  0  1  0  0  0  0  0  0  0  0  0
   -8.3890   -0.8530    0.1370 C   0  0  0  0  0  0  0  0  0  0  0  0
   -9.1380   -1.6030   -0.8050 N   0  0  0  0  0  0  0  0  0  0  0  0
   -8.6870   -0.8640    1.3510 O   0  0  0  0  0  0  0  0  0  0  0  0
   -7.7670    1.0500   -1.2680 C   0  0  1  0  0  0  0  0  0  0  0  0
   -8.4280    0.5130   -2.3490 O   0  0  0  0  0  0  0  0  0  0  0  0
   -8.6280    2.0280   -0.4920 C   0  0  0  0  0  0  0  0  0  0  0  0
   -9.1490    3.0920   -1.4260 C   0  0  0  0  0  0  0  0  0  0  0  0
   -4.4260   -0.2970    0.3640 C   0  0  0  0  0  0  0  0  0  0  0  0
   -3.1030   -0.3910    0.7290 C   0  0  0  0  0  0  0  0  0  0  0  0
   -0.3010    0.7090    0.0460 C   0  0  0  0  0  0  0  0  0  0  0  0
    0.1290   -0.3430   -0.9200 C   0  0  0  0  0  0  0  0  0  0  0  0
    5.1690   -1.5190    0.9050 C   0  0  0  0  0  0  0  0  0  0  0  0
    5.2960   -0.1760    0.6150 C   0  0  0  0  0  0  0  0  0  0  0  0
    6.2610    0.3640   -0.2140 C   0  0  0  0  0  0  0  0  0  0  0  0
    6.3150    1.7750   -0.4120 N   0  0  0  0  0  0  0  0  0  0  0  0
    7.2280    2.4170   -1.2910 C   0  0  0  0  0  0  0  0  0  0  0  0
    6.8370    2.1860   -2.7250 C   0  0  0  0  0  0  0  0  0  0  0  0
    7.9100    2.9060   -3.5570 C   0  0  0  0  0  0  0  0  0  0  0  0
    7.1540   -0.5130   -0.7900 C   0  0  0  0  0  0  0  0  0  0  0  0
    7.0610   -1.8650   -0.5280 C   0  0  0  0  0  0  0  0  0  0  0  0
    6.0830   -2.3590    0.3080 C   0  0  0  0  0  0  0  0  0  0  0  0
    6.0110   -3.7190    0.5980 C   0  0  0  0  0  0  0  0  0  0  0  0
  1  2  3  0
  2  3  1  0
  3  4  2  0
  3 39  1  0
  4  5  1  0
  5  6  1  0
  5 29  2  0
  6  7  2  0
  6  8  1  0
  8  9  1  0
  9 10  1  0
 10 11  2  3
 10 27  1  0
 11 12  1  0
 12 13  2  0
 12 26  1  0
 13 14  1  0
 14 15  2  0
 15 16  1  0
 15 25  1  0
 17 16  1  1
 17 18  1  0
 17 21  1  0
 18 19  1  0
 18 20  2  0
 21 22  1  6
 21 23  1  0
 23 24  1  0
 25 26  2  0
 27 28  1  0
 29 30  1  0
 29 38  1  0
 30 31  2  0
 31 32  1  0
 31 36  1  0
 32 33  1  0
 33 34  1  0
 34 35  1  0
 36 37  2  0
 37 38  1  0
 38 39  2  0
M  END
