
     RDKit          3D

 39 41  0  0  0  0  0  0  0  0999 V2000
   -8.0090   -2.5960   -2.7780 C   0  0  0  0  0  0  0  0  0  0  0  0
   -8.1720   -1.5210   -1.9750 C   0  0  0  0  0  0  0  0  0  0  0  0
   -8.5900   -0.3430   -2.6370 N   0  0  0  0  0  0  0  0  0  0  0  0
   -7.9000   -1.6780   -0.5730 C   0  0  0  0  0  0  0  0  0  0  0  0
   -7.9940   -0.7960    0.3610 C   0  0  0  0  0  0  0  0  0  0  0  0
   -8.4170    0.5870    0.1610 C   0  0  0  0  0  0  0  0  0  0  0  0
   -7.3480    1.5570    0.6430 C   0  0  1  0  0  0  0  0  0  0  0  0
   -7.6970    2.9950    0.4210 C   0  0  0  0  0  0  0  0  0  0  0  0
   -7.1580    1.3460    2.1370 C   0  0  0  0  0  0  0  0  0  0  0  0
   -5.8980    1.4940    2.4630 C   0  0  0  0  0  0  0  0  0  0  0  0
   -5.1040    1.8180    1.2400 C   0  0  1  0  0  0  0  0  0  0  0  0
   -3.7440    1.3080    1.3290 C   0  0  0  0  0  0  0  0  0  0  0  0
   -3.2370    0.4120    0.4370 C   0  0  0  0  0  0  0  0  0  0  0  0
   -1.9290   -0.0940    0.5390 C   0  0  0  0  0  0  0  0  0  0  0  0
   -1.1390    0.3170    1.5560 C   0  0  0  0  0  0  0  0  0  0  0  0
    0.2480   -0.1580    1.7420 C   0  0  2  0  0  0  0  0  0  0  0  0
    1.0320    0.9380    2.0940 O   0  0  0  0  0  0  0  0  0  0  0  0
    0.8080   -0.8340    0.5300 C   0  0  0  0  0  0  0  0  0  0  0  0
    2.1370   -1.3000    0.7570 N   0  0  0  0  0  0  0  0  0  0  0  0
    3.2610   -0.4940    1.0090 C   0  0  0  0  0  0  0  0  0  0  0  0
    3.1290    0.7500    0.9900 O   0  0  0  0  0  0  0  0  0  0  0  0
    4.5390   -1.0300    1.2880 N   0  0  0  0  0  0  0  0  0  0  0  0
    5.7410   -0.3330    1.5240 C   0  0  0  0  0  0  0  0  0  0  0  0
    6.4110    0.4390    0.4590 C   0  0  2  0  0  0  0  0  0  0  0  0
    5.7110    1.6750   -0.0010 C   0  0  0  0  0  0  0  0  0  0  0  0
    6.7980   -0.3220   -0.6030 O   0  0  0  0  0  0  0  0  0  0  0  0
    6.3300   -1.1260   -1.5360 C   0  0  0  0  0  0  0  0  0  0  0  0
    4.9020   -1.4430   -1.8050 C   0  0  0  0  0  0  0  0  0  0  0  0
    7.2080   -1.7480   -2.3530 C   0  0  0  0  0  0  0  0  0  0  0  0
    8.6180   -1.4990   -2.1630 C   0  0  0  0  0  0  0  0  0  0  0  0
    9.5420   -2.5230   -2.2250 C   0  0  0  0  0  0  0  0  0  0  0  0
   10.9010   -2.3200   -2.0600 C   0  0  0  0  0  0  0  0  0  0  0  0
   11.3390   -1.0390   -1.8250 C   0  0  0  0  0  0  0  0  0  0  0  0
   10.4430   -0.0010   -1.7590 C   0  0  0  0  0  0  0  0  0  0  0  0
    9.0890   -0.2390   -1.9290 C   0  0  0  0  0  0  0  0  0  0  0  0
   -1.6470    1.2330    2.4720 C   0  0  0  0  0  0  0  0  0  0  0  0
   -2.9210    1.7210    2.3650 C   0  0  0  0  0  0  0  0  0  0  0  0
   -3.4400    2.6310    3.2670 O   0  0  0  0  0  0  0  0  0  0  0  0
   -5.9680    1.2540    0.1470 C   0  0  0  0  0  0  0  0  0  0  0  0
  1  2  2  0
  2  3  1  0
  2  4  1  0
  4  5  2  3
  5  6  1  0
  6  7  1  0
  7  8  1  1
  7  9  1  0
  7 39  1  0
  9 10  2  0
 10 11  1  0
 11 12  1  1
 11 39  1  0
 12 13  2  0
 12 37  1  0
 13 14  1  0
 14 15  2  0
 15 16  1  0
 15 36  1  0
 16 17  1  6
 16 18  1  0
 18 19  1  0
 19 20  1  0
 20 21  2  0
 20 22  1  0
 22 23  1  0
 23 24  1  0
 24 25  1  6
 24 26  1  0
 26 27  1  0
 27 28  1  0
 27 29  2  3
 29 30  1  0
 30 31  2  0
 30 35  1  0
 31 32  1  0
 32 33  2  0
 33 34  1  0
 34 35  2  0
 36 37  2  0
 37 38  1  0
M  END
