
     RDKit          3D

 39 41  0  0  0  0  0  0  0  0999 V2000
   -3.0050    6.5120   -1.4630 C   0  0  0  0  0  0  0  0  0  0  0  0
   -3.1420    5.1850   -0.7010 C   0  0  0  0  0  0  0  0  0  0  0  0
   -3.3100    4.1270   -1.7240 C   0  0  0  0  0  0  0  0  0  0  0  0
   -3.4510    2.7780   -1.2240 N   0  0  0  0  0  0  0  0  0  0  0  0
   -2.4310    1.9970   -0.6510 C   0  0  0  0  0  0  0  0  0  0  0  0
   -1.1210    2.4950   -0.5510 C   0  0  0  0  0  0  0  0  0  0  0  0
   -0.1000    1.7730    0.0280 C   0  0  0  0  0  0  0  0  0  0  0  0
   -0.3370    0.5150    0.5360 C   0  0  0  0  0  0  0  0  0  0  0  0
    0.7750   -0.2760    1.1740 C   0  0  2  0  0  0  0  0  0  0  0  0
    1.4480    0.6040    2.0030 O   0  0  0  0  0  0  0  0  0  0  0  0
    1.7330   -0.7790    0.1200 C   0  0  0  0  0  0  0  0  0  0  0  0
    2.8450   -1.4450    0.7180 N   0  0  0  0  0  0  0  0  0  0  0  0
    2.7430   -2.8760    1.0010 C   0  0  0  0  0  0  0  0  0  0  0  0
    3.2370   -3.5970   -0.1950 C   0  0  0  0  0  0  0  0  0  0  0  0
    3.6570   -2.9300   -1.3220 C   0  0  0  0  0  0  0  0  0  0  0  0
    4.1210   -3.6010   -2.4440 C   0  0  0  0  0  0  0  0  0  0  0  0
    4.1690   -4.9780   -2.4450 C   0  0  0  0  0  0  0  0  0  0  0  0
    3.7530   -5.6580   -1.3270 C   0  0  0  0  0  0  0  0  0  0  0  0
    3.2880   -4.9670   -0.2040 C   0  0  0  0  0  0  0  0  0  0  0  0
    4.0170   -0.7290    1.0290 C   0  0  0  0  0  0  0  0  0  0  0  0
    4.9600   -1.3590    1.5830 O   0  0  0  0  0  0  0  0  0  0  0  0
    4.2020    0.6500    0.7580 N   0  0  0  0  0  0  0  0  0  0  0  0
    5.4780    1.2540    1.1450 C   0  0  0  0  0  0  0  0  0  0  0  0
    5.5050    2.7250    0.7840 C   0  0  2  0  0  0  0  0  0  0  0  0
    6.7450    3.2200    1.1830 O   0  0  0  0  0  0  0  0  0  0  0  0
    4.4190    3.4980    1.4630 C   0  0  0  0  0  0  0  0  0  0  0  0
    4.5720    3.3510    2.8600 O   0  0  0  0  0  0  0  0  0  0  0  0
   -1.6100    0.0160    0.4440 C   0  0  0  0  0  0  0  0  0  0  0  0
   -2.6570    0.7510   -0.1480 C   0  0  0  0  0  0  0  0  0  0  0  0
   -3.9620    0.0610   -0.2340 C   0  0  2  0  0  0  0  0  0  0  0  0
   -4.3690   -0.3110   -1.6460 C   0  0  0  0  0  0  0  0  0  0  0  0
   -5.0320    0.8290    0.4930 C   0  0  0  0  0  0  0  0  0  0  0  0
   -3.8640   -1.2810    0.4690 C   0  0  0  0  0  0  0  0  0  0  0  0
   -3.9440   -1.3860    1.8440 C   0  0  0  0  0  0  0  0  0  0  0  0
   -3.8430   -2.6420    2.4450 C   0  0  0  0  0  0  0  0  0  0  0  0
   -3.6650   -3.7790    1.6920 C   0  0  0  0  0  0  0  0  0  0  0  0
   -3.5820   -3.6920    0.3230 C   0  0  0  0  0  0  0  0  0  0  0  0
   -3.3880   -4.9140   -0.5230 C   0  0  0  0  0  0  0  0  0  0  0  0
   -3.6860   -2.4260   -0.2540 C   0  0  0  0  0  0  0  0  0  0  0  0
  1  2  1  0
  2  3  1  0
  3  4  1  0
  4  5  1  0
  5  6  2  0
  5 29  1  0
  6  7  1  0
  7  8  2  0
  8  9  1  0
  8 28  1  0
  9 10  1  1
  9 11  1  0
 11 12  1  0
 12 13  1  0
 12 20  1  0
 13 14  1  0
 14 15  2  0
 14 19  1  0
 15 16  1  0
 16 17  2  0
 17 18  1  0
 18 19  2  0
 20 21  2  0
 20 22  1  0
 22 23  1  0
 23 24  1  0
 24 25  1  1
 24 26  1  0
 26 27  1  0
 28 29  2  0
 29 30  1  0
 30 31  1  6
 30 32  1  0
 30 33  1  0
 33 34  2  0
 33 39  1  0
 34 35  1  0
 35 36  2  0
 36 37  1  0
 37 38  1  0
 37 39  2  0
M  END
