
     RDKit          3D

 32 32  0  0  0  0  0  0  0  0999 V2000
   -5.7110   -3.8790   -0.4760 C   0  0  0  0  0  0  0  0  0  0  0  0
   -5.6180   -2.3710   -0.4180 C   0  0  0  0  0  0  0  0  0  0  0  0
   -4.4020   -2.0220    0.2690 O   0  0  0  0  0  0  0  0  0  0  0  0
   -3.0490   -2.2140   -0.6840 P   0  0  0  0  0  0  0  0  0  0  0  0
   -2.1740   -3.5560    0.1510 O   0  0  0  0  0  0  0  0  0  0  0  0
   -1.9860   -1.0900   -1.1860 O   0  0  0  0  0  0  0  0  0  0  0  0
   -1.0460   -0.6790   -0.2400 C   0  0  1  0  0  0  0  0  0  0  0  0
   -0.6570   -1.9450    0.3140 O   0  0  0  0  0  0  0  0  0  0  0  0
    0.2720   -0.4030   -0.9770 O   0  0  0  0  0  0  0  0  0  0  0  0
    1.4380   -0.5690   -0.1590 C   0  0  0  0  0  0  0  0  0  0  0  0
    2.4200   -1.3280   -0.3620 N   0  0  0  0  0  0  0  0  0  0  0  0
    3.3200   -2.0980   -0.5360 C   0  0  0  0  0  0  0  0  0  0  0  0
    4.6880   -1.4900   -1.0350 C   0  0  0  0  0  0  0  0  0  0  0  0
    5.5060   -2.4150   -1.4840 C   0  0  0  0  0  0  0  0  0  0  0  0
    5.0510   -3.7730   -1.4750 N   0  0  0  0  0  0  0  0  0  0  0  0
    4.8200   -0.1780   -0.5660 C   0  0  0  0  0  0  0  0  0  0  0  0
    3.9770    0.2710    0.3830 O   0  0  0  0  0  0  0  0  0  0  0  0
    5.7200    0.7980   -0.9800 N   0  0  0  0  0  0  0  0  0  0  0  0
    5.7210    2.1020   -0.2230 C   0  0  0  0  0  0  0  0  0  0  0  0
    5.6930    1.7570    1.1320 O   0  0  0  0  0  0  0  0  0  0  0  0
    1.2730    0.2530    0.9550 C   0  0  0  0  0  0  0  0  0  0  0  0
    0.0310    1.0630    1.0590 C   0  0  0  0  0  0  0  0  0  0  0  0
    0.0410    2.2260    1.3760 O   0  0  0  0  0  0  0  0  0  0  0  0
   -1.2440    0.3420    0.6990 C   0  0  2  0  0  0  0  0  0  0  0  0
   -1.8030    0.0220    1.8870 F   0  0  0  0  0  0  0  0  0  0  0  0
   -1.9590    1.5090    0.1380 N   0  0  0  0  0  0  0  0  0  0  0  0
   -2.2480    2.5230    1.0120 C   0  0  0  0  0  0  0  0  0  0  0  0
   -1.8470    2.1660    2.2730 O   0  0  0  0  0  0  0  0  0  0  0  0
   -2.8080    3.8680    0.9620 C   0  0  0  0  0  0  0  0  0  0  0  0
   -3.6780    4.3130    0.0640 O   0  0  0  0  0  0  0  0  0  0  0  0
   -3.8270    5.6900    0.2910 C   0  0  0  0  0  0  0  0  0  0  0  0
   -2.7900    6.4910   -0.1190 F   0  0  0  0  0  0  0  0  0  0  0  0
  1  2  1  0
  2  3  1  0
  3  4  1  0
  4  5  1  0
  4  6  1  0
  6  7  1  0
  7  8  1  1
  7  9  1  0
  7 24  1  0
  9 10  1  0
 10 11  1  0
 10 21  2  0
 11 12  2  3
 12 13  1  0
 13 14  2  3
 13 16  1  0
 14 15  1  0
 16 17  2  0
 16 18  1  0
 18 19  1  0
 19 20  1  0
 21 22  1  0
 22 23  2  0
 22 24  1  0
 24 25  1  1
 24 26  1  0
 26 27  1  0
 27 28  2  0
 27 29  1  0
 29 30  1  0
 30 31  1  0
 31 32  1  0
M  END
