
     RDKit          3D

 32 34  0  0  0  0  0  0  0  0999 V2000
   -5.8500    3.2330    0.7150 N   0  0  0  0  0  0  0  0  0  0  0  0
   -5.3890    2.2160   -0.1500 C   0  0  0  0  0  0  0  0  0  0  0  0
   -4.4380    1.3930    0.3190 N   0  0  0  0  0  0  0  0  0  0  0  0
   -3.9400    0.3970   -0.4350 C   0  0  0  0  0  0  0  0  0  0  0  0
   -4.4590    0.2760   -1.7010 C   0  0  0  0  0  0  0  0  0  0  0  0
   -3.8070   -0.7860   -2.2610 N   0  0  0  0  0  0  0  0  0  0  0  0
   -2.9410   -1.2650   -1.3540 C   0  0  0  0  0  0  0  0  0  0  0  0
   -3.0090   -0.5490   -0.2230 N   0  0  0  0  0  0  0  0  0  0  0  0
   -2.2510   -0.7210    1.0060 C   0  0  2  0  0  0  0  0  0  0  0  0
   -1.1000    0.0120    1.0530 O   0  0  0  0  0  0  0  0  0  0  0  0
   -0.1060   -0.7050    1.6520 C   0  0  2  0  0  0  0  0  0  0  0  0
    0.9070   -1.1480    0.6280 C   0  0  0  0  0  0  0  0  0  0  0  0
    1.4960   -0.0670   -0.0250 O   0  0  0  0  0  0  0  0  0  0  0  0
    2.6250   -0.5570   -1.1660 P   0  0  2  0  0  0  0  0  0  0  0  0
    1.9700   -0.9610   -2.4720 O   0  0  0  0  0  0  0  0  0  0  0  0
    3.5300   -1.8450   -0.5190 O   0  0  0  0  0  0  0  0  0  0  0  0
    3.7100    0.6920   -1.5170 O   0  0  0  0  0  0  0  0  0  0  0  0
    5.2810    0.0860   -1.5940 P   0  0  2  0  0  0  0  0  0  0  0  0
    5.9720    0.7020   -2.7870 O   0  0  0  0  0  0  0  0  0  0  0  0
    5.2820   -1.5830   -1.8080 O   0  0  0  0  0  0  0  0  0  0  0  0
    6.1730    0.4580   -0.2270 O   0  0  0  0  0  0  0  0  0  0  0  0
    6.7680    2.0480   -0.3210 P   0  0  1  0  0  0  0  0  0  0  0  0
    5.5000    3.0460   -0.8060 O   0  0  0  0  0  0  0  0  0  0  0  0
    7.3770    2.5630    1.1560 O   0  0  0  0  0  0  0  0  0  0  0  0
    8.0620    2.0510   -1.4790 S   0  0  0  0  0  0  0  0  0  0  0  0
   -0.7250   -1.9660    2.2350 C   0  0  1  0  0  0  0  0  0  0  0  0
   -1.1860   -1.6700    3.4950 O   0  0  0  0  0  0  0  0  0  0  0  0
   -1.8720   -2.1710    1.2370 C   0  0  1  0  0  0  0  0  0  0  0  0
   -2.8910   -2.9220    1.7610 O   0  0  0  0  0  0  0  0  0  0  0  0
   -5.4350    1.1240   -2.1780 C   0  0  0  0  0  0  0  0  0  0  0  0
   -5.9090    1.0140   -3.3310 O   0  0  0  0  0  0  0  0  0  0  0  0
   -5.8990    2.1010   -1.3880 N   0  0  0  0  0  0  0  0  0  0  0  0
  1  2  1  0
  2  3  2  0
  2 32  1  0
  3  4  1  0
  4  5  2  0
  4  8  1  0
  5  6  1  0
  5 30  1  0
  6  7  2  0
  7  8  1  0
  9  8  1  6
  9 10  1  0
  9 28  1  0
 10 11  1  0
 11 12  1  6
 11 26  1  0
 12 13  1  0
 13 14  1  0
 14 15  2  0
 14 16  1  1
 14 17  1  0
 17 18  1  0
 18 19  2  0
 18 20  1  6
 18 21  1  0
 21 22  1  0
 22 23  1  6
 22 24  1  0
 22 25  2  0
 26 27  1  1
 26 28  1  0
 28 29  1  1
 30 31  2  0
 30 32  1  0
M  END
