
     RDKit          3D

 32 32  0  0  0  0  0  0  0  0999 V2000
    0.8330    5.3200   -1.0300 C   0  0  0  0  0  0  0  0  0  0  0  0
    0.5920    4.5250    0.2490 C   0  0  2  0  0  0  0  0  0  0  0  0
    1.3830    4.9610    1.3200 F   0  0  0  0  0  0  0  0  0  0  0  0
    0.8390    3.1010    0.0300 N   0  0  0  0  0  0  0  0  0  0  0  0
   -0.2720    2.2110    0.4290 C   0  0  0  0  0  0  0  0  0  0  0  0
   -1.2150    2.8550    0.8300 O   0  0  0  0  0  0  0  0  0  0  0  0
   -0.2080    0.7970    0.3580 C   0  0  0  0  0  0  0  0  0  0  0  0
    1.0520    0.0800    0.2570 C   0  0  0  0  0  0  0  0  0  0  0  0
    1.2960   -1.0570   -0.0010 O   0  0  0  0  0  0  0  0  0  0  0  0
    2.3750    0.8500    0.5350 N   0  0  0  0  0  0  0  0  0  0  0  0
    3.4480   -0.0460    0.3810 C   0  0  0  0  0  0  0  0  0  0  0  0
    4.0260   -0.3850   -0.9720 C   0  0  0  0  0  0  0  0  0  0  0  0
    4.8770   -1.3920   -0.6900 O   0  0  0  0  0  0  0  0  0  0  0  0
    6.3990   -1.4470   -0.1740 P   0  0  0  0  0  0  0  0  0  0  0  0
    6.6430   -2.7850    1.0190 O   0  0  0  0  0  0  0  0  0  0  0  0
    7.8240   -1.0520   -0.9580 O   0  0  0  0  0  0  0  0  0  0  0  0
   -1.2910   -0.0430    0.4150 C   0  0  0  0  0  0  0  0  0  0  0  0
   -2.7060    0.2000    0.5300 C   0  0  0  0  0  0  0  0  0  0  0  0
   -3.4280    1.4890    0.3700 C   0  0  0  0  0  0  0  0  0  0  0  0
   -2.9740    2.6320    0.4150 O   0  0  0  0  0  0  0  0  0  0  0  0
   -4.8310    1.5030    0.1260 O   0  0  0  0  0  0  0  0  0  0  0  0
   -3.3640   -0.9570    0.6400 C   0  0  0  0  0  0  0  0  0  0  0  0
   -4.7930   -1.1270    0.8040 N   0  0  0  0  0  0  0  0  0  0  0  0
   -5.4380   -2.3260    0.8880 C   0  0  0  0  0  0  0  0  0  0  0  0
   -4.7290   -3.3930    0.8050 O   0  0  0  0  0  0  0  0  0  0  0  0
   -6.7880   -2.5480    1.0740 O   0  0  0  0  0  0  0  0  0  0  0  0
   -2.4660   -2.0170    0.6940 N   0  0  0  0  0  0  0  0  0  0  0  0
   -1.1830   -1.5380    0.2080 C   0  0  2  0  0  0  0  0  0  0  0  0
   -0.2220   -2.1570    0.9800 F   0  0  0  0  0  0  0  0  0  0  0  0
   -1.1520   -1.8260   -1.2610 C   0  0  0  0  0  0  0  0  0  0  0  0
   -1.0450   -3.2780   -1.5510 C   0  0  0  0  0  0  0  0  0  0  0  0
   -2.1860   -3.9200   -1.0550 O   0  0  0  0  0  0  0  0  0  0  0  0
  2  1  1  6
  2  3  1  0
  2  4  1  0
  4  5  1  0
  5  6  2  0
  5  7  1  0
  7  8  1  0
  7 17  2  3
  8  9  2  0
  8 10  1  0
 10 11  1  0
 11 12  1  0
 12 13  1  0
 13 14  1  0
 14 15  1  0
 14 16  1  0
 17 18  1  0
 17 28  1  0
 18 19  1  0
 18 22  2  0
 19 20  2  0
 19 21  1  0
 22 23  1  0
 22 27  1  0
 23 24  1  0
 24 25  2  0
 24 26  1  0
 27 28  1  0
 28 29  1  1
 28 30  1  0
 30 31  1  0
 31 32  1  0
M  END
