
     RDKit          3D

 32 33  0  0  0  0  0  0  0  0999 V2000
    3.8990   -3.1970    1.1960 N   0  0  0  0  0  0  0  0  0  0  0  0
    4.7610   -2.4080    0.3150 C   0  0  2  0  0  0  0  0  0  0  0  0
    5.5660   -1.3950    1.0890 C   0  0  0  0  0  0  0  0  0  0  0  0
    5.4820   -0.1440    0.2240 C   0  0  1  0  0  0  0  0  0  0  0  0
    5.8310    0.9980    0.8750 F   0  0  0  0  0  0  0  0  0  0  0  0
    6.2720   -0.3360   -0.9130 F   0  0  0  0  0  0  0  0  0  0  0  0
    4.0780   -0.1940   -0.1510 N   0  0  0  0  0  0  0  0  0  0  0  0
    3.0910    0.7980   -0.0500 C   0  0  0  0  0  0  0  0  0  0  0  0
    3.3560    1.9310    0.4710 O   0  0  0  0  0  0  0  0  0  0  0  0
    1.7720    0.6310   -0.4950 N   0  0  0  0  0  0  0  0  0  0  0  0
    0.7290    1.5580   -0.2790 C   0  0  0  0  0  0  0  0  0  0  0  0
    0.9920    2.6070    0.3570 O   0  0  0  0  0  0  0  0  0  0  0  0
   -0.6390    1.3640   -0.7470 C   0  0  1  0  0  0  0  0  0  0  0  0
   -0.6500    1.5840   -2.2720 C   0  0  0  0  0  0  0  0  0  0  0  0
   -0.1930    2.9620   -2.5920 C   0  0  0  0  0  0  0  0  0  0  0  0
    1.1440    3.1680   -2.1560 O   0  0  0  0  0  0  0  0  0  0  0  0
    1.7820    4.3680   -2.3690 C   0  0  0  0  0  0  0  0  0  0  0  0
    1.1210    5.2750   -2.9670 O   0  0  0  0  0  0  0  0  0  0  0  0
    3.0870    4.6040   -1.9570 O   0  0  0  0  0  0  0  0  0  0  0  0
   -1.1400   -0.0450   -0.5480 C   0  0  0  0  0  0  0  0  0  0  0  0
   -2.6520    0.2500   -0.3780 C   0  0  1  0  0  0  0  0  0  0  0  0
   -3.3410   -0.8560    0.1280 N   0  0  0  0  0  0  0  0  0  0  0  0
   -4.5080   -0.6280    0.9160 C   0  0  0  0  0  0  0  0  0  0  0  0
   -5.2070   -1.9460    1.2600 C   0  0  0  0  0  0  0  0  0  0  0  0
   -4.1400   -3.1000    2.2060 P   0  0  0  0  0  0  0  0  0  0  0  0
   -4.0230   -4.6310    1.3790 O   0  0  0  0  0  0  0  0  0  0  0  0
   -4.8480   -3.4150    3.7570 O   0  0  0  0  0  0  0  0  0  0  0  0
   -5.2300   -2.2540    4.2910 O   0  0  0  0  0  0  0  0  0  0  0  0
   -2.5450    1.4790    0.4550 C   0  0  0  0  0  0  0  0  0  0  0  0
   -1.5320    2.2470   -0.1550 O   0  0  0  0  0  0  0  0  0  0  0  0
    3.9340   -1.5670   -0.5860 C   0  0  0  0  0  0  0  0  0  0  0  0
    3.2300   -1.9120   -1.5410 O   0  0  0  0  0  0  0  0  0  0  0  0
  2  1  1  1
  2  3  1  0
  2 31  1  0
  3  4  1  0
  4  5  1  1
  4  6  1  0
  4  7  1  0
  7  8  1  0
  7 31  1  0
  8  9  2  0
  8 10  1  0
 10 11  1  0
 11 12  2  0
 11 13  1  0
 13 14  1  6
 13 20  1  0
 13 30  1  0
 14 15  1  0
 15 16  1  0
 16 17  1  0
 17 18  2  0
 17 19  1  0
 20 21  1  0
 21 22  1  1
 21 29  1  0
 22 23  1  0
 23 24  1  0
 24 25  1  0
 25 26  1  0
 25 27  1  0
 27 28  1  0
 29 30  1  0
 31 32  2  0
M  END
