
     RDKit          3D

 31 31  0  0  0  0  0  0  0  0999 V2000
   -1.1180    2.4390   -1.4920 C   0  0  0  0  0  0  0  0  0  0  0  0
    0.0180    1.8360   -0.7640 C   0  0  1  0  0  0  0  0  0  0  0  0
    1.0330    1.6810   -1.7840 F   0  0  0  0  0  0  0  0  0  0  0  0
    0.6340    2.7170    0.2370 C   0  0  0  0  0  0  0  0  0  0  0  0
   -0.0900    3.2280    1.2830 O   0  0  0  0  0  0  0  0  0  0  0  0
   -1.0860    4.1300    1.3930 C   0  0  0  0  0  0  0  0  0  0  0  0
   -1.6350    4.4090    2.7030 N   0  0  0  0  0  0  0  0  0  0  0  0
   -1.5110    4.7010    0.3790 O   0  0  0  0  0  0  0  0  0  0  0  0
   -0.2430    0.4090   -0.3430 C   0  0  2  0  0  0  0  0  0  0  0  0
    0.8880   -0.2210    0.4190 C   0  0  0  0  0  0  0  0  0  0  0  0
    2.1380   -0.3270   -0.2440 N   0  0  0  0  0  0  0  0  0  0  0  0
    3.2490   -0.9060    0.4540 C   0  0  0  0  0  0  0  0  0  0  0  0
    3.0560   -1.2920    1.6190 O   0  0  0  0  0  0  0  0  0  0  0  0
    4.5800   -1.0500   -0.1610 C   0  0  0  0  0  0  0  0  0  0  0  0
    5.4390   -1.6410    0.7590 O   0  0  0  0  0  0  0  0  0  0  0  0
    7.0250   -1.8200    0.0650 P   0  0  0  0  0  0  0  0  0  0  0  0
    8.0860   -0.5650    0.6250 O   0  0  0  0  0  0  0  0  0  0  0  0
    6.9730   -1.8070   -1.6640 O   0  0  0  0  0  0  0  0  0  0  0  0
   -0.3680   -0.3990   -1.6350 C   0  0  0  0  0  0  0  0  0  0  0  0
   -1.7370   -0.6000   -2.0040 N   0  0  0  0  0  0  0  0  0  0  0  0
   -2.6230   -1.2740   -1.0420 C   0  0  0  0  0  0  0  0  0  0  0  0
   -3.5000   -2.1200   -1.4820 C   0  0  0  0  0  0  0  0  0  0  0  0
   -4.5530   -2.9980   -1.0460 C   0  0  0  0  0  0  0  0  0  0  0  0
   -4.3230   -4.3570   -1.3490 O   0  0  0  0  0  0  0  0  0  0  0  0
   -2.4250   -0.8190    0.2820 N   0  0  0  0  0  0  0  0  0  0  0  0
   -2.9780   -1.4520    1.3980 C   0  0  0  0  0  0  0  0  0  0  0  0
   -3.5600   -2.5220    1.3940 O   0  0  0  0  0  0  0  0  0  0  0  0
   -2.8710   -0.7910    2.7410 C   0  0  0  0  0  0  0  0  0  0  0  0
   -1.5940   -1.0170    3.2040 F   0  0  0  0  0  0  0  0  0  0  0  0
   -1.4390    0.2260    0.4840 C   0  0  0  0  0  0  0  0  0  0  0  0
   -1.6040    1.0360    1.4270 O   0  0  0  0  0  0  0  0  0  0  0  0
  2  1  1  6
  2  3  1  0
  2  4  1  0
  2  9  1  0
  4  5  1  0
  5  6  1  0
  6  7  1  0
  6  8  2  0
  9 10  1  1
  9 19  1  0
  9 30  1  0
 10 11  1  0
 11 12  1  0
 12 13  2  0
 12 14  1  0
 14 15  1  0
 15 16  1  0
 16 17  1  0
 16 18  1  0
 19 20  1  0
 20 21  1  0
 21 22  2  3
 21 25  1  0
 22 23  1  0
 23 24  1  0
 25 26  1  0
 25 30  1  0
 26 27  2  0
 26 28  1  0
 28 29  1  0
 30 31  2  0
M  END
