
     RDKit          3D

 31 32  0  0  0  0  0  0  0  0999 V2000
    0.6770    1.2360   -0.8690 O   0  0  0  0  0  0  0  0  0  0  0  0
    0.1400    0.3810   -0.0590 C   0  0  0  0  0  0  0  0  0  0  0  0
   -0.1190    0.8880    1.2190 N   0  0  0  0  0  0  0  0  0  0  0  0
    0.1840    2.2610    1.6020 C   0  0  0  0  0  0  0  0  0  0  0  0
   -0.5340    3.0880    0.7700 F   0  0  0  0  0  0  0  0  0  0  0  0
   -0.1160   -0.9580   -0.5230 C   0  0  0  0  0  0  0  0  0  0  0  0
    0.9920   -1.6510   -1.1220 C   0  0  0  0  0  0  0  0  0  0  0  0
    2.2660   -1.1410   -1.3170 O   0  0  0  0  0  0  0  0  0  0  0  0
    3.1840   -1.3430   -0.2660 C   0  0  0  0  0  0  0  0  0  0  0  0
    2.8170   -1.9580    0.7690 O   0  0  0  0  0  0  0  0  0  0  0  0
    4.5730   -0.8350   -0.3790 C   0  0  2  0  0  0  0  0  0  0  0  0
    5.1540   -1.4360   -1.4800 F   0  0  0  0  0  0  0  0  0  0  0  0
    5.3230   -1.2030    0.8800 C   0  0  0  0  0  0  0  0  0  0  0  0
    5.2920   -2.6100    0.9570 O   0  0  0  0  0  0  0  0  0  0  0  0
    4.4830    0.6710   -0.5510 C   0  0  0  0  0  0  0  0  0  0  0  0
    6.1470    1.4550   -0.7070 P   0  0  0  0  0  0  0  0  0  0  0  0
    5.9000    3.1260   -1.1430 O   0  0  0  0  0  0  0  0  0  0  0  0
    7.0140    1.4140    0.7960 O   0  0  0  0  0  0  0  0  0  0  0  0
    0.5120   -2.8460   -1.4280 N   0  0  0  0  0  0  0  0  0  0  0  0
   -0.7510   -2.9340   -1.0800 N   0  0  0  0  0  0  0  0  0  0  0  0
   -1.1900   -1.7550   -0.5050 C   0  0  0  0  0  0  0  0  0  0  0  0
   -2.5370   -1.6350   -0.0480 C   0  0  0  0  0  0  0  0  0  0  0  0
   -3.2330   -2.8050   -0.0540 O   0  0  0  0  0  0  0  0  0  0  0  0
   -3.3720   -0.6400    0.4050 N   0  0  0  0  0  0  0  0  0  0  0  0
   -3.1470    0.7450    0.5460 C   0  0  0  0  0  0  0  0  0  0  0  0
   -4.4720    1.5290    0.5210 C   0  0  1  0  0  0  0  0  0  0  0  0
   -4.1580    2.8010    0.0530 O   0  0  0  0  0  0  0  0  0  0  0  0
   -5.4860    0.9170   -0.3840 C   0  0  0  0  0  0  0  0  0  0  0  0
   -5.6130   -0.5610   -0.3320 C   0  0  1  0  0  0  0  0  0  0  0  0
   -5.0970   -1.0890   -1.5400 O   0  0  0  0  0  0  0  0  0  0  0  0
   -4.7680   -1.0770    0.8160 C   0  0  0  0  0  0  0  0  0  0  0  0
  1  2  2  0
  2  3  1  0
  2  6  1  0
  3  4  1  0
  4  5  1  0
  6  7  1  0
  6 21  2  0
  7  8  1  0
  7 19  2  0
  8  9  1  0
  9 10  2  0
  9 11  1  0
 11 12  1  6
 11 13  1  0
 11 15  1  0
 13 14  1  0
 15 16  1  0
 16 17  1  0
 16 18  1  0
 19 20  1  0
 20 21  1  0
 21 22  1  0
 22 23  2  0
 22 24  1  0
 24 25  1  0
 24 31  1  0
 25 26  1  0
 26 27  1  6
 26 28  1  0
 28 29  1  0
 29 30  1  6
 29 31  1  0
M  END
