
     RDKit          3D

 31 32  0  0  0  0  0  0  0  0999 V2000
    3.4800   -2.6190   -0.1780 C   0  0  0  0  0  0  0  0  0  0  0  0
    3.2660   -1.2200   -0.4130 N   0  0  0  0  0  0  0  0  0  0  0  0
    4.1870   -0.4390   -1.1890 C   0  0  0  0  0  0  0  0  0  0  0  0
    5.8920   -0.4310   -0.4490 P   0  0  0  0  0  0  0  0  0  0  0  0
    6.1430    1.0000    0.5110 O   0  0  0  0  0  0  0  0  0  0  0  0
    7.0850   -0.5440   -1.6890 O   0  0  0  0  0  0  0  0  0  0  0  0
    2.1160   -0.5980    0.1350 C   0  0  0  0  0  0  0  0  0  0  0  0
    2.1640   -0.2740    1.4080 C   0  0  0  0  0  0  0  0  0  0  0  0
    1.0790    0.3720    2.1460 C   0  0  1  0  0  0  0  0  0  0  0  0
    0.6820   -0.3730    3.2500 F   0  0  0  0  0  0  0  0  0  0  0  0
    1.5330    1.7290    2.7050 C   0  0  0  0  0  0  0  0  0  0  0  0
    1.8970    2.5900    1.6860 O   0  0  0  0  0  0  0  0  0  0  0  0
   -0.0490    0.6050    1.2910 N   0  0  0  0  0  0  0  0  0  0  0  0
   -0.0370    0.2330   -0.0700 C   0  0  0  0  0  0  0  0  0  0  0  0
   -1.2340    0.5280   -0.8040 N   0  0  0  0  0  0  0  0  0  0  0  0
   -1.5600    1.9070   -1.0460 C   0  0  0  0  0  0  0  0  0  0  0  0
   -3.0170    2.1070   -0.6850 C   0  0  2  0  0  0  0  0  0  0  0  0
   -3.8020    2.3460   -1.8020 F   0  0  0  0  0  0  0  0  0  0  0  0
   -3.0930    3.1870    0.2360 O   0  0  0  0  0  0  0  0  0  0  0  0
   -2.6300    4.4400   -0.1530 C   0  0  0  0  0  0  0  0  0  0  0  0
   -2.1590    4.6040   -1.2900 O   0  0  0  0  0  0  0  0  0  0  0  0
   -2.6910    5.5310    0.7330 O   0  0  0  0  0  0  0  0  0  0  0  0
   -3.5630    0.9780   -0.0610 O   0  0  0  0  0  0  0  0  0  0  0  0
   -3.5270   -0.0860   -1.0050 C   0  0  0  0  0  0  0  0  0  0  0  0
   -2.1400   -0.4780   -1.3190 C   0  0  2  0  0  0  0  0  0  0  0  0
   -1.6930   -1.8610   -1.0270 C   0  0  0  0  0  0  0  0  0  0  0  0
   -1.5130   -2.2420    0.2540 O   0  0  0  0  0  0  0  0  0  0  0  0
   -2.5840   -2.2900    1.0930 C   0  0  0  0  0  0  0  0  0  0  0  0
   -3.6320   -3.3080    0.6480 C   0  0  0  0  0  0  0  0  0  0  0  0
   -4.7020   -3.3210    1.5230 O   0  0  0  0  0  0  0  0  0  0  0  0
    0.9650   -0.3410   -0.6690 N   0  0  0  0  0  0  0  0  0  0  0  0
  1  2  1  0
  2  3  1  0
  2  7  1  0
  3  4  1  0
  4  5  1  0
  4  6  1  0
  7  8  2  0
  7 31  1  0
  8  9  1  0
  9 10  1  1
  9 11  1  0
  9 13  1  0
 11 12  1  0
 13 14  1  0
 14 15  1  0
 14 31  2  0
 15 16  1  0
 15 25  1  0
 16 17  1  0
 17 18  1  6
 17 19  1  0
 17 23  1  0
 19 20  1  0
 20 21  2  0
 20 22  1  0
 23 24  1  0
 24 25  1  0
 25 26  1  1
 26 27  1  0
 27 28  1  0
 28 29  1  0
 29 30  1  0
M  END
