
     RDKit          3D

 32 32  0  0  0  0  0  0  0  0999 V2000
   -2.5160    5.6770    0.9140 C   0  0  0  0  0  0  0  0  0  0  0  0
   -1.8990    4.5210    0.0770 C   0  0  0  0  0  0  0  0  0  0  0  0
   -1.9290    3.4170    0.8700 O   0  0  0  0  0  0  0  0  0  0  0  0
   -0.5940    2.6890    1.4800 P   0  0  0  0  0  0  0  0  0  0  0  0
   -0.9180    2.3950    3.2300 O   0  0  0  0  0  0  0  0  0  0  0  0
    0.3980    1.5360    0.8420 O   0  0  0  0  0  0  0  0  0  0  0  0
    0.0390    1.1410   -0.5220 C   0  0  1  0  0  0  0  0  0  0  0  0
   -1.2050    0.7400   -0.3180 O   0  0  0  0  0  0  0  0  0  0  0  0
   -2.1530    0.1350   -1.1310 C   0  0  0  0  0  0  0  0  0  0  0  0
   -1.8230   -0.0300   -2.3100 O   0  0  0  0  0  0  0  0  0  0  0  0
   -3.4590   -0.3120   -0.4960 C   0  0  2  0  0  0  0  0  0  0  0  0
   -2.9690   -0.6210    0.9610 C   0  0  0  0  0  0  0  0  0  0  0  0
   -3.9370   -1.0520    1.7830 F   0  0  0  0  0  0  0  0  0  0  0  0
   -3.7310   -1.6090   -1.0050 N   0  0  0  0  0  0  0  0  0  0  0  0
   -4.7400   -2.4610   -0.6080 C   0  0  0  0  0  0  0  0  0  0  0  0
   -5.5170   -2.0160    0.3460 O   0  0  0  0  0  0  0  0  0  0  0  0
   -5.0730   -3.7980   -1.0590 C   0  0  0  0  0  0  0  0  0  0  0  0
   -6.0820   -4.5330   -0.3420 N   0  0  0  0  0  0  0  0  0  0  0  0
   -4.5420   -4.3470   -2.0240 O   0  0  0  0  0  0  0  0  0  0  0  0
    0.6370    2.2220   -1.2950 C   0  0  0  0  0  0  0  0  0  0  0  0
    2.0830    2.1550   -1.0450 O   0  0  0  0  0  0  0  0  0  0  0  0
    2.6160    1.3750   -0.0150 C   0  0  0  0  0  0  0  0  0  0  0  0
    3.4630    1.7110    0.8320 O   0  0  0  0  0  0  0  0  0  0  0  0
    2.1250    0.0580    0.0620 N   0  0  0  0  0  0  0  0  0  0  0  0
    2.5210   -1.1200    0.7320 C   0  0  0  0  0  0  0  0  0  0  0  0
    3.4490   -2.0010   -0.0430 C   0  0  0  0  0  0  0  0  0  0  0  0
    4.8620   -1.5950   -0.0900 C   0  0  1  0  0  0  0  0  0  0  0  0
    5.1390   -0.3820   -0.6160 O   0  0  0  0  0  0  0  0  0  0  0  0
    5.3350   -1.6500    1.2530 F   0  0  0  0  0  0  0  0  0  0  0  0
    5.7190   -2.6810   -0.7780 C   0  0  0  0  0  0  0  0  0  0  0  0
    7.0660   -2.4400   -0.4950 N   0  0  0  0  0  0  0  0  0  0  0  0
    0.9100   -0.1160   -0.7850 C   0  0  0  0  0  0  0  0  0  0  0  0
  1  2  1  0
  2  3  1  0
  3  4  1  0
  4  5  1  0
  4  6  1  0
  7  6  1  1
  7  8  1  0
  7 20  1  0
  7 32  1  0
  8  9  1  0
  9 10  2  0
  9 11  1  0
 11 12  1  1
 11 14  1  0
 12 13  1  0
 14 15  1  0
 15 16  2  0
 15 17  1  0
 17 18  1  0
 17 19  2  0
 20 21  1  0
 21 22  1  0
 22 23  2  0
 22 24  1  0
 24 25  1  0
 24 32  1  0
 25 26  1  0
 26 27  1  0
 27 28  1  6
 27 29  1  0
 27 30  1  0
 30 31  1  0
M  END
