
     RDKit          3D

 39 42  0  0  0  0  0  0  0  0999 V2000
    3.6370   -0.4390    3.9440 C   0  0  0  0  0  0  0  0  0  0  0  0
    4.0520   -1.5000    2.9550 C   0  0  0  0  0  0  0  0  0  0  0  0
    3.9240   -0.9790    1.2400 S   0  0  0  0  0  0  0  0  0  0  0  0
    5.0810    0.3320    0.8220 C   0  0  0  0  0  0  0  0  0  0  0  0
    5.1460    0.7520   -0.4200 C   0  0  0  0  0  0  0  0  0  0  0  0
    4.2800    0.1610   -1.4710 C   0  0  0  0  0  0  0  0  0  0  0  0
    2.9290   -0.0540   -1.2920 C   0  0  0  0  0  0  0  0  0  0  0  0
    2.1140   -0.6330   -2.2190 C   0  0  0  0  0  0  0  0  0  0  0  0
    0.7380   -0.9000   -2.0630 N   0  0  0  0  0  0  0  0  0  0  0  0
   -0.0670   -0.4580   -0.9910 C   0  0  0  0  0  0  0  0  0  0  0  0
    0.3930    0.2380   -0.0860 O   0  0  0  0  0  0  0  0  0  0  0  0
   -1.4580   -0.7890   -0.8900 N   0  0  0  0  0  0  0  0  0  0  0  0
   -2.2650   -0.3030    0.2300 C   0  0  0  0  0  0  0  0  0  0  0  0
   -3.6420   -0.8210    0.0600 C   0  0  2  0  0  0  0  0  0  0  0  0
   -3.6400   -2.2240    0.0550 O   0  0  0  0  0  0  0  0  0  0  0  0
   -4.5270   -0.2530   -0.9880 C   0  0  1  0  0  0  0  0  0  0  0  0
   -4.6060   -0.9250   -2.3210 C   0  0  0  0  0  0  0  0  0  0  0  0
   -4.9120   -2.3830   -2.2780 C   0  0  0  0  0  0  0  0  0  0  0  0
   -6.0970   -2.5830   -1.3670 C   0  0  0  0  0  0  0  0  0  0  0  0
   -5.8520   -2.0670   -0.1090 O   0  0  0  0  0  0  0  0  0  0  0  0
   -5.6880   -0.7020   -0.0750 C   0  0  1  0  0  0  0  0  0  0  0  0
   -4.6910   -0.3660    1.0560 C   0  0  1  0  0  0  0  0  0  0  0  0
   -4.7610   -1.3050    2.2330 C   0  0  0  0  0  0  0  0  0  0  0  0
   -4.7900    1.0570    1.3460 C   0  0  0  0  0  0  0  0  0  0  0  0
   -4.0700    1.9690    0.8760 O   0  0  0  0  0  0  0  0  0  0  0  0
   -5.8160    1.4850    2.2640 N   0  0  0  0  0  0  0  0  0  0  0  0
   -5.9810    2.8820    2.6010 C   0  0  0  0  0  0  0  0  0  0  0  0
   -4.7750    3.5040    3.2450 C   0  0  0  0  0  0  0  0  0  0  0  0
   -4.4380    2.8600    4.4370 O   0  0  0  0  0  0  0  0  0  0  0  0
    2.7100   -1.0240   -3.4180 C   0  0  0  0  0  0  0  0  0  0  0  0
    2.0320   -1.6200   -4.4520 O   0  0  0  0  0  0  0  0  0  0  0  0
    4.0820   -0.8290   -3.6560 C   0  0  0  0  0  0  0  0  0  0  0  0
    4.6690   -1.2130   -4.8350 O   0  0  0  0  0  0  0  0  0  0  0  0
    6.0300   -1.0300   -5.1000 C   0  0  0  0  0  0  0  0  0  0  0  0
    4.8370   -0.2360   -2.6680 C   0  0  0  0  0  0  0  0  0  0  0  0
    6.0960    1.8170   -0.7970 C   0  0  0  0  0  0  0  0  0  0  0  0
    6.3460    2.7330    0.3470 C   0  0  0  0  0  0  0  0  0  0  0  0
    6.9050    1.9010    1.4910 C   0  0  0  0  0  0  0  0  0  0  0  0
    5.9060    0.8500    1.9110 C   0  0  0  0  0  0  0  0  0  0  0  0
  1  2  1  0
  2  3  1  0
  3  4  1  0
  4  5  2  0
  4 39  1  0
  5  6  1  0
  5 36  1  0
  6  7  2  0
  6 35  1  0
  7  8  1  0
  8  9  1  0
  8 30  2  0
  9 10  1  0
 10 11  2  0
 10 12  1  0
 12 13  1  0
 13 14  1  0
 14 15  1  6
 14 16  1  0
 14 22  1  0
 16 17  1  6
 16 21  1  0
 17 18  1  0
 18 19  1  0
 19 20  1  0
 21 20  1  6
 21 22  1  0
 22 23  1  1
 22 24  1  0
 24 25  2  0
 24 26  1  0
 26 27  1  0
 27 28  1  0
 28 29  1  0
 30 31  1  0
 30 32  1  0
 32 33  1  0
 32 35  2  0
 33 34  1  0
 36 37  1  0
 37 38  1  0
 38 39  1  0
M  END
