
     RDKit          3D

 39 41  0  0  0  0  0  0  0  0999 V2000
  -11.1300    0.7930    2.5020 C   0  0  0  0  0  0  0  0  0  0  0  0
   -9.8400    0.6250    2.2480 C   0  0  0  0  0  0  0  0  0  0  0  0
   -9.2500   -0.6560    2.5120 C   0  0  0  0  0  0  0  0  0  0  0  0
   -7.9680   -0.9810    2.3080 C   0  0  0  0  0  0  0  0  0  0  0  0
   -7.6430   -2.2870    2.6380 O   0  0  0  0  0  0  0  0  0  0  0  0
   -7.0220   -0.0620    1.8050 C   0  0  0  0  0  0  0  0  0  0  0  0
   -5.7670   -0.1310    1.4880 C   0  0  0  0  0  0  0  0  0  0  0  0
   -4.8000   -1.1950    1.5020 C   0  0  0  0  0  0  0  0  0  0  0  0
   -5.1170   -2.6070    1.8240 C   0  0  0  0  0  0  0  0  0  0  0  0
   -5.2450    1.2120    0.9270 C   0  0  0  0  0  0  0  0  0  0  0  0
   -4.1460    1.7850    1.7260 C   0  0  0  0  0  0  0  0  0  0  0  0
   -2.8930    1.0340    1.8040 C   0  0  0  0  0  0  0  0  0  0  0  0
   -2.3500    0.7710    2.9300 O   0  0  0  0  0  0  0  0  0  0  0  0
   -2.2320    0.5540    0.5860 C   0  0  0  0  0  0  0  0  0  0  0  0
   -1.1850   -0.2010    0.6880 C   0  0  0  0  0  0  0  0  0  0  0  0
   -0.5180   -0.6760    2.2620 S   0  0  0  0  0  0  0  0  0  0  0  0
    0.6810   -1.9500    1.9290 C   0  0  0  0  0  0  0  0  0  0  0  0
    0.9410   -2.2860    0.6800 C   0  0  0  0  0  0  0  0  0  0  0  0
    0.3740   -1.7660   -0.5190 C   0  0  0  0  0  0  0  0  0  0  0  0
   -0.6040   -0.7920   -0.5100 C   0  0  0  0  0  0  0  0  0  0  0  0
   -0.8570   -0.5540   -1.8360 N   0  0  0  0  0  0  0  0  0  0  0  0
   -0.1000   -1.3200   -2.6040 C   0  0  0  0  0  0  0  0  0  0  0  0
   -0.1140   -1.3180   -3.8770 O   0  0  0  0  0  0  0  0  0  0  0  0
    0.6730   -2.0850   -1.8170 N   0  0  0  0  0  0  0  0  0  0  0  0
    1.6130   -3.0390   -2.2960 C   0  0  0  0  0  0  0  0  0  0  0  0
    3.0090   -2.6470   -2.3480 C   0  0  0  0  0  0  0  0  0  0  0  0
    3.8300   -3.3830   -2.9770 O   0  0  0  0  0  0  0  0  0  0  0  0
    3.5240   -1.4930   -1.7220 N   0  0  0  0  0  0  0  0  0  0  0  0
    4.9500   -1.1500   -1.7580 C   0  0  2  0  0  0  0  0  0  0  0  0
    5.6110   -1.7860   -0.5140 C   0  0  0  0  0  0  0  0  0  0  0  0
    5.0930    0.2930   -1.6320 C   0  0  0  0  0  0  0  0  0  0  0  0
    4.0670    1.0530   -1.6360 O   0  0  0  0  0  0  0  0  0  0  0  0
    6.3140    0.9510   -1.4960 O   0  0  0  0  0  0  0  0  0  0  0  0
    6.3660    2.3700   -1.3740 C   0  0  0  0  0  0  0  0  0  0  0  0
    7.8060    2.7630   -1.1530 C   0  0  1  0  0  0  0  0  0  0  0  0
    8.7330    2.3270   -2.2350 C   0  0  0  0  0  0  0  0  0  0  0  0
    9.3010    3.6280   -2.7510 C   0  0  0  0  0  0  0  0  0  0  0  0
    8.3230    4.6540   -2.2460 C   0  0  0  0  0  0  0  0  0  0  0  0
    7.9140    4.1300   -1.0280 O   0  0  0  0  0  0  0  0  0  0  0  0
  1  2  2  0
  2  3  1  0
  3  4  2  3
  4  5  1  0
  4  6  1  0
  6  7  2  3
  7  8  1  0
  7 10  1  0
  8  9  1  0
 10 11  1  0
 11 12  1  0
 12 13  2  0
 12 14  1  0
 14 15  2  3
 15 16  1  0
 15 20  1  0
 16 17  1  0
 17 18  2  0
 18 19  1  0
 19 20  2  0
 19 24  1  0
 20 21  1  0
 21 22  1  0
 22 23  2  0
 22 24  1  0
 24 25  1  0
 25 26  1  0
 26 27  2  0
 26 28  1  0
 28 29  1  0
 29 30  1  1
 29 31  1  0
 31 32  2  0
 31 33  1  0
 33 34  1  0
 35 34  1  6
 35 36  1  0
 35 39  1  0
 36 37  1  0
 37 38  1  0
 38 39  1  0
M  END
