
     RDKit          3D

 39 42  0  0  0  0  0  0  0  0999 V2000
    8.4160    0.2240   -3.4200 C   0  0  0  0  0  0  0  0  0  0  0  0
    7.5050    0.3570   -2.3550 O   0  0  0  0  0  0  0  0  0  0  0  0
    7.8870    0.2790   -1.0330 C   0  0  0  0  0  0  0  0  0  0  0  0
    9.1820    0.0680   -0.6710 C   0  0  0  0  0  0  0  0  0  0  0  0
    9.5400   -0.0070    0.6670 C   0  0  0  0  0  0  0  0  0  0  0  0
   10.9680   -0.2400    0.9850 C   0  0  0  0  0  0  0  0  0  0  0  0
    8.5960    0.1320    1.6620 C   0  0  0  0  0  0  0  0  0  0  0  0
    7.2760    0.3480    1.2890 C   0  0  0  0  0  0  0  0  0  0  0  0
    6.8940    0.4250   -0.0530 C   0  0  0  0  0  0  0  0  0  0  0  0
    5.6460    0.6250   -0.4760 O   0  0  0  0  0  0  0  0  0  0  0  0
    4.3950    0.7650   -0.1140 C   0  0  0  0  0  0  0  0  0  0  0  0
    3.5250   -0.3390    0.4320 C   0  0  2  0  0  0  0  0  0  0  0  0
    2.2260    0.2900    0.7580 C   0  0  0  0  0  0  0  0  0  0  0  0
    1.0870   -0.4260    1.3130 C   0  0  1  0  0  0  0  0  0  0  0  0
    1.2880   -1.0270    2.6750 C   0  0  0  0  0  0  0  0  0  0  0  0
   -0.0890    0.4420    1.3300 N   0  0  0  0  0  0  0  0  0  0  0  0
   -1.2670    0.0710    0.6040 C   0  0  0  0  0  0  0  0  0  0  0  0
   -1.3100   -0.9970   -0.0540 O   0  0  0  0  0  0  0  0  0  0  0  0
   -2.4210    0.9000    0.6070 N   0  0  0  0  0  0  0  0  0  0  0  0
   -3.6310    0.6770   -0.0530 C   0  0  0  0  0  0  0  0  0  0  0  0
   -3.9000   -0.3060   -0.9630 C   0  0  0  0  0  0  0  0  0  0  0  0
   -5.1630   -0.4500   -1.5630 C   0  0  0  0  0  0  0  0  0  0  0  0
   -6.1910    0.4310   -1.2330 C   0  0  0  0  0  0  0  0  0  0  0  0
   -5.9420    1.4240   -0.3240 C   0  0  0  0  0  0  0  0  0  0  0  0
   -4.6880    1.5440    0.2530 C   0  0  0  0  0  0  0  0  0  0  0  0
   -7.0230    2.3430    0.0080 C   0  0  0  0  0  0  0  0  0  0  0  0
   -7.0520    2.8890    1.1330 O   0  0  0  0  0  0  0  0  0  0  0  0
   -8.0560    2.5890   -1.0240 C   0  0  0  0  0  0  0  0  0  0  0  0
   -8.5180    1.3030   -1.6070 C   0  0  2  0  0  0  0  0  0  0  0  0
   -9.5400    0.7030   -0.6610 C   0  0  0  0  0  0  0  0  0  0  0  0
   -9.5800   -0.7490   -1.1030 C   0  0  2  0  0  0  0  0  0  0  0  0
  -10.1600   -1.5230   -0.0490 N   0  0  0  0  0  0  0  0  0  0  0  0
   -9.5120   -1.4860    1.1150 O   0  0  0  0  0  0  0  0  0  0  0  0
   -8.1360   -1.0390   -1.3460 C   0  0  0  0  0  0  0  0  0  0  0  0
   -7.4990    0.2640   -1.8580 C   0  0  2  0  0  0  0  0  0  0  0  0
    4.1940   -1.6010    1.3620 S   0  0  1  0  0  0  0  0  0  0  0  0
    5.5470   -2.3900    0.4500 C   0  0  0  0  0  0  0  0  0  0  0  0
    4.7530   -1.2910    2.6950 O   0  0  0  0  0  0  0  0  0  0  0  0
    3.1690   -2.7500    1.4710 O   0  0  0  0  0  0  0  0  0  0  0  0
  1  2  1  0
  2  3  1  0
  3  4  2  0
  3  9  1  0
  4  5  1  0
  5  6  1  0
  5  7  2  0
  7  8  1  0
  8  9  2  0
  9 10  1  0
 10 11  1  0
 12 11  1  1
 12 13  1  0
 12 36  1  0
 13 14  1  0
 14 15  1  1
 14 16  1  0
 16 17  1  0
 17 18  2  0
 17 19  1  0
 19 20  1  0
 20 21  2  0
 20 25  1  0
 21 22  1  0
 22 23  2  0
 23 24  1  0
 23 35  1  0
 24 25  2  0
 24 26  1  0
 26 27  2  0
 26 28  1  0
 29 28  1  1
 29 30  1  0
 29 35  1  0
 30 31  1  0
 31 32  1  1
 31 34  1  0
 32 33  1  0
 35 34  1  1
 36 37  1  6
 36 38  2  0
 36 39  2  0
M  END
