
     RDKit          3D

 39 42  0  0  0  0  0  0  0  0999 V2000
   -7.1840    2.8400    1.4120 C   0  0  0  0  0  0  0  0  0  0  0  0
   -6.1780    1.9340    2.0260 C   0  0  0  0  0  0  0  0  0  0  0  0
   -5.6660    0.8000    1.2150 C   0  0  0  0  0  0  0  0  0  0  0  0
   -4.9260    1.1470   -0.0020 C   0  0  2  0  0  0  0  0  0  0  0  0
   -5.6090    1.9040   -1.0730 C   0  0  0  0  0  0  0  0  0  0  0  0
   -6.7110    1.1010   -1.7460 C   0  0  0  0  0  0  0  0  0  0  0  0
   -6.0210   -0.0810   -2.4490 C   0  0  2  0  0  0  0  0  0  0  0  0
   -7.0160   -0.8710   -3.1900 C   0  0  0  0  0  0  0  0  0  0  0  0
   -6.6270   -2.0300   -3.9310 N   0  0  0  0  0  0  0  0  0  0  0  0
   -8.2230   -0.5190   -3.1670 O   0  0  0  0  0  0  0  0  0  0  0  0
   -5.3850   -0.9120   -1.3590 C   0  0  0  0  0  0  0  0  0  0  0  0
   -4.2980   -0.0800   -0.6690 C   0  0  2  0  0  0  0  0  0  0  0  0
   -3.7080   -0.9550    0.2700 O   0  0  0  0  0  0  0  0  0  0  0  0
   -2.3920   -1.3520    0.2670 C   0  0  0  0  0  0  0  0  0  0  0  0
   -1.6410   -0.9080   -0.6370 O   0  0  0  0  0  0  0  0  0  0  0  0
   -1.8290   -2.2850    1.2960 C   0  0  2  0  0  0  0  0  0  0  0  0
   -1.8870   -1.7030    2.6810 C   0  0  0  0  0  0  0  0  0  0  0  0
   -0.7410   -2.1910    3.5450 C   0  0  0  0  0  0  0  0  0  0  0  0
    0.5230   -1.7600    2.8640 C   0  0  0  0  0  0  0  0  0  0  0  0
    1.4960   -1.1290    3.5240 N   0  0  0  0  0  0  0  0  0  0  0  0
    2.6260   -0.7660    2.8390 C   0  0  0  0  0  0  0  0  0  0  0  0
    3.5070   -0.1800    3.4930 O   0  0  0  0  0  0  0  0  0  0  0  0
    2.8010   -1.0180    1.5220 C   0  0  0  0  0  0  0  0  0  0  0  0
    3.9740   -0.6760    0.7500 C   0  0  0  0  0  0  0  0  0  0  0  0
    3.9360   -0.8750   -0.5250 O   0  0  0  0  0  0  0  0  0  0  0  0
    5.1910   -0.1410    1.2060 N   0  0  0  0  0  0  0  0  0  0  0  0
    6.2900    0.1610    0.3590 C   0  0  0  0  0  0  0  0  0  0  0  0
    6.5800    0.0900   -0.9340 C   0  0  0  0  0  0  0  0  0  0  0  0
    7.7710    0.4720   -1.4180 C   0  0  0  0  0  0  0  0  0  0  0  0
    8.7250    0.9540   -0.5510 C   0  0  0  0  0  0  0  0  0  0  0  0
   10.0730    1.4440   -0.6860 C   0  0  0  0  0  0  0  0  0  0  0  0
   10.6650    1.8150    0.3720 O   0  0  0  0  0  0  0  0  0  0  0  0
   10.7470    1.5330   -1.8710 O   0  0  0  0  0  0  0  0  0  0  0  0
   12.0870    2.0240   -1.9650 C   0  0  0  0  0  0  0  0  0  0  0  0
   12.4300    1.9470   -3.4440 C   0  0  0  0  0  0  0  0  0  0  0  0
    7.8170    0.8330    1.0340 S   0  0  0  0  0  0  0  0  0  0  0  0
    1.7700   -1.6800    0.8440 C   0  0  0  0  0  0  0  0  0  0  0  0
    0.6370   -2.0460    1.5230 C   0  0  0  0  0  0  0  0  0  0  0  0
   -0.4900   -2.7570    0.8620 C   0  0  0  0  0  0  0  0  0  0  0  0
  1  2  1  0
  2  3  1  0
  4  3  1  1
  4  5  1  0
  4 12  1  0
  5  6  1  0
  6  7  1  0
  7  8  1  1
  7 11  1  0
  8  9  1  0
  8 10  2  0
 11 12  1  0
 12 13  1  1
 13 14  1  0
 14 15  2  0
 16 14  1  6
 16 17  1  0
 16 39  1  0
 17 18  1  0
 18 19  1  0
 19 20  1  0
 19 38  2  0
 20 21  1  0
 21 22  2  0
 21 23  1  0
 23 24  1  0
 23 37  2  0
 24 25  2  0
 24 26  1  0
 26 27  1  0
 27 28  2  0
 27 36  1  0
 28 29  1  0
 29 30  2  0
 30 31  1  0
 30 36  1  0
 31 32  2  0
 31 33  1  0
 33 34  1  0
 34 35  1  0
 37 38  1  0
 38 39  1  0
M  END
