
     RDKit          3D

 39 42  0  0  0  0  0  0  0  0999 V2000
   -3.7960    1.5170   -3.0520 C   0  0  0  0  0  0  0  0  0  0  0  0
   -3.8280    2.1440   -1.6920 C   0  0  0  0  0  0  0  0  0  0  0  0
   -3.1450    1.2880   -0.6150 C   0  0  2  0  0  0  0  0  0  0  0  0
   -1.7300    1.0750   -0.9870 C   0  0  1  0  0  0  0  0  0  0  0  0
   -1.0140    2.3490   -1.1030 C   0  0  0  0  0  0  0  0  0  0  0  0
   -1.1540    3.0590   -2.1170 O   0  0  0  0  0  0  0  0  0  0  0  0
   -0.1590    2.7810   -0.0650 N   0  0  0  0  0  0  0  0  0  0  0  0
   -0.3180    2.3190    1.3040 C   0  0  0  0  0  0  0  0  0  0  0  0
   -0.9360    0.9180    1.3090 C   0  0  0  0  0  0  0  0  0  0  0  0
   -0.9660    0.2830    0.0440 N   0  0  0  0  0  0  0  0  0  0  0  0
   -0.3850   -0.8840   -0.4060 C   0  0  0  0  0  0  0  0  0  0  0  0
   -0.9120   -1.1570   -1.6610 O   0  0  0  0  0  0  0  0  0  0  0  0
    0.5100   -1.8740   -0.0950 N   0  0  0  0  0  0  0  0  0  0  0  0
    0.4260   -3.0350   -1.1430 C   0  0  0  0  0  0  0  0  0  0  0  0
   -0.6000   -3.9910   -0.6370 C   0  0  0  0  0  0  0  0  0  0  0  0
   -0.7680   -5.0550   -1.4900 O   0  0  0  0  0  0  0  0  0  0  0  0
    0.4010   -5.7650   -1.6460 C   0  0  0  0  0  0  0  0  0  0  0  0
    1.5260   -2.1040    0.8210 C   0  0  2  0  0  0  0  0  0  0  0  0
    1.3650   -2.1230    2.2720 C   0  0  0  0  0  0  0  0  0  0  0  0
    1.0280   -1.0390    2.9910 O   0  0  0  0  0  0  0  0  0  0  0  0
    2.8010   -1.2880    0.5260 C   0  0  1  0  0  0  0  0  0  0  0  0
    3.3620   -1.6370   -0.8210 C   0  0  0  0  0  0  0  0  0  0  0  0
    4.5750   -0.9290   -0.9850 O   0  0  0  0  0  0  0  0  0  0  0  0
    4.8410    0.2820   -0.3140 C   0  0  0  0  0  0  0  0  0  0  0  0
    6.0650    0.9190   -0.4260 C   0  0  0  0  0  0  0  0  0  0  0  0
    6.2910    2.1170    0.2520 C   0  0  0  0  0  0  0  0  0  0  0  0
    7.5220    2.7280    0.1200 O   0  0  0  0  0  0  0  0  0  0  0  0
    5.3250    2.7070    1.0460 C   0  0  0  0  0  0  0  0  0  0  0  0
    5.6020    3.9910    1.7490 C   0  0  0  0  0  0  0  0  0  0  0  0
    4.1140    2.0310    1.1270 C   0  0  0  0  0  0  0  0  0  0  0  0
    3.8770    0.8610    0.4730 C   0  0  0  0  0  0  0  0  0  0  0  0
    2.5780    0.1830    0.6030 C   0  0  0  0  0  0  0  0  0  0  0  0
   -3.9650    0.0220   -0.5050 C   0  0  1  0  0  0  0  0  0  0  0  0
   -3.4820   -0.8730    0.4450 O   0  0  0  0  0  0  0  0  0  0  0  0
   -5.3780    0.3040   -0.1800 C   0  0  0  0  0  0  0  0  0  0  0  0
   -6.4840    0.3630   -0.9400 C   0  0  0  0  0  0  0  0  0  0  0  0
   -7.6780    0.6450   -0.4020 C   0  0  0  0  0  0  0  0  0  0  0  0
   -7.7580    0.8750    0.9400 C   0  0  0  0  0  0  0  0  0  0  0  0
   -6.0300    0.6760    1.4690 S   0  0  0  0  0  0  0  0  0  0  0  0
  1  2  1  0
  3  2  1  6
  3  4  1  0
  3 33  1  0
  4  5  1  0
  4 10  1  1
  5  6  2  0
  5  7  1  0
  7  8  1  0
  8  9  1  0
  9 10  1  0
 10 11  1  0
 11 12  2  0
 11 13  1  0
 13 14  1  0
 13 18  1  0
 14 15  1  0
 15 16  1  0
 16 17  1  0
 18 19  1  1
 18 21  1  0
 19 20  1  0
 21 22  1  6
 21 32  1  0
 22 23  1  0
 23 24  1  0
 24 25  2  0
 24 31  1  0
 25 26  1  0
 26 27  1  0
 26 28  2  0
 28 29  1  0
 28 30  1  0
 30 31  2  0
 31 32  1  0
 33 34  1  1
 33 35  1  0
 35 36  2  0
 35 39  1  0
 36 37  1  0
 37 38  2  0
 38 39  1  0
M  END
