
     RDKit          3D

 21 24  0  0  0  0  0  0  0  0999 V2000
   -3.6190   -3.0380    0.0710 C   0  0  0  0  0  0  0  0  0  0  0  0
   -2.5430   -2.0340    0.2480 C   0  0  0  0  0  0  0  0  0  0  0  0
   -2.7290   -0.7580   -0.0510 C   0  0  0  0  0  0  0  0  0  0  0  0
   -4.0160   -0.2750   -0.5760 C   0  0  0  0  0  0  0  0  0  0  0  0
   -4.0420    1.2110   -0.6990 C   0  0  0  0  0  0  0  0  0  0  0  0
   -3.3460    1.8980    0.4560 C   0  0  0  0  0  0  0  0  0  0  0  0
   -1.9150    1.5070    0.3960 C   0  0  0  0  0  0  0  0  0  0  0  0
   -0.9130    2.4380    0.5870 C   0  0  0  0  0  0  0  0  0  0  0  0
    0.4110    1.9940    0.5150 C   0  0  0  0  0  0  0  0  0  0  0  0
    0.7410    0.6810    0.2640 C   0  0  0  0  0  0  0  0  0  0  0  0
    2.1460    0.2440    0.1950 C   0  0  0  0  0  0  0  0  0  0  0  0
    2.4990   -1.0300    0.5770 C   0  0  0  0  0  0  0  0  0  0  0  0
    3.7870   -1.5060    0.5390 C   0  0  0  0  0  0  0  0  0  0  0  0
    4.7650   -0.6370    0.0890 C   0  0  0  0  0  0  0  0  0  0  0  0
    4.4570    0.6500   -0.3040 C   0  0  0  0  0  0  0  0  0  0  0  0
    3.1450    1.0830   -0.2490 C   0  0  0  0  0  0  0  0  0  0  0  0
    5.6530    1.2350   -0.6910 O   0  0  0  0  0  0  0  0  0  0  0  0
    6.6100    0.2020   -0.8500 C   0  0  0  0  0  0  0  0  0  0  0  0
    6.1350   -0.8670   -0.0460 O   0  0  0  0  0  0  0  0  0  0  0  0
   -0.3050   -0.2080    0.0810 C   0  0  0  0  0  0  0  0  0  0  0  0
   -1.6330    0.1840    0.1420 C   0  0  0  0  0  0  0  0  0  0  0  0
  1  2  1  0
  2  3  2  3
  3  4  1  0
  3 21  1  0
  4  5  1  0
  5  6  1  0
  6  7  1  0
  7  8  2  0
  7 21  1  0
  8  9  1  0
  9 10  2  0
 10 11  1  0
 10 20  1  0
 11 12  2  0
 11 16  1  0
 12 13  1  0
 13 14  2  0
 14 15  1  0
 14 19  1  0
 15 16  2  0
 15 17  1  0
 17 18  1  0
 18 19  1  0
 20 21  2  0
M  END
