
     RDKit          3D

 21 24  0  0  0  0  0  0  0  0999 V2000
   -0.4340   -2.6350    1.2740 O   0  0  0  0  0  0  0  0  0  0  0  0
   -0.1800   -1.4600    0.8360 C   0  0  0  0  0  0  0  0  0  0  0  0
    1.2000   -1.0900    0.5860 C   0  0  0  0  0  0  0  0  0  0  0  0
    2.2340   -1.6850    1.3030 C   0  0  0  0  0  0  0  0  0  0  0  0
    3.5610   -1.4000    1.0970 C   0  0  0  0  0  0  0  0  0  0  0  0
    3.9110   -0.4610    0.1160 C   0  0  0  0  0  0  0  0  0  0  0  0
    2.9180    0.1410   -0.6060 C   0  0  0  0  0  0  0  0  0  0  0  0
    1.5730   -0.1780   -0.3650 C   0  0  0  0  0  0  0  0  0  0  0  0
    3.2420    1.1200   -1.6760 C   0  0  0  0  0  0  0  0  0  0  0  0
    4.6010    1.3850   -1.7450 O   0  0  0  0  0  0  0  0  0  0  0  0
    5.5950    0.7760   -1.0200 C   0  0  0  0  0  0  0  0  0  0  0  0
    5.3110   -0.1230   -0.1080 C   0  0  0  0  0  0  0  0  0  0  0  0
   -1.3300   -0.6060    0.6290 C   0  0  0  0  0  0  0  0  0  0  0  0
   -1.2620    0.7690    0.6560 C   0  0  0  0  0  0  0  0  0  0  0  0
   -2.3840    1.5410    0.4310 C   0  0  0  0  0  0  0  0  0  0  0  0
   -3.6340    0.9670    0.1680 C   0  0  0  0  0  0  0  0  0  0  0  0
   -3.7030   -0.4010    0.1410 C   0  0  0  0  0  0  0  0  0  0  0  0
   -2.5820   -1.1710    0.3670 C   0  0  0  0  0  0  0  0  0  0  0  0
   -4.9740   -0.7470   -0.1230 C   0  0  0  0  0  0  0  0  0  0  0  0
   -5.7930    0.4550   -0.2800 C   0  0  0  0  0  0  0  0  0  0  0  0
   -4.8000    1.5430   -0.0620 C   0  0  0  0  0  0  0  0  0  0  0  0
  1  2  2  0
  2  3  1  0
  2 13  1  0
  3  4  2  0
  3  8  1  0
  4  5  1  0
  5  6  2  0
  6  7  1  0
  6 12  1  0
  7  8  2  0
  7  9  1  0
  9 10  1  0
 10 11  1  0
 11 12  2  0
 13 14  1  0
 13 18  2  0
 14 15  2  0
 15 16  1  0
 16 17  1  0
 16 21  2  0
 17 18  1  0
 17 19  2  0
 19 20  1  0
 20 21  1  0
M  END
