
     RDKit          3D

 21 24  0  0  0  0  0  0  0  0999 V2000
   -4.6620   -0.8410   -0.8140 C   0  0  0  0  0  0  0  0  0  0  0  0
   -3.9040   -0.0040    0.1860 C   0  0  2  0  0  0  0  0  0  0  0  0
   -4.2550   -0.3730    1.6110 C   0  0  0  0  0  0  0  0  0  0  0  0
   -4.1330    1.4640   -0.0570 C   0  0  0  0  0  0  0  0  0  0  0  0
   -2.9340    2.0400    0.5960 C   0  0  0  0  0  0  0  0  0  0  0  0
   -2.7780    3.0850    1.2500 O   0  0  0  0  0  0  0  0  0  0  0  0
   -1.8770    1.0730    0.3070 C   0  0  0  0  0  0  0  0  0  0  0  0
   -0.4870    1.1900    0.2490 C   0  0  0  0  0  0  0  0  0  0  0  0
    0.3270    0.1240   -0.0620 C   0  0  0  0  0  0  0  0  0  0  0  0
    1.7720    0.2880   -0.1120 C   0  0  0  0  0  0  0  0  0  0  0  0
    2.3160    1.4970   -0.5050 C   0  0  0  0  0  0  0  0  0  0  0  0
    3.6680    1.6990   -0.5680 C   0  0  0  0  0  0  0  0  0  0  0  0
    4.4970    0.6240   -0.2170 C   0  0  0  0  0  0  0  0  0  0  0  0
    3.9570   -0.5800    0.1730 C   0  0  0  0  0  0  0  0  0  0  0  0
    2.5830   -0.7450    0.2250 C   0  0  0  0  0  0  0  0  0  0  0  0
    5.0810   -1.5380    0.4840 C   0  0  0  0  0  0  0  0  0  0  0  0
    6.2440   -0.8750   -0.2300 C   0  0  0  0  0  0  0  0  0  0  0  0
    5.8740    0.4780   -0.1670 O   0  0  0  0  0  0  0  0  0  0  0  0
   -0.2710   -1.0890   -0.3200 C   0  0  0  0  0  0  0  0  0  0  0  0
   -1.6340   -1.2540   -0.2750 C   0  0  0  0  0  0  0  0  0  0  0  0
   -2.4360   -0.1570    0.0430 C   0  0  0  0  0  0  0  0  0  0  0  0
  2  1  1  6
  2  3  1  0
  2  4  1  0
  2 21  1  0
  4  5  1  0
  5  6  2  0
  5  7  1  0
  7  8  2  0
  7 21  1  0
  8  9  1  0
  9 10  1  0
  9 19  2  0
 10 11  2  0
 10 15  1  0
 11 12  1  0
 12 13  2  0
 13 14  1  0
 13 18  1  0
 14 15  2  0
 14 16  1  0
 16 17  1  0
 17 18  1  0
 19 20  1  0
 20 21  2  0
M  END
