
     RDKit          3D

 21 23  0  0  0  0  0  0  0  0999 V2000
    1.5570   -3.4550    0.0510 C   0  0  0  0  0  0  0  0  0  0  0  0
    0.9970   -2.3150    0.4020 C   0  0  0  0  0  0  0  0  0  0  0  0
   -0.3450   -2.3540    0.7950 O   0  0  0  0  0  0  0  0  0  0  0  0
   -1.2980   -1.3140    0.6450 C   0  0  0  0  0  0  0  0  0  0  0  0
   -2.6970   -1.7620    0.8360 C   0  0  0  0  0  0  0  0  0  0  0  0
   -2.7090   -3.1850    0.6970 O   0  0  0  0  0  0  0  0  0  0  0  0
   -2.4080   -3.5900   -0.5650 C   0  0  0  0  0  0  0  0  0  0  0  0
   -1.1220   -0.0350    0.3630 C   0  0  0  0  0  0  0  0  0  0  0  0
   -2.3290    0.6130    0.3260 C   0  0  0  0  0  0  0  0  0  0  0  0
   -2.4180    1.9460    0.0090 C   0  0  0  0  0  0  0  0  0  0  0  0
   -1.2610    2.6310   -0.2720 C   0  0  0  0  0  0  0  0  0  0  0  0
   -1.3270    3.9770   -0.5940 C   0  0  0  0  0  0  0  0  0  0  0  0
   -0.2040    4.7050   -0.8830 C   0  0  0  0  0  0  0  0  0  0  0  0
    1.0250    4.0920   -0.8540 C   0  0  0  0  0  0  0  0  0  0  0  0
    1.1280    2.7530   -0.5380 C   0  0  0  0  0  0  0  0  0  0  0  0
    0.0060    2.0310   -0.2510 C   0  0  0  0  0  0  0  0  0  0  0  0
    0.0520    0.6770    0.0740 C   0  0  0  0  0  0  0  0  0  0  0  0
    1.2920    0.2410    0.0650 C   0  0  0  0  0  0  0  0  0  0  0  0
    1.8080   -1.1150    0.3540 C   0  0  0  0  0  0  0  0  0  0  0  0
    3.0800   -1.2630    0.5950 C   0  0  0  0  0  0  0  0  0  0  0  0
    4.0450   -0.1270    0.5820 C   0  0  0  0  0  0  0  0  0  0  0  0
  1  2  2  0
  2  3  1  0
  2 19  1  0
  3  4  1  0
  4  5  1  0
  4  8  2  0
  5  6  1  0
  6  7  1  0
  8  9  1  0
  8 17  1  0
  9 10  2  0
 10 11  1  0
 11 12  2  0
 11 16  1  0
 12 13  1  0
 13 14  2  0
 14 15  1  0
 15 16  2  0
 16 17  1  0
 17 18  2  0
 18 19  1  0
 19 20  2  3
 20 21  1  0
M  END
