
     RDKit          3D

 21 24  0  0  0  0  0  0  0  0999 V2000
   -5.5630    0.8720    0.6020 C   0  0  0  0  0  0  0  0  0  0  0  0
   -4.1660    0.6840    0.7680 O   0  0  0  0  0  0  0  0  0  0  0  0
   -3.3060    0.4970   -0.3150 C   0  0  0  0  0  0  0  0  0  0  0  0
   -3.8440    0.5050   -1.4200 O   0  0  0  0  0  0  0  0  0  0  0  0
   -1.9020    0.3130   -0.0690 C   0  0  0  0  0  0  0  0  0  0  0  0
   -1.4500    0.3300    1.2640 C   0  0  0  0  0  0  0  0  0  0  0  0
   -0.1350    0.1650    1.6080 C   0  0  0  0  0  0  0  0  0  0  0  0
    0.2940    0.1890    3.0170 C   0  0  0  0  0  0  0  0  0  0  0  0
    0.7570   -0.0230    0.5780 C   0  0  0  0  0  0  0  0  0  0  0  0
    0.3220   -0.0400   -0.7250 C   0  0  0  0  0  0  0  0  0  0  0  0
    1.3680   -0.2410   -1.5950 C   0  0  0  0  0  0  0  0  0  0  0  0
    1.0290   -0.2740   -2.9440 C   0  0  0  0  0  0  0  0  0  0  0  0
   -0.2850   -0.1120   -3.3240 C   0  0  0  0  0  0  0  0  0  0  0  0
   -1.3220    0.0890   -2.4220 C   0  0  0  0  0  0  0  0  0  0  0  0
   -0.9900    0.1230   -1.0930 C   0  0  0  0  0  0  0  0  0  0  0  0
    2.6000   -0.3680   -0.8170 C   0  0  0  0  0  0  0  0  0  0  0  0
    3.9030   -0.5750   -1.1950 C   0  0  0  0  0  0  0  0  0  0  0  0
    4.8400   -0.6460   -0.1880 C   0  0  0  0  0  0  0  0  0  0  0  0
    4.4660   -0.5130    1.1330 C   0  0  0  0  0  0  0  0  0  0  0  0
    3.1440   -0.3050    1.4970 C   0  0  0  0  0  0  0  0  0  0  0  0
    2.2090   -0.2320    0.5100 C   0  0  0  0  0  0  0  0  0  0  0  0
  1  2  1  0
  2  3  1  0
  3  4  2  0
  3  5  1  0
  5  6  2  0
  5 15  1  0
  6  7  1  0
  7  8  1  0
  7  9  2  0
  9 10  1  0
  9 21  1  0
 10 11  2  0
 10 15  1  0
 11 12  1  0
 11 16  1  0
 12 13  2  0
 13 14  1  0
 14 15  2  0
 16 17  2  0
 16 21  1  0
 17 18  1  0
 18 19  2  0
 19 20  1  0
 20 21  2  0
M  END
