
     RDKit          3D

 21 24  0  0  0  0  0  0  0  0999 V2000
    1.8550    1.9230    3.1950 C   0  0  0  0  0  0  0  0  0  0  0  0
    1.0760    1.2000    2.2940 O   0  0  0  0  0  0  0  0  0  0  0  0
    1.6300    0.5100    1.1970 C   0  0  0  0  0  0  0  0  0  0  0  0
    2.9900    0.5220    0.9630 C   0  0  0  0  0  0  0  0  0  0  0  0
    3.5430   -0.1500   -0.1090 C   0  0  0  0  0  0  0  0  0  0  0  0
    2.7500   -0.8580   -0.9840 C   0  0  0  0  0  0  0  0  0  0  0  0
    1.3790   -0.8670   -0.7460 C   0  0  0  0  0  0  0  0  0  0  0  0
    0.8290   -0.1960    0.3240 C   0  0  0  0  0  0  0  0  0  0  0  0
   -0.5850   -0.2270    0.5690 C   0  0  0  0  0  0  0  0  0  0  0  0
   -1.5170   -0.0800   -0.3550 C   0  0  0  0  0  0  0  0  0  0  0  0
   -1.4410    0.1420   -1.7860 C   0  0  0  0  0  0  0  0  0  0  0  0
   -2.6680    0.2150   -2.3050 C   0  0  0  0  0  0  0  0  0  0  0  0
   -3.6760    0.0440   -1.2410 C   0  0  0  0  0  0  0  0  0  0  0  0
   -5.0520    0.0420   -1.2800 C   0  0  0  0  0  0  0  0  0  0  0  0
   -5.7620   -0.1430   -0.1180 C   0  0  0  0  0  0  0  0  0  0  0  0
   -5.0590   -0.3210    1.0540 C   0  0  0  0  0  0  0  0  0  0  0  0
   -3.6830   -0.3180    1.0870 C   0  0  0  0  0  0  0  0  0  0  0  0
   -2.9640   -0.1330   -0.0730 C   0  0  0  0  0  0  0  0  0  0  0  0
    3.6290   -1.4490   -1.9990 C   0  0  0  0  0  0  0  0  0  0  0  0
    4.8580   -0.8730   -1.8330 O   0  0  0  0  0  0  0  0  0  0  0  0
    4.9330   -0.3030   -0.5860 C   0  0  0  0  0  0  0  0  0  0  0  0
  1  2  1  0
  2  3  1  0
  3  4  2  0
  3  8  1  0
  4  5  1  0
  5  6  2  0
  5 21  1  0
  6  7  1  0
  6 19  1  0
  7  8  2  0
  8  9  1  0
  9 10  2  3
 10 11  1  0
 10 18  1  0
 11 12  2  0
 12 13  1  0
 13 14  2  0
 13 18  1  0
 14 15  1  0
 15 16  2  0
 16 17  1  0
 17 18  2  0
 19 20  1  0
 20 21  1  0
M  END
