
     RDKit          3D

 21 24  0  0  0  0  0  0  0  0999 V2000
   -0.1940   -2.7560   -2.8190 O   0  0  0  0  0  0  0  0  0  0  0  0
   -0.0480   -1.8930   -1.9420 C   0  0  0  0  0  0  0  0  0  0  0  0
    1.1910   -1.4130   -1.5400 C   0  0  0  0  0  0  0  0  0  0  0  0
    1.3200   -0.4540   -0.5640 C   0  0  0  0  0  0  0  0  0  0  0  0
    2.6190    0.0770   -0.1140 C   0  0  0  0  0  0  0  0  0  0  0  0
    2.6470    1.0520    0.8860 C   0  0  0  0  0  0  0  0  0  0  0  0
    3.7980    1.5970    1.3610 C   0  0  0  0  0  0  0  0  0  0  0  0
    5.0030    1.1920    0.8560 C   0  0  0  0  0  0  0  0  0  0  0  0
    5.0050    0.2350   -0.1280 C   0  0  0  0  0  0  0  0  0  0  0  0
    3.8140   -0.3220   -0.6130 C   0  0  0  0  0  0  0  0  0  0  0  0
    0.2170   -0.0070   -0.0240 O   0  0  0  0  0  0  0  0  0  0  0  0
   -0.9950   -0.4230   -0.3610 C   0  0  0  0  0  0  0  0  0  0  0  0
   -1.1820   -1.3810   -1.3320 C   0  0  0  0  0  0  0  0  0  0  0  0
   -2.4540   -1.7950   -1.6640 C   0  0  0  0  0  0  0  0  0  0  0  0
   -3.5530   -1.2680   -1.0410 C   0  0  0  0  0  0  0  0  0  0  0  0
   -3.3880   -0.3050   -0.0640 C   0  0  0  0  0  0  0  0  0  0  0  0
   -4.4740    0.2550    0.5920 C   0  0  0  0  0  0  0  0  0  0  0  0
   -4.2540    1.2090    1.5570 C   0  0  0  0  0  0  0  0  0  0  0  0
   -2.9880    1.6290    1.8950 C   0  0  0  0  0  0  0  0  0  0  0  0
   -1.9150    1.0710    1.2420 C   0  0  0  0  0  0  0  0  0  0  0  0
   -2.1240    0.1100    0.2700 C   0  0  0  0  0  0  0  0  0  0  0  0
  1  2  2  0
  2  3  1  0
  2 13  1  0
  3  4  2  0
  4  5  1  0
  4 11  1  0
  5  6  2  0
  5 10  1  0
  6  7  1  0
  7  8  2  0
  8  9  1  0
  9 10  2  0
 11 12  1  0
 12 13  2  0
 12 21  1  0
 13 14  1  0
 14 15  2  0
 15 16  1  0
 16 17  2  0
 16 21  1  0
 17 18  1  0
 18 19  2  0
 19 20  1  0
 20 21  2  0
M  END
