
     RDKit          3D

 26 27  0  0  0  0  0  0  0  0999 V2000
    3.8900   -2.7550   -2.9230 C   0  0  0  0  0  0  0  0  0  0  0  0
    3.2380   -1.9510   -1.9900 O   0  0  0  0  0  0  0  0  0  0  0  0
    3.7220   -1.6790   -0.7210 C   0  0  0  0  0  0  0  0  0  0  0  0
    4.9250   -2.2350   -0.3470 C   0  0  0  0  0  0  0  0  0  0  0  0
    5.4620   -2.0060    0.9010 C   0  0  0  0  0  0  0  0  0  0  0  0
    6.6730   -2.5490    1.3170 O   0  0  0  0  0  0  0  0  0  0  0  0
    4.7830   -1.2010    1.7980 C   0  0  0  0  0  0  0  0  0  0  0  0
    3.5660   -0.6350    1.4250 C   0  0  0  0  0  0  0  0  0  0  0  0
    3.0470   -0.8790    0.1720 C   0  0  0  0  0  0  0  0  0  0  0  0
    1.8200   -0.3050   -0.1940 N   0  0  0  0  0  0  0  0  0  0  0  0
    1.1070    0.5330    0.7300 C   0  0  0  0  0  0  0  0  0  0  0  0
   -0.2010    1.0550    0.1640 C   0  0  1  0  0  0  0  0  0  0  0  0
   -1.0140   -0.0810   -0.1510 N   0  0  0  0  0  0  0  0  0  0  0  0
   -2.3720    0.2110   -0.4220 C   0  0  0  0  0  0  0  0  0  0  0  0
   -3.1840   -1.0180   -0.8390 C   0  0  0  0  0  0  0  0  0  0  0  0
   -2.6140   -2.1750   -0.9100 C   0  0  0  0  0  0  0  0  0  0  0  0
   -3.1780   -3.4800   -1.2810 C   0  0  0  0  0  0  0  0  0  0  0  0
   -4.4840   -3.5630   -1.6110 O   0  0  0  0  0  0  0  0  0  0  0  0
   -4.5980   -0.7490   -1.1350 C   0  0  0  0  0  0  0  0  0  0  0  0
   -4.7360    0.1780   -2.1900 O   0  0  0  0  0  0  0  0  0  0  0  0
   -0.8280    2.0910    1.0250 C   0  0  1  0  0  0  0  0  0  0  0  0
    0.1750    3.1920    1.3240 C   0  0  0  0  0  0  0  0  0  0  0  0
   -0.5370    4.5410    1.4550 C   0  0  0  0  0  0  0  0  0  0  0  0
   -1.8300    4.2600    2.1990 C   0  0  0  0  0  0  0  0  0  0  0  0
   -2.6930    3.4240    1.2980 C   0  0  0  0  0  0  0  0  0  0  0  0
   -1.9510    2.6280    0.4350 O   0  0  0  0  0  0  0  0  0  0  0  0
  1  2  1  0
  2  3  1  0
  3  4  2  0
  3  9  1  0
  4  5  1  0
  5  6  1  0
  5  7  2  0
  7  8  1  0
  8  9  2  0
  9 10  1  0
 10 11  1  0
 12 11  1  1
 12 13  1  0
 12 21  1  0
 13 14  1  0
 14 15  1  0
 15 16  2  3
 15 19  1  0
 16 17  1  0
 17 18  1  0
 19 20  1  0
 21 22  1  6
 21 26  1  0
 22 23  1  0
 23 24  1  0
 24 25  1  0
 25 26  1  0
M  CHG  1  13   1
M  END
