
     RDKit          3D

 26 27  0  0  0  0  0  0  0  0999 V2000
   -1.2540    5.5820    0.4820 C   0  0  0  0  0  0  0  0  0  0  0  0
   -0.3830    5.3900   -0.7240 C   0  0  0  0  0  0  0  0  0  0  0  0
    0.5340    4.3480   -0.6210 O   0  0  0  0  0  0  0  0  0  0  0  0
    0.2390    3.0090   -0.4330 C   0  0  0  0  0  0  0  0  0  0  0  0
    1.3410    2.1470   -0.3560 C   0  0  0  0  0  0  0  0  0  0  0  0
    1.1250    0.8150   -0.1730 C   0  0  0  0  0  0  0  0  0  0  0  0
    2.1850   -0.1270   -0.1030 N   0  0  0  0  0  0  0  0  0  0  0  0
    3.5280    0.0660   -0.4280 C   0  0  0  0  0  0  0  0  0  0  0  0
    3.9130    1.1790   -0.8410 O   0  0  0  0  0  0  0  0  0  0  0  0
    4.5650   -0.9980   -0.3100 C   0  0  1  0  0  0  0  0  0  0  0  0
    4.6520   -1.3640    1.1690 C   0  0  0  0  0  0  0  0  0  0  0  0
    4.2810   -2.1880   -1.1700 C   0  0  0  0  0  0  0  0  0  0  0  0
    5.6900   -2.7380   -1.4150 C   0  0  0  0  0  0  0  0  0  0  0  0
    6.5890   -1.6430   -0.9220 C   0  0  0  0  0  0  0  0  0  0  0  0
    5.7910   -0.5260   -0.6960 O   0  0  0  0  0  0  0  0  0  0  0  0
   -0.1980    0.3580   -0.0670 C   0  0  0  0  0  0  0  0  0  0  0  0
   -1.2960    1.1650   -0.1370 C   0  0  0  0  0  0  0  0  0  0  0  0
   -2.5970    0.8060   -0.0450 O   0  0  0  0  0  0  0  0  0  0  0  0
   -3.0930   -0.5400    0.1510 C   0  0  1  0  0  0  0  0  0  0  0  0
   -3.8840   -0.4130    1.4130 C   0  0  0  0  0  0  0  0  0  0  0  0
   -4.5570   -1.5990    1.9660 C   0  0  0  0  0  0  0  0  0  0  0  0
   -3.6920   -2.7240    2.2510 N   0  0  0  0  0  0  0  0  0  0  0  0
   -3.8610   -0.8230   -1.1030 C   0  0  0  0  0  0  0  0  0  0  0  0
   -4.4720   -2.1600   -1.2550 C   0  0  0  0  0  0  0  0  0  0  0  0
   -5.1360   -2.2280   -2.5190 O   0  0  0  0  0  0  0  0  0  0  0  0
   -1.0350    2.5220   -0.3250 C   0  0  0  0  0  0  0  0  0  0  0  0
  1  2  1  0
  2  3  1  0
  3  4  1  0
  4  5  2  0
  4 26  1  0
  5  6  1  0
  6  7  1  0
  6 16  2  0
  7  8  1  0
  8  9  2  0
  8 10  1  0
 10 11  1  1
 10 12  1  0
 10 15  1  0
 12 13  1  0
 13 14  1  0
 14 15  1  0
 16 17  1  0
 17 18  1  0
 17 26  2  0
 18 19  1  0
 19 20  1  1
 19 23  1  0
 20 21  1  0
 21 22  1  0
 23 24  1  0
 24 25  1  0
M  CHG  1  22   1
M  END
