
     RDKit          3D

 26 27  0  0  0  0  0  0  0  0999 V2000
   -2.0650   -3.3050   -0.3270 C   0  0  0  0  0  0  0  0  0  0  0  0
   -0.8490   -2.3650   -0.3610 C   0  0  0  0  0  0  0  0  0  0  0  0
   -1.1070   -1.3170    0.6810 C   0  0  1  0  0  0  0  0  0  0  0  0
   -0.0580   -0.3470    0.8130 N   0  0  0  0  0  0  0  0  0  0  0  0
    0.6260    0.0540   -0.3610 C   0  0  0  0  0  0  0  0  0  0  0  0
    2.0640    0.3690   -0.0410 C   0  0  0  0  0  0  0  0  0  0  0  0
    2.4660    0.3130    1.1450 O   0  0  0  0  0  0  0  0  0  0  0  0
    2.9740    0.7220   -1.0040 O   0  0  0  0  0  0  0  0  0  0  0  0
    4.3190    1.0330   -0.8270 C   0  0  0  0  0  0  0  0  0  0  0  0
    5.1450   -0.0680   -0.2130 C   0  0  0  0  0  0  0  0  0  0  0  0
    6.5400    0.4720   -0.1220 C   0  0  0  0  0  0  0  0  0  0  0  0
    7.5610    0.3830   -1.0310 C   0  0  0  0  0  0  0  0  0  0  0  0
    8.6430    1.0450   -0.4820 C   0  0  0  0  0  0  0  0  0  0  0  0
    8.2820    1.5020    0.6880 O   0  0  0  0  0  0  0  0  0  0  0  0
    7.0340    1.1890    0.9570 C   0  0  0  0  0  0  0  0  0  0  0  0
   -2.3820   -0.5870    0.4230 C   0  0  0  0  0  0  0  0  0  0  0  0
   -3.0380   -0.6300   -0.7900 C   0  0  0  0  0  0  0  0  0  0  0  0
   -4.2100    0.0710   -1.0230 C   0  0  0  0  0  0  0  0  0  0  0  0
   -4.9030    0.0230   -2.3310 C   0  0  0  0  0  0  0  0  0  0  0  0
   -4.7630    0.8470   -0.0250 C   0  0  0  0  0  0  0  0  0  0  0  0
   -5.9830    1.6060   -0.1930 C   0  0  0  0  0  0  0  0  0  0  0  0
   -6.5150    2.3740    0.8790 N   0  0  0  0  0  0  0  0  0  0  0  0
   -6.5990    1.6040   -1.2790 O   0  0  0  0  0  0  0  0  0  0  0  0
   -4.1240    0.9030    1.1900 C   0  0  0  0  0  0  0  0  0  0  0  0
   -2.9740    0.2050    1.3940 C   0  0  0  0  0  0  0  0  0  0  0  0
   -2.3370    0.2650    2.6210 O   0  0  0  0  0  0  0  0  0  0  0  0
  1  2  1  0
  3  2  1  6
  3  4  1  0
  3 16  1  0
  4  5  1  0
  5  6  1  0
  6  7  2  0
  6  8  1  0
  8  9  1  0
  9 10  1  0
 10 11  1  0
 11 12  1  0
 11 15  2  0
 12 13  2  0
 13 14  1  0
 14 15  1  0
 16 17  2  0
 16 25  1  0
 17 18  1  0
 18 19  1  0
 18 20  2  0
 20 21  1  0
 20 24  1  0
 21 22  1  0
 21 23  2  0
 24 25  2  0
 25 26  1  0
M  CHG  1   4   1
M  END
