
     RDKit          3D

 26 26  0  0  0  0  0  0  0  0999 V2000
    5.5030   -3.9400    0.6410 C   0  0  0  0  0  0  0  0  0  0  0  0
    4.6760   -2.6870    0.5230 C   0  0  0  0  0  0  0  0  0  0  0  0
    3.6420   -2.7820   -0.5840 C   0  0  2  0  0  0  0  0  0  0  0  0
    4.3030   -3.0110   -1.9280 C   0  0  0  0  0  0  0  0  0  0  0  0
    3.0140   -1.5020   -0.6490 O   0  0  0  0  0  0  0  0  0  0  0  0
    1.6910   -1.3030   -0.4540 C   0  0  0  0  0  0  0  0  0  0  0  0
    0.9000   -2.1970   -0.2020 O   0  0  0  0  0  0  0  0  0  0  0  0
    1.1590    0.1330   -0.5550 C   0  0  0  0  0  0  0  0  0  0  0  0
    2.0700    0.9760   -0.8170 C   0  0  0  0  0  0  0  0  0  0  0  0
    2.2520    2.3920   -1.0120 C   0  0  0  0  0  0  0  0  0  0  0  0
    3.4790    2.8610   -1.3810 C   0  0  0  0  0  0  0  0  0  0  0  0
    3.7940    4.2690   -1.6110 C   0  0  0  0  0  0  0  0  0  0  0  0
    2.8020    5.1770   -1.1980 O   0  0  0  0  0  0  0  0  0  0  0  0
    1.5470    4.7560   -0.8130 C   0  0  0  0  0  0  0  0  0  0  0  0
    0.5740    5.7060   -0.5230 O   0  0  0  0  0  0  0  0  0  0  0  0
    1.3100    3.4550   -0.7310 C   0  0  0  0  0  0  0  0  0  0  0  0
   -0.2650    0.1340   -0.5580 C   0  0  0  0  0  0  0  0  0  0  0  0
   -0.8520   -0.9350   -0.0630 O   0  0  0  0  0  0  0  0  0  0  0  0
   -1.1800    1.0890   -1.0170 N   0  0  0  0  0  0  0  0  0  0  0  0
   -2.6270    0.9210   -0.9070 C   0  0  0  0  0  0  0  0  0  0  0  0
   -3.1110    0.8080    0.5130 C   0  0  0  0  0  0  0  0  0  0  0  0
   -4.5510    0.6480    0.5030 N   0  0  0  0  0  0  0  0  0  0  0  0
   -4.9860   -0.5880    1.1020 C   0  0  1  0  0  0  0  0  0  0  0  0
   -5.0800   -0.4680    2.6090 C   0  0  0  0  0  0  0  0  0  0  0  0
   -6.4040   -0.8540    0.5960 C   0  0  0  0  0  0  0  0  0  0  0  0
   -4.1470   -1.7680    0.7520 C   0  0  0  0  0  0  0  0  0  0  0  0
  1  2  1  0
  2  3  1  0
  3  4  1  6
  3  5  1  0
  5  6  1  0
  6  7  2  0
  6  8  1  0
  8  9  2  3
  8 17  1  0
  9 10  1  0
 10 11  2  0
 10 16  1  0
 11 12  1  0
 12 13  1  0
 13 14  1  0
 14 15  1  0
 14 16  2  0
 17 18  2  0
 17 19  1  0
 19 20  1  0
 20 21  1  0
 21 22  1  0
 22 23  1  0
 23 24  1  1
 23 25  1  0
 23 26  1  0
M  CHG  1  22   1
M  END
