
     RDKit          3D

 19 20  0  0  0  0  0  0  0  0999 V2000
   -3.6680    1.7690   -0.4630 C   0  0  0  0  0  0  0  0  0  0  0  0
   -3.9990    0.5060   -0.3140 C   0  0  0  0  0  0  0  0  0  0  0  0
   -5.4140    0.0510   -0.3710 C   0  0  0  0  0  0  0  0  0  0  0  0
   -5.6610   -0.7900    0.7050 O   0  0  0  0  0  0  0  0  0  0  0  0
   -4.8280   -1.8640    0.7810 C   0  0  0  0  0  0  0  0  0  0  0  0
   -3.4300   -1.6550    0.4430 C   0  0  0  0  0  0  0  0  0  0  0  0
   -3.0040   -0.5290   -0.0830 C   0  0  0  0  0  0  0  0  0  0  0  0
   -1.6670   -0.3070   -0.4140 O   0  0  0  0  0  0  0  0  0  0  0  0
   -0.7710   -0.1120    0.6450 C   0  0  0  0  0  0  0  0  0  0  0  0
    0.6180    0.1140    0.1760 C   0  0  0  0  0  0  0  0  0  0  0  0
    0.8160    0.1050   -1.0640 O   0  0  0  0  0  0  0  0  0  0  0  0
    1.6920    0.3320    1.0050 O   0  0  0  0  0  0  0  0  0  0  0  0
    2.9880    0.5430    0.5620 C   0  0  0  0  0  0  0  0  0  0  0  0
    3.4620    1.8140    0.2900 C   0  0  0  0  0  0  0  0  0  0  0  0
    4.7540    2.0340   -0.1520 C   0  0  0  0  0  0  0  0  0  0  0  0
    5.6330    0.9920   -0.3430 C   0  0  0  0  0  0  0  0  0  0  0  0
    5.1680   -0.2860   -0.0730 C   0  0  0  0  0  0  0  0  0  0  0  0
    6.0610   -1.3890   -0.2630 N   0  0  0  0  0  0  0  0  0  0  0  0
    3.8730   -0.4930    0.3690 C   0  0  0  0  0  0  0  0  0  0  0  0
  1  2  2  0
  2  3  1  0
  2  7  1  0
  3  4  1  0
  4  5  1  0
  5  6  1  0
  6  7  2  0
  7  8  1  0
  8  9  1  0
  9 10  1  0
 10 11  2  0
 10 12  1  0
 12 13  1  0
 13 14  2  0
 13 19  1  0
 14 15  1  0
 15 16  2  0
 16 17  1  0
 17 18  1  0
 17 19  2  0
M  END
