
     RDKit          3D

 19 20  0  0  0  0  0  0  0  0999 V2000
    6.3770    0.1800   -0.2470 C   0  0  0  0  0  0  0  0  0  0  0  0
    5.1310   -0.5420   -0.6040 C   0  0  0  0  0  0  0  0  0  0  0  0
    5.2300   -1.6040   -1.2570 O   0  0  0  0  0  0  0  0  0  0  0  0
    3.8340   -0.0160   -0.1990 C   0  0  0  0  0  0  0  0  0  0  0  0
    2.7050   -0.6170   -0.4890 C   0  0  0  0  0  0  0  0  0  0  0  0
    1.4510   -0.0430   -0.0580 C   0  0  0  0  0  0  0  0  0  0  0  0
    1.1990    1.1040    0.6570 C   0  0  0  0  0  0  0  0  0  0  0  0
   -0.1270    1.2370    0.8250 N   0  0  0  0  0  0  0  0  0  0  0  0
   -0.7880    0.2080    0.2430 C   0  0  0  0  0  0  0  0  0  0  0  0
   -2.2310    0.0570    0.2460 C   0  0  0  0  0  0  0  0  0  0  0  0
   -2.8330   -1.0150   -0.3660 C   0  0  0  0  0  0  0  0  0  0  0  0
   -4.2150   -1.1400   -0.3510 C   0  0  0  0  0  0  0  0  0  0  0  0
   -4.8310   -2.2410   -0.9800 O   0  0  0  0  0  0  0  0  0  0  0  0
   -4.9660   -0.1800    0.2820 C   0  0  0  0  0  0  0  0  0  0  0  0
   -4.4170    0.9140    0.9110 C   0  0  0  0  0  0  0  0  0  0  0  0
   -5.1890    1.8780    1.5490 O   0  0  0  0  0  0  0  0  0  0  0  0
   -3.0430    1.0120    0.8800 C   0  0  0  0  0  0  0  0  0  0  0  0
    0.1750   -0.5840   -0.3030 C   0  0  0  0  0  0  0  0  0  0  0  0
   -0.0180   -1.7520   -1.0000 O   0  0  0  0  0  0  0  0  0  0  0  0
  1  2  1  0
  2  3  2  0
  2  4  1  0
  4  5  2  3
  5  6  1  0
  6  7  2  0
  6 18  1  0
  7  8  1  0
  8  9  1  0
  9 10  1  0
  9 18  2  0
 10 11  2  0
 10 17  1  0
 11 12  1  0
 12 13  1  0
 12 14  2  0
 14 15  1  0
 15 16  1  0
 15 17  2  0
 18 19  1  0
M  END
