
     RDKit          3D

 19 20  0  0  0  0  0  0  0  0999 V2000
   -6.0460   -1.1410    0.9860 C   0  0  0  0  0  0  0  0  0  0  0  0
   -4.6610   -1.3420    1.1770 O   0  0  0  0  0  0  0  0  0  0  0  0
   -3.7310   -0.5290    0.5430 C   0  0  0  0  0  0  0  0  0  0  0  0
   -4.0860    0.5100   -0.2980 C   0  0  0  0  0  0  0  0  0  0  0  0
   -3.1570    1.3220   -0.9310 C   0  0  0  0  0  0  0  0  0  0  0  0
   -3.5380    2.3600   -1.7710 O   0  0  0  0  0  0  0  0  0  0  0  0
   -1.8130    1.0530   -0.6870 C   0  0  0  0  0  0  0  0  0  0  0  0
   -1.4140    0.0330    0.1400 C   0  0  0  0  0  0  0  0  0  0  0  0
   -0.0010   -0.2320    0.3820 C   0  0  0  0  0  0  0  0  0  0  0  0
    0.8650    0.6450   -0.3060 O   0  0  0  0  0  0  0  0  0  0  0  0
    2.2330    0.4630   -0.1320 C   0  0  0  0  0  0  0  0  0  0  0  0
    3.1590    1.2830   -0.7730 C   0  0  0  0  0  0  0  0  0  0  0  0
    4.5190    1.1260   -0.6190 C   0  0  0  0  0  0  0  0  0  0  0  0
    5.0000    0.1080    0.2100 C   0  0  0  0  0  0  0  0  0  0  0  0
    6.3940   -0.0940    0.4010 N   0  0  0  0  0  0  0  0  0  0  0  0
    4.1060   -0.7200    0.8580 C   0  0  0  0  0  0  0  0  0  0  0  0
    4.6160   -1.7220    1.6750 O   0  0  0  0  0  0  0  0  0  0  0  0
    2.7540   -0.5280    0.6760 C   0  0  0  0  0  0  0  0  0  0  0  0
   -2.3660   -0.7520    0.7510 C   0  0  0  0  0  0  0  0  0  0  0  0
  1  2  1  0
  2  3  1  0
  3  4  2  0
  3 19  1  0
  4  5  1  0
  5  6  1  0
  5  7  2  0
  7  8  1  0
  8  9  1  0
  8 19  2  0
  9 10  1  0
 10 11  1  0
 11 12  2  0
 11 18  1  0
 12 13  1  0
 13 14  2  0
 14 15  1  0
 14 16  1  0
 16 17  1  0
 16 18  2  0
M  END
