
     RDKit          3D

 19 20  0  0  0  0  0  0  0  0999 V2000
   -5.1500   -1.0680    0.9200 C   0  0  0  0  0  0  0  0  0  0  0  0
   -4.9530    0.1760    0.6490 C   0  0  0  0  0  0  0  0  0  0  0  0
   -6.1180    1.0210    0.6430 O   0  0  0  0  0  0  0  0  0  0  0  0
   -3.7130    0.8420    0.3470 C   0  0  0  0  0  0  0  0  0  0  0  0
   -3.7150    2.1480    0.0910 C   0  0  0  0  0  0  0  0  0  0  0  0
   -2.4330    0.1550    0.3050 C   0  0  0  0  0  0  0  0  0  0  0  0
   -2.4790   -1.0880    0.5560 O   0  0  0  0  0  0  0  0  0  0  0  0
   -1.2250    0.8050    0.0110 N   0  0  0  0  0  0  0  0  0  0  0  0
    0.0260    0.1460   -0.0230 C   0  0  0  0  0  0  0  0  0  0  0  0
    0.2600   -1.0660    0.5680 C   0  0  0  0  0  0  0  0  0  0  0  0
    1.5220   -1.6710    0.4750 C   0  0  0  0  0  0  0  0  0  0  0  0
    2.5470   -1.0610   -0.2100 C   0  0  0  0  0  0  0  0  0  0  0  0
    3.7880   -1.4480   -0.4160 O   0  0  0  0  0  0  0  0  0  0  0  0
    4.3890   -0.5270   -1.1280 C   0  0  0  0  0  0  0  0  0  0  0  0
    5.8050   -0.6120   -1.5610 C   0  0  0  0  0  0  0  0  0  0  0  0
    6.6470   -0.0540   -0.6040 O   0  0  0  0  0  0  0  0  0  0  0  0
    3.5160    0.5110   -1.4060 C   0  0  0  0  0  0  0  0  0  0  0  0
    2.3180    0.1590   -0.8060 C   0  0  0  0  0  0  0  0  0  0  0  0
    1.0940    0.7510   -0.7180 C   0  0  0  0  0  0  0  0  0  0  0  0
  1  2  2  0
  2  3  1  0
  2  4  1  0
  4  5  2  0
  4  6  1  0
  6  7  2  0
  6  8  1  0
  8  9  1  0
  9 10  2  0
  9 19  1  0
 10 11  1  0
 11 12  2  0
 12 13  1  0
 12 18  1  0
 13 14  1  0
 14 15  1  0
 14 17  2  0
 15 16  1  0
 17 18  1  0
 18 19  2  0
M  END
