
     RDKit          3D

 19 20  0  0  0  0  0  0  0  0999 V2000
    5.6570   -0.5970   -0.2220 C   0  0  0  0  0  0  0  0  0  0  0  0
    4.6660    0.1590   -0.8720 O   0  0  0  0  0  0  0  0  0  0  0  0
    3.3850    0.2350   -0.3450 C   0  0  0  0  0  0  0  0  0  0  0  0
    3.0750   -0.4300    0.8220 C   0  0  0  0  0  0  0  0  0  0  0  0
    1.8050   -0.3350    1.3170 C   0  0  0  0  0  0  0  0  0  0  0  0
    0.7950    0.4120    0.6900 C   0  0  0  0  0  0  0  0  0  0  0  0
   -0.4380    0.4460    1.2560 O   0  0  0  0  0  0  0  0  0  0  0  0
   -1.6430    0.0420    0.7350 C   0  0  0  0  0  0  0  0  0  0  0  0
   -2.0160   -1.3030    0.8170 C   0  0  0  0  0  0  0  0  0  0  0  0
   -3.2020   -1.7740    0.3200 C   0  0  0  0  0  0  0  0  0  0  0  0
   -3.5770   -3.1120    0.4000 O   0  0  0  0  0  0  0  0  0  0  0  0
   -4.0530   -0.8670   -0.2850 C   0  0  0  0  0  0  0  0  0  0  0  0
   -3.7380    0.4710   -0.3940 C   0  0  0  0  0  0  0  0  0  0  0  0
   -4.6490    1.4110   -1.0360 C   0  0  0  0  0  0  0  0  0  0  0  0
   -4.3150    2.6280   -1.1120 O   0  0  0  0  0  0  0  0  0  0  0  0
   -2.5250    0.9010    0.1250 C   0  0  0  0  0  0  0  0  0  0  0  0
    1.1130    1.0580   -0.4530 C   0  0  0  0  0  0  0  0  0  0  0  0
    0.1600    1.8370   -1.1580 N   0  0  0  0  0  0  0  0  0  0  0  0
    2.4070    0.9750   -0.9760 C   0  0  0  0  0  0  0  0  0  0  0  0
  1  2  1  0
  2  3  1  0
  3  4  2  0
  3 19  1  0
  4  5  1  0
  5  6  2  0
  6  7  1  0
  6 17  1  0
  7  8  1  0
  8  9  2  0
  8 16  1  0
  9 10  1  0
 10 11  1  0
 10 12  2  0
 12 13  1  0
 13 14  1  0
 13 16  2  0
 14 15  2  0
 17 18  1  0
 17 19  2  0
M  END
