
     RDKit          3D

 19 20  0  0  0  0  0  0  0  0999 V2000
   -2.0480    4.6300    0.5600 C   0  0  0  0  0  0  0  0  0  0  0  0
   -2.1360    3.2340    0.3520 O   0  0  0  0  0  0  0  0  0  0  0  0
   -0.9850    2.4630    0.3180 C   0  0  0  0  0  0  0  0  0  0  0  0
    0.1400    2.9890    0.4700 O   0  0  0  0  0  0  0  0  0  0  0  0
   -1.0860    1.0320    0.1040 C   0  0  0  0  0  0  0  0  0  0  0  0
   -2.3090    0.4230   -0.0670 C   0  0  0  0  0  0  0  0  0  0  0  0
   -2.4540   -0.9200   -0.2720 C   0  0  0  0  0  0  0  0  0  0  0  0
   -3.7980   -1.5270   -0.4500 C   0  0  0  0  0  0  0  0  0  0  0  0
   -1.2870   -1.6890   -0.3040 C   0  0  0  0  0  0  0  0  0  0  0  0
   -1.4710   -3.0740   -0.5170 N   0  0  0  0  0  0  0  0  0  0  0  0
   -0.0470   -1.1150   -0.1380 C   0  0  0  0  0  0  0  0  0  0  0  0
    0.0510    0.2410    0.0660 C   0  0  0  0  0  0  0  0  0  0  0  0
    1.3230    0.8000    0.2330 O   0  0  0  0  0  0  0  0  0  0  0  0
    2.4460   -0.0100    0.1910 C   0  0  0  0  0  0  0  0  0  0  0  0
    2.8510   -0.5620   -0.9420 C   0  0  0  0  0  0  0  0  0  0  0  0
    4.0300   -1.4310   -1.0700 C   0  0  0  0  0  0  0  0  0  0  0  0
    4.6980   -1.6250    0.1480 O   0  0  0  0  0  0  0  0  0  0  0  0
    4.2670   -1.0410    1.3330 C   0  0  0  0  0  0  0  0  0  0  0  0
    3.2130   -0.2740    1.4010 C   0  0  0  0  0  0  0  0  0  0  0  0
  1  2  1  0
  2  3  1  0
  3  4  2  0
  3  5  1  0
  5  6  2  0
  5 12  1  0
  6  7  1  0
  7  8  1  0
  7  9  2  0
  9 10  1  0
  9 11  1  0
 11 12  2  0
 12 13  1  0
 13 14  1  0
 14 15  2  0
 14 19  1  0
 15 16  1  0
 16 17  1  0
 17 18  1  0
 18 19  2  0
M  END
