
     RDKit          3D

 30 30  0  0  0  0  0  0  0  0999 V2000
   -2.2220    3.7720    1.8160 C   0  0  0  0  0  0  0  0  0  0  0  0
   -1.9520    2.9090    0.8620 C   0  0  0  0  0  0  0  0  0  0  0  0
   -2.9860    1.8990    0.4800 C   0  0  0  0  0  0  0  0  0  0  0  0
   -2.6080    1.1600   -0.6150 O   0  0  0  0  0  0  0  0  0  0  0  0
   -3.4170   -0.3610   -0.5720 S   0  0  1  0  0  0  0  0  0  0  0  0
   -3.6030   -0.9420    1.0960 C   0  0  0  0  0  0  0  0  0  0  0  0
   -5.0170    0.0100   -1.1170 F   0  0  0  0  0  0  0  0  0  0  0  0
   -2.7800   -1.4580   -1.6710 O   0  0  0  0  0  0  0  0  0  0  0  0
   -2.2370   -2.6770   -1.6200 C   0  0  0  0  0  0  0  0  0  0  0  0
   -3.0680   -3.9460   -2.3080 S   0  0  0  0  0  0  0  0  0  0  0  0
   -0.9420   -3.0240   -1.0020 C   0  0  2  0  0  0  0  0  0  0  0  0
    0.2030   -2.4700   -1.8410 C   0  0  0  0  0  0  0  0  0  0  0  0
   -0.7780   -4.4240   -1.1040 F   0  0  0  0  0  0  0  0  0  0  0  0
   -0.8160   -2.6870    0.4220 C   0  0  0  0  0  0  0  0  0  0  0  0
   -1.5070   -3.3910    1.2370 O   0  0  0  0  0  0  0  0  0  0  0  0
    0.0070   -1.6440    1.0090 C   0  0  0  0  0  0  0  0  0  0  0  0
    0.7470   -1.8970    2.0740 C   0  0  0  0  0  0  0  0  0  0  0  0
    0.0730   -0.2380    0.4700 C   0  0  0  0  0  0  0  0  0  0  0  0
    1.3790    0.2080    0.5560 O   0  0  0  0  0  0  0  0  0  0  0  0
    2.1130    0.9490   -0.3390 C   0  0  0  0  0  0  0  0  0  0  0  0
    3.5680    0.9360   -0.1810 C   0  0  0  0  0  0  0  0  0  0  0  0
    4.4460    1.6640   -1.0460 N   0  0  0  0  0  0  0  0  0  0  0  0
    4.1300    0.2600    0.7560 N   0  0  0  0  0  0  0  0  0  0  0  0
    5.5200    0.2030    0.9660 C   0  0  0  0  0  0  0  0  0  0  0  0
    6.2430   -0.3310    0.0900 O   0  0  0  0  0  0  0  0  0  0  0  0
    6.0740    0.7200    2.1020 O   0  0  0  0  0  0  0  0  0  0  0  0
    1.6330    1.6770   -1.3350 C   0  0  0  0  0  0  0  0  0  0  0  0
    0.2610    1.8640   -1.7080 C   0  0  0  0  0  0  0  0  0  0  0  0
   -0.6920    2.3790   -1.0490 N   0  0  0  0  0  0  0  0  0  0  0  0
   -0.7190    2.9050    0.1880 O   0  0  0  0  0  0  0  0  0  0  0  0
  1  2  2  0
  2  3  1  0
  2 30  1  0
  3  4  1  0
  4  5  1  0
  5  6  1  1
  5  7  1  0
  5  8  1  0
  8  9  1  0
  9 10  2  0
  9 11  1  0
 11 12  1  6
 11 13  1  0
 11 14  1  0
 14 15  2  0
 14 16  1  0
 16 17  2  0
 16 18  1  0
 18 19  1  0
 19 20  1  0
 20 21  1  0
 20 27  2  0
 21 22  1  0
 21 23  2  3
 23 24  1  0
 24 25  2  0
 24 26  1  0
 27 28  1  0
 28 29  2  0
 29 30  1  0
M  END
