
     RDKit          3D

 32 35  0  0  0  0  0  0  0  0999 V2000
   -9.9740    2.0010    0.4830 C   0  0  0  0  0  0  0  0  0  0  0  0
   -9.3810    1.0620    1.3520 O   0  0  0  0  0  0  0  0  0  0  0  0
   -8.3260    0.3040    0.8820 C   0  0  0  0  0  0  0  0  0  0  0  0
   -7.8660    0.4600   -0.4030 C   0  0  0  0  0  0  0  0  0  0  0  0
   -6.8250   -0.2850   -0.8700 C   0  0  0  0  0  0  0  0  0  0  0  0
   -6.1630   -1.2450   -0.0870 C   0  0  0  0  0  0  0  0  0  0  0  0
   -5.0640   -1.9520   -0.7470 C   0  0  2  0  0  0  0  0  0  0  0  0
   -4.0830   -2.6260    0.1690 C   0  0  0  0  0  0  0  0  0  0  0  0
   -3.0320   -1.6400    0.2530 N   0  0  0  0  0  0  0  0  0  0  0  0
   -3.0910   -0.7690   -0.6880 C   0  0  0  0  0  0  0  0  0  0  0  0
   -2.1950    0.3300   -0.8810 N   0  0  0  0  0  0  0  0  0  0  0  0
   -0.8300    0.1890   -0.6110 C   0  0  0  0  0  0  0  0  0  0  0  0
   -0.0850    1.3330   -0.4500 C   0  0  0  0  0  0  0  0  0  0  0  0
    1.2900    1.2300   -0.2160 C   0  0  0  0  0  0  0  0  0  0  0  0
    1.9490    0.0470   -0.1380 C   0  0  0  0  0  0  0  0  0  0  0  0
    3.3460   -0.1130    0.0540 N   0  0  0  0  0  0  0  0  0  0  0  0
    4.2680    0.8760   -0.2200 C   0  0  0  0  0  0  0  0  0  0  0  0
    3.8070    2.0130   -0.6730 O   0  0  0  0  0  0  0  0  0  0  0  0
    5.7180    0.8950   -0.0920 C   0  0  0  0  0  0  0  0  0  0  0  0
    6.3470    2.1460    0.1320 C   0  0  0  0  0  0  0  0  0  0  0  0
    7.6820    2.3250    0.2660 C   0  0  0  0  0  0  0  0  0  0  0  0
    8.2790    3.6810    0.5000 C   0  0  0  0  0  0  0  0  0  0  0  0
    8.5070    1.2280    0.1820 C   0  0  0  0  0  0  0  0  0  0  0  0
    7.9400   -0.0060   -0.0330 C   0  0  0  0  0  0  0  0  0  0  0  0
    6.5440   -0.1810   -0.1710 C   0  0  0  0  0  0  0  0  0  0  0  0
    6.0500   -1.5420   -0.3730 C   0  0  0  0  0  0  0  0  0  0  0  0
    7.1640   -2.4970   -0.5020 N   0  0  0  0  0  0  0  0  0  0  0  0
    1.1560   -1.1040   -0.3060 C   0  0  0  0  0  0  0  0  0  0  0  0
   -0.2150   -1.0210   -0.5390 C   0  0  0  0  0  0  0  0  0  0  0  0
   -4.2150   -1.0480   -1.5080 N   0  0  0  0  0  0  0  0  0  0  0  0
   -6.6130   -1.4020    1.1810 C   0  0  0  0  0  0  0  0  0  0  0  0
   -7.6810   -0.6390    1.6630 C   0  0  0  0  0  0  0  0  0  0  0  0
  1  2  1  0
  2  3  1  0
  3  4  2  0
  3 32  1  0
  4  5  1  0
  5  6  2  0
  7  6  1  1
  6 31  1  0
  7  8  1  0
  7 30  1  0
  8  9  1  0
  9 10  2  0
 10 11  1  0
 10 30  1  0
 11 12  1  0
 12 13  2  0
 12 29  1  0
 13 14  1  0
 14 15  2  0
 15 16  1  0
 15 28  1  0
 16 17  1  0
 17 18  2  0
 17 19  1  0
 19 20  2  0
 19 25  1  0
 20 21  1  0
 21 22  1  0
 21 23  2  0
 23 24  1  0
 24 25  2  0
 25 26  1  0
 26 27  1  0
 28 29  2  0
 31 32  2  0
M  CHG  2   9   1  27   1
M  END
