
     RDKit          3D

 32 34  0  0  0  0  0  0  0  0999 V2000
   -7.2660    0.9470   -1.9780 C   0  0  0  0  0  0  0  0  0  0  0  0
   -6.1170    0.8960   -1.0420 C   0  0  0  0  0  0  0  0  0  0  0  0
   -5.7090    2.0380   -0.3690 C   0  0  0  0  0  0  0  0  0  0  0  0
   -4.5940    1.9550    0.4830 C   0  0  0  0  0  0  0  0  0  0  0  0
   -4.2040    3.1020    1.1450 O   0  0  0  0  0  0  0  0  0  0  0  0
   -3.8880    0.8030    0.6740 C   0  0  0  0  0  0  0  0  0  0  0  0
   -2.8490    0.7000    1.7070 C   0  0  0  0  0  0  0  0  0  0  0  0
   -1.7770    1.6150    1.6700 N   0  0  0  0  0  0  0  0  0  0  0  0
   -1.8600    2.7680    2.5940 C   0  0  0  0  0  0  0  0  0  0  0  0
   -0.6060    1.4590    0.9530 C   0  0  0  0  0  0  0  0  0  0  0  0
    0.2230    2.4550    0.9430 O   0  0  0  0  0  0  0  0  0  0  0  0
   -0.1760    0.2980    0.1950 C   0  0  0  0  0  0  0  0  0  0  0  0
    0.9310    0.3950   -0.4680 C   0  0  0  0  0  0  0  0  0  0  0  0
    1.4260   -0.7210   -1.2300 N   0  0  0  0  0  0  0  0  0  0  0  0
    2.8640   -0.8820   -1.1910 C   0  0  0  0  0  0  0  0  0  0  0  0
    3.7210    0.1800   -1.0590 C   0  0  0  0  0  0  0  0  0  0  0  0
    5.0890    0.0330   -0.9180 C   0  0  0  0  0  0  0  0  0  0  0  0
    5.6230   -1.2260   -0.9090 C   0  0  0  0  0  0  0  0  0  0  0  0
    6.9940   -1.5330   -0.7390 N   0  0  0  0  0  0  0  0  0  0  0  0
    8.0210   -0.7680   -0.1510 C   0  0  0  0  0  0  0  0  0  0  0  0
    7.7870    0.2610    0.7120 C   0  0  0  0  0  0  0  0  0  0  0  0
    8.8790    0.9740    1.2260 C   0  0  0  0  0  0  0  0  0  0  0  0
   10.1420    0.6650    0.8880 N   0  0  0  0  0  0  0  0  0  0  0  0
   10.3770   -0.3530    0.0360 C   0  0  0  0  0  0  0  0  0  0  0  0
    9.3260   -1.0760   -0.4920 C   0  0  0  0  0  0  0  0  0  0  0  0
    4.7280   -2.3000   -1.0520 C   0  0  0  0  0  0  0  0  0  0  0  0
    3.3960   -2.1570   -1.1900 C   0  0  0  0  0  0  0  0  0  0  0  0
   -4.3050   -0.3570   -0.0190 C   0  0  0  0  0  0  0  0  0  0  0  0
   -5.4270   -0.3010   -0.8710 C   0  0  0  0  0  0  0  0  0  0  0  0
   -6.0100   -1.5310   -1.4010 C   0  0  0  0  0  0  0  0  0  0  0  0
   -6.2320   -2.5470   -0.2640 C   0  0  0  0  0  0  0  0  0  0  0  0
   -7.0270   -2.0230    0.8110 N   0  0  0  0  0  0  0  0  0  0  0  0
  1  2  1  0
  2  3  2  0
  2 29  1  0
  3  4  1  0
  4  5  1  0
  4  6  2  0
  6  7  1  0
  6 28  1  0
  7  8  1  0
  8  9  1  0
  8 10  1  0
 10 11  2  0
 10 12  1  0
 12 13  2  3
 13 14  1  0
 14 15  1  0
 15 16  2  0
 15 27  1  0
 16 17  1  0
 17 18  2  0
 18 19  1  0
 18 26  1  0
 19 20  1  0
 20 21  2  0
 20 25  1  0
 21 22  1  0
 22 23  2  0
 23 24  1  0
 24 25  2  0
 26 27  2  0
 28 29  2  0
 29 30  1  0
 30 31  1  0
 31 32  1  0
M  CHG  2  23   1  32   1
M  END
