
     RDKit          3D

 32 35  0  0  0  0  0  0  0  0999 V2000
   -6.6690   -2.2280   -2.3950 C   0  0  0  0  0  0  0  0  0  0  0  0
   -6.2260   -0.7910   -2.5580 C   0  0  1  0  0  0  0  0  0  0  0  0
   -7.3180    0.1250   -2.0480 C   0  0  0  0  0  0  0  0  0  0  0  0
   -7.6550   -0.0580   -0.6720 N   0  0  0  0  0  0  0  0  0  0  0  0
   -4.9050   -0.5290   -1.9530 C   0  0  0  0  0  0  0  0  0  0  0  0
   -4.6650   -0.8540   -0.6430 C   0  0  0  0  0  0  0  0  0  0  0  0
   -3.4270   -0.6230   -0.0190 C   0  0  0  0  0  0  0  0  0  0  0  0
   -2.4250   -0.0510   -0.7480 C   0  0  0  0  0  0  0  0  0  0  0  0
   -1.1540    0.2260   -0.1770 N   0  0  0  0  0  0  0  0  0  0  0  0
   -0.8570    0.2600    1.1930 C   0  0  0  0  0  0  0  0  0  0  0  0
   -1.7440    0.0430    2.0060 O   0  0  0  0  0  0  0  0  0  0  0  0
    0.4670    0.5430    1.6930 N   0  0  0  0  0  0  0  0  0  0  0  0
    0.8640    0.6060    3.0340 C   0  0  0  0  0  0  0  0  0  0  0  0
   -0.0370    0.6670    4.0590 C   0  0  0  0  0  0  0  0  0  0  0  0
    0.4260    0.8040    5.3730 C   0  0  0  0  0  0  0  0  0  0  0  0
    1.7580    0.8770    5.6580 C   0  0  0  0  0  0  0  0  0  0  0  0
    2.6690    0.8110    4.5900 C   0  0  0  0  0  0  0  0  0  0  0  0
    2.2460    0.6760    3.2900 C   0  0  0  0  0  0  0  0  0  0  0  0
    3.1480    0.5400    2.2270 N   0  0  0  0  0  0  0  0  0  0  0  0
    4.5370    0.7610    2.2120 C   0  0  0  0  0  0  0  0  0  0  0  0
    5.0810    1.1400    3.2770 O   0  0  0  0  0  0  0  0  0  0  0  0
    5.4030    0.5810    1.0350 C   0  0  0  0  0  0  0  0  0  0  0  0
    6.7230    1.0040    1.0560 C   0  0  0  0  0  0  0  0  0  0  0  0
    7.5570    0.8460   -0.0290 C   0  0  0  0  0  0  0  0  0  0  0  0
    7.1080    0.2530   -1.1930 C   0  0  0  0  0  0  0  0  0  0  0  0
    5.7990   -0.1730   -1.2290 C   0  0  0  0  0  0  0  0  0  0  0  0
    4.9590   -0.0050   -0.1140 C   0  0  0  0  0  0  0  0  0  0  0  0
    5.5850   -0.7030   -2.4210 C   0  0  0  0  0  0  0  0  0  0  0  0
    6.7640   -0.6440   -3.2250 N   0  0  0  0  0  0  0  0  0  0  0  0
    7.7000   -0.0140   -2.3600 C   0  0  0  0  0  0  0  0  0  0  0  0
   -2.6590    0.2830   -2.0830 C   0  0  0  0  0  0  0  0  0  0  0  0
   -3.8720    0.0510   -2.6760 C   0  0  0  0  0  0  0  0  0  0  0  0
  2  1  1  1
  2  3  1  0
  2  5  1  0
  3  4  1  0
  5  6  2  0
  5 32  1  0
  6  7  1  0
  7  8  2  0
  8  9  1  0
  8 31  1  0
  9 10  1  0
 10 11  2  0
 10 12  1  0
 12 13  1  0
 13 14  2  0
 13 18  1  0
 14 15  1  0
 15 16  2  0
 16 17  1  0
 17 18  2  0
 18 19  1  0
 19 20  1  0
 20 21  2  0
 20 22  1  0
 22 23  1  0
 22 27  2  0
 23 24  2  0
 24 25  1  0
 25 26  1  0
 25 30  2  0
 26 27  1  0
 26 28  2  0
 28 29  1  0
 29 30  1  0
 31 32  2  0
M  CHG  2   4   1  29   1
M  END
