
     RDKit          3D

 32 35  0  0  0  0  0  0  0  0999 V2000
    6.4000    3.2440   -0.0250 C   0  0  0  0  0  0  0  0  0  0  0  0
    5.3730    2.2190    0.3470 C   0  0  0  0  0  0  0  0  0  0  0  0
    5.5350    0.9090   -0.0750 C   0  0  0  0  0  0  0  0  0  0  0  0
    4.6020   -0.0320    0.2610 C   0  0  0  0  0  0  0  0  0  0  0  0
    3.4760    0.2920    1.0270 C   0  0  0  0  0  0  0  0  0  0  0  0
    2.5280   -0.7370    1.3520 C   0  0  0  0  0  0  0  0  0  0  0  0
    1.8760   -1.5110    0.5480 C   0  0  0  0  0  0  0  0  0  0  0  0
    0.9250   -2.5510    1.1130 C   0  0  0  0  0  0  0  0  0  0  0  0
   -0.3960   -2.2690    0.5950 N   0  0  0  0  0  0  0  0  0  0  0  0
   -0.9770   -0.9870    0.8970 C   0  0  0  0  0  0  0  0  0  0  0  0
   -0.2700   -0.1990    1.5840 O   0  0  0  0  0  0  0  0  0  0  0  0
   -2.2960   -0.5870    0.4490 C   0  0  0  0  0  0  0  0  0  0  0  0
   -3.3400   -1.4630    0.5770 C   0  0  0  0  0  0  0  0  0  0  0  0
   -4.5640   -1.0730    0.0180 C   0  0  0  0  0  0  0  0  0  0  0  0
   -4.6880    0.1200   -0.6110 C   0  0  0  0  0  0  0  0  0  0  0  0
   -3.5970    1.0340   -0.7380 C   0  0  0  0  0  0  0  0  0  0  0  0
   -3.9550    2.2390   -1.4080 C   0  0  0  0  0  0  0  0  0  0  0  0
   -3.7220    3.5820   -1.1260 N   0  0  0  0  0  0  0  0  0  0  0  0
   -4.6540    2.0820   -2.5060 O   0  0  0  0  0  0  0  0  0  0  0  0
   -2.4100    0.6730   -0.2110 C   0  0  0  0  0  0  0  0  0  0  0  0
   -1.1850    1.4280   -0.2570 C   0  0  0  0  0  0  0  0  0  0  0  0
   -1.1430    2.6320   -1.0270 N   0  0  0  0  0  0  0  0  0  0  0  0
   -5.5760   -2.1540    0.2410 C   0  0  0  0  0  0  0  0  0  0  0  0
   -4.6750   -3.3780    0.3840 C   0  0  0  0  0  0  0  0  0  0  0  0
   -3.5600   -2.7740    1.2410 C   0  0  0  0  0  0  0  0  0  0  0  0
    1.8650   -1.3780   -0.8970 C   0  0  0  0  0  0  0  0  0  0  0  0
    2.2660   -0.3800   -1.6650 N   0  0  0  0  0  0  0  0  0  0  0  0
    2.1210   -0.7270   -2.9610 C   0  0  0  0  0  0  0  0  0  0  0  0
    1.6120   -1.9790   -2.9700 C   0  0  0  0  0  0  0  0  0  0  0  0
    1.4500   -2.3880   -1.7250 N   0  0  0  0  0  0  0  0  0  0  0  0
    3.3440    1.5860    1.4270 C   0  0  0  0  0  0  0  0  0  0  0  0
    4.2770    2.5700    1.1020 C   0  0  0  0  0  0  0  0  0  0  0  0
  1  2  1  0
  2  3  2  0
  2 32  1  0
  3  4  1  0
  4  5  2  0
  5  6  1  0
  5 31  1  0
  6  7  2  3
  7  8  1  0
  7 26  1  0
  8  9  1  0
  9 10  1  0
 10 11  2  0
 10 12  1  0
 12 13  2  0
 12 20  1  0
 13 14  1  0
 13 25  1  0
 14 15  2  0
 14 23  1  0
 15 16  1  0
 16 17  1  0
 16 20  2  0
 17 18  1  0
 17 19  2  0
 20 21  1  0
 21 22  1  0
 23 24  1  0
 24 25  1  0
 26 27  1  0
 26 30  2  0
 27 28  1  0
 28 29  2  0
 29 30  1  0
 31 32  2  0
M  CHG  2  22   1  30   1
M  END
