
     RDKit          3D

 28 30  0  0  0  0  0  0  0  0999 V2000
   -8.1020   -0.1540   -1.0490 C   0  0  0  0  0  0  0  0  0  0  0  0
   -6.8820   -0.8210   -0.4510 C   0  0  0  0  0  0  0  0  0  0  0  0
   -5.7110   -0.2740   -1.1210 N   0  0  2  0  0  0  0  0  0  0  0  0
   -4.6620   -1.2810   -1.0880 C   0  0  0  0  0  0  0  0  0  0  0  0
   -5.2830    0.9690   -0.5140 C   0  0  0  0  0  0  0  0  0  0  0  0
   -3.9040    0.8450    0.0140 C   0  0  0  0  0  0  0  0  0  0  0  0
   -2.8070    1.1410   -0.7610 C   0  0  0  0  0  0  0  0  0  0  0  0
   -1.5080    1.0150   -0.2380 C   0  0  0  0  0  0  0  0  0  0  0  0
   -1.2790    0.5970    1.0490 C   0  0  0  0  0  0  0  0  0  0  0  0
   -0.0270    0.4390    1.6650 N   0  0  0  0  0  0  0  0  0  0  0  0
    1.2560    0.6610    1.1200 C   0  0  0  0  0  0  0  0  0  0  0  0
    1.3310    1.0460   -0.0480 O   0  0  0  0  0  0  0  0  0  0  0  0
    2.4810    0.4490    1.8980 C   0  0  0  0  0  0  0  0  0  0  0  0
    2.4880    0.4830    3.3150 C   0  0  0  0  0  0  0  0  0  0  0  0
    3.7720    0.3020    3.7270 C   0  0  0  0  0  0  0  0  0  0  0  0
    4.5100    0.1610    2.5780 C   0  0  0  0  0  0  0  0  0  0  0  0
    3.7010    0.2500    1.4630 N   0  0  0  0  0  0  0  0  0  0  0  0
    4.2150   -0.0180    0.1830 C   0  0  0  0  0  0  0  0  0  0  0  0
    3.6020   -0.4930   -0.8610 C   0  0  0  0  0  0  0  0  0  0  0  0
    4.4230   -0.6610   -2.0900 C   0  0  0  0  0  0  0  0  0  0  0  0
    3.8730   -0.5280   -3.2190 O   0  0  0  0  0  0  0  0  0  0  0  0
    5.8630   -0.9810   -2.0320 C   0  0  1  0  0  0  0  0  0  0  0  0
    6.6820   -0.0170   -2.8660 C   0  0  0  0  0  0  0  0  0  0  0  0
    6.3170   -0.8610   -0.6650 N   0  0  0  0  0  0  0  0  0  0  0  0
    5.6840    0.2890   -0.0970 C   0  0  0  0  0  0  0  0  0  0  0  0
   -2.4220    0.3110    1.7900 C   0  0  0  0  0  0  0  0  0  0  0  0
   -2.2420   -0.2310    3.4460 Cl  0  0  0  0  0  0  0  0  0  0  0  0
   -3.7010    0.4220    1.3140 C   0  0  0  0  0  0  0  0  0  0  0  0
  1  2  1  0
  2  3  1  0
  3  4  1  1
  3  5  1  0
  5  6  1  0
  6  7  2  0
  6 28  1  0
  7  8  1  0
  8  9  2  0
  9 10  1  0
  9 26  1  0
 10 11  1  0
 11 12  2  0
 11 13  1  0
 13 14  2  0
 13 17  1  0
 14 15  1  0
 15 16  2  0
 16 17  1  0
 17 18  1  0
 18 19  2  0
 18 25  1  0
 19 20  1  0
 20 21  2  0
 20 22  1  0
 22 23  1  6
 22 24  1  0
 24 25  1  0
 26 27  1  0
 26 28  2  0
M  CHG  2   3   1  24   1
M  END
