
     RDKit          3D

 24 27  0  0  0  0  0  0  0  0999 V2000
   -6.2290    0.7230    0.5640 C   0  0  0  0  0  0  0  0  0  0  0  0
   -4.9750    1.1360   -0.1590 C   0  0  1  0  0  0  0  0  0  0  0  0
   -3.8100    1.3050    0.8300 C   0  0  0  0  0  0  0  0  0  0  0  0
   -2.6270    0.8830    0.1980 N   0  0  0  0  0  0  0  0  0  0  0  0
   -2.3410   -0.5600    0.4240 C   0  0  2  0  0  0  0  0  0  0  0  0
   -0.8610   -0.6020    0.4390 C   0  0  0  0  0  0  0  0  0  0  0  0
   -0.1290   -0.5090   -0.7170 C   0  0  0  0  0  0  0  0  0  0  0  0
    1.2620   -0.4050   -0.7220 C   0  0  0  0  0  0  0  0  0  0  0  0
    1.9540   -0.3950    0.4530 C   0  0  0  0  0  0  0  0  0  0  0  0
    3.4040   -0.2500    0.4750 C   0  0  0  0  0  0  0  0  0  0  0  0
    4.1260    0.0650   -0.6500 C   0  0  0  0  0  0  0  0  0  0  0  0
    5.4820    0.2080   -0.5840 C   0  0  0  0  0  0  0  0  0  0  0  0
    6.1220    0.0350    0.6090 C   0  0  0  0  0  0  0  0  0  0  0  0
    5.4010   -0.2820    1.7480 C   0  0  0  0  0  0  0  0  0  0  0  0
    4.0660   -0.4150    1.6480 N   0  0  0  0  0  0  0  0  0  0  0  0
    7.5530    0.2290    0.3700 C   0  0  0  0  0  0  0  0  0  0  0  0
    7.7300    0.4140   -0.9940 O   0  0  0  0  0  0  0  0  0  0  0  0
    6.4910    0.5490   -1.5840 C   0  0  0  0  0  0  0  0  0  0  0  0
    1.2520   -0.4890    1.6320 C   0  0  0  0  0  0  0  0  0  0  0  0
   -0.1510   -0.5920    1.6240 C   0  0  0  0  0  0  0  0  0  0  0  0
   -0.7980   -0.6830    2.8400 O   0  0  0  0  0  0  0  0  0  0  0  0
   -2.8590   -1.2820   -0.7910 C   0  0  0  0  0  0  0  0  0  0  0  0
   -4.2910   -1.0810   -0.9730 N   0  0  0  0  0  0  0  0  0  0  0  0
   -4.6170    0.2630   -1.3200 C   0  0  0  0  0  0  0  0  0  0  0  0
  2  1  1  1
  2  3  1  0
  2 24  1  0
  3  4  1  0
  4  5  1  0
  5  6  1  6
  5 22  1  0
  6  7  2  0
  6 20  1  0
  7  8  1  0
  8  9  2  0
  9 10  1  0
  9 19  1  0
 10 11  2  0
 10 15  1  0
 11 12  1  0
 12 13  2  0
 12 18  1  0
 13 14  1  0
 13 16  1  0
 14 15  2  0
 16 17  1  0
 17 18  1  0
 19 20  2  0
 20 21  1  0
 22 23  1  0
 23 24  1  0
M  CHG  1  23   1
M  END
