
     RDKit          3D

 28 30  0  0  0  0  0  0  0  0999 V2000
   -7.8510   -0.1190   -1.3530 C   0  0  0  0  0  0  0  0  0  0  0  0
   -6.6050   -0.4460   -0.5990 C   0  0  0  0  0  0  0  0  0  0  0  0
   -6.0230   -1.6860   -0.7140 C   0  0  0  0  0  0  0  0  0  0  0  0
   -4.8690   -1.9900   -0.0240 C   0  0  0  0  0  0  0  0  0  0  0  0
   -4.2300   -1.1000    0.8110 C   0  0  0  0  0  0  0  0  0  0  0  0
   -3.0110   -1.4180    1.5460 C   0  0  0  0  0  0  0  0  0  0  0  0
   -1.7660   -0.9870    0.9490 N   0  0  2  0  0  0  0  0  0  0  0  0
   -1.8710   -0.7980   -0.4850 C   0  0  0  0  0  0  0  0  0  0  0  0
   -0.6660   -1.8310    1.2780 C   0  0  0  0  0  0  0  0  0  0  0  0
    0.6110   -1.1290    1.0340 C   0  0  0  0  0  0  0  0  0  0  0  0
    1.6480   -1.8330    1.2950 O   0  0  0  0  0  0  0  0  0  0  0  0
    0.8080    0.1700    0.5680 N   0  0  0  0  0  0  0  0  0  0  0  0
    2.0220    0.8440    0.3250 C   0  0  0  0  0  0  0  0  0  0  0  0
    3.2800    0.3460    0.5010 C   0  0  0  0  0  0  0  0  0  0  0  0
    4.4590    1.0550    0.2470 C   0  0  0  0  0  0  0  0  0  0  0  0
    5.7940    0.5040    0.4470 C   0  0  2  0  0  0  0  0  0  0  0  0
    6.7840    1.2960   -0.4180 C   0  0  0  0  0  0  0  0  0  0  0  0
    7.7300    0.2170   -0.9650 C   0  0  0  0  0  0  0  0  0  0  0  0
    6.7010   -0.9060   -1.1660 C   0  0  0  0  0  0  0  0  0  0  0  0
    5.9660   -0.8520    0.0540 N   0  0  0  0  0  0  0  0  0  0  0  0
    4.2990    2.3390   -0.2080 C   0  0  0  0  0  0  0  0  0  0  0  0
    3.0250    2.8700   -0.3960 C   0  0  0  0  0  0  0  0  0  0  0  0
    2.8740    4.0490   -0.8150 O   0  0  0  0  0  0  0  0  0  0  0  0
    1.9480    2.1280   -0.1310 N   0  0  0  0  0  0  0  0  0  0  0  0
   -4.8240    0.1530    0.9250 C   0  0  0  0  0  0  0  0  0  0  0  0
   -5.9960    0.4730    0.2280 C   0  0  0  0  0  0  0  0  0  0  0  0
   -6.6020    1.8180    0.3820 C   0  0  0  0  0  0  0  0  0  0  0  0
   -6.3380    2.8860   -0.9850 Cl  0  0  0  0  0  0  0  0  0  0  0  0
  1  2  1  0
  2  3  2  0
  2 26  1  0
  3  4  1  0
  4  5  2  0
  5  6  1  0
  5 25  1  0
  6  7  1  0
  7  8  1  6
  7  9  1  0
  9 10  1  0
 10 11  2  0
 10 12  1  0
 12 13  1  0
 13 14  2  0
 13 24  1  0
 14 15  1  0
 16 15  1  6
 15 21  2  0
 16 17  1  0
 16 20  1  0
 17 18  1  0
 18 19  1  0
 19 20  1  0
 21 22  1  0
 22 23  2  0
 22 24  1  0
 25 26  2  0
 26 27  1  0
 27 28  1  0
M  CHG  2   7   1  20   1
M  END
