
     RDKit          3D

 25 28  0  0  0  0  0  0  0  0999 V2000
    1.7640   -3.3840    1.0620 O   0  0  0  0  0  0  0  0  0  0  0  0
    2.5640   -2.2670    0.7930 C   0  0  0  0  0  0  0  0  0  0  0  0
    3.8950   -2.2020    1.1220 C   0  0  0  0  0  0  0  0  0  0  0  0
    4.6410   -1.0890    0.8400 C   0  0  0  0  0  0  0  0  0  0  0  0
    4.0610   -0.0030    0.2150 C   0  0  0  0  0  0  0  0  0  0  0  0
    2.7320   -0.0330   -0.1280 C   0  0  0  0  0  0  0  0  0  0  0  0
    1.9880   -1.1750    0.1670 C   0  0  0  0  0  0  0  0  0  0  0  0
    0.6270   -1.2010   -0.1820 N   0  0  0  0  0  0  0  0  0  0  0  0
   -0.0120   -0.0900   -0.8580 C   0  0  2  0  0  0  0  0  0  0  0  0
   -1.4900   -0.3720   -1.0700 C   0  0  0  0  0  0  0  0  0  0  0  0
   -2.1380    0.8760   -1.4220 N   0  0  1  0  0  0  0  0  0  0  0  0
   -2.5670    1.5140   -0.2030 C   0  0  0  0  0  0  0  0  0  0  0  0
   -3.7810    0.9140    0.3690 C   0  0  0  0  0  0  0  0  0  0  0  0
   -4.3150    1.4570    1.5170 C   0  0  0  0  0  0  0  0  0  0  0  0
   -5.4650    0.9280    2.1030 C   0  0  0  0  0  0  0  0  0  0  0  0
   -6.0660   -0.1640    1.5050 C   0  0  0  0  0  0  0  0  0  0  0  0
   -5.5460   -0.7140    0.3630 C   0  0  0  0  0  0  0  0  0  0  0  0
   -6.1350   -1.7750   -0.2140 F   0  0  0  0  0  0  0  0  0  0  0  0
   -4.3910   -0.1720   -0.2130 C   0  0  0  0  0  0  0  0  0  0  0  0
   -1.1460    1.6840   -2.1300 C   0  0  0  0  0  0  0  0  0  0  0  0
   -0.3020    0.7410   -2.9470 C   0  0  0  0  0  0  0  0  0  0  0  0
    0.6170    0.1550   -2.0930 O   0  0  0  0  0  0  0  0  0  0  0  0
    5.1280    1.0410    0.0480 C   0  0  0  0  0  0  0  0  0  0  0  0
    6.0130    0.7220    1.1640 N   0  0  0  0  0  0  0  0  0  0  0  0
    6.0620   -0.7350    1.0670 C   0  0  0  0  0  0  0  0  0  0  0  0
  1  2  1  0
  2  3  2  0
  2  7  1  0
  3  4  1  0
  4  5  2  0
  4 25  1  0
  5  6  1  0
  5 23  1  0
  6  7  2  0
  7  8  1  0
  9  8  1  6
  9 10  1  0
  9 22  1  0
 10 11  1  0
 11 12  1  1
 11 20  1  0
 12 13  1  0
 13 14  2  0
 13 19  1  0
 14 15  1  0
 15 16  2  0
 16 17  1  0
 17 18  1  0
 17 19  2  0
 20 21  1  0
 21 22  1  0
 23 24  1  0
 24 25  1  0
M  CHG  1  11   1
M  END
