
     RDKit          3D

 24 27  0  0  0  0  0  0  0  0999 V2000
    5.5950    2.2330   -0.8710 C   0  0  0  0  0  0  0  0  0  0  0  0
    4.4240    1.5130   -0.2520 C   0  0  0  0  0  0  0  0  0  0  0  0
    3.9490    1.7250    1.0200 C   0  0  0  0  0  0  0  0  0  0  0  0
    2.8660    0.8640    1.1970 C   0  0  0  0  0  0  0  0  0  0  0  0
    2.7430    0.1780    0.0200 C   0  0  0  0  0  0  0  0  0  0  0  0
    1.7940   -0.8310   -0.3550 C   0  0  0  0  0  0  0  0  0  0  0  0
    0.5030   -0.8460   -0.1330 C   0  0  0  0  0  0  0  0  0  0  0  0
   -0.1460    0.2600    0.5780 C   0  0  2  0  0  0  0  0  0  0  0  0
   -0.3130   -0.1110    1.9710 N   0  0  0  0  0  0  0  0  0  0  0  0
   -1.4820    0.6380   -0.0330 C   0  0  2  0  0  0  0  0  0  0  0  0
   -1.2260    1.3280   -1.3490 C   0  0  0  0  0  0  0  0  0  0  0  0
   -2.1100    2.4920   -1.6320 C   0  0  0  0  0  0  0  0  0  0  0  0
   -3.4040    2.4310   -0.9100 C   0  0  0  0  0  0  0  0  0  0  0  0
   -4.4890    2.5950   -1.5200 O   0  0  0  0  0  0  0  0  0  0  0  0
   -3.3410    2.1790    0.4870 N   0  0  0  0  0  0  0  0  0  0  0  0
   -2.1690    1.5080    0.9890 C   0  0  0  0  0  0  0  0  0  0  0  0
   -2.3560   -0.5550   -0.2960 C   0  0  0  0  0  0  0  0  0  0  0  0
   -1.6530   -1.8460   -0.1140 C   0  0  0  0  0  0  0  0  0  0  0  0
   -2.2550   -2.7750    0.4850 N   0  0  0  0  0  0  0  0  0  0  0  0
   -1.7340   -4.0760    0.7470 C   0  0  0  0  0  0  0  0  0  0  0  0
   -0.3230   -4.2710    0.3770 C   0  0  0  0  0  0  0  0  0  0  0  0
    0.3220   -3.3050   -0.2580 C   0  0  0  0  0  0  0  0  0  0  0  0
   -0.2870   -2.0100   -0.6340 C   0  0  2  0  0  0  0  0  0  0  0  0
    3.6950    0.6000   -0.8140 O   0  0  0  0  0  0  0  0  0  0  0  0
  1  2  1  0
  2  3  2  0
  2 24  1  0
  3  4  1  0
  4  5  2  0
  5  6  1  0
  5 24  1  0
  6  7  2  3
  7  8  1  0
  7 23  1  0
  8  9  1  1
  8 10  1  0
 10 11  1  6
 10 16  1  0
 10 17  1  0
 11 12  1  0
 12 13  1  0
 13 14  2  0
 13 15  1  0
 15 16  1  0
 17 18  1  0
 18 19  2  0
 18 23  1  0
 19 20  1  0
 20 21  1  0
 21 22  2  0
 23 22  1  1
M  CHG  1  19   1
M  END
