
     RDKit          3D

 25 27  0  0  0  0  0  0  0  0999 V2000
   -3.1240    4.8050   -1.2280 C   0  0  0  0  0  0  0  0  0  0  0  0
   -2.9460    3.3480   -0.9110 C   0  0  0  0  0  0  0  0  0  0  0  0
   -4.0360    2.6640   -0.6010 C   0  0  0  0  0  0  0  0  0  0  0  0
   -4.1470    1.2530   -0.2540 C   0  0  0  0  0  0  0  0  0  0  0  0
   -3.1710    0.3470   -0.1570 C   0  0  0  0  0  0  0  0  0  0  0  0
   -3.6350   -0.8900    0.1910 C   0  0  0  0  0  0  0  0  0  0  0  0
   -2.7750   -1.9800    0.3540 C   0  0  0  0  0  0  0  0  0  0  0  0
   -3.3910   -3.1520    0.7060 O   0  0  0  0  0  0  0  0  0  0  0  0
   -1.3980   -1.8600    0.1680 C   0  0  0  0  0  0  0  0  0  0  0  0
   -0.6040   -2.8980    0.2820 C   0  0  0  0  0  0  0  0  0  0  0  0
    0.7350   -2.6250    0.0690 F   0  0  0  0  0  0  0  0  0  0  0  0
   -0.8990   -4.2840    0.5970 C   0  0  0  0  0  0  0  0  0  0  0  0
   -0.4280   -4.6840    1.9130 N   0  0  0  0  0  0  0  0  0  0  0  0
   -0.9380   -0.6070   -0.1810 C   0  0  0  0  0  0  0  0  0  0  0  0
    0.4840   -0.3820   -0.3120 N   0  0  0  0  0  0  0  0  0  0  0  0
    1.2650    0.1350    0.7750 C   0  0  0  0  0  0  0  0  0  0  0  0
    2.6830    0.3880    0.3070 C   0  0  2  0  0  0  0  0  0  0  0  0
    3.3500   -0.8410   -0.2550 C   0  0  0  0  0  0  0  0  0  0  0  0
    4.7610   -0.5970   -0.4060 N   0  0  0  0  0  0  0  0  0  0  0  0
    5.0020    0.8240   -0.4580 C   0  0  0  0  0  0  0  0  0  0  0  0
    4.5810    1.4600    0.8460 C   0  0  0  0  0  0  0  0  0  0  0  0
    3.4300    0.9080    1.3810 O   0  0  0  0  0  0  0  0  0  0  0  0
   -1.8120    0.4610   -0.3390 C   0  0  0  0  0  0  0  0  0  0  0  0
   -1.0920    1.6520   -0.7520 C   0  0  0  0  0  0  0  0  0  0  0  0
   -1.5850    2.8780   -0.9930 C   0  0  0  0  0  0  0  0  0  0  0  0
  1  2  1  0
  2  3  2  0
  2 25  1  0
  3  4  1  0
  4  5  2  0
  5  6  1  0
  5 23  1  0
  6  7  2  0
  7  8  1  0
  7  9  1  0
  9 10  2  3
  9 14  1  0
 10 11  1  0
 10 12  1  0
 12 13  1  0
 14 15  1  0
 14 23  2  0
 15 16  1  0
 17 16  1  1
 17 18  1  0
 17 22  1  0
 18 19  1  0
 19 20  1  0
 20 21  1  0
 21 22  1  0
 23 24  1  0
 24 25  2  0
M  CHG  1  19   1
M  END
