
     RDKit          3D

 21 22  0  0  0  0  0  0  0  0999 V2000
    6.1150    1.5700    2.1810 O   0  0  0  0  0  0  0  0  0  0  0  0
    5.8080    0.0550    2.2160 P   0  0  0  0  0  0  0  0  0  0  0  0
    4.8270   -0.6210    0.9560 O   0  0  0  0  0  0  0  0  0  0  0  0
    3.6080    0.0070    0.9090 C   0  0  0  0  0  0  0  0  0  0  0  0
    2.7050   -0.5400   -0.1740 C   0  0  0  0  0  0  0  0  0  0  0  0
    1.4330    0.1540   -0.1820 N   0  0  0  0  0  0  0  0  0  0  0  0
    1.2170    1.3270   -0.9710 C   0  0  0  0  0  0  0  0  0  0  0  0
    2.2070    1.7330   -1.6730 O   0  0  0  0  0  0  0  0  0  0  0  0
    0.0100    2.0020   -0.9870 O   0  0  0  0  0  0  0  0  0  0  0  0
   -1.0300    1.5200   -0.2080 C   0  0  0  0  0  0  0  0  0  0  0  0
   -1.9640    2.2850    0.2000 O   0  0  0  0  0  0  0  0  0  0  0  0
   -1.0110    0.0780    0.1310 C   0  0  2  0  0  0  0  0  0  0  0  0
   -1.4000   -0.6660   -1.1500 C   0  0  0  0  0  0  0  0  0  0  0  0
   -2.7800   -0.4380   -1.1570 O   0  0  0  0  0  0  0  0  0  0  0  0
   -3.1350   -0.7900    0.1400 C   0  0  2  0  0  0  0  0  0  0  0  0
   -4.4490   -0.2250    0.5100 C   0  0  0  0  0  0  0  0  0  0  0  0
   -4.5250    0.5700    1.4780 O   0  0  0  0  0  0  0  0  0  0  0  0
   -5.5670   -0.5800   -0.2120 O   0  0  0  0  0  0  0  0  0  0  0  0
   -2.0830   -0.3010    1.0120 N   0  0  0  0  0  0  0  0  0  0  0  0
    0.3170   -0.3000    0.6050 C   0  0  0  0  0  0  0  0  0  0  0  0
    0.5400   -0.9800    1.6330 O   0  0  0  0  0  0  0  0  0  0  0  0
  1  2  2  0
  2  3  1  0
  3  4  1  0
  4  5  1  0
  5  6  1  0
  6  7  1  0
  6 20  1  0
  7  8  2  0
  7  9  1  0
  9 10  1  0
 10 11  2  0
 10 12  1  0
 12 13  1  6
 12 19  1  0
 12 20  1  0
 13 14  1  0
 14 15  1  0
 15 16  1  1
 15 19  1  0
 16 17  2  0
 16 18  1  0
 20 21  2  0
M  END
