
     RDKit          3D

 20 21  0  0  0  0  0  0  0  0999 V2000
   -3.5360    0.4620   -0.9060 N   0  0  0  0  0  0  0  0  0  0  0  0
   -2.3980    0.4750    0.0290 C   0  0  2  0  0  0  0  0  0  0  0  0
   -1.7720   -0.8420    0.0320 C   0  0  0  0  0  0  0  0  0  0  0  0
   -0.5500   -1.2630   -0.1660 C   0  0  0  0  0  0  0  0  0  0  0  0
    0.5920   -0.4020   -0.4680 C   0  0  0  0  0  0  0  0  0  0  0  0
    0.6110    0.8250   -0.5880 O   0  0  0  0  0  0  0  0  0  0  0  0
    1.8560   -1.0610   -0.6510 N   0  0  0  0  0  0  0  0  0  0  0  0
    3.0420   -0.2870   -0.9540 C   0  0  0  0  0  0  0  0  0  0  0  0
    3.3090    0.6390    0.0720 O   0  0  0  0  0  0  0  0  0  0  0  0
    4.7180    1.5320   -0.3250 P   0  0  0  0  0  0  0  0  0  0  0  0
    5.9130    0.5870   -1.1410 O   0  0  0  0  0  0  0  0  0  0  0  0
    5.3990    2.3090    1.0630 O   0  0  0  0  0  0  0  0  0  0  0  0
   -0.5070   -2.7480   -0.0340 C   0  0  0  0  0  0  0  0  0  0  0  0
   -1.7980   -3.1260    0.2510 O   0  0  0  0  0  0  0  0  0  0  0  0
   -2.6250   -2.0350    0.3090 C   0  0  0  0  0  0  0  0  0  0  0  0
   -3.8550   -2.0730    0.5510 O   0  0  0  0  0  0  0  0  0  0  0  0
   -3.0150    0.7390    1.3960 C   0  0  0  0  0  0  0  0  0  0  0  0
   -3.2200    2.1260    1.3220 O   0  0  0  0  0  0  0  0  0  0  0  0
   -2.1300    2.6100    0.6050 C   0  0  0  0  0  0  0  0  0  0  0  0
   -1.6800    1.5770   -0.2040 O   0  0  0  0  0  0  0  0  0  0  0  0
  2  1  1  6
  2  3  1  0
  2 17  1  0
  2 20  1  0
  3  4  2  0
  3 15  1  0
  4  5  1  0
  4 13  1  0
  5  6  2  0
  5  7  1  0
  7  8  1  0
  8  9  1  0
  9 10  1  0
 10 11  1  0
 10 12  1  0
 13 14  1  0
 14 15  1  0
 15 16  2  0
 17 18  1  0
 18 19  1  0
 19 20  1  0
M  END
