
     RDKit          3D

 20 21  0  0  0  0  0  0  0  0999 V2000
   -5.9320   -0.2660    1.5740 O   0  0  0  0  0  0  0  0  0  0  0  0
   -5.1170   -0.6700    0.7190 C   0  0  0  0  0  0  0  0  0  0  0  0
   -3.6400   -0.8680    1.0200 C   0  0  0  0  0  0  0  0  0  0  0  0
   -3.0880   -0.5580   -0.3420 C   0  0  2  0  0  0  0  0  0  0  0  0
   -4.0490   -1.2120   -1.2590 C   0  0  0  0  0  0  0  0  0  0  0  0
   -5.3160   -1.0140   -0.5880 O   0  0  0  0  0  0  0  0  0  0  0  0
   -1.7290   -0.8710   -0.5260 O   0  0  0  0  0  0  0  0  0  0  0  0
   -1.1390   -0.0640    0.3860 C   0  0  1  0  0  0  0  0  0  0  0  0
    0.2570    0.2370    0.5290 C   0  0  0  0  0  0  0  0  0  0  0  0
    0.8750   -0.1150    1.6090 O   0  0  0  0  0  0  0  0  0  0  0  0
    1.0930    0.9460   -0.4100 N   0  0  0  0  0  0  0  0  0  0  0  0
    2.4150    1.3490   -0.3650 C   0  0  0  0  0  0  0  0  0  0  0  0
    3.6310    0.5470   -0.3360 C   0  0  0  0  0  0  0  0  0  0  0  0
    3.8030   -0.3200    0.6940 O   0  0  0  0  0  0  0  0  0  0  0  0
    5.4000   -1.0350    0.6810 P   0  0  0  0  0  0  0  0  0  0  0  0
    5.7430   -1.9510   -0.7400 O   0  0  0  0  0  0  0  0  0  0  0  0
    6.6260    0.1580    1.0080 O   0  0  0  0  0  0  0  0  0  0  0  0
   -1.8820    1.2560    0.3360 N   0  0  0  0  0  0  0  0  0  0  0  0
   -3.0180    0.9410   -0.4810 C   0  0  0  0  0  0  0  0  0  0  0  0
   -3.7760    1.6450   -1.1400 O   0  0  0  0  0  0  0  0  0  0  0  0
  1  2  2  0
  2  3  1  0
  2  6  1  0
  4  3  1  1
  4  5  1  0
  4  7  1  0
  4 19  1  0
  5  6  1  0
  7  8  1  0
  8  9  1  6
  8 18  1  0
  9 10  2  0
  9 11  1  0
 11 12  1  0
 12 13  1  0
 13 14  1  0
 14 15  1  0
 15 16  1  0
 15 17  1  0
 18 19  1  0
 19 20  2  0
M  END
