
     RDKit          3D

 10  9  0  0  0  0  0  0  0  0999 V2000
    3.0880   -0.1440    0.2680 N   0  0  0  0  0  0  0  0  0  0  0  0
    1.6790   -0.0640    0.1170 C   0  0  0  0  0  0  0  0  0  0  0  0
    1.1620    1.0140   -0.6530 N   0  0  0  0  0  0  0  0  0  0  0  0
    0.9000   -0.9470    0.6660 N   0  0  0  0  0  0  0  0  0  0  0  0
   -0.5040   -0.9030    0.5390 C   0  0  0  0  0  0  0  0  0  0  0  0
   -1.3040   -2.3200    0.2720 S   0  0  0  0  0  0  0  0  0  0  0  0
   -1.2620    0.2960    0.6300 N   0  0  0  0  0  0  0  0  0  0  0  0
   -2.9780    0.2780    0.4660 S   0  0  2  0  0  0  0  0  0  0  0  0
   -3.5620    1.4130    1.2710 O   0  0  0  0  0  0  0  0  0  0  0  0
   -3.5510   -0.9950    1.0310 O   0  0  0  0  0  0  0  0  0  0  0  0
  1  2  1  0
  2  3  1  0
  2  4  2  3
  4  5  1  0
  5  6  2  0
  5  7  1  0
  8  7  1  1
  8  9  2  0
  8 10  2  0
M  CHG  1   4   1
M  END
