
     RDKit          3D

 11 11  0  0  0  0  0  0  0  0999 V2000
    3.2690   -0.1490   -0.2440 C   0  0  0  0  0  0  0  0  0  0  0  0
    2.0260   -0.7260    0.0080 O   0  0  0  0  0  0  0  0  0  0  0  0
    0.8160   -0.0630   -0.0530 C   0  0  0  0  0  0  0  0  0  0  0  0
    0.6820    1.2700   -0.3740 C   0  0  0  0  0  0  0  0  0  0  0  0
   -0.5850    1.8410   -0.4060 C   0  0  0  0  0  0  0  0  0  0  0  0
   -0.6640    3.4310   -0.7960 S   0  0  0  0  0  0  0  0  0  0  0  0
   -1.6830    1.1200   -0.1300 N   0  0  0  0  0  0  0  0  0  0  0  0
   -1.5920   -0.1640    0.1820 C   0  0  0  0  0  0  0  0  0  0  0  0
   -2.8380   -0.9520    0.4870 C   0  0  0  0  0  0  0  0  0  0  0  0
   -0.3430   -0.7610    0.2220 C   0  0  0  0  0  0  0  0  0  0  0  0
   -0.2590   -2.1140    0.5530 O   0  0  0  0  0  0  0  0  0  0  0  0
  1  2  1  0
  2  3  1  0
  3  4  2  0
  3 10  1  0
  4  5  1  0
  5  6  2  0
  5  7  1  0
  7  8  1  0
  8  9  1  0
  8 10  2  0
 10 11  1  0
M  END
