
     RDKit          3D

  9  9  0  0  0  0  0  0  0  0999 V2000
    2.5950    0.2550    0.1770 N   0  0  0  0  0  0  0  0  0  0  0  0
    1.6860   -0.7870   -0.0280 N   0  0  0  0  0  0  0  0  0  0  0  0
    0.3630   -0.2790    0.1970 C   0  0  2  0  0  0  0  0  0  0  0  0
   -0.6670   -1.2790    0.0140 N   0  0  0  0  0  0  0  0  0  0  0  0
   -2.1200   -0.3570    0.3090 S   0  0  2  0  0  0  0  0  0  0  0  0
   -2.2110   -0.1320    1.7850 O   0  0  0  0  0  0  0  0  0  0  0  0
   -3.3030   -1.0860   -0.2410 O   0  0  0  0  0  0  0  0  0  0  0  0
   -1.8540    1.1960   -0.5290 C   0  0  0  0  0  0  0  0  0  0  0  0
   -0.1060    0.9610   -1.0470 S   0  0  0  0  0  0  0  0  0  0  0  0
  1  2  1  0
  3  2  1  6
  3  4  1  0
  3  9  1  0
  4  5  1  0
  5  6  2  0
  5  7  2  0
  5  8  1  6
  8  9  1  0
M  CHG  1   1   1
M  END
