
     RDKit          3D

 10  9  0  0  0  0  0  0  0  0999 V2000
   -2.5030   -0.9480    1.4560 O   0  0  0  0  0  0  0  0  0  0  0  0
   -2.9120   -0.4050    0.4050 N   0  0  0  0  0  0  0  0  0  0  0  0
   -2.1490    0.6010   -0.1700 N   0  0  0  0  0  0  0  0  0  0  0  0
   -0.9500    0.2620   -0.7860 N   0  0  0  0  0  0  0  0  0  0  0  0
    0.2690    0.0930   -0.0620 C   0  0  0  0  0  0  0  0  0  0  0  0
    0.2810    0.2520    1.1920 O   0  0  0  0  0  0  0  0  0  0  0  0
    1.4430   -0.2490   -0.7740 N   0  0  0  0  0  0  0  0  0  0  0  0
    2.6650   -0.4210   -0.0820 C   0  0  0  0  0  0  0  0  0  0  0  0
    4.0140   -0.8140   -0.8960 S   0  0  0  0  0  0  0  0  0  0  0  0
    2.7090   -0.2090    1.6730 S   0  0  0  0  0  0  0  0  0  0  0  0
  1  2  2  0
  2  3  1  0
  3  4  1  0
  4  5  1  0
  5  6  2  0
  5  7  1  0
  7  8  1  0
  8  9  2  0
  8 10  1  0
M  CHG  1   2   1
M  END
