
     RDKit          3D

 10 10  0  0  0  0  0  0  0  0999 V2000
    2.2830   -0.4590    0.4290 N   0  0  0  0  0  0  0  0  0  0  0  0
    1.4750   -0.2990   -0.6640 N   0  0  0  0  0  0  0  0  0  0  0  0
    0.1200    0.0240   -0.4010 C   0  0  2  0  0  0  0  0  0  0  0  0
   -0.1070    1.2330    0.3150 N   0  0  0  0  0  0  0  0  0  0  0  0
   -1.5110    1.4210    0.4580 C   0  0  0  0  0  0  0  0  0  0  0  0
   -2.3670    2.7700    0.6930 S   0  0  0  0  0  0  0  0  0  0  0  0
   -2.1670   -0.2250    0.3180 S   0  0  2  0  0  0  0  0  0  0  0  0
   -2.8480   -0.3580   -0.9860 O   0  0  0  0  0  0  0  0  0  0  0  0
   -2.9570   -0.6030    1.4930 O   0  0  0  0  0  0  0  0  0  0  0  0
   -0.6160   -1.0490    0.2660 N   0  0  0  0  0  0  0  0  0  0  0  0
  1  2  1  0
  3  2  1  1
  3  4  1  0
  3 10  1  0
  4  5  1  0
  5  6  2  0
  5  7  1  0
  7  8  2  0
  7  9  2  0
  7 10  1  6
M  CHG  1   1   1
M  END
