
     RDKit          3D

  9  9  0  0  0  0  0  0  0  0999 V2000
   -1.8810    0.1170   -1.1540 N   0  0  0  0  0  0  0  0  0  0  0  0
   -0.7020    0.0130   -0.2890 C   0  0  1  0  0  0  0  0  0  0  0  0
   -1.0760    0.5910    0.9860 N   0  0  0  0  0  0  0  0  0  0  0  0
   -0.3470   -1.3670   -0.2090 N   0  0  0  0  0  0  0  0  0  0  0  0
    1.1360   -1.6910    0.6230 S   0  0  0  0  0  0  0  0  0  0  0  0
    2.3700   -0.4810    0.4000 N   0  0  0  0  0  0  0  0  0  0  0  0
    2.0850    0.8140   -0.0990 C   0  0  0  0  0  0  0  0  0  0  0  0
    2.8700    1.7950    0.0960 O   0  0  0  0  0  0  0  0  0  0  0  0
    0.5820    1.0470   -1.0220 S   0  0  0  0  0  0  0  0  0  0  0  0
  2  1  1  6
  2  3  1  0
  2  4  1  0
  2  9  1  0
  4  5  1  0
  5  6  1  0
  6  7  1  0
  7  8  2  0
  7  9  1  0
M  CHG  1   3   1
M  END
