
     RDKit          3D

 10  9  0  0  0  0  0  0  0  0999 V2000
   -2.1670    1.5330    0.7720 N   0  0  0  0  0  0  0  0  0  0  0  0
   -0.9570    0.8080    0.7130 C   0  0  0  0  0  0  0  0  0  0  0  0
    0.3370    1.4300    1.4740 S   0  0  0  0  0  0  0  0  0  0  0  0
   -0.8180   -0.4510    0.0120 C   0  0  0  0  0  0  0  0  0  0  0  0
   -1.9730   -0.9590   -0.6400 N   0  0  0  0  0  0  0  0  0  0  0  0
    0.2800   -1.1050   -0.0400 N   0  0  0  0  0  0  0  0  0  0  0  0
    1.4630   -0.6760    0.5740 N   0  0  0  0  0  0  0  0  0  0  0  0
    2.7530    0.0690   -0.2960 S   0  0  1  0  0  0  0  0  0  0  0  0
    2.1480    0.8180   -1.4580 O   0  0  0  0  0  0  0  0  0  0  0  0
    3.5360    1.0170    0.5560 O   0  0  0  0  0  0  0  0  0  0  0  0
  1  2  1  0
  2  3  2  0
  2  4  1  0
  4  5  1  0
  4  6  2  3
  6  7  1  0
  8  7  1  1
  8  9  2  0
  8 10  2  0
M  CHG  1   6   1
M  END
