
     RDKit          3D

 18 18  0  0  0  0  0  0  0  0999 V2000
    4.5030    1.8060   -1.2170 C   0  0  0  0  0  0  0  0  0  0  0  0
    3.2290    2.2480   -0.5380 C   0  0  0  0  0  0  0  0  0  0  0  0
    2.5220    1.1260    0.1550 C   0  0  0  0  0  0  0  0  0  0  0  0
    2.1260    0.0160   -0.7920 C   0  0  0  0  0  0  0  0  0  0  0  0
    1.4330   -1.0490   -0.0230 C   0  0  0  0  0  0  0  0  0  0  0  0
    2.0210   -2.0040    0.8160 C   0  0  0  0  0  0  0  0  0  0  0  0
    3.4880   -2.0700    1.0510 C   0  0  0  0  0  0  0  0  0  0  0  0
    1.0680   -2.7550    1.3010 O   0  0  0  0  0  0  0  0  0  0  0  0
   -0.1180   -2.4020    0.8700 C   0  0  0  0  0  0  0  0  0  0  0  0
   -1.3950   -3.0650    1.2440 C   0  0  0  0  0  0  0  0  0  0  0  0
    0.0930   -1.3320    0.0380 C   0  0  0  0  0  0  0  0  0  0  0  0
   -0.9480   -0.5810   -0.6930 C   0  0  0  0  0  0  0  0  0  0  0  0
   -1.2250   -1.0100   -1.8430 O   0  0  0  0  0  0  0  0  0  0  0  0
   -1.5860    0.5900   -0.0610 C   0  0  0  0  0  0  0  0  0  0  0  0
   -2.6720    1.1800   -0.9020 C   0  0  2  0  0  0  0  0  0  0  0  0
   -3.2700    2.4160   -0.2160 C   0  0  0  0  0  0  0  0  0  0  0  0
   -3.7750    0.1660   -1.1320 C   0  0  0  0  0  0  0  0  0  0  0  0
   -4.4240   -0.3230    0.1180 C   0  0  0  0  0  0  0  0  0  0  0  0
  1  2  1  0
  2  3  1  0
  3  4  1  0
  4  5  1  0
  5  6  2  0
  5 11  1  0
  6  7  1  0
  6  8  1  0
  8  9  1  0
  9 10  1  0
  9 11  2  0
 11 12  1  0
 12 13  2  0
 12 14  1  0
 14 15  1  0
 15 16  1  1
 15 17  1  0
 17 18  1  0
M  END
