
     RDKit          3D

 18 18  0  0  0  0  0  0  0  0999 V2000
   -0.4020    3.8340   -1.2190 C   0  0  0  0  0  0  0  0  0  0  0  0
   -1.5950    2.9880   -1.0750 C   0  0  1  0  0  0  0  0  0  0  0  0
   -2.6600    3.5030   -2.0970 C   0  0  0  0  0  0  0  0  0  0  0  0
   -1.5780    1.5540   -1.1870 C   0  0  0  0  0  0  0  0  0  0  0  0
   -0.7690    0.6830   -0.2180 C   0  0  2  0  0  0  0  0  0  0  0  0
    0.6450    0.9950   -0.3140 C   0  0  0  0  0  0  0  0  0  0  0  0
    1.5690    0.3040    0.6190 C   0  0  0  0  0  0  0  0  0  0  0  0
    1.7410    0.8190    1.9320 C   0  0  0  0  0  0  0  0  0  0  0  0
    2.6450   -0.0010    2.5620 C   0  0  0  0  0  0  0  0  0  0  0  0
    2.9900   -0.9600    1.6560 C   0  0  0  0  0  0  0  0  0  0  0  0
    3.9650   -2.0650    1.9450 C   0  0  0  0  0  0  0  0  0  0  0  0
    4.1210   -2.8910    0.8360 O   0  0  0  0  0  0  0  0  0  0  0  0
    2.3350   -0.7200    0.5690 O   0  0  0  0  0  0  0  0  0  0  0  0
   -1.2210   -0.6870   -0.5400 C   0  0  0  0  0  0  0  0  0  0  0  0
   -0.7630   -1.9190    0.0470 C   0  0  2  0  0  0  0  0  0  0  0  0
   -0.8360   -2.0690    1.5480 C   0  0  0  0  0  0  0  0  0  0  0  0
    0.3790   -2.6140   -0.6240 C   0  0  0  0  0  0  0  0  0  0  0  0
   -1.9710   -2.9430   -0.3370 C   0  0  0  0  0  0  0  0  0  0  0  0
  2  1  1  6
  2  3  1  0
  2  4  1  0
  5  4  1  6
  5  6  1  0
  5 14  1  0
  6  7  1  0
  7  8  2  0
  7 13  1  0
  8  9  1  0
  9 10  2  0
 10 11  1  0
 10 13  1  0
 11 12  1  0
 14 15  1  0
 15 16  1  1
 15 17  1  0
 15 18  1  0
M  END
