
     RDKit          3D

 18 17  0  0  0  0  0  0  0  0999 V2000
    5.8130   -0.6080    1.4270 C   0  0  0  0  0  0  0  0  0  0  0  0
    5.7260   -1.1600    0.0160 C   0  0  0  0  0  0  0  0  0  0  0  0
    4.4010   -1.7920   -0.2650 C   0  0  0  0  0  0  0  0  0  0  0  0
    3.2310   -0.8400   -0.1190 C   0  0  0  0  0  0  0  0  0  0  0  0
    3.3930    0.3060   -1.0800 C   0  0  0  0  0  0  0  0  0  0  0  0
    2.2740    1.2930   -0.9850 C   0  0  0  0  0  0  0  0  0  0  0  0
    0.9780    0.6290   -1.2940 C   0  0  0  0  0  0  0  0  0  0  0  0
   -0.2030    1.5600   -1.2300 C   0  0  0  0  0  0  0  0  0  0  0  0
   -0.3870    2.1880    0.1270 C   0  0  0  0  0  0  0  0  0  0  0  0
   -0.6000    1.1460    1.1760 C   0  0  0  0  0  0  0  0  0  0  0  0
   -1.8300    0.3090    0.8820 C   0  0  0  0  0  0  0  0  0  0  0  0
   -3.0280    1.1990    0.8400 C   0  0  0  0  0  0  0  0  0  0  0  0
   -4.2580    0.3820    0.5730 C   0  0  0  0  0  0  0  0  0  0  0  0
   -4.1780   -0.3240   -0.7330 C   0  0  0  0  0  0  0  0  0  0  0  0
   -5.5090   -1.0950   -0.8770 C   0  0  0  0  0  0  0  0  0  0  0  0
   -5.5570   -2.0220    0.2810 C   0  0  0  0  0  0  0  0  0  0  0  0
   -4.8500   -3.0580    0.2350 O   0  0  0  0  0  0  0  0  0  0  0  0
   -6.3310   -1.8160    1.4080 O   0  0  0  0  0  0  0  0  0  0  0  0
  1  2  1  0
  2  3  1  0
  3  4  1  0
  4  5  1  0
  5  6  1  0
  6  7  1  0
  7  8  1  0
  8  9  1  0
  9 10  1  0
 10 11  1  0
 11 12  1  0
 12 13  1  0
 13 14  1  0
 14 15  1  0
 15 16  1  0
 16 17  2  0
 16 18  1  0
M  END
