
     RDKit          3D

 19 21  0  0  0  0  0  0  0  0999 V2000
    5.0450    1.3440    1.3470 N   0  0  0  0  0  0  0  0  0  0  0  0
    4.1320    0.9530    0.5100 C   0  0  0  0  0  0  0  0  0  0  0  0
    2.8350    1.5000    0.3060 N   0  0  0  0  0  0  0  0  0  0  0  0
    2.2080    0.7340   -0.7130 C   0  0  0  0  0  0  0  0  0  0  0  0
    0.8370    1.0010   -1.2070 C   0  0  0  0  0  0  0  0  0  0  0  0
   -0.1250    0.8780   -0.0970 N   0  0  1  0  0  0  0  0  0  0  0  0
   -1.1640    1.8070   -0.3460 C   0  0  0  0  0  0  0  0  0  0  0  0
   -2.4430    1.5320    0.4120 C   0  0  0  0  0  0  0  0  0  0  0  0
   -2.8980    0.1710   -0.1250 C   0  0  2  0  0  0  0  0  0  0  0  0
   -4.1340   -0.1200    0.3980 O   0  0  0  0  0  0  0  0  0  0  0  0
   -4.5340   -1.4060    0.1020 C   0  0  0  0  0  0  0  0  0  0  0  0
   -3.4460   -2.4250    0.3050 C   0  0  0  0  0  0  0  0  0  0  0  0
   -2.2360   -2.0590   -0.2540 O   0  0  0  0  0  0  0  0  0  0  0  0
   -1.8790   -0.8200    0.3230 C   0  0  1  0  0  0  0  0  0  0  0  0
   -0.4710   -0.4810    0.0280 C   0  0  0  0  0  0  0  0  0  0  0  0
    3.0150   -0.2100   -1.1230 N   0  0  0  0  0  0  0  0  0  0  0  0
    4.2390   -0.1560   -0.4220 C   0  0  0  0  0  0  0  0  0  0  0  0
    5.2770   -0.9570   -0.5820 C   0  0  0  0  0  0  0  0  0  0  0  0
    5.2820   -1.9900   -1.5010 O   0  0  0  0  0  0  0  0  0  0  0  0
  1  2  2  0
  2  3  1  0
  2 17  1  0
  3  4  1  0
  4  5  1  0
  4 16  2  0
  6  5  1  6
  6  7  1  0
  6 15  1  0
  7  8  1  0
  9  8  1  1
  9 10  1  0
  9 14  1  0
 10 11  1  0
 11 12  1  0
 12 13  1  0
 13 14  1  0
 14 15  1  6
 16 17  1  0
 17 18  2  3
 18 19  1  0
M  CHG  1   6   1
M  END
