
     RDKit          3D

 18 18  0  0  0  0  0  0  0  0999 V2000
   -4.7140    1.4090    0.4860 C   0  0  0  0  0  0  0  0  0  0  0  0
   -4.8000    0.0420   -0.1830 C   0  0  0  0  0  0  0  0  0  0  0  0
   -3.8360   -0.9160    0.4410 C   0  0  0  0  0  0  0  0  0  0  0  0
   -2.4490   -0.3760    0.2830 C   0  0  0  0  0  0  0  0  0  0  0  0
   -1.3830   -1.2960    0.8960 C   0  0  0  0  0  0  0  0  0  0  0  0
   -0.0880   -0.6130    0.6390 C   0  0  0  0  0  0  0  0  0  0  0  0
    0.3940    0.2130    1.6690 C   0  0  0  0  0  0  0  0  0  0  0  0
    1.5320    0.9520    1.5060 C   0  0  0  0  0  0  0  0  0  0  0  0
    2.0610    1.8390    2.5910 C   0  0  0  0  0  0  0  0  0  0  0  0
    2.1880    0.8560    0.2920 C   0  0  0  0  0  0  0  0  0  0  0  0
    3.3390    1.6150    0.1480 O   0  0  0  0  0  0  0  0  0  0  0  0
    4.0390    1.5490   -1.0670 C   0  0  0  0  0  0  0  0  0  0  0  0
    5.2650    2.4050   -1.1150 C   0  0  0  0  0  0  0  0  0  0  0  0
    1.7340    0.0540   -0.7260 C   0  0  0  0  0  0  0  0  0  0  0  0
    0.5680   -0.7040   -0.5560 C   0  0  0  0  0  0  0  0  0  0  0  0
    0.1240   -1.6300   -1.6110 C   0  0  0  0  0  0  0  0  0  0  0  0
    0.6980   -3.0030   -1.3320 C   0  0  0  0  0  0  0  0  0  0  0  0
    0.2580   -3.8870   -2.3380 O   0  0  0  0  0  0  0  0  0  0  0  0
  1  2  1  0
  2  3  1  0
  3  4  1  0
  4  5  1  0
  5  6  1  0
  6  7  2  0
  6 15  1  0
  7  8  1  0
  8  9  1  0
  8 10  2  0
 10 11  1  0
 10 14  1  0
 11 12  1  0
 12 13  1  0
 14 15  2  0
 15 16  1  0
 16 17  1  0
 17 18  1  0
M  END
