
     RDKit          3D

 18 18  0  0  0  0  0  0  0  0999 V2000
    5.4010    0.8200   -2.4540 C   0  0  0  0  0  0  0  0  0  0  0  0
    5.0710   -0.1360   -1.5990 C   0  0  0  0  0  0  0  0  0  0  0  0
    3.6680   -0.6860   -1.5240 C   0  0  0  0  0  0  0  0  0  0  0  0
    3.1970   -0.4220   -0.1160 C   0  0  0  0  0  0  0  0  0  0  0  0
    1.7880   -0.9270    0.1300 C   0  0  0  0  0  0  0  0  0  0  0  0
    1.4440   -0.6120    1.5470 C   0  0  0  0  0  0  0  0  0  0  0  0
    0.0790   -1.0480    1.9700 C   0  0  0  0  0  0  0  0  0  0  0  0
   -1.0240   -0.4370    1.1900 C   0  0  0  0  0  0  0  0  0  0  0  0
   -1.6560   -1.2060    0.2380 C   0  0  0  0  0  0  0  0  0  0  0  0
   -2.6970   -0.7310   -0.5420 C   0  0  0  0  0  0  0  0  0  0  0  0
   -3.3670   -1.6000   -1.5730 C   0  0  0  0  0  0  0  0  0  0  0  0
   -2.7550   -2.8510   -1.5510 O   0  0  0  0  0  0  0  0  0  0  0  0
   -3.1260    0.5680   -0.3640 C   0  0  0  0  0  0  0  0  0  0  0  0
   -4.2400    1.1240   -1.1760 C   0  0  0  0  0  0  0  0  0  0  0  0
   -2.5010    1.3470    0.5860 C   0  0  0  0  0  0  0  0  0  0  0  0
   -1.4510    0.8650    1.3720 C   0  0  0  0  0  0  0  0  0  0  0  0
   -0.8350    1.6660    2.3240 O   0  0  0  0  0  0  0  0  0  0  0  0
   -1.2910    2.9980    2.4900 C   0  0  0  0  0  0  0  0  0  0  0  0
  1  2  2  0
  2  3  1  0
  3  4  1  0
  4  5  1  0
  5  6  1  0
  6  7  1  0
  7  8  1  0
  8  9  2  0
  8 16  1  0
  9 10  1  0
 10 11  1  0
 10 13  2  0
 11 12  1  0
 13 14  1  0
 13 15  1  0
 15 16  2  0
 16 17  1  0
 17 18  1  0
M  END
