
     RDKit          3D

 18 18  0  0  0  0  0  0  0  0999 V2000
    4.7470    1.7380    0.9160 C   0  0  0  0  0  0  0  0  0  0  0  0
    5.0360    0.4620    0.1520 C   0  0  0  0  0  0  0  0  0  0  0  0
    3.7470    0.0090   -0.5380 C   0  0  0  0  0  0  0  0  0  0  0  0
    2.7090   -0.2300    0.5440 C   0  0  0  0  0  0  0  0  0  0  0  0
    1.4070   -0.6850   -0.1160 C   0  0  0  0  0  0  0  0  0  0  0  0
    0.3780   -0.9260    0.9110 C   0  0  0  0  0  0  0  0  0  0  0  0
    0.6800   -0.7490    2.1150 O   0  0  0  0  0  0  0  0  0  0  0  0
   -0.9540   -1.3580    0.5980 C   0  0  0  0  0  0  0  0  0  0  0  0
   -1.3630   -2.6980    0.4680 C   0  0  0  0  0  0  0  0  0  0  0  0
   -0.4330   -3.8490    0.6120 C   0  0  0  0  0  0  0  0  0  0  0  0
   -2.6220   -2.6610    0.2190 O   0  0  0  0  0  0  0  0  0  0  0  0
   -3.1000   -1.4560    0.1670 C   0  0  0  0  0  0  0  0  0  0  0  0
   -4.5110   -1.1340   -0.1030 C   0  0  0  0  0  0  0  0  0  0  0  0
   -2.0510   -0.5540    0.4090 C   0  0  0  0  0  0  0  0  0  0  0  0
   -2.1930    0.9120    0.4360 C   0  0  0  0  0  0  0  0  0  0  0  0
   -1.7460    1.6340   -0.7840 C   0  0  2  0  0  0  0  0  0  0  0  0
   -1.9850    3.1340   -0.5380 C   0  0  0  0  0  0  0  0  0  0  0  0
   -2.6700    1.2930   -1.9580 C   0  0  0  0  0  0  0  0  0  0  0  0
  1  2  1  0
  2  3  1  0
  3  4  1  0
  4  5  1  0
  5  6  1  0
  6  7  2  0
  6  8  1  0
  8  9  2  0
  8 14  1  0
  9 10  1  0
  9 11  1  0
 11 12  1  0
 12 13  1  0
 12 14  2  0
 14 15  1  0
 15 16  1  0
 16 17  1  1
 16 18  1  0
M  END
