
     RDKit          3D

 21 21  0  0  0  0  0  0  0  0999 V2000
    7.1640    1.2410   -1.1330 O   0  0  0  0  0  0  0  0  0  0  0  0
    6.5050    0.6910   -0.2040 C   0  0  0  0  0  0  0  0  0  0  0  0
    7.0670    0.0340    0.8680 O   0  0  0  0  0  0  0  0  0  0  0  0
    5.0880    0.7780   -0.3030 N   0  0  0  0  0  0  0  0  0  0  0  0
    4.3740    1.4170   -1.3380 C   0  0  2  0  0  0  0  0  0  0  0  0
    3.3890    2.3960   -0.8170 N   0  0  0  0  0  0  0  0  0  0  0  0
    2.4750    1.7560   -0.0360 N   0  0  0  0  0  0  0  0  0  0  0  0
    1.9010    0.8020   -0.5310 C   0  0  0  0  0  0  0  0  0  0  0  0
    0.9410    0.1300    0.2110 N   0  0  0  0  0  0  0  0  0  0  0  0
   -0.0160   -0.6810   -0.4310 C   0  0  0  0  0  0  0  0  0  0  0  0
    0.0270   -0.6830   -1.6700 O   0  0  0  0  0  0  0  0  0  0  0  0
   -1.0010   -1.4730    0.3250 C   0  0  0  0  0  0  0  0  0  0  0  0
   -2.6460   -0.7490    0.2070 S   0  0  0  0  0  0  0  0  0  0  0  0
   -3.7600   -1.7380    1.1760 C   0  0  0  0  0  0  0  0  0  0  0  0
   -3.2210   -3.0380    1.9990 S   0  0  0  0  0  0  0  0  0  0  0  0
   -5.1360   -1.4110    1.2470 N   0  0  0  0  0  0  0  0  0  0  0  0
   -5.6680   -0.3020    0.5620 C   0  0  0  0  0  0  0  0  0  0  0  0
   -4.9090    0.4120   -0.1220 O   0  0  0  0  0  0  0  0  0  0  0  0
   -7.1330    0.0440    0.6350 C   0  0  0  0  0  0  0  0  0  0  0  0
   -7.9190   -1.1900    1.6520 Cl  0  0  0  0  0  0  0  0  0  0  0  0
    2.9600    0.4040   -1.9830 S   0  0  0  0  0  0  0  0  0  0  0  0
  1  2  2  0
  2  3  1  0
  2  4  1  0
  5  4  1  1
  5  6  1  0
  5 21  1  0
  6  7  1  0
  7  8  2  0
  8  9  1  0
  8 21  1  0
  9 10  1  0
 10 11  2  0
 10 12  1  0
 12 13  1  0
 13 14  1  0
 14 15  2  0
 14 16  1  0
 16 17  1  0
 17 18  2  0
 17 19  1  0
 19 20  1  0
M  END
