
     RDKit          3D

 21 21  0  0  0  0  0  0  0  0999 V2000
   -2.9040    0.8050   -0.2990 N   0  0  0  0  0  0  0  0  0  0  0  0
   -3.0480   -0.4320   -0.0020 C   0  0  0  0  0  0  0  0  0  0  0  0
   -2.0380   -1.3500   -0.3790 N   0  0  0  0  0  0  0  0  0  0  0  0
   -0.6700   -1.0590   -0.3020 N   0  0  0  0  0  0  0  0  0  0  0  0
   -0.0910   -0.0910    0.5440 C   0  0  0  0  0  0  0  0  0  0  0  0
   -0.8150    0.5910    1.3000 O   0  0  0  0  0  0  0  0  0  0  0  0
    1.3920    0.1490    0.5690 C   0  0  0  0  0  0  0  0  0  0  0  0
    2.1920   -0.9860   -0.5440 S   0  0  0  0  0  0  0  0  0  0  0  0
    3.9490   -0.8410   -0.6120 C   0  0  0  0  0  0  0  0  0  0  0  0
    4.6950   -1.6560   -1.4100 N   0  0  0  0  0  0  0  0  0  0  0  0
    6.0260   -1.5690   -1.4800 C   0  0  0  0  0  0  0  0  0  0  0  0
    6.6920   -0.6440   -0.7420 N   0  0  0  0  0  0  0  0  0  0  0  0
    6.0410    0.1970    0.0670 C   0  0  0  0  0  0  0  0  0  0  0  0
    6.7030    1.1620    0.8400 O   0  0  0  0  0  0  0  0  0  0  0  0
    4.6470    0.0820    0.1200 C   0  0  0  0  0  0  0  0  0  0  0  0
    3.8300    1.2120    1.1920 Cl  0  0  0  0  0  0  0  0  0  0  0  0
   -4.4970   -0.9670    0.8680 S   0  0  0  0  0  0  0  0  0  0  0  0
   -5.5560    0.4540    1.1950 C   0  0  0  0  0  0  0  0  0  0  0  0
   -6.1900    1.0650   -0.3420 S   0  0  1  0  0  0  0  0  0  0  0  0
   -7.5510    0.4090   -0.5310 O   0  0  0  0  0  0  0  0  0  0  0  0
   -6.3460    2.5680   -0.3160 O   0  0  0  0  0  0  0  0  0  0  0  0
  1  2  2  0
  2  3  1  0
  2 17  1  0
  3  4  1  0
  4  5  1  0
  5  6  2  0
  5  7  1  0
  7  8  1  0
  8  9  1  0
  9 10  2  0
  9 15  1  0
 10 11  1  0
 11 12  2  0
 12 13  1  0
 13 14  1  0
 13 15  2  0
 15 16  1  0
 17 18  1  0
 19 18  1  1
 19 20  2  0
 19 21  2  0
M  END
