
     RDKit          3D

 22 22  0  0  0  0  0  0  0  0999 V2000
    6.5840    0.4360    0.6130 N   0  0  0  0  0  0  0  0  0  0  0  0
    5.2910    0.6870    0.0140 C   0  0  0  0  0  0  0  0  0  0  0  0
    4.3190   -0.2380    0.5760 N   0  0  0  0  0  0  0  0  0  0  0  0
    2.9590   -0.1850    0.1380 C   0  0  0  0  0  0  0  0  0  0  0  0
    2.6090    0.6530   -0.7240 O   0  0  0  0  0  0  0  0  0  0  0  0
    2.0360   -1.0840    0.6900 N   0  0  0  0  0  0  0  0  0  0  0  0
    0.6670   -1.1610    0.3680 C   0  0  0  0  0  0  0  0  0  0  0  0
   -0.2520   -2.3130    1.1510 S   0  0  0  0  0  0  0  0  0  0  0  0
   -0.0220   -0.3590   -0.5590 N   0  0  0  0  0  0  0  0  0  0  0  0
   -1.4050   -0.5410   -0.7900 C   0  0  0  0  0  0  0  0  0  0  0  0
   -1.8450   -1.4110   -1.7620 C   0  0  0  0  0  0  0  0  0  0  0  0
   -0.9150   -2.0840   -2.4880 F   0  0  0  0  0  0  0  0  0  0  0  0
   -3.1920   -1.5540   -1.9490 C   0  0  0  0  0  0  0  0  0  0  0  0
   -4.0760   -0.8790   -1.2200 N   0  0  0  0  0  0  0  0  0  0  0  0
   -3.7080   -0.0150   -0.2570 C   0  0  0  0  0  0  0  0  0  0  0  0
   -4.9570    0.7950    0.6140 S   0  0  1  0  0  0  0  0  0  0  0  0
   -6.1080   -0.1600    0.7280 O   0  0  0  0  0  0  0  0  0  0  0  0
   -4.6670    0.9270    2.0740 O   0  0  0  0  0  0  0  0  0  0  0  0
   -5.2990    2.4690   -0.4500 S   0  0  0  0  0  0  0  0  0  0  0  0
   -4.9300    3.6760    0.2580 O   0  0  0  0  0  0  0  0  0  0  0  0
   -2.3650    0.1420   -0.0540 C   0  0  0  0  0  0  0  0  0  0  0  0
   -1.8620    1.2600    1.1950 Cl  0  0  0  0  0  0  0  0  0  0  0  0
  1  2  1  0
  2  3  1  0
  3  4  1  0
  4  5  2  0
  4  6  1  0
  6  7  1  0
  7  8  2  0
  7  9  1  0
  9 10  1  0
 10 11  2  0
 10 21  1  0
 11 12  1  0
 11 13  1  0
 13 14  2  0
 14 15  1  0
 15 16  1  0
 15 21  2  0
 16 17  2  0
 16 18  2  0
 16 19  1  6
 19 20  2  0
 21 22  1  0
M  END
