
     RDKit          3D

 22 23  0  0  0  0  0  0  0  0999 V2000
    4.2490    2.1380   -0.8610 N   0  0  0  0  0  0  0  0  0  0  0  0
    3.4350    1.2150   -0.1670 C   0  0  0  0  0  0  0  0  0  0  0  0
    2.3860    1.6320    0.6020 C   0  0  0  0  0  0  0  0  0  0  0  0
    2.1450    2.9770    0.6810 F   0  0  0  0  0  0  0  0  0  0  0  0
    1.5770    0.7550    1.2890 C   0  0  0  0  0  0  0  0  0  0  0  0
    1.8540   -0.6040    1.1850 C   0  0  0  0  0  0  0  0  0  0  0  0
    0.9150   -1.8090    1.9980 S   0  0  1  0  0  0  0  0  0  0  0  0
    1.8340   -2.9780    2.3140 O   0  0  0  0  0  0  0  0  0  0  0  0
    0.4360   -1.3060    3.3530 O   0  0  0  0  0  0  0  0  0  0  0  0
   -0.4100   -2.3770    1.0600 N   0  0  0  0  0  0  0  0  0  0  0  0
   -1.3890   -1.4150    0.6990 C   0  0  0  0  0  0  0  0  0  0  0  0
   -1.6000   -0.1750    0.8680 N   0  0  0  0  0  0  0  0  0  0  0  0
   -2.6110    0.4180    0.3990 N   0  0  0  0  0  0  0  0  0  0  0  0
   -3.5210   -0.0840   -0.2720 C   0  0  0  0  0  0  0  0  0  0  0  0
   -4.9910    0.3410   -1.0570 S   0  0  1  0  0  0  0  0  0  0  0  0
   -4.6450    0.8200   -2.6760 N   0  0  0  0  0  0  0  0  0  0  0  0
   -5.9620   -0.8160   -1.0440 O   0  0  0  0  0  0  0  0  0  0  0  0
   -5.6340    1.4550   -0.2960 O   0  0  0  0  0  0  0  0  0  0  0  0
   -2.8850   -1.8680   -0.3150 S   0  0  0  0  0  0  0  0  0  0  0  0
    2.9160   -1.0050    0.4050 C   0  0  0  0  0  0  0  0  0  0  0  0
    3.7230   -0.1300   -0.2800 C   0  0  0  0  0  0  0  0  0  0  0  0
    5.0530   -0.6890   -1.2520 Cl  0  0  0  0  0  0  0  0  0  0  0  0
  1  2  1  0
  2  3  2  0
  2 21  1  0
  3  4  1  0
  3  5  1  0
  5  6  2  0
  6  7  1  0
  6 20  1  0
  7  8  2  0
  7  9  2  0
  7 10  1  6
 10 11  1  0
 11 12  2  0
 11 19  1  0
 12 13  1  0
 13 14  2  0
 14 15  1  0
 14 19  1  0
 15 16  1  6
 15 17  2  0
 15 18  2  0
 20 21  2  0
 21 22  1  0
M  END
