
     RDKit          3D

 22 22  0  0  0  0  0  0  0  0999 V2000
    1.6910    0.6380   -0.3570 O   0  0  0  0  0  0  0  0  0  0  0  0
    1.2200   -0.4260   -0.8070 C   0  0  0  0  0  0  0  0  0  0  0  0
    1.9470   -1.4880   -1.5000 C   0  0  0  0  0  0  0  0  0  0  0  0
    3.6920   -1.1730   -1.6220 S   0  0  0  0  0  0  0  0  0  0  0  0
    4.5820   -1.2340   -0.0860 C   0  0  2  0  0  0  0  0  0  0  0  0
    4.0680    0.1450    1.0040 S   0  0  0  0  0  0  0  0  0  0  0  0
    5.3730    1.2670    0.5560 C   0  0  0  0  0  0  0  0  0  0  0  0
    5.5530    2.7700    1.0790 S   0  0  0  0  0  0  0  0  0  0  0  0
    6.1880    0.5530   -0.3390 N   0  0  0  0  0  0  0  0  0  0  0  0
    6.0070   -0.8410   -0.3050 C   0  0  0  0  0  0  0  0  0  0  0  0
    6.9050   -1.7450   -0.4370 O   0  0  0  0  0  0  0  0  0  0  0  0
   -0.1890   -0.6060   -0.6110 N   0  0  0  0  0  0  0  0  0  0  0  0
   -0.9550    0.3700    0.0450 N   0  0  0  0  0  0  0  0  0  0  0  0
   -2.3650    0.3860   -0.0870 C   0  0  0  0  0  0  0  0  0  0  0  0
   -2.9380   -0.4600   -0.7850 O   0  0  0  0  0  0  0  0  0  0  0  0
   -3.1730    1.3790    0.5780 N   0  0  0  0  0  0  0  0  0  0  0  0
   -4.5650    1.3850    0.4380 N   0  0  0  0  0  0  0  0  0  0  0  0
   -5.3630    0.2330    0.6980 C   0  0  0  0  0  0  0  0  0  0  0  0
   -4.7810   -0.8130    1.0630 O   0  0  0  0  0  0  0  0  0  0  0  0
   -6.8290    0.2230    0.5560 C   0  0  1  0  0  0  0  0  0  0  0  0
   -7.3250   -1.0240    0.8740 F   0  0  0  0  0  0  0  0  0  0  0  0
   -7.6080    1.3960    1.6390 Cl  0  0  0  0  0  0  0  0  0  0  0  0
  1  2  2  0
  2  3  1  0
  2 12  1  0
  3  4  1  0
  5  4  1  6
  5  6  1  0
  5 10  1  0
  6  7  1  0
  7  8  2  0
  7  9  1  0
  9 10  1  0
 10 11  2  0
 12 13  1  0
 13 14  1  0
 14 15  2  0
 14 16  1  0
 16 17  1  0
 17 18  1  0
 18 19  2  0
 18 20  1  0
 20 21  1  1
 20 22  1  0
M  END
