
     RDKit          3D

 22 22  0  0  0  0  0  0  0  0999 V2000
   -5.0810   -1.9770   -0.4500 N   0  0  0  0  0  0  0  0  0  0  0  0
   -5.2890   -0.5750   -0.0830 C   0  0  0  0  0  0  0  0  0  0  0  0
   -6.6030   -0.1430    0.0740 N   0  0  0  0  0  0  0  0  0  0  0  0
   -6.4630    1.6160    0.5200 S   0  0  0  0  0  0  0  0  0  0  0  0
   -4.6900    1.6210    0.4590 C   0  0  0  0  0  0  0  0  0  0  0  0
   -4.3040    0.3110    0.1090 C   0  0  0  0  0  0  0  0  0  0  0  0
   -2.8880   -0.0420   -0.0310 N   0  0  0  0  0  0  0  0  0  0  0  0
   -1.8450    0.8400    0.1580 C   0  0  0  0  0  0  0  0  0  0  0  0
   -2.0350    2.0330    0.4700 O   0  0  0  0  0  0  0  0  0  0  0  0
   -0.4320    0.3990   -0.0050 C   0  0  0  0  0  0  0  0  0  0  0  0
   -0.1230   -1.2390   -0.4360 Cl  0  0  0  0  0  0  0  0  0  0  0  0
    0.4980    1.2700    0.1850 C   0  0  0  0  0  0  0  0  0  0  0  0
    1.9240    1.1510    0.1040 C   0  0  0  0  0  0  0  0  0  0  0  0
    2.6190    2.2140    0.3520 O   0  0  0  0  0  0  0  0  0  0  0  0
    2.6980    0.0290   -0.2110 N   0  0  0  0  0  0  0  0  0  0  0  0
    4.1410    0.0780   -0.2500 C   0  0  0  0  0  0  0  0  0  0  0  0
    4.8990    1.4780    0.0820 S   0  0  0  0  0  0  0  0  0  0  0  0
    4.8870   -1.0860   -0.5740 N   0  0  0  0  0  0  0  0  0  0  0  0
    6.6080   -1.0200   -0.6180 S   0  0  1  0  0  0  0  0  0  0  0  0
    7.1600   -2.0090   -1.5910 O   0  0  0  0  0  0  0  0  0  0  0  0
    7.0010    0.4000   -0.9790 O   0  0  0  0  0  0  0  0  0  0  0  0
    7.2460   -1.3890    0.8960 F   0  0  0  0  0  0  0  0  0  0  0  0
  1  2  1  0
  2  3  2  0
  2  6  1  0
  3  4  1  0
  4  5  1  0
  5  6  2  0
  6  7  1  0
  7  8  1  0
  8  9  2  0
  8 10  1  0
 10 11  1  0
 10 12  2  3
 12 13  1  0
 13 14  2  0
 13 15  1  0
 15 16  1  0
 16 17  2  0
 16 18  1  0
 18 19  1  0
 19 20  2  0
 19 21  2  0
 19 22  1  1
M  END
