
     RDKit          3D

 37 42  0  0  0  0  0  0  0  0999 V2000
    9.4100    0.9640   -1.4670 C   0  0  0  0  0  0  0  0  0  0  0  0
    8.0570    1.5230   -1.5670 N   0  0  0  0  0  0  0  0  0  0  0  0
    7.2790    0.8860   -0.5290 C   0  0  0  0  0  0  0  0  0  0  0  0
    5.9320    1.5720   -0.3270 C   0  0  0  0  0  0  0  0  0  0  0  0
    5.2460    0.8130    0.7640 C   0  0  0  0  0  0  0  0  0  0  0  0
    5.4010    1.1630    2.0870 C   0  0  0  0  0  0  0  0  0  0  0  0
    4.7330    0.4090    3.0250 C   0  0  0  0  0  0  0  0  0  0  0  0
    3.9340   -0.6570    2.6970 C   0  0  0  0  0  0  0  0  0  0  0  0
    3.7620   -1.0310    1.3530 C   0  0  0  0  0  0  0  0  0  0  0  0
    2.9530   -2.1120    1.0380 O   0  0  0  0  0  0  0  0  0  0  0  0
    1.5750   -2.0530    0.9570 C   0  0  0  0  0  0  0  0  0  0  0  0
    0.7860   -2.8470    1.8060 C   0  0  0  0  0  0  0  0  0  0  0  0
   -0.5850   -2.8050    1.7460 C   0  0  0  0  0  0  0  0  0  0  0  0
   -1.2150   -1.9790    0.8450 C   0  0  0  0  0  0  0  0  0  0  0  0
   -0.4230   -1.1930    0.0050 C   0  0  0  0  0  0  0  0  0  0  0  0
    0.9700   -1.2230    0.0530 C   0  0  0  0  0  0  0  0  0  0  0  0
    1.6700   -0.3970   -0.8360 O   0  0  0  0  0  0  0  0  0  0  0  0
    1.9710   -0.9460   -2.1310 C   0  0  0  0  0  0  0  0  0  0  0  0
    2.6620   -0.0190   -2.8960 O   0  0  0  0  0  0  0  0  0  0  0  0
   -0.9880   -0.3190   -0.9450 O   0  0  0  0  0  0  0  0  0  0  0  0
   -2.3900   -0.2440   -1.0430 C   0  0  0  0  0  0  0  0  0  0  0  0
   -3.2420    0.4340   -1.7680 N   0  0  0  0  0  0  0  0  0  0  0  0
   -4.5780    0.1020   -1.4080 N   0  0  0  0  0  0  0  0  0  0  0  0
   -5.5480    0.9010   -2.1710 C   0  0  0  0  0  0  0  0  0  0  0  0
   -6.0920    2.0310   -1.3650 C   0  0  0  0  0  0  0  0  0  0  0  0
   -5.9800    1.8020    0.0650 N   0  0  1  0  0  0  0  0  0  0  0  0
   -6.1270    3.0360    0.8140 C   0  0  0  0  0  0  0  0  0  0  0  0
   -6.9720    0.8300    0.4430 C   0  0  0  0  0  0  0  0  0  0  0  0
   -6.3420   -0.1620    1.3980 C   0  0  0  0  0  0  0  0  0  0  0  0
   -5.2620   -0.8500    0.7960 N   0  0  0  0  0  0  0  0  0  0  0  0
   -4.8120   -1.7730    1.8360 C   0  0  0  0  0  0  0  0  0  0  0  0
   -5.4160   -1.8750    2.9130 O   0  0  0  0  0  0  0  0  0  0  0  0
   -3.5930   -2.6410    1.6430 C   0  0  0  0  0  0  0  0  0  0  0  0
   -2.6630   -1.9090    0.7420 C   0  0  0  0  0  0  0  0  0  0  0  0
   -3.1120   -1.0850   -0.1600 C   0  0  0  0  0  0  0  0  0  0  0  0
   -4.5580   -0.8890   -0.4280 C   0  0  2  0  0  0  0  0  0  0  0  0
    4.4350   -0.2700    0.4370 C   0  0  0  0  0  0  0  0  0  0  0  0
  1  2  1  0
  2  3  1  0
  3  4  1  0
  4  5  1  0
  5  6  2  0
  5 37  1  0
  6  7  1  0
  7  8  2  0
  8  9  1  0
  9 10  1  0
  9 37  2  0
 10 11  1  0
 11 12  2  0
 11 16  1  0
 12 13  1  0
 13 14  2  0
 14 15  1  0
 14 34  1  0
 15 16  2  0
 15 20  1  0
 16 17  1  0
 17 18  1  0
 18 19  1  0
 20 21  1  0
 21 22  2  0
 21 35  1  0
 22 23  1  0
 23 24  1  0
 36 23  1  1
 24 25  1  0
 25 26  1  0
 26 27  1  1
 26 28  1  0
 28 29  1  0
 29 30  1  0
 30 31  1  0
 30 36  1  0
 31 32  2  0
 31 33  1  0
 33 34  1  0
 34 35  2  0
 35 36  1  0
M  CHG  2   2   1  26   1
M  END
