
     RDKit          3D

 38 42  0  0  0  0  0  0  0  0999 V2000
   -8.6620    0.9600   -1.0390 C   0  0  0  0  0  0  0  0  0  0  0  0
   -8.0350    2.1190   -1.0030 C   0  0  0  0  0  0  0  0  0  0  0  0
   -6.7260    2.2210   -0.4050 C   0  0  0  0  0  0  0  0  0  0  0  0
   -6.1630    3.4150   -0.3620 C   0  0  0  0  0  0  0  0  0  0  0  0
   -6.7010    4.6900   -0.8540 C   0  0  0  0  0  0  0  0  0  0  0  0
   -5.6250    5.3830   -2.1150 Cl  0  0  0  0  0  0  0  0  0  0  0  0
   -5.9650    1.0930    0.1830 C   0  0  0  0  0  0  0  0  0  0  0  0
   -5.5400    0.0470   -0.7960 C   0  0  0  0  0  0  0  0  0  0  0  0
   -4.8330   -1.0400   -0.2130 N   0  0  0  0  0  0  0  0  0  0  0  0
   -5.5000   -2.1160    0.2250 C   0  0  0  0  0  0  0  0  0  0  0  0
   -6.7350   -2.1440    0.1100 O   0  0  0  0  0  0  0  0  0  0  0  0
   -4.8540   -3.1640    0.7860 N   0  0  0  0  0  0  0  0  0  0  0  0
   -3.4930   -3.1200    0.9070 C   0  0  0  0  0  0  0  0  0  0  0  0
   -2.8450   -4.1630    1.4670 N   0  0  0  0  0  0  0  0  0  0  0  0
   -1.5070   -4.1660    1.6080 C   0  0  0  0  0  0  0  0  0  0  0  0
   -0.7300   -3.1070    1.1890 C   0  0  0  0  0  0  0  0  0  0  0  0
   -1.3740   -2.0330    0.6150 C   0  0  0  0  0  0  0  0  0  0  0  0
   -0.6250   -0.8800    0.1480 C   0  0  0  0  0  0  0  0  0  0  0  0
    0.8140   -0.9430    0.3280 N   0  0  2  0  0  0  0  0  0  0  0  0
    1.2590    0.4650    0.3910 C   0  0  0  0  0  0  0  0  0  0  0  0
    2.4160    0.5620    1.3130 C   0  0  0  0  0  0  0  0  0  0  0  0
    3.2980   -0.6290    1.4110 C   0  0  0  0  0  0  0  0  0  0  0  0
    3.7750   -1.2240    0.1430 C   0  0  2  0  0  0  0  0  0  0  0  0
    5.0730   -0.5840   -0.2380 C   0  0  0  0  0  0  0  0  0  0  0  0
    5.2000    0.6850   -0.6350 N   0  0  0  0  0  0  0  0  0  0  0  0
    6.5150    0.9350   -0.9010 C   0  0  0  0  0  0  0  0  0  0  0  0
    7.1670   -0.2530   -0.6430 C   0  0  0  0  0  0  0  0  0  0  0  0
    6.2720   -1.1220   -0.2530 O   0  0  0  0  0  0  0  0  0  0  0  0
    8.6130   -0.5610   -0.7620 C   0  0  0  0  0  0  0  0  0  0  0  0
    9.3820    0.5290   -0.3590 O   0  0  0  0  0  0  0  0  0  0  0  0
    9.2560    1.5680   -1.2840 C   0  0  0  0  0  0  0  0  0  0  0  0
    8.3250    2.4700   -0.7860 O   0  0  0  0  0  0  0  0  0  0  0  0
    7.0660    2.2360   -1.3690 C   0  0  0  0  0  0  0  0  0  0  0  0
    2.8630   -1.1300   -1.0300 C   0  0  0  0  0  0  0  0  0  0  0  0
    1.4690   -1.6280   -0.7540 C   0  0  0  0  0  0  0  0  0  0  0  0
   -2.7600   -2.0310    0.4700 C   0  0  0  0  0  0  0  0  0  0  0  0
   -3.4870   -1.0050   -0.0890 C   0  0  0  0  0  0  0  0  0  0  0  0
   -2.8450    0.0070   -0.5000 O   0  0  0  0  0  0  0  0  0  0  0  0
  1  2  2  0
  2  3  1  0
  3  4  2  3
  3  7  1  0
  4  5  1  0
  5  6  1  0
  7  8  1  0
  8  9  1  0
  9 10  1  0
  9 37  1  0
 10 11  2  0
 10 12  1  0
 12 13  1  0
 13 14  2  0
 13 36  1  0
 14 15  1  0
 15 16  2  0
 16 17  1  0
 17 18  1  0
 17 36  2  0
 19 18  1  6
 19 20  1  0
 19 35  1  0
 20 21  1  0
 21 22  1  0
 22 23  1  0
 23 24  1  6
 23 34  1  0
 24 25  2  0
 24 28  1  0
 25 26  1  0
 26 27  2  0
 26 33  1  0
 27 28  1  0
 27 29  1  0
 29 30  1  0
 30 31  1  0
 31 32  1  0
 32 33  1  0
 34 35  1  0
 36 37  1  0
 37 38  2  0
M  CHG  2  19   1  25   1
M  END
