
     RDKit          3D

 38 42  0  0  0  0  0  0  0  0999 V2000
   -7.8620   -1.8280    0.0580 C   0  0  0  0  0  0  0  0  0  0  0  0
   -6.4280   -1.7840    0.4670 C   0  0  0  0  0  0  0  0  0  0  0  0
   -5.7260   -2.9650    0.7310 C   0  0  0  0  0  0  0  0  0  0  0  0
   -4.4130   -2.9220    1.1070 C   0  0  0  0  0  0  0  0  0  0  0  0
   -3.7690   -1.6830    1.2270 C   0  0  0  0  0  0  0  0  0  0  0  0
   -4.4730   -0.5250    0.9620 C   0  0  0  0  0  0  0  0  0  0  0  0
   -3.8450    0.8030    1.1120 C   0  0  0  0  0  0  0  0  0  0  0  0
   -2.4770    0.7470    1.4350 O   0  0  0  0  0  0  0  0  0  0  0  0
   -1.5680    0.1920    0.5360 C   0  0  0  0  0  0  0  0  0  0  0  0
   -2.0110   -0.2340   -0.5600 O   0  0  0  0  0  0  0  0  0  0  0  0
   -0.1410    0.1160    0.8730 C   0  0  0  0  0  0  0  0  0  0  0  0
    0.5640   -0.4550   -0.2420 O   0  0  0  0  0  0  0  0  0  0  0  0
    1.9170   -0.6670   -0.1970 C   0  0  0  0  0  0  0  0  0  0  0  0
    2.5390   -0.3570    0.8480 O   0  0  0  0  0  0  0  0  0  0  0  0
    2.6790   -1.2510   -1.3370 C   0  0  0  0  0  0  0  0  0  0  0  0
    4.0640   -1.3900   -1.0080 N   0  0  1  0  0  0  0  0  0  0  0  0
    4.7590   -1.9980   -2.1240 C   0  0  0  0  0  0  0  0  0  0  0  0
    4.6500   -0.1280   -0.7020 C   0  0  0  0  0  0  0  0  0  0  0  0
    4.1470    1.1000   -0.6960 N   0  0  0  0  0  0  0  0  0  0  0  0
    5.0780    1.9550   -0.3260 N   0  0  0  0  0  0  0  0  0  0  0  0
    6.2300    1.2900   -0.0790 C   0  0  0  0  0  0  0  0  0  0  0  0
    5.9530    0.0010   -0.3140 N   0  0  0  0  0  0  0  0  0  0  0  0
    7.1490   -0.7200   -0.0590 C   0  0  0  0  0  0  0  0  0  0  0  0
    7.2800   -1.9760   -0.1740 O   0  0  0  0  0  0  0  0  0  0  0  0
    8.1960    0.2060    0.3540 C   0  0  0  0  0  0  0  0  0  0  0  0
    9.5130    0.0260    0.7130 C   0  0  0  0  0  0  0  0  0  0  0  0
   10.2640    1.1280    1.0640 C   0  0  0  0  0  0  0  0  0  0  0  0
    9.7040    2.4090    1.0590 C   0  0  0  0  0  0  0  0  0  0  0  0
    8.3750    2.5630    0.6940 C   0  0  0  0  0  0  0  0  0  0  0  0
    7.6130    1.4680    0.3410 C   0  0  0  0  0  0  0  0  0  0  0  0
   -5.8000   -0.5640    0.5820 C   0  0  0  0  0  0  0  0  0  0  0  0
   -6.4830    0.6860    0.3110 C   0  0  0  0  0  0  0  0  0  0  0  0
   -7.3260    1.1880    1.2830 C   0  0  0  0  0  0  0  0  0  0  0  0
   -7.9960    2.3720    1.0720 C   0  0  0  0  0  0  0  0  0  0  0  0
   -7.8340    3.0440   -0.0770 N   0  0  0  0  0  0  0  0  0  0  0  0
   -7.0140    2.5610   -1.0290 C   0  0  0  0  0  0  0  0  0  0  0  0
   -6.8180    3.4670   -2.5340 Cl  0  0  0  0  0  0  0  0  0  0  0  0
   -6.3210    1.3830   -0.8690 C   0  0  0  0  0  0  0  0  0  0  0  0
  1  2  1  0
  2  3  2  0
  2 31  1  0
  3  4  1  0
  4  5  2  0
  5  6  1  0
  6  7  1  0
  6 31  2  0
  7  8  1  0
  8  9  1  0
  9 10  2  0
  9 11  1  0
 11 12  1  0
 12 13  1  0
 13 14  2  0
 13 15  1  0
 15 16  1  0
 16 17  1  6
 16 18  1  0
 18 19  2  0
 18 22  1  0
 19 20  1  0
 20 21  2  0
 21 22  1  0
 21 30  1  0
 22 23  1  0
 23 24  2  0
 23 25  1  0
 25 26  2  0
 25 30  1  0
 26 27  1  0
 27 28  2  0
 28 29  1  0
 29 30  2  0
 31 32  1  0
 32 33  2  0
 32 38  1  0
 33 34  1  0
 34 35  2  0
 35 36  1  0
 36 37  1  0
 36 38  2  0
M  CHG  2  16   1  35   1
M  END
