
     RDKit          3D

 38 42  0  0  0  0  0  0  0  0999 V2000
    5.8570   -4.1290    0.3710 C   0  0  0  0  0  0  0  0  0  0  0  0
    6.5710   -2.9660    0.5880 O   0  0  0  0  0  0  0  0  0  0  0  0
    6.7830   -2.2950   -0.6130 C   0  0  0  0  0  0  0  0  0  0  0  0
    7.5530   -1.0440   -0.3870 C   0  0  0  0  0  0  0  0  0  0  0  0
    8.9320   -1.0700   -0.4550 C   0  0  0  0  0  0  0  0  0  0  0  0
    9.6800    0.0690   -0.2520 C   0  0  0  0  0  0  0  0  0  0  0  0
    9.0080    1.2380    0.0220 C   0  0  0  0  0  0  0  0  0  0  0  0
    9.9290    2.7160    0.2880 Cl  0  0  0  0  0  0  0  0  0  0  0  0
    7.6460    1.2540    0.0870 C   0  0  0  0  0  0  0  0  0  0  0  0
    6.9530    0.1230   -0.1170 N   0  0  0  0  0  0  0  0  0  0  0  0
    5.5470    0.1640   -0.0450 C   0  0  0  0  0  0  0  0  0  0  0  0
    4.9120    1.2390   -0.6130 C   0  0  0  0  0  0  0  0  0  0  0  0
    3.5150    1.2730   -0.5360 C   0  0  0  0  0  0  0  0  0  0  0  0
    2.7850    0.2850    0.0760 C   0  0  0  0  0  0  0  0  0  0  0  0
    1.3240    0.2960    0.1700 C   0  0  0  0  0  0  0  0  0  0  0  0
    0.7930   -0.6750    0.7550 O   0  0  0  0  0  0  0  0  0  0  0  0
    0.5030    1.3030   -0.3420 N   0  0  0  0  0  0  0  0  0  0  0  0
   -0.9070    1.3960   -0.3030 C   0  0  0  0  0  0  0  0  0  0  0  0
   -1.5180    2.6060   -0.6780 C   0  0  0  0  0  0  0  0  0  0  0  0
   -2.8870    2.7460   -0.6700 C   0  0  0  0  0  0  0  0  0  0  0  0
   -3.7280    1.7210   -0.2990 C   0  0  0  0  0  0  0  0  0  0  0  0
   -5.0810    1.8190   -0.2770 O   0  0  0  0  0  0  0  0  0  0  0  0
   -5.9230    2.8570   -0.5860 C   0  0  1  0  0  0  0  0  0  0  0  0
   -6.9410    2.5110   -1.6720 C   0  0  0  0  0  0  0  0  0  0  0  0
   -7.9140    3.6630   -1.4980 C   0  0  0  0  0  0  0  0  0  0  0  0
   -7.8330    4.0940   -0.1380 N   0  0  0  0  0  0  0  0  0  0  0  0
   -6.8410    3.2820    0.5330 C   0  0  0  0  0  0  0  0  0  0  0  0
   -3.1300    0.5380    0.0680 C   0  0  0  0  0  0  0  0  0  0  0  0
   -3.9740   -0.5630    0.4640 C   0  0  0  0  0  0  0  0  0  0  0  0
   -5.2240   -0.5170    0.4970 O   0  0  0  0  0  0  0  0  0  0  0  0
   -3.3880   -1.7610    0.8360 O   0  0  0  0  0  0  0  0  0  0  0  0
   -4.0940   -2.8970    1.2380 C   0  0  0  0  0  0  0  0  0  0  0  0
   -3.0630   -3.9790    1.5560 C   0  0  2  0  0  0  0  0  0  0  0  0
   -2.1460   -4.4020    0.4320 C   0  0  0  0  0  0  0  0  0  0  0  0
   -3.2860   -5.2720    0.8510 C   0  0  0  0  0  0  0  0  0  0  0  0
   -1.7450    0.3760    0.0660 C   0  0  0  0  0  0  0  0  0  0  0  0
    3.5080   -0.7330    0.6050 N   0  0  0  0  0  0  0  0  0  0  0  0
    4.8180   -0.7890    0.5470 N   0  0  0  0  0  0  0  0  0  0  0  0
  1  2  1  0
  2  3  1  0
  3  4  1  0
  4  5  2  0
  4 10  1  0
  5  6  1  0
  6  7  2  0
  7  8  1  0
  7  9  1  0
  9 10  2  0
 10 11  1  0
 11 12  2  0
 11 38  1  0
 12 13  1  0
 13 14  2  0
 14 15  1  0
 14 37  1  0
 15 16  2  0
 15 17  1  0
 17 18  1  0
 18 19  2  0
 18 36  1  0
 19 20  1  0
 20 21  2  0
 21 22  1  0
 21 28  1  0
 23 22  1  1
 23 24  1  0
 23 27  1  0
 24 25  1  0
 25 26  1  0
 26 27  1  0
 28 29  1  0
 28 36  2  0
 29 30  2  0
 29 31  1  0
 31 32  1  0
 33 32  1  6
 33 34  1  0
 33 35  1  0
 34 35  1  0
 37 38  2  0
M  CHG  2  10   1  26   1
M  END
