
     RDKit          3D

 28 31  0  0  0  0  0  0  0  0999 V2000
   -0.8290   -1.5410    1.0860 O   0  0  0  0  0  0  0  0  0  0  0  0
   -1.2270   -1.2650   -0.0650 C   0  0  0  0  0  0  0  0  0  0  0  0
   -0.5650   -1.8440   -1.1710 N   0  0  0  0  0  0  0  0  0  0  0  0
    0.5470   -2.7340   -0.9440 C   0  0  0  0  0  0  0  0  0  0  0  0
    1.7270   -1.9080   -0.5950 C   0  0  0  0  0  0  0  0  0  0  0  0
    2.3920   -1.2100   -1.6100 C   0  0  0  0  0  0  0  0  0  0  0  0
    3.4960   -0.4360   -1.3280 C   0  0  0  0  0  0  0  0  0  0  0  0
    3.9970   -0.3090   -0.0450 C   0  0  0  0  0  0  0  0  0  0  0  0
    5.1660    0.5120    0.2420 C   0  0  0  0  0  0  0  0  0  0  0  0
    5.3050    1.1530    1.4530 C   0  0  0  0  0  0  0  0  0  0  0  0
    6.4260    1.9390    1.7320 C   0  0  0  0  0  0  0  0  0  0  0  0
    7.4190    2.0870    0.7920 C   0  0  0  0  0  0  0  0  0  0  0  0
    7.2940    1.4460   -0.4350 C   0  0  0  0  0  0  0  0  0  0  0  0
    6.1760    0.6750   -0.6840 C   0  0  0  0  0  0  0  0  0  0  0  0
    3.3400   -0.9970    0.9560 C   0  0  0  0  0  0  0  0  0  0  0  0
    2.2240   -1.7820    0.6830 C   0  0  0  0  0  0  0  0  0  0  0  0
   -2.3730   -0.3440   -0.2240 C   0  0  2  0  0  0  0  0  0  0  0  0
   -2.7980    0.0530    1.0300 O   0  0  0  0  0  0  0  0  0  0  0  0
   -3.8210   -0.8100    1.4080 C   0  0  1  0  0  0  0  0  0  0  0  0
   -5.0950    0.0120    1.4210 C   0  0  0  0  0  0  0  0  0  0  0  0
   -5.1900    0.6200    0.0870 N   0  0  0  0  0  0  0  0  0  0  0  0
   -5.8360    1.8750   -0.0440 C   0  0  0  0  0  0  0  0  0  0  0  0
   -6.3150    2.4440    1.0000 O   0  0  0  0  0  0  0  0  0  0  0  0
   -5.9650    2.5160   -1.3070 N   0  0  0  0  0  0  0  0  0  0  0  0
   -6.5890    3.7240   -1.4140 O   0  0  0  0  0  0  0  0  0  0  0  0
   -4.6440   -0.0300   -1.0800 C   0  0  0  0  0  0  0  0  0  0  0  0
   -3.6130   -1.0820   -0.7200 C   0  0  2  0  0  0  0  0  0  0  0  0
   -3.9730   -1.7680    0.4250 O   0  0  0  0  0  0  0  0  0  0  0  0
  1  2  2  0
  2  3  1  0
 17  2  1  1
  3  4  1  0
  4  5  1  0
  5  6  2  0
  5 16  1  0
  6  7  1  0
  7  8  2  0
  8  9  1  0
  8 15  1  0
  9 10  2  0
  9 14  1  0
 10 11  1  0
 11 12  2  0
 12 13  1  0
 13 14  2  0
 15 16  2  0
 17 18  1  0
 17 27  1  0
 18 19  1  0
 19 20  1  6
 19 28  1  0
 20 21  1  0
 21 22  1  0
 21 26  1  0
 22 23  2  0
 22 24  1  0
 24 25  1  0
 27 26  1  1
 27 28  1  0
M  END
