
     RDKit          3D

 12 12  0  0  0  0  0  0  0  0999 V2000
   -2.6290   -1.7160    0.0940 O   0  0  0  0  0  0  0  0  0  0  0  0
   -2.0700   -0.5630   -0.5040 C   0  0  0  0  0  0  0  0  0  0  0  0
   -0.7190   -0.3730    0.1310 C   0  0  1  0  0  0  0  0  0  0  0  0
    0.1150   -1.6170   -0.1540 C   0  0  0  0  0  0  0  0  0  0  0  0
    1.3190   -1.2260   -0.7420 O   0  0  0  0  0  0  0  0  0  0  0  0
    2.0380   -0.3410    0.0250 C   0  0  2  0  0  0  0  0  0  0  0  0
    3.1590    0.0430   -0.6910 O   0  0  0  0  0  0  0  0  0  0  0  0
    2.4590   -0.9870    1.1790 O   0  0  0  0  0  0  0  0  0  0  0  0
    1.2940    0.8820    0.3250 N   0  0  0  0  0  0  0  0  0  0  0  0
    0.0460    0.7850   -0.4130 C   0  0  2  0  0  0  0  0  0  0  0  0
   -0.7090    2.0860   -0.3740 C   0  0  0  0  0  0  0  0  0  0  0  0
   -1.0450    2.5050    0.8850 O   0  0  0  0  0  0  0  0  0  0  0  0
  1  2  1  0
  3  2  1  6
  3  4  1  0
  3 10  1  0
  4  5  1  0
  5  6  1  0
  6  7  1  6
  6  8  1  0
  6  9  1  0
  9 10  1  0
 10 11  1  1
 11 12  1  0
M  END
