
     RDKit          3D

 11 11  0  0  0  0  0  0  0  0999 V2000
   -2.8480   -1.0440   -0.1970 N   0  0  0  0  0  0  0  0  0  0  0  0
   -1.7260   -0.1750   -0.2210 C   0  0  1  0  0  0  0  0  0  0  0  0
   -1.7920    0.8940    0.6430 O   0  0  0  0  0  0  0  0  0  0  0  0
   -0.8220    1.8290    0.3740 C   0  0  0  0  0  0  0  0  0  0  0  0
    0.5920    1.2560    0.5460 C   0  0  0  0  0  0  0  0  0  0  0  0
    0.6700    0.0470   -0.3450 C   0  0  1  0  0  0  0  0  0  0  0  0
    0.3530    0.4710   -1.6470 O   0  0  0  0  0  0  0  0  0  0  0  0
    2.0280   -0.5730   -0.3980 C   0  0  0  0  0  0  0  0  0  0  0  0
    2.4810   -1.0420    0.8160 O   0  0  0  0  0  0  0  0  0  0  0  0
   -0.4110   -0.9040    0.0900 C   0  0  1  0  0  0  0  0  0  0  0  0
   -0.3570   -0.9590    1.5020 O   0  0  0  0  0  0  0  0  0  0  0  0
  2  1  1  1
  2  3  1  0
  2 10  1  0
  3  4  1  0
  4  5  1  0
  5  6  1  0
  6  7  1  6
  6  8  1  0
  6 10  1  0
  8  9  1  0
 10 11  1  1
M  END
