
     RDKit          3D

 12 11  0  0  0  0  0  0  0  0999 V2000
    2.0120   -1.5780   -0.9590 C   0  0  0  0  0  0  0  0  0  0  0  0
    1.7610   -0.6760    0.2270 C   0  0  1  0  0  0  0  0  0  0  0  0
    2.4640   -1.1610    1.3300 O   0  0  0  0  0  0  0  0  0  0  0  0
    2.2840    0.6890   -0.1180 C   0  0  0  0  0  0  0  0  0  0  0  0
    2.1490    1.6080    0.9060 O   0  0  0  0  0  0  0  0  0  0  0  0
    0.2860   -0.6390    0.5940 C   0  0  0  0  0  0  0  0  0  0  0  0
   -0.4120   -0.1610   -0.4900 O   0  0  0  0  0  0  0  0  0  0  0  0
   -1.7680   -0.0730   -0.3000 C   0  0  1  0  0  0  0  0  0  0  0  0
   -2.3700    0.3550   -1.5510 N   0  0  0  0  0  0  0  0  0  0  0  0
   -2.2520   -1.3440   -0.0160 O   0  0  0  0  0  0  0  0  0  0  0  0
   -2.1610    0.9330    0.7550 C   0  0  0  0  0  0  0  0  0  0  0  0
   -3.5510    0.9580    0.8570 O   0  0  0  0  0  0  0  0  0  0  0  0
  2  1  1  6
  2  3  1  0
  2  4  1  0
  2  6  1  0
  4  5  1  0
  6  7  1  0
  7  8  1  0
  8  9  1  6
  8 10  1  0
  8 11  1  0
 11 12  1  0
M  END
