
     RDKit          3D

 11 11  0  0  0  0  0  0  0  0999 V2000
    3.9330    0.9490    0.3690 O   0  0  0  0  0  0  0  0  0  0  0  0
    3.0970   -0.1800    0.3240 C   0  0  1  0  0  0  0  0  0  0  0  0
    3.5120   -1.0610    1.3150 O   0  0  0  0  0  0  0  0  0  0  0  0
    1.8090    0.2530    0.5370 O   0  0  0  0  0  0  0  0  0  0  0  0
    0.9730    0.0070   -0.5740 C   0  0  0  0  0  0  0  0  0  0  0  0
   -0.3860    0.5270   -0.1990 C   0  0  1  0  0  0  0  0  0  0  0  0
   -1.3740    0.3560   -1.2280 N   0  0  0  0  0  0  0  0  0  0  0  0
   -2.6480    0.1450   -0.5770 C   0  0  0  0  0  0  0  0  0  0  0  0
   -2.4150    0.3170    0.9100 C   0  0  0  0  0  0  0  0  0  0  0  0
   -0.9650   -0.1870    1.0020 C   0  0  1  0  0  0  0  0  0  0  0  0
   -1.0320   -1.5630    0.8100 O   0  0  0  0  0  0  0  0  0  0  0  0
  2  1  1  1
  2  3  1  0
  2  4  1  0
  4  5  1  0
  6  5  1  6
  6  7  1  0
  6 10  1  0
  7  8  1  0
  8  9  1  0
  9 10  1  0
 10 11  1  6
M  CHG  1   7   1
M  END
