
     RDKit          3D

 11 10  0  0  0  0  0  0  0  0999 V2000
    3.7970    0.5030    0.9350 O   0  0  0  0  0  0  0  0  0  0  0  0
    3.5680   -0.2240   -0.2420 C   0  0  0  0  0  0  0  0  0  0  0  0
    2.1580   -0.5080   -0.3880 N   0  0  0  0  0  0  0  0  0  0  0  0
    1.3970    0.4380    0.3980 C   0  0  0  0  0  0  0  0  0  0  0  0
   -0.0470    0.5270   -0.1430 C   0  0  2  0  0  0  0  0  0  0  0  0
   -0.6540    1.4810    0.7210 O   0  0  0  0  0  0  0  0  0  0  0  0
   -0.7450   -0.7610    0.0220 C   0  0  0  0  0  0  0  0  0  0  0  0
   -2.1290   -0.8070   -0.5200 C   0  0  1  0  0  0  0  0  0  0  0  0
   -2.6480   -2.1400   -0.2670 O   0  0  0  0  0  0  0  0  0  0  0  0
   -3.1220    0.1130    0.0640 C   0  0  0  0  0  0  0  0  0  0  0  0
   -2.8750    1.4290   -0.1700 O   0  0  0  0  0  0  0  0  0  0  0  0
  1  2  1  0
  2  3  1  0
  3  4  1  0
  4  5  1  0
  5  6  1  1
  5  7  1  0
  7  8  1  0
  8  9  1  1
  8 10  1  0
 10 11  1  0
M  CHG  1   3   1
M  END
