
     RDKit          3D

 12 11  0  0  0  0  0  0  0  0999 V2000
   -2.8810    1.1770    0.3770 C   0  0  0  0  0  0  0  0  0  0  0  0
   -1.8920    1.0500   -0.5750 O   0  0  0  0  0  0  0  0  0  0  0  0
   -0.6590    1.0000    0.0660 C   0  0  2  0  0  0  0  0  0  0  0  0
    0.0410    2.1540   -0.3660 O   0  0  0  0  0  0  0  0  0  0  0  0
    0.1020   -0.2370   -0.3620 C   0  0  2  0  0  0  0  0  0  0  0  0
    0.2820   -0.1440   -1.7390 O   0  0  0  0  0  0  0  0  0  0  0  0
   -0.7040   -1.4910   -0.1120 C   0  0  0  0  0  0  0  0  0  0  0  0
   -0.9770   -1.7370    1.2670 N   0  0  0  0  0  0  0  0  0  0  0  0
    1.4440   -0.3280    0.2910 C   0  0  1  0  0  0  0  0  0  0  0  0
    2.0640   -1.4940   -0.2260 O   0  0  0  0  0  0  0  0  0  0  0  0
    2.3720    0.8010   -0.0300 C   0  0  0  0  0  0  0  0  0  0  0  0
    2.5700    0.9370   -1.4130 O   0  0  0  0  0  0  0  0  0  0  0  0
  1  2  1  0
  2  3  1  0
  3  4  1  6
  3  5  1  0
  5  6  1  6
  5  7  1  0
  5  9  1  0
  7  8  1  0
  9 10  1  6
  9 11  1  0
 11 12  1  0
M  CHG  1   8   1
M  END
