
     RDKit          3D

 13 14  0  0  0  0  0  0  0  0999 V2000
   -3.8330    0.9160   -0.4610 N   0  0  0  0  0  0  0  0  0  0  0  0
   -3.2640    0.2720    0.7320 C   0  0  0  0  0  0  0  0  0  0  0  0
   -2.0960   -0.5540    0.3210 C   0  0  0  0  0  0  0  0  0  0  0  0
   -2.2590   -1.8420   -0.0240 N   0  0  0  0  0  0  0  0  0  0  0  0
   -1.1540   -2.5520   -0.3920 C   0  0  0  0  0  0  0  0  0  0  0  0
    0.0400   -1.9730   -0.4030 N   0  0  0  0  0  0  0  0  0  0  0  0
    0.1830   -0.7030   -0.0600 C   0  0  0  0  0  0  0  0  0  0  0  0
    1.5140   -0.0380   -0.0660 C   0  0  0  0  0  0  0  0  0  0  0  0
    2.6600   -0.5660   -0.3880 C   0  0  0  0  0  0  0  0  0  0  0  0
    3.7450    0.4340   -0.2610 C   0  0  0  0  0  0  0  0  0  0  0  0
    3.0480    1.6500    0.1910 C   0  0  0  0  0  0  0  0  0  0  0  0
    1.7650    1.3490    0.2950 C   0  0  0  0  0  0  0  0  0  0  0  0
   -0.8800    0.0100    0.3030 N   0  0  0  0  0  0  0  0  0  0  0  0
  1  2  1  0
  2  3  1  0
  3  4  2  0
  3 13  1  0
  4  5  1  0
  5  6  2  0
  6  7  1  0
  7  8  1  0
  7 13  2  0
  8  9  2  0
  8 12  1  0
  9 10  1  0
 10 11  1  0
 11 12  2  0
M  END
