
     RDKit          3D

 11 11  0  0  0  0  0  0  0  0999 V2000
    0.8240   -1.4870   -0.5890 N   0  0  0  0  0  0  0  0  0  0  0  0
    0.7130   -0.4870    0.4280 C   0  0  1  0  0  0  0  0  0  0  0  0
    1.8670    0.4630    0.3130 C   0  0  0  0  0  0  0  0  0  0  0  0
    3.0580   -0.2450    0.4740 O   0  0  0  0  0  0  0  0  0  0  0  0
    4.1080    0.5160    0.3860 O   0  0  0  0  0  0  0  0  0  0  0  0
   -0.6170    0.1920    0.4760 C   0  0  2  0  0  0  0  0  0  0  0  0
   -0.6470    1.1490    1.4880 O   0  0  0  0  0  0  0  0  0  0  0  0
   -1.7670   -0.7410    0.7070 C   0  0  0  0  0  0  0  0  0  0  0  0
   -2.9110    0.0460    0.0850 C   0  0  0  0  0  0  0  0  0  0  0  0
   -2.3710    1.1200   -0.5640 O   0  0  0  0  0  0  0  0  0  0  0  0
   -1.0220    0.8580   -0.7980 C   0  0  0  0  0  0  0  0  0  0  0  0
  2  1  1  6
  2  3  1  0
  2  6  1  0
  3  4  1  0
  4  5  1  0
  6  7  1  1
  6  8  1  0
  6 11  1  0
  8  9  1  0
  9 10  1  0
 10 11  1  0
M  CHG  1   1   1
M  END
