
     RDKit          3D

 24 27  0  0  0  0  0  0  0  0999 V2000
   -1.0550   -0.6830   -2.2860 O   0  0  0  0  0  0  0  0  0  0  0  0
   -0.8990   -0.9070   -1.0270 C   0  0  0  0  0  0  0  0  0  0  0  0
    0.4570   -0.8510   -0.5410 C   0  0  0  0  0  0  0  0  0  0  0  0
    1.4050   -0.1180   -1.2680 C   0  0  0  0  0  0  0  0  0  0  0  0
    2.7140   -0.0100   -0.8600 C   0  0  0  0  0  0  0  0  0  0  0  0
    3.1600   -0.6200    0.2870 C   0  0  0  0  0  0  0  0  0  0  0  0
    4.5180   -0.5110    0.7310 N   0  0  0  0  0  0  0  0  0  0  0  0
    5.3740    0.3380   -0.0330 C   0  0  0  0  0  0  0  0  0  0  0  0
    5.9510   -0.0080   -1.1670 C   0  0  0  0  0  0  0  0  0  0  0  0
    6.7390    1.1730   -1.6010 C   0  0  0  0  0  0  0  0  0  0  0  0
    6.5320    2.1940   -0.5900 N   0  0  0  0  0  0  0  0  0  0  0  0
    5.7400    1.7160    0.3240 C   0  0  0  0  0  0  0  0  0  0  0  0
    2.2590   -1.3470    1.0270 C   0  0  0  0  0  0  0  0  0  0  0  0
    0.9380   -1.4450    0.6000 C   0  0  0  0  0  0  0  0  0  0  0  0
   -2.0980   -1.1790   -0.2750 C   0  0  0  0  0  0  0  0  0  0  0  0
   -2.2670   -2.3980    0.3440 C   0  0  0  0  0  0  0  0  0  0  0  0
   -3.3920   -2.6900    1.0250 N   0  0  0  0  0  0  0  0  0  0  0  0
   -4.3850   -1.8020    1.1230 C   0  0  0  0  0  0  0  0  0  0  0  0
   -4.2600   -0.5600    0.5140 C   0  0  0  0  0  0  0  0  0  0  0  0
   -3.1270   -0.2670   -0.1710 C   0  0  0  0  0  0  0  0  0  0  0  0
   -2.9930    1.0820   -0.8240 C   0  0  0  0  0  0  0  0  0  0  0  0
   -4.3900    1.4570   -1.3070 C   0  0  0  0  0  0  0  0  0  0  0  0
   -5.2300    1.6530   -0.0670 C   0  0  0  0  0  0  0  0  0  0  0  0
   -5.4250    0.3720    0.6830 C   0  0  0  0  0  0  0  0  0  0  0  0
  1  2  2  0
  2  3  1  0
  2 15  1  0
  3  4  2  0
  3 14  1  0
  4  5  1  0
  5  6  2  0
  6  7  1  0
  6 13  1  0
  7  8  1  0
  8  9  2  0
  8 12  1  0
  9 10  1  0
 10 11  1  0
 11 12  2  0
 13 14  2  0
 15 16  2  0
 15 20  1  0
 16 17  1  0
 17 18  2  0
 18 19  1  0
 19 20  2  0
 19 24  1  0
 20 21  1  0
 21 22  1  0
 22 23  1  0
 23 24  1  0
M  END
