
     RDKit          3D

 25 26  0  0  0  0  0  0  0  0999 V2000
   -8.8620    2.1210   -0.7250 O   0  0  0  0  0  0  0  0  0  0  0  0
   -8.4470    0.9790   -0.4400 C   0  0  0  0  0  0  0  0  0  0  0  0
   -9.4280   -0.0130   -0.2840 O   0  0  0  0  0  0  0  0  0  0  0  0
   -7.0330    0.6680   -0.2750 C   0  0  0  0  0  0  0  0  0  0  0  0
   -6.1180    1.6850   -0.4410 C   0  0  0  0  0  0  0  0  0  0  0  0
   -4.7620    1.3760   -0.2800 C   0  0  0  0  0  0  0  0  0  0  0  0
   -4.3430    0.1010    0.0350 C   0  0  0  0  0  0  0  0  0  0  0  0
   -2.9400   -0.2450    0.2070 C   0  0  0  0  0  0  0  0  0  0  0  0
   -2.0000    0.6280    0.0750 N   0  0  0  0  0  0  0  0  0  0  0  0
   -0.6820    0.3400    0.2290 O   0  0  0  0  0  0  0  0  0  0  0  0
    0.1990   -0.0220   -0.8030 C   0  0  0  0  0  0  0  0  0  0  0  0
    1.5590   -0.2500   -0.1800 C   0  0  0  0  0  0  0  0  0  0  0  0
    2.4930   -0.6190   -1.1810 O   0  0  0  0  0  0  0  0  0  0  0  0
    3.7910   -0.8810   -0.8860 N   0  0  0  0  0  0  0  0  0  0  0  0
    4.5170   -0.0200   -0.2980 C   0  0  0  0  0  0  0  0  0  0  0  0
    5.9160   -0.2340    0.0490 C   0  0  0  0  0  0  0  0  0  0  0  0
    6.5470   -1.4170   -0.2510 C   0  0  0  0  0  0  0  0  0  0  0  0
    7.8860   -1.6300    0.0780 C   0  0  0  0  0  0  0  0  0  0  0  0
    8.4630   -2.7140   -0.1980 O   0  0  0  0  0  0  0  0  0  0  0  0
    8.5450   -0.6200    0.7070 N   0  0  0  0  0  0  0  0  0  0  0  0
    7.9310    0.5370    1.0020 C   0  0  0  0  0  0  0  0  0  0  0  0
    8.5590    1.4550    1.5830 O   0  0  0  0  0  0  0  0  0  0  0  0
    6.6410    0.7110    0.6720 N   0  0  0  0  0  0  0  0  0  0  0  0
   -5.3080   -0.8720    0.1880 C   0  0  0  0  0  0  0  0  0  0  0  0
   -6.6530   -0.6180    0.0400 C   0  0  0  0  0  0  0  0  0  0  0  0
  1  2  2  0
  2  3  1  0
  2  4  1  0
  4  5  2  0
  4 25  1  0
  5  6  1  0
  6  7  2  0
  7  8  1  0
  7 24  1  0
  8  9  2  3
  9 10  1  0
 10 11  1  0
 11 12  1  0
 12 13  1  0
 13 14  1  0
 14 15  2  3
 15 16  1  0
 16 17  2  0
 16 23  1  0
 17 18  1  0
 18 19  2  0
 18 20  1  0
 20 21  1  0
 21 22  2  0
 21 23  1  0
 24 25  2  0
M  END
