
     RDKit          3D

 24 27  0  0  0  0  0  0  0  0999 V2000
   -6.1660    1.8800    1.6640 C   0  0  0  0  0  0  0  0  0  0  0  0
   -5.4530    0.6070    1.4650 C   0  0  0  0  0  0  0  0  0  0  0  0
   -4.5560    0.4500    0.4280 C   0  0  0  0  0  0  0  0  0  0  0  0
   -3.8920   -0.7540    0.2520 C   0  0  0  0  0  0  0  0  0  0  0  0
   -2.9210   -0.9810   -0.8400 C   0  0  0  0  0  0  0  0  0  0  0  0
   -1.5000   -0.6040   -0.4010 C   0  0  0  0  0  0  0  0  0  0  0  0
   -0.5950   -0.8620   -1.5520 C   0  0  0  0  0  0  0  0  0  0  0  0
   -0.8950   -1.3350   -2.7760 N   0  0  0  0  0  0  0  0  0  0  0  0
    0.2300   -1.4030   -3.4810 N   0  0  0  0  0  0  0  0  0  0  0  0
    1.2720   -0.9830   -2.7460 C   0  0  0  0  0  0  0  0  0  0  0  0
    2.6290   -0.8590   -3.0070 C   0  0  0  0  0  0  0  0  0  0  0  0
    3.4430   -0.3860   -2.0150 C   0  0  0  0  0  0  0  0  0  0  0  0
    2.9920   -0.0220   -0.7660 C   0  0  0  0  0  0  0  0  0  0  0  0
    3.9100    0.4780    0.2530 C   0  0  0  0  0  0  0  0  0  0  0  0
    3.5750    0.8740    1.5420 C   0  0  0  0  0  0  0  0  0  0  0  0
    4.7250    1.2790    2.1850 C   0  0  0  0  0  0  0  0  0  0  0  0
    5.7310    1.1150    1.2580 C   0  0  0  0  0  0  0  0  0  0  0  0
    7.1740    1.4350    1.5210 C   0  0  0  0  0  0  0  0  0  0  0  0
    5.1980    0.6490    0.1590 O   0  0  0  0  0  0  0  0  0  0  0  0
    1.6410   -0.1520   -0.5270 C   0  0  0  0  0  0  0  0  0  0  0  0
    0.7750   -0.6320   -1.5120 C   0  0  0  0  0  0  0  0  0  0  0  0
   -4.1770   -1.7570    1.1560 C   0  0  0  0  0  0  0  0  0  0  0  0
   -5.0860   -1.5660    2.1900 C   0  0  0  0  0  0  0  0  0  0  0  0
   -5.7100   -0.3930    2.3320 N   0  0  0  0  0  0  0  0  0  0  0  0
  1  2  1  0
  2  3  2  0
  2 24  1  0
  3  4  1  0
  4  5  1  0
  4 22  2  0
  5  6  1  0
  6  7  1  0
  7  8  2  0
  7 21  1  0
  8  9  1  0
  9 10  1  0
 10 11  2  0
 10 21  1  0
 11 12  1  0
 12 13  2  0
 13 14  1  0
 13 20  1  0
 14 15  2  0
 14 19  1  0
 15 16  1  0
 16 17  2  0
 17 18  1  0
 17 19  1  0
 20 21  2  0
 22 23  1  0
 23 24  2  0
M  END
