
     RDKit          3D

 24 27  0  0  0  0  0  0  0  0999 V2000
   -6.8510    0.8290    0.9330 C   0  0  0  0  0  0  0  0  0  0  0  0
   -5.7430    0.0890    1.5010 N   0  0  0  0  0  0  0  0  0  0  0  0
   -5.9860   -0.6570    2.7150 C   0  0  0  0  0  0  0  0  0  0  0  0
   -4.4490    0.0790    0.9080 C   0  0  0  0  0  0  0  0  0  0  0  0
   -3.4230   -0.6360    1.4830 C   0  0  0  0  0  0  0  0  0  0  0  0
   -2.1640   -0.6380    0.8910 C   0  0  0  0  0  0  0  0  0  0  0  0
   -1.9230    0.0750   -0.2800 C   0  0  0  0  0  0  0  0  0  0  0  0
   -2.9530    0.7910   -0.8540 C   0  0  0  0  0  0  0  0  0  0  0  0
   -2.4330    1.3920   -1.9920 C   0  0  0  0  0  0  0  0  0  0  0  0
   -1.1020    1.0370   -2.0940 C   0  0  0  0  0  0  0  0  0  0  0  0
   -0.8360    0.2480   -1.0490 N   0  0  0  0  0  0  0  0  0  0  0  0
    0.4620   -0.3570   -0.7650 C   0  0  0  0  0  0  0  0  0  0  0  0
    1.2200    0.5950    0.0890 C   0  0  0  0  0  0  0  0  0  0  0  0
    2.4940    0.2320    0.4750 O   0  0  0  0  0  0  0  0  0  0  0  0
    3.5970    0.0330   -0.3000 C   0  0  0  0  0  0  0  0  0  0  0  0
    3.6650    0.1890   -1.6490 C   0  0  0  0  0  0  0  0  0  0  0  0
    4.8210   -0.0320   -2.4090 C   0  0  0  0  0  0  0  0  0  0  0  0
    5.9650   -0.4300   -1.7600 C   0  0  0  0  0  0  0  0  0  0  0  0
    7.2490   -0.7300   -2.1690 C   0  0  0  0  0  0  0  0  0  0  0  0
    7.9490   -1.0660   -1.0500 C   0  0  0  0  0  0  0  0  0  0  0  0
    7.1700   -0.9930    0.0460 N   0  0  0  0  0  0  0  0  0  0  0  0
    5.9370   -0.5990   -0.3810 C   0  0  0  0  0  0  0  0  0  0  0  0
    4.7950   -0.3750    0.3190 C   0  0  0  0  0  0  0  0  0  0  0  0
   -4.2140    0.7840   -0.2480 C   0  0  0  0  0  0  0  0  0  0  0  0
  1  2  1  0
  2  3  1  0
  2  4  1  0
  4  5  2  0
  4 24  1  0
  5  6  1  0
  6  7  2  0
  7  8  1  0
  7 11  1  0
  8  9  1  0
  8 24  2  0
  9 10  2  0
 10 11  1  0
 11 12  1  0
 12 13  1  0
 13 14  1  0
 14 15  1  0
 15 16  2  0
 15 23  1  0
 16 17  1  0
 17 18  2  0
 18 19  1  0
 18 22  1  0
 19 20  2  0
 20 21  1  0
 21 22  1  0
 22 23  2  0
M  END
