
     RDKit          3D

 24 27  0  0  0  0  0  0  0  0999 V2000
    6.5660   -0.1170   -1.1660 C   0  0  0  0  0  0  0  0  0  0  0  0
    5.1060   -0.0960   -0.9030 C   0  0  0  0  0  0  0  0  0  0  0  0
    4.2690    0.4160   -1.8630 C   0  0  0  0  0  0  0  0  0  0  0  0
    2.8870    0.4490   -1.6440 C   0  0  0  0  0  0  0  0  0  0  0  0
    2.3920   -0.0350   -0.4650 C   0  0  0  0  0  0  0  0  0  0  0  0
    0.9380   -0.0370   -0.1470 C   0  0  0  0  0  0  0  0  0  0  0  0
    0.6440   -0.5240    0.9640 O   0  0  0  0  0  0  0  0  0  0  0  0
   -0.0260    0.4830   -1.0570 C   0  0  0  0  0  0  0  0  0  0  0  0
   -1.3020    0.5580   -1.0580 C   0  0  0  0  0  0  0  0  0  0  0  0
   -2.4130    0.1870   -0.2340 C   0  0  0  0  0  0  0  0  0  0  0  0
   -3.5730    1.0080   -0.3100 C   0  0  0  0  0  0  0  0  0  0  0  0
   -4.7150    0.6880    0.3580 C   0  0  0  0  0  0  0  0  0  0  0  0
   -4.7740   -0.4390    1.1220 C   0  0  0  0  0  0  0  0  0  0  0  0
   -3.6430   -1.2160    1.1780 C   0  0  0  0  0  0  0  0  0  0  0  0
   -3.4090   -2.4290    1.8240 C   0  0  0  0  0  0  0  0  0  0  0  0
   -2.1270   -2.8440    1.5470 C   0  0  0  0  0  0  0  0  0  0  0  0
   -1.6290   -1.8880    0.7560 N   0  0  0  0  0  0  0  0  0  0  0  0
   -2.4900   -0.9230    0.5230 N   0  0  0  0  0  0  0  0  0  0  0  0
   -5.7160    1.7760    0.0580 C   0  0  0  0  0  0  0  0  0  0  0  0
   -5.2260    2.2820   -1.2760 C   0  0  0  0  0  0  0  0  0  0  0  0
   -3.7720    2.2370   -1.0380 N   0  0  0  0  0  0  0  0  0  0  0  0
    3.2710   -0.5520    0.4960 C   0  0  0  0  0  0  0  0  0  0  0  0
    4.6220   -0.5860    0.2850 C   0  0  0  0  0  0  0  0  0  0  0  0
    5.5180   -1.1450    1.3370 C   0  0  0  0  0  0  0  0  0  0  0  0
  1  2  1  0
  2  3  2  0
  2 23  1  0
  3  4  1  0
  4  5  2  0
  5  6  1  0
  5 22  1  0
  6  7  2  0
  6  8  1  0
  8  9  2  3
  9 10  1  0
 10 11  2  0
 10 18  1  0
 11 12  1  0
 11 21  1  0
 12 13  2  0
 12 19  1  0
 13 14  1  0
 14 15  2  0
 14 18  1  0
 15 16  1  0
 16 17  2  0
 17 18  1  0
 19 20  1  0
 20 21  1  0
 22 23  2  0
 23 24  1  0
M  END
