
     RDKit          3D

 24 27  0  0  0  0  0  0  0  0999 V2000
    2.9010    2.3490   -1.8070 C   0  0  0  0  0  0  0  0  0  0  0  0
    2.7660    1.0100   -1.8250 O   0  0  0  0  0  0  0  0  0  0  0  0
    2.5370   -0.0440   -1.0630 C   0  0  0  0  0  0  0  0  0  0  0  0
    1.2150   -0.4950   -0.8300 C   0  0  0  0  0  0  0  0  0  0  0  0
    0.1260    0.3780   -1.4000 C   0  0  0  0  0  0  0  0  0  0  0  0
   -0.2870    1.3840   -0.4100 C   0  0  0  0  0  0  0  0  0  0  0  0
    0.3940    2.3910    0.1490 N   0  0  0  0  0  0  0  0  0  0  0  0
   -0.2770    2.9730    1.1170 N   0  0  0  0  0  0  0  0  0  0  0  0
   -1.4730    2.3450    1.2290 C   0  0  0  0  0  0  0  0  0  0  0  0
   -1.4890    1.3660    0.2950 C   0  0  0  0  0  0  0  0  0  0  0  0
   -2.6840    0.7280    0.3460 C   0  0  0  0  0  0  0  0  0  0  0  0
   -3.2820   -0.3590   -0.4350 C   0  0  0  0  0  0  0  0  0  0  0  0
   -4.6570   -0.6590   -0.0140 C   0  0  0  0  0  0  0  0  0  0  0  0
   -5.4520   -1.6760   -0.7620 C   0  0  0  0  0  0  0  0  0  0  0  0
   -5.2820   -0.0530    0.9660 C   0  0  0  0  0  0  0  0  0  0  0  0
   -4.6640    1.0120    1.7490 C   0  0  0  0  0  0  0  0  0  0  0  0
   -3.4050    1.3600    1.4140 C   0  0  0  0  0  0  0  0  0  0  0  0
   -2.5670    2.3790    1.9350 N   0  0  0  0  0  0  0  0  0  0  0  0
    0.9810   -1.5840   -0.0610 C   0  0  0  0  0  0  0  0  0  0  0  0
    2.0450   -2.3030    0.5400 C   0  0  0  0  0  0  0  0  0  0  0  0
    3.3390   -1.8660    0.3200 C   0  0  0  0  0  0  0  0  0  0  0  0
    4.5420   -2.5480    0.8970 C   0  0  0  0  0  0  0  0  0  0  0  0
    3.5570   -0.7550   -0.4710 C   0  0  0  0  0  0  0  0  0  0  0  0
    4.9370   -0.2910   -0.7130 C   0  0  0  0  0  0  0  0  0  0  0  0
  1  2  1  0
  2  3  1  0
  3  4  2  0
  3 23  1  0
  4  5  1  0
  4 19  1  0
  5  6  1  0
  6  7  2  0
  6 10  1  0
  7  8  1  0
  8  9  1  0
  9 10  1  0
  9 18  2  0
 10 11  2  0
 11 12  1  0
 11 17  1  0
 12 13  1  0
 13 14  1  0
 13 15  2  0
 15 16  1  0
 16 17  2  0
 17 18  1  0
 19 20  2  0
 20 21  1  0
 21 22  1  0
 21 23  2  0
 23 24  1  0
M  END
