
     RDKit          3D

 24 27  0  0  0  0  0  0  0  0999 V2000
    5.4160   -1.3080    1.2400 C   0  0  0  0  0  0  0  0  0  0  0  0
    4.1680   -0.5250    1.1650 C   0  0  0  0  0  0  0  0  0  0  0  0
    3.2610   -0.3550    2.1340 N   0  0  0  0  0  0  0  0  0  0  0  0
    2.2510    0.4070    1.6810 N   0  0  0  0  0  0  0  0  0  0  0  0
    2.4820    0.7520    0.3990 C   0  0  0  0  0  0  0  0  0  0  0  0
    1.6040    1.5840   -0.4580 C   0  0  0  0  0  0  0  0  0  0  0  0
    0.9600    0.6320   -1.4500 C   0  0  0  0  0  0  0  0  0  0  0  0
    0.2580   -0.4130   -0.8010 N   0  0  0  0  0  0  0  0  0  0  0  0
   -0.1730   -1.4320   -1.7240 C   0  0  0  0  0  0  0  0  0  0  0  0
   -0.7430   -0.8270   -3.0010 C   0  0  0  0  0  0  0  0  0  0  0  0
   -1.8780   -0.0530   -2.6750 O   0  0  0  0  0  0  0  0  0  0  0  0
   -2.5660    0.0770   -1.4760 C   0  0  0  0  0  0  0  0  0  0  0  0
   -3.9490    0.2060   -1.6930 C   0  0  0  0  0  0  0  0  0  0  0  0
   -4.7710    0.3500   -0.6040 C   0  0  0  0  0  0  0  0  0  0  0  0
   -4.2540    0.3680    0.6740 C   0  0  0  0  0  0  0  0  0  0  0  0
   -5.1180    0.5290    1.7480 C   0  0  0  0  0  0  0  0  0  0  0  0
   -4.6180    0.5610    3.0080 C   0  0  0  0  0  0  0  0  0  0  0  0
   -3.2690    0.4380    3.2550 C   0  0  0  0  0  0  0  0  0  0  0  0
   -2.3760    0.2740    2.1840 C   0  0  0  0  0  0  0  0  0  0  0  0
   -2.9100    0.2440    0.9270 C   0  0  0  0  0  0  0  0  0  0  0  0
   -2.0740    0.0950   -0.1880 C   0  0  0  0  0  0  0  0  0  0  0  0
   -0.6450   -0.0890    0.2160 C   0  0  0  0  0  0  0  0  0  0  0  0
    3.6820    0.1680    0.0800 C   0  0  0  0  0  0  0  0  0  0  0  0
    4.3670    0.2520   -1.2380 C   0  0  0  0  0  0  0  0  0  0  0  0
  1  2  1  0
  2  3  1  0
  2 23  2  0
  3  4  1  0
  4  5  2  0
  5  6  1  0
  5 23  1  0
  6  7  1  0
  7  8  1  0
  8  9  1  0
  8 22  1  0
  9 10  1  0
 10 11  1  0
 11 12  1  0
 12 13  2  0
 12 21  1  0
 13 14  1  0
 14 15  2  0
 15 16  1  0
 15 20  1  0
 16 17  2  0
 17 18  1  0
 18 19  2  0
 19 20  1  0
 20 21  2  0
 21 22  1  0
 23 24  1  0
M  END
