
     RDKit          3D

 33 37  0  0  0  0  0  0  0  0999 V2000
   -4.5450   -3.6940   -0.1670 C   0  0  0  0  0  0  0  0  0  0  0  0
   -4.2080   -2.1800   -0.4290 C   0  0  2  0  0  0  0  0  0  0  0  0
   -3.8230   -2.0600   -1.8720 C   0  0  0  0  0  0  0  0  0  0  0  0
   -3.1490   -1.8450    0.5080 C   0  0  0  0  0  0  0  0  0  0  0  0
   -2.4140   -0.6690    0.6950 C   0  0  0  0  0  0  0  0  0  0  0  0
   -1.4580   -0.8830    1.6520 O   0  0  0  0  0  0  0  0  0  0  0  0
   -2.3410    0.7210    0.1710 C   0  0  0  0  0  0  0  0  0  0  0  0
   -1.1430    1.3750    0.3920 C   0  0  0  0  0  0  0  0  0  0  0  0
    0.2150    0.9360    0.6020 N   0  0  0  0  0  0  0  0  0  0  0  0
    0.7890   -0.2660    0.2000 C   0  0  0  0  0  0  0  0  0  0  0  0
    0.0480   -1.0830   -0.4830 O   0  0  0  0  0  0  0  0  0  0  0  0
    2.1160   -0.6880    0.4680 N   0  0  0  0  0  0  0  0  0  0  0  0
    3.0270    0.1310    1.1940 C   0  0  0  0  0  0  0  0  0  0  0  0
    4.2930    0.2150    0.3140 C   0  0  0  0  0  0  0  0  0  0  0  0
    4.9440   -1.1250    0.3120 C   0  0  2  0  0  0  0  0  0  0  0  0
    3.9620   -2.2110    0.6590 C   0  0  0  0  0  0  0  0  0  0  0  0
    2.5990   -1.9770    0.0150 C   0  0  0  0  0  0  0  0  0  0  0  0
    6.1170   -1.1200    1.2400 C   0  0  0  0  0  0  0  0  0  0  0  0
    7.2760   -0.6550    0.4240 C   0  0  0  0  0  0  0  0  0  0  0  0
    8.4590   -0.1570    0.4770 N   0  0  0  0  0  0  0  0  0  0  0  0
    8.9500    0.0170   -0.8610 C   0  0  0  0  0  0  0  0  0  0  0  0
    7.8660   -0.4600   -1.7180 C   0  0  0  0  0  0  0  0  0  0  0  0
    7.8600   -0.5070   -3.4880 Cl  0  0  0  0  0  0  0  0  0  0  0  0
    6.8690   -0.8600   -0.9530 C   0  0  0  0  0  0  0  0  0  0  0  0
    5.5680   -1.4070   -0.9510 O   0  0  0  0  0  0  0  0  0  0  0  0
   -1.5220    3.0770   -0.0280 S   0  0  0  0  0  0  0  0  0  0  0  0
   -3.1170    2.8710   -0.4570 C   0  0  0  0  0  0  0  0  0  0  0  0
   -3.3680    1.4380   -0.2620 C   0  0  0  0  0  0  0  0  0  0  0  0
   -4.8080    1.2320   -0.5970 C   0  0  0  0  0  0  0  0  0  0  0  0
   -5.5430    2.1780    0.4020 C   0  0  0  0  0  0  0  0  0  0  0  0
   -5.3690    3.6170    0.0270 C   0  0  2  0  0  0  0  0  0  0  0  0
   -6.6190    4.2060   -0.5920 C   0  0  0  0  0  0  0  0  0  0  0  0
   -4.2630    3.7070   -0.9720 C   0  0  0  0  0  0  0  0  0  0  0  0
  2  1  1  1
  2  3  1  0
  2  4  1  0
  4  5  1  0
  5  6  2  0
  5  7  1  0
  7  8  2  0
  7 28  1  0
  8  9  1  0
  8 26  1  0
  9 10  1  0
 10 11  2  0
 10 12  1  0
 12 13  1  0
 12 17  1  0
 13 14  1  0
 15 14  1  6
 15 16  1  0
 15 18  1  0
 15 25  1  0
 16 17  1  0
 18 19  1  0
 19 20  2  0
 19 24  1  0
 20 21  1  0
 21 22  1  0
 22 23  1  0
 22 24  2  0
 24 25  1  0
 26 27  1  0
 27 28  2  0
 27 33  1  0
 28 29  1  0
 29 30  1  0
 30 31  1  0
 31 32  1  6
 31 33  1  0
M  CHG  1  20   1
M  END
