
     RDKit          3D

 32 34  0  0  0  0  0  0  0  0999 V2000
    7.1770   -2.6880    0.0290 C   0  0  0  0  0  0  0  0  0  0  0  0
    6.3320   -2.0960    1.1170 C   0  0  0  0  0  0  0  0  0  0  0  0
    5.4880   -0.9620    0.6320 C   0  0  0  0  0  0  0  0  0  0  0  0
    4.4050   -1.2100   -0.0670 C   0  0  0  0  0  0  0  0  0  0  0  0
    4.0370   -2.5190   -0.3600 C   0  0  0  0  0  0  0  0  0  0  0  0
    2.8850   -2.4490   -1.0820 C   0  0  0  0  0  0  0  0  0  0  0  0
    2.1580   -3.6650   -1.6010 C   0  0  0  0  0  0  0  0  0  0  0  0
    2.5100   -1.2030   -1.2580 N   0  0  0  0  0  0  0  0  0  0  0  0
    1.3480   -0.7340   -1.9740 C   0  0  0  0  0  0  0  0  0  0  0  0
    0.0990   -0.6790   -1.1320 C   0  0  0  0  0  0  0  0  0  0  0  0
    0.1280    0.2150    0.0400 C   0  0  0  0  0  0  0  0  0  0  0  0
   -1.0550    0.2060    0.8490 N   0  0  1  0  0  0  0  0  0  0  0  0
   -1.2540    1.5020    1.4820 C   0  0  0  0  0  0  0  0  0  0  0  0
   -1.8180    2.5220    0.5580 C   0  0  1  0  0  0  0  0  0  0  0  0
   -1.0220    3.7730    0.4020 C   0  0  0  0  0  0  0  0  0  0  0  0
   -1.9290    4.8140   -0.2420 C   0  0  0  0  0  0  0  0  0  0  0  0
   -3.0340    4.1100   -0.9860 C   0  0  0  0  0  0  0  0  0  0  0  0
   -2.5580    2.8470   -1.6690 C   0  0  0  0  0  0  0  0  0  0  0  0
   -1.9640    1.9050   -0.7480 N   0  0  0  0  0  0  0  0  0  0  0  0
   -2.9610    0.8360   -0.5410 C   0  0  0  0  0  0  0  0  0  0  0  0
   -2.2600   -0.2770    0.2040 C   0  0  2  0  0  0  0  0  0  0  0  0
   -3.0750   -0.8910    1.3000 C   0  0  0  0  0  0  0  0  0  0  0  0
   -4.3600   -1.5000    1.0060 C   0  0  1  0  0  0  0  0  0  0  0  0
   -5.4230   -0.6070    0.4040 C   0  0  0  0  0  0  0  0  0  0  0  0
   -4.3370   -2.7110    0.2250 N   0  0  2  0  0  0  0  0  0  0  0  0
   -5.5470   -3.4450    0.5550 C   0  0  0  0  0  0  0  0  0  0  0  0
   -3.2260   -3.5860    0.5330 C   0  0  0  0  0  0  0  0  0  0  0  0
    3.4450   -0.3980   -0.6340 C   0  0  0  0  0  0  0  0  0  0  0  0
    3.4010    0.8970   -0.6220 C   0  0  0  0  0  0  0  0  0  0  0  0
    4.2400    1.9140   -0.0720 C   0  0  0  0  0  0  0  0  0  0  0  0
    3.9170    3.1920   -0.2330 N   0  0  0  0  0  0  0  0  0  0  0  0
    4.7390    4.2160    0.3080 C   0  0  0  0  0  0  0  0  0  0  0  0
  1  2  1  0
  2  3  1  0
  3  4  2  3
  4  5  1  0
  4 28  1  0
  5  6  2  0
  6  7  1  0
  6  8  1  0
  8  9  1  0
  8 28  1  0
  9 10  1  0
 10 11  1  0
 12 11  1  6
 12 13  1  0
 12 21  1  0
 14 13  1  1
 14 15  1  0
 14 19  1  0
 15 16  1  0
 16 17  1  0
 17 18  1  0
 18 19  1  0
 19 20  1  0
 20 21  1  0
 21 22  1  1
 22 23  1  0
 23 24  1  6
 23 25  1  0
 25 26  1  1
 25 27  1  0
 28 29  2  3
 29 30  1  0
 30 31  2  3
 31 32  1  0
M  CHG  3  12   1  25   1  31   1
M  END
