
     RDKit          3D

 32 35  0  0  0  0  0  0  0  0999 V2000
    5.9890    3.3090   -1.3470 C   0  0  0  0  0  0  0  0  0  0  0  0
    4.5230    3.0090   -1.2900 C   0  0  0  0  0  0  0  0  0  0  0  0
    4.2400    1.9240   -2.2010 N   0  0  0  0  0  0  0  0  0  0  0  0
    4.5290    0.6110   -1.6650 C   0  0  1  0  0  0  0  0  0  0  0  0
    5.8830    0.2050   -2.1700 C   0  0  0  0  0  0  0  0  0  0  0  0
    4.3600    0.5350   -0.1950 C   0  0  0  0  0  0  0  0  0  0  0  0
    4.6200   -0.7460    0.4620 C   0  0  1  0  0  0  0  0  0  0  0  0
    4.3610   -0.6060    1.9480 C   0  0  0  0  0  0  0  0  0  0  0  0
    4.8800   -1.8170    2.6310 C   0  0  0  0  0  0  0  0  0  0  0  0
    5.3140   -2.9460    1.7690 C   0  0  0  0  0  0  0  0  0  0  0  0
    4.6930   -3.0660    0.4460 C   0  0  0  0  0  0  0  0  0  0  0  0
    3.9040   -1.9170    0.0270 N   0  0  1  0  0  0  0  0  0  0  0  0
    2.5660   -1.9990    0.4980 C   0  0  0  0  0  0  0  0  0  0  0  0
    2.1860   -3.0150    1.3800 C   0  0  0  0  0  0  0  0  0  0  0  0
    0.8660   -3.1400    1.8280 C   0  0  0  0  0  0  0  0  0  0  0  0
   -0.1030   -2.2810    1.4270 C   0  0  0  0  0  0  0  0  0  0  0  0
    0.2440   -1.2740    0.5610 C   0  0  0  0  0  0  0  0  0  0  0  0
   -0.7440   -0.2960    0.0730 C   0  0  0  0  0  0  0  0  0  0  0  0
   -2.0670   -0.5080    0.5680 N   0  0  1  0  0  0  0  0  0  0  0  0
   -2.2730    0.0250    1.8940 C   0  0  0  0  0  0  0  0  0  0  0  0
   -3.6280   -0.4550    2.3670 C   0  0  0  0  0  0  0  0  0  0  0  0
   -4.5330   -0.8440    1.2170 C   0  0  0  0  0  0  0  0  0  0  0  0
   -4.3940    0.1970    0.1420 C   0  0  2  0  0  0  0  0  0  0  0  0
   -5.3130   -0.0590   -0.9650 N   0  0  0  0  0  0  0  0  0  0  0  0
   -5.1590    0.9450   -1.9720 C   0  0  0  0  0  0  0  0  0  0  0  0
   -5.9730    2.1880   -1.6900 C   0  0  0  0  0  0  0  0  0  0  0  0
   -7.3810    1.9150   -1.5970 N   0  0  2  0  0  0  0  0  0  0  0  0
   -7.9020    2.4630   -0.3530 C   0  0  0  0  0  0  0  0  0  0  0  0
   -7.5670    0.4830   -1.5740 C   0  0  0  0  0  0  0  0  0  0  0  0
   -6.6640   -0.0540   -0.4570 C   0  0  0  0  0  0  0  0  0  0  0  0
   -2.9740    0.2440   -0.3140 C   0  0  0  0  0  0  0  0  0  0  0  0
    1.5530   -1.1480    0.1150 C   0  0  0  0  0  0  0  0  0  0  0  0
  1  2  1  0
  2  3  1  0
  3  4  1  0
  4  5  1  1
  4  6  1  0
  7  6  1  6
  7  8  1  0
  7 12  1  0
  8  9  1  0
  9 10  1  0
 10 11  1  0
 11 12  1  0
 12 13  1  1
 13 14  2  0
 13 32  1  0
 14 15  1  0
 15 16  2  0
 16 17  1  0
 17 18  1  0
 17 32  2  0
 19 18  1  6
 19 20  1  0
 19 31  1  0
 20 21  1  0
 21 22  1  0
 22 23  1  0
 23 24  1  6
 23 31  1  0
 24 25  1  0
 24 30  1  0
 25 26  1  0
 26 27  1  0
 27 28  1  1
 27 29  1  0
 29 30  1  0
M  CHG  4   3   1  12   1  19   1  27   1
M  END
