
     RDKit          3D

 33 37  0  0  0  0  0  0  0  0999 V2000
   -3.6700   -1.1770   -3.0760 C   0  0  0  0  0  0  0  0  0  0  0  0
   -3.8620    0.1980   -2.5080 C   0  0  1  0  0  0  0  0  0  0  0  0
   -5.3580    0.4900   -2.5080 C   0  0  0  0  0  0  0  0  0  0  0  0
   -5.8960   -0.1720   -1.2790 C   0  0  0  0  0  0  0  0  0  0  0  0
   -4.7520   -0.0930   -0.3270 C   0  0  0  0  0  0  0  0  0  0  0  0
   -3.5920    0.1140   -1.0270 C   0  0  0  0  0  0  0  0  0  0  0  0
   -2.4380    0.2100   -0.3220 N   0  0  0  0  0  0  0  0  0  0  0  0
   -2.3560    0.1170    1.0060 C   0  0  0  0  0  0  0  0  0  0  0  0
   -1.1470    0.2190    1.7280 N   0  0  0  0  0  0  0  0  0  0  0  0
    0.1310    0.4370    1.0790 C   0  0  0  0  0  0  0  0  0  0  0  0
    1.2600    0.5090    2.0480 C   0  0  1  0  0  0  0  0  0  0  0  0
    1.4150   -0.7290    2.8460 C   0  0  0  0  0  0  0  0  0  0  0  0
    1.1120   -0.7560    4.0610 O   0  0  0  0  0  0  0  0  0  0  0  0
    1.9170   -1.8420    2.1430 O   0  0  0  0  0  0  0  0  0  0  0  0
    2.8760   -1.5920    1.0940 C   0  0  0  0  0  0  0  0  0  0  0  0
    3.5020   -0.2710    1.4480 C   0  0  0  0  0  0  0  0  0  0  0  0
    2.5420    0.7790    1.3210 N   0  0  0  0  0  0  0  0  0  0  0  0
    2.6990    1.9530    0.6140 C   0  0  0  0  0  0  0  0  0  0  0  0
    1.6780    2.8260    0.9470 O   0  0  0  0  0  0  0  0  0  0  0  0
    3.5480    2.5590   -0.3190 C   0  0  0  0  0  0  0  0  0  0  0  0
    4.5240    2.3840   -1.1130 C   0  0  0  0  0  0  0  0  0  0  0  0
    4.9660    4.0100   -1.9590 Cl  0  0  0  0  0  0  0  0  0  0  0  0
    5.2060    1.2950   -1.7050 C   0  0  0  0  0  0  0  0  0  0  0  0
    6.3070    1.5490   -2.4770 C   0  0  0  0  0  0  0  0  0  0  0  0
    7.1450    0.1590   -3.2130 S   0  0  0  0  0  0  0  0  0  0  0  0
    6.8730   -1.3110   -2.2190 C   0  0  0  0  0  0  0  0  0  0  0  0
    5.8000   -1.0520   -1.2050 C   0  0  0  0  0  0  0  0  0  0  0  0
    4.7540   -0.1100   -1.6960 C   0  0  0  0  0  0  0  0  0  0  0  0
   -3.5430   -0.0940    1.7060 C   0  0  0  0  0  0  0  0  0  0  0  0
   -4.7440   -0.2010    1.0640 C   0  0  0  0  0  0  0  0  0  0  0  0
   -5.8490   -0.4160    2.0650 C   0  0  0  0  0  0  0  0  0  0  0  0
   -5.2130    0.2010    3.3240 C   0  0  0  0  0  0  0  0  0  0  0  0
   -3.7820   -0.2470    3.1510 C   0  0  0  0  0  0  0  0  0  0  0  0
  2  1  1  6
  2  3  1  0
  2  6  1  0
  3  4  1  0
  4  5  1  0
  5  6  2  0
  5 30  1  0
  6  7  1  0
  7  8  2  0
  8  9  1  0
  8 29  1  0
  9 10  1  0
 11 10  1  6
 11 12  1  0
 11 17  1  0
 12 13  2  0
 12 14  1  0
 14 15  1  0
 15 16  1  0
 16 17  1  0
 17 18  1  0
 18 19  2  0
 18 20  1  0
 20 21  2  3
 21 22  1  0
 21 23  1  0
 23 24  2  0
 23 28  1  0
 24 25  1  0
 25 26  1  0
 26 27  1  0
 27 28  1  0
 29 30  2  0
 29 33  1  0
 30 31  1  0
 31 32  1  0
 32 33  1  0
M  CHG  1   7   1
M  END
