
     RDKit          3D

 33 37  0  0  0  0  0  0  0  0999 V2000
   -7.7840    0.2410    1.8470 C   0  0  0  0  0  0  0  0  0  0  0  0
   -7.9030    1.2660    0.7410 C   0  0  1  0  0  0  0  0  0  0  0  0
   -7.2320    2.5440    1.1990 C   0  0  0  0  0  0  0  0  0  0  0  0
   -5.8630    2.1470    1.6610 C   0  0  0  0  0  0  0  0  0  0  0  0
   -5.2890    1.2300    0.5940 C   0  0  0  0  0  0  0  0  0  0  0  0
   -3.5560    0.7640    0.4420 S   0  0  0  0  0  0  0  0  0  0  0  0
   -3.7990   -0.2810   -0.9960 C   0  0  0  0  0  0  0  0  0  0  0  0
   -2.8030   -1.0430   -1.7270 C   0  0  0  0  0  0  0  0  0  0  0  0
   -3.1330   -1.7290   -2.7410 O   0  0  0  0  0  0  0  0  0  0  0  0
   -1.4400   -1.0380   -1.3270 N   0  0  0  0  0  0  0  0  0  0  0  0
   -1.0240   -0.2960   -0.1780 C   0  0  0  0  0  0  0  0  0  0  0  0
    0.3700   -0.5780    0.2450 C   0  0  0  0  0  0  0  0  0  0  0  0
    0.7130   -0.1230    1.3890 O   0  0  0  0  0  0  0  0  0  0  0  0
    1.3280   -1.3120   -0.5310 C   0  0  0  0  0  0  0  0  0  0  0  0
    2.6760   -1.4510   -0.1760 C   0  0  0  0  0  0  0  0  0  0  0  0
    3.1630   -0.9010    1.0140 N   0  0  0  0  0  0  0  0  0  0  0  0
    4.6080   -0.8660    1.2520 C   0  0  0  0  0  0  0  0  0  0  0  0
    5.2910    0.1020    0.3430 C   0  0  1  0  0  0  0  0  0  0  0  0
    4.7490    1.5300    0.5510 C   0  0  0  0  0  0  0  0  0  0  0  0
    5.7880    2.3240   -0.2100 C   0  0  0  0  0  0  0  0  0  0  0  0
    7.0230    1.4530   -0.1240 C   0  0  0  0  0  0  0  0  0  0  0  0
    6.6820    0.3440    0.7600 N   0  0  2  0  0  0  0  0  0  0  0  0
    7.5040   -0.8140    0.5410 C   0  0  0  0  0  0  0  0  0  0  0  0
    3.5350   -2.1850   -1.0140 C   0  0  0  0  0  0  0  0  0  0  0  0
    3.0580   -2.7570   -2.1670 C   0  0  0  0  0  0  0  0  0  0  0  0
    4.1920   -3.6550   -3.1560 Cl  0  0  0  0  0  0  0  0  0  0  0  0
    1.7490   -2.6390   -2.5410 C   0  0  0  0  0  0  0  0  0  0  0  0
    0.8880   -1.9180   -1.7240 C   0  0  0  0  0  0  0  0  0  0  0  0
   -0.4980   -1.7710   -2.1040 C   0  0  0  0  0  0  0  0  0  0  0  0
   -0.8870   -2.3250   -3.1850 O   0  0  0  0  0  0  0  0  0  0  0  0
   -5.1440   -0.1810   -1.2220 C   0  0  0  0  0  0  0  0  0  0  0  0
   -5.8740    0.6030   -0.3860 C   0  0  0  0  0  0  0  0  0  0  0  0
   -7.3970    0.7830   -0.5550 C   0  0  0  0  0  0  0  0  0  0  0  0
  2  1  1  1
  2  3  1  0
  2 33  1  0
  3  4  1  0
  4  5  1  0
  5  6  1  0
  5 32  2  0
  6  7  1  0
  7  8  1  0
  7 31  2  0
  8  9  2  0
  8 10  1  0
 10 11  1  0
 10 29  1  0
 11 12  1  0
 12 13  2  0
 12 14  1  0
 14 15  2  0
 14 28  1  0
 15 16  1  0
 15 24  1  0
 16 17  1  0
 18 17  1  1
 18 19  1  0
 18 22  1  0
 19 20  1  0
 20 21  1  0
 21 22  1  0
 22 23  1  6
 24 25  2  0
 25 26  1  0
 25 27  1  0
 27 28  2  0
 28 29  1  0
 29 30  2  0
 31 32  1  0
 32 33  1  0
M  CHG  1  22   1
M  END
