
     RDKit          3D

 32 37  0  0  0  0  0  0  0  0999 V2000
   -2.3860   -4.0800    0.7080 O   0  0  0  0  0  0  0  0  0  0  0  0
   -2.9870   -3.0060    0.4760 C   0  0  0  0  0  0  0  0  0  0  0  0
   -4.3480   -2.9770    0.5910 N   0  0  0  0  0  0  0  0  0  0  0  0
   -5.0370   -1.8460    0.3510 C   0  0  0  0  0  0  0  0  0  0  0  0
   -6.4150   -1.7860    0.4590 C   0  0  0  0  0  0  0  0  0  0  0  0
   -7.1300   -0.6320    0.2160 C   0  0  0  0  0  0  0  0  0  0  0  0
   -6.4810    0.5320   -0.1530 C   0  0  0  0  0  0  0  0  0  0  0  0
   -7.2380    1.7550   -0.4100 C   0  0  0  0  0  0  0  0  0  0  0  0
   -6.8720    2.7260   -1.3080 C   0  0  0  0  0  0  0  0  0  0  0  0
   -7.8160    3.6900   -1.2610 N   0  0  0  0  0  0  0  0  0  0  0  0
   -8.7310    3.3600   -0.3900 N   0  0  0  0  0  0  0  0  0  0  0  0
   -8.4200    2.1890    0.1530 C   0  0  0  0  0  0  0  0  0  0  0  0
   -5.1080    0.4760   -0.2620 C   0  0  0  0  0  0  0  0  0  0  0  0
   -4.3900   -0.6840   -0.0170 C   0  0  0  0  0  0  0  0  0  0  0  0
   -3.0250   -0.7370   -0.1260 C   0  0  0  0  0  0  0  0  0  0  0  0
   -2.2720   -1.8910    0.1140 C   0  0  0  0  0  0  0  0  0  0  0  0
   -0.8190   -1.8520   -0.0270 C   0  0  0  0  0  0  0  0  0  0  0  0
   -0.0510   -0.7560   -0.3900 C   0  0  0  0  0  0  0  0  0  0  0  0
    1.2820   -1.1090   -0.4150 C   0  0  0  0  0  0  0  0  0  0  0  0
    2.4540   -0.4150   -0.7060 C   0  0  0  0  0  0  0  0  0  0  0  0
    3.6910   -1.0200   -0.6550 C   0  0  0  0  0  0  0  0  0  0  0  0
    4.9560   -0.3240   -0.9530 C   0  0  0  0  0  0  0  0  0  0  0  0
    5.6420    0.1950    0.1770 N   0  0  0  0  0  0  0  0  0  0  0  0
    4.9600    1.1570    0.9660 C   0  0  0  0  0  0  0  0  0  0  0  0
    5.8440    2.3300    1.3680 C   0  0  0  0  0  0  0  0  0  0  0  0
    6.5690    2.8710    0.1520 C   0  0  0  0  0  0  0  0  0  0  0  0
    7.3670    1.8040   -0.5340 C   0  0  0  0  0  0  0  0  0  0  0  0
    7.0390    0.4140   -0.0140 C   0  0  0  0  0  0  0  0  0  0  0  0
    3.7060   -2.3650   -0.2950 C   0  0  0  0  0  0  0  0  0  0  0  0
    2.5500   -3.0540   -0.0070 C   0  0  0  0  0  0  0  0  0  0  0  0
    1.3160   -2.4400   -0.0610 C   0  0  0  0  0  0  0  0  0  0  0  0
    0.0450   -2.8560    0.1650 N   0  0  0  0  0  0  0  0  0  0  0  0
  1  2  2  0
  2  3  1  0
  2 16  1  0
  3  4  1  0
  4  5  2  0
  4 14  1  0
  5  6  1  0
  6  7  2  0
  7  8  1  0
  7 13  1  0
  8  9  1  0
  8 12  2  0
  9 10  2  0
 10 11  1  0
 11 12  1  0
 13 14  2  0
 14 15  1  0
 15 16  2  0
 16 17  1  0
 17 18  2  0
 17 32  1  0
 18 19  1  0
 19 20  2  0
 19 31  1  0
 20 21  1  0
 21 22  1  0
 21 29  2  0
 22 23  1  0
 23 24  1  0
 23 28  1  0
 24 25  1  0
 25 26  1  0
 26 27  1  0
 27 28  1  0
 29 30  1  0
 30 31  2  0
 31 32  1  0
M  END
