
     RDKit          3D

 26 28  0  0  0  0  0  0  0  0999 V2000
   -6.6370   -0.6510   -0.6810 C   0  0  0  0  0  0  0  0  0  0  0  0
   -5.9160   -1.0810    0.2960 C   0  0  0  0  0  0  0  0  0  0  0  0
   -4.5850   -0.7820    0.7270 C   0  0  0  0  0  0  0  0  0  0  0  0
   -4.0650   -1.4440    1.7440 C   0  0  0  0  0  0  0  0  0  0  0  0
   -4.7480   -2.4660    2.4660 C   0  0  0  0  0  0  0  0  0  0  0  0
   -4.1630   -3.0730    3.4620 O   0  0  0  0  0  0  0  0  0  0  0  0
   -3.7170    0.1880    0.0590 C   0  0  0  0  0  0  0  0  0  0  0  0
   -2.3370   -0.0890   -0.0200 C   0  0  0  0  0  0  0  0  0  0  0  0
   -1.4160    0.7930   -0.5220 C   0  0  0  0  0  0  0  0  0  0  0  0
   -0.0140    0.4800   -0.5870 N   0  0  0  0  0  0  0  0  0  0  0  0
    0.3960   -0.7880   -0.0760 C   0  0  0  0  0  0  0  0  0  0  0  0
    1.8610   -1.0370   -0.0400 C   0  0  0  0  0  0  0  0  0  0  0  0
    2.6100    0.2730    0.0150 C   0  0  1  0  0  0  0  0  0  0  0  0
    4.0130    0.1330    0.2260 N   0  0  1  0  0  0  0  0  0  0  0  0
    4.3580   -1.0910    0.9500 C   0  0  0  0  0  0  0  0  0  0  0  0
    5.8010   -0.8960    1.4380 C   0  0  0  0  0  0  0  0  0  0  0  0
    6.6260   -0.9810    0.2360 N   0  0  0  0  0  0  0  0  0  0  0  0
    5.9740   -0.6690   -0.9890 C   0  0  0  0  0  0  0  0  0  0  0  0
    6.3740   -1.1720   -2.0760 O   0  0  0  0  0  0  0  0  0  0  0  0
    4.8160    0.2620   -0.9460 C   0  0  0  0  0  0  0  0  0  0  0  0
    2.2760    0.9700   -1.3060 C   0  0  0  0  0  0  0  0  0  0  0  0
    0.8590    1.4770   -1.1650 C   0  0  0  0  0  0  0  0  0  0  0  0
   -1.9060    2.0040   -0.9630 C   0  0  0  0  0  0  0  0  0  0  0  0
   -3.2360    2.3340   -0.9120 C   0  0  0  0  0  0  0  0  0  0  0  0
   -4.1300    1.4080   -0.3930 C   0  0  0  0  0  0  0  0  0  0  0  0
   -5.4630    1.9000   -0.2660 N   0  0  0  0  0  0  0  0  0  0  0  0
  1  2  2  0
  2  3  1  0
  3  4  2  3
  3  7  1  0
  4  5  1  0
  5  6  2  0
  7  8  2  0
  7 25  1  0
  8  9  1  0
  9 10  1  0
  9 23  2  0
 10 11  1  0
 10 22  1  0
 11 12  1  0
 13 12  1  6
 13 14  1  0
 13 21  1  0
 14 15  1  6
 14 20  1  0
 15 16  1  0
 16 17  1  0
 17 18  1  0
 18 19  2  0
 18 20  1  0
 21 22  1  0
 23 24  1  0
 24 25  2  0
 25 26  1  0
M  CHG  1  14   1
M  END
