
     RDKit          3D

 26 28  0  0  0  0  0  0  0  0999 V2000
   -6.1650    1.6870    1.2820 C   0  0  0  0  0  0  0  0  0  0  0  0
   -5.5510    0.7240    0.2890 C   0  0  0  0  0  0  0  0  0  0  0  0
   -5.0440    1.3720   -0.8810 N   0  0  1  0  0  0  0  0  0  0  0  0
   -4.9640    2.8070   -0.7750 C   0  0  0  0  0  0  0  0  0  0  0  0
   -3.8200    0.7610   -1.3240 C   0  0  0  0  0  0  0  0  0  0  0  0
   -2.7000    1.1060   -0.3970 C   0  0  0  0  0  0  0  0  0  0  0  0
   -1.4330    0.5650   -0.7220 N   0  0  0  0  0  0  0  0  0  0  0  0
   -1.3030   -0.8440   -0.6010 C   0  0  2  0  0  0  0  0  0  0  0  0
   -1.4930   -1.3760    0.7910 C   0  0  0  0  0  0  0  0  0  0  0  0
   -1.5570   -2.8700    0.7700 C   0  0  0  0  0  0  0  0  0  0  0  0
   -0.5350   -3.5540   -0.0580 C   0  0  0  0  0  0  0  0  0  0  0  0
   -0.1430   -2.8500   -1.3090 C   0  0  0  0  0  0  0  0  0  0  0  0
    0.0200   -1.3340   -1.1130 C   0  0  2  0  0  0  0  0  0  0  0  0
    1.1150   -1.1890   -0.1970 N   0  0  0  0  0  0  0  0  0  0  0  0
    2.3560   -0.6330   -0.6120 C   0  0  0  0  0  0  0  0  0  0  0  0
    2.4440   -0.2820   -1.8000 O   0  0  0  0  0  0  0  0  0  0  0  0
    3.4480   -0.4860    0.2910 N   0  0  0  0  0  0  0  0  0  0  0  0
    4.7100    0.0430   -0.0370 C   0  0  0  0  0  0  0  0  0  0  0  0
    5.1770    0.3150   -1.2950 C   0  0  0  0  0  0  0  0  0  0  0  0
    6.4460    0.8530   -1.4920 C   0  0  0  0  0  0  0  0  0  0  0  0
    7.3000    1.1420   -0.4540 C   0  0  0  0  0  0  0  0  0  0  0  0
    8.5160    1.6410   -0.3750 O   0  0  0  0  0  0  0  0  0  0  0  0
    8.8980    1.7200    0.8900 C   0  0  0  0  0  0  0  0  0  0  0  0
    7.8740    1.2470    1.6590 C   0  0  0  0  0  0  0  0  0  0  0  0
    6.8450    0.8740    0.8140 C   0  0  0  0  0  0  0  0  0  0  0  0
    5.5900    0.3420    1.0110 C   0  0  0  0  0  0  0  0  0  0  0  0
  1  2  1  0
  2  3  1  0
  3  4  1  1
  3  5  1  0
  5  6  1  0
  6  7  1  0
  8  7  1  1
  8  9  1  0
  8 13  1  0
  9 10  1  0
 10 11  1  0
 11 12  1  0
 12 13  1  0
 13 14  1  1
 14 15  1  0
 15 16  2  0
 15 17  1  0
 17 18  1  0
 18 19  2  0
 18 26  1  0
 19 20  1  0
 20 21  2  0
 21 22  1  0
 21 25  1  0
 22 23  1  0
 23 24  2  0
 24 25  1  0
 25 26  2  0
M  CHG  1   3   1
M  END
