
     RDKit          3D

 23 26  0  0  0  0  0  0  0  0999 V2000
   -3.3910    2.4530   -1.0040 C   0  0  0  0  0  0  0  0  0  0  0  0
   -3.5330    2.7800    0.2620 C   0  0  0  0  0  0  0  0  0  0  0  0
   -3.0450    1.8620    1.3120 C   0  0  0  0  0  0  0  0  0  0  0  0
   -2.4540    0.6250    0.7560 C   0  0  0  0  0  0  0  0  0  0  0  0
   -3.1600   -0.4450    0.2660 C   0  0  0  0  0  0  0  0  0  0  0  0
   -4.6420   -0.5850    0.2010 C   0  0  0  0  0  0  0  0  0  0  0  0
   -4.9530   -1.8290   -0.3680 O   0  0  0  0  0  0  0  0  0  0  0  0
   -2.2520   -1.3680   -0.1560 N   0  0  0  0  0  0  0  0  0  0  0  0
   -1.0410   -0.8840    0.0670 N   0  0  0  0  0  0  0  0  0  0  0  0
    0.1410   -1.4820   -0.2070 C   0  0  0  0  0  0  0  0  0  0  0  0
    1.2860   -0.8040    0.1020 C   0  0  0  0  0  0  0  0  0  0  0  0
    2.5050   -1.3500   -0.1520 C   0  0  0  0  0  0  0  0  0  0  0  0
    3.6100   -0.6630    0.1580 N   0  0  0  0  0  0  0  0  0  0  0  0
    3.5550    0.5580    0.7160 C   0  0  0  0  0  0  0  0  0  0  0  0
    4.8600    1.2240    1.0120 C   0  0  0  0  0  0  0  0  0  0  0  0
    5.2060    2.0230   -0.2490 C   0  0  0  0  0  0  0  0  0  0  0  0
    2.3740    1.1330    0.9840 N   0  0  0  0  0  0  0  0  0  0  0  0
    1.2470    0.4700    0.6850 C   0  0  0  0  0  0  0  0  0  0  0  0
    0.0310    0.9890    0.9240 N   0  0  0  0  0  0  0  0  0  0  0  0
   -1.1080    0.3390    0.6270 C   0  0  0  0  0  0  0  0  0  0  0  0
    2.5660   -2.6520   -0.7440 N   0  0  0  0  0  0  0  0  0  0  0  0
    1.4250   -3.5520   -0.7330 C   0  0  0  0  0  0  0  0  0  0  0  0
    0.2110   -2.7690   -0.8020 N   0  0  0  0  0  0  0  0  0  0  0  0
  1  2  2  0
  2  3  1  0
  3  4  1  0
  4  5  1  0
  4 20  2  0
  5  6  1  0
  5  8  2  0
  6  7  1  0
  8  9  1  0
  9 10  1  0
  9 20  1  0
 10 11  2  0
 10 23  1  0
 11 12  1  0
 11 18  1  0
 12 13  2  0
 12 21  1  0
 13 14  1  0
 14 15  1  0
 14 17  2  0
 15 16  1  0
 17 18  1  0
 18 19  2  0
 19 20  1  0
 21 22  1  0
 22 23  1  0
M  END
