
     RDKit          3D

 23 26  0  0  0  0  0  0  0  0999 V2000
   -4.9070   -2.6650    0.9370 C   0  0  0  0  0  0  0  0  0  0  0  0
   -4.4960   -1.3070    0.4770 C   0  0  0  0  0  0  0  0  0  0  0  0
   -3.1600   -0.9680    0.3710 C   0  0  0  0  0  0  0  0  0  0  0  0
   -2.7370    0.2630   -0.0450 C   0  0  0  0  0  0  0  0  0  0  0  0
   -1.3670    0.6220   -0.1570 N   0  0  0  0  0  0  0  0  0  0  0  0
   -0.3740   -0.3560    0.1830 C   0  0  0  0  0  0  0  0  0  0  0  0
    0.9700    0.1990    0.0040 C   0  0  0  0  0  0  0  0  0  0  0  0
    2.1240   -0.4920    0.2480 N   0  0  0  0  0  0  0  0  0  0  0  0
    3.1500    0.3150   -0.0200 C   0  0  0  0  0  0  0  0  0  0  0  0
    4.5580    0.0160    0.0930 C   0  0  0  0  0  0  0  0  0  0  0  0
    5.0580   -0.8040    0.9380 N   0  0  0  0  0  0  0  0  0  0  0  0
    6.4150   -1.1100    1.0670 C   0  0  0  0  0  0  0  0  0  0  0  0
    7.3000   -0.5360    0.2780 C   0  0  0  0  0  0  0  0  0  0  0  0
    6.8740    0.4300   -0.7420 C   0  0  0  0  0  0  0  0  0  0  0  0
    5.4540    0.6670   -0.7840 N   0  0  0  0  0  0  0  0  0  0  0  0
    2.6350    1.4810   -0.4210 N   0  0  0  0  0  0  0  0  0  0  0  0
    1.3560    1.3790   -0.3950 O   0  0  0  0  0  0  0  0  0  0  0  0
   -3.6830    1.2100   -0.3750 C   0  0  0  0  0  0  0  0  0  0  0  0
   -3.5600    2.5230   -0.8210 C   0  0  0  0  0  0  0  0  0  0  0  0
   -4.8150    2.9590   -0.9790 N   0  0  0  0  0  0  0  0  0  0  0  0
   -5.6830    2.0150   -0.6640 N   0  0  0  0  0  0  0  0  0  0  0  0
   -5.0190    0.8950   -0.2770 C   0  0  0  0  0  0  0  0  0  0  0  0
   -5.4400   -0.3570    0.1460 C   0  0  0  0  0  0  0  0  0  0  0  0
  1  2  1  0
  2  3  2  0
  2 23  1  0
  3  4  1  0
  4  5  1  0
  4 18  2  0
  5  6  1  0
  6  7  1  0
  7  8  2  0
  7 17  1  0
  8  9  1  0
  9 10  1  0
  9 16  2  0
 10 11  2  0
 10 15  1  0
 11 12  1  0
 12 13  2  0
 13 14  1  0
 14 15  1  0
 16 17  1  0
 18 19  1  0
 18 22  1  0
 19 20  2  0
 20 21  1  0
 21 22  1  0
 22 23  2  0
M  END
