
     RDKit          3D

 23 26  0  0  0  0  0  0  0  0999 V2000
   -4.3240    0.3620   -1.9820 O   0  0  0  0  0  0  0  0  0  0  0  0
   -5.0890    0.1200   -0.8460 C   0  0  0  0  0  0  0  0  0  0  0  0
   -6.3790    0.2970   -0.8480 N   0  0  0  0  0  0  0  0  0  0  0  0
   -6.9310   -0.0230    0.4520 C   0  0  0  0  0  0  0  0  0  0  0  0
   -5.7160   -0.4300    1.2400 C   0  0  0  0  0  0  0  0  0  0  0  0
   -4.6640   -0.3370    0.4630 C   0  0  0  0  0  0  0  0  0  0  0  0
   -3.2830   -0.6370    0.8260 C   0  0  0  0  0  0  0  0  0  0  0  0
   -2.1580   -0.5380   -0.0020 C   0  0  0  0  0  0  0  0  0  0  0  0
   -1.0570   -0.9110    0.7280 C   0  0  0  0  0  0  0  0  0  0  0  0
    0.3460   -0.9660    0.2800 C   0  0  0  0  0  0  0  0  0  0  0  0
    1.0240    0.2910    0.5210 N   0  0  0  0  0  0  0  0  0  0  0  0
    2.3880    0.4590    0.1650 C   0  0  0  0  0  0  0  0  0  0  0  0
    3.0890    1.6100    0.3620 C   0  0  0  0  0  0  0  0  0  0  0  0
    4.4220    1.7060   -0.0110 C   0  0  0  0  0  0  0  0  0  0  0  0
    5.0520    0.6350   -0.5860 C   0  0  0  0  0  0  0  0  0  0  0  0
    6.3710    0.6470   -0.9840 C   0  0  0  0  0  0  0  0  0  0  0  0
    6.8680   -0.5090   -1.5480 C   0  0  0  0  0  0  0  0  0  0  0  0
    6.1370   -1.6220   -1.7220 N   0  0  0  0  0  0  0  0  0  0  0  0
    4.8790   -1.6210   -1.3380 N   0  0  0  0  0  0  0  0  0  0  0  0
    4.3310   -0.5190   -0.7770 C   0  0  0  0  0  0  0  0  0  0  0  0
    3.0500   -0.5750   -0.4060 N   0  0  0  0  0  0  0  0  0  0  0  0
   -1.4890   -1.2260    1.9540 N   0  0  0  0  0  0  0  0  0  0  0  0
   -2.7980   -1.0630    2.0060 N   0  0  0  0  0  0  0  0  0  0  0  0
  1  2  1  0
  2  3  2  0
  2  6  1  0
  3  4  1  0
  4  5  1  0
  5  6  2  0
  6  7  1  0
  7  8  1  0
  7 23  2  0
  8  9  2  0
  9 10  1  0
  9 22  1  0
 10 11  1  0
 11 12  1  0
 12 13  2  0
 12 21  1  0
 13 14  1  0
 14 15  2  0
 15 16  1  0
 15 20  1  0
 16 17  2  0
 17 18  1  0
 18 19  2  0
 19 20  1  0
 20 21  2  0
 22 23  1  0
M  END
