
     RDKit          3D

 26 27  0  0  0  0  0  0  0  0999 V2000
   -4.3490    3.8490    1.5170 C   0  0  0  0  0  0  0  0  0  0  0  0
   -4.6730    2.3640    1.3140 C   0  0  0  0  0  0  0  0  0  0  0  0
   -3.4640    1.7200    0.6240 C   0  0  0  0  0  0  0  0  0  0  0  0
   -3.7380    0.2750    0.4120 C   0  0  0  0  0  0  0  0  0  0  0  0
   -4.8680   -0.2740    0.7510 N   0  0  0  0  0  0  0  0  0  0  0  0
   -5.1820   -1.6680    0.5660 C   0  0  0  0  0  0  0  0  0  0  0  0
   -4.2280   -2.3190   -0.4450 C   0  0  0  0  0  0  0  0  0  0  0  0
   -2.8400   -1.9460    0.0400 C   0  0  0  0  0  0  0  0  0  0  0  0
   -2.6940   -0.5180   -0.1940 N   0  0  0  0  0  0  0  0  0  0  0  0
   -1.6360    0.0940   -0.9510 C   0  0  2  0  0  0  0  0  0  0  0  0
   -1.5800   -0.2740   -2.3950 C   0  0  0  0  0  0  0  0  0  0  0  0
   -1.3850   -1.7230   -2.7010 C   0  0  0  0  0  0  0  0  0  0  0  0
   -0.2980   -0.1500   -0.3380 C   0  0  0  0  0  0  0  0  0  0  0  0
   -0.1440   -0.8540    0.6950 O   0  0  0  0  0  0  0  0  0  0  0  0
    0.8810    0.4090   -0.8970 N   0  0  0  0  0  0  0  0  0  0  0  0
    2.1700    0.2000   -0.3450 C   0  0  0  0  0  0  0  0  0  0  0  0
    3.1180   -0.3680   -1.0310 C   0  0  0  0  0  0  0  0  0  0  0  0
    4.4830   -0.6290   -0.5520 C   0  0  0  0  0  0  0  0  0  0  0  0
    5.4580   -1.2380   -1.2980 N   0  0  0  0  0  0  0  0  0  0  0  0
    6.5830   -1.3380   -0.6070 C   0  0  0  0  0  0  0  0  0  0  0  0
    6.4060   -0.7950    0.6440 C   0  0  0  0  0  0  0  0  0  0  0  0
    7.3860   -0.6900    1.7430 C   0  0  0  0  0  0  0  0  0  0  0  0
    5.0730   -0.3540    0.6550 C   0  0  0  0  0  0  0  0  0  0  0  0
    4.4790    0.2920    1.8070 C   0  0  0  0  0  0  0  0  0  0  0  0
    4.5400    1.7620    1.9860 C   0  0  0  0  0  0  0  0  0  0  0  0
    3.9060   -0.4030    2.6670 O   0  0  0  0  0  0  0  0  0  0  0  0
  1  2  1  0
  2  3  1  0
  3  4  1  0
  4  5  2  0
  4  9  1  0
  5  6  1  0
  6  7  1  0
  7  8  1  0
  8  9  1  0
  9 10  1  0
 10 11  1  6
 10 13  1  0
 11 12  1  0
 13 14  2  0
 13 15  1  0
 15 16  1  0
 16 17  2  3
 17 18  1  0
 18 19  1  0
 18 23  2  0
 19 20  1  0
 20 21  2  0
 21 22  1  0
 21 23  1  0
 23 24  1  0
 24 25  1  0
 24 26  2  0
M  CHG  1   5   1
M  END
