
     RDKit          3D

 20 19  0  0  0  0  0  0  0  0999 V2000
    5.2790    2.0230    1.2310 C   0  0  0  0  0  0  0  0  0  0  0  0
    4.9100    0.9640    0.3750 O   0  0  0  0  0  0  0  0  0  0  0  0
    4.7790    1.1100   -0.9900 C   0  0  0  0  0  0  0  0  0  0  0  0
    4.9950    2.2380   -1.5140 O   0  0  0  0  0  0  0  0  0  0  0  0
    4.3930   -0.0040   -1.8870 C   0  0  0  0  0  0  0  0  0  0  0  0
    4.1910   -1.1970   -1.1180 N   0  0  0  0  0  0  0  0  0  0  0  0
    5.2390   -2.1490   -0.8310 C   0  0  0  0  0  0  0  0  0  0  0  0
    2.8920   -1.4660   -0.6040 C   0  0  0  0  0  0  0  0  0  0  0  0
    2.6930   -2.4940    0.0670 O   0  0  0  0  0  0  0  0  0  0  0  0
    1.8210   -0.6100   -0.8260 O   0  0  0  0  0  0  0  0  0  0  0  0
    0.5560   -1.0000   -0.2490 C   0  0  2  0  0  0  0  0  0  0  0  0
   -0.3500   -1.2030   -1.4210 C   0  0  0  0  0  0  0  0  0  0  0  0
    0.1930    0.0820    0.7020 C   0  0  0  0  0  0  0  0  0  0  0  0
   -1.0460   -0.0560    1.4890 C   0  0  0  0  0  0  0  0  0  0  0  0
   -2.2780   -0.1430    0.6430 C   0  0  0  0  0  0  0  0  0  0  0  0
   -3.4830   -0.2280    1.6080 C   0  0  0  0  0  0  0  0  0  0  0  0
   -4.7820   -0.3200    0.8950 C   0  0  0  0  0  0  0  0  0  0  0  0
   -5.1270    0.7510    0.0280 N   0  0  1  0  0  0  0  0  0  0  0  0
   -4.5770    2.0290    0.3260 C   0  0  0  0  0  0  0  0  0  0  0  0
   -4.6570    0.3850   -1.3180 C   0  0  0  0  0  0  0  0  0  0  0  0
  1  2  1  0
  2  3  1  0
  3  4  2  0
  3  5  1  0
  5  6  1  0
  6  7  1  0
  6  8  1  0
  8  9  2  0
  8 10  1  0
 10 11  1  0
 11 12  1  6
 11 13  1  0
 13 14  1  0
 14 15  1  0
 15 16  1  0
 16 17  1  0
 17 18  1  0
 18 19  1  1
 18 20  1  0
M  CHG  1  18   1
M  END
