
     RDKit          3D

 20 19  0  0  0  0  0  0  0  0999 V2000
    6.2750    0.2330    1.4290 C   0  0  0  0  0  0  0  0  0  0  0  0
    4.8960    0.6520    1.8650 C   0  0  0  0  0  0  0  0  0  0  0  0
    4.0390    0.5750    0.7470 O   0  0  0  0  0  0  0  0  0  0  0  0
    4.2150    1.2870   -0.4080 C   0  0  0  0  0  0  0  0  0  0  0  0
    5.1790    2.0620   -0.5230 O   0  0  0  0  0  0  0  0  0  0  0  0
    3.2410    1.1170   -1.5160 C   0  0  0  0  0  0  0  0  0  0  0  0
    2.2010    0.1670   -1.1680 N   0  0  0  0  0  0  0  0  0  0  0  0
    2.3240   -1.2500   -1.4400 C   0  0  0  0  0  0  0  0  0  0  0  0
    1.0390    0.6660   -0.5450 C   0  0  0  0  0  0  0  0  0  0  0  0
    0.9090    1.8730   -0.3010 O   0  0  0  0  0  0  0  0  0  0  0  0
   -0.0360   -0.2880   -0.1820 C   0  0  0  0  0  0  0  0  0  0  0  0
   -1.1260    0.4140    0.4380 N   0  0  2  0  0  0  0  0  0  0  0  0
   -0.6660    1.2200    1.5350 C   0  0  0  0  0  0  0  0  0  0  0  0
   -2.0950   -0.5870    0.8640 C   0  0  0  0  0  0  0  0  0  0  0  0
   -2.9070   -0.9440   -0.3230 C   0  0  0  0  0  0  0  0  0  0  0  0
   -4.2000   -0.7640   -0.3340 C   0  0  0  0  0  0  0  0  0  0  0  0
   -4.8470   -0.1910    0.8780 C   0  0  0  0  0  0  0  0  0  0  0  0
   -4.9560   -1.1270   -1.5190 C   0  0  0  0  0  0  0  0  0  0  0  0
   -6.4440   -0.9320   -1.5590 C   0  0  0  0  0  0  0  0  0  0  0  0
   -4.3700   -1.6030   -2.5070 O   0  0  0  0  0  0  0  0  0  0  0  0
  1  2  1  0
  2  3  1  0
  3  4  1  0
  4  5  2  0
  4  6  1  0
  6  7  1  0
  7  8  1  0
  7  9  1  0
  9 10  2  0
  9 11  1  0
 11 12  1  0
 12 13  1  1
 12 14  1  0
 14 15  1  0
 15 16  2  3
 16 17  1  0
 16 18  1  0
 18 19  1  0
 18 20  2  0
M  CHG  1  12   1
M  END
