
     RDKit          3D

 20 20  0  0  0  0  0  0  0  0999 V2000
   -6.1620    1.3030   -0.2690 C   0  0  0  0  0  0  0  0  0  0  0  0
   -4.8990    1.5340    0.5350 C   0  0  0  0  0  0  0  0  0  0  0  0
   -3.9120    0.5530    0.2360 N   0  0  1  0  0  0  0  0  0  0  0  0
   -2.6460    1.1200   -0.1950 C   0  0  0  0  0  0  0  0  0  0  0  0
   -1.5320    0.8140    0.7540 C   0  0  0  0  0  0  0  0  0  0  0  0
   -1.2150   -0.6310    0.8130 N   0  0  0  0  0  0  0  0  0  0  0  0
   -0.4550   -1.0150   -0.3320 C   0  0  2  0  0  0  0  0  0  0  0  0
   -1.0450   -2.2550   -1.0140 C   0  0  0  0  0  0  0  0  0  0  0  0
    0.9780   -1.3070   -0.1010 C   0  0  0  0  0  0  0  0  0  0  0  0
    1.4520   -1.2780    1.0520 O   0  0  0  0  0  0  0  0  0  0  0  0
    1.8110   -1.6200   -1.1210 O   0  0  0  0  0  0  0  0  0  0  0  0
    3.0900   -1.9550   -1.3030 C   0  0  0  0  0  0  0  0  0  0  0  0
    4.2130   -1.1310   -0.8740 C   0  0  0  0  0  0  0  0  0  0  0  0
    5.4230   -1.5810   -1.2020 O   0  0  0  0  0  0  0  0  0  0  0  0
    4.2980    0.0420   -0.1850 O   0  0  0  0  0  0  0  0  0  0  0  0
    5.5430    0.6600    0.1330 C   0  0  1  0  0  0  0  0  0  0  0  0
    5.6290    1.9670   -0.6060 C   0  0  0  0  0  0  0  0  0  0  0  0
    5.7670    0.8830    1.5950 C   0  0  0  0  0  0  0  0  0  0  0  0
   -2.5230   -1.2920    0.8440 C   0  0  0  0  0  0  0  0  0  0  0  0
   -3.5940   -0.3450    1.3380 C   0  0  0  0  0  0  0  0  0  0  0  0
  1  2  1  0
  3  2  1  1
  3  4  1  0
  3 20  1  0
  4  5  1  0
  5  6  1  0
  6  7  1  0
  6 19  1  0
  7  8  1  1
  7  9  1  0
  9 10  2  0
  9 11  1  0
 11 12  1  0
 12 13  1  0
 13 14  2  0
 13 15  1  0
 15 16  1  0
 16 17  1  6
 16 18  1  0
 19 20  1  0
M  CHG  1   3   1
M  END
