
     RDKit          3D

 19 19  0  0  0  0  0  0  0  0999 V2000
    7.5060    1.0140    0.4740 C   0  0  0  0  0  0  0  0  0  0  0  0
    6.5400    0.0050   -0.0980 C   0  0  0  0  0  0  0  0  0  0  0  0
    5.2310    0.5900   -0.0050 O   0  0  0  0  0  0  0  0  0  0  0  0
    4.1320   -0.1060   -0.4710 C   0  0  0  0  0  0  0  0  0  0  0  0
    4.3800   -1.2530   -0.9550 O   0  0  0  0  0  0  0  0  0  0  0  0
    2.7650    0.4450   -0.4130 C   0  0  0  0  0  0  0  0  0  0  0  0
    1.8190   -0.4210   -0.9540 O   0  0  0  0  0  0  0  0  0  0  0  0
    0.4580   -0.1450   -1.0980 C   0  0  0  0  0  0  0  0  0  0  0  0
    0.1360    1.0210   -0.6760 O   0  0  0  0  0  0  0  0  0  0  0  0
   -0.5020   -1.0840   -1.6710 C   0  0  0  0  0  0  0  0  0  0  0  0
   -1.4610   -1.6940   -0.6960 C   0  0  0  0  0  0  0  0  0  0  0  0
   -2.2880   -0.7790    0.0110 N   0  0  0  0  0  0  0  0  0  0  0  0
   -1.8630    0.0400    1.0640 C   0  0  0  0  0  0  0  0  0  0  0  0
   -2.6210    0.9010    1.6310 N   0  0  0  0  0  0  0  0  0  0  0  0
   -3.9820    1.0960    1.2230 C   0  0  2  0  0  0  0  0  0  0  0  0
   -4.9490    0.9000    2.3870 C   0  0  0  0  0  0  0  0  0  0  0  0
   -4.4470    0.2400    0.1190 C   0  0  0  0  0  0  0  0  0  0  0  0
   -3.6410   -0.6360   -0.4400 C   0  0  0  0  0  0  0  0  0  0  0  0
   -4.1160   -1.5080   -1.5630 C   0  0  0  0  0  0  0  0  0  0  0  0
  1  2  1  0
  2  3  1  0
  3  4  1  0
  4  5  2  0
  4  6  1  0
  6  7  1  0
  7  8  1  0
  8  9  2  0
  8 10  1  0
 10 11  1  0
 11 12  1  0
 12 13  1  0
 12 18  1  0
 13 14  2  0
 14 15  1  0
 15 16  1  1
 15 17  1  0
 17 18  2  0
 18 19  1  0
M  CHG  1  14   1
M  END
