
     RDKit          3D

 23 26  0  0  0  0  0  0  0  0999 V2000
   -2.6880    2.5200    1.3990 C   0  0  0  0  0  0  0  0  0  0  0  0
   -3.0940    1.6990    0.1920 C   0  0  2  0  0  0  0  0  0  0  0  0
   -3.9980    2.5680   -0.6590 C   0  0  0  0  0  0  0  0  0  0  0  0
   -3.9300    0.5260    0.6530 C   0  0  0  0  0  0  0  0  0  0  0  0
   -3.3730   -0.6860   -0.0620 C   0  0  2  0  0  0  0  0  0  0  0  0
   -4.0330   -1.9520    0.4320 C   0  0  0  0  0  0  0  0  0  0  0  0
   -2.9680   -3.0120    0.3230 C   0  0  0  0  0  0  0  0  0  0  0  0
   -1.6340   -2.2690    0.1670 C   0  0  0  0  0  0  0  0  0  0  0  0
   -1.9590   -0.8690    0.5120 C   0  0  1  0  0  0  0  0  0  0  0  0
   -1.0850    0.2050    0.0170 C   0  0  1  0  0  0  0  0  0  0  0  0
    0.0560   -0.1760   -0.8300 C   0  0  0  0  0  0  0  0  0  0  0  0
    0.0360    0.2750   -1.9910 O   0  0  0  0  0  0  0  0  0  0  0  0
    1.1950   -1.0160   -0.4570 C   0  0  1  0  0  0  0  0  0  0  0  0
    2.1330   -1.1290   -1.6640 C   0  0  0  0  0  0  0  0  0  0  0  0
    2.9140    0.1160   -1.8930 C   0  0  0  0  0  0  0  0  0  0  0  0
    3.0640    0.9030   -0.7610 O   0  0  0  0  0  0  0  0  0  0  0  0
    3.2730    0.1450    0.3720 C   0  0  2  0  0  0  0  0  0  0  0  0
    3.6800    1.0260    1.5310 C   0  0  0  0  0  0  0  0  0  0  0  0
    5.1590    1.1800    1.4150 C   0  0  0  0  0  0  0  0  0  0  0  0
    5.6040   -0.1860    0.9630 C   0  0  0  0  0  0  0  0  0  0  0  0
    4.4050   -0.8210    0.2770 C   0  0  0  0  0  0  0  0  0  0  0  0
    1.9550   -0.4950    0.7480 C   0  0  0  0  0  0  0  0  0  0  0  0
   -1.9210    1.2930   -0.6290 C   0  0  0  0  0  0  0  0  0  0  0  0
  2  1  1  1
  2  3  1  0
  2  4  1  0
  2 23  1  0
  5  4  1  1
  5  6  1  0
  5  9  1  0
  6  7  1  0
  7  8  1  0
  9  8  1  6
  9 10  1  0
 10 11  1  6
 10 23  1  0
 11 12  2  0
 13 11  1  6
 13 14  1  0
 13 22  1  0
 14 15  1  0
 15 16  1  0
 16 17  1  0
 17 18  1  1
 17 21  1  0
 17 22  1  0
 18 19  1  0
 19 20  1  0
 20 21  1  0
M  END
