
     RDKit          3D

 22 25  0  0  0  0  0  0  0  0999 V2000
    0.9990   -2.3220   -1.6280 O   0  0  0  0  0  0  0  0  0  0  0  0
    1.6000   -1.7680   -0.7430 C   0  0  0  0  0  0  0  0  0  0  0  0
    3.0680   -1.4280   -0.8710 C   0  0  0  0  0  0  0  0  0  0  0  0
    3.0490    0.1100   -0.9000 C   0  0  2  0  0  0  0  0  0  0  0  0
    4.4050    0.5760   -1.2900 C   0  0  0  0  0  0  0  0  0  0  0  0
    5.3420    0.8900   -0.1910 C   0  0  0  0  0  0  0  0  0  0  0  0
    4.7600    0.7110    1.1930 C   0  0  0  0  0  0  0  0  0  0  0  0
    3.4540    1.4560    1.1800 C   0  0  0  0  0  0  0  0  0  0  0  0
    2.4430    0.7080    0.2970 C   0  0  2  0  0  0  0  0  0  0  0  0
    1.7020   -0.2200    1.2040 C   0  0  0  0  0  0  0  0  0  0  0  0
    1.0030   -1.3560    0.5550 C   0  0  1  0  0  0  0  0  0  0  0  0
   -0.4940   -1.1810    0.4730 C   0  0  2  0  0  0  0  0  0  0  0  0
   -1.1350   -2.4920    0.0600 C   0  0  0  0  0  0  0  0  0  0  0  0
   -2.5670   -2.4460    0.6080 C   0  0  0  0  0  0  0  0  0  0  0  0
   -3.0060   -0.9910    0.4660 C   0  0  0  0  0  0  0  0  0  0  0  0
   -2.2360   -0.2890   -0.6100 C   0  0  1  0  0  0  0  0  0  0  0  0
   -2.9020    1.0260   -0.9270 C   0  0  1  0  0  0  0  0  0  0  0  0
   -4.3050    0.8090   -1.3980 C   0  0  0  0  0  0  0  0  0  0  0  0
   -5.2420    1.3180   -0.3540 C   0  0  0  0  0  0  0  0  0  0  0  0
   -4.4130    1.9090    0.7520 C   0  0  0  0  0  0  0  0  0  0  0  0
   -2.9850    1.9240    0.2870 C   0  0  0  0  0  0  0  0  0  0  0  0
   -0.8940   -0.1530   -0.3360 O   0  0  0  0  0  0  0  0  0  0  0  0
  1  2  2  0
  2  3  1  0
  2 11  1  0
  4  3  1  1
  4  5  1  0
  4  9  1  0
  5  6  1  0
  6  7  1  0
  7  8  1  0
  9  8  1  1
  9 10  1  0
 11 10  1  6
 11 12  1  0
 12 13  1  6
 12 22  1  0
 13 14  1  0
 14 15  1  0
 16 15  1  1
 16 17  1  0
 16 22  1  0
 17 18  1  1
 17 21  1  0
 18 19  1  0
 19 20  1  0
 20 21  1  0
M  END
