
     RDKit          3D

 23 26  0  0  0  0  0  0  0  0999 V2000
   -1.9880    3.1850    0.1360 C   0  0  0  0  0  0  0  0  0  0  0  0
   -2.0880    2.0740   -0.5160 C   0  0  0  0  0  0  0  0  0  0  0  0
   -1.6090    1.7020   -1.8820 C   0  0  0  0  0  0  0  0  0  0  0  0
   -1.7370    0.3630   -2.0110 O   0  0  0  0  0  0  0  0  0  0  0  0
   -2.0180   -0.2270   -0.7190 C   0  0  2  0  0  0  0  0  0  0  0  0
   -0.6600   -0.5640   -0.2380 C   0  0  2  0  0  0  0  0  0  0  0  0
   -0.0070   -1.3860   -1.3840 C   0  0  0  0  0  0  0  0  0  0  0  0
   -0.5100   -1.4610    0.9540 C   0  0  0  0  0  0  0  0  0  0  0  0
    1.0330   -1.5770    0.9830 C   0  0  0  0  0  0  0  0  0  0  0  0
    1.4550   -0.1810    0.7540 C   0  0  1  0  0  0  0  0  0  0  0  0
    2.5740   -0.0140   -0.0250 O   0  0  0  0  0  0  0  0  0  0  0  0
    3.6210    0.6350    0.5820 C   0  0  2  0  0  0  0  0  0  0  0  0
    4.1430    1.8050   -0.1830 C   0  0  0  0  0  0  0  0  0  0  0  0
    5.2470    1.3400   -1.0750 C   0  0  0  0  0  0  0  0  0  0  0  0
    5.5290   -0.0900   -0.6860 C   0  0  0  0  0  0  0  0  0  0  0  0
    4.7920   -0.3270    0.6130 C   0  0  0  0  0  0  0  0  0  0  0  0
    0.2590    0.5420    0.1120 C   0  0  0  0  0  0  0  0  0  0  0  0
   -2.7980   -1.4510   -1.0240 C   0  0  0  0  0  0  0  0  0  0  0  0
   -3.3830   -2.0450    0.2040 C   0  0  0  0  0  0  0  0  0  0  0  0
   -4.7880   -1.4550    0.3680 C   0  0  0  0  0  0  0  0  0  0  0  0
   -4.6210   -0.2870    1.3080 C   0  0  0  0  0  0  0  0  0  0  0  0
   -3.8060    0.7990    0.7440 C   0  0  0  0  0  0  0  0  0  0  0  0
   -2.7620    0.8350   -0.0610 C   0  0  0  0  0  0  0  0  0  0  0  0
  1  2  2  0
  2  3  1  0
  2 23  1  0
  3  4  1  0
  4  5  1  0
  5  6  1  0
  5 18  1  6
  5 23  1  0
  6  7  1  6
  6  8  1  0
  6 17  1  0
  8  9  1  0
  9 10  1  0
 10 11  1  6
 10 17  1  0
 12 11  1  6
 12 13  1  0
 12 16  1  0
 13 14  1  0
 14 15  1  0
 15 16  1  0
 18 19  1  0
 19 20  1  0
 20 21  1  0
 21 22  1  0
 22 23  2  0
M  END
