
     RDKit          3D

  8  8  0  0  0  0  0  0  0  0999 V2000
   -1.5850    0.6610    0.8230 O   0  0  0  0  0  0  0  0  0  0  0  0
   -1.2310    0.2170   -0.4550 C   0  0  1  0  0  0  0  0  0  0  0  0
   -0.0980    1.1100   -0.9220 C   0  0  0  0  0  0  0  0  0  0  0  0
    0.9440    1.0920    0.1970 C   0  0  0  0  0  0  0  0  0  0  0  0
    1.5010   -0.3340    0.2050 C   0  0  1  0  0  0  0  0  0  0  0  0
    2.9530   -0.4720    1.1800 Cl  0  0  0  0  0  0  0  0  0  0  0  0
    0.3620   -1.2100    0.7300 C   0  0  0  0  0  0  0  0  0  0  0  0
   -0.7260   -1.1920   -0.3170 C   0  0  0  0  0  0  0  0  0  0  0  0
  2  1  1  1
  2  3  1  0
  2  8  1  0
  3  4  1  0
  4  5  1  0
  5  6  1  1
  5  7  1  0
  7  8  1  0
M  END
