
     RDKit          3D

 23 26  0  0  0  0  0  0  0  0999 V2000
    5.3830    1.1330    1.5160 C   0  0  0  0  0  0  0  0  0  0  0  0
    3.9890    0.6380    1.6130 C   0  0  0  0  0  0  0  0  0  0  0  0
    3.6120    0.1020    2.6360 O   0  0  0  0  0  0  0  0  0  0  0  0
    3.0550    0.7820    0.4990 C   0  0  1  0  0  0  0  0  0  0  0  0
    3.5240    0.0890   -0.7860 C   0  0  0  0  0  0  0  0  0  0  0  0
    2.2320   -0.2360   -1.5500 C   0  0  0  0  0  0  0  0  0  0  0  0
    1.1500    0.2600   -0.6720 C   0  0  1  0  0  0  0  0  0  0  0  0
   -0.1800   -0.3850   -0.7850 C   0  0  2  0  0  0  0  0  0  0  0  0
   -0.6420   -0.4110   -2.1850 C   0  0  0  0  0  0  0  0  0  0  0  0
   -2.1150   -0.4320   -2.4230 C   0  0  0  0  0  0  0  0  0  0  0  0
   -2.9310   -0.0410   -1.2670 C   0  0  0  0  0  0  0  0  0  0  0  0
   -4.0650    0.6010   -1.4560 C   0  0  0  0  0  0  0  0  0  0  0  0
   -4.9130    1.0120   -0.3150 C   0  0  0  0  0  0  0  0  0  0  0  0
   -6.1190    1.3300   -0.4490 O   0  0  0  0  0  0  0  0  0  0  0  0
   -4.3050    1.0430    1.0190 C   0  0  0  0  0  0  0  0  0  0  0  0
   -3.3770   -0.1060    1.1980 C   0  0  0  0  0  0  0  0  0  0  0  0
   -2.4310   -0.3930    0.0980 C   0  0  1  0  0  0  0  0  0  0  0  0
   -2.1380   -1.9030    0.1460 C   0  0  0  0  0  0  0  0  0  0  0  0
   -1.1060    0.3290    0.1860 C   0  0  1  0  0  0  0  0  0  0  0  0
   -0.5820    0.3860    1.5620 C   0  0  0  0  0  0  0  0  0  0  0  0
    0.8640    0.6450    1.7210 C   0  0  0  0  0  0  0  0  0  0  0  0
    1.7540    0.0130    0.7170 C   0  0  2  0  0  0  0  0  0  0  0  0
    2.0300   -1.4330    0.9500 C   0  0  0  0  0  0  0  0  0  0  0  0
  1  2  1  0
  2  3  2  0
  4  2  1  1
  4  5  1  0
  4 22  1  0
  5  6  1  0
  7  6  1  6
  7  8  1  0
  7 22  1  0
  8  9  1  6
  8 19  1  0
  9 10  1  0
 10 11  1  0
 11 12  2  0
 11 17  1  0
 12 13  1  0
 13 14  2  0
 13 15  1  0
 15 16  1  0
 16 17  1  0
 17 18  1  6
 17 19  1  0
 19 20  1  1
 20 21  1  0
 21 22  1  0
 22 23  1  1
M  END
