
     RDKit          3D

 23 26  0  0  0  0  0  0  0  0999 V2000
   -0.8670   -1.4380   -2.2830 O   0  0  0  0  0  0  0  0  0  0  0  0
    0.3550   -1.1430   -1.6360 C   0  0  2  0  0  0  0  0  0  0  0  0
    1.0170   -2.4850   -1.4010 C   0  0  0  0  0  0  0  0  0  0  0  0
    2.4270   -2.1760   -0.9450 C   0  0  0  0  0  0  0  0  0  0  0  0
    2.4270   -1.4240    0.3430 C   0  0  1  0  0  0  0  0  0  0  0  0
    3.5250   -0.4030    0.3160 C   0  0  1  0  0  0  0  0  0  0  0  0
    3.4200    0.6440   -0.7380 C   0  0  0  0  0  0  0  0  0  0  0  0
    4.8250    1.1840   -0.9080 C   0  0  0  0  0  0  0  0  0  0  0  0
    5.3510    1.6560    0.2280 C   0  0  0  0  0  0  0  0  0  0  0  0
    4.4860    1.5730    1.4370 C   0  0  0  0  0  0  0  0  0  0  0  0
    3.8750    0.2020    1.6350 C   0  0  0  0  0  0  0  0  0  0  0  0
    1.0910   -0.9130    0.7670 C   0  0  0  0  0  0  0  0  0  0  0  0
    0.1510   -0.4960   -0.3030 C   0  0  2  0  0  0  0  0  0  0  0  0
   -1.2960   -0.8420    0.0930 C   0  0  0  0  0  0  0  0  0  0  0  0
   -2.2130    0.1750   -0.4990 C   0  0  1  0  0  0  0  0  0  0  0  0
   -3.6480   -0.2610   -0.5580 C   0  0  2  0  0  0  0  0  0  0  0  0
   -4.4390    0.8850   -1.1830 C   0  0  0  0  0  0  0  0  0  0  0  0
   -5.2460    1.4990   -0.0750 C   0  0  0  0  0  0  0  0  0  0  0  0
   -5.2840    0.5170    1.0530 C   0  0  0  0  0  0  0  0  0  0  0  0
   -4.2590   -0.5380    0.7730 C   0  0  0  0  0  0  0  0  0  0  0  0
   -2.0570    1.4470    0.3480 C   0  0  0  0  0  0  0  0  0  0  0  0
   -0.5480    1.5100    0.6350 C   0  0  0  0  0  0  0  0  0  0  0  0
    0.1680    0.9060   -0.3880 O   0  0  0  0  0  0  0  0  0  0  0  0
  2  1  1  1
  2  3  1  0
  2 13  1  0
  3  4  1  0
  5  4  1  6
  5  6  1  0
  5 12  1  0
  6  7  1  6
  6 11  1  0
  7  8  1  0
  8  9  2  0
  9 10  1  0
 10 11  1  0
 13 12  1  1
 13 14  1  0
 13 23  1  0
 15 14  1  1
 15 16  1  0
 15 21  1  0
 16 17  1  1
 16 20  1  0
 17 18  1  0
 18 19  1  0
 19 20  1  0
 21 22  1  0
 22 23  1  0
M  END
