
     RDKit          3D

 23 26  0  0  0  0  0  0  0  0999 V2000
    1.5870    3.0150   -2.4770 C   0  0  0  0  0  0  0  0  0  0  0  0
    2.2760    1.8500   -1.8190 C   0  0  0  0  0  0  0  0  0  0  0  0
    1.4660    0.5800   -1.8870 C   0  0  2  0  0  0  0  0  0  0  0  0
    0.1230    0.7170   -1.2040 C   0  0  0  0  0  0  0  0  0  0  0  0
    0.0290   -0.3330   -0.1580 C   0  0  2  0  0  0  0  0  0  0  0  0
   -1.2150   -0.3810    0.6250 C   0  0  1  0  0  0  0  0  0  0  0  0
   -1.5070    0.9070    1.3870 C   0  0  0  0  0  0  0  0  0  0  0  0
   -2.9580    0.7210    1.5880 C   0  0  1  0  0  0  0  0  0  0  0  0
   -3.8130    1.9000    1.7760 C   0  0  0  0  0  0  0  0  0  0  0  0
   -5.1490    1.3860    1.2080 C   0  0  0  0  0  0  0  0  0  0  0  0
   -4.7760    0.1890    0.3140 C   0  0  0  0  0  0  0  0  0  0  0  0
   -3.3400    0.4020    0.1210 C   0  0  2  0  0  0  0  0  0  0  0  0
   -2.4610   -0.7690   -0.1130 C   0  0  1  0  0  0  0  0  0  0  0  0
   -2.2580   -0.9130   -1.4830 O   0  0  0  0  0  0  0  0  0  0  0  0
   -2.6740   -2.1900   -1.9160 C   0  0  0  0  0  0  0  0  0  0  0  0
    1.1830   -0.0860    0.8160 C   0  0  0  0  0  0  0  0  0  0  0  0
    2.4200   -0.6060    0.1140 C   0  0  2  0  0  0  0  0  0  0  0  0
    2.6000   -2.0470    0.6120 C   0  0  0  0  0  0  0  0  0  0  0  0
    3.2560   -1.9850    1.9670 C   0  0  0  0  0  0  0  0  0  0  0  0
    4.7260   -1.6260    1.7160 C   0  0  0  0  0  0  0  0  0  0  0  0
    4.7030   -0.7010    0.4920 C   0  0  0  0  0  0  0  0  0  0  0  0
    3.5550    0.0850    0.5680 O   0  0  0  0  0  0  0  0  0  0  0  0
    2.2720   -0.5620   -1.3660 C   0  0  0  0  0  0  0  0  0  0  0  0
  1  2  1  0
  3  2  1  1
  3  4  1  0
  3 23  1  0
  5  4  1  6
  5  6  1  0
  5 16  1  0
  6  7  1  6
  6 13  1  0
  8  7  1  6
  8  9  1  0
  8 12  1  0
  9 10  1  0
 10 11  1  0
 12 11  1  1
 12 13  1  0
 13 14  1  6
 14 15  1  0
 17 16  1  1
 17 18  1  0
 17 22  1  0
 17 23  1  0
 18 19  1  0
 19 20  1  0
 20 21  1  0
 21 22  1  0
M  END
