
     RDKit          3D

 23 26  0  0  0  0  0  0  0  0999 V2000
    1.5390   -2.9610   -0.3480 O   0  0  0  0  0  0  0  0  0  0  0  0
    2.2950   -1.8320   -0.1640 C   0  0  1  0  0  0  0  0  0  0  0  0
    3.7550   -2.1870   -0.4510 C   0  0  0  0  0  0  0  0  0  0  0  0
    4.6500   -1.0050   -0.1610 C   0  0  0  0  0  0  0  0  0  0  0  0
    4.1710    0.2650   -0.7580 C   0  0  0  0  0  0  0  0  0  0  0  0
    2.6970    0.5130   -0.6890 C   0  0  2  0  0  0  0  0  0  0  0  0
    2.2120    0.9470    0.6450 C   0  0  0  0  0  0  0  0  0  0  0  0
    0.9550    0.7710    1.0070 O   0  0  0  0  0  0  0  0  0  0  0  0
   -0.0220    0.3170    0.1150 C   0  0  1  0  0  0  0  0  0  0  0  0
   -0.7970   -0.6700    0.9220 C   0  0  0  0  0  0  0  0  0  0  0  0
   -1.8980   -1.3940    0.2770 C   0  0  2  0  0  0  0  0  0  0  0  0
   -3.0570   -0.6680   -0.2930 C   0  0  0  0  0  0  0  0  0  0  0  0
   -4.2390   -1.6300   -0.2660 C   0  0  0  0  0  0  0  0  0  0  0  0
   -3.8530   -2.7590    0.6050 C   0  0  0  0  0  0  0  0  0  0  0  0
   -2.5640   -2.3690    1.2850 C   0  0  0  0  0  0  0  0  0  0  0  0
   -0.8740    1.5400   -0.1480 C   0  0  2  0  0  0  0  0  0  0  0  0
   -0.0700    2.6530   -0.8020 C   0  0  0  0  0  0  0  0  0  0  0  0
   -1.0830    3.7230   -1.1500 C   0  0  0  0  0  0  0  0  0  0  0  0
   -1.9580    4.0780   -0.2300 C   0  0  0  0  0  0  0  0  0  0  0  0
   -1.9600    3.4620    1.0980 C   0  0  0  0  0  0  0  0  0  0  0  0
   -1.3350    2.0930    1.1670 C   0  0  0  0  0  0  0  0  0  0  0  0
    0.4810   -0.3450   -1.1080 C   0  0  0  0  0  0  0  0  0  0  0  0
    1.9520   -0.7160   -1.0900 C   0  0  2  0  0  0  0  0  0  0  0  0
  2  1  1  6
  2  3  1  0
  2 23  1  0
  3  4  1  0
  4  5  1  0
  6  5  1  1
  6  7  1  0
  6 23  1  0
  7  8  1  0
  8  9  1  0
  9 10  1  1
  9 16  1  0
  9 22  1  0
 11 10  1  1
 11 12  1  0
 11 15  1  0
 12 13  1  0
 13 14  1  0
 14 15  1  0
 16 17  1  1
 16 21  1  0
 17 18  1  0
 18 19  2  0
 19 20  1  0
 20 21  1  0
 23 22  1  1
M  END
