
     RDKit          3D

 23 24  0  0  0  0  0  0  0  0999 V2000
    5.0420   -0.2050   -1.6590 O   0  0  0  0  0  0  0  0  0  0  0  0
    5.1960    0.1530   -0.4460 C   0  0  0  0  0  0  0  0  0  0  0  0
    6.4740    0.6310   -0.0870 O   0  0  0  0  0  0  0  0  0  0  0  0
    4.1270    0.0610    0.4540 N   0  0  0  0  0  0  0  0  0  0  0  0
    2.9360   -0.4060    0.0500 O   0  0  0  0  0  0  0  0  0  0  0  0
    1.8630    0.4250    0.4830 C   0  0  2  0  0  0  0  0  0  0  0  0
    1.3120   -0.2540    1.5370 O   0  0  0  0  0  0  0  0  0  0  0  0
    0.5070   -1.3060    1.3350 C   0  0  0  0  0  0  0  0  0  0  0  0
    0.6630   -2.0960    0.0780 C   0  0  0  0  0  0  0  0  0  0  0  0
   -0.5770   -2.6930   -0.2530 O   0  0  0  0  0  0  0  0  0  0  0  0
   -1.3560   -1.8270   -1.0500 C   0  0  0  0  0  0  0  0  0  0  0  0
   -2.5820   -1.4070   -0.3290 C   0  0  0  0  0  0  0  0  0  0  0  0
   -2.9520   -2.3230    0.5070 O   0  0  0  0  0  0  0  0  0  0  0  0
   -3.3240   -0.2110   -0.4580 N   0  0  0  0  0  0  0  0  0  0  0  0
   -4.5000   -0.1920   -1.1750 N   0  0  0  0  0  0  0  0  0  0  0  0
   -5.0370    0.9910   -1.1480 C   0  0  0  0  0  0  0  0  0  0  0  0
   -4.2480    1.8040   -0.4180 C   0  0  0  0  0  0  0  0  0  0  0  0
   -3.1360    1.0200    0.0280 C   0  0  0  0  0  0  0  0  0  0  0  0
   -2.0870    1.4990    0.8500 N   0  0  0  0  0  0  0  0  0  0  0  0
   -0.6990    1.6650    0.6900 C   0  0  0  0  0  0  0  0  0  0  0  0
    0.0530    1.9620    1.6970 O   0  0  0  0  0  0  0  0  0  0  0  0
    0.0750    1.5460   -0.5630 C   0  0  0  0  0  0  0  0  0  0  0  0
    1.0980    0.6840   -0.5730 O   0  0  0  0  0  0  0  0  0  0  0  0
  1  2  2  0
  2  3  1  0
  2  4  1  0
  4  5  1  0
  6  5  1  6
  6  7  1  0
  6 23  1  0
  7  8  1  0
  8  9  1  0
  9 10  1  0
 10 11  1  0
 11 12  1  0
 12 13  2  0
 12 14  1  0
 14 15  1  0
 14 18  1  0
 15 16  2  0
 16 17  1  0
 17 18  2  0
 18 19  1  0
 19 20  1  0
 20 21  2  0
 20 22  1  0
 22 23  1  0
M  END
