
     RDKit          3D

 15 14  0  0  0  0  0  0  0  0999 V2000
   -4.6070    0.0500   -1.0350 O   0  0  0  0  0  0  0  0  0  0  0  0
   -4.2290    0.3560    0.1230 C   0  0  0  0  0  0  0  0  0  0  0  0
   -5.1660    0.8660    1.0000 O   0  0  0  0  0  0  0  0  0  0  0  0
   -2.8360    0.1680    0.4990 C   0  0  0  0  0  0  0  0  0  0  0  0
   -2.0070   -0.4100   -0.6720 C   0  0  0  0  0  0  0  0  0  0  0  0
   -0.4220   -0.6350   -0.2700 P   0  0  0  0  0  0  0  0  0  0  0  0
   -0.2730    0.9840    0.1060 O   0  0  0  0  0  0  0  0  0  0  0  0
   -0.8850   -1.6890    0.9240 O   0  0  0  0  0  0  0  0  0  0  0  0
    1.1730   -0.8840    0.0750 C   0  0  0  0  0  0  0  0  0  0  0  0
    2.1260   -0.0350   -0.7250 C   0  0  0  0  0  0  0  0  0  0  0  0
    1.6540    0.7380   -1.5340 O   0  0  0  0  0  0  0  0  0  0  0  0
    3.5880   -0.1150   -0.5550 C   0  0  0  0  0  0  0  0  0  0  0  0
    4.0240    0.9770    0.3440 C   0  0  0  0  0  0  0  0  0  0  0  0
    3.1980    1.7880    0.8260 O   0  0  0  0  0  0  0  0  0  0  0  0
    5.3600    1.1010    0.6540 O   0  0  0  0  0  0  0  0  0  0  0  0
  1  2  2  0
  2  3  1  0
  2  4  1  0
  4  5  1  0
  5  6  1  0
  6  7  1  0
  6  8  1  0
  6  9  1  0
  9 10  1  0
 10 11  2  0
 10 12  1  0
 12 13  1  0
 13 14  2  0
 13 15  1  0
M  END
