
     RDKit          3D

 10 10  0  0  0  0  0  0  0  0999 V2000
    2.1240    1.0600   -0.2950 O   0  0  0  0  0  0  0  0  0  0  0  0
    1.9760   -0.1690   -0.0730 C   0  0  0  0  0  0  0  0  0  0  0  0
    3.1140   -0.9840   -0.0580 O   0  0  0  0  0  0  0  0  0  0  0  0
    0.7050   -0.6410    0.1410 O   0  0  0  0  0  0  0  0  0  0  0  0
   -0.3810    0.2310    0.1100 C   0  0  1  0  0  0  0  0  0  0  0  0
   -1.4330   -0.1810   -0.9220 C   0  0  0  0  0  0  0  0  0  0  0  0
   -2.5600    0.4940   -0.4010 O   0  0  0  0  0  0  0  0  0  0  0  0
   -2.5130    0.2990    0.9210 O   0  0  0  0  0  0  0  0  0  0  0  0
   -1.1950    0.2100    1.3510 C   0  0  0  0  0  0  0  0  0  0  0  0
   -0.8630    0.1330    2.5550 O   0  0  0  0  0  0  0  0  0  0  0  0
  1  2  2  0
  2  3  1  0
  2  4  1  0
  5  4  1  1
  5  6  1  0
  5  9  1  0
  6  7  1  0
  7  8  1  0
  8  9  1  0
  9 10  2  0
M  END
