
     RDKit          3D

 23 24  0  0  0  0  0  0  0  0999 V2000
   -3.6400   -0.0050   -1.8630 O   0  0  0  0  0  0  0  0  0  0  0  0
   -3.4600   -0.1440   -0.6290 C   0  0  0  0  0  0  0  0  0  0  0  0
   -4.6080   -0.3010    0.1930 N   0  0  0  0  0  0  0  0  0  0  0  0
   -5.9650   -0.3070   -0.2590 C   0  0  0  0  0  0  0  0  0  0  0  0
   -6.2790    1.0450   -0.8720 C   0  0  0  0  0  0  0  0  0  0  0  0
   -6.0850    1.9890    0.1450 O   0  0  0  0  0  0  0  0  0  0  0  0
   -2.1020   -0.1440   -0.0670 C   0  0  0  0  0  0  0  0  0  0  0  0
   -0.8980   -0.2080   -0.7200 C   0  0  0  0  0  0  0  0  0  0  0  0
    0.1510   -0.1680    0.1670 C   0  0  0  0  0  0  0  0  0  0  0  0
    1.5890   -0.2290   -0.1140 C   0  0  0  0  0  0  0  0  0  0  0  0
    2.1250   -0.3430   -1.2860 N   0  0  0  0  0  0  0  0  0  0  0  0
    3.4960   -0.3690   -1.1790 O   0  0  0  0  0  0  0  0  0  0  0  0
    3.8220   -0.6180    0.1770 C   0  0  1  0  0  0  0  0  0  0  0  0
    4.0280   -2.0600    0.4880 C   0  0  0  0  0  0  0  0  0  0  0  0
    5.0400   -2.6640   -0.2110 O   0  0  0  0  0  0  0  0  0  0  0  0
    4.9170    0.2530    0.6500 C   0  0  0  0  0  0  0  0  0  0  0  0
    5.3540    0.1160    1.8060 O   0  0  0  0  0  0  0  0  0  0  0  0
    5.4660    1.2390   -0.2080 N   0  0  0  0  0  0  0  0  0  0  0  0
    6.4630    2.0740    0.1590 O   0  0  0  0  0  0  0  0  0  0  0  0
    6.6460    3.0270   -0.7190 O   0  0  0  0  0  0  0  0  0  0  0  0
    2.6250   -0.1810    0.8040 O   0  0  0  0  0  0  0  0  0  0  0  0
   -0.4340   -0.0760    1.4080 C   0  0  0  0  0  0  0  0  0  0  0  0
   -1.7880   -0.0630    1.2350 N   0  0  0  0  0  0  0  0  0  0  0  0
  1  2  2  0
  2  3  1  0
  2  7  1  0
  3  4  1  0
  4  5  1  0
  5  6  1  0
  7  8  2  0
  7 23  1  0
  8  9  1  0
  9 10  1  0
  9 22  2  0
 10 11  2  0
 10 21  1  0
 11 12  1  0
 12 13  1  0
 13 14  1  6
 13 16  1  0
 13 21  1  0
 14 15  1  0
 16 17  2  0
 16 18  1  0
 18 19  1  0
 19 20  1  0
 22 23  1  0
M  END
