
     RDKit          3D

 23 24  0  0  0  0  0  0  0  0999 V2000
   -1.8300    1.9210   -1.8270 N   0  0  0  0  0  0  0  0  0  0  0  0
   -2.2120    1.1730   -0.8330 C   0  0  0  0  0  0  0  0  0  0  0  0
   -3.5790    1.3070   -0.3910 N   0  0  0  0  0  0  0  0  0  0  0  0
   -4.1240    0.7300    0.7930 C   0  0  0  0  0  0  0  0  0  0  0  0
   -5.3620    0.8450    0.9620 O   0  0  0  0  0  0  0  0  0  0  0  0
   -3.4420    0.0570    1.7750 O   0  0  0  0  0  0  0  0  0  0  0  0
   -2.1070   -0.3890    1.9020 C   0  0  0  0  0  0  0  0  0  0  0  0
   -1.5260   -0.8190    0.5670 C   0  0  2  0  0  0  0  0  0  0  0  0
   -0.4790   -1.8380    0.7900 C   0  0  0  0  0  0  0  0  0  0  0  0
   -0.3990   -2.7720   -0.2690 O   0  0  0  0  0  0  0  0  0  0  0  0
    0.8200   -3.0650   -0.5600 O   0  0  0  0  0  0  0  0  0  0  0  0
    1.6110   -2.1100   -0.8870 O   0  0  0  0  0  0  0  0  0  0  0  0
    2.2590   -1.5750   -1.9210 C   0  0  0  0  0  0  0  0  0  0  0  0
    3.0610   -0.5100   -1.7210 C   0  0  0  0  0  0  0  0  0  0  0  0
    3.7380    0.0390   -2.8220 O   0  0  0  0  0  0  0  0  0  0  0  0
    3.2910    0.1300   -0.4260 C   0  0  0  0  0  0  0  0  0  0  0  0
    2.3530    0.5950    0.3890 C   0  0  0  0  0  0  0  0  0  0  0  0
    2.8500    1.2020    1.6570 C   0  0  0  0  0  0  0  0  0  0  0  0
    4.0620    1.2500    1.8910 O   0  0  0  0  0  0  0  0  0  0  0  0
    2.0060    1.7300    2.6150 O   0  0  0  0  0  0  0  0  0  0  0  0
    1.0330    0.5180    0.0580 N   0  0  0  0  0  0  0  0  0  0  0  0
    0.1060    0.6940   -0.7050 C   0  0  0  0  0  0  0  0  0  0  0  0
   -1.2230    0.2840   -0.2740 N   0  0  0  0  0  0  0  0  0  0  0  0
  1  2  2  0
  2  3  1  0
  2 23  1  0
  3  4  1  0
  4  5  2  0
  4  6  1  0
  6  7  1  0
  8  7  1  1
  8  9  1  0
  8 23  1  0
  9 10  1  0
 10 11  1  0
 11 12  1  0
 12 13  1  0
 13 14  2  0
 14 15  1  0
 14 16  1  0
 16 17  2  0
 17 18  1  0
 17 21  1  0
 18 19  2  0
 18 20  1  0
 21 22  2  0
 22 23  1  0
M  END
