
     RDKit          3D

 45 50  0  0  0  0  0  0  0  0999 V2000
  -10.7740   -2.4520   -0.5980 C   0  0  0  0  0  0  0  0  0  0  0  0
  -10.0880   -1.2380   -0.0090 C   0  0  2  0  0  0  0  0  0  0  0  0
  -10.1990   -1.3760    1.5150 C   0  0  0  0  0  0  0  0  0  0  0  0
  -10.8160   -0.0120   -0.4880 C   0  0  0  0  0  0  0  0  0  0  0  0
  -10.5000    1.2280    0.3200 C   0  0  0  0  0  0  0  0  0  0  0  0
   -9.2480    1.8970   -0.2170 C   0  0  0  0  0  0  0  0  0  0  0  0
   -8.0090    1.2590    0.3890 C   0  0  0  0  0  0  0  0  0  0  0  0
   -7.8110   -0.0940   -0.1910 C   0  0  0  0  0  0  0  0  0  0  0  0
   -8.6670   -1.1670   -0.3720 C   0  0  0  0  0  0  0  0  0  0  0  0
   -8.1120   -2.2770   -0.9540 C   0  0  0  0  0  0  0  0  0  0  0  0
   -6.8080   -2.3890   -1.3530 C   0  0  0  0  0  0  0  0  0  0  0  0
   -5.9220   -1.2900   -1.1710 C   0  0  0  0  0  0  0  0  0  0  0  0
   -4.6620   -1.2710   -1.5080 N   0  0  0  0  0  0  0  0  0  0  0  0
   -3.9130   -0.2070   -1.3020 C   0  0  0  0  0  0  0  0  0  0  0  0
   -2.7090    0.1360   -1.4890 N   0  0  0  0  0  0  0  0  0  0  0  0
   -1.6700   -0.6090   -2.0430 C   0  0  0  0  0  0  0  0  0  0  0  0
   -1.9040   -1.4010   -2.9900 O   0  0  0  0  0  0  0  0  0  0  0  0
   -0.2540   -0.5290   -1.5710 C   0  0  0  0  0  0  0  0  0  0  0  0
   -0.1070    0.4010   -0.4900 N   0  0  0  0  0  0  0  0  0  0  0  0
    1.1490    0.6160    0.1110 C   0  0  0  0  0  0  0  0  0  0  0  0
    1.2750    1.5300    1.1720 C   0  0  0  0  0  0  0  0  0  0  0  0
    2.4640    1.7370    1.7470 N   0  0  0  0  0  0  0  0  0  0  0  0
    3.5940    1.1280    1.3920 N   0  0  0  0  0  0  0  0  0  0  0  0
    4.8330    1.4430    2.0990 C   0  0  0  0  0  0  0  0  0  0  0  0
    5.5360    2.6030    1.4280 C   0  0  0  0  0  0  0  0  0  0  0  0
    6.7100    2.8930    2.0870 O   0  0  0  0  0  0  0  0  0  0  0  0
    7.8140    2.0930    2.1430 C   0  0  0  0  0  0  0  0  0  0  0  0
    8.9020    2.5480    2.9260 C   0  0  0  0  0  0  0  0  0  0  0  0
   10.0570    1.8360    3.0510 C   0  0  0  0  0  0  0  0  0  0  0  0
   10.1720    0.6200    2.3890 C   0  0  0  0  0  0  0  0  0  0  0  0
    9.1530    0.1240    1.6130 C   0  0  0  0  0  0  0  0  0  0  0  0
    9.2800   -1.1690    0.9060 C   0  0  0  0  0  0  0  0  0  0  0  0
    9.8860   -1.0140   -0.4360 C   0  0  0  0  0  0  0  0  0  0  0  0
   11.2490   -1.0730   -0.5370 C   0  0  0  0  0  0  0  0  0  0  0  0
   11.8590   -0.9380   -1.7490 C   0  0  0  0  0  0  0  0  0  0  0  0
   11.1220   -0.7360   -2.9240 C   0  0  0  0  0  0  0  0  0  0  0  0
    9.7510   -0.6830   -2.7700 C   0  0  0  0  0  0  0  0  0  0  0  0
    8.9750   -0.4880   -3.8880 F   0  0  0  0  0  0  0  0  0  0  0  0
    9.1230   -0.8170   -1.5580 C   0  0  0  0  0  0  0  0  0  0  0  0
    7.9910    0.8950    1.5180 C   0  0  0  0  0  0  0  0  0  0  0  0
    3.4990    0.2540    0.3850 C   0  0  0  0  0  0  0  0  0  0  0  0
    4.5410   -0.3550    0.0040 O   0  0  0  0  0  0  0  0  0  0  0  0
    2.3100   -0.0200   -0.2660 C   0  0  0  0  0  0  0  0  0  0  0  0
   -5.1330    0.9620   -0.5160 S   0  0  0  0  0  0  0  0  0  0  0  0
   -6.5110   -0.2170   -0.5940 C   0  0  0  0  0  0  0  0  0  0  0  0
  2  1  1  6
  2  3  1  0
  2  4  1  0
  2  9  1  0
  4  5  1  0
  5  6  1  0
  6  7  1  0
  7  8  1  0
  8  9  2  0
  8 45  1  0
  9 10  1  0
 10 11  2  0
 11 12  1  0
 12 13  1  0
 12 45  2  0
 13 14  1  0
 14 15  2  3
 14 44  1  0
 15 16  1  0
 16 17  2  0
 16 18  1  0
 18 19  1  0
 19 20  1  0
 20 21  1  0
 20 43  2  0
 21 22  2  0
 22 23  1  0
 23 24  1  0
 23 41  1  0
 24 25  1  0
 25 26  1  0
 26 27  1  0
 27 28  2  0
 27 40  1  0
 28 29  1  0
 29 30  2  0
 30 31  1  0
 31 32  1  0
 31 40  2  0
 32 33  1  0
 33 34  2  0
 33 39  1  0
 34 35  1  0
 35 36  2  0
 36 37  1  0
 37 38  1  0
 37 39  2  0
 41 42  2  0
 41 43  1  0
 44 45  1  0
M  END
