
     RDKit          3D

 45 50  0  0  0  0  0  0  0  0999 V2000
   -2.5010   -5.8590    0.7660 C   0  0  0  0  0  0  0  0  0  0  0  0
   -3.3760   -4.8880    0.9790 C   0  0  0  0  0  0  0  0  0  0  0  0
   -2.9000   -3.4790    0.9540 C   0  0  0  0  0  0  0  0  0  0  0  0
   -3.6040   -2.7170   -0.0970 N   0  0  0  0  0  0  0  0  0  0  0  0
   -4.7790   -2.0810    0.2780 C   0  0  0  0  0  0  0  0  0  0  0  0
   -5.2660   -2.1230    1.7050 C   0  0  0  0  0  0  0  0  0  0  0  0
   -5.4940   -1.4490   -0.5070 O   0  0  0  0  0  0  0  0  0  0  0  0
   -3.0250   -2.6640   -1.3910 C   0  0  1  0  0  0  0  0  0  0  0  0
   -3.9760   -3.2110   -2.4030 C   0  0  0  0  0  0  0  0  0  0  0  0
   -4.4460   -2.0730   -3.2120 C   0  0  0  0  0  0  0  0  0  0  0  0
   -3.6820   -0.8620   -2.8030 C   0  0  0  0  0  0  0  0  0  0  0  0
   -2.5700   -1.3470   -1.9100 C   0  0  1  0  0  0  0  0  0  0  0  0
   -2.2600   -0.3220   -0.8930 C   0  0  0  0  0  0  0  0  0  0  0  0
   -3.1900    0.5800   -0.6290 N   0  0  0  0  0  0  0  0  0  0  0  0
   -3.0150    1.5260    0.3020 C   0  0  0  0  0  0  0  0  0  0  0  0
   -4.1000    2.4870    0.5320 C   0  0  0  0  0  0  0  0  0  0  0  0
   -5.2720    2.3900   -0.2180 C   0  0  0  0  0  0  0  0  0  0  0  0
   -6.3140    3.2680   -0.0340 C   0  0  0  0  0  0  0  0  0  0  0  0
   -6.2330    4.2750    0.8990 C   0  0  0  0  0  0  0  0  0  0  0  0
   -5.0890    4.3960    1.6540 C   0  0  0  0  0  0  0  0  0  0  0  0
   -4.0560    3.4960    1.4460 C   0  0  0  0  0  0  0  0  0  0  0  0
   -5.0480    5.4170    2.5770 O   0  0  0  0  0  0  0  0  0  0  0  0
   -5.7930    6.5940    2.4630 C   0  0  0  0  0  0  0  0  0  0  0  0
   -7.0070    6.4910    1.5890 C   0  0  0  0  0  0  0  0  0  0  0  0
   -7.2670    5.1850    1.1140 O   0  0  0  0  0  0  0  0  0  0  0  0
   -1.8760    1.5720    0.9870 N   0  0  0  0  0  0  0  0  0  0  0  0
   -0.9010    0.6660    0.7430 C   0  0  0  0  0  0  0  0  0  0  0  0
    0.1290    0.8170    1.4620 O   0  0  0  0  0  0  0  0  0  0  0  0
   -1.0640   -0.3150   -0.2110 C   0  0  0  0  0  0  0  0  0  0  0  0
    0.0100   -1.2660   -0.5080 C   0  0  0  0  0  0  0  0  0  0  0  0
    1.1670   -1.0910    0.2800 N   0  0  0  0  0  0  0  0  0  0  0  0
    2.2490   -1.9910   -0.0300 C   0  0  1  0  0  0  0  0  0  0  0  0
    2.3610   -2.4700   -1.4170 C   0  0  0  0  0  0  0  0  0  0  0  0
    3.7990   -3.0030   -1.4870 C   0  0  0  0  0  0  0  0  0  0  0  0
    4.4210   -2.7220   -0.1350 C   0  0  0  0  0  0  0  0  0  0  0  0
    3.6250   -1.4660    0.2690 C   0  0  1  0  0  0  0  0  0  0  0  0
    4.0310   -0.2930   -0.5830 C   0  0  0  0  0  0  0  0  0  0  0  0
    5.3670    0.1740   -0.2610 N   0  0  1  0  0  0  0  0  0  0  0  0
    5.6900    1.2170   -1.2250 C   0  0  0  0  0  0  0  0  0  0  0  0
    7.1740    1.1960   -1.5100 C   0  0  0  0  0  0  0  0  0  0  0  0
    7.9100    1.1700   -0.1870 C   0  0  0  0  0  0  0  0  0  0  0  0
    7.3800    2.2490    0.6990 C   0  0  2  0  0  0  0  0  0  0  0  0
    8.4390    2.5310    1.7710 C   0  0  0  0  0  0  0  0  0  0  0  0
    6.0360    1.9820    1.2840 C   0  0  0  0  0  0  0  0  0  0  0  0
    5.5250    0.5870    1.0940 C   0  0  0  0  0  0  0  0  0  0  0  0
  1  2  2  0
  2  3  1  0
  3  4  1  0
  4  5  1  0
  8  4  1  1
  5  6  1  0
  5  7  2  0
  8  9  1  0
  8 12  1  0
  9 10  1  0
 10 11  1  0
 11 12  1  0
 12 13  1  1
 13 14  1  0
 13 29  2  0
 14 15  2  0
 15 16  1  0
 15 26  1  0
 16 17  2  0
 16 21  1  0
 17 18  1  0
 18 19  2  0
 19 20  1  0
 19 25  1  0
 20 21  2  0
 20 22  1  0
 22 23  1  0
 23 24  1  0
 24 25  1  0
 26 27  1  0
 27 28  2  0
 27 29  1  0
 29 30  1  0
 30 31  1  0
 32 31  1  6
 32 33  1  0
 32 36  1  0
 33 34  1  0
 34 35  1  0
 35 36  1  0
 36 37  1  6
 38 37  1  1
 38 39  1  0
 38 45  1  0
 39 40  1  0
 40 41  1  0
 41 42  1  0
 42 43  1  1
 42 44  1  0
 44 45  1  0
M  CHG  2  31   1  38   1
M  END
