
     RDKit          3D

 45 48  0  0  0  0  0  0  0  0999 V2000
    6.1740   -2.6450   -0.5680 C   0  0  0  0  0  0  0  0  0  0  0  0
    5.7780   -2.5350    0.9010 C   0  0  0  0  0  0  0  0  0  0  0  0
    5.4400   -3.7770    1.6130 C   0  0  0  0  0  0  0  0  0  0  0  0
    5.7360   -1.3170    1.4150 C   0  0  0  0  0  0  0  0  0  0  0  0
    5.4110   -0.8850    2.7690 C   0  0  1  0  0  0  0  0  0  0  0  0
    5.8120   -1.8130    3.8750 C   0  0  0  0  0  0  0  0  0  0  0  0
    6.1920    0.3610    2.9240 N   0  0  0  0  0  0  0  0  0  0  0  0
    6.9130    0.6130    1.6890 C   0  0  0  0  0  0  0  0  0  0  0  0
    7.9730    1.1800    1.4970 O   0  0  0  0  0  0  0  0  0  0  0  0
    5.9730   -0.0240    0.6550 C   0  0  2  0  0  0  0  0  0  0  0  0
    4.7710    0.7440    0.5720 N   0  0  0  0  0  0  0  0  0  0  0  0
    4.1960    0.8790   -0.7650 C   0  0  1  0  0  0  0  0  0  0  0  0
    2.7780    0.4250   -0.7710 C   0  0  0  0  0  0  0  0  0  0  0  0
    1.6960    1.1200   -1.1760 C   0  0  0  0  0  0  0  0  0  0  0  0
    0.3870    0.5750   -1.0990 C   0  0  0  0  0  0  0  0  0  0  0  0
    0.1380   -0.6870   -0.6090 C   0  0  0  0  0  0  0  0  0  0  0  0
   -1.1940   -1.2390   -0.4800 C   0  0  0  0  0  0  0  0  0  0  0  0
   -1.2260   -2.5290    0.0240 C   0  0  0  0  0  0  0  0  0  0  0  0
   -2.4470   -3.3100    0.2500 C   0  0  0  0  0  0  0  0  0  0  0  0
   -3.6180   -2.4810    0.6810 C   0  0  2  0  0  0  0  0  0  0  0  0
   -4.8770   -2.7310   -0.1020 C   0  0  0  0  0  0  0  0  0  0  0  0
   -3.2850   -0.9830    0.5990 C   0  0  0  0  0  0  0  0  0  0  0  0
   -2.5230   -0.7640   -0.7360 C   0  0  1  0  0  0  0  0  0  0  0  0
   -2.8720    0.4600   -1.3140 N   0  0  0  0  0  0  0  0  0  0  0  0
   -3.2240    1.4680   -0.3260 C   0  0  0  0  0  0  0  0  0  0  0  0
   -4.4800    2.2360   -0.6740 C   0  0  0  0  0  0  0  0  0  0  0  0
   -5.6880    1.5330   -0.9260 C   0  0  0  0  0  0  0  0  0  0  0  0
   -5.8520    1.2640   -2.2530 O   0  0  0  0  0  0  0  0  0  0  0  0
   -6.7740    1.0480   -0.1940 N   0  0  0  0  0  0  0  0  0  0  0  0
   -6.8480    0.9660    1.2460 C   0  0  0  0  0  0  0  0  0  0  0  0
   -7.4260    2.1860    1.8720 C   0  0  0  0  0  0  0  0  0  0  0  0
   -8.7060    2.4120    1.4460 O   0  0  0  0  0  0  0  0  0  0  0  0
   -7.9830    0.7280   -0.9580 C   0  0  0  0  0  0  0  0  0  0  0  0
   -7.9710   -0.5890   -1.6320 C   0  0  0  0  0  0  0  0  0  0  0  0
   -7.8430   -1.7150   -0.8740 O   0  0  0  0  0  0  0  0  0  0  0  0
    1.2680   -1.3700   -0.2080 C   0  0  0  0  0  0  0  0  0  0  0  0
    2.5480   -0.8530   -0.2770 C   0  0  0  0  0  0  0  0  0  0  0  0
    4.4270    2.2150   -1.3190 C   0  0  0  0  0  0  0  0  0  0  0  0
    3.8370    3.3720   -0.8830 C   0  0  0  0  0  0  0  0  0  0  0  0
    4.0990    4.6240   -1.3860 C   0  0  0  0  0  0  0  0  0  0  0  0
    5.0670    4.7150   -2.4400 C   0  0  0  0  0  0  0  0  0  0  0  0
    5.6680    3.5870   -2.8890 C   0  0  0  0  0  0  0  0  0  0  0  0
    6.7050    3.6930   -3.9290 C   0  0  0  0  0  0  0  0  0  0  0  0
    7.4520    3.7710   -4.6820 N   0  0  0  0  0  0  0  0  0  0  0  0
    5.3640    2.3880   -2.3570 C   0  0  0  0  0  0  0  0  0  0  0  0
  1  2  1  0
  2  3  1  0
  2  4  2  3
  4  5  1  0
  4 10  1  0
  5  6  1  1
  5  7  1  0
  7  8  1  0
  8  9  2  0
  8 10  1  0
 10 11  1  1
 12 11  1  1
 12 13  1  0
 12 38  1  0
 13 14  2  0
 13 37  1  0
 14 15  1  0
 15 16  2  0
 16 17  1  0
 16 36  1  0
 17 18  2  0
 17 23  1  0
 18 19  1  0
 19 20  1  0
 20 21  1  6
 20 22  1  0
 22 23  1  0
 23 24  1  1
 24 25  1  0
 25 26  1  0
 26 27  1  0
 27 28  2  0
 27 29  1  0
 29 30  1  0
 29 33  1  0
 30 31  1  0
 31 32  1  0
 33 34  1  0
 34 35  1  0
 36 37  2  0
 38 39  2  0
 38 45  1  0
 39 40  1  0
 40 41  2  0
 41 42  1  0
 42 43  1  0
 42 45  2  0
 43 44  3  0
M  CHG  2  11   1  24   1
M  END
