
     RDKit          3D

 46 51  0  0  0  0  0  0  0  0999 V2000
    3.3410    3.5260   -0.4180 C   0  0  0  0  0  0  0  0  0  0  0  0
    3.4100    3.1790   -1.8760 C   0  0  0  0  0  0  0  0  0  0  0  0
    2.7100    1.9420   -2.1020 O   0  0  0  0  0  0  0  0  0  0  0  0
    3.2270    0.7760   -1.4970 C   0  0  0  0  0  0  0  0  0  0  0  0
    4.2190    0.8230   -0.8220 O   0  0  0  0  0  0  0  0  0  0  0  0
    2.4620   -0.5340   -1.7540 C   0  0  0  0  0  0  0  0  0  0  0  0
    2.9700   -1.6200   -1.2870 C   0  0  0  0  0  0  0  0  0  0  0  0
    4.2410   -1.5110   -0.5620 C   0  0  0  0  0  0  0  0  0  0  0  0
    4.2170   -1.3730    0.8070 C   0  0  0  0  0  0  0  0  0  0  0  0
    5.4200   -1.1520    1.5250 C   0  0  0  0  0  0  0  0  0  0  0  0
    6.5680   -1.0900    0.7650 C   0  0  0  0  0  0  0  0  0  0  0  0
    6.6400   -1.2240   -0.5970 C   0  0  0  0  0  0  0  0  0  0  0  0
    8.2030   -1.0000   -1.5070 S   0  0  0  0  0  0  0  0  0  0  0  0
    9.3840   -0.2380   -0.2700 C   0  0  0  0  0  0  0  0  0  0  0  0
   10.5890   -0.9570   -0.1080 C   0  0  0  0  0  0  0  0  0  0  0  0
   11.3490   -0.2410    0.9670 C   0  0  0  0  0  0  0  0  0  0  0  0
   10.9450    0.7610    1.5430 C   0  0  0  0  0  0  0  0  0  0  0  0
   11.7160    1.3160    2.7670 C   0  0  0  0  0  0  0  0  0  0  0  0
   12.3240    1.7360    3.7400 N   0  0  0  0  0  0  0  0  0  0  0  0
    9.7300    1.5050    1.3860 C   0  0  0  0  0  0  0  0  0  0  0  0
    8.9740    0.8150    0.3400 C   0  0  0  0  0  0  0  0  0  0  0  0
    5.4470   -1.4380   -1.2500 C   0  0  0  0  0  0  0  0  0  0  0  0
    1.2350   -0.3640   -2.5620 C   0  0  0  0  0  0  0  0  0  0  0  0
    0.2700    0.3020   -1.6350 N   0  0  0  0  0  0  0  0  0  0  0  0
    0.6960    1.1950   -0.8140 N   0  0  0  0  0  0  0  0  0  0  0  0
   -0.0020    1.6880    0.1980 C   0  0  0  0  0  0  0  0  0  0  0  0
   -1.2660    1.2590    0.4240 C   0  0  0  0  0  0  0  0  0  0  0  0
   -2.0090    1.7950    1.4650 C   0  0  0  0  0  0  0  0  0  0  0  0
   -3.3180    1.2990    1.5700 C   0  0  0  0  0  0  0  0  0  0  0  0
   -3.8300    0.3590    0.7100 C   0  0  0  0  0  0  0  0  0  0  0  0
   -5.2180   -0.0190    0.8980 N   0  0  0  0  0  0  0  0  0  0  0  0
   -5.8990   -0.5000   -0.2590 C   0  0  0  0  0  0  0  0  0  0  0  0
   -5.2670   -0.6050   -1.3500 O   0  0  0  0  0  0  0  0  0  0  0  0
   -7.3140   -0.8330   -0.1830 C   0  0  0  0  0  0  0  0  0  0  0  0
   -8.1430   -1.0350    0.9520 C   0  0  0  0  0  0  0  0  0  0  0  0
   -9.4220   -1.3570    0.5930 C   0  0  0  0  0  0  0  0  0  0  0  0
   -9.8350   -1.4710   -0.6230 C   0  0  0  0  0  0  0  0  0  0  0  0
   -8.3750   -1.1170   -1.5480 S   0  0  0  0  0  0  0  0  0  0  0  0
  -11.1660   -1.7620   -1.1680 C   0  0  0  0  0  0  0  0  0  0  0  0
  -12.1570   -1.9520   -0.0960 C   0  0  0  0  0  0  0  0  0  0  0  0
  -11.7760   -1.1840    1.1360 C   0  0  0  0  0  0  0  0  0  0  0  0
  -10.4790   -1.6370    1.7290 C   0  0  0  0  0  0  0  0  0  0  0  0
   -3.0680   -0.1380   -0.2770 N   0  0  0  0  0  0  0  0  0  0  0  0
   -1.7680    0.3070   -0.4290 C   0  0  0  0  0  0  0  0  0  0  0  0
   -1.0000   -0.2040   -1.4930 C   0  0  0  0  0  0  0  0  0  0  0  0
   -1.4580   -1.0570   -2.2590 O   0  0  0  0  0  0  0  0  0  0  0  0
  1  2  1  0
  2  3  1  0
  3  4  1  0
  4  5  2  0
  4  6  1  0
  6  7  2  3
  6 23  1  0
  7  8  1  0
  8  9  2  0
  8 22  1  0
  9 10  1  0
 10 11  2  0
 11 12  1  0
 12 13  1  0
 12 22  2  0
 13 14  1  0
 14 15  2  0
 14 21  1  0
 15 16  1  0
 16 17  2  0
 17 18  1  0
 17 20  1  0
 18 19  3  0
 20 21  2  0
 23 24  1  0
 24 25  1  0
 24 45  1  0
 25 26  2  0
 26 27  1  0
 27 28  2  0
 27 44  1  0
 28 29  1  0
 29 30  2  0
 30 31  1  0
 30 43  1  0
 31 32  1  0
 32 33  2  0
 32 34  1  0
 34 35  2  0
 34 38  1  0
 35 36  1  0
 36 37  2  0
 36 42  1  0
 37 38  1  0
 37 39  1  0
 39 40  1  0
 40 41  1  0
 41 42  1  0
 43 44  2  0
 44 45  1  0
 45 46  2  0
M  END
