
     RDKit          3D

 45 51  0  0  0  0  0  0  0  0999 V2000
    9.9620   -0.9640    0.1090 C   0  0  0  0  0  0  0  0  0  0  0  0
    9.6320    0.1060    1.0990 C   0  0  0  0  0  0  0  0  0  0  0  0
   10.5890    0.5720    1.7630 O   0  0  0  0  0  0  0  0  0  0  0  0
    8.2560    0.5660    1.2630 C   0  0  0  0  0  0  0  0  0  0  0  0
    7.2600   -0.0350    0.4900 C   0  0  0  0  0  0  0  0  0  0  0  0
    5.9900    0.3920    0.6510 C   0  0  0  0  0  0  0  0  0  0  0  0
    4.9700   -0.1810   -0.0980 C   0  0  0  0  0  0  0  0  0  0  0  0
    5.2400   -1.2500   -1.0680 C   0  0  0  0  0  0  0  0  0  0  0  0
    3.6660    0.2690    0.0790 C   0  0  0  0  0  0  0  0  0  0  0  0
    2.1130   -0.2310   -0.7070 S   0  0  0  0  0  0  0  0  0  0  0  0
    1.0920    0.9100    0.1830 C   0  0  0  0  0  0  0  0  0  0  0  0
   -0.3370    1.0750    0.0590 C   0  0  0  0  0  0  0  0  0  0  0  0
   -0.8880    1.9450    0.7800 O   0  0  0  0  0  0  0  0  0  0  0  0
   -1.1380    0.3260   -0.8090 N   0  0  0  0  0  0  0  0  0  0  0  0
   -0.6960   -0.6580   -1.7660 C   0  0  0  0  0  0  0  0  0  0  0  0
   -0.6340   -1.9840   -1.1090 C   0  0  0  0  0  0  0  0  0  0  0  0
   -0.8540   -2.1020    0.1170 O   0  0  0  0  0  0  0  0  0  0  0  0
   -0.3110   -3.2080   -1.8820 C   0  0  0  0  0  0  0  0  0  0  0  0
   -0.2390   -4.4130   -1.3550 C   0  0  0  0  0  0  0  0  0  0  0  0
    0.0620   -5.5200   -2.1180 C   0  0  0  0  0  0  0  0  0  0  0  0
    0.2660   -4.7530   -3.7750 S   0  0  0  0  0  0  0  0  0  0  0  0
   -0.0670   -3.0570   -3.2840 C   0  0  0  0  0  0  0  0  0  0  0  0
   -2.5590    0.5580   -0.7930 C   0  0  0  0  0  0  0  0  0  0  0  0
   -3.1350    1.1720   -1.8980 C   0  0  0  0  0  0  0  0  0  0  0  0
   -4.4780    1.4220   -1.9980 C   0  0  0  0  0  0  0  0  0  0  0  0
   -5.2950    1.0350   -0.9290 C   0  0  0  0  0  0  0  0  0  0  0  0
   -6.6150    1.1230   -0.7130 N   0  0  0  0  0  0  0  0  0  0  0  0
   -6.9360    0.6030    0.4710 C   0  0  0  0  0  0  0  0  0  0  0  0
   -8.2670    0.4920    1.0910 C   0  0  0  0  0  0  0  0  0  0  0  0
   -8.3890   -0.0230    2.2420 O   0  0  0  0  0  0  0  0  0  0  0  0
   -9.4190    0.9460    0.4390 N   0  0  0  0  0  0  0  0  0  0  0  0
  -10.7730    0.8760    0.9730 C   0  0  1  0  0  0  0  0  0  0  0  0
  -11.6710    2.0180    0.4740 C   0  0  0  0  0  0  0  0  0  0  0  0
  -11.8480    0.6760   -0.1050 C   0  0  0  0  0  0  0  0  0  0  0  0
   -5.7840    0.1730    1.0200 N   0  0  0  0  0  0  0  0  0  0  0  0
   -4.7590    0.4240    0.1820 C   0  0  0  0  0  0  0  0  0  0  0  0
   -3.3870    0.1920    0.2360 C   0  0  0  0  0  0  0  0  0  0  0  0
    1.9650    1.5730    0.9920 C   0  0  0  0  0  0  0  0  0  0  0  0
    3.2640    1.2340    0.9260 C   0  0  0  0  0  0  0  0  0  0  0  0
    4.3030    1.8220    1.6920 C   0  0  0  0  0  0  0  0  0  0  0  0
    5.5820    1.3850    1.5230 C   0  0  0  0  0  0  0  0  0  0  0  0
    6.5890    1.9440    2.2570 N   0  0  0  0  0  0  0  0  0  0  0  0
    7.8650    1.5560    2.1350 C   0  0  0  0  0  0  0  0  0  0  0  0
    8.9440    2.2080    2.9650 C   0  0  0  0  0  0  0  0  0  0  0  0
    8.3520    3.1300    3.8050 F   0  0  0  0  0  0  0  0  0  0  0  0
  1  2  1  0
  2  3  2  0
  2  4  1  0
  4  5  2  0
  4 43  1  0
  5  6  1  0
  6  7  2  0
  6 41  1  0
  7  8  1  0
  7  9  1  0
  9 10  1  0
  9 39  2  0
 10 11  1  0
 11 12  1  0
 11 38  2  0
 12 13  2  0
 12 14  1  0
 14 15  1  0
 14 23  1  0
 15 16  1  0
 16 17  2  0
 16 18  1  0
 18 19  1  0
 18 22  2  0
 19 20  2  0
 20 21  1  0
 21 22  1  0
 23 24  2  0
 23 37  1  0
 24 25  1  0
 25 26  2  0
 26 27  1  0
 26 36  1  0
 27 28  2  0
 28 29  1  0
 28 35  1  0
 29 30  2  0
 29 31  1  0
 32 31  1  6
 32 33  1  0
 32 34  1  0
 33 34  1  0
 35 36  1  0
 36 37  2  0
 38 39  1  0
 39 40  1  0
 40 41  2  0
 41 42  1  0
 42 43  2  0
 43 44  1  0
 44 45  1  0
M  END
