
     RDKit          3D

 45 50  0  0  0  0  0  0  0  0999 V2000
    2.1660   -2.5570   -4.2220 C   0  0  0  0  0  0  0  0  0  0  0  0
    2.5400   -0.8930   -3.6460 S   0  0  0  0  0  0  0  0  0  0  0  0
    1.6860   -0.6000   -2.1250 C   0  0  0  0  0  0  0  0  0  0  0  0
    2.2200   -0.7210   -0.9320 C   0  0  0  0  0  0  0  0  0  0  0  0
    3.6490   -1.1480   -0.9720 C   0  0  0  0  0  0  0  0  0  0  0  0
    4.2120   -1.4060   -2.0980 O   0  0  0  0  0  0  0  0  0  0  0  0
    4.4820   -1.2990    0.1470 N   0  0  0  0  0  0  0  0  0  0  0  0
    5.8900   -1.7390    0.0070 C   0  0  2  0  0  0  0  0  0  0  0  0
    5.9990   -3.0660    0.7370 C   0  0  0  0  0  0  0  0  0  0  0  0
    6.2740   -2.6250    2.1550 C   0  0  0  0  0  0  0  0  0  0  0  0
    7.1190   -1.4590    1.9560 N   0  0  0  0  0  0  0  0  0  0  0  0
    6.8140   -0.8600    0.7100 C   0  0  0  0  0  0  0  0  0  0  0  0
    7.2670    0.2270    0.3100 O   0  0  0  0  0  0  0  0  0  0  0  0
    1.6630   -0.4120    0.3480 C   0  0  0  0  0  0  0  0  0  0  0  0
    1.8200   -1.3940    1.3580 C   0  0  0  0  0  0  0  0  0  0  0  0
    1.4640   -1.2110    2.6600 C   0  0  0  0  0  0  0  0  0  0  0  0
    0.9220   -0.0080    3.0170 C   0  0  0  0  0  0  0  0  0  0  0  0
    0.7460    0.9850    2.0730 C   0  0  0  0  0  0  0  0  0  0  0  0
    0.1460    2.2410    2.5670 C   0  0  0  0  0  0  0  0  0  0  0  0
    1.1220    0.7800    0.7230 C   0  0  0  0  0  0  0  0  0  0  0  0
    0.9250    2.1070   -0.3350 S   0  0  1  0  0  0  0  0  0  0  0  0
    1.5080    3.3930    0.2940 O   0  0  0  0  0  0  0  0  0  0  0  0
    1.7400    1.9660   -1.6410 O   0  0  0  0  0  0  0  0  0  0  0  0
   -0.6680    2.3570   -0.8390 N   0  0  0  0  0  0  0  0  0  0  0  0
   -1.4180    1.4100   -1.5910 C   0  0  0  0  0  0  0  0  0  0  0  0
   -2.0140    0.3070   -0.8470 C   0  0  0  0  0  0  0  0  0  0  0  0
   -1.9460    0.0840    0.4720 N   0  0  0  0  0  0  0  0  0  0  0  0
   -2.6270   -1.0320    0.7800 N   0  0  0  0  0  0  0  0  0  0  0  0
   -2.8940   -1.7190    1.9110 C   0  0  0  0  0  0  0  0  0  0  0  0
   -3.6530   -2.8720    1.8830 C   0  0  0  0  0  0  0  0  0  0  0  0
   -3.9200   -3.5970    3.1640 C   0  0  0  0  0  0  0  0  0  0  0  0
   -4.1870   -3.3940    0.6990 C   0  0  0  0  0  0  0  0  0  0  0  0
   -3.8900   -2.6600   -0.4340 C   0  0  0  0  0  0  0  0  0  0  0  0
   -3.1350   -1.5300   -0.3420 C   0  0  0  0  0  0  0  0  0  0  0  0
   -2.7680   -0.7110   -1.3840 C   0  0  0  0  0  0  0  0  0  0  0  0
   -3.2430   -1.0990   -2.7490 C   0  0  0  0  0  0  0  0  0  0  0  0
   -4.5530   -1.8460   -2.6380 C   0  0  0  0  0  0  0  0  0  0  0  0
   -4.3820   -3.0800   -1.7660 C   0  0  0  0  0  0  0  0  0  0  0  0
   -1.3380    3.5960   -0.5250 C   0  0  0  0  0  0  0  0  0  0  0  0
   -2.1230    3.7780    0.5530 C   0  0  0  0  0  0  0  0  0  0  0  0
   -2.7550    4.9990    0.7440 C   0  0  0  0  0  0  0  0  0  0  0  0
   -2.5830    6.0210   -0.1630 C   0  0  0  0  0  0  0  0  0  0  0  0
   -3.2700    7.3170    0.0630 C   0  0  0  0  0  0  0  0  0  0  0  0
   -1.7840    5.8440   -1.2660 C   0  0  0  0  0  0  0  0  0  0  0  0
   -1.1630    4.6260   -1.4420 C   0  0  0  0  0  0  0  0  0  0  0  0
  1  2  1  0
  2  3  1  0
  3  4  2  3
  4  5  1  0
  4 14  1  0
  5  6  2  0
  5  7  1  0
  8  7  1  1
  8  9  1  0
  8 12  1  0
  9 10  1  0
 10 11  1  0
 11 12  1  0
 12 13  2  0
 14 15  2  0
 14 20  1  0
 15 16  1  0
 16 17  2  0
 17 18  1  0
 18 19  1  0
 18 20  2  0
 20 21  1  0
 21 22  2  0
 21 23  2  0
 21 24  1  6
 24 25  1  0
 24 39  1  0
 25 26  1  0
 26 27  2  0
 26 35  1  0
 27 28  1  0
 28 29  1  0
 28 34  1  0
 29 30  2  0
 30 31  1  0
 30 32  1  0
 32 33  2  0
 33 34  1  0
 33 38  1  0
 34 35  2  0
 35 36  1  0
 36 37  1  0
 37 38  1  0
 39 40  2  0
 39 45  1  0
 40 41  1  0
 41 42  2  0
 42 43  1  0
 42 44  1  0
 44 45  2  0
M  END
