
     RDKit          3D

 45 48  0  0  0  0  0  0  0  0999 V2000
   -4.4580    6.3090   -2.0700 C   0  0  0  0  0  0  0  0  0  0  0  0
   -4.5280    5.5840   -0.8750 O   0  0  0  0  0  0  0  0  0  0  0  0
   -3.7630    4.4600   -0.6230 C   0  0  0  0  0  0  0  0  0  0  0  0
   -2.8750    3.9770   -1.5400 C   0  0  0  0  0  0  0  0  0  0  0  0
   -2.1060    2.8490   -1.2860 C   0  0  0  0  0  0  0  0  0  0  0  0
   -2.2150    2.1760   -0.0950 C   0  0  0  0  0  0  0  0  0  0  0  0
   -1.2490    0.7750    0.2370 S   0  0  1  0  0  0  0  0  0  0  0  0
    0.1290    1.0000   -0.2830 O   0  0  0  0  0  0  0  0  0  0  0  0
   -1.1490    0.6840    1.7630 O   0  0  0  0  0  0  0  0  0  0  0  0
   -1.9430   -0.6980   -0.2900 N   0  0  0  0  0  0  0  0  0  0  0  0
   -3.1820   -0.9350    0.3670 C   0  0  0  0  0  0  0  0  0  0  0  0
   -4.4030   -0.5010   -0.3820 C   0  0  1  0  0  0  0  0  0  0  0  0
   -4.5450   -1.1940   -1.7180 C   0  0  0  0  0  0  0  0  0  0  0  0
   -5.6280   -0.9040    0.4360 C   0  0  0  0  0  0  0  0  0  0  0  0
   -0.9920   -1.7670   -0.1170 C   0  0  0  0  0  0  0  0  0  0  0  0
   -0.3930   -2.1630   -1.4520 C   0  0  1  0  0  0  0  0  0  0  0  0
    0.2240   -0.9710   -1.9190 O   0  0  0  0  0  0  0  0  0  0  0  0
    0.6500   -3.2220   -1.3420 C   0  0  2  0  0  0  0  0  0  0  0  0
    0.2340   -4.6370   -1.3620 C   0  0  0  0  0  0  0  0  0  0  0  0
   -0.6820   -5.1360   -0.3480 C   0  0  0  0  0  0  0  0  0  0  0  0
   -0.1850   -5.5560    0.8620 C   0  0  0  0  0  0  0  0  0  0  0  0
   -0.9630   -6.0690    1.8670 C   0  0  0  0  0  0  0  0  0  0  0  0
   -2.3230   -6.1590    1.6250 C   0  0  0  0  0  0  0  0  0  0  0  0
   -2.8430   -5.7450    0.4220 C   0  0  0  0  0  0  0  0  0  0  0  0
   -2.0300   -5.2420   -0.5480 C   0  0  0  0  0  0  0  0  0  0  0  0
    1.6900   -2.8870   -0.3870 N   0  0  0  0  0  0  0  0  0  0  0  0
    3.0400   -2.6270   -0.7110 C   0  0  0  0  0  0  0  0  0  0  0  0
    3.3520   -2.6980   -1.9320 O   0  0  0  0  0  0  0  0  0  0  0  0
    4.0600   -2.2830    0.3330 C   0  0  2  0  0  0  0  0  0  0  0  0
    3.8110   -0.8980    0.8910 C   0  0  0  0  0  0  0  0  0  0  0  0
    4.8260   -0.0490    0.3150 N   0  0  0  0  0  0  0  0  0  0  0  0
    5.0820    1.3210    0.6450 C   0  0  0  0  0  0  0  0  0  0  0  0
    6.1460    1.7040    1.4330 C   0  0  0  0  0  0  0  0  0  0  0  0
    6.4020    3.0130    1.7590 C   0  0  0  0  0  0  0  0  0  0  0  0
    5.5700    4.0220    1.2900 C   0  0  0  0  0  0  0  0  0  0  0  0
    5.8340    5.4090    1.6320 C   0  0  0  0  0  0  0  0  0  0  0  0
    4.9580    6.4900    1.1410 C   0  0  0  0  0  0  0  0  0  0  0  0
    6.8210    5.6860    2.3540 O   0  0  0  0  0  0  0  0  0  0  0  0
    4.5050    3.6520    0.5040 C   0  0  0  0  0  0  0  0  0  0  0  0
    4.2500    2.3180    0.1750 C   0  0  0  0  0  0  0  0  0  0  0  0
    5.5390   -0.8150   -0.6480 C   0  0  0  0  0  0  0  0  0  0  0  0
    6.2480   -0.3380   -1.5950 O   0  0  0  0  0  0  0  0  0  0  0  0
    5.2990   -2.1450   -0.3400 O   0  0  0  0  0  0  0  0  0  0  0  0
   -3.1290    2.6890    0.8280 C   0  0  0  0  0  0  0  0  0  0  0  0
   -3.8890    3.7990    0.5860 C   0  0  0  0  0  0  0  0  0  0  0  0
  1  2  1  0
  2  3  1  0
  3  4  2  0
  3 45  1  0
  4  5  1  0
  5  6  2  0
  6  7  1  0
  6 44  1  0
  7  8  2  0
  7  9  2  0
  7 10  1  6
 10 11  1  0
 10 15  1  0
 11 12  1  0
 12 13  1  6
 12 14  1  0
 15 16  1  0
 16 17  1  1
 16 18  1  0
 18 19  1  1
 18 26  1  0
 19 20  1  0
 20 21  2  0
 20 25  1  0
 21 22  1  0
 22 23  2  0
 23 24  1  0
 24 25  2  0
 26 27  1  0
 27 28  2  0
 29 27  1  6
 29 30  1  0
 29 43  1  0
 30 31  1  0
 31 32  1  0
 31 41  1  0
 32 33  2  0
 32 40  1  0
 33 34  1  0
 34 35  2  0
 35 36  1  0
 35 39  1  0
 36 37  1  0
 36 38  2  0
 39 40  2  0
 41 42  2  0
 41 43  1  0
 44 45  2  0
M  END
