
     RDKit          3D

 21 24  0  0  0  0  0  0  0  0999 V2000
    6.3480   -0.0740    0.1620 O   0  0  0  0  0  0  0  0  0  0  0  0
    4.9540   -0.0070   -0.0130 C   0  0  0  0  0  0  0  0  0  0  0  0
    4.2930    1.2100   -0.0280 C   0  0  0  0  0  0  0  0  0  0  0  0
    2.9380    1.2100   -0.2020 C   0  0  0  0  0  0  0  0  0  0  0  0
    2.1820    0.0670   -0.3650 C   0  0  0  0  0  0  0  0  0  0  0  0
    0.7340    0.1860   -0.5460 C   0  0  2  0  0  0  0  0  0  0  0  0
    0.1420    1.1250    0.3650 O   0  0  0  0  0  0  0  0  0  0  0  0
   -1.2010    1.4090    0.1940 C   0  0  0  0  0  0  0  0  0  0  0  0
   -1.7940    2.5680    0.6500 C   0  0  0  0  0  0  0  0  0  0  0  0
   -3.1360    2.8270    0.4670 C   0  0  0  0  0  0  0  0  0  0  0  0
   -3.8900    1.8840   -0.1960 C   0  0  0  0  0  0  0  0  0  0  0  0
   -5.2570    2.0660   -0.4250 O   0  0  0  0  0  0  0  0  0  0  0  0
   -3.3120    0.7050   -0.6660 C   0  0  0  0  0  0  0  0  0  0  0  0
   -1.9620    0.4590   -0.4740 C   0  0  0  0  0  0  0  0  0  0  0  0
   -1.4290   -0.8110   -0.9990 C   0  0  2  0  0  0  0  0  0  0  0  0
   -2.2800   -1.9300   -0.4390 C   0  0  0  0  0  0  0  0  0  0  0  0
   -1.5250   -2.5380    0.6940 C   0  0  0  0  0  0  0  0  0  0  0  0
   -0.2540   -1.6860    0.8210 C   0  0  0  0  0  0  0  0  0  0  0  0
   -0.0140   -1.0960   -0.5430 C   0  0  2  0  0  0  0  0  0  0  0  0
    2.8540   -1.1400   -0.3480 C   0  0  0  0  0  0  0  0  0  0  0  0
    4.2230   -1.1660   -0.1740 C   0  0  0  0  0  0  0  0  0  0  0  0
  1  2  1  0
  2  3  2  0
  2 21  1  0
  3  4  1  0
  4  5  2  0
  6  5  1  1
  5 20  1  0
  6  7  1  0
  6 19  1  0
  7  8  1  0
  8  9  2  0
  8 14  1  0
  9 10  1  0
 10 11  2  0
 11 12  1  0
 11 13  1  0
 13 14  2  0
 14 15  1  0
 15 16  1  1
 15 19  1  0
 16 17  1  0
 17 18  1  0
 19 18  1  1
 20 21  2  0
M  END
