
     RDKit          3D

 20 21  0  0  0  0  0  0  0  0999 V2000
    0.5060   -0.1610    2.0370 O   0  0  0  0  0  0  0  0  0  0  0  0
    0.8520   -1.0480    1.2390 C   0  0  0  0  0  0  0  0  0  0  0  0
    2.2720   -1.5680    1.1110 C   0  0  0  0  0  0  0  0  0  0  0  0
    2.4380   -1.9430   -0.6970 S   0  0  0  0  0  0  0  0  0  0  0  0
    2.5810   -0.2810   -1.4830 C   0  0  0  0  0  0  0  0  0  0  0  0
    3.9460    0.2150   -1.1530 C   0  0  0  0  0  0  0  0  0  0  0  0
    5.0450    0.1760   -1.6510 N   0  0  0  0  0  0  0  0  0  0  0  0
    6.1590    0.6450   -1.1940 C   0  0  0  0  0  0  0  0  0  0  0  0
    6.1130    1.2900    0.0470 C   0  0  0  0  0  0  0  0  0  0  0  0
    4.3110    1.1360    0.4460 S   0  0  0  0  0  0  0  0  0  0  0  0
   -0.0950   -1.6460    0.3790 N   0  0  0  0  0  0  0  0  0  0  0  0
   -1.4370   -1.2960    0.3660 N   0  0  0  0  0  0  0  0  0  0  0  0
   -1.8780   -0.0190   -0.0580 C   0  0  0  0  0  0  0  0  0  0  0  0
   -0.9300    0.7890   -0.3990 O   0  0  0  0  0  0  0  0  0  0  0  0
   -3.2710    0.3990   -0.1260 C   0  0  0  0  0  0  0  0  0  0  0  0
   -4.2940   -0.3780    0.2020 C   0  0  0  0  0  0  0  0  0  0  0  0
   -5.6940    0.0680    0.1270 C   0  0  0  0  0  0  0  0  0  0  0  0
   -5.8290    1.3880   -0.3390 O   0  0  0  0  0  0  0  0  0  0  0  0
   -4.7730    2.2050   -0.6840 C   0  0  0  0  0  0  0  0  0  0  0  0
   -3.5330    1.7570   -0.5910 C   0  0  0  0  0  0  0  0  0  0  0  0
  1  2  2  0
  2  3  1  0
  2 11  1  0
  3  4  1  0
  4  5  1  0
  5  6  1  0
  6  7  2  0
  6 10  1  0
  7  8  1  0
  8  9  2  0
  9 10  1  0
 11 12  1  0
 12 13  1  0
 13 14  2  0
 13 15  1  0
 15 16  2  0
 15 20  1  0
 16 17  1  0
 17 18  1  0
 18 19  1  0
 19 20  2  0
M  END
