
     RDKit          3D

 20 21  0  0  0  0  0  0  0  0999 V2000
   -4.1660   -0.3250    1.8130 C   0  0  0  0  0  0  0  0  0  0  0  0
   -4.5230   -0.0290    0.3980 C   0  0  0  0  0  0  0  0  0  0  0  0
   -5.6770    0.4900   -0.0550 N   0  0  0  0  0  0  0  0  0  0  0  0
   -5.6220    0.6080   -1.3650 O   0  0  0  0  0  0  0  0  0  0  0  0
   -4.4380    0.1690   -1.7810 C   0  0  0  0  0  0  0  0  0  0  0  0
   -3.9710    0.1290   -3.1950 C   0  0  0  0  0  0  0  0  0  0  0  0
   -3.7110   -0.2440   -0.6930 C   0  0  0  0  0  0  0  0  0  0  0  0
   -2.3440   -0.8040   -0.6660 C   0  0  0  0  0  0  0  0  0  0  0  0
   -1.3440    0.1860   -0.1970 C   0  0  0  0  0  0  0  0  0  0  0  0
   -1.6190    1.3640    0.1430 O   0  0  0  0  0  0  0  0  0  0  0  0
    0.0120   -0.2200   -0.1260 N   0  0  0  0  0  0  0  0  0  0  0  0
    1.0170    0.7170    0.3270 C   0  0  0  0  0  0  0  0  0  0  0  0
    2.3690    0.1070    0.3320 C   0  0  0  0  0  0  0  0  0  0  0  0
    2.5790   -1.0860   -0.0220 O   0  0  0  0  0  0  0  0  0  0  0  0
    3.4580    0.9160    0.7550 N   0  0  0  0  0  0  0  0  0  0  0  0
    4.8030    0.4000    0.7890 C   0  0  0  0  0  0  0  0  0  0  0  0
    5.7870    0.8910    0.1120 C   0  0  0  0  0  0  0  0  0  0  0  0
    7.3380    0.0540    0.3460 S   0  0  0  0  0  0  0  0  0  0  0  0
    7.0350   -1.0220    1.7750 C   0  0  0  0  0  0  0  0  0  0  0  0
    5.2190   -0.9970    1.7980 S   0  0  0  0  0  0  0  0  0  0  0  0
  1  2  1  0
  2  3  2  0
  2  7  1  0
  3  4  1  0
  4  5  1  0
  5  6  1  0
  5  7  2  0
  7  8  1  0
  8  9  1  0
  9 10  2  0
  9 11  1  0
 11 12  1  0
 12 13  1  0
 13 14  2  0
 13 15  1  0
 15 16  1  0
 16 17  2  0
 16 20  1  0
 17 18  1  0
 18 19  1  0
 19 20  1  0
M  END
