
     RDKit          3D

 20 21  0  0  0  0  0  0  0  0999 V2000
    5.8720    1.7810    0.7130 C   0  0  0  0  0  0  0  0  0  0  0  0
    5.9530    0.6900    1.5720 O   0  0  0  0  0  0  0  0  0  0  0  0
    5.6690   -0.5310    0.9270 C   0  0  0  0  0  0  0  0  0  0  0  0
    4.3130   -0.5280    0.3180 C   0  0  0  0  0  0  0  0  0  0  0  0
    3.1900   -0.7470    0.3840 N   0  0  0  0  0  0  0  0  0  0  0  0
    2.1740   -0.5690   -0.4530 C   0  0  0  0  0  0  0  0  0  0  0  0
    0.8200   -0.9900   -0.1750 C   0  0  0  0  0  0  0  0  0  0  0  0
    0.4050   -1.9220    0.3360 O   0  0  0  0  0  0  0  0  0  0  0  0
   -0.3400    0.1680   -0.7240 N   0  0  0  0  0  0  0  0  0  0  0  0
   -1.4790   -0.5480   -0.3950 C   0  0  0  0  0  0  0  0  0  0  0  0
   -1.6770   -1.6450    0.0140 O   0  0  0  0  0  0  0  0  0  0  0  0
   -2.6320    0.3370   -0.6320 N   0  0  0  0  0  0  0  0  0  0  0  0
   -3.9670    0.0940   -0.3880 C   0  0  0  0  0  0  0  0  0  0  0  0
   -4.4020   -0.9780    0.2190 C   0  0  0  0  0  0  0  0  0  0  0  0
   -5.7640   -1.4160    0.5700 C   0  0  0  0  0  0  0  0  0  0  0  0
   -6.9980   -0.2580    0.0470 S   0  0  0  0  0  0  0  0  0  0  0  0
   -6.1890    1.1020   -0.7370 C   0  0  0  0  0  0  0  0  0  0  0  0
   -4.8980    1.1620   -0.8760 C   0  0  0  0  0  0  0  0  0  0  0  0
    2.5440   -0.0050   -1.6490 C   0  0  0  0  0  0  0  0  0  0  0  0
    4.3420    0.2180   -1.4580 S   0  0  0  0  0  0  0  0  0  0  0  0
  1  2  1  0
  2  3  1  0
  3  4  1  0
  4  5  2  0
  4 20  1  0
  5  6  1  0
  6  7  1  0
  6 19  2  0
  7  8  2  0
  7  9  1  0
  9 10  1  0
 10 11  2  0
 10 12  1  0
 12 13  1  0
 13 14  2  0
 13 18  1  0
 14 15  1  0
 15 16  1  0
 16 17  1  0
 17 18  2  0
 19 20  1  0
M  END
