
     RDKit          3D

 21 21  0  0  0  0  0  0  0  0999 V2000
   -4.6320   -1.6550    0.3210 C   0  0  0  0  0  0  0  0  0  0  0  0
   -4.3500   -0.3300    0.7670 N   0  0  0  0  0  0  0  0  0  0  0  0
   -3.4420    0.3720   -0.0790 C   0  0  1  0  0  0  0  0  0  0  0  0
   -3.2170    1.6640    0.3860 O   0  0  0  0  0  0  0  0  0  0  0  0
   -3.6170    2.5590   -0.4550 O   0  0  0  0  0  0  0  0  0  0  0  0
   -2.2400   -0.3860   -0.2270 N   0  0  0  0  0  0  0  0  0  0  0  0
   -2.3200   -1.6170   -0.7770 O   0  0  0  0  0  0  0  0  0  0  0  0
   -2.0830   -1.5880   -2.1500 C   0  0  0  0  0  0  0  0  0  0  0  0
   -0.9500    0.0980    0.1810 C   0  0  0  0  0  0  0  0  0  0  0  0
    0.0350    0.2260   -0.7280 N   0  0  0  0  0  0  0  0  0  0  0  0
    1.2670    0.6750   -0.4050 C   0  0  0  0  0  0  0  0  0  0  0  0
    2.6060    0.8470   -1.6470 P   0  0  0  0  0  0  0  0  0  0  0  0
    2.8210   -0.7010   -2.3900 O   0  0  0  0  0  0  0  0  0  0  0  0
    4.0170    1.4200   -0.8660 O   0  0  0  0  0  0  0  0  0  0  0  0
    4.7280    0.5160   -0.2270 N   0  0  0  0  0  0  0  0  0  0  0  0
    5.2760   -0.5370   -1.0010 C   0  0  0  0  0  0  0  0  0  0  0  0
    5.5620    1.0070    0.8220 C   0  0  0  0  0  0  0  0  0  0  0  0
    1.4700    1.0010    0.9210 C   0  0  0  0  0  0  0  0  0  0  0  0
    0.4690    0.8770    1.8760 C   0  0  0  0  0  0  0  0  0  0  0  0
   -0.7820    0.4150    1.5140 C   0  0  0  0  0  0  0  0  0  0  0  0
   -2.0950    0.2510    2.7590 P   0  0  0  0  0  0  0  0  0  0  0  0
  1  2  1  0
  3  2  1  1
  3  4  1  0
  3  6  1  0
  4  5  1  0
  6  7  1  0
  6  9  1  0
  7  8  1  0
  9 10  2  0
  9 20  1  0
 10 11  1  0
 11 12  1  0
 11 18  2  0
 12 13  1  0
 12 14  1  0
 14 15  1  0
 15 16  1  0
 15 17  1  0
 18 19  1  0
 19 20  2  0
 20 21  1  0
M  END
