
     RDKit          3D

 21 21  0  0  0  0  0  0  0  0999 V2000
    1.2820    2.7840    1.9670 C   0  0  0  0  0  0  0  0  0  0  0  0
    0.6430    2.1520    1.0020 C   0  0  0  0  0  0  0  0  0  0  0  0
   -0.4540    2.8400    0.4100 N   0  0  0  0  0  0  0  0  0  0  0  0
    1.0330    0.8450    0.5750 N   0  0  0  0  0  0  0  0  0  0  0  0
    0.0180   -0.1640    0.5040 C   0  0  0  0  0  0  0  0  0  0  0  0
   -0.7150   -0.1820   -0.7310 N   0  0  0  0  0  0  0  0  0  0  0  0
   -0.0770   -0.3530   -1.9940 C   0  0  0  0  0  0  0  0  0  0  0  0
   -2.1590   -0.0170   -0.6870 C   0  0  0  0  0  0  0  0  0  0  0  0
   -2.8870    1.2050   -1.6000 P   0  0  0  0  0  0  0  0  0  0  0  0
   -5.0550    1.0650   -1.2150 P   0  0  0  0  0  0  0  0  0  0  0  0
   -5.2900   -0.1140   -0.2170 N   0  0  0  0  0  0  0  0  0  0  0  0
   -4.3470   -0.9270    0.3340 C   0  0  1  0  0  0  0  0  0  0  0  0
   -4.4850   -0.7590    1.7650 O   0  0  0  0  0  0  0  0  0  0  0  0
   -4.7610   -2.3100    0.2110 O   0  0  0  0  0  0  0  0  0  0  0  0
   -2.9670   -0.8590    0.0950 N   0  0  0  0  0  0  0  0  0  0  0  0
    2.3550    0.5800    0.1990 C   0  0  0  0  0  0  0  0  0  0  0  0
    3.1950    1.5540    0.2000 O   0  0  0  0  0  0  0  0  0  0  0  0
    2.8890   -0.7360   -0.1990 C   0  0  0  0  0  0  0  0  0  0  0  0
    4.3440   -0.6550   -0.5100 C   0  0  0  0  0  0  0  0  0  0  0  0
    4.9120    0.4050   -0.4110 O   0  0  0  0  0  0  0  0  0  0  0  0
    5.2810   -2.1300   -1.0360 P   0  0  0  0  0  0  0  0  0  0  0  0
  1  2  2  0
  2  3  1  0
  2  4  1  0
  4  5  1  0
  4 16  1  0
  5  6  1  0
  6  7  1  0
  6  8  1  0
  8  9  2  0
  8 15  1  0
  9 10  1  0
 10 11  2  0
 11 12  1  0
 12 13  1  1
 12 14  1  0
 12 15  1  0
 16 17  2  0
 16 18  1  0
 18 19  1  0
 19 20  2  0
 19 21  1  0
M  END
