
     RDKit          3D

 21 21  0  0  0  0  0  0  0  0999 V2000
   -3.6980    2.4190   -0.2450 C   0  0  0  0  0  0  0  0  0  0  0  0
   -2.3330    2.1110   -0.5600 N   0  0  0  0  0  0  0  0  0  0  0  0
   -1.9250    0.7360   -0.7020 C   0  0  0  0  0  0  0  0  0  0  0  0
   -2.7070   -0.2880   -0.9860 C   0  0  0  0  0  0  0  0  0  0  0  0
   -1.8930   -1.4970   -1.0360 C   0  0  2  0  0  0  0  0  0  0  0  0
   -1.8840   -1.9900   -2.3400 O   0  0  0  0  0  0  0  0  0  0  0  0
   -2.3600   -2.5870   -0.1120 C   0  0  0  0  0  0  0  0  0  0  0  0
   -2.4110   -2.2010    1.2570 N   0  0  0  0  0  0  0  0  0  0  0  0
   -0.5640   -1.0410   -0.7480 N   0  0  0  0  0  0  0  0  0  0  0  0
   -0.5560    0.2290   -0.5540 C   0  0  0  0  0  0  0  0  0  0  0  0
    0.6400    1.0030   -0.2400 C   0  0  0  0  0  0  0  0  0  0  0  0
    0.5560    2.2460   -0.0650 O   0  0  0  0  0  0  0  0  0  0  0  0
    1.9140    0.4480   -0.1150 O   0  0  0  0  0  0  0  0  0  0  0  0
    3.0480    1.2190    0.1880 C   0  0  0  0  0  0  0  0  0  0  0  0
    4.2400    0.3590    0.2540 C   0  0  0  0  0  0  0  0  0  0  0  0
    5.8620    1.0840    0.6310 P   0  0  0  0  0  0  0  0  0  0  0  0
    6.0670    1.8420    2.0470 N   0  0  0  0  0  0  0  0  0  0  0  0
    4.7580    1.9790    3.2230 P   0  0  0  0  0  0  0  0  0  0  0  0
    4.3260    3.3560    3.7650 O   0  0  0  0  0  0  0  0  0  0  0  0
    4.1130   -1.2620   -0.0140 P   0  0  0  0  0  0  0  0  0  0  0  0
    2.5180   -2.1000   -0.4030 C   0  0  0  0  0  0  0  0  0  0  0  0
  1  2  1  0
  2  3  1  0
  3  4  2  0
  3 10  1  0
  4  5  1  0
  5  6  1  6
  5  7  1  0
  5  9  1  0
  7  8  1  0
  9 10  2  0
 10 11  1  0
 11 12  2  0
 11 13  1  0
 13 14  1  0
 14 15  1  0
 15 16  1  0
 15 20  2  3
 16 17  2  3
 17 18  1  0
 18 19  2  0
 20 21  1  0
M  END
