
     RDKit          3D

 22 22  0  0  0  0  0  0  0  0999 V2000
   -1.9140   -2.3230    0.7830 C   0  0  0  0  0  0  0  0  0  0  0  0
   -2.2920   -0.8770    1.1120 C   0  0  2  0  0  0  0  0  0  0  0  0
   -3.7630   -0.7020    0.8510 C   0  0  0  0  0  0  0  0  0  0  0  0
   -1.2200    0.2830    0.1990 P   0  0  0  0  0  0  0  0  0  0  0  0
   -2.1160    1.7030   -0.5930 C   0  0  0  0  0  0  0  0  0  0  0  0
   -2.6550    2.6680    0.3720 C   0  0  0  0  0  0  0  0  0  0  0  0
   -2.5330    4.0610    0.1320 N   0  0  0  0  0  0  0  0  0  0  0  0
   -3.2350    2.3050    1.4290 O   0  0  0  0  0  0  0  0  0  0  0  0
   -0.1290   -0.4630   -1.0380 C   0  0  2  0  0  0  0  0  0  0  0  0
   -0.7010   -0.5830   -2.4170 C   0  0  0  0  0  0  0  0  0  0  0  0
    0.4910   -1.7050   -0.6370 O   0  0  0  0  0  0  0  0  0  0  0  0
    1.5680   -2.0330   -1.4010 C   0  0  0  0  0  0  0  0  0  0  0  0
    1.9380   -3.7730   -1.8520 P   0  0  0  0  0  0  0  0  0  0  0  0
    1.0220   -4.7200   -2.6140 O   0  0  0  0  0  0  0  0  0  0  0  0
    2.3310   -1.0840   -1.8000 N   0  0  0  0  0  0  0  0  0  0  0  0
    1.5640    0.4340   -1.1040 P   0  0  0  0  0  0  0  0  0  0  0  0
    2.2400    0.4640    0.6240 C   0  0  0  0  0  0  0  0  0  0  0  0
    1.5040    0.3460    1.6070 O   0  0  0  0  0  0  0  0  0  0  0  0
    3.6690    0.6240    0.8180 C   0  0  0  0  0  0  0  0  0  0  0  0
    4.3200    0.6400    2.0790 N   0  0  0  0  0  0  0  0  0  0  0  0
    4.4000    0.7700   -0.2370 N   0  0  0  0  0  0  0  0  0  0  0  0
    5.7770    0.9300   -0.1680 N   0  0  0  0  0  0  0  0  0  0  0  0
  2  1  1  6
  2  3  1  0
  2  4  1  0
  4  5  1  0
  4  9  1  0
  5  6  1  0
  6  7  1  0
  6  8  2  0
  9 10  1  6
  9 11  1  0
  9 16  1  0
 11 12  1  0
 12 13  1  0
 12 15  2  0
 13 14  2  0
 15 16  1  0
 16 17  1  0
 17 18  2  0
 17 19  1  0
 19 20  1  0
 19 21  2  3
 21 22  1  0
M  END
