
     RDKit          3D

 22 22  0  0  0  0  0  0  0  0999 V2000
    5.8740   -0.1480    0.0510 C   0  0  0  0  0  0  0  0  0  0  0  0
    4.5410   -0.8340   -0.1530 C   0  0  2  0  0  0  0  0  0  0  0  0
    4.7210   -2.3400   -0.1400 C   0  0  0  0  0  0  0  0  0  0  0  0
    3.7660   -0.3000   -1.7560 P   0  0  0  0  0  0  0  0  0  0  0  0
    3.6970   -0.5140    0.9450 O   0  0  0  0  0  0  0  0  0  0  0  0
    3.4160    0.8180    1.1490 N   0  0  0  0  0  0  0  0  0  0  0  0
    2.2520    1.3040    1.0470 C   0  0  0  0  0  0  0  0  0  0  0  0
    1.0610    0.5820    0.7130 C   0  0  0  0  0  0  0  0  0  0  0  0
    1.1000   -0.6400    0.4890 O   0  0  0  0  0  0  0  0  0  0  0  0
   -0.2490    1.2680    0.6240 C   0  0  0  0  0  0  0  0  0  0  0  0
   -0.3120    2.5000    0.8460 O   0  0  0  0  0  0  0  0  0  0  0  0
   -1.4220    0.5740    0.2990 N   0  0  0  0  0  0  0  0  0  0  0  0
   -2.7430    1.0670    0.1730 C   0  0  0  0  0  0  0  0  0  0  0  0
   -3.0210    2.3110    0.4060 C   0  0  0  0  0  0  0  0  0  0  0  0
   -4.3730    2.7880    0.2710 N   0  0  0  0  0  0  0  0  0  0  0  0
   -3.8240    0.1500   -0.2450 C   0  0  0  0  0  0  0  0  0  0  0  0
   -5.3600    0.6530   -0.3840 P   0  0  0  0  0  0  0  0  0  0  0  0
   -6.6920   -0.4640   -0.8930 C   0  0  0  0  0  0  0  0  0  0  0  0
   -7.8850   -0.0740   -1.0030 O   0  0  0  0  0  0  0  0  0  0  0  0
   -6.3370   -1.7660   -1.1540 O   0  0  0  0  0  0  0  0  0  0  0  0
   -4.6990   -2.2080   -1.4650 P   0  0  0  0  0  0  0  0  0  0  0  0
   -3.4330   -1.2490   -0.5570 C   0  0  0  0  0  0  0  0  0  0  0  0
  2  1  1  1
  2  3  1  0
  2  4  1  0
  2  5  1  0
  5  6  1  0
  6  7  2  3
  7  8  1  0
  8  9  2  0
  8 10  1  0
 10 11  2  0
 10 12  1  0
 12 13  1  0
 13 14  2  3
 13 16  1  0
 14 15  1  0
 16 17  2  0
 16 22  1  0
 17 18  1  0
 18 19  2  0
 18 20  1  0
 20 21  1  0
 21 22  1  0
M  END
