
     RDKit          3D

 17 17  0  0  0  0  0  0  0  0999 V2000
    1.6730   -0.5820   -1.4120 O   0  0  0  0  0  0  0  0  0  0  0  0
    1.8750    0.0350   -0.3380 C   0  0  0  0  0  0  0  0  0  0  0  0
    3.0180    0.8630   -0.1460 N   0  0  0  0  0  0  0  0  0  0  0  0
    4.2090    0.3620   -0.0460 C   0  0  0  0  0  0  0  0  0  0  0  0
    4.4790   -0.9890   -0.1140 O   0  0  0  0  0  0  0  0  0  0  0  0
    5.6070    1.5210    0.1990 P   0  0  0  0  0  0  0  0  0  0  0  0
    0.9050   -0.0910    0.7690 C   0  0  2  0  0  0  0  0  0  0  0  0
    0.3740    1.1480    1.0950 F   0  0  0  0  0  0  0  0  0  0  0  0
    1.7210   -0.7490    2.2180 Cl  0  0  0  0  0  0  0  0  0  0  0  0
   -0.1720   -1.0660    0.3880 C   0  0  0  0  0  0  0  0  0  0  0  0
   -1.3760   -1.2160    1.7750 P   0  0  0  0  0  0  0  0  0  0  0  0
   -2.9000   -0.7800    1.5740 N   0  0  0  0  0  0  0  0  0  0  0  0
   -3.6320   -0.1310    0.1040 P   0  0  0  0  0  0  0  0  0  0  0  0
   -4.6990    1.3010    0.0050 N   0  0  0  0  0  0  0  0  0  0  0  0
   -5.6160    0.9210   -0.8170 O   0  0  0  0  0  0  0  0  0  0  0  0
   -5.6640   -0.1410   -1.3370 N   0  0  0  0  0  0  0  0  0  0  0  0
   -4.6500   -1.0910   -1.0550 O   0  0  0  0  0  0  0  0  0  0  0  0
  1  2  2  0
  2  3  1  0
  2  7  1  0
  3  4  2  3
  4  5  1  0
  4  6  1  0
  7  8  1  1
  7  9  1  0
  7 10  1  0
 10 11  1  0
 11 12  2  3
 12 13  1  0
 13 14  1  0
 13 17  1  0
 14 15  1  0
 15 16  1  0
 16 17  1  0
M  END
