
     RDKit          3D

 21 23  0  0  0  0  0  0  0  0999 V2000
   -0.1990    0.7420   -0.9380 C   0  0  0  0  0  0  0  0  0  0  0  0
    1.0070    0.2540   -0.6360 C   0  0  0  0  0  0  0  0  0  0  0  0
    2.0260    0.8340   -1.3170 N   0  0  0  0  0  0  0  0  0  0  0  0
    1.8950    2.0890   -1.8320 O   0  0  0  0  0  0  0  0  0  0  0  0
    2.6220    3.2150   -1.4270 C   0  0  0  0  0  0  0  0  0  0  0  0
    3.1710    0.2190   -1.4930 N   0  0  0  0  0  0  0  0  0  0  0  0
    3.2870   -0.9660   -0.9910 O   0  0  0  0  0  0  0  0  0  0  0  0
    2.3490   -1.5330   -0.3370 C   0  0  0  0  0  0  0  0  0  0  0  0
    1.1410   -0.9590   -0.1010 N   0  0  0  0  0  0  0  0  0  0  0  0
    0.0680   -1.6460    0.4170 C   0  0  0  0  0  0  0  0  0  0  0  0
   -1.0720   -1.3050    0.8790 C   0  0  0  0  0  0  0  0  0  0  0  0
   -1.7380   -0.0820    1.1390 C   0  0  0  0  0  0  0  0  0  0  0  0
   -3.0220    0.1160    1.3510 C   0  0  0  0  0  0  0  0  0  0  0  0
   -3.6630    1.7930    1.6610 P   0  0  0  0  0  0  0  0  0  0  0  0
   -3.9070   -0.9560    1.3450 O   0  0  0  0  0  0  0  0  0  0  0  0
   -3.4420   -2.2230    1.1170 N   0  0  0  0  0  0  0  0  0  0  0  0
   -2.0750   -2.4530    0.8840 C   0  0  0  0  0  0  0  0  0  0  0  0
   -1.6770   -3.6140    0.6790 O   0  0  0  0  0  0  0  0  0  0  0  0
    0.3500   -3.0750    0.5780 O   0  0  0  0  0  0  0  0  0  0  0  0
    1.5580   -3.5350    0.2240 N   0  0  0  0  0  0  0  0  0  0  0  0
    2.5610   -2.7360    0.1330 C   0  0  0  0  0  0  0  0  0  0  0  0
  1  2  2  0
  2  3  1  0
  2  9  1  0
  3  4  1  0
  3  6  1  0
  4  5  1  0
  6  7  1  0
  7  8  1  0
  8  9  1  0
  8 21  2  0
  9 10  1  0
 10 11  2  3
 10 19  1  0
 11 12  1  0
 11 17  1  0
 12 13  2  0
 13 14  1  0
 13 15  1  0
 15 16  1  0
 16 17  1  0
 17 18  2  0
 19 20  1  0
 20 21  2  0
M  END
