
     RDKit          3D

 17 16  0  0  0  0  0  0  0  0999 V2000
   -1.7810    2.8150    0.3500 N   0  0  0  0  0  0  0  0  0  0  0  0
   -2.6980    1.6960    0.2130 C   0  0  0  0  0  0  0  0  0  0  0  0
   -1.9480    0.4830   -0.3540 C   0  0  2  0  0  0  0  0  0  0  0  0
   -2.8830   -0.5760   -0.4680 N   0  0  0  0  0  0  0  0  0  0  0  0
   -2.2780   -2.0940   -1.1000 P   0  0  0  0  0  0  0  0  0  0  0  0
   -0.7970    0.2270    0.5700 C   0  0  1  0  0  0  0  0  0  0  0  0
   -1.2130   -0.0540    1.9120 N   0  0  0  0  0  0  0  0  0  0  0  0
   -1.3550   -1.1290    2.3610 O   0  0  0  0  0  0  0  0  0  0  0  0
    0.3770   -1.0470   -0.0830 P   0  0  0  0  0  0  0  0  0  0  0  0
    1.2470   -2.0680    1.5570 Cl  0  0  0  0  0  0  0  0  0  0  0  0
    1.6130   -0.2880   -1.0340 O   0  0  0  0  0  0  0  0  0  0  0  0
    2.7050    0.0120   -0.3200 N   0  0  0  0  0  0  0  0  0  0  0  0
    2.6170    1.1910    0.3220 F   0  0  0  0  0  0  0  0  0  0  0  0
    3.1800   -0.9820    0.4250 O   0  0  0  0  0  0  0  0  0  0  0  0
    4.4130   -1.4590    0.0380 C   0  0  0  0  0  0  0  0  0  0  0  0
    5.7440   -0.1960    0.0760 P   0  0  0  0  0  0  0  0  0  0  0  0
    5.6940    1.0010   -0.9170 O   0  0  0  0  0  0  0  0  0  0  0  0
  1  2  1  0
  3  2  1  1
  3  4  1  0
  3  6  1  0
  4  5  1  0
  6  7  1  0
  6  9  1  6
  7  8  2  0
  9 10  1  0
  9 11  1  0
 11 12  1  0
 12 13  1  0
 12 14  1  0
 14 15  1  0
 15 16  1  0
 16 17  2  0
M  END
