
     RDKit          3D

 37 40  0  0  0  0  0  0  0  0999 V2000
   -1.0920   -4.1860    1.3060 N   0  0  0  0  0  0  0  0  0  0  0  0
   -1.7620   -3.6810    0.5300 C   0  0  0  0  0  0  0  0  0  0  0  0
   -2.6150   -3.0290   -0.4430 C   0  0  0  0  0  0  0  0  0  0  0  0
   -2.6160   -1.7830   -0.7880 C   0  0  0  0  0  0  0  0  0  0  0  0
   -1.8560   -0.6400   -0.4070 N   0  0  0  0  0  0  0  0  0  0  0  0
   -0.8210   -0.5640    0.5190 C   0  0  0  0  0  0  0  0  0  0  0  0
   -0.3970   -1.5190    1.1710 O   0  0  0  0  0  0  0  0  0  0  0  0
   -0.1520    0.6970    0.7830 N   0  0  0  0  0  0  0  0  0  0  0  0
    0.9170    0.7810    1.7420 C   0  0  0  0  0  0  0  0  0  0  0  0
    2.0230   -0.1260    1.3190 C   0  0  0  0  0  0  0  0  0  0  0  0
    1.9930   -0.8370    0.2970 O   0  0  0  0  0  0  0  0  0  0  0  0
    3.1650   -0.1960    2.0980 O   0  0  0  0  0  0  0  0  0  0  0  0
    4.2570   -1.0350    1.7580 C   0  0  2  0  0  0  0  0  0  0  0  0
    4.5350   -2.0780    2.7650 C   0  0  0  0  0  0  0  0  0  0  0  0
    5.5460   -3.0250    2.4940 N   0  0  0  0  0  0  0  0  0  0  0  0
    3.8980   -2.1520    3.8570 O   0  0  0  0  0  0  0  0  0  0  0  0
    5.4850   -0.1790    1.5020 C   0  0  0  0  0  0  0  0  0  0  0  0
    6.6990   -0.4830    2.1240 C   0  0  0  0  0  0  0  0  0  0  0  0
    7.8110    0.8000    1.4980 S   0  0  0  0  0  0  0  0  0  0  0  0
    6.4120    1.5590    0.4680 C   0  0  0  0  0  0  0  0  0  0  0  0
    6.7810    2.7850   -0.3560 C   0  0  0  0  0  0  0  0  0  0  0  0
    7.9850    3.4030   -0.4380 C   0  0  0  0  0  0  0  0  0  0  0  0
    7.8140    4.4650   -1.3100 C   0  0  0  0  0  0  0  0  0  0  0  0
    6.5650    4.4390   -1.6980 O   0  0  0  0  0  0  0  0  0  0  0  0
    5.9400    3.4460   -1.1380 N   0  0  0  0  0  0  0  0  0  0  0  0
    5.5590    0.8740    0.7200 N   0  0  0  0  0  0  0  0  0  0  0  0
   -3.7660   -1.6070   -1.7770 C   0  0  2  0  0  0  0  0  0  0  0  0
   -4.7940   -0.9160   -1.0060 N   0  0  0  0  0  0  0  0  0  0  0  0
   -6.2060   -0.6100   -1.9730 S   0  0  0  0  0  0  0  0  0  0  0  0
   -6.9290   -1.9270   -2.3040 O   0  0  0  0  0  0  0  0  0  0  0  0
   -7.3000    0.4510   -0.9910 C   0  0  0  0  0  0  0  0  0  0  0  0
   -6.5140    1.7260   -0.7000 C   0  0  1  0  0  0  0  0  0  0  0  0
   -6.0710    2.5000   -1.9280 C   0  0  0  0  0  0  0  0  0  0  0  0
   -7.1360    3.0480   -0.9500 C   0  0  0  0  0  0  0  0  0  0  0  0
   -4.1760   -2.9140   -2.1100 N   0  0  0  0  0  0  0  0  0  0  0  0
   -3.5830   -3.8320   -1.2300 C   0  0  0  0  0  0  0  0  0  0  0  0
   -3.8270   -5.0550   -1.1390 O   0  0  0  0  0  0  0  0  0  0  0  0
  1  2  3  0
  2  3  1  0
  3  4  2  0
  3 36  1  0
  4  5  1  0
  4 27  1  0
  5  6  1  0
  6  7  2  0
  6  8  1  0
  8  9  1  0
  9 10  1  0
 10 11  2  0
 10 12  1  0
 13 12  1  1
 13 14  1  0
 13 17  1  0
 14 15  1  0
 14 16  2  0
 17 18  2  0
 17 26  1  0
 18 19  1  0
 19 20  1  0
 20 21  1  0
 20 26  2  0
 21 22  1  0
 21 25  2  0
 22 23  2  0
 23 24  1  0
 24 25  1  0
 27 28  1  1
 27 35  1  0
 28 29  1  0
 29 30  2  0
 29 31  1  1
 32 31  1  6
 32 33  1  0
 32 34  1  0
 33 34  1  0
 35 36  1  0
 36 37  2  0
M  END
