
     RDKit          3D

 38 40  0  0  0  0  0  0  0  0999 V2000
   -3.7360    4.2400    0.1010 C   0  0  0  0  0  0  0  0  0  0  0  0
   -4.2180    4.2870   -1.3680 C   0  0  0  0  0  0  0  0  0  0  0  0
   -4.7430    2.9490   -1.6420 N   0  0  0  0  0  0  0  0  0  0  0  0
   -3.7570    1.9200   -1.5870 C   0  0  0  0  0  0  0  0  0  0  0  0
   -2.5180    2.2420   -1.4820 O   0  0  0  0  0  0  0  0  0  0  0  0
   -4.0720    0.5460   -1.6100 N   0  0  0  0  0  0  0  0  0  0  0  0
   -2.9030   -0.4070   -1.3820 C   0  0  1  0  0  0  0  0  0  0  0  0
   -2.4040    0.1370    0.0160 C   0  0  0  0  0  0  0  0  0  0  0  0
   -1.1180   -0.5750    0.3040 C   0  0  0  0  0  0  0  0  0  0  0  0
   -0.8360   -1.6580   -0.1890 O   0  0  0  0  0  0  0  0  0  0  0  0
   -0.1630    0.0430    1.1930 N   0  0  0  0  0  0  0  0  0  0  0  0
    1.1020   -0.5330    1.5140 C   0  0  0  0  0  0  0  0  0  0  0  0
    1.3250   -1.2030    2.6930 C   0  0  0  0  0  0  0  0  0  0  0  0
    2.6120   -1.7230    2.9120 C   0  0  0  0  0  0  0  0  0  0  0  0
    3.6200   -1.5810    1.9990 C   0  0  0  0  0  0  0  0  0  0  0  0
    4.8860   -2.0810    2.2870 C   0  0  0  0  0  0  0  0  0  0  0  0
    5.8840   -1.9020    1.3780 C   0  0  0  0  0  0  0  0  0  0  0  0
    5.6800   -1.2370    0.1930 C   0  0  0  0  0  0  0  0  0  0  0  0
    4.4510   -0.7130   -0.1390 C   0  0  0  0  0  0  0  0  0  0  0  0
    4.1440   -0.0600   -1.4240 C   0  0  0  0  0  0  0  0  0  0  0  0
    5.0410    0.8650   -1.7990 O   0  0  0  0  0  0  0  0  0  0  0  0
    6.3450    0.7610   -1.6660 C   0  0  0  0  0  0  0  0  0  0  0  0
    7.1650    2.0540   -1.9880 C   0  0  1  0  0  0  0  0  0  0  0  0
    6.5830    3.0320   -1.1390 O   0  0  0  0  0  0  0  0  0  0  0  0
    8.5070    1.7500   -1.2860 C   0  0  0  0  0  0  0  0  0  0  0  0
    8.2200    1.2340    0.0030 O   0  0  0  0  0  0  0  0  0  0  0  0
    3.4200   -0.9130    0.7980 C   0  0  0  0  0  0  0  0  0  0  0  0
    2.1610   -0.4080    0.5980 C   0  0  0  0  0  0  0  0  0  0  0  0
   -3.5980   -1.6320   -1.0160 C   0  0  0  0  0  0  0  0  0  0  0  0
   -4.6830   -1.5510   -0.1210 C   0  0  0  0  0  0  0  0  0  0  0  0
   -5.5040   -2.5550    0.2330 C   0  0  0  0  0  0  0  0  0  0  0  0
   -6.5550   -2.4310    1.0670 O   0  0  0  0  0  0  0  0  0  0  0  0
   -7.0830   -1.3550    1.6990 C   0  0  0  0  0  0  0  0  0  0  0  0
   -6.2850   -0.5390    2.6660 C   0  0  0  0  0  0  0  0  0  0  0  0
   -5.2330   -3.8050   -0.3480 C   0  0  0  0  0  0  0  0  0  0  0  0
   -4.1810   -3.9600   -1.2390 C   0  0  0  0  0  0  0  0  0  0  0  0
   -3.3760   -2.8460   -1.5580 C   0  0  0  0  0  0  0  0  0  0  0  0
   -2.3880   -3.0800   -2.4360 F   0  0  0  0  0  0  0  0  0  0  0  0
  1  2  1  0
  2  3  1  0
  3  4  1  0
  4  5  2  0
  4  6  1  0
  6  7  1  0
  7  8  1  1
  7 29  1  0
  8  9  1  0
  9 10  2  0
  9 11  1  0
 11 12  1  0
 12 13  2  0
 12 28  1  0
 13 14  1  0
 14 15  2  0
 15 16  1  0
 15 27  1  0
 16 17  2  0
 17 18  1  0
 18 19  2  0
 19 20  1  0
 19 27  1  0
 20 21  1  0
 21 22  1  0
 22 23  1  0
 23 24  1  1
 23 25  1  0
 25 26  1  0
 27 28  2  0
 29 30  2  0
 29 37  1  0
 30 31  1  0
 31 32  1  0
 31 35  2  0
 32 33  1  0
 33 34  1  0
 35 36  1  0
 36 37  2  0
 37 38  1  0
M  END
