
     RDKit          3D

 38 43  0  0  0  0  0  0  0  0999 V2000
   -9.2690    2.1990   -0.1150 N   0  0  0  0  0  0  0  0  0  0  0  0
   -7.9660    1.8770    0.3320 C   0  0  0  0  0  0  0  0  0  0  0  0
   -7.3480    2.6080    1.2730 N   0  0  0  0  0  0  0  0  0  0  0  0
   -6.1010    2.2890    1.6890 C   0  0  0  0  0  0  0  0  0  0  0  0
   -5.4610    1.2170    1.1510 N   0  0  0  0  0  0  0  0  0  0  0  0
   -6.0430    0.4540    0.2050 C   0  0  0  0  0  0  0  0  0  0  0  0
   -7.3040    0.7980   -0.1990 C   0  0  0  0  0  0  0  0  0  0  0  0
   -7.6520   -0.1040   -1.1330 N   0  0  0  0  0  0  0  0  0  0  0  0
   -6.6210   -0.9750   -1.2900 C   0  0  0  0  0  0  0  0  0  0  0  0
   -5.6300   -0.6330   -0.4680 N   0  0  0  0  0  0  0  0  0  0  0  0
   -4.3530   -1.3320   -0.3480 C   0  0  2  0  0  0  0  0  0  0  0  0
   -3.4290   -0.5990    0.3740 O   0  0  0  0  0  0  0  0  0  0  0  0
   -2.1800   -0.7870   -0.1470 C   0  0  2  0  0  0  0  0  0  0  0  0
   -1.5370    0.5380   -0.4980 C   0  0  0  0  0  0  0  0  0  0  0  0
   -1.3530    1.6270    0.9350 S   0  0  0  0  0  0  0  0  0  0  0  0
    0.0370    0.8140    2.3290 S   0  0  0  0  0  0  0  0  0  0  0  0
    1.7220    1.3910    1.9580 C   0  0  0  0  0  0  0  0  0  0  0  0
    2.2010    0.8590    0.6520 C   0  0  1  0  0  0  0  0  0  0  0  0
    3.4890    1.2760    0.3280 O   0  0  0  0  0  0  0  0  0  0  0  0
    3.8880    0.4870   -0.7450 C   0  0  1  0  0  0  0  0  0  0  0  0
    5.2950    0.2320   -0.7800 N   0  0  0  0  0  0  0  0  0  0  0  0
    5.9110   -0.3590   -1.8220 C   0  0  0  0  0  0  0  0  0  0  0  0
    7.2270   -0.4690   -1.5790 N   0  0  0  0  0  0  0  0  0  0  0  0
    7.4720    0.0490   -0.3810 C   0  0  0  0  0  0  0  0  0  0  0  0
    8.6460    0.1900    0.3510 C   0  0  0  0  0  0  0  0  0  0  0  0
    9.8790   -0.2670   -0.1730 N   0  0  0  0  0  0  0  0  0  0  0  0
    8.5190    0.7770    1.5620 N   0  0  0  0  0  0  0  0  0  0  0  0
    7.3220    1.2020    2.0340 C   0  0  0  0  0  0  0  0  0  0  0  0
    6.1800    1.0650    1.3260 N   0  0  0  0  0  0  0  0  0  0  0  0
    6.2570    0.4900    0.1220 C   0  0  0  0  0  0  0  0  0  0  0  0
    3.1370   -0.8070   -0.6610 C   0  0  2  0  0  0  0  0  0  0  0  0
    2.1420   -0.8180   -1.6450 O   0  0  0  0  0  0  0  0  0  0  0  0
    2.3990   -0.6450    0.6680 C   0  0  2  0  0  0  0  0  0  0  0  0
    1.2160   -1.3440    0.7030 O   0  0  0  0  0  0  0  0  0  0  0  0
   -2.2840   -1.5930   -1.4060 C   0  0  1  0  0  0  0  0  0  0  0  0
   -2.0220   -2.9400   -1.1540 O   0  0  0  0  0  0  0  0  0  0  0  0
   -3.7680   -1.4030   -1.7420 C   0  0  1  0  0  0  0  0  0  0  0  0
   -4.2530   -2.4730   -2.4670 O   0  0  0  0  0  0  0  0  0  0  0  0
  1  2  1  0
  2  3  2  0
  2  7  1  0
  3  4  1  0
  4  5  2  0
  5  6  1  0
  6  7  2  0
  6 10  1  0
  7  8  1  0
  8  9  2  0
  9 10  1  0
 11 10  1  6
 11 12  1  0
 11 37  1  0
 12 13  1  0
 13 14  1  6
 13 35  1  0
 14 15  1  0
 15 16  1  0
 16 17  1  0
 18 17  1  1
 18 19  1  0
 18 33  1  0
 19 20  1  0
 20 21  1  1
 20 31  1  0
 21 22  1  0
 21 30  1  0
 22 23  2  0
 23 24  1  0
 24 25  2  0
 24 30  1  0
 25 26  1  0
 25 27  1  0
 27 28  2  0
 28 29  1  0
 29 30  2  0
 31 32  1  6
 31 33  1  0
 33 34  1  6
 35 36  1  1
 35 37  1  0
 37 38  1  6
M  END
