
     RDKit          3D

 38 41  0  0  0  0  0  0  0  0999 V2000
  -12.2190   -1.0060   -0.1870 C   0  0  0  0  0  0  0  0  0  0  0  0
  -10.7610   -0.6630    0.0990 C   0  0  2  0  0  0  0  0  0  0  0  0
  -10.7080    0.2660    1.2860 C   0  0  0  0  0  0  0  0  0  0  0  0
   -9.5340    1.2130    1.2240 C   0  0  0  0  0  0  0  0  0  0  0  0
   -8.4590    0.7300    0.3730 C   0  0  0  0  0  0  0  0  0  0  0  0
   -6.6480    0.7570    0.4470 S   0  0  0  0  0  0  0  0  0  0  0  0
   -6.4380   -0.1380   -1.1310 C   0  0  0  0  0  0  0  0  0  0  0  0
   -5.0870   -0.4230   -1.6130 N   0  0  0  0  0  0  0  0  0  0  0  0
   -3.9390   -0.0310   -0.9040 C   0  0  0  0  0  0  0  0  0  0  0  0
   -4.1160    0.5820    0.1700 O   0  0  0  0  0  0  0  0  0  0  0  0
   -2.6350   -0.2930   -1.3420 N   0  0  0  0  0  0  0  0  0  0  0  0
   -1.4240    0.0560   -0.7100 C   0  0  0  0  0  0  0  0  0  0  0  0
   -1.2870    0.7330    0.4740 C   0  0  0  0  0  0  0  0  0  0  0  0
   -0.0830    1.0140    0.9890 N   0  0  0  0  0  0  0  0  0  0  0  0
    1.0970    0.6600    0.3930 C   0  0  0  0  0  0  0  0  0  0  0  0
    2.3120    1.0160    1.0390 N   0  0  0  0  0  0  0  0  0  0  0  0
    3.6200    0.7450    0.5930 C   0  0  0  0  0  0  0  0  0  0  0  0
    3.7900    0.1280   -0.4830 O   0  0  0  0  0  0  0  0  0  0  0  0
    4.7620    1.1760    1.3690 N   0  0  0  0  0  0  0  0  0  0  0  0
    6.0450    0.9010    0.9130 N   0  0  0  0  0  0  0  0  0  0  0  0
    6.8520   -0.0790    1.5510 C   0  0  0  0  0  0  0  0  0  0  0  0
    6.3770   -0.6900    2.5380 O   0  0  0  0  0  0  0  0  0  0  0  0
    8.2330   -0.4290    1.1180 C   0  0  1  0  0  0  0  0  0  0  0  0
    8.2800   -1.8780    0.7980 C   0  0  0  0  0  0  0  0  0  0  0  0
    9.1910   -1.9590   -0.3990 C   0  0  0  0  0  0  0  0  0  0  0  0
    9.3460   -0.5400   -0.8130 C   0  0  2  0  0  0  0  0  0  0  0  0
   10.8050   -0.1000   -0.8320 C   0  0  0  0  0  0  0  0  0  0  0  0
   10.8680    1.2040   -1.2730 O   0  0  0  0  0  0  0  0  0  0  0  0
   12.4580    1.7900   -1.3310 S   0  0  0  0  0  0  0  0  0  0  0  0
   13.1280    1.7600    0.0370 O   0  0  0  0  0  0  0  0  0  0  0  0
   12.4770    3.3750   -1.9000 F   0  0  0  0  0  0  0  0  0  0  0  0
    8.6670    0.2860    0.0340 O   0  0  0  0  0  0  0  0  0  0  0  0
    0.9740    0.0030   -0.7560 N   0  0  0  0  0  0  0  0  0  0  0  0
   -0.2180   -0.3060   -1.3190 C   0  0  0  0  0  0  0  0  0  0  0  0
   -0.2610   -0.9270   -2.4030 O   0  0  0  0  0  0  0  0  0  0  0  0
   -7.5620   -0.3120   -1.4550 N   0  0  0  0  0  0  0  0  0  0  0  0
   -8.6500    0.0380   -0.8510 C   0  0  0  0  0  0  0  0  0  0  0  0
  -10.1360   -0.1160   -1.1450 C   0  0  0  0  0  0  0  0  0  0  0  0
  2  1  1  6
  2  3  1  0
  2 38  1  0
  3  4  1  0
  4  5  1  0
  5  6  1  0
  5 37  2  0
  6  7  1  0
  7  8  1  0
  7 36  2  0
  8  9  1  0
  9 10  2  0
  9 11  1  0
 11 12  1  0
 12 13  2  0
 12 34  1  0
 13 14  1  0
 14 15  2  0
 15 16  1  0
 15 33  1  0
 16 17  1  0
 17 18  2  0
 17 19  1  0
 19 20  1  0
 20 21  1  0
 21 22  2  0
 23 21  1  6
 23 24  1  0
 23 32  1  0
 24 25  1  0
 25 26  1  0
 26 27  1  1
 26 32  1  0
 27 28  1  0
 28 29  1  0
 29 30  2  0
 29 31  1  1
 33 34  1  0
 34 35  2  0
 36 37  1  0
 37 38  1  0
M  END
