
     RDKit          3D

 38 41  0  0  0  0  0  0  0  0999 V2000
   -6.8970    1.9780    3.0420 N   0  0  0  0  0  0  0  0  0  0  0  0
   -7.2630    0.3960    2.5480 S   0  0  1  0  0  0  0  0  0  0  0  0
   -6.2960   -0.5570    3.2240 O   0  0  0  0  0  0  0  0  0  0  0  0
   -8.6340    0.0320    3.0310 O   0  0  0  0  0  0  0  0  0  0  0  0
   -7.1370    0.1680    0.7750 C   0  0  1  0  0  0  0  0  0  0  0  0
   -7.9920    1.1470    0.0450 C   0  0  0  0  0  0  0  0  0  0  0  0
   -7.9360    0.9410   -1.4490 C   0  0  0  0  0  0  0  0  0  0  0  0
   -8.3960   -0.3480   -1.7750 F   0  0  0  0  0  0  0  0  0  0  0  0
   -5.7030    0.4050    0.3790 C   0  0  0  0  0  0  0  0  0  0  0  0
   -5.1730    1.4670   -0.2060 N   0  0  0  0  0  0  0  0  0  0  0  0
   -3.8500    1.2750   -0.3480 N   0  0  0  0  0  0  0  0  0  0  0  0
   -3.5070    0.0800    0.1460 C   0  0  0  0  0  0  0  0  0  0  0  0
   -2.1720   -0.5200    0.1910 C   0  0  0  0  0  0  0  0  0  0  0  0
   -1.9820   -1.6550    0.6840 O   0  0  0  0  0  0  0  0  0  0  0  0
   -1.0480    0.1750   -0.3290 N   0  0  0  0  0  0  0  0  0  0  0  0
    0.2900   -0.3730   -0.3110 C   0  0  2  0  0  0  0  0  0  0  0  0
    1.2820    0.4420    0.4400 C   0  0  0  0  0  0  0  0  0  0  0  0
    2.2030    0.9940   -0.6420 C   0  0  0  0  0  0  0  0  0  0  0  0
    2.2320   -0.1380   -1.6400 C   0  0  1  0  0  0  0  0  0  0  0  0
    0.8120   -0.6710   -1.6830 C   0  0  0  0  0  0  0  0  0  0  0  0
    2.6520    0.2310   -2.9500 N   0  0  0  0  0  0  0  0  0  0  0  0
    3.9090   -0.3810   -3.2040 C   0  0  0  0  0  0  0  0  0  0  0  0
    4.6280   -0.1320   -4.2150 O   0  0  0  0  0  0  0  0  0  0  0  0
    4.1980   -1.2910   -2.1550 N   0  0  0  0  0  0  0  0  0  0  0  0
    5.3960   -2.1440   -2.0190 C   0  0  0  0  0  0  0  0  0  0  0  0
    6.4200   -1.3640   -1.2760 C   0  0  0  0  0  0  0  0  0  0  0  0
    7.5520   -1.8300   -0.9870 O   0  0  0  0  0  0  0  0  0  0  0  0
    6.1650   -0.0270   -0.8480 N   0  0  0  0  0  0  0  0  0  0  0  0
    7.1220    0.7540   -0.1300 C   0  0  0  0  0  0  0  0  0  0  0  0
    7.4970    0.1440    1.1820 C   0  0  0  0  0  0  0  0  0  0  0  0
    6.9690    0.3500    2.3580 N   0  0  0  0  0  0  0  0  0  0  0  0
    7.3790   -0.2330    3.4200 C   0  0  0  0  0  0  0  0  0  0  0  0
    8.4250   -1.1310    3.3700 C   0  0  0  0  0  0  0  0  0  0  0  0
    8.7420   -1.0130    1.5330 S   0  0  0  0  0  0  0  0  0  0  0  0
    3.1050   -1.2350   -1.2480 C   0  0  0  0  0  0  0  0  0  0  0  0
    2.9740   -2.0520   -0.2660 O   0  0  0  0  0  0  0  0  0  0  0  0
   -4.6720   -0.4920    0.6150 C   0  0  0  0  0  0  0  0  0  0  0  0
   -4.8310   -1.7120    1.2100 O   0  0  0  0  0  0  0  0  0  0  0  0
  2  1  1  6
  2  3  2  0
  2  4  2  0
  2  5  1  0
  5  6  1  6
  5  9  1  0
  6  7  1  0
  7  8  1  0
  9 10  1  0
  9 37  2  0
 10 11  1  0
 11 12  2  0
 12 13  1  0
 12 37  1  0
 13 14  2  0
 13 15  1  0
 16 15  1  6
 16 17  1  0
 16 20  1  0
 17 18  1  0
 19 18  1  1
 19 20  1  0
 19 21  1  0
 19 35  1  0
 21 22  1  0
 22 23  2  0
 22 24  1  0
 24 25  1  0
 24 35  1  0
 25 26  1  0
 26 27  2  0
 26 28  1  0
 28 29  1  0
 29 30  1  0
 30 31  2  0
 30 34  1  0
 31 32  1  0
 32 33  2  0
 33 34  1  0
 35 36  2  0
 37 38  1  0
M  END
