
     RDKit          3D

 38 40  0  0  0  0  0  0  0  0999 V2000
    9.7390    2.1820    0.2650 C   0  0  0  0  0  0  0  0  0  0  0  0
    9.5570    0.9260   -0.5820 C   0  0  1  0  0  0  0  0  0  0  0  0
   10.7780    0.0360   -0.4780 C   0  0  0  0  0  0  0  0  0  0  0  0
   10.2700   -1.1800    0.2530 C   0  0  1  0  0  0  0  0  0  0  0  0
   10.2470   -0.9280    1.5920 F   0  0  0  0  0  0  0  0  0  0  0  0
    8.8260   -1.2690   -0.2310 C   0  0  0  0  0  0  0  0  0  0  0  0
    8.4360    0.1260   -0.1410 N   0  0  0  0  0  0  0  0  0  0  0  0
    7.1990    0.6280    0.2930 C   0  0  0  0  0  0  0  0  0  0  0  0
    7.0010    1.8620    0.3270 O   0  0  0  0  0  0  0  0  0  0  0  0
    6.1260   -0.2410    0.7050 N   0  0  0  0  0  0  0  0  0  0  0  0
    4.9350    0.3600    1.1160 N   0  0  0  0  0  0  0  0  0  0  0  0
    3.6960    0.2040    0.3660 C   0  0  0  0  0  0  0  0  0  0  0  0
    3.8260   -0.5200   -0.6570 O   0  0  0  0  0  0  0  0  0  0  0  0
    2.4600    0.8610    0.8100 C   0  0  0  0  0  0  0  0  0  0  0  0
    1.3520   -0.0770    1.7990 S   0  0  0  0  0  0  0  0  0  0  0  0
    0.1980    0.7980    2.2230 O   0  0  0  0  0  0  0  0  0  0  0  0
    0.7520   -1.5260    0.9350 C   0  0  0  0  0  0  0  0  0  0  0  0
    0.0580   -1.0210   -0.2940 C   0  0  0  0  0  0  0  0  0  0  0  0
    0.6470   -1.0880   -1.5510 C   0  0  0  0  0  0  0  0  0  0  0  0
   -0.0050   -0.5520   -2.6370 C   0  0  0  0  0  0  0  0  0  0  0  0
   -1.2290    0.0490   -2.4910 C   0  0  0  0  0  0  0  0  0  0  0  0
   -1.8100    0.1090   -1.2150 C   0  0  0  0  0  0  0  0  0  0  0  0
   -3.0630    0.7490   -1.1200 N   0  0  0  0  0  0  0  0  0  0  0  0
   -3.7130    0.8810    0.1610 C   0  0  0  0  0  0  0  0  0  0  0  0
   -3.1920    0.4310    1.1950 O   0  0  0  0  0  0  0  0  0  0  0  0
   -4.9630    1.5350    0.2430 N   0  0  0  0  0  0  0  0  0  0  0  0
   -5.6210    1.6920    1.4520 N   0  0  0  0  0  0  0  0  0  0  0  0
   -6.6550    0.3290    1.7310 S   0  0  1  0  0  0  0  0  0  0  0  0
   -5.8290   -0.7440    2.3640 O   0  0  0  0  0  0  0  0  0  0  0  0
   -7.7030    0.7870    2.7020 O   0  0  0  0  0  0  0  0  0  0  0  0
   -7.3230   -0.1150    0.1630 C   0  0  0  0  0  0  0  0  0  0  0  0
   -8.2830   -1.2640    0.1900 C   0  0  1  0  0  0  0  0  0  0  0  0
   -9.5070   -0.9600    1.0340 C   0  0  0  0  0  0  0  0  0  0  0  0
  -10.1250    0.3080    0.4790 C   0  0  0  0  0  0  0  0  0  0  0  0
  -10.4110    0.1100   -0.8560 O   0  0  0  0  0  0  0  0  0  0  0  0
   -9.3560   -0.1980   -1.6240 N   0  0  0  0  0  0  0  0  0  0  0  0
   -8.7710   -1.4890   -1.2180 C   0  0  0  0  0  0  0  0  0  0  0  0
   -1.1380   -0.4270   -0.1890 N   0  0  0  0  0  0  0  0  0  0  0  0
  2  1  1  1
  2  3  1  0
  2  7  1  0
  3  4  1  0
  4  5  1  1
  4  6  1  0
  6  7  1  0
  7  8  1  0
  8  9  2  0
  8 10  1  0
 10 11  1  0
 11 12  1  0
 12 13  2  0
 12 14  1  0
 15 14  1  6
 15 16  2  0
 15 17  1  0
 17 18  1  0
 18 19  2  0
 18 38  1  0
 19 20  1  0
 20 21  2  0
 21 22  1  0
 22 23  1  0
 22 38  2  0
 23 24  1  0
 24 25  2  0
 24 26  1  0
 26 27  1  0
 27 28  1  0
 28 29  2  0
 28 30  2  0
 28 31  1  6
 32 31  1  6
 32 33  1  0
 32 37  1  0
 33 34  1  0
 34 35  1  0
 35 36  1  0
 36 37  1  0
M  END
