
     RDKit          3D

 38 40  0  0  0  0  0  0  0  0999 V2000
    9.0820    3.0090    2.3890 C   0  0  0  0  0  0  0  0  0  0  0  0
    7.7780    2.8250    1.7120 C   0  0  0  0  0  0  0  0  0  0  0  0
    7.0200    3.8900    1.2770 C   0  0  0  0  0  0  0  0  0  0  0  0
    5.8190    3.6580    0.6570 C   0  0  0  0  0  0  0  0  0  0  0  0
    5.3730    2.3580    0.4680 C   0  0  0  0  0  0  0  0  0  0  0  0
    6.1180    1.2710    0.8970 C   0  0  0  0  0  0  0  0  0  0  0  0
    5.6550   -0.1080    0.7030 C   0  0  0  0  0  0  0  0  0  0  0  0
    4.4080   -0.0780    0.0430 O   0  0  0  0  0  0  0  0  0  0  0  0
    3.7700   -1.2740   -0.2520 C   0  0  0  0  0  0  0  0  0  0  0  0
    4.3290   -2.4780    0.0870 C   0  0  0  0  0  0  0  0  0  0  0  0
    3.6930   -3.6580   -0.2060 C   0  0  0  0  0  0  0  0  0  0  0  0
    4.3200   -4.9720    0.1720 C   0  0  0  0  0  0  0  0  0  0  0  0
    2.4830   -3.6680   -0.8450 C   0  0  0  0  0  0  0  0  0  0  0  0
    1.9140   -2.4570   -1.1900 C   0  0  0  0  0  0  0  0  0  0  0  0
    2.5440   -1.2770   -0.8990 C   0  0  0  0  0  0  0  0  0  0  0  0
    2.0170   -0.0350   -1.2230 O   0  0  0  0  0  0  0  0  0  0  0  0
    0.7950    0.0470   -1.8720 C   0  0  0  0  0  0  0  0  0  0  0  0
    0.7360    0.0500   -3.2500 C   0  0  0  0  0  0  0  0  0  0  0  0
   -0.4580    0.1300   -3.9290 C   0  0  0  0  0  0  0  0  0  0  0  0
   -1.6680    0.2130   -3.2360 C   0  0  0  0  0  0  0  0  0  0  0  0
   -1.6120    0.2100   -1.8730 C   0  0  0  0  0  0  0  0  0  0  0  0
   -2.8280    0.2970   -1.0600 C   0  0  0  0  0  0  0  0  0  0  0  0
   -2.7680    0.1730    0.2010 O   0  0  0  0  0  0  0  0  0  0  0  0
   -4.0730    0.5170   -1.6530 N   0  0  0  0  0  0  0  0  0  0  0  0
   -5.3240    0.6030   -0.8780 C   0  0  0  0  0  0  0  0  0  0  0  0
   -5.5790   -0.6770   -0.1820 C   0  0  2  0  0  0  0  0  0  0  0  0
   -5.6540   -1.7080   -1.1800 O   0  0  0  0  0  0  0  0  0  0  0  0
   -6.7990   -0.7870    0.6630 C   0  0  1  0  0  0  0  0  0  0  0  0
   -6.9390    0.1560    1.7930 C   0  0  0  0  0  0  0  0  0  0  0  0
   -7.0230    1.5820    1.4830 C   0  0  0  0  0  0  0  0  0  0  0  0
   -6.4150    2.5830    2.2320 O   0  0  0  0  0  0  0  0  0  0  0  0
   -7.7080    1.9550    0.4530 N   0  0  0  0  0  0  0  0  0  0  0  0
   -7.8410    3.2280    0.0950 F   0  0  0  0  0  0  0  0  0  0  0  0
   -8.0170   -0.8690   -0.1850 C   0  0  0  0  0  0  0  0  0  0  0  0
   -9.3120   -0.9820    0.3610 N   0  0  0  0  0  0  0  0  0  0  0  0
   -7.8880   -0.8380   -1.4240 O   0  0  0  0  0  0  0  0  0  0  0  0
   -0.4030    0.1290   -1.1970 C   0  0  0  0  0  0  0  0  0  0  0  0
    7.3120    1.5400    1.5130 C   0  0  0  0  0  0  0  0  0  0  0  0
  1  2  1  0
  2  3  2  0
  2 38  1  0
  3  4  1  0
  4  5  2  0
  5  6  1  0
  6  7  1  0
  6 38  2  0
  7  8  1  0
  8  9  1  0
  9 10  2  0
  9 15  1  0
 10 11  1  0
 11 12  1  0
 11 13  2  0
 13 14  1  0
 14 15  2  0
 15 16  1  0
 16 17  1  0
 17 18  2  0
 17 37  1  0
 18 19  1  0
 19 20  2  0
 20 21  1  0
 21 22  1  0
 21 37  2  0
 22 23  2  0
 22 24  1  0
 24 25  1  0
 25 26  1  0
 26 27  1  6
 26 28  1  0
 28 29  1  1
 28 34  1  0
 29 30  1  0
 30 31  1  0
 30 32  2  3
 32 33  1  0
 34 35  1  0
 34 36  2  0
M  END
