
     RDKit          3D

 37 40  0  0  0  0  0  0  0  0999 V2000
   10.6860   -0.0170   -1.3560 C   0  0  0  0  0  0  0  0  0  0  0  0
   10.4790    1.2160   -0.4930 C   0  0  1  0  0  0  0  0  0  0  0  0
   10.2530    2.6770   -1.5310 S   0  0  0  0  0  0  0  0  0  0  0  0
    9.2940    1.0310    0.4360 C   0  0  0  0  0  0  0  0  0  0  0  0
    8.0730    0.7990   -0.3270 N   0  0  0  0  0  0  0  0  0  0  0  0
    6.8530    0.6040    0.4280 C   0  0  0  0  0  0  0  0  0  0  0  0
    6.8530    0.6340    1.6670 O   0  0  0  0  0  0  0  0  0  0  0  0
    5.6380    0.3750   -0.2590 N   0  0  0  0  0  0  0  0  0  0  0  0
    4.3680    0.1700    0.2910 C   0  0  0  0  0  0  0  0  0  0  0  0
    4.0570    0.2380    1.6230 C   0  0  0  0  0  0  0  0  0  0  0  0
    2.7490    0.0080    2.0810 C   0  0  0  0  0  0  0  0  0  0  0  0
    1.7420   -0.2940    1.1910 C   0  0  0  0  0  0  0  0  0  0  0  0
    0.4410   -0.5280    1.5940 C   0  0  0  0  0  0  0  0  0  0  0  0
   -0.5800   -0.8330    0.7060 C   0  0  0  0  0  0  0  0  0  0  0  0
   -1.9450   -1.0760    1.1540 C   0  0  0  0  0  0  0  0  0  0  0  0
   -2.9700   -1.3740    0.3390 N   0  0  0  0  0  0  0  0  0  0  0  0
   -4.1010   -1.5370    1.0890 C   0  0  0  0  0  0  0  0  0  0  0  0
   -5.4230   -1.8750    0.5010 C   0  0  2  0  0  0  0  0  0  0  0  0
   -5.3390   -2.9050   -0.4640 O   0  0  0  0  0  0  0  0  0  0  0  0
   -5.9870   -2.5050   -1.6430 C   0  0  0  0  0  0  0  0  0  0  0  0
   -6.1520   -3.3160   -2.5980 O   0  0  0  0  0  0  0  0  0  0  0  0
   -6.3720   -1.1470   -1.5350 N   0  0  0  0  0  0  0  0  0  0  0  0
   -7.0500   -0.3970   -2.5550 C   0  0  0  0  0  0  0  0  0  0  0  0
   -5.9690   -0.6760   -0.2550 C   0  0  1  0  0  0  0  0  0  0  0  0
   -7.0930   -0.0240    0.5210 C   0  0  0  0  0  0  0  0  0  0  0  0
   -7.6360    1.1160   -0.1630 N   0  0  0  0  0  0  0  0  0  0  0  0
   -8.9030    1.8070    0.7700 S   0  0  1  0  0  0  0  0  0  0  0  0
  -10.4030    1.0900    0.3430 N   0  0  0  0  0  0  0  0  0  0  0  0
   -8.6790    1.5900    2.2450 O   0  0  0  0  0  0  0  0  0  0  0  0
   -8.9140    3.2900    0.5250 O   0  0  0  0  0  0  0  0  0  0  0  0
   -3.7230   -1.3300    2.3450 N   0  0  0  0  0  0  0  0  0  0  0  0
   -2.4380   -1.0570    2.3640 O   0  0  0  0  0  0  0  0  0  0  0  0
   -0.2250   -0.8920   -0.6250 C   0  0  0  0  0  0  0  0  0  0  0  0
   -1.1070   -1.1660   -1.5040 O   0  0  0  0  0  0  0  0  0  0  0  0
    1.0370   -0.6660   -1.0260 N   0  0  0  0  0  0  0  0  0  0  0  0
    2.0300   -0.3690   -0.1640 C   0  0  0  0  0  0  0  0  0  0  0  0
    3.3190   -0.1390   -0.5740 C   0  0  0  0  0  0  0  0  0  0  0  0
  2  1  1  6
  2  3  1  0
  2  4  1  0
  4  5  1  0
  5  6  1  0
  6  7  2  0
  6  8  1  0
  8  9  1  0
  9 10  2  0
  9 37  1  0
 10 11  1  0
 11 12  2  0
 12 13  1  0
 12 36  1  0
 13 14  2  0
 14 15  1  0
 14 33  1  0
 15 16  2  0
 15 32  1  0
 16 17  1  0
 18 17  1  6
 17 31  2  0
 18 19  1  0
 18 24  1  0
 19 20  1  0
 20 21  2  0
 20 22  1  0
 22 23  1  0
 22 24  1  0
 24 25  1  1
 25 26  1  0
 26 27  1  0
 27 28  1  6
 27 29  2  0
 27 30  2  0
 31 32  1  0
 33 34  2  0
 33 35  1  0
 35 36  1  0
 36 37  2  0
M  END
