
     RDKit          3D

 37 41  0  0  0  0  0  0  0  0999 V2000
    7.8370   -1.6620    2.0920 O   0  0  0  0  0  0  0  0  0  0  0  0
    7.3910   -0.5070    1.8720 C   0  0  0  0  0  0  0  0  0  0  0  0
    7.6490    0.5290    2.6670 N   0  0  0  0  0  0  0  0  0  0  0  0
    7.1610    1.7500    2.4080 C   0  0  0  0  0  0  0  0  0  0  0  0
    7.5070    3.0000    3.4230 S   0  0  0  0  0  0  0  0  0  0  0  0
    6.3920    1.9710    1.3330 N   0  0  0  0  0  0  0  0  0  0  0  0
    6.1060    0.9470    0.4990 C   0  0  0  0  0  0  0  0  0  0  0  0
    6.6010   -0.3040    0.7570 C   0  0  0  0  0  0  0  0  0  0  0  0
    6.2720   -1.4070   -0.1740 C   0  0  0  0  0  0  0  0  0  0  0  0
    4.9070   -1.2230   -0.6230 N   0  0  0  0  0  0  0  0  0  0  0  0
    4.4010    0.0090   -0.8740 C   0  0  0  0  0  0  0  0  0  0  0  0
    3.1360    0.1390   -1.2880 N   0  0  0  0  0  0  0  0  0  0  0  0
    2.3140   -0.8920   -1.4740 C   0  0  0  0  0  0  0  0  0  0  0  0
    0.9620   -0.7440   -1.9160 N   0  0  0  0  0  0  0  0  0  0  0  0
    0.3760    0.5480   -2.1950 C   0  0  0  0  0  0  0  0  0  0  0  0
    0.3530    1.4420   -0.9770 C   0  0  1  0  0  0  0  0  0  0  0  0
   -0.2340    2.6430   -1.3800 O   0  0  0  0  0  0  0  0  0  0  0  0
   -0.4640    0.7290    0.0810 C   0  0  0  0  0  0  0  0  0  0  0  0
   -0.6280    1.5300    1.2780 N   0  0  0  0  0  0  0  0  0  0  0  0
   -1.5690    0.6060    2.3930 S   0  0  1  0  0  0  0  0  0  0  0  0
   -1.2040   -0.8450    2.1710 O   0  0  0  0  0  0  0  0  0  0  0  0
   -1.0660    0.9530    3.7750 O   0  0  0  0  0  0  0  0  0  0  0  0
   -3.2490    0.8710    2.2350 N   0  0  0  0  0  0  0  0  0  0  0  0
   -3.7930   -0.0810    1.2950 C   0  0  1  0  0  0  0  0  0  0  0  0
   -4.8500   -0.9650    1.9400 C   0  0  0  0  0  0  0  0  0  0  0  0
   -5.0640   -2.1260    0.9700 C   0  0  0  0  0  0  0  0  0  0  0  0
   -4.7460   -1.7610   -0.3260 O   0  0  0  0  0  0  0  0  0  0  0  0
   -5.1920   -0.4890   -0.6550 C   0  0  1  0  0  0  0  0  0  0  0  0
   -4.8880   -0.2720   -2.1220 C   0  0  0  0  0  0  0  0  0  0  0  0
   -6.1930   -0.7330   -2.7480 C   0  0  0  0  0  0  0  0  0  0  0  0
   -7.1950   -0.3610   -1.8630 O   0  0  0  0  0  0  0  0  0  0  0  0
   -6.6720   -0.3490   -0.6000 C   0  0  0  0  0  0  0  0  0  0  0  0
   -4.4700    0.5990    0.1230 C   0  0  0  0  0  0  0  0  0  0  0  0
    2.8220   -2.1230   -1.2220 N   0  0  0  0  0  0  0  0  0  0  0  0
    4.0920   -2.2700   -0.8060 C   0  0  0  0  0  0  0  0  0  0  0  0
    4.5480   -3.4300   -0.5750 O   0  0  0  0  0  0  0  0  0  0  0  0
    5.2460    1.2170   -0.6930 C   0  0  0  0  0  0  0  0  0  0  0  0
  1  2  2  0
  2  3  1  0
  2  8  1  0
  3  4  1  0
  4  5  2  0
  4  6  1  0
  6  7  1  0
  7  8  2  0
  7 37  1  0
  8  9  1  0
  9 10  1  0
 10 11  1  0
 10 35  1  0
 11 12  2  0
 11 37  1  0
 12 13  1  0
 13 14  1  0
 13 34  2  0
 14 15  1  0
 15 16  1  0
 16 17  1  6
 16 18  1  0
 18 19  1  0
 20 19  1  6
 20 21  2  0
 20 22  2  0
 20 23  1  0
 24 23  1  1
 24 25  1  0
 24 33  1  0
 25 26  1  0
 26 27  1  0
 27 28  1  0
 28 29  1  6
 28 32  1  0
 28 33  1  0
 29 30  1  0
 30 31  1  0
 31 32  1  0
 34 35  1  0
 35 36  2  0
M  END
