
     RDKit          3D

 35 38  0  0  0  0  0  0  0  0999 V2000
    8.7620    1.9000    0.6560 N   0  0  0  0  0  0  0  0  0  0  0  0
    8.6980    0.5050    0.5730 C   0  0  0  0  0  0  0  0  0  0  0  0
    9.7530   -0.1410    0.2970 O   0  0  0  0  0  0  0  0  0  0  0  0
    7.4750   -0.2120    0.7880 N   0  0  0  0  0  0  0  0  0  0  0  0
    7.4760   -1.6090    0.6500 C   0  0  0  0  0  0  0  0  0  0  0  0
    8.5890   -2.1970    0.3470 O   0  0  0  0  0  0  0  0  0  0  0  0
    6.3240   -2.4930    0.8120 C   0  0  0  0  0  0  0  0  0  0  0  0
    5.3270   -2.6050   -0.6790 S   0  0  0  0  0  0  0  0  0  0  0  0
    6.1910   -3.0670   -1.8610 O   0  0  0  0  0  0  0  0  0  0  0  0
    4.6520   -0.9510   -1.0200 C   0  0  0  0  0  0  0  0  0  0  0  0
    3.7770   -0.6350    0.1220 C   0  0  0  0  0  0  0  0  0  0  0  0
    4.2440   -0.4040    1.2950 O   0  0  0  0  0  0  0  0  0  0  0  0
    2.3790   -0.5720   -0.0090 N   0  0  0  0  0  0  0  0  0  0  0  0
    1.5630   -0.3120    1.2050 C   0  0  0  0  0  0  0  0  0  0  0  0
    0.1620   -0.0350    0.7230 C   0  0  0  0  0  0  0  0  0  0  0  0
   -0.9310   -0.4390    1.2960 C   0  0  0  0  0  0  0  0  0  0  0  0
   -2.2970   -0.2240    0.8900 C   0  0  0  0  0  0  0  0  0  0  0  0
   -2.5790   -0.3990   -0.4700 C   0  0  0  0  0  0  0  0  0  0  0  0
   -3.8410   -0.2350   -1.0000 C   0  0  0  0  0  0  0  0  0  0  0  0
   -4.8800    0.1130   -0.1800 C   0  0  0  0  0  0  0  0  0  0  0  0
   -4.6340    0.2900    1.1580 C   0  0  0  0  0  0  0  0  0  0  0  0
   -3.3500    0.1230    1.6860 C   0  0  0  0  0  0  0  0  0  0  0  0
   -5.7390    0.6380    2.0750 C   0  0  0  0  0  0  0  0  0  0  0  0
   -6.9900    1.0570    1.3510 C   0  0  0  0  0  0  0  0  0  0  0  0
   -7.2610    0.0210    0.2550 C   0  0  1  0  0  0  0  0  0  0  0  0
   -8.6040    0.1420   -0.2680 N   0  0  0  0  0  0  0  0  0  0  0  0
   -6.2250    0.2890   -0.8140 C   0  0  0  0  0  0  0  0  0  0  0  0
    0.0860    0.8060   -0.5010 C   0  0  0  0  0  0  0  0  0  0  0  0
    0.8630    0.4690   -1.5210 C   0  0  0  0  0  0  0  0  0  0  0  0
    1.7170   -0.7510   -1.2600 C   0  0  0  0  0  0  0  0  0  0  0  0
    0.6230    1.3940   -2.5870 C   0  0  0  0  0  0  0  0  0  0  0  0
    1.2190    1.3410   -3.7170 O   0  0  0  0  0  0  0  0  0  0  0  0
   -0.3570    2.3440   -2.1780 N   0  0  0  0  0  0  0  0  0  0  0  0
   -0.6990    1.9680   -0.8460 C   0  0  0  0  0  0  0  0  0  0  0  0
   -1.5390    2.5290   -0.0640 O   0  0  0  0  0  0  0  0  0  0  0  0
  1  2  1  0
  2  3  2  0
  2  4  1  0
  4  5  1  0
  5  6  2  0
  5  7  1  0
  8  7  1  1
  8  9  2  0
  8 10  1  0
 10 11  1  0
 11 12  2  0
 11 13  1  0
 13 14  1  0
 13 30  1  0
 14 15  1  0
 15 16  2  3
 15 28  1  0
 16 17  1  0
 17 18  2  0
 17 22  1  0
 18 19  1  0
 19 20  2  0
 20 21  1  0
 20 27  1  0
 21 22  2  0
 21 23  1  0
 23 24  1  0
 24 25  1  0
 25 26  1  6
 25 27  1  0
 28 29  2  0
 28 34  1  0
 29 30  1  0
 29 31  1  0
 31 32  2  0
 31 33  1  0
 33 34  1  0
 34 35  2  0
M  CHG  1  26   1
M  END
