
     RDKit          3D

 34 36  0  0  0  0  0  0  0  0999 V2000
    8.0460    4.5740    1.9080 C   0  0  0  0  0  0  0  0  0  0  0  0
    6.9810    3.5990    1.4630 C   0  0  0  0  0  0  0  0  0  0  0  0
    7.6330    2.2450    1.2820 C   0  0  0  0  0  0  0  0  0  0  0  0
    6.6560    1.2660    0.8550 N   0  0  0  0  0  0  0  0  0  0  0  0
    7.0810   -0.0700    0.6320 C   0  0  0  0  0  0  0  0  0  0  0  0
    8.2970   -0.3330    0.8190 O   0  0  0  0  0  0  0  0  0  0  0  0
    6.1480   -1.1170    0.1970 C   0  0  0  0  0  0  0  0  0  0  0  0
    6.3830   -2.4300   -0.0600 C   0  0  0  0  0  0  0  0  0  0  0  0
    5.1520   -2.9740   -0.4380 C   0  0  0  0  0  0  0  0  0  0  0  0
    4.2330   -1.9460   -0.3870 C   0  0  0  0  0  0  0  0  0  0  0  0
    2.8170   -2.0110   -0.6910 N   0  0  0  0  0  0  0  0  0  0  0  0
    2.0310   -1.3030    0.0260 C   0  0  0  0  0  0  0  0  0  0  0  0
    0.5850   -1.2180   -0.1050 C   0  0  0  0  0  0  0  0  0  0  0  0
   -0.0330   -0.4240    0.7390 C   0  0  0  0  0  0  0  0  0  0  0  0
   -1.4470   -0.2030    0.7610 C   0  0  0  0  0  0  0  0  0  0  0  0
   -2.1160   -0.5460    1.9410 C   0  0  0  0  0  0  0  0  0  0  0  0
   -3.4620   -0.3190    2.0830 C   0  0  0  0  0  0  0  0  0  0  0  0
   -4.2130    0.2530    1.0800 C   0  0  0  0  0  0  0  0  0  0  0  0
   -5.5830    0.4700    1.2600 O   0  0  0  0  0  0  0  0  0  0  0  0
   -6.3950    1.0450    0.2800 C   0  0  0  0  0  0  0  0  0  0  0  0
   -7.8080    1.1220    0.8190 C   0  0  1  0  0  0  0  0  0  0  0  0
   -7.7700    2.0900    2.0040 C   0  0  0  0  0  0  0  0  0  0  0  0
   -8.0690    3.3470    1.3000 N   0  0  0  0  0  0  0  0  0  0  0  0
   -9.0980    2.9040    0.3800 C   0  0  0  0  0  0  0  0  0  0  0  0
   -8.6850    1.6800   -0.0850 O   0  0  0  0  0  0  0  0  0  0  0  0
   -3.5420    0.5840   -0.0700 C   0  0  0  0  0  0  0  0  0  0  0  0
   -2.1940    0.3670   -0.2360 C   0  0  0  0  0  0  0  0  0  0  0  0
   -0.0980   -2.0100   -1.0880 C   0  0  0  0  0  0  0  0  0  0  0  0
   -1.3550   -1.9480   -1.1750 O   0  0  0  0  0  0  0  0  0  0  0  0
    0.4870   -2.8810   -2.0010 O   0  0  0  0  0  0  0  0  0  0  0  0
   -0.2430   -3.6210   -2.9300 C   0  0  2  0  0  0  0  0  0  0  0  0
   -0.1010   -5.1230   -2.7020 C   0  0  0  0  0  0  0  0  0  0  0  0
    0.0760   -3.3230   -4.3590 C   0  0  0  0  0  0  0  0  0  0  0  0
    4.8750   -0.8880   -0.0100 O   0  0  0  0  0  0  0  0  0  0  0  0
  1  2  1  0
  2  3  1  0
  3  4  1  0
  4  5  1  0
  5  6  2  0
  5  7  1  0
  7  8  2  0
  7 34  1  0
  8  9  1  0
  9 10  2  0
 10 11  1  0
 10 34  1  0
 11 12  2  3
 12 13  1  0
 13 14  2  3
 13 28  1  0
 14 15  1  0
 15 16  2  0
 15 27  1  0
 16 17  1  0
 17 18  2  0
 18 19  1  0
 18 26  1  0
 19 20  1  0
 21 20  1  6
 21 22  1  0
 21 25  1  0
 22 23  1  0
 23 24  1  0
 24 25  1  0
 26 27  2  0
 28 29  2  0
 28 30  1  0
 30 31  1  0
 31 32  1  1
 31 33  1  0
M  CHG  2  11   1  23   1
M  END
