
     RDKit          3D

 35 37  0  0  0  0  0  0  0  0999 V2000
   -5.8970   -2.3580    0.5950 C   0  0  0  0  0  0  0  0  0  0  0  0
   -6.0670   -0.9240    0.9180 C   0  0  0  0  0  0  0  0  0  0  0  0
   -5.2550    0.0240    0.4810 C   0  0  0  0  0  0  0  0  0  0  0  0
   -5.6180    1.3700    0.9260 C   0  0  0  0  0  0  0  0  0  0  0  0
   -5.5810    2.5500    0.2760 C   0  0  0  0  0  0  0  0  0  0  0  0
   -5.1390    2.6770   -1.0840 N   0  0  0  0  0  0  0  0  0  0  0  0
   -5.2690    1.3830   -1.7570 C   0  0  0  0  0  0  0  0  0  0  0  0
   -4.0330    0.5510   -1.5590 C   0  0  0  0  0  0  0  0  0  0  0  0
   -4.1010   -0.3120   -0.3550 C   0  0  1  0  0  0  0  0  0  0  0  0
   -2.9110   -0.3950    0.3420 O   0  0  0  0  0  0  0  0  0  0  0  0
   -2.2880   -1.6000    0.3820 C   0  0  1  0  0  0  0  0  0  0  0  0
   -0.9920   -1.4460   -0.4330 C   0  0  0  0  0  0  0  0  0  0  0  0
   -0.1480   -0.4310    0.1160 N   0  0  0  0  0  0  0  0  0  0  0  0
    1.0920   -0.1320   -0.4830 C   0  0  0  0  0  0  0  0  0  0  0  0
    1.4070   -0.8100   -1.5210 O   0  0  0  0  0  0  0  0  0  0  0  0
    1.9980    0.8840    0.0150 C   0  0  0  0  0  0  0  0  0  0  0  0
    1.6940    1.6150    1.0890 N   0  0  0  0  0  0  0  0  0  0  0  0
    2.5280    2.5540    1.5460 C   0  0  0  0  0  0  0  0  0  0  0  0
    2.2320    3.2500    2.5740 O   0  0  0  0  0  0  0  0  0  0  0  0
    3.6920    2.7600    0.9090 N   0  0  0  0  0  0  0  0  0  0  0  0
    4.0460    2.0470   -0.1820 C   0  0  0  0  0  0  0  0  0  0  0  0
    5.1420    2.2650   -0.7550 O   0  0  0  0  0  0  0  0  0  0  0  0
    3.1950    1.0870   -0.6500 C   0  0  0  0  0  0  0  0  0  0  0  0
    3.5600    0.0870   -2.0750 S   0  0  0  0  0  0  0  0  0  0  0  0
    4.4300   -1.4070   -1.5260 C   0  0  0  0  0  0  0  0  0  0  0  0
    5.7430   -1.0010   -0.9870 C   0  0  0  0  0  0  0  0  0  0  0  0
    5.9010   -0.6930    0.3390 C   0  0  0  0  0  0  0  0  0  0  0  0
    7.1460   -0.3080    0.8410 C   0  0  0  0  0  0  0  0  0  0  0  0
    8.2270   -0.2380   -0.0080 C   0  0  0  0  0  0  0  0  0  0  0  0
    9.4860    0.1370    0.4300 O   0  0  0  0  0  0  0  0  0  0  0  0
    8.0560   -0.5490   -1.3370 C   0  0  0  0  0  0  0  0  0  0  0  0
    6.8190   -0.9310   -1.8350 C   0  0  0  0  0  0  0  0  0  0  0  0
   -1.9450   -2.0750    1.7320 C   0  0  0  0  0  0  0  0  0  0  0  0
   -2.2770   -1.2610    2.8460 N   0  0  0  0  0  0  0  0  0  0  0  0
   -1.3720   -3.1680    1.9520 O   0  0  0  0  0  0  0  0  0  0  0  0
  1  2  1  0
  2  3  2  3
  3  4  1  0
  3  9  1  0
  4  5  2  0
  5  6  1  0
  6  7  1  0
  7  8  1  0
  8  9  1  0
  9 10  1  1
 10 11  1  0
 11 12  1  6
 11 33  1  0
 12 13  1  0
 13 14  1  0
 14 15  2  0
 14 16  1  0
 16 17  1  0
 16 23  2  0
 17 18  1  0
 18 19  2  0
 18 20  1  0
 20 21  1  0
 21 22  2  0
 21 23  1  0
 23 24  1  0
 24 25  1  0
 25 26  1  0
 26 27  2  0
 26 32  1  0
 27 28  1  0
 28 29  2  0
 29 30  1  0
 29 31  1  0
 31 32  2  0
 33 34  1  0
 33 35  2  0
M  CHG  1   6   1
M  END
