
     RDKit          3D

 35 38  0  0  0  0  0  0  0  0999 V2000
   -5.3930    0.4770    3.9610 C   0  0  0  0  0  0  0  0  0  0  0  0
   -5.7020    0.6160    2.5480 N   0  0  0  0  0  0  0  0  0  0  0  0
   -5.1470   -0.5400    1.8750 C   0  0  1  0  0  0  0  0  0  0  0  0
   -6.2620   -1.4430    1.4430 C   0  0  0  0  0  0  0  0  0  0  0  0
   -4.3170   -0.1050    0.7090 C   0  0  0  0  0  0  0  0  0  0  0  0
   -4.1980    1.1200    0.4490 O   0  0  0  0  0  0  0  0  0  0  0  0
   -3.6480   -1.0160   -0.1300 N   0  0  0  0  0  0  0  0  0  0  0  0
   -2.8320   -0.6070   -1.2760 C   0  0  2  0  0  0  0  0  0  0  0  0
   -3.5580   -1.0780   -2.4990 C   0  0  0  0  0  0  0  0  0  0  0  0
   -2.8010   -0.4700   -3.6890 C   0  0  0  0  0  0  0  0  0  0  0  0
   -1.7600   -1.4600   -4.0500 C   0  0  0  0  0  0  0  0  0  0  0  0
   -0.4560   -1.3470   -3.4190 C   0  0  1  0  0  0  0  0  0  0  0  0
    0.5520    0.0320   -4.1050 S   0  0  0  0  0  0  0  0  0  0  0  0
    1.6880    0.0990   -2.6910 C   0  0  2  0  0  0  0  0  0  0  0  0
    1.9920    1.5120   -2.2800 C   0  0  0  0  0  0  0  0  0  0  0  0
    2.9350   -0.6280   -3.0730 C   0  0  0  0  0  0  0  0  0  0  0  0
    0.9610   -0.6850   -1.6460 C   0  0  1  0  0  0  0  0  0  0  0  0
    1.0580    0.1090   -0.3810 C   0  0  0  0  0  0  0  0  0  0  0  0
    0.0680    0.5750    0.2260 O   0  0  0  0  0  0  0  0  0  0  0  0
    2.3400    0.3550    0.1750 N   0  0  0  0  0  0  0  0  0  0  0  0
    2.5720    1.0900    1.3690 C   0  0  0  0  0  0  0  0  0  0  0  0
    1.6670    1.6920    2.2060 C   0  0  0  0  0  0  0  0  0  0  0  0
    2.3480    2.2960    3.2500 C   0  0  0  0  0  0  0  0  0  0  0  0
    1.8050    3.0660    4.4000 C   0  0  0  0  0  0  0  0  0  0  0  0
    3.6380    2.0440    3.0190 N   0  0  0  0  0  0  0  0  0  0  0  0
    3.7970    1.3360    1.9170 N   0  0  0  0  0  0  0  0  0  0  0  0
    5.0630    0.9210    1.4220 C   0  0  0  0  0  0  0  0  0  0  0  0
    5.5620   -0.3370    1.6930 C   0  0  0  0  0  0  0  0  0  0  0  0
    6.7820   -0.7820    1.2340 C   0  0  0  0  0  0  0  0  0  0  0  0
    7.5250    0.0890    0.4690 C   0  0  0  0  0  0  0  0  0  0  0  0
    7.0350    1.3650    0.1860 C   0  0  0  0  0  0  0  0  0  0  0  0
    5.8170    1.7820    0.6560 C   0  0  0  0  0  0  0  0  0  0  0  0
   -0.3650   -1.0240   -2.0310 N   0  0  0  0  0  0  0  0  0  0  0  0
   -1.4610   -1.0700   -1.1250 C   0  0  0  0  0  0  0  0  0  0  0  0
   -1.2230   -1.6060    0.0200 O   0  0  0  0  0  0  0  0  0  0  0  0
  1  2  1  0
  2  3  1  0
  3  4  1  6
  3  5  1  0
  5  6  2  0
  5  7  1  0
  8  7  1  1
  8  9  1  0
  8 34  1  0
  9 10  1  0
 10 11  1  0
 12 11  1  6
 12 13  1  0
 12 33  1  0
 13 14  1  0
 14 15  1  1
 14 16  1  0
 14 17  1  0
 17 18  1  1
 17 33  1  0
 18 19  2  0
 18 20  1  0
 20 21  1  0
 21 22  2  0
 21 26  1  0
 22 23  1  0
 23 24  1  0
 23 25  2  0
 25 26  1  0
 26 27  1  0
 27 28  2  0
 27 32  1  0
 28 29  1  0
 29 30  2  0
 30 31  1  0
 31 32  2  0
 33 34  1  0
 34 35  2  0
M  CHG  1   2   1
M  END
