
     RDKit          3D

 34 36  0  0  0  0  0  0  0  0999 V2000
    6.4790   -3.3610    0.1010 C   0  0  0  0  0  0  0  0  0  0  0  0
    5.6460   -2.2530   -0.0840 O   0  0  0  0  0  0  0  0  0  0  0  0
    4.3050   -2.1870   -0.0350 C   0  0  0  0  0  0  0  0  0  0  0  0
    3.4790   -3.2300    0.2160 C   0  0  0  0  0  0  0  0  0  0  0  0
    2.1060   -3.0710    0.2520 C   0  0  0  0  0  0  0  0  0  0  0  0
    1.2890   -4.1440    0.4370 C   0  0  0  0  0  0  0  0  0  0  0  0
   -0.0800   -4.0250    0.3930 C   0  0  0  0  0  0  0  0  0  0  0  0
   -0.6390   -2.8090    0.1580 C   0  0  0  0  0  0  0  0  0  0  0  0
    0.1800   -1.6650   -0.0310 C   0  0  0  0  0  0  0  0  0  0  0  0
   -0.5070   -0.4140   -0.1110 C   0  0  0  0  0  0  0  0  0  0  0  0
    0.0160    0.8820    0.3030 C   0  0  0  0  0  0  0  0  0  0  0  0
   -1.7900   -0.4680   -0.4570 N   0  0  0  0  0  0  0  0  0  0  0  0
   -2.5890    0.6820   -0.5950 C   0  0  0  0  0  0  0  0  0  0  0  0
   -1.9800    1.7850   -0.8190 O   0  0  0  0  0  0  0  0  0  0  0  0
   -4.0240    0.6540   -0.4920 C   0  0  0  0  0  0  0  0  0  0  0  0
   -4.8030   -0.4590   -0.3570 C   0  0  0  0  0  0  0  0  0  0  0  0
   -4.1610   -1.6860   -0.3990 O   0  0  0  0  0  0  0  0  0  0  0  0
   -4.8650   -2.9110   -0.2690 C   0  0  0  0  0  0  0  0  0  0  0  0
   -6.1790   -0.4080   -0.1920 C   0  0  0  0  0  0  0  0  0  0  0  0
   -6.7710    0.8100   -0.1660 C   0  0  0  0  0  0  0  0  0  0  0  0
   -6.0160    1.9490   -0.2990 C   0  0  0  0  0  0  0  0  0  0  0  0
   -6.6500    3.1740   -0.2650 O   0  0  0  0  0  0  0  0  0  0  0  0
   -8.0580    3.2480   -0.0840 C   0  0  0  0  0  0  0  0  0  0  0  0
   -4.6400    1.9270   -0.4660 C   0  0  0  0  0  0  0  0  0  0  0  0
   -3.9050    3.0820   -0.5980 O   0  0  0  0  0  0  0  0  0  0  0  0
   -3.3690    3.8720    0.4280 C   0  0  0  0  0  0  0  0  0  0  0  0
    1.5500   -1.8010    0.0200 C   0  0  0  0  0  0  0  0  0  0  0  0
    2.4150   -0.7940   -0.2280 N   0  0  0  0  0  0  0  0  0  0  0  0
    3.7470   -0.9280   -0.2660 C   0  0  0  0  0  0  0  0  0  0  0  0
    4.6000    0.1820   -0.7280 C   0  0  0  0  0  0  0  0  0  0  0  0
    4.8910    1.1900    0.2520 N   0  0  0  0  0  0  0  0  0  0  0  0
    5.0480    2.4850   -0.3300 C   0  0  0  0  0  0  0  0  0  0  0  0
    6.4600    3.0130   -0.0650 C   0  0  0  0  0  0  0  0  0  0  0  0
    7.3240    2.1340   -0.6700 O   0  0  0  0  0  0  0  0  0  0  0  0
  1  2  1  0
  2  3  1  0
  3  4  2  0
  3 29  1  0
  4  5  1  0
  5  6  2  0
  5 27  1  0
  6  7  1  0
  7  8  2  0
  8  9  1  0
  9 10  1  0
  9 27  2  0
 10 11  1  0
 10 12  2  3
 12 13  1  0
 13 14  2  0
 13 15  1  0
 15 16  2  0
 15 24  1  0
 16 17  1  0
 16 19  1  0
 17 18  1  0
 19 20  2  0
 20 21  1  0
 21 22  1  0
 21 24  2  0
 22 23  1  0
 24 25  1  0
 25 26  1  0
 27 28  1  0
 28 29  2  0
 29 30  1  0
 30 31  1  0
 31 32  1  0
 32 33  1  0
 33 34  1  0
M  CHG  2  28   1  31   1
M  END
