
     RDKit          3D

 34 36  0  0  0  0  0  0  0  0999 V2000
    9.5580    1.0130    1.4000 C   0  0  0  0  0  0  0  0  0  0  0  0
    8.2050    0.3990    1.0170 C   0  0  0  0  0  0  0  0  0  0  0  0
    7.3190    1.4400    0.8880 O   0  0  0  0  0  0  0  0  0  0  0  0
    6.0400    1.0780    0.5430 C   0  0  0  0  0  0  0  0  0  0  0  0
    5.9770    0.3540   -0.7850 C   0  0  0  0  0  0  0  0  0  0  0  0
    4.6180    0.0220   -1.0550 O   0  0  0  0  0  0  0  0  0  0  0  0
    4.1910   -0.6320   -2.1710 C   0  0  0  0  0  0  0  0  0  0  0  0
    5.1860   -0.9220   -2.9750 O   0  0  0  0  0  0  0  0  0  0  0  0
    2.8670   -1.0050   -2.5260 C   0  0  0  0  0  0  0  0  0  0  0  0
    1.6990   -0.9190   -2.0740 C   0  0  0  0  0  0  0  0  0  0  0  0
    1.0160   -0.3990   -0.9470 C   0  0  0  0  0  0  0  0  0  0  0  0
   -0.3500   -0.6010   -0.9130 C   0  0  0  0  0  0  0  0  0  0  0  0
   -0.8460   -1.2820   -1.9830 O   0  0  0  0  0  0  0  0  0  0  0  0
   -1.0010   -2.6690   -1.9600 C   0  0  0  0  0  0  0  0  0  0  0  0
   -1.2900   -0.1870    0.0880 N   0  0  0  0  0  0  0  0  0  0  0  0
   -2.7020   -0.1860   -0.2630 C   0  0  0  0  0  0  0  0  0  0  0  0
   -3.4610   -1.1570    0.5410 C   0  0  0  0  0  0  0  0  0  0  0  0
   -4.8460   -1.2500    0.3260 O   0  0  0  0  0  0  0  0  0  0  0  0
   -5.6400   -0.1350    0.5310 C   0  0  0  0  0  0  0  0  0  0  0  0
   -6.1290    0.2040    1.7780 C   0  0  0  0  0  0  0  0  0  0  0  0
   -5.8270   -0.5860    2.8520 O   0  0  0  0  0  0  0  0  0  0  0  0
   -6.9180    1.3120    1.9940 C   0  0  0  0  0  0  0  0  0  0  0  0
   -7.2500    2.1340    0.9470 C   0  0  0  0  0  0  0  0  0  0  0  0
   -6.7630    1.8010   -0.3170 C   0  0  0  0  0  0  0  0  0  0  0  0
   -7.1200    2.6240   -1.3610 C   0  0  0  0  0  0  0  0  0  0  0  0
   -6.6920    2.3320   -2.5920 N   0  0  0  0  0  0  0  0  0  0  0  0
   -5.9270    1.2660   -2.8580 C   0  0  0  0  0  0  0  0  0  0  0  0
   -5.5660    0.4390   -1.8200 C   0  0  0  0  0  0  0  0  0  0  0  0
   -5.9670    0.6790   -0.5260 C   0  0  0  0  0  0  0  0  0  0  0  0
   -0.8990    0.2650    1.4040 C   0  0  0  0  0  0  0  0  0  0  0  0
    0.2050   -0.5830    1.9060 C   0  0  0  0  0  0  0  0  0  0  0  0
    1.5140   -0.3760    1.4270 N   0  0  1  0  0  0  0  0  0  0  0  0
    2.1660   -1.6640    1.2280 C   0  0  0  0  0  0  0  0  0  0  0  0
    1.6180    0.3450    0.1740 C   0  0  0  0  0  0  0  0  0  0  0  0
  1  2  1  0
  2  3  1  0
  3  4  1  0
  4  5  1  0
  5  6  1  0
  6  7  1  0
  7  8  2  0
  7  9  1  0
  9 10  2  3
 10 11  1  0
 11 12  2  0
 11 34  1  0
 12 13  1  0
 12 15  1  0
 13 14  1  0
 15 16  1  0
 15 30  1  0
 16 17  1  0
 17 18  1  0
 18 19  1  0
 19 20  2  0
 19 29  1  0
 20 21  1  0
 20 22  1  0
 22 23  2  0
 23 24  1  0
 24 25  2  0
 24 29  1  0
 25 26  1  0
 26 27  2  0
 27 28  1  0
 28 29  2  0
 30 31  1  0
 31 32  1  0
 32 33  1  6
 32 34  1  0
M  CHG  2  26   1  32   1
M  END
