
     RDKit          3D

 35 38  0  0  0  0  0  0  0  0999 V2000
   -1.6650    0.8130   -0.5720 C   0  0  0  0  0  0  0  0  0  0  0  0
   -2.8260    0.1070   -0.2570 O   0  0  0  0  0  0  0  0  0  0  0  0
   -3.4870    0.2170    0.9730 C   0  0  0  0  0  0  0  0  0  0  0  0
   -2.9900   -0.5870    2.0440 C   0  0  0  0  0  0  0  0  0  0  0  0
   -3.4710   -0.5870    3.1920 O   0  0  0  0  0  0  0  0  0  0  0  0
   -1.8650   -1.4840    1.8680 N   0  0  0  0  0  0  0  0  0  0  0  0
   -1.4020   -2.2760    2.9630 C   0  0  0  0  0  0  0  0  0  0  0  0
   -0.2570   -3.1520    2.6930 C   0  0  0  0  0  0  0  0  0  0  0  0
    0.2150   -3.9030    3.6070 O   0  0  0  0  0  0  0  0  0  0  0  0
    0.3680   -3.2130    1.4470 N   0  0  0  0  0  0  0  0  0  0  0  0
    1.5030   -4.0780    1.1600 C   0  0  1  0  0  0  0  0  0  0  0  0
    1.1200   -4.9710    0.0080 C   0  0  0  0  0  0  0  0  0  0  0  0
    0.9480   -4.1780   -1.2660 C   0  0  0  0  0  0  0  0  0  0  0  0
    2.2110   -3.4340   -1.5780 C   0  0  0  0  0  0  0  0  0  0  0  0
    2.4910   -2.4750   -0.4150 C   0  0  2  0  0  0  0  0  0  0  0  0
    3.6500   -1.6420   -0.7210 N   0  0  0  0  0  0  0  0  0  0  0  0
    3.4940   -0.2160   -0.8760 C   0  0  0  0  0  0  0  0  0  0  0  0
    2.3520    0.2820   -0.7430 O   0  0  0  0  0  0  0  0  0  0  0  0
    4.5890    0.6160   -1.1690 N   0  0  0  0  0  0  0  0  0  0  0  0
    4.4860    2.0240   -1.3340 C   0  0  0  0  0  0  0  0  0  0  0  0
    3.3630    2.8070   -1.2560 C   0  0  0  0  0  0  0  0  0  0  0  0
    3.7210    4.0650   -1.4770 O   0  0  0  0  0  0  0  0  0  0  0  0
    5.0100    4.1370   -1.6930 C   0  0  0  0  0  0  0  0  0  0  0  0
    5.5630    2.8810   -1.6180 C   0  0  0  0  0  0  0  0  0  0  0  0
    6.8490    2.4460   -1.7680 O   0  0  0  0  0  0  0  0  0  0  0  0
    7.9340    3.2140   -2.0410 N   0  0  0  0  0  0  0  0  0  0  0  0
    2.7470   -3.3280    0.7820 C   0  0  0  0  0  0  0  0  0  0  0  0
   -4.5150    1.0280    1.1020 C   0  0  0  0  0  0  0  0  0  0  0  0
   -5.3750    1.3400    2.2350 C   0  0  0  0  0  0  0  0  0  0  0  0
   -6.8210    1.0540    1.8530 C   0  0  0  0  0  0  0  0  0  0  0  0
   -6.8080    1.4160    0.0740 S   0  0  0  0  0  0  0  0  0  0  0  0
   -5.0310    1.8370   -0.0800 C   0  0  1  0  0  0  0  0  0  0  0  0
   -4.9020    3.3010    0.1290 C   0  0  2  0  0  0  0  0  0  0  0  0
   -5.4440    4.1370   -1.0180 C   0  0  0  0  0  0  0  0  0  0  0  0
   -3.9920    4.1660   -0.6610 C   0  0  0  0  0  0  0  0  0  0  0  0
  1  2  1  0
  2  3  1  0
  3  4  1  0
  3 28  2  3
  4  5  2  0
  4  6  1  0
  6  7  1  0
  7  8  1  0
  8  9  2  0
  8 10  1  0
 11 10  1  6
 11 12  1  0
 11 27  1  0
 12 13  1  0
 13 14  1  0
 14 15  1  0
 15 16  1  6
 15 27  1  0
 16 17  1  0
 17 18  2  0
 17 19  1  0
 19 20  1  0
 20 21  2  0
 20 24  1  0
 21 22  1  0
 22 23  1  0
 23 24  2  0
 24 25  1  0
 25 26  1  0
 28 29  1  0
 28 32  1  0
 29 30  1  0
 30 31  1  0
 32 31  1  1
 32 33  1  0
 33 34  1  6
 33 35  1  0
 34 35  1  0
M  CHG  1  26   1
M  END
