
     RDKit          3D

 34 36  0  0  0  0  0  0  0  0999 V2000
    0.0310   -2.9690   -3.9850 C   0  0  0  0  0  0  0  0  0  0  0  0
    0.5160   -1.6330   -3.6090 C   0  0  0  0  0  0  0  0  0  0  0  0
    1.6060   -1.2300   -4.0780 O   0  0  0  0  0  0  0  0  0  0  0  0
   -0.2250   -0.7750   -2.7180 C   0  0  0  0  0  0  0  0  0  0  0  0
    0.3100    0.5640   -2.3590 C   0  0  0  0  0  0  0  0  0  0  0  0
    1.4680    0.6350   -1.7520 O   0  0  0  0  0  0  0  0  0  0  0  0
    2.6330    0.6650   -1.2330 C   0  0  0  0  0  0  0  0  0  0  0  0
    3.7960    0.1800   -1.8570 C   0  0  0  0  0  0  0  0  0  0  0  0
    5.0270    0.2250   -1.2760 C   0  0  0  0  0  0  0  0  0  0  0  0
    5.1440    0.7720   -0.0140 C   0  0  0  0  0  0  0  0  0  0  0  0
    6.4500    0.8340    0.6510 C   0  0  2  0  0  0  0  0  0  0  0  0
    6.7280   -0.5420    1.2030 C   0  0  0  0  0  0  0  0  0  0  0  0
    6.3890    1.8200    1.7790 C   0  0  0  0  0  0  0  0  0  0  0  0
    7.6880    2.3070    2.1810 N   0  0  0  0  0  0  0  0  0  0  0  0
    8.7920    1.4990    1.7900 C   0  0  0  0  0  0  0  0  0  0  0  0
    8.8080    1.3390    0.3640 O   0  0  0  0  0  0  0  0  0  0  0  0
    7.5420    1.2940   -0.2500 C   0  0  0  0  0  0  0  0  0  0  0  0
    7.3780    1.6180   -1.4540 O   0  0  0  0  0  0  0  0  0  0  0  0
    4.0390    1.2640    0.6460 C   0  0  0  0  0  0  0  0  0  0  0  0
    2.8010    1.2170    0.0590 C   0  0  0  0  0  0  0  0  0  0  0  0
   -1.4010   -1.1660   -2.2030 C   0  0  0  0  0  0  0  0  0  0  0  0
   -2.1540   -0.2750   -1.2900 C   0  0  0  0  0  0  0  0  0  0  0  0
   -3.3750   -0.9370   -0.8950 N   0  0  0  0  0  0  0  0  0  0  0  0
   -3.8590   -0.7670    0.4320 C   0  0  0  0  0  0  0  0  0  0  0  0
   -3.2280   -0.0530    1.2510 O   0  0  0  0  0  0  0  0  0  0  0  0
   -5.1080   -1.4150    0.8970 C   0  0  0  0  0  0  0  0  0  0  0  0
   -5.5450   -1.0160    2.2650 C   0  0  0  0  0  0  0  0  0  0  0  0
   -5.8210    0.4050    2.3950 N   0  0  0  0  0  0  0  0  0  0  0  0
   -7.1730    0.6480    1.9320 C   0  0  2  0  0  0  0  0  0  0  0  0
   -7.1140    1.6620    0.8070 C   0  0  0  0  0  0  0  0  0  0  0  0
   -8.0080    1.1650    3.0860 C   0  0  0  0  0  0  0  0  0  0  0  0
   -4.0580   -1.7440   -1.8780 C   0  0  0  0  0  0  0  0  0  0  0  0
   -3.1580   -2.9310   -2.1520 C   0  0  0  0  0  0  0  0  0  0  0  0
   -1.9110   -2.4220   -2.5320 O   0  0  0  0  0  0  0  0  0  0  0  0
  1  2  1  0
  2  3  2  0
  2  4  1  0
  4  5  1  0
  4 21  2  3
  5  6  1  0
  6  7  1  0
  7  8  2  0
  7 20  1  0
  8  9  1  0
  9 10  2  0
 10 11  1  0
 10 19  1  0
 11 12  1  1
 11 13  1  0
 11 17  1  0
 13 14  1  0
 14 15  1  0
 15 16  1  0
 16 17  1  0
 17 18  2  0
 19 20  2  0
 21 22  1  0
 21 34  1  0
 22 23  1  0
 23 24  1  0
 23 32  1  0
 24 25  2  0
 24 26  1  0
 26 27  1  0
 27 28  1  0
 28 29  1  0
 29 30  1  6
 29 31  1  0
 32 33  1  0
 33 34  1  0
M  CHG  2  14   1  28   1
M  END
