
     RDKit          3D

 32 36  0  0  0  0  0  0  0  0999 V2000
    3.7200    2.2020   -1.7530 O   0  0  0  0  0  0  0  0  0  0  0  0
    4.5010    1.4220   -1.1440 C   0  0  0  0  0  0  0  0  0  0  0  0
    5.8750    1.6440   -1.3060 N   0  0  0  0  0  0  0  0  0  0  0  0
    6.6950    0.6710   -0.6160 C   0  0  0  0  0  0  0  0  0  0  0  0
    6.0820   -0.7010   -0.6300 C   0  0  0  0  0  0  0  0  0  0  0  0
    4.6860   -0.7120   -0.0490 C   0  0  0  0  0  0  0  0  0  0  0  0
    4.1820   -1.7300    0.7110 C   0  0  0  0  0  0  0  0  0  0  0  0
    4.8030   -3.0030    1.1560 C   0  0  2  0  0  0  0  0  0  0  0  0
    4.0300   -4.0340    0.6620 F   0  0  0  0  0  0  0  0  0  0  0  0
    4.7760   -3.1240    2.9420 Cl  0  0  0  0  0  0  0  0  0  0  0  0
    2.5720   -1.2150    1.0840 S   0  0  0  0  0  0  0  0  0  0  0  0
    2.6510    0.3370    0.2050 C   0  0  0  0  0  0  0  0  0  0  0  0
    1.5820    1.3030    0.0980 N   0  0  0  0  0  0  0  0  0  0  0  0
    0.3230    1.0760    0.6730 C   0  0  0  0  0  0  0  0  0  0  0  0
    0.1610   -0.0270    1.2930 O   0  0  0  0  0  0  0  0  0  0  0  0
   -0.7960    2.0100    0.6080 C   0  0  1  0  0  0  0  0  0  0  0  0
   -1.0750    2.5180   -0.7850 C   0  0  0  0  0  0  0  0  0  0  0  0
   -2.2720    1.7760   -1.2470 C   0  0  0  0  0  0  0  0  0  0  0  0
   -2.9220    1.8880   -2.3130 O   0  0  0  0  0  0  0  0  0  0  0  0
   -2.6250    0.8260   -0.2270 N   0  0  0  0  0  0  0  0  0  0  0  0
   -3.3710   -0.3640   -0.3870 C   0  0  0  0  0  0  0  0  0  0  0  0
   -2.7500   -1.5460   -0.8070 C   0  0  0  0  0  0  0  0  0  0  0  0
   -3.4700   -2.7090   -0.9700 C   0  0  0  0  0  0  0  0  0  0  0  0
   -4.8250   -2.7320   -0.7220 C   0  0  0  0  0  0  0  0  0  0  0  0
   -5.4780   -1.5680   -0.3020 C   0  0  0  0  0  0  0  0  0  0  0  0
   -6.8380   -1.6190   -0.0610 C   0  0  0  0  0  0  0  0  0  0  0  0
   -7.4840   -0.4780    0.3510 C   0  0  0  0  0  0  0  0  0  0  0  0
   -6.7380    0.6730    0.5060 C   0  0  0  0  0  0  0  0  0  0  0  0
   -5.3810    0.7150    0.2640 C   0  0  0  0  0  0  0  0  0  0  0  0
   -4.7290   -0.4340   -0.1510 C   0  0  0  0  0  0  0  0  0  0  0  0
   -2.0720    1.2930    1.0370 C   0  0  0  0  0  0  0  0  0  0  0  0
    3.9160    0.3410   -0.3120 C   0  0  0  0  0  0  0  0  0  0  0  0
  1  2  2  0
  2  3  1  0
  2 32  1  0
  3  4  1  0
  4  5  1  0
  5  6  1  0
  6  7  2  0
  6 32  1  0
  7  8  1  0
  7 11  1  0
  8  9  1  6
  8 10  1  0
 11 12  1  0
 12 13  1  0
 12 32  2  0
 13 14  1  0
 14 15  2  0
 16 14  1  6
 16 17  1  0
 16 31  1  0
 17 18  1  0
 18 19  2  0
 18 20  1  0
 20 21  1  0
 20 31  1  0
 21 22  2  0
 21 30  1  0
 22 23  1  0
 23 24  2  0
 24 25  1  0
 25 26  2  0
 25 30  1  0
 26 27  1  0
 27 28  2  0
 28 29  1  0
 29 30  2  0
M  CHG  1   3   1
M  END
