
     RDKit          3D

 33 35  0  0  0  0  0  0  0  0999 V2000
    5.8590    3.4410    3.1440 C   0  0  0  0  0  0  0  0  0  0  0  0
    5.1300    3.8030    1.8690 C   0  0  0  0  0  0  0  0  0  0  0  0
    4.8950    2.5560    1.0060 C   0  0  0  0  0  0  0  0  0  0  0  0
    4.1710    3.0230   -0.2270 C   0  0  0  0  0  0  0  0  0  0  0  0
    3.8570    1.9360   -1.2040 C   0  0  0  0  0  0  0  0  0  0  0  0
    2.9710    0.9000   -0.5320 C   0  0  0  0  0  0  0  0  0  0  0  0
    2.6570   -0.1960   -1.5290 C   0  0  0  0  0  0  0  0  0  0  0  0
    1.8230   -1.1830   -0.9030 N   0  0  0  0  0  0  0  0  0  0  0  0
    0.4710   -0.8420   -0.5370 C   0  0  0  0  0  0  0  0  0  0  0  0
   -0.3030   -0.6440   -1.8320 C   0  0  0  0  0  0  0  0  0  0  0  0
   -1.7070   -0.3060   -1.5790 C   0  0  0  0  0  0  0  0  0  0  0  0
   -2.1220    0.9870   -1.4320 C   0  0  0  0  0  0  0  0  0  0  0  0
   -3.4390    1.3270   -1.1920 C   0  0  0  0  0  0  0  0  0  0  0  0
   -4.3630    0.2940   -1.0990 C   0  0  0  0  0  0  0  0  0  0  0  0
   -5.6580    0.6500   -0.8650 O   0  0  0  0  0  0  0  0  0  0  0  0
   -6.3400    0.9030    0.3060 C   0  0  2  0  0  0  0  0  0  0  0  0
   -7.7830    1.2440   -0.0850 C   0  0  0  0  0  0  0  0  0  0  0  0
   -5.6980    2.1450    0.9430 C   0  0  0  0  0  0  0  0  0  0  0  0
   -6.3580    2.5270    2.2360 C   0  0  0  0  0  0  0  0  0  0  0  0
   -6.3110   -0.1650    1.2860 C   0  0  0  0  0  0  0  0  0  0  0  0
   -5.6940   -1.2310    1.1150 O   0  0  0  0  0  0  0  0  0  0  0  0
   -6.9900   -0.0600    2.5100 O   0  0  0  0  0  0  0  0  0  0  0  0
   -3.9910   -1.0170   -1.2420 C   0  0  0  0  0  0  0  0  0  0  0  0
   -2.6480   -1.2990   -1.4820 C   0  0  0  0  0  0  0  0  0  0  0  0
    2.3400   -2.4790   -0.6550 C   0  0  0  0  0  0  0  0  0  0  0  0
    1.6860   -3.5210   -0.0820 N   0  0  0  0  0  0  0  0  0  0  0  0
    2.5230   -4.5670   -0.0290 C   0  0  0  0  0  0  0  0  0  0  0  0
    2.4360   -5.8690    0.4300 C   0  0  0  0  0  0  0  0  0  0  0  0
    3.4940   -6.7500    0.3510 C   0  0  0  0  0  0  0  0  0  0  0  0
    4.6640   -6.2910   -0.2100 C   0  0  0  0  0  0  0  0  0  0  0  0
    4.7880   -5.0010   -0.6790 C   0  0  0  0  0  0  0  0  0  0  0  0
    3.7070   -4.1520   -0.5810 C   0  0  0  0  0  0  0  0  0  0  0  0
    3.5350   -2.8950   -0.9360 O   0  0  0  0  0  0  0  0  0  0  0  0
  1  2  1  0
  2  3  1  0
  3  4  1  0
  4  5  1  0
  5  6  1  0
  6  7  1  0
  7  8  1  0
  8  9  1  0
  8 25  1  0
  9 10  1  0
 10 11  1  0
 11 12  2  0
 11 24  1  0
 12 13  1  0
 13 14  2  0
 14 15  1  0
 14 23  1  0
 15 16  1  0
 16 17  1  6
 16 18  1  0
 16 20  1  0
 18 19  1  0
 20 21  2  0
 20 22  1  0
 23 24  2  0
 25 26  2  0
 25 33  1  0
 26 27  1  0
 27 28  2  0
 27 32  1  0
 28 29  1  0
 29 30  2  0
 30 31  1  0
 31 32  2  0
 32 33  1  0
M  END
