
     RDKit          3D

 32 35  0  0  0  0  0  0  0  0999 V2000
   -5.8950   -2.6610    2.4870 C   0  0  0  0  0  0  0  0  0  0  0  0
   -5.3980   -1.8110    1.6090 C   0  0  0  0  0  0  0  0  0  0  0  0
   -4.0210   -1.7600    1.3690 C   0  0  0  0  0  0  0  0  0  0  0  0
   -3.4610   -0.8770    0.4550 C   0  0  0  0  0  0  0  0  0  0  0  0
   -4.2690   -0.0250   -0.2390 C   0  0  0  0  0  0  0  0  0  0  0  0
   -5.6200   -0.0590   -0.0170 C   0  0  0  0  0  0  0  0  0  0  0  0
   -6.6470    1.0550   -0.9280 Cl  0  0  0  0  0  0  0  0  0  0  0  0
   -6.1860   -0.9450    0.9000 C   0  0  0  0  0  0  0  0  0  0  0  0
   -7.4990   -0.9190    1.0600 C   0  0  0  0  0  0  0  0  0  0  0  0
   -8.2440   -0.0310    0.3230 F   0  0  0  0  0  0  0  0  0  0  0  0
   -3.4410    0.8090   -1.1620 C   0  0  0  0  0  0  0  0  0  0  0  0
   -2.1640    0.1320   -1.2100 N   0  0  1  0  0  0  0  0  0  0  0  0
   -1.1240    1.0890   -1.3700 C   0  0  2  0  0  0  0  0  0  0  0  0
   -0.8510    1.3390   -2.8340 C   0  0  0  0  0  0  0  0  0  0  0  0
   -2.0260    1.8860   -3.5680 C   0  0  0  0  0  0  0  0  0  0  0  0
    0.1970    0.6550   -0.7830 C   0  0  0  0  0  0  0  0  0  0  0  0
    0.3980   -0.4500   -0.2810 O   0  0  0  0  0  0  0  0  0  0  0  0
    1.2560    1.5850   -0.8220 N   0  0  0  0  0  0  0  0  0  0  0  0
    2.5710    1.4380   -0.3610 C   0  0  0  0  0  0  0  0  0  0  0  0
    3.3910    2.5610   -0.2480 C   0  0  0  0  0  0  0  0  0  0  0  0
    4.6790    2.4100    0.1860 C   0  0  0  0  0  0  0  0  0  0  0  0
    5.1740    1.2030    0.5070 C   0  0  0  0  0  0  0  0  0  0  0  0
    4.4200    0.0590    0.4180 C   0  0  0  0  0  0  0  0  0  0  0  0
    3.1020    0.2250   -0.0280 C   0  0  0  0  0  0  0  0  0  0  0  0
    4.8610   -1.1880    0.7260 O   0  0  0  0  0  0  0  0  0  0  0  0
    6.0710   -1.5200    1.1600 N   0  0  0  0  0  0  0  0  0  0  0  0
    7.0550   -0.7360    1.3710 C   0  0  0  0  0  0  0  0  0  0  0  0
    8.3160   -1.2180    1.8410 C   0  0  0  0  0  0  0  0  0  0  0  0
    8.5070   -2.6670    2.0960 C   0  0  0  0  0  0  0  0  0  0  0  0
    9.2660   -0.4320    2.0410 O   0  0  0  0  0  0  0  0  0  0  0  0
    6.8480    1.0100    1.0710 S   0  0  0  0  0  0  0  0  0  0  0  0
   -2.0580   -0.6150    0.0290 C   0  0  0  0  0  0  0  0  0  0  0  0
  1  2  2  0
  2  3  1  0
  2  8  1  0
  3  4  2  0
  4  5  1  0
  4 32  1  0
  5  6  2  0
  5 11  1  0
  6  7  1  0
  6  8  1  0
  8  9  2  3
  9 10  1  0
 12 11  1  1
 12 13  1  0
 12 32  1  0
 13 14  1  6
 13 16  1  0
 14 15  1  0
 16 17  2  0
 16 18  1  0
 18 19  1  0
 19 20  2  0
 19 24  1  0
 20 21  1  0
 21 22  2  0
 22 23  1  0
 22 31  1  0
 23 24  2  0
 23 25  1  0
 25 26  1  0
 26 27  2  0
 27 28  1  0
 27 31  1  0
 28 29  1  0
 28 30  2  0
M  CHG  1  12   1
M  END
