
     RDKit          3D

 32 34  0  0  0  0  0  0  0  0999 V2000
   -5.3670   -3.6030   -2.3820 C   0  0  0  0  0  0  0  0  0  0  0  0
   -4.4300   -2.8240   -1.5300 C   0  0  0  0  0  0  0  0  0  0  0  0
   -3.2470   -3.3720   -1.1560 C   0  0  0  0  0  0  0  0  0  0  0  0
   -2.3760   -2.6550   -0.3640 C   0  0  0  0  0  0  0  0  0  0  0  0
   -2.6830   -1.3570    0.0720 C   0  0  0  0  0  0  0  0  0  0  0  0
   -1.8470   -0.7440    1.0130 N   0  0  0  0  0  0  0  0  0  0  0  0
   -0.4870   -1.0030    1.2700 C   0  0  0  0  0  0  0  0  0  0  0  0
    0.1020   -1.8600    0.6060 O   0  0  0  0  0  0  0  0  0  0  0  0
    0.2530   -0.3210    2.2670 N   0  0  0  0  0  0  0  0  0  0  0  0
    1.6130   -0.4440    2.6310 C   0  0  0  0  0  0  0  0  0  0  0  0
    2.6950   -0.0260    1.7300 C   0  0  0  0  0  0  0  0  0  0  0  0
    2.7980   -0.6520    0.3980 C   0  0  0  0  0  0  0  0  0  0  0  0
    3.8970   -0.2560   -0.3590 O   0  0  0  0  0  0  0  0  0  0  0  0
    5.2210   -0.3820   -0.2040 C   0  0  0  0  0  0  0  0  0  0  0  0
    5.8730   -1.0100    0.8280 C   0  0  0  0  0  0  0  0  0  0  0  0
    7.2750   -1.0790    0.8810 C   0  0  0  0  0  0  0  0  0  0  0  0
    8.0450   -0.5250   -0.0940 C   0  0  0  0  0  0  0  0  0  0  0  0
    7.4150    0.1110   -1.1420 C   0  0  0  0  0  0  0  0  0  0  0  0
    6.0560    0.1740   -1.1850 C   0  0  0  0  0  0  0  0  0  0  0  0
    5.4230    0.8640   -2.3230 C   0  0  0  0  0  0  0  0  0  0  0  0
    4.9120    2.2370   -1.9200 C   0  0  0  0  0  0  0  0  0  0  0  0
    5.9320    3.0570   -1.4580 O   0  0  0  0  0  0  0  0  0  0  0  0
   -3.8660   -0.7910   -0.3000 C   0  0  0  0  0  0  0  0  0  0  0  0
   -4.1760    0.5990   -0.0370 C   0  0  0  0  0  0  0  0  0  0  0  0
   -5.4430    1.0100   -0.0490 C   0  0  0  0  0  0  0  0  0  0  0  0
   -5.8710    2.3680    0.1990 C   0  0  0  0  0  0  0  0  0  0  0  0
   -7.1950    2.6420    0.3470 C   0  0  0  0  0  0  0  0  0  0  0  0
   -8.1510    1.6550    0.2670 O   0  0  0  0  0  0  0  0  0  0  0  0
   -4.8900    3.4640    0.2940 C   0  0  0  0  0  0  0  0  0  0  0  0
   -3.5250    2.9370    0.2920 C   0  0  0  0  0  0  0  0  0  0  0  0
   -3.1870    1.6570    0.1450 C   0  0  0  0  0  0  0  0  0  0  0  0
   -4.7310   -1.5320   -1.0970 C   0  0  0  0  0  0  0  0  0  0  0  0
  1  2  1  0
  2  3  2  0
  2 32  1  0
  3  4  1  0
  4  5  2  0
  5  6  1  0
  5 23  1  0
  6  7  1  0
  7  8  2  0
  7  9  1  0
  9 10  1  0
 10 11  1  0
 11 12  1  0
 12 13  1  0
 13 14  1  0
 14 15  2  0
 14 19  1  0
 15 16  1  0
 16 17  2  0
 17 18  1  0
 18 19  2  0
 19 20  1  0
 20 21  1  0
 21 22  1  0
 23 24  1  0
 23 32  2  0
 24 25  2  0
 24 31  1  0
 25 26  1  0
 26 27  2  3
 26 29  1  0
 27 28  1  0
 29 30  1  0
 30 31  2  0
M  END
