
     RDKit          3D

 32 35  0  0  0  0  0  0  0  0999 V2000
    7.2370    3.7350   -0.8290 C   0  0  0  0  0  0  0  0  0  0  0  0
    6.5600    2.5090   -0.6230 O   0  0  0  0  0  0  0  0  0  0  0  0
    7.1660    1.3140   -0.3500 C   0  0  0  0  0  0  0  0  0  0  0  0
    8.4160    1.2800   -0.2720 O   0  0  0  0  0  0  0  0  0  0  0  0
    6.3810    0.0730   -0.1470 C   0  0  0  0  0  0  0  0  0  0  0  0
    7.0580   -1.0990    0.1230 C   0  0  0  0  0  0  0  0  0  0  0  0
    6.3290   -2.2500    0.3110 C   0  0  0  0  0  0  0  0  0  0  0  0
    4.9300   -2.2190    0.2270 C   0  0  0  0  0  0  0  0  0  0  0  0
    4.2750   -1.0510   -0.0420 C   0  0  0  0  0  0  0  0  0  0  0  0
    2.8070   -0.9320   -0.1400 C   0  0  0  0  0  0  0  0  0  0  0  0
    2.3370    0.1140   -0.5920 O   0  0  0  0  0  0  0  0  0  0  0  0
    1.9350   -1.9580    0.2580 N   0  0  0  0  0  0  0  0  0  0  0  0
    0.5160   -1.9500    0.2020 C   0  0  0  0  0  0  0  0  0  0  0  0
   -0.1850   -3.0220    0.7740 C   0  0  0  0  0  0  0  0  0  0  0  0
   -1.5510   -3.1230    0.7720 C   0  0  0  0  0  0  0  0  0  0  0  0
   -2.3340   -2.1230    0.1760 C   0  0  0  0  0  0  0  0  0  0  0  0
   -1.6210   -1.0850   -0.3760 C   0  0  0  0  0  0  0  0  0  0  0  0
   -0.2560   -0.9790   -0.3770 C   0  0  0  0  0  0  0  0  0  0  0  0
   -2.6640    0.2110   -1.1170 S   0  0  0  0  0  0  0  0  0  0  0  0
   -4.1350    0.1710   -0.0530 C   0  0  0  0  0  0  0  0  0  0  0  0
   -4.8550    1.3010    0.2560 C   0  0  0  0  0  0  0  0  0  0  0  0
   -4.4220    2.5950   -0.3210 C   0  0  0  0  0  0  0  0  0  0  0  0
   -4.8450    2.7200   -1.7700 C   0  0  0  0  0  0  0  0  0  0  0  0
   -4.4400    3.9210   -2.2930 F   0  0  0  0  0  0  0  0  0  0  0  0
   -5.9500    1.2200    1.0800 C   0  0  0  0  0  0  0  0  0  0  0  0
   -6.6680    2.2230    1.3960 N   0  0  0  0  0  0  0  0  0  0  0  0
   -6.3190   -0.0150    1.5970 C   0  0  0  0  0  0  0  0  0  0  0  0
   -5.5920   -1.1100    1.2750 C   0  0  0  0  0  0  0  0  0  0  0  0
   -6.0170   -2.6990    1.9030 Cl  0  0  0  0  0  0  0  0  0  0  0  0
   -4.5000   -1.0190    0.4500 N   0  0  0  0  0  0  0  0  0  0  0  0
   -3.8020   -2.2210    0.1430 C   0  0  0  0  0  0  0  0  0  0  0  0
    5.0090    0.0960   -0.2280 C   0  0  0  0  0  0  0  0  0  0  0  0
  1  2  1  0
  2  3  1  0
  3  4  2  0
  3  5  1  0
  5  6  2  0
  5 32  1  0
  6  7  1  0
  7  8  2  0
  8  9  1  0
  9 10  1  0
  9 32  2  0
 10 11  2  0
 10 12  1  0
 12 13  1  0
 13 14  2  0
 13 18  1  0
 14 15  1  0
 15 16  2  0
 16 17  1  0
 16 31  1  0
 17 18  2  0
 17 19  1  0
 19 20  1  0
 20 21  2  0
 20 30  1  0
 21 22  1  0
 21 25  1  0
 22 23  1  0
 23 24  1  0
 25 26  2  0
 25 27  1  0
 27 28  2  0
 28 29  1  0
 28 30  1  0
 30 31  1  0
M  CHG  1  26   1
M  END
