
     RDKit          3D

 32 35  0  0  0  0  0  0  0  0999 V2000
    8.3750   -0.9880   -0.2410 C   0  0  0  0  0  0  0  0  0  0  0  0
    7.0750   -0.2970    0.0310 C   0  0  0  0  0  0  0  0  0  0  0  0
    5.8930   -0.9380   -0.2420 C   0  0  0  0  0  0  0  0  0  0  0  0
    4.6550   -0.2840    0.0160 C   0  0  0  0  0  0  0  0  0  0  0  0
    3.4190   -0.7760   -0.1970 C   0  0  0  0  0  0  0  0  0  0  0  0
    2.3380   -0.0760    0.0820 C   0  0  0  0  0  0  0  0  0  0  0  0
    0.9300   -0.1760    0.0250 N   0  0  0  0  0  0  0  0  0  0  0  0
    0.2330   -1.3000   -0.4540 C   0  0  0  0  0  0  0  0  0  0  0  0
    1.0320   -2.2470   -0.8410 O   0  0  0  0  0  0  0  0  0  0  0  0
   -1.1410   -1.5380   -0.5700 N   0  0  0  0  0  0  0  0  0  0  0  0
   -1.4210   -2.9220   -1.1490 C   0  0  0  0  0  0  0  0  0  0  0  0
   -2.2550   -0.7590   -0.2590 C   0  0  0  0  0  0  0  0  0  0  0  0
   -3.4030   -1.2940   -0.4930 O   0  0  0  0  0  0  0  0  0  0  0  0
   -2.2570    0.5630    0.2870 C   0  0  0  0  0  0  0  0  0  0  0  0
   -3.5650    1.1580    0.5230 N   0  0  2  0  0  0  0  0  0  0  0  0
   -3.4840    2.0050    1.7360 C   0  0  0  0  0  0  0  0  0  0  0  0
   -3.1120    1.1630    2.9110 C   0  0  0  0  0  0  0  0  0  0  0  0
   -3.4630   -0.1850    2.6890 O   0  0  0  0  0  0  0  0  0  0  0  0
   -4.5600   -0.4440    1.8570 C   0  0  0  0  0  0  0  0  0  0  0  0
   -4.6070    0.2450    0.7530 C   0  0  0  0  0  0  0  0  0  0  0  0
   -5.6980    0.0990   -0.1970 C   0  0  0  0  0  0  0  0  0  0  0  0
   -5.7810    0.7960   -1.3580 C   0  0  0  0  0  0  0  0  0  0  0  0
   -6.9850    0.4420   -2.1120 C   0  0  0  0  0  0  0  0  0  0  0  0
   -7.6340   -0.5680   -1.2590 C   0  0  0  0  0  0  0  0  0  0  0  0
   -6.8850   -0.7340   -0.1960 C   0  0  0  0  0  0  0  0  0  0  0  0
   -7.3260   -1.8780    1.0890 Cl  0  0  0  0  0  0  0  0  0  0  0  0
    3.0930    1.4880    0.7310 S   0  0  0  0  0  0  0  0  0  0  0  0
    4.8080    0.9710    0.5330 C   0  0  0  0  0  0  0  0  0  0  0  0
    5.9740    1.6160    0.8080 C   0  0  0  0  0  0  0  0  0  0  0  0
    7.1450    0.9680    0.5510 C   0  0  0  0  0  0  0  0  0  0  0  0
    8.4340    1.6140    0.8250 C   0  0  0  0  0  0  0  0  0  0  0  0
    9.0440    2.0630   -0.3550 F   0  0  0  0  0  0  0  0  0  0  0  0
  1  2  1  0
  2  3  2  0
  2 30  1  0
  3  4  1  0
  4  5  1  0
  4 28  2  0
  5  6  2  0
  6  7  1  0
  6 27  1  0
  7  8  1  0
  8  9  2  0
  8 10  1  0
 10 11  1  0
 10 12  1  0
 12 13  2  0
 12 14  1  0
 15 14  1  1
 15 16  1  0
 15 20  1  0
 16 17  1  0
 17 18  1  0
 18 19  1  0
 19 20  2  0
 20 21  1  0
 21 22  2  0
 21 25  1  0
 22 23  1  0
 23 24  1  0
 24 25  2  0
 25 26  1  0
 27 28  1  0
 28 29  1  0
 29 30  2  0
 30 31  1  0
 31 32  1  0
M  CHG  1  15   1
M  END
