
     RDKit          3D

 32 36  0  0  0  0  0  0  0  0999 V2000
   -1.2700    2.4070   -0.7380 O   0  0  0  0  0  0  0  0  0  0  0  0
   -1.2360    1.5800    0.1880 C   0  0  0  0  0  0  0  0  0  0  0  0
   -2.4590    0.9340    0.7140 C   0  0  0  0  0  0  0  0  0  0  0  0
   -3.6460    1.3990   -0.0940 C   0  0  1  0  0  0  0  0  0  0  0  0
   -3.4910    1.0190   -1.5160 C   0  0  0  0  0  0  0  0  0  0  0  0
   -4.1370   -0.0350   -1.9790 C   0  0  0  0  0  0  0  0  0  0  0  0
   -5.0160   -0.8640   -1.1470 C   0  0  1  0  0  0  0  0  0  0  0  0
   -4.4140   -2.1720   -0.7700 C   0  0  0  0  0  0  0  0  0  0  0  0
   -5.2740   -2.9070   -0.0030 F   0  0  0  0  0  0  0  0  0  0  0  0
   -5.5960   -0.1230    0.0110 C   0  0  0  0  0  0  0  0  0  0  0  0
   -4.9350    0.9180    0.4700 C   0  0  0  0  0  0  0  0  0  0  0  0
   -5.4490    1.7130    1.5960 C   0  0  0  0  0  0  0  0  0  0  0  0
   -6.5820    1.3690    2.1380 C   0  0  0  0  0  0  0  0  0  0  0  0
   -7.2070    2.3180    3.4940 Cl  0  0  0  0  0  0  0  0  0  0  0  0
   -7.2620    0.2870    1.6500 O   0  0  0  0  0  0  0  0  0  0  0  0
   -6.8840   -0.5500    0.6090 C   0  0  0  0  0  0  0  0  0  0  0  0
    0.0620    1.2860    0.7200 N   0  0  0  0  0  0  0  0  0  0  0  0
    1.2360    1.9200    0.1990 C   0  0  0  0  0  0  0  0  0  0  0  0
    2.4740    1.4860    0.8780 C   0  0  0  0  0  0  0  0  0  0  0  0
    3.4170    0.8010    0.2350 C   0  0  0  0  0  0  0  0  0  0  0  0
    3.3640    0.3150   -1.4430 S   0  0  0  0  0  0  0  0  0  0  0  0
    4.9660   -0.5140   -1.4400 C   0  0  0  0  0  0  0  0  0  0  0  0
    5.8240   -1.1950   -2.2120 N   0  0  0  0  0  0  0  0  0  0  0  0
    6.8700   -1.4960   -1.4260 C   0  0  0  0  0  0  0  0  0  0  0  0
    8.0240   -2.1840   -1.7180 C   0  0  0  0  0  0  0  0  0  0  0  0
    8.9450   -2.3540   -0.7120 C   0  0  0  0  0  0  0  0  0  0  0  0
    8.7260   -1.8560    0.5480 C   0  0  0  0  0  0  0  0  0  0  0  0
    7.5510   -1.1730    0.7890 C   0  0  0  0  0  0  0  0  0  0  0  0
    6.5920   -0.9720   -0.1800 C   0  0  0  0  0  0  0  0  0  0  0  0
    5.3570   -0.3410   -0.2100 N   0  0  0  0  0  0  0  0  0  0  0  0
    4.6230    0.3070    0.6640 C   0  0  0  0  0  0  0  0  0  0  0  0
    4.9240    0.5330    1.9140 O   0  0  0  0  0  0  0  0  0  0  0  0
  1  2  2  0
  2  3  1  0
  2 17  1  0
  4  3  1  1
  4  5  1  0
  4 11  1  0
  5  6  2  0
  6  7  1  0
  7  8  1  1
  7 10  1  0
  8  9  1  0
 10 11  2  0
 10 16  1  0
 11 12  1  0
 12 13  2  0
 13 14  1  0
 13 15  1  0
 15 16  1  0
 17 18  1  0
 18 19  1  0
 19 20  2  3
 20 21  1  0
 20 31  1  0
 21 22  1  0
 22 23  2  0
 22 30  1  0
 23 24  1  0
 24 25  2  0
 24 29  1  0
 25 26  1  0
 26 27  2  0
 27 28  1  0
 28 29  2  0
 29 30  1  0
 30 31  1  0
 31 32  2  0
M  END
