
     RDKit          3D

 39 41  0  0  0  0  0  0  0  0999 V2000
   -4.9880   -2.3840   -1.5890 C   0  0  0  0  0  0  0  0  0  0  0  0
   -4.4770   -2.9260   -2.6810 C   0  0  0  0  0  0  0  0  0  0  0  0
   -3.0310   -2.8580   -2.9810 C   0  0  0  0  0  0  0  0  0  0  0  0
   -2.2530   -2.1720   -1.9720 N   0  0  0  0  0  0  0  0  0  0  0  0
   -2.0760   -2.7200   -0.6690 C   0  0  0  0  0  0  0  0  0  0  0  0
   -2.5950   -3.9260   -0.3190 N   0  0  0  0  0  0  0  0  0  0  0  0
   -2.4070   -4.4480    0.9230 C   0  0  0  0  0  0  0  0  0  0  0  0
   -1.6720   -3.7320    1.8420 C   0  0  0  0  0  0  0  0  0  0  0  0
   -1.1420   -2.5060    1.4900 C   0  0  0  0  0  0  0  0  0  0  0  0
   -0.4570   -1.8330    2.3330 O   0  0  0  0  0  0  0  0  0  0  0  0
   -1.3340   -1.9790    0.2310 C   0  0  0  0  0  0  0  0  0  0  0  0
   -0.8040   -0.6910   -0.1710 C   0  0  0  0  0  0  0  0  0  0  0  0
   -1.5360    0.4790   -0.0710 C   0  0  0  0  0  0  0  0  0  0  0  0
   -1.0310    1.6970   -0.4530 C   0  0  0  0  0  0  0  0  0  0  0  0
   -1.7180    2.9130   -0.3650 N   0  0  0  0  0  0  0  0  0  0  0  0
   -2.9410    3.1200    0.2790 C   0  0  0  0  0  0  0  0  0  0  0  0
   -3.5530    2.1830    0.8650 O   0  0  0  0  0  0  0  0  0  0  0  0
   -3.5600    4.4470    0.2960 C   0  0  0  0  0  0  0  0  0  0  0  0
   -2.9700    5.3810   -0.2940 O   0  0  0  0  0  0  0  0  0  0  0  0
   -4.8320    4.7140    0.9740 C   0  0  2  0  0  0  0  0  0  0  0  0
   -5.2610    6.1720    0.7880 C   0  0  0  0  0  0  0  0  0  0  0  0
   -4.6070    4.4830    2.4760 C   0  0  0  0  0  0  0  0  0  0  0  0
   -3.5270    5.4340    2.9480 C   0  0  0  0  0  0  0  0  0  0  0  0
    0.2850    1.7120   -0.9630 C   0  0  0  0  0  0  0  0  0  0  0  0
    1.0300    0.5730   -1.0740 C   0  0  0  0  0  0  0  0  0  0  0  0
    2.3940    0.6390   -1.6010 C   0  0  0  0  0  0  0  0  0  0  0  0
    2.8330   -0.3740   -2.1760 O   0  0  0  0  0  0  0  0  0  0  0  0
    3.1880    1.7880   -1.4730 N   0  0  0  0  0  0  0  0  0  0  0  0
    4.5220    2.0270   -1.8930 C   0  0  0  0  0  0  0  0  0  0  0  0
    5.6130    1.3220   -1.2160 C   0  0  0  0  0  0  0  0  0  0  0  0
    5.5780   -0.1510   -1.2460 C   0  0  0  0  0  0  0  0  0  0  0  0
    6.8630   -0.6950   -0.5660 C   0  0  2  0  0  0  0  0  0  0  0  0
    6.7390   -2.2120   -0.6460 C   0  0  0  0  0  0  0  0  0  0  0  0
    6.8650   -0.3030    0.8860 C   0  0  0  0  0  0  0  0  0  0  0  0
    8.0420   -0.1660   -1.3280 C   0  0  0  0  0  0  0  0  0  0  0  0
    0.4720   -0.6170   -0.6740 C   0  0  0  0  0  0  0  0  0  0  0  0
   -1.6140   -4.5170    3.1250 C   0  0  0  0  0  0  0  0  0  0  0  0
   -2.8840   -5.3370    3.0140 C   0  0  0  0  0  0  0  0  0  0  0  0
   -2.8670   -5.7270    1.5340 C   0  0  0  0  0  0  0  0  0  0  0  0
  1  2  2  0
  2  3  1  0
  3  4  1  0
  4  5  1  0
  5  6  1  0
  5 11  2  0
  6  7  1  0
  7  8  2  0
  7 39  1  0
  8  9  1  0
  8 37  1  0
  9 10  2  0
  9 11  1  0
 11 12  1  0
 12 13  2  0
 12 36  1  0
 13 14  1  0
 14 15  1  0
 14 24  2  0
 15 16  1  0
 16 17  2  0
 16 18  1  0
 18 19  2  0
 18 20  1  0
 20 21  1  1
 20 22  1  0
 22 23  1  0
 24 25  1  0
 25 26  1  0
 25 36  2  0
 26 27  2  0
 26 28  1  0
 28 29  1  0
 29 30  1  0
 30 31  1  0
 31 32  1  0
 32 33  1  1
 32 34  1  0
 32 35  1  0
 37 38  1  0
 38 39  1  0
M  END
