
     RDKit          3D

 39 43  0  0  0  0  0  0  0  0999 V2000
   -3.3640    2.3250   -1.3000 C   0  0  0  0  0  0  0  0  0  0  0  0
   -4.2890    1.4900   -0.5110 C   0  0  0  0  0  0  0  0  0  0  0  0
   -3.8470    0.4770    0.3420 C   0  0  0  0  0  0  0  0  0  0  0  0
   -4.7140   -0.2980    1.0740 C   0  0  0  0  0  0  0  0  0  0  0  0
   -4.2080   -1.2830    1.9500 N   0  0  0  0  0  0  0  0  0  0  0  0
   -2.8650   -1.7540    2.0420 C   0  0  0  0  0  0  0  0  0  0  0  0
   -2.4420   -2.7560    1.0220 C   0  0  1  0  0  0  0  0  0  0  0  0
   -2.5640   -2.2220   -0.2990 N   0  0  0  0  0  0  0  0  0  0  0  0
   -1.4180   -1.7610   -0.9880 C   0  0  0  0  0  0  0  0  0  0  0  0
   -1.3800   -1.7060   -2.2380 O   0  0  0  0  0  0  0  0  0  0  0  0
   -0.1910   -1.3150   -0.2540 C   0  0  2  0  0  0  0  0  0  0  0  0
    0.9940   -1.5490   -1.1430 C   0  0  0  0  0  0  0  0  0  0  0  0
    2.2360   -1.0910   -0.4780 C   0  0  0  0  0  0  0  0  0  0  0  0
    2.1920   -0.5080    0.6170 O   0  0  0  0  0  0  0  0  0  0  0  0
    3.4640   -1.3360   -1.1210 N   0  0  0  0  0  0  0  0  0  0  0  0
    4.7370   -0.9850   -0.6560 C   0  0  0  0  0  0  0  0  0  0  0  0
    5.8560   -1.2610   -1.4360 C   0  0  0  0  0  0  0  0  0  0  0  0
    7.1410   -0.9480   -1.0440 C   0  0  0  0  0  0  0  0  0  0  0  0
    7.3790   -0.3320    0.1660 C   0  0  0  0  0  0  0  0  0  0  0  0
    8.7730   -0.0260    0.5210 C   0  0  0  0  0  0  0  0  0  0  0  0
    9.1390    1.3260    0.0280 C   0  0  0  0  0  0  0  0  0  0  0  0
    9.6570    1.6770   -1.1510 N   0  0  0  0  0  0  0  0  0  0  0  0
    9.8460    3.0280   -1.2000 C   0  0  0  0  0  0  0  0  0  0  0  0
   10.3280    3.6960   -2.1900 N   0  0  0  0  0  0  0  0  0  0  0  0
    9.4330    3.4920   -0.0270 N   0  0  0  0  0  0  0  0  0  0  0  0
    9.0080    2.4930    0.7170 N   0  0  0  0  0  0  0  0  0  0  0  0
    6.2910   -0.0490    0.9540 C   0  0  0  0  0  0  0  0  0  0  0  0
    4.9810   -0.3740    0.5450 C   0  0  0  0  0  0  0  0  0  0  0  0
   -0.0330   -2.1120    0.9500 N   0  0  0  0  0  0  0  0  0  0  0  0
   -1.0140   -3.0740    1.2750 C   0  0  0  0  0  0  0  0  0  0  0  0
   -0.6720   -4.1710    1.7670 O   0  0  0  0  0  0  0  0  0  0  0  0
   -6.0710   -0.0430    0.9400 C   0  0  0  0  0  0  0  0  0  0  0  0
   -6.5300    0.9470    0.1080 C   0  0  0  0  0  0  0  0  0  0  0  0
   -5.6440    1.7080   -0.6130 C   0  0  0  0  0  0  0  0  0  0  0  0
   -7.9960    1.1600    0.0190 C   0  0  1  0  0  0  0  0  0  0  0  0
   -8.3790    1.9480   -1.2110 C   0  0  0  0  0  0  0  0  0  0  0  0
   -8.6230   -0.2380   -0.0180 C   0  0  0  0  0  0  0  0  0  0  0  0
   -8.4160   -0.8060    1.3700 C   0  0  0  0  0  0  0  0  0  0  0  0
   -6.9770   -0.9020    1.7470 C   0  0  0  0  0  0  0  0  0  0  0  0
  1  2  1  0
  2  3  2  0
  2 34  1  0
  3  4  1  0
  4  5  1  0
  4 32  2  0
  5  6  1  0
  7  6  1  1
  7  8  1  0
  7 30  1  0
  8  9  1  0
  9 10  2  0
  9 11  1  0
 11 12  1  6
 11 29  1  0
 12 13  1  0
 13 14  2  0
 13 15  1  0
 15 16  1  0
 16 17  2  0
 16 28  1  0
 17 18  1  0
 18 19  2  0
 19 20  1  0
 19 27  1  0
 20 21  1  0
 21 22  1  0
 21 26  2  0
 22 23  1  0
 23 24  2  0
 23 25  1  0
 25 26  1  0
 27 28  2  0
 29 30  1  0
 30 31  2  0
 32 33  1  0
 32 39  1  0
 33 34  2  0
 33 35  1  0
 35 36  1  6
 35 37  1  0
 37 38  1  0
 38 39  1  0
M  CHG  2  24   1  26   1
M  END
