
     RDKit          3D

 39 42  0  0  0  0  0  0  0  0999 V2000
    5.6480   -3.0120   -1.4460 C   0  0  0  0  0  0  0  0  0  0  0  0
    5.1950   -1.8340   -2.2560 C   0  0  0  0  0  0  0  0  0  0  0  0
    4.1680   -1.0890   -1.4470 C   0  0  0  0  0  0  0  0  0  0  0  0
    4.5280    0.0880   -0.8360 C   0  0  0  0  0  0  0  0  0  0  0  0
    3.5960    0.8060   -0.0770 C   0  0  0  0  0  0  0  0  0  0  0  0
    3.9030    2.1060    0.3820 N   0  0  0  0  0  0  0  0  0  0  0  0
    5.2070    2.5550    0.6830 C   0  0  0  0  0  0  0  0  0  0  0  0
    6.2010    1.8290    0.5740 O   0  0  0  0  0  0  0  0  0  0  0  0
    5.4360    3.9650    1.1560 C   0  0  0  0  0  0  0  0  0  0  0  0
    7.1860    4.1910    1.4410 S   0  0  0  0  0  0  0  0  0  0  0  0
    7.9950    2.9720    1.0200 O   0  0  0  0  0  0  0  0  0  0  0  0
    2.3090    0.2760    0.0330 C   0  0  0  0  0  0  0  0  0  0  0  0
    1.2490    0.8790    0.8100 C   0  0  0  0  0  0  0  0  0  0  0  0
    1.4910    1.7220    1.8410 C   0  0  0  0  0  0  0  0  0  0  0  0
    0.4450    2.3100    2.5760 C   0  0  0  0  0  0  0  0  0  0  0  0
   -0.8260    1.9730    2.1840 C   0  0  0  0  0  0  0  0  0  0  0  0
   -1.1100    1.1050    1.1300 C   0  0  0  0  0  0  0  0  0  0  0  0
   -2.4810    1.0200    0.6990 C   0  0  0  0  0  0  0  0  0  0  0  0
   -3.1710    2.1610    0.7340 N   0  0  0  0  0  0  0  0  0  0  0  0
   -4.5070    2.2060    0.3330 N   0  0  0  0  0  0  0  0  0  0  0  0
   -5.2490    1.0960   -0.1340 C   0  0  0  0  0  0  0  0  0  0  0  0
   -6.6170    1.0980   -0.5600 C   0  0  0  0  0  0  0  0  0  0  0  0
   -7.5570    1.9310   -0.6770 C   0  0  0  0  0  0  0  0  0  0  0  0
   -7.7180    3.3140   -0.4360 C   0  0  0  0  0  0  0  0  0  0  0  0
   -9.0630    3.8570   -0.7410 N   0  0  0  0  0  0  0  0  0  0  0  0
   -6.9720    4.1970   -0.0180 O   0  0  0  0  0  0  0  0  0  0  0  0
   -4.5800   -0.0800   -0.1750 C   0  0  0  0  0  0  0  0  0  0  0  0
   -3.1590   -0.1400    0.2550 C   0  0  0  0  0  0  0  0  0  0  0  0
   -2.6940   -1.3710    0.4560 C   0  0  0  0  0  0  0  0  0  0  0  0
   -1.4760   -1.7230    1.1510 C   0  0  0  0  0  0  0  0  0  0  0  0
   -0.7800   -2.8030    0.7920 C   0  0  0  0  0  0  0  0  0  0  0  0
    0.4000   -3.2160    1.4020 N   0  0  0  0  0  0  0  0  0  0  0  0
   -1.3500   -3.6100   -0.3400 C   0  0  0  0  0  0  0  0  0  0  0  0
   -2.7710   -3.7360   -0.0380 N   0  0  0  0  0  0  0  0  0  0  0  0
   -3.4800   -2.5110   -0.0880 C   0  0  0  0  0  0  0  0  0  0  0  0
   -0.0430    0.5840    0.4760 N   0  0  0  0  0  0  0  0  0  0  0  0
    1.9970   -0.9280   -0.6180 C   0  0  0  0  0  0  0  0  0  0  0  0
    2.9220   -1.6180   -1.3600 C   0  0  0  0  0  0  0  0  0  0  0  0
    2.4870   -2.8830   -2.0040 C   0  0  0  0  0  0  0  0  0  0  0  0
  1  2  1  0
  2  3  1  0
  3  4  2  0
  3 38  1  0
  4  5  1  0
  5  6  1  0
  5 12  2  0
  6  7  1  0
  7  8  2  0
  7  9  1  0
  9 10  1  0
 10 11  2  0
 12 13  1  0
 12 37  1  0
 13 14  2  0
 13 36  1  0
 14 15  1  0
 15 16  2  0
 16 17  1  0
 17 18  1  0
 17 36  2  0
 18 19  2  0
 18 28  1  0
 19 20  1  0
 20 21  1  0
 21 22  1  0
 21 27  2  0
 22 23  2  3
 23 24  1  0
 24 25  1  0
 24 26  2  0
 27 28  1  0
 28 29  2  3
 29 30  1  0
 29 35  1  0
 30 31  2  0
 31 32  1  0
 31 33  1  0
 33 34  1  0
 34 35  1  0
 37 38  2  0
 38 39  1  0
M  CHG  1  34   1
M  END
