
     RDKit          3D

 39 41  0  0  0  0  0  0  0  0999 V2000
    9.0220   -2.0800    1.2270 C   0  0  0  0  0  0  0  0  0  0  0  0
    8.0010   -3.1930    1.1770 C   0  0  0  0  0  0  0  0  0  0  0  0
    6.6870   -2.7620    1.3910 O   0  0  0  0  0  0  0  0  0  0  0  0
    6.0220   -1.8490    0.6120 C   0  0  0  0  0  0  0  0  0  0  0  0
    6.6050   -1.3450   -0.3750 O   0  0  0  0  0  0  0  0  0  0  0  0
    4.5950   -1.4790    0.9710 C   0  0  0  0  0  0  0  0  0  0  0  0
    4.5830   -0.1550    1.6310 C   0  0  0  0  0  0  0  0  0  0  0  0
    3.3000    0.4170    2.0950 C   0  0  0  0  0  0  0  0  0  0  0  0
    2.3840    0.5560    0.9130 N   0  0  0  0  0  0  0  0  0  0  0  0
    1.5670   -0.6130    0.7240 C   0  0  0  0  0  0  0  0  0  0  0  0
    2.5230    1.6910    0.1140 C   0  0  0  0  0  0  0  0  0  0  0  0
    3.5680    2.4500    0.4140 O   0  0  0  0  0  0  0  0  0  0  0  0
    1.7650    2.1810   -0.9810 C   0  0  0  0  0  0  0  0  0  0  0  0
    2.4800    3.0320   -1.9110 C   0  0  0  0  0  0  0  0  0  0  0  0
    3.8800    3.1970   -1.6940 N   0  0  0  0  0  0  0  0  0  0  0  0
    1.8410    3.6240   -2.9390 C   0  0  0  0  0  0  0  0  0  0  0  0
    0.5230    3.4250   -3.1070 N   0  0  0  0  0  0  0  0  0  0  0  0
   -0.1680    2.6550   -2.2730 C   0  0  0  0  0  0  0  0  0  0  0  0
    0.4440    2.0130   -1.1780 C   0  0  0  0  0  0  0  0  0  0  0  0
   -0.4940    1.4140   -0.2290 C   0  0  0  0  0  0  0  0  0  0  0  0
   -0.4520    1.6180    0.9950 O   0  0  0  0  0  0  0  0  0  0  0  0
   -1.5660    0.5390   -0.6880 N   0  0  0  0  0  0  0  0  0  0  0  0
   -2.5110   -0.0300    0.2140 C   0  0  0  0  0  0  0  0  0  0  0  0
   -2.5260   -1.2850    0.6620 C   0  0  0  0  0  0  0  0  0  0  0  0
   -1.6650   -2.3460    0.0970 C   0  0  0  0  0  0  0  0  0  0  0  0
   -2.2980   -3.0010   -1.0980 C   0  0  1  0  0  0  0  0  0  0  0  0
   -3.6480   -3.6210   -0.8010 C   0  0  0  0  0  0  0  0  0  0  0  0
   -2.2730   -2.2890   -2.3860 C   0  0  0  0  0  0  0  0  0  0  0  0
   -0.8330   -2.0430   -2.8530 C   0  0  0  0  0  0  0  0  0  0  0  0
   -3.4430   -1.7070    1.6340 C   0  0  0  0  0  0  0  0  0  0  0  0
   -4.3360   -0.7910    2.1180 C   0  0  0  0  0  0  0  0  0  0  0  0
   -5.3100   -1.2430    3.1550 C   0  0  0  0  0  0  0  0  0  0  0  0
   -4.3440    0.5200    1.6660 C   0  0  0  0  0  0  0  0  0  0  0  0
   -3.4480    0.9260    0.7200 C   0  0  0  0  0  0  0  0  0  0  0  0
   -3.6870    2.3380    0.4170 C   0  0  1  0  0  0  0  0  0  0  0  0
   -4.4770    2.5280   -0.8690 C   0  0  0  0  0  0  0  0  0  0  0  0
   -4.6910    3.9990   -1.1280 C   0  0  0  0  0  0  0  0  0  0  0  0
   -4.4220    2.8710    1.6180 C   0  0  0  0  0  0  0  0  0  0  0  0
   -5.2200    1.6590    2.0650 C   0  0  0  0  0  0  0  0  0  0  0  0
  1  2  1  0
  2  3  1  0
  3  4  1  0
  4  5  2  0
  4  6  1  0
  6  7  1  0
  7  8  1  0
  8  9  1  0
  9 10  1  0
  9 11  1  0
 11 12  2  0
 11 13  1  0
 13 14  2  0
 13 19  1  0
 14 15  1  0
 14 16  1  0
 16 17  2  0
 17 18  1  0
 18 19  2  0
 19 20  1  0
 20 21  2  0
 20 22  1  0
 22 23  1  0
 23 24  2  0
 23 34  1  0
 24 25  1  0
 24 30  1  0
 25 26  1  0
 26 27  1  1
 26 28  1  0
 28 29  1  0
 30 31  2  0
 31 32  1  0
 31 33  1  0
 33 34  2  0
 33 39  1  0
 34 35  1  0
 35 36  1  6
 35 38  1  0
 36 37  1  0
 38 39  1  0
M  END
