
     RDKit          3D

 39 42  0  0  0  0  0  0  0  0999 V2000
    3.7680    4.6510   -4.9840 C   0  0  0  0  0  0  0  0  0  0  0  0
    3.5010    3.4410   -4.5970 C   0  0  0  0  0  0  0  0  0  0  0  0
    2.6970    3.1910   -3.3190 C   0  0  0  0  0  0  0  0  0  0  0  0
    3.5830    2.4040   -2.4510 C   0  0  0  0  0  0  0  0  0  0  0  0
    3.3010    2.0140   -1.0940 C   0  0  0  0  0  0  0  0  0  0  0  0
    2.1120    1.1940   -0.6760 C   0  0  1  0  0  0  0  0  0  0  0  0
    0.8650    1.9500   -0.9430 C   0  0  0  0  0  0  0  0  0  0  0  0
   -0.3880    1.3180   -0.6290 N   0  0  0  0  0  0  0  0  0  0  0  0
   -1.2100    0.5870   -1.5270 C   0  0  0  0  0  0  0  0  0  0  0  0
   -1.0760    0.3240   -2.7380 O   0  0  0  0  0  0  0  0  0  0  0  0
   -2.4050    0.1030   -0.7890 C   0  0  0  0  0  0  0  0  0  0  0  0
   -3.4590   -0.6720   -1.3390 N   0  0  0  0  0  0  0  0  0  0  0  0
   -3.6680   -2.0430   -0.9230 C   0  0  0  0  0  0  0  0  0  0  0  0
   -4.8420   -2.6130   -1.7160 C   0  0  0  0  0  0  0  0  0  0  0  0
   -5.8860   -1.6950   -1.5880 O   0  0  0  0  0  0  0  0  0  0  0  0
   -5.6310   -0.6920   -2.5180 C   0  0  0  0  0  0  0  0  0  0  0  0
   -4.3050   -0.0390   -2.3350 C   0  0  0  0  0  0  0  0  0  0  0  0
   -2.3200    0.5030    0.4450 C   0  0  0  0  0  0  0  0  0  0  0  0
   -3.2570    0.2670    1.5280 C   0  0  0  0  0  0  0  0  0  0  0  0
   -2.7640   -0.0390    2.8020 C   0  0  0  0  0  0  0  0  0  0  0  0
   -3.6380   -0.2540    3.8380 C   0  0  0  0  0  0  0  0  0  0  0  0
   -5.0080   -0.1830    3.6900 C   0  0  0  0  0  0  0  0  0  0  0  0
   -5.9300   -0.4220    4.8340 C   0  0  0  0  0  0  0  0  0  0  0  0
   -5.4630    0.1200    2.4270 C   0  0  0  0  0  0  0  0  0  0  0  0
   -4.6350    0.3450    1.3500 C   0  0  0  0  0  0  0  0  0  0  0  0
   -1.0640    1.2870    0.6290 C   0  0  2  0  0  0  0  0  0  0  0  0
   -1.4640    2.6150    1.0700 N   0  0  0  0  0  0  0  0  0  0  0  0
    2.2200   -0.1070   -1.4270 C   0  0  0  0  0  0  0  0  0  0  0  0
    2.2760   -1.3420   -0.5860 C   0  0  2  0  0  0  0  0  0  0  0  0
    1.0090   -1.7530    0.0710 C   0  0  0  0  0  0  0  0  0  0  0  0
    3.3860   -1.1920    0.4090 C   0  0  2  0  0  0  0  0  0  0  0  0
    3.6680   -2.4880    1.0880 C   0  0  0  0  0  0  0  0  0  0  0  0
    4.7970   -2.3230    2.0910 C   0  0  0  0  0  0  0  0  0  0  0  0
    5.0930   -3.5970    2.7780 C   0  0  0  0  0  0  0  0  0  0  0  0
    6.0850   -3.7300    3.7770 N   0  0  0  0  0  0  0  0  0  0  0  0
    4.4310   -4.6160    2.4590 O   0  0  0  0  0  0  0  0  0  0  0  0
    2.9690   -0.1530    1.4340 C   0  0  0  0  0  0  0  0  0  0  0  0
    2.3220    1.0080    0.8150 C   0  0  0  0  0  0  0  0  0  0  0  0
    1.9190    1.8980    1.5340 O   0  0  0  0  0  0  0  0  0  0  0  0
  1  2  2  0
  2  3  1  0
  3  4  1  0
  4  5  1  0
  6  5  1  6
  6  7  1  0
  6 28  1  0
  6 38  1  0
  7  8  1  0
  8  9  1  0
  8 26  1  0
  9 10  2  0
  9 11  1  0
 11 12  1  0
 11 18  2  0
 12 13  1  0
 12 17  1  0
 13 14  1  0
 14 15  1  0
 15 16  1  0
 16 17  1  0
 18 19  1  0
 18 26  1  0
 19 20  2  0
 19 25  1  0
 20 21  1  0
 21 22  2  0
 22 23  1  0
 22 24  1  0
 24 25  2  0
 26 27  1  6
 28 29  1  0
 29 30  1  1
 29 31  1  0
 31 32  1  1
 31 37  1  0
 32 33  1  0
 33 34  1  0
 34 35  1  0
 34 36  2  0
 37 38  1  0
 38 39  2  0
M  END
