
     RDKit          3D

 39 41  0  0  0  0  0  0  0  0999 V2000
   -4.5960   -3.6820    0.8500 C   0  0  0  0  0  0  0  0  0  0  0  0
   -4.2590   -2.2060    0.6590 C   0  0  0  0  0  0  0  0  0  0  0  0
   -3.8400   -1.5920    1.9720 C   0  0  2  0  0  0  0  0  0  0  0  0
   -5.0420   -1.7250    2.8990 C   0  0  0  0  0  0  0  0  0  0  0  0
   -3.5980   -0.1570    1.7760 N   0  0  0  0  0  0  0  0  0  0  0  0
   -2.4980    0.2740    0.9800 C   0  0  0  0  0  0  0  0  0  0  0  0
   -1.5360   -0.6770    0.6160 C   0  0  0  0  0  0  0  0  0  0  0  0
   -0.4970   -0.2600   -0.1770 C   0  0  0  0  0  0  0  0  0  0  0  0
   -0.4220    1.0280   -0.5980 C   0  0  0  0  0  0  0  0  0  0  0  0
    0.6280    1.4370   -1.5130 C   0  0  0  0  0  0  0  0  0  0  0  0
    0.4730    2.6900   -1.9250 O   0  0  0  0  0  0  0  0  0  0  0  0
    1.7440    0.7850   -2.0430 C   0  0  0  0  0  0  0  0  0  0  0  0
    2.6010   -0.1540   -1.3750 N   0  0  0  0  0  0  0  0  0  0  0  0
    3.6620    0.5070   -0.6800 C   0  0  0  0  0  0  0  0  0  0  0  0
    3.7060    1.3170    0.1100 O   0  0  0  0  0  0  0  0  0  0  0  0
    5.2000   -0.1250   -1.2500 N   0  0  0  0  0  0  0  0  0  0  0  0
    6.0070    0.9690   -0.5500 C   0  0  0  0  0  0  0  0  0  0  0  0
    5.6800    2.0390   -0.2150 O   0  0  0  0  0  0  0  0  0  0  0  0
    7.3420    0.4380   -0.3400 N   0  0  0  0  0  0  0  0  0  0  0  0
    8.3900    1.1350    0.2880 C   0  0  2  0  0  0  0  0  0  0  0  0
    9.4150    0.2980    1.0210 C   0  0  0  0  0  0  0  0  0  0  0  0
    8.4550    1.1380    1.8090 C   0  0  2  0  0  0  0  0  0  0  0  0
    7.4290    0.5020    2.6480 C   0  0  0  0  0  0  0  0  0  0  0  0
    6.1910    1.0970    2.4880 O   0  0  0  0  0  0  0  0  0  0  0  0
    2.4990   -1.5320   -1.5860 C   0  0  0  0  0  0  0  0  0  0  0  0
    1.5960   -2.0950   -2.5080 C   0  0  0  0  0  0  0  0  0  0  0  0
    1.4680   -3.3450   -2.8480 C   0  0  0  0  0  0  0  0  0  0  0  0
    2.3310   -4.2640   -2.2320 C   0  0  0  0  0  0  0  0  0  0  0  0
    2.2450   -5.7240   -2.5560 C   0  0  0  0  0  0  0  0  0  0  0  0
    3.3020   -3.9090   -1.2810 C   0  0  0  0  0  0  0  0  0  0  0  0
    3.2800   -2.4420   -1.0310 C   0  0  0  0  0  0  0  0  0  0  0  0
   -1.3850    1.9920   -0.2430 C   0  0  0  0  0  0  0  0  0  0  0  0
   -2.4710    1.5700    0.6010 C   0  0  0  0  0  0  0  0  0  0  0  0
   -3.5620    2.5760    0.8870 C   0  0  0  0  0  0  0  0  0  0  0  0
   -4.5640    2.3780   -0.2280 C   0  0  0  0  0  0  0  0  0  0  0  0
   -5.7850    3.2010   -0.1930 C   0  0  2  0  0  0  0  0  0  0  0  0
   -6.6070    2.8540   -1.4360 C   0  0  0  0  0  0  0  0  0  0  0  0
   -5.4490    4.6440   -0.2190 C   0  0  0  0  0  0  0  0  0  0  0  0
   -6.6720    2.8930    1.0040 C   0  0  0  0  0  0  0  0  0  0  0  0
  1  2  1  0
  2  3  1  0
  3  4  1  1
  3  5  1  0
  5  6  1  0
  6  7  2  0
  6 33  1  0
  7  8  1  0
  8  9  2  0
  9 10  1  0
  9 32  1  0
 10 11  2  0
 10 12  1  0
 12 13  1  0
 13 14  1  0
 13 25  1  0
 14 15  2  0
 14 16  1  0
 16 17  1  0
 17 18  2  0
 17 19  1  0
 20 19  1  1
 20 21  1  0
 20 22  1  0
 21 22  1  0
 22 23  1  1
 23 24  1  0
 25 26  2  0
 25 31  1  0
 26 27  1  0
 27 28  2  0
 28 29  1  0
 28 30  1  0
 30 31  2  0
 32 33  2  0
 33 34  1  0
 34 35  1  0
 35 36  1  0
 36 37  1  6
 36 38  1  0
 36 39  1  0
M  END
