
     RDKit          3D

 39 41  0  0  0  0  0  0  0  0999 V2000
   -4.8810   -4.7990    0.5650 C   0  0  0  0  0  0  0  0  0  0  0  0
   -5.5720   -3.7080    1.3250 C   0  0  0  0  0  0  0  0  0  0  0  0
   -5.4310   -2.3680    0.5940 C   0  0  2  0  0  0  0  0  0  0  0  0
   -5.9880   -2.4750   -0.6540 O   0  0  0  0  0  0  0  0  0  0  0  0
   -3.9920   -2.0130    0.6290 C   0  0  0  0  0  0  0  0  0  0  0  0
   -3.6720   -0.6540   -0.0520 C   0  0  2  0  0  0  0  0  0  0  0  0
   -4.1110   -0.8350   -1.4750 C   0  0  0  0  0  0  0  0  0  0  0  0
   -2.2340   -0.4420    0.1900 C   0  0  0  0  0  0  0  0  0  0  0  0
   -1.4920    0.7150   -0.2370 C   0  0  1  0  0  0  0  0  0  0  0  0
   -1.4140    1.0590   -1.6990 C   0  0  0  0  0  0  0  0  0  0  0  0
   -0.0680    1.7500   -1.9840 C   0  0  0  0  0  0  0  0  0  0  0  0
    0.2480    2.7340   -0.9530 N   0  0  0  0  0  0  0  0  0  0  0  0
    1.4810    3.3840   -0.8440 C   0  0  0  0  0  0  0  0  0  0  0  0
    1.6940    4.0420    0.2640 O   0  0  0  0  0  0  0  0  0  0  0  0
    2.6060    3.4760   -1.7580 C   0  0  0  0  0  0  0  0  0  0  0  0
    2.6240    2.8490   -3.0000 N   0  0  0  0  0  0  0  0  0  0  0  0
    2.0900    3.6470   -4.1370 C   0  0  0  0  0  0  0  0  0  0  0  0
    3.0760    1.5760   -3.3130 C   0  0  0  0  0  0  0  0  0  0  0  0
    3.0360    1.2920   -4.5930 O   0  0  0  0  0  0  0  0  0  0  0  0
    3.5790    0.5150   -2.4880 C   0  0  0  0  0  0  0  0  0  0  0  0
    3.7220    0.4360   -1.1990 C   0  0  0  0  0  0  0  0  0  0  0  0
    4.2530   -0.7050   -0.4640 C   0  0  0  0  0  0  0  0  0  0  0  0
    4.3400   -0.6810    0.9310 C   0  0  0  0  0  0  0  0  0  0  0  0
    4.8410   -1.7180    1.6570 C   0  0  0  0  0  0  0  0  0  0  0  0
    5.3000   -2.8770    1.0170 C   0  0  0  0  0  0  0  0  0  0  0  0
    5.7990   -3.9310    1.8190 N   0  0  0  0  0  0  0  0  0  0  0  0
    6.5380   -5.0240    1.3390 C   0  0  0  0  0  0  0  0  0  0  0  0
    7.0110   -6.0920    2.3030 C   0  0  0  0  0  0  0  0  0  0  0  0
    6.8220   -5.1420    0.1290 O   0  0  0  0  0  0  0  0  0  0  0  0
    5.2040   -2.8760   -0.3490 C   0  0  0  0  0  0  0  0  0  0  0  0
    4.6930   -1.8190   -1.0960 C   0  0  0  0  0  0  0  0  0  0  0  0
   -0.7740    3.0110    0.0310 C   0  0  0  0  0  0  0  0  0  0  0  0
   -0.8710    4.2580    0.5780 C   0  0  0  0  0  0  0  0  0  0  0  0
   -1.8350    4.5430    1.5520 C   0  0  0  0  0  0  0  0  0  0  0  0
   -1.8860    5.8640    2.0870 N   0  0  0  0  0  0  0  0  0  0  0  0
   -2.7120    3.5810    1.9880 C   0  0  0  0  0  0  0  0  0  0  0  0
   -3.7480    3.8500    3.0210 C   0  0  0  0  0  0  0  0  0  0  0  0
   -2.5750    2.3290    1.4000 C   0  0  0  0  0  0  0  0  0  0  0  0
   -1.6670    2.0040    0.4590 C   0  0  0  0  0  0  0  0  0  0  0  0
  1  2  1  0
  2  3  1  0
  3  4  1  6
  3  5  1  0
  5  6  1  0
  6  7  1  6
  6  8  1  0
  9  8  1  6
  9 10  1  0
  9 39  1  0
 10 11  1  0
 11 12  1  0
 12 13  1  0
 12 32  1  0
 13 14  2  0
 13 15  1  0
 15 16  1  0
 16 17  1  0
 16 18  1  0
 18 19  2  0
 18 20  1  0
 20 21  2  3
 21 22  1  0
 22 23  2  0
 22 31  1  0
 23 24  1  0
 24 25  2  0
 25 26  1  0
 25 30  1  0
 26 27  1  0
 27 28  1  0
 27 29  2  0
 30 31  2  0
 32 33  2  0
 32 39  1  0
 33 34  1  0
 34 35  1  0
 34 36  2  0
 36 37  1  0
 36 38  1  0
 38 39  2  0
M  END
