
     RDKit          3D

 39 41  0  0  0  0  0  0  0  0999 V2000
   -7.5260    3.3450    1.5240 C   0  0  0  0  0  0  0  0  0  0  0  0
   -7.4870    2.7220    0.1480 C   0  0  0  0  0  0  0  0  0  0  0  0
   -8.4010    1.6510    0.0280 N   0  0  0  0  0  0  0  0  0  0  0  0
   -8.3460    0.3820    0.0480 C   0  0  0  0  0  0  0  0  0  0  0  0
   -9.6550   -0.3760   -0.1380 C   0  0  0  0  0  0  0  0  0  0  0  0
   -7.1600   -0.4610    0.3690 C   0  0  0  0  0  0  0  0  0  0  0  0
   -6.0420    0.0470    0.9690 C   0  0  0  0  0  0  0  0  0  0  0  0
   -5.0190   -0.7270    1.3320 C   0  0  0  0  0  0  0  0  0  0  0  0
   -3.7300   -0.4310    1.9850 C   0  0  0  0  0  0  0  0  0  0  0  0
   -2.9250    0.5410    1.3070 N   0  0  0  0  0  0  0  0  0  0  0  0
   -2.9840    0.3130   -0.1090 C   0  0  0  0  0  0  0  0  0  0  0  0
   -2.0020   -0.6250   -0.6570 C   0  0  0  0  0  0  0  0  0  0  0  0
   -1.0750   -1.2690    0.1280 C   0  0  0  0  0  0  0  0  0  0  0  0
   -0.1750   -2.1330   -0.4370 C   0  0  0  0  0  0  0  0  0  0  0  0
    0.8440   -2.8680    0.3250 C   0  0  0  0  0  0  0  0  0  0  0  0
    2.0920   -2.1520    0.2960 N   0  0  0  0  0  0  0  0  0  0  0  0
    2.3950   -1.0770    1.1420 C   0  0  0  0  0  0  0  0  0  0  0  0
    1.4830   -0.7430    1.9870 O   0  0  0  0  0  0  0  0  0  0  0  0
    3.6240   -0.2800    1.1930 C   0  0  0  0  0  0  0  0  0  0  0  0
    4.5640   -0.6840    0.1990 N   0  0  0  0  0  0  0  0  0  0  0  0
    5.8500   -0.0120    0.1570 C   0  0  0  0  0  0  0  0  0  0  0  0
    6.0930    0.8840    0.9940 O   0  0  0  0  0  0  0  0  0  0  0  0
    6.8140   -0.3590   -0.8060 N   0  0  0  0  0  0  0  0  0  0  0  0
    8.0990    0.1890   -0.9240 C   0  0  0  0  0  0  0  0  0  0  0  0
    8.7620    0.0200   -2.1500 C   0  0  0  0  0  0  0  0  0  0  0  0
   10.0490    0.4710   -2.3570 C   0  0  0  0  0  0  0  0  0  0  0  0
   10.7220    1.1080   -1.3450 C   0  0  0  0  0  0  0  0  0  0  0  0
   12.0450    1.5750   -1.5450 N   0  0  0  0  0  0  0  0  0  0  0  0
   10.0930    1.2970   -0.1000 C   0  0  0  0  0  0  0  0  0  0  0  0
   10.7660    1.9010    0.8400 O   0  0  0  0  0  0  0  0  0  0  0  0
   11.4010    2.4870    1.7730 C   0  0  0  0  0  0  0  0  0  0  0  0
    8.7710    0.8250    0.0830 C   0  0  0  0  0  0  0  0  0  0  0  0
   -0.2250   -2.3370   -1.8010 C   0  0  0  0  0  0  0  0  0  0  0  0
   -1.1390   -1.7060   -2.5960 C   0  0  0  0  0  0  0  0  0  0  0  0
   -2.0420   -0.8420   -2.0430 C   0  0  0  0  0  0  0  0  0  0  0  0
   -3.0200   -0.1610   -2.8420 N   0  0  0  0  0  0  0  0  0  0  0  0
   -5.5650   -2.3620    0.8310 S   0  0  0  0  0  0  0  0  0  0  0  0
   -7.1430   -1.8200    0.1710 C   0  0  0  0  0  0  0  0  0  0  0  0
   -8.0860   -2.7960   -0.4680 C   0  0  0  0  0  0  0  0  0  0  0  0
  1  2  1  0
  2  3  1  0
  3  4  2  3
  4  5  1  0
  4  6  1  0
  6  7  1  0
  6 38  2  0
  7  8  2  0
  8  9  1  0
  8 37  1  0
  9 10  1  0
 10 11  1  0
 11 12  1  0
 12 13  2  0
 12 35  1  0
 13 14  1  0
 14 15  1  0
 14 33  2  0
 15 16  1  0
 16 17  1  0
 17 18  2  0
 17 19  1  0
 19 20  1  0
 20 21  1  0
 21 22  2  0
 21 23  1  0
 23 24  1  0
 24 25  2  0
 24 32  1  0
 25 26  1  0
 26 27  2  0
 27 28  1  0
 27 29  1  0
 29 30  1  0
 29 32  2  0
 30 31  1  0
 33 34  1  0
 34 35  2  0
 35 36  1  0
 37 38  1  0
 38 39  1  0
M  CHG  2   3   1  10   1
M  END
