
     RDKit          3D

 39 42  0  0  0  0  0  0  0  0999 V2000
   -0.1130    5.8230    1.6370 C   0  0  0  0  0  0  0  0  0  0  0  0
   -1.0430    4.8880    1.6280 C   0  0  0  0  0  0  0  0  0  0  0  0
   -0.9830    3.7050    2.5160 C   0  0  0  0  0  0  0  0  0  0  0  0
   -0.8680    2.3860    1.7230 C   0  0  0  0  0  0  0  0  0  0  0  0
   -2.0470    2.2490    0.8700 C   0  0  0  0  0  0  0  0  0  0  0  0
   -2.2550    1.0850    0.0070 C   0  0  1  0  0  0  0  0  0  0  0  0
   -1.3710    0.7240   -1.0840 C   0  0  0  0  0  0  0  0  0  0  0  0
    0.0070    0.4270   -0.9330 N   0  0  0  0  0  0  0  0  0  0  0  0
    1.0490    1.3650   -1.1010 C   0  0  0  0  0  0  0  0  0  0  0  0
    0.9380    2.6080   -1.4050 O   0  0  0  0  0  0  0  0  0  0  0  0
    2.3280    0.7080   -0.8740 C   0  0  0  0  0  0  0  0  0  0  0  0
    3.6040    1.3820   -0.9800 N   0  0  0  0  0  0  0  0  0  0  0  0
    4.0990    2.2250    0.0600 C   0  0  0  0  0  0  0  0  0  0  0  0
    4.5380    3.5610   -0.5200 C   0  0  0  0  0  0  0  0  0  0  0  0
    5.4070    3.3970   -1.5780 O   0  0  0  0  0  0  0  0  0  0  0  0
    5.6810    2.1020   -1.9340 C   0  0  0  0  0  0  0  0  0  0  0  0
    4.4380    1.2580   -2.1760 C   0  0  0  0  0  0  0  0  0  0  0  0
    2.1060   -0.5440   -0.5890 C   0  0  0  0  0  0  0  0  0  0  0  0
    3.1520   -1.5810   -0.2830 C   0  0  0  0  0  0  0  0  0  0  0  0
    4.1880   -1.3280    0.5760 C   0  0  0  0  0  0  0  0  0  0  0  0
    5.1450   -2.2930    0.8290 C   0  0  0  0  0  0  0  0  0  0  0  0
    5.0960   -3.5400    0.2320 C   0  0  0  0  0  0  0  0  0  0  0  0
    6.1330   -4.5650    0.5180 C   0  0  0  0  0  0  0  0  0  0  0  0
    4.0590   -3.8130   -0.6350 C   0  0  0  0  0  0  0  0  0  0  0  0
    3.1180   -2.8260   -0.8680 C   0  0  0  0  0  0  0  0  0  0  0  0
    0.6620   -0.8050   -0.5960 C   0  0  2  0  0  0  0  0  0  0  0  0
    0.3000   -1.8940   -1.4800 N   0  0  0  0  0  0  0  0  0  0  0  0
   -2.6300   -0.1690    0.8320 C   0  0  0  0  0  0  0  0  0  0  0  0
   -4.0970   -0.1170    1.2760 C   0  0  2  0  0  0  0  0  0  0  0  0
   -4.2390   -1.1240    2.3890 C   0  0  0  0  0  0  0  0  0  0  0  0
   -5.0240   -0.3440    0.1330 C   0  0  2  0  0  0  0  0  0  0  0  0
   -5.5450   -1.7210   -0.0660 C   0  0  0  0  0  0  0  0  0  0  0  0
   -4.4930   -2.7700   -0.3000 C   0  0  0  0  0  0  0  0  0  0  0  0
   -5.2050   -4.0800   -0.4960 C   0  0  0  0  0  0  0  0  0  0  0  0
   -4.4070   -5.2140   -0.7670 N   0  0  0  0  0  0  0  0  0  0  0  0
   -6.4460   -4.1920   -0.4300 O   0  0  0  0  0  0  0  0  0  0  0  0
   -4.4040    0.2100   -1.1630 C   0  0  0  0  0  0  0  0  0  0  0  0
   -3.5870    1.3600   -0.7100 C   0  0  0  0  0  0  0  0  0  0  0  0
   -3.8810    2.5150   -0.8590 O   0  0  0  0  0  0  0  0  0  0  0  0
  1  2  2  0
  2  3  1  0
  3  4  1  0
  4  5  1  0
  6  5  1  1
  6  7  1  0
  6 28  1  0
  6 38  1  0
  7  8  1  0
  8  9  1  0
  8 26  1  0
  9 10  2  0
  9 11  1  0
 11 12  1  0
 11 18  2  0
 12 13  1  0
 12 17  1  0
 13 14  1  0
 14 15  1  0
 15 16  1  0
 16 17  1  0
 18 19  1  0
 18 26  1  0
 19 20  2  0
 19 25  1  0
 20 21  1  0
 21 22  2  0
 22 23  1  0
 22 24  1  0
 24 25  2  0
 26 27  1  6
 28 29  1  0
 29 30  1  1
 29 31  1  0
 31 32  1  6
 31 37  1  0
 32 33  1  0
 33 34  1  0
 34 35  1  0
 34 36  2  0
 37 38  1  0
 38 39  2  0
M  END
