
     RDKit          3D

 39 42  0  0  0  0  0  0  0  0999 V2000
    5.9880    0.3920   -3.2090 C   0  0  0  0  0  0  0  0  0  0  0  0
    7.2570    1.0110   -2.6700 C   0  0  0  0  0  0  0  0  0  0  0  0
    6.9450    2.2050   -1.8080 C   0  0  0  0  0  0  0  0  0  0  0  0
    6.0990    1.7680   -0.6780 C   0  0  0  0  0  0  0  0  0  0  0  0
    6.6170    1.3390    0.5280 C   0  0  0  0  0  0  0  0  0  0  0  0
    5.5200    1.0250    1.3030 C   0  0  0  0  0  0  0  0  0  0  0  0
    4.3910    1.2740    0.5420 C   0  0  0  0  0  0  0  0  0  0  0  0
    3.0610    1.0790    0.9760 N   0  0  0  0  0  0  0  0  0  0  0  0
    2.3600    0.0960    0.5300 C   0  0  0  0  0  0  0  0  0  0  0  0
    3.0140   -0.8020   -0.4460 C   0  0  0  0  0  0  0  0  0  0  0  0
    0.9840   -0.1170    0.9570 C   0  0  0  0  0  0  0  0  0  0  0  0
    0.3800    0.6800    1.8110 C   0  0  0  0  0  0  0  0  0  0  0  0
    1.0880    1.8540    2.3950 C   0  0  0  0  0  0  0  0  0  0  0  0
   -0.9830    0.3960    2.1380 N   0  0  0  0  0  0  0  0  0  0  0  0
   -1.8560   -0.0910    1.0640 C   0  0  1  0  0  0  0  0  0  0  0  0
   -3.0560   -0.7390    1.6170 C   0  0  0  0  0  0  0  0  0  0  0  0
   -3.9390   -0.2250    2.6820 C   0  0  0  0  0  0  0  0  0  0  0  0
   -3.3890   -1.8900    1.1030 N   0  0  0  0  0  0  0  0  0  0  0  0
   -4.5000   -2.6580    1.4990 C   0  0  2  0  0  0  0  0  0  0  0  0
   -4.2690   -3.5140    2.6980 C   0  0  0  0  0  0  0  0  0  0  0  0
   -5.0590   -3.5190    0.3870 C   0  0  0  0  0  0  0  0  0  0  0  0
   -5.4820   -2.7610   -0.6970 O   0  0  0  0  0  0  0  0  0  0  0  0
   -2.2480    1.1440    0.3220 C   0  0  0  0  0  0  0  0  0  0  0  0
   -3.0410    2.0930    0.8780 C   0  0  0  0  0  0  0  0  0  0  0  0
   -3.4300    3.2490    0.1810 C   0  0  0  0  0  0  0  0  0  0  0  0
   -3.0090    3.4460   -1.0940 C   0  0  0  0  0  0  0  0  0  0  0  0
   -2.2020    2.4860   -1.6630 C   0  0  0  0  0  0  0  0  0  0  0  0
   -1.8240    1.3570   -0.9810 C   0  0  0  0  0  0  0  0  0  0  0  0
   -1.7610    2.7460   -3.0800 C   0  0  0  0  0  0  0  0  0  0  0  0
   -2.9600    3.3370   -3.8000 C   0  0  0  0  0  0  0  0  0  0  0  0
   -3.4350    4.6180   -3.2050 C   0  0  0  0  0  0  0  0  0  0  0  0
   -3.3870    4.5900   -1.7990 O   0  0  0  0  0  0  0  0  0  0  0  0
   -1.1380   -1.0040    0.2710 N   0  0  0  0  0  0  0  0  0  0  0  0
    0.2110   -1.2870    0.4680 C   0  0  2  0  0  0  0  0  0  0  0  0
    0.4880   -2.3890    1.4770 C   0  0  0  0  0  0  0  0  0  0  0  0
   -0.1790   -3.6830    1.1790 C   0  0  1  0  0  0  0  0  0  0  0  0
    0.3000   -4.1870   -0.1870 C   0  0  0  0  0  0  0  0  0  0  0  0
    0.3540   -4.6240    2.0950 O   0  0  0  0  0  0  0  0  0  0  0  0
    4.7850    1.7110   -0.6190 O   0  0  0  0  0  0  0  0  0  0  0  0
  1  2  1  0
  2  3  1  0
  3  4  1  0
  4  5  2  0
  4 39  1  0
  5  6  1  0
  6  7  2  0
  7  8  1  0
  7 39  1  0
  8  9  2  3
  9 10  1  0
  9 11  1  0
 11 12  2  0
 11 34  1  0
 12 13  1  0
 12 14  1  0
 14 15  1  0
 15 16  1  1
 15 23  1  0
 15 33  1  0
 16 17  1  0
 16 18  2  3
 18 19  1  0
 19 20  1  1
 19 21  1  0
 21 22  1  0
 23 24  2  0
 23 28  1  0
 24 25  1  0
 25 26  2  0
 26 27  1  0
 26 32  1  0
 27 28  2  0
 27 29  1  0
 29 30  1  0
 30 31  1  0
 31 32  1  0
 33 34  1  0
 34 35  1  1
 35 36  1  0
 36 37  1  6
 36 38  1  0
M  END
