
     RDKit          3D

 39 41  0  0  0  0  0  0  0  0999 V2000
   -4.8240   -3.2000   -3.6090 C   0  0  0  0  0  0  0  0  0  0  0  0
   -4.1570   -2.1280   -3.2170 C   0  0  0  0  0  0  0  0  0  0  0  0
   -2.6860   -2.0310   -3.2160 C   0  0  0  0  0  0  0  0  0  0  0  0
   -2.0780   -1.7550   -1.9530 N   0  0  0  0  0  0  0  0  0  0  0  0
   -2.0590   -2.6290   -0.8440 C   0  0  0  0  0  0  0  0  0  0  0  0
   -2.5790   -3.8630   -0.8150 N   0  0  0  0  0  0  0  0  0  0  0  0
   -2.5260   -4.6680    0.2730 C   0  0  0  0  0  0  0  0  0  0  0  0
   -1.9300   -4.2660    1.4240 C   0  0  0  0  0  0  0  0  0  0  0  0
   -1.3760   -3.0060    1.4530 C   0  0  0  0  0  0  0  0  0  0  0  0
   -0.8080   -2.5840    2.5040 O   0  0  0  0  0  0  0  0  0  0  0  0
   -1.4370   -2.2000    0.3440 C   0  0  0  0  0  0  0  0  0  0  0  0
   -0.8310   -0.8720    0.4080 C   0  0  0  0  0  0  0  0  0  0  0  0
   -1.6120    0.2810    0.5820 C   0  0  0  0  0  0  0  0  0  0  0  0
   -1.0660    1.5440    0.6520 C   0  0  0  0  0  0  0  0  0  0  0  0
   -1.8330    2.7080    0.8040 N   0  0  0  0  0  0  0  0  0  0  0  0
   -3.2230    2.7810    0.6070 C   0  0  0  0  0  0  0  0  0  0  0  0
   -3.9100    1.8060    0.2710 O   0  0  0  0  0  0  0  0  0  0  0  0
   -3.8930    4.0830    0.8120 C   0  0  0  0  0  0  0  0  0  0  0  0
   -3.2080    5.0830    1.2230 O   0  0  0  0  0  0  0  0  0  0  0  0
   -5.3250    4.2290    0.5450 C   0  0  2  0  0  0  0  0  0  0  0  0
   -6.1390    3.1520    1.2050 C   0  0  0  0  0  0  0  0  0  0  0  0
   -5.6490    4.4940   -0.8710 C   0  0  0  0  0  0  0  0  0  0  0  0
   -5.2210    3.4480   -1.8300 C   0  0  0  0  0  0  0  0  0  0  0  0
    0.3330    1.6680    0.5450 C   0  0  0  0  0  0  0  0  0  0  0  0
    1.1180    0.5720    0.3760 C   0  0  0  0  0  0  0  0  0  0  0  0
    2.5770    0.6780    0.2700 C   0  0  0  0  0  0  0  0  0  0  0  0
    3.2720   -0.3170   -0.1110 O   0  0  0  0  0  0  0  0  0  0  0  0
    3.2380    1.8650    0.5840 N   0  0  0  0  0  0  0  0  0  0  0  0
    4.6870    2.0630    0.5100 C   0  0  0  0  0  0  0  0  0  0  0  0
    5.4290    1.1470    1.3990 C   0  0  0  0  0  0  0  0  0  0  0  0
    6.8940    1.3290    1.4240 C   0  0  0  0  0  0  0  0  0  0  0  0
    7.6960    1.1740    0.1990 C   0  0  2  0  0  0  0  0  0  0  0  0
    7.4480    2.0820   -0.9430 C   0  0  0  0  0  0  0  0  0  0  0  0
    7.6310   -0.2630   -0.3320 C   0  0  0  0  0  0  0  0  0  0  0  0
    9.1720    1.3500    0.6270 C   0  0  0  0  0  0  0  0  0  0  0  0
    0.5230   -0.6890    0.3090 C   0  0  0  0  0  0  0  0  0  0  0  0
   -2.0110   -5.3440    2.4630 C   0  0  0  0  0  0  0  0  0  0  0  0
   -2.8780   -6.3960    1.8470 C   0  0  0  0  0  0  0  0  0  0  0  0
   -3.0770   -6.0580    0.4070 C   0  0  0  0  0  0  0  0  0  0  0  0
  1  2  2  0
  2  3  1  0
  3  4  1  0
  4  5  1  0
  5  6  1  0
  5 11  2  0
  6  7  1  0
  7  8  2  0
  7 39  1  0
  8  9  1  0
  8 37  1  0
  9 10  2  0
  9 11  1  0
 11 12  1  0
 12 13  2  0
 12 36  1  0
 13 14  1  0
 14 15  1  0
 14 24  2  0
 15 16  1  0
 16 17  2  0
 16 18  1  0
 18 19  2  0
 18 20  1  0
 20 21  1  6
 20 22  1  0
 22 23  1  0
 24 25  1  0
 25 26  1  0
 25 36  2  0
 26 27  2  0
 26 28  1  0
 28 29  1  0
 29 30  1  0
 30 31  1  0
 31 32  1  0
 32 33  1  6
 32 34  1  0
 32 35  1  0
 37 38  1  0
 38 39  1  0
M  END
