
     RDKit          3D

 39 42  0  0  0  0  0  0  0  0999 V2000
    5.8550   -0.5380   -3.2010 C   0  0  0  0  0  0  0  0  0  0  0  0
    6.0770   -0.1550   -1.7760 C   0  0  0  0  0  0  0  0  0  0  0  0
    4.8400   -0.2150   -0.9530 C   0  0  0  0  0  0  0  0  0  0  0  0
    4.6610   -1.2730   -0.0840 C   0  0  0  0  0  0  0  0  0  0  0  0
    3.5040   -1.3690    0.7130 C   0  0  0  0  0  0  0  0  0  0  0  0
    3.2780   -2.5400    1.4630 N   0  0  0  0  0  0  0  0  0  0  0  0
    4.2730   -3.4220    1.9120 C   0  0  0  0  0  0  0  0  0  0  0  0
    5.4840   -3.2580    1.7000 O   0  0  0  0  0  0  0  0  0  0  0  0
    3.9230   -4.6560    2.7030 C   0  0  0  0  0  0  0  0  0  0  0  0
    4.0020   -4.2130    4.4410 S   0  0  0  0  0  0  0  0  0  0  0  0
    5.4070   -4.5010    4.9760 O   0  0  0  0  0  0  0  0  0  0  0  0
    2.5500   -0.3870    0.6180 C   0  0  0  0  0  0  0  0  0  0  0  0
    1.3350   -0.3990    1.3970 C   0  0  0  0  0  0  0  0  0  0  0  0
    1.3630   -0.8770    2.6920 C   0  0  0  0  0  0  0  0  0  0  0  0
    0.1980   -0.8020    3.4670 C   0  0  0  0  0  0  0  0  0  0  0  0
   -0.9120   -0.2620    2.9150 C   0  0  0  0  0  0  0  0  0  0  0  0
   -0.9360    0.2240    1.5990 C   0  0  0  0  0  0  0  0  0  0  0  0
   -2.1470    0.9150    1.1910 C   0  0  0  0  0  0  0  0  0  0  0  0
   -2.9040    1.4100    2.1440 N   0  0  0  0  0  0  0  0  0  0  0  0
   -4.0910    2.1140    1.9210 N   0  0  0  0  0  0  0  0  0  0  0  0
   -4.6010    2.3710    0.6370 C   0  0  0  0  0  0  0  0  0  0  0  0
   -5.7920    3.0820    0.2620 C   0  0  0  0  0  0  0  0  0  0  0  0
   -6.7120    3.6660    0.8850 C   0  0  0  0  0  0  0  0  0  0  0  0
   -7.1010    3.9510    2.2020 C   0  0  0  0  0  0  0  0  0  0  0  0
   -8.3440    4.7130    2.4500 N   0  0  0  0  0  0  0  0  0  0  0  0
   -6.5040    3.6300    3.2440 O   0  0  0  0  0  0  0  0  0  0  0  0
   -3.8600    1.8810   -0.3650 C   0  0  0  0  0  0  0  0  0  0  0  0
   -2.5860    1.1150   -0.1390 C   0  0  0  0  0  0  0  0  0  0  0  0
   -2.1390    0.4260   -1.1980 C   0  0  0  0  0  0  0  0  0  0  0  0
   -2.6360    0.7460   -2.5430 C   0  0  0  0  0  0  0  0  0  0  0  0
   -2.6360   -0.1390   -3.5180 C   0  0  0  0  0  0  0  0  0  0  0  0
   -3.1230    0.2230   -4.7790 N   0  0  0  0  0  0  0  0  0  0  0  0
   -2.1230   -1.5120   -3.3030 C   0  0  0  0  0  0  0  0  0  0  0  0
   -2.0670   -1.8340   -1.9180 N   0  0  0  0  0  0  0  0  0  0  0  0
   -1.3330   -0.7900   -1.1250 C   0  0  0  0  0  0  0  0  0  0  0  0
    0.1830    0.1220    0.9340 N   0  0  0  0  0  0  0  0  0  0  0  0
    2.7570    0.6560   -0.2620 C   0  0  0  0  0  0  0  0  0  0  0  0
    3.8800    0.7700   -1.0540 C   0  0  0  0  0  0  0  0  0  0  0  0
    4.0200    1.9280   -1.9740 C   0  0  0  0  0  0  0  0  0  0  0  0
  1  2  1  0
  2  3  1  0
  3  4  2  0
  3 38  1  0
  4  5  1  0
  5  6  1  0
  5 12  2  0
  6  7  1  0
  7  8  2  0
  7  9  1  0
  9 10  1  0
 10 11  2  0
 12 13  1  0
 12 37  1  0
 13 14  2  0
 13 36  1  0
 14 15  1  0
 15 16  2  0
 16 17  1  0
 17 18  1  0
 17 36  2  0
 18 19  2  0
 18 28  1  0
 19 20  1  0
 20 21  1  0
 21 22  1  0
 21 27  2  0
 22 23  2  3
 23 24  1  0
 24 25  1  0
 24 26  2  0
 27 28  1  0
 28 29  2  3
 29 30  1  0
 29 35  1  0
 30 31  2  0
 31 32  1  0
 31 33  1  0
 33 34  1  0
 34 35  1  0
 37 38  2  0
 38 39  1  0
M  CHG  1  34   1
M  END
