
     RDKit          3D

 39 42  0  0  0  0  0  0  0  0999 V2000
    7.9530    3.6150   -2.3910 C   0  0  0  0  0  0  0  0  0  0  0  0
    6.5810    3.9460   -2.3010 O   0  0  0  0  0  0  0  0  0  0  0  0
    5.7760    3.1020   -1.5100 C   0  0  0  0  0  0  0  0  0  0  0  0
    6.2860    2.0140   -0.8580 C   0  0  0  0  0  0  0  0  0  0  0  0
    5.4640    1.1970   -0.0820 C   0  0  0  0  0  0  0  0  0  0  0  0
    4.1210    1.4550    0.0530 C   0  0  0  0  0  0  0  0  0  0  0  0
    3.0860    0.4140    1.0380 S   0  0  1  0  0  0  0  0  0  0  0  0
    3.8740   -0.1180    2.1860 O   0  0  0  0  0  0  0  0  0  0  0  0
    1.9660    1.2610    1.6200 O   0  0  0  0  0  0  0  0  0  0  0  0
    2.3870   -0.8560    0.1050 N   0  0  0  0  0  0  0  0  0  0  0  0
    3.4390   -1.6530   -0.4290 C   0  0  0  0  0  0  0  0  0  0  0  0
    3.9290   -2.7660    0.4510 C   0  0  2  0  0  0  0  0  0  0  0  0
    5.0650   -3.5060   -0.2760 C   0  0  0  0  0  0  0  0  0  0  0  0
    2.8890   -3.8210    0.7390 C   0  0  0  0  0  0  0  0  0  0  0  0
    1.3870   -0.4150   -0.7800 C   0  0  0  0  0  0  0  0  0  0  0  0
   -0.0270   -0.7750   -0.5630 C   0  0  1  0  0  0  0  0  0  0  0  0
   -0.2360   -2.1360   -0.6030 O   0  0  0  0  0  0  0  0  0  0  0  0
   -0.8440   -0.0030    0.3940 C   0  0  2  0  0  0  0  0  0  0  0  0
   -0.8930   -0.5180    1.8150 C   0  0  0  0  0  0  0  0  0  0  0  0
   -1.4410   -1.8630    1.9780 C   0  0  0  0  0  0  0  0  0  0  0  0
   -0.5940   -2.9450    2.0000 C   0  0  0  0  0  0  0  0  0  0  0  0
   -1.0470   -4.2570    2.1440 C   0  0  0  0  0  0  0  0  0  0  0  0
   -2.4000   -4.4930    2.2710 C   0  0  0  0  0  0  0  0  0  0  0  0
   -3.2380   -3.3970    2.2470 C   0  0  0  0  0  0  0  0  0  0  0  0
   -2.7920   -2.0980    2.1050 C   0  0  0  0  0  0  0  0  0  0  0  0
   -2.2770   -0.0970   -0.0230 N   0  0  0  0  0  0  0  0  0  0  0  0
   -3.0500    1.0510   -0.2910 C   0  0  0  0  0  0  0  0  0  0  0  0
   -2.4670    2.1710   -0.1610 O   0  0  0  0  0  0  0  0  0  0  0  0
   -4.3600    1.0460   -0.6750 O   0  0  0  0  0  0  0  0  0  0  0  0
   -5.0240    2.2660   -0.9150 C   0  0  1  0  0  0  0  0  0  0  0  0
   -5.5590    2.3880   -2.2990 C   0  0  0  0  0  0  0  0  0  0  0  0
   -6.8390    2.8720   -2.2630 O   0  0  0  0  0  0  0  0  0  0  0  0
   -7.0930    3.3200   -0.9740 C   0  0  1  0  0  0  0  0  0  0  0  0
   -8.3770    3.0880   -0.5600 O   0  0  0  0  0  0  0  0  0  0  0  0
   -8.4700    1.8770    0.0700 C   0  0  0  0  0  0  0  0  0  0  0  0
   -7.0900    1.2580    0.1220 C   0  0  0  0  0  0  0  0  0  0  0  0
   -6.2230    2.4810   -0.0620 C   0  0  1  0  0  0  0  0  0  0  0  0
    3.6080    2.5470   -0.6010 C   0  0  0  0  0  0  0  0  0  0  0  0
    4.4290    3.3710   -1.3820 C   0  0  0  0  0  0  0  0  0  0  0  0
  1  2  1  0
  2  3  1  0
  3  4  2  0
  3 39  1  0
  4  5  1  0
  5  6  2  0
  6  7  1  0
  6 38  1  0
  7  8  2  0
  7  9  2  0
  7 10  1  6
 10 11  1  0
 10 15  1  0
 11 12  1  0
 12 13  1  6
 12 14  1  0
 15 16  1  0
 16 17  1  1
 16 18  1  0
 18 19  1  1
 18 26  1  0
 19 20  1  0
 20 21  2  0
 20 25  1  0
 21 22  1  0
 22 23  2  0
 23 24  1  0
 24 25  2  0
 26 27  1  0
 27 28  2  0
 27 29  1  0
 30 29  1  6
 30 31  1  0
 30 37  1  0
 31 32  1  0
 33 32  1  6
 33 34  1  0
 33 37  1  0
 34 35  1  0
 35 36  1  0
 37 36  1  6
 38 39  2  0
M  END
