
     RDKit          3D

 39 41  0  0  0  0  0  0  0  0999 V2000
   -7.6500   -1.4910   -1.8210 C   0  0  0  0  0  0  0  0  0  0  0  0
   -6.6590   -1.1010   -2.8610 C   0  0  0  0  0  0  0  0  0  0  0  0
   -5.2160   -1.4460   -2.4890 C   0  0  2  0  0  0  0  0  0  0  0  0
   -5.0980   -2.9590   -2.2970 C   0  0  0  0  0  0  0  0  0  0  0  0
   -4.8450   -0.7790   -1.2570 N   0  0  0  0  0  0  0  0  0  0  0  0
   -3.5190   -0.6730   -0.8020 C   0  0  0  0  0  0  0  0  0  0  0  0
   -2.4900   -1.0270   -1.6570 C   0  0  0  0  0  0  0  0  0  0  0  0
   -1.1840   -0.9030   -1.2130 C   0  0  0  0  0  0  0  0  0  0  0  0
   -0.9070   -0.4400    0.0470 C   0  0  0  0  0  0  0  0  0  0  0  0
    0.4940   -0.2580    0.4550 C   0  0  0  0  0  0  0  0  0  0  0  0
    0.7410   -0.0020    1.6400 O   0  0  0  0  0  0  0  0  0  0  0  0
    1.5330   -0.3820   -0.5710 C   0  0  0  0  0  0  0  0  0  0  0  0
    2.8930   -0.3380   -0.1010 N   0  0  0  0  0  0  0  0  0  0  0  0
    3.5440    0.8550    0.0300 C   0  0  0  0  0  0  0  0  0  0  0  0
    3.1940    1.9610    0.1850 O   0  0  0  0  0  0  0  0  0  0  0  0
    5.2690    0.6860   -0.0620 N   0  0  0  0  0  0  0  0  0  0  0  0
    5.6040    1.9990    0.2440 C   0  0  0  0  0  0  0  0  0  0  0  0
    5.0300    2.9680    0.6170 O   0  0  0  0  0  0  0  0  0  0  0  0
    7.0810    2.1660    0.0230 N   0  0  0  0  0  0  0  0  0  0  0  0
    7.6930    3.3950    0.2980 C   0  0  2  0  0  0  0  0  0  0  0  0
    8.4770    3.9870   -0.8760 C   0  0  0  0  0  0  0  0  0  0  0  0
    9.1720    3.4830    0.3410 C   0  0  2  0  0  0  0  0  0  0  0  0
   10.0490    2.2530    0.2090 C   0  0  0  0  0  0  0  0  0  0  0  0
    9.8350    1.6150   -1.0020 O   0  0  0  0  0  0  0  0  0  0  0  0
    3.5050   -1.6090    0.1140 C   0  0  0  0  0  0  0  0  0  0  0  0
    4.1460   -2.3070   -0.8860 C   0  0  0  0  0  0  0  0  0  0  0  0
    4.7330   -3.5390   -0.6720 C   0  0  0  0  0  0  0  0  0  0  0  0
    4.6800   -4.0990    0.5940 C   0  0  0  0  0  0  0  0  0  0  0  0
    5.3240   -5.4330    0.7980 C   0  0  0  0  0  0  0  0  0  0  0  0
    4.0530   -3.4320    1.6070 C   0  0  0  0  0  0  0  0  0  0  0  0
    3.4830   -2.2190    1.3570 C   0  0  0  0  0  0  0  0  0  0  0  0
   -1.9650   -0.0910    0.8860 C   0  0  0  0  0  0  0  0  0  0  0  0
   -3.2700   -0.2030    0.4710 C   0  0  0  0  0  0  0  0  0  0  0  0
   -4.4220    0.2190    1.2870 C   0  0  0  0  0  0  0  0  0  0  0  0
   -4.8770    1.6100    0.9090 C   0  0  0  0  0  0  0  0  0  0  0  0
   -6.0780    2.0510    1.6670 C   0  0  1  0  0  0  0  0  0  0  0  0
   -5.8720    2.0880    3.1640 C   0  0  0  0  0  0  0  0  0  0  0  0
   -6.4600    3.4890    1.2520 C   0  0  0  0  0  0  0  0  0  0  0  0
   -7.3020    1.2270    1.3860 C   0  0  0  0  0  0  0  0  0  0  0  0
  1  2  1  0
  2  3  1  0
  3  4  1  1
  3  5  1  0
  5  6  1  0
  6  7  2  0
  6 33  1  0
  7  8  1  0
  8  9  2  0
  9 10  1  0
  9 32  1  0
 10 11  2  0
 10 12  1  0
 12 13  1  0
 13 14  1  0
 13 25  1  0
 14 15  2  0
 14 16  1  0
 16 17  1  0
 17 18  2  0
 17 19  1  0
 20 19  1  6
 20 21  1  0
 20 22  1  0
 21 22  1  0
 22 23  1  6
 23 24  1  0
 25 26  2  0
 25 31  1  0
 26 27  1  0
 27 28  2  0
 28 29  1  0
 28 30  1  0
 30 31  2  0
 32 33  2  0
 33 34  1  0
 34 35  1  0
 35 36  1  0
 36 37  1  1
 36 38  1  0
 36 39  1  0
M  END
