
     RDKit          3D

 39 41  0  0  0  0  0  0  0  0999 V2000
    5.8730    3.8380    2.8200 C   0  0  0  0  0  0  0  0  0  0  0  0
    5.6510    2.3520    2.5940 C   0  0  0  0  0  0  0  0  0  0  0  0
    4.2760    2.1380    2.3240 O   0  0  0  0  0  0  0  0  0  0  0  0
    3.7840    0.8520    2.0650 C   0  0  0  0  0  0  0  0  0  0  0  0
    4.6370   -0.0650    2.0930 O   0  0  0  0  0  0  0  0  0  0  0  0
    2.3400    0.6910    1.7860 C   0  0  0  0  0  0  0  0  0  0  0  0
    2.0160   -0.7570    1.2990 C   0  0  0  0  0  0  0  0  0  0  0  0
    2.6830   -0.8930    0.0100 C   0  0  0  0  0  0  0  0  0  0  0  0
    2.8000   -2.0710   -0.7500 N   0  0  0  0  0  0  0  0  0  0  0  0
    3.9790   -2.8950   -0.1250 C   0  0  0  0  0  0  0  0  0  0  0  0
    2.2100   -2.6980   -1.8110 C   0  0  0  0  0  0  0  0  0  0  0  0
    2.9110   -3.8350   -2.1470 O   0  0  0  0  0  0  0  0  0  0  0  0
    1.1310   -2.5490   -2.6970 C   0  0  0  0  0  0  0  0  0  0  0  0
    1.3170   -3.1420   -4.0050 C   0  0  0  0  0  0  0  0  0  0  0  0
    2.5580   -3.7440   -4.3450 N   0  0  0  0  0  0  0  0  0  0  0  0
    0.2880   -3.0860   -4.8960 C   0  0  0  0  0  0  0  0  0  0  0  0
   -0.8920   -2.5130   -4.6330 N   0  0  0  0  0  0  0  0  0  0  0  0
   -1.0700   -1.9650   -3.4190 C   0  0  0  0  0  0  0  0  0  0  0  0
   -0.0720   -1.9800   -2.4390 C   0  0  0  0  0  0  0  0  0  0  0  0
   -0.5530   -1.5850   -1.0940 C   0  0  0  0  0  0  0  0  0  0  0  0
   -0.1500   -2.3010   -0.1700 O   0  0  0  0  0  0  0  0  0  0  0  0
   -1.4070   -0.4650   -1.0110 N   0  0  0  0  0  0  0  0  0  0  0  0
   -1.8620   -0.0480    0.2710 C   0  0  0  0  0  0  0  0  0  0  0  0
   -1.2880    1.0940    0.8260 C   0  0  0  0  0  0  0  0  0  0  0  0
   -0.4100    1.9690    0.0190 C   0  0  0  0  0  0  0  0  0  0  0  0
   -1.2600    2.8690   -0.8330 C   0  0  1  0  0  0  0  0  0  0  0  0
   -2.1660    3.7410    0.0200 C   0  0  0  0  0  0  0  0  0  0  0  0
   -0.3420    3.8430   -1.5740 C   0  0  0  0  0  0  0  0  0  0  0  0
   -1.1960    4.7480   -2.4280 C   0  0  0  0  0  0  0  0  0  0  0  0
   -1.6010    1.4330    2.1230 C   0  0  0  0  0  0  0  0  0  0  0  0
   -2.4620    0.6620    2.8620 C   0  0  0  0  0  0  0  0  0  0  0  0
   -2.7740    1.0670    4.2710 C   0  0  0  0  0  0  0  0  0  0  0  0
   -3.0120   -0.4520    2.2920 C   0  0  0  0  0  0  0  0  0  0  0  0
   -2.7400   -0.8560    0.9670 C   0  0  0  0  0  0  0  0  0  0  0  0
   -3.5710   -2.0280    0.7800 C   0  0  1  0  0  0  0  0  0  0  0  0
   -3.6680   -2.8030   -0.4280 C   0  0  0  0  0  0  0  0  0  0  0  0
   -4.2450   -1.9980   -1.5690 C   0  0  0  0  0  0  0  0  0  0  0  0
   -3.5080   -2.7320    2.1150 C   0  0  0  0  0  0  0  0  0  0  0  0
   -3.8990   -1.4800    2.9700 C   0  0  0  0  0  0  0  0  0  0  0  0
  1  2  1  0
  2  3  1  0
  3  4  1  0
  4  5  2  0
  4  6  1  0
  6  7  1  0
  7  8  1  0
  8  9  1  0
  9 10  1  0
  9 11  1  0
 11 12  2  0
 11 13  1  0
 13 14  2  0
 13 19  1  0
 14 15  1  0
 14 16  1  0
 16 17  2  0
 17 18  1  0
 18 19  2  0
 19 20  1  0
 20 21  2  0
 20 22  1  0
 22 23  1  0
 23 24  2  0
 23 34  1  0
 24 25  1  0
 24 30  1  0
 25 26  1  0
 26 27  1  1
 26 28  1  0
 28 29  1  0
 30 31  2  0
 31 32  1  0
 31 33  1  0
 33 34  2  0
 33 39  1  0
 34 35  1  0
 35 36  1  6
 35 38  1  0
 36 37  1  0
 38 39  1  0
M  END
