
     RDKit          3D

 33 36  0  0  0  0  0  0  0  0999 V2000
    6.0700   -1.4940    0.9970 C   0  0  0  0  0  0  0  0  0  0  0  0
    5.9240   -0.2330    0.1780 C   0  0  2  0  0  0  0  0  0  0  0  0
    5.2630   -0.5810   -1.0680 N   0  0  0  0  0  0  0  0  0  0  0  0
    3.8720   -0.5750   -0.8830 C   0  0  0  0  0  0  0  0  0  0  0  0
    3.2420    0.5770   -0.4640 C   0  0  0  0  0  0  0  0  0  0  0  0
    1.8640    0.5590   -0.2880 C   0  0  0  0  0  0  0  0  0  0  0  0
    1.1200   -0.5740   -0.5190 C   0  0  0  0  0  0  0  0  0  0  0  0
   -0.3350   -0.5950   -0.3330 C   0  0  0  0  0  0  0  0  0  0  0  0
   -1.1200    0.4140    0.0640 N   0  0  0  0  0  0  0  0  0  0  0  0
   -2.4280    0.0360    0.1280 C   0  0  0  0  0  0  0  0  0  0  0  0
   -3.4930    0.9240    0.5230 C   0  0  0  0  0  0  0  0  0  0  0  0
   -3.0910    2.1570    0.8180 O   0  0  0  0  0  0  0  0  0  0  0  0
   -4.8630    0.7090    0.6470 N   0  0  0  0  0  0  0  0  0  0  0  0
   -5.6440    1.9240    1.0900 C   0  0  0  0  0  0  0  0  0  0  0  0
   -6.8480    2.1250    0.2350 C   0  0  0  0  0  0  0  0  0  0  0  0
   -7.6000    0.8890   -0.1250 C   0  0  0  0  0  0  0  0  0  0  0  0
   -6.6350   -0.1180   -0.7140 C   0  0  0  0  0  0  0  0  0  0  0  0
   -5.6450   -0.4530    0.4330 C   0  0  2  0  0  0  0  0  0  0  0  0
   -6.4770   -0.8040    1.6780 C   0  0  0  0  0  0  0  0  0  0  0  0
   -2.4520   -1.2790   -0.2520 C   0  0  0  0  0  0  0  0  0  0  0  0
   -1.1390   -1.6830   -0.5430 C   0  0  0  0  0  0  0  0  0  0  0  0
   -0.6440   -3.3000   -1.0780 S   0  0  0  0  0  0  0  0  0  0  0  0
   -2.1000   -4.3930   -1.2030 C   0  0  2  0  0  0  0  0  0  0  0  0
   -1.7540   -5.6460   -1.6130 F   0  0  0  0  0  0  0  0  0  0  0  0
   -2.9460   -3.8230   -2.1400 F   0  0  0  0  0  0  0  0  0  0  0  0
   -2.8630   -4.4220    0.4170 Cl  0  0  0  0  0  0  0  0  0  0  0  0
    1.7720   -1.6770   -0.9250 N   0  0  0  0  0  0  0  0  0  0  0  0
    3.1020   -1.6940   -1.1060 C   0  0  0  0  0  0  0  0  0  0  0  0
    7.2960    0.3530   -0.1370 C   0  0  1  0  0  0  0  0  0  0  0  0
    7.1690    1.6180   -0.9430 C   0  0  0  0  0  0  0  0  0  0  0  0
    8.0310    2.4850   -0.2830 O   0  0  0  0  0  0  0  0  0  0  0  0
    8.0480    2.0650    1.0460 C   0  0  0  0  0  0  0  0  0  0  0  0
    7.9480    0.6930    1.0340 O   0  0  0  0  0  0  0  0  0  0  0  0
  2  1  1  1
  2  3  1  0
  2 29  1  0
  3  4  1  0
  4  5  2  0
  4 28  1  0
  5  6  1  0
  6  7  2  0
  7  8  1  0
  7 27  1  0
  8  9  1  0
  8 21  2  0
  9 10  1  0
 10 11  1  0
 10 20  2  0
 11 12  2  0
 11 13  1  0
 13 14  1  0
 13 18  1  0
 14 15  1  0
 15 16  1  0
 16 17  1  0
 17 18  1  0
 18 19  1  1
 20 21  1  0
 21 22  1  0
 22 23  1  0
 23 24  1  6
 23 25  1  0
 23 26  1  0
 27 28  2  0
 29 30  1  6
 29 33  1  0
 30 31  1  0
 31 32  1  0
 32 33  1  0
M  CHG  1   3   1
M  END
