
     RDKit          3D

 32 36  0  0  0  0  0  0  0  0999 V2000
   -4.9240   -2.8760    2.5050 C   0  0  0  0  0  0  0  0  0  0  0  0
   -3.9750   -1.9980    2.2360 C   0  0  0  0  0  0  0  0  0  0  0  0
   -4.2180   -0.9460    1.2600 C   0  0  0  0  0  0  0  0  0  0  0  0
   -5.4990   -0.5460    0.9600 C   0  0  0  0  0  0  0  0  0  0  0  0
   -5.7170    0.4190    0.0440 C   0  0  0  0  0  0  0  0  0  0  0  0
   -7.0990    0.8540   -0.2840 C   0  0  0  0  0  0  0  0  0  0  0  0
   -4.6860    1.0690   -0.6520 C   0  0  0  0  0  0  0  0  0  0  0  0
   -4.9910    2.1090   -1.6430 C   0  0  0  0  0  0  0  0  0  0  0  0
   -5.3930    1.5600   -2.9880 C   0  0  0  0  0  0  0  0  0  0  0  0
   -3.4080    0.6590   -0.3440 C   0  0  0  0  0  0  0  0  0  0  0  0
   -2.3390    1.2270   -0.9940 C   0  0  0  0  0  0  0  0  0  0  0  0
   -2.5300    2.1120   -1.8410 O   0  0  0  0  0  0  0  0  0  0  0  0
   -1.0480    0.7940   -0.6900 C   0  0  0  0  0  0  0  0  0  0  0  0
   -0.8370   -0.1830    0.2410 C   0  0  0  0  0  0  0  0  0  0  0  0
   -1.8860   -0.7400    0.8760 N   0  0  0  0  0  0  0  0  0  0  0  0
   -3.1480   -0.3510    0.6130 C   0  0  0  0  0  0  0  0  0  0  0  0
    0.5360   -0.6280    0.5370 C   0  0  0  0  0  0  0  0  0  0  0  0
    0.7330   -1.6010    1.4760 N   0  0  0  0  0  0  0  0  0  0  0  0
    1.9680   -2.0180    1.7670 C   0  0  0  0  0  0  0  0  0  0  0  0
    2.2320   -3.0810    2.7790 C   0  0  0  0  0  0  0  0  0  0  0  0
    3.0350   -1.4560    1.1110 C   0  0  0  0  0  0  0  0  0  0  0  0
    2.8740   -0.4880    0.1750 C   0  0  0  0  0  0  0  0  0  0  0  0
    3.9830    0.1260   -0.5850 C   0  0  0  0  0  0  0  0  0  0  0  0
    5.3010   -0.3020   -0.1970 N   0  0  0  0  0  0  0  0  0  0  0  0
    6.1940    0.2470   -1.2640 C   0  0  0  0  0  0  0  0  0  0  0  0
    7.4510    0.7970   -0.6530 C   0  0  0  0  0  0  0  0  0  0  0  0
    7.8670   -0.1100    0.3430 O   0  0  0  0  0  0  0  0  0  0  0  0
    7.0490    0.1650    1.4500 C   0  0  0  0  0  0  0  0  0  0  0  0
    5.6450    0.4550    1.0220 C   0  0  0  0  0  0  0  0  0  0  0  0
    1.5700   -0.0530   -0.1290 C   0  0  0  0  0  0  0  0  0  0  0  0
    1.4080    1.0010   -1.1630 C   0  0  0  0  0  0  0  0  0  0  0  0
    0.0410    1.4650   -1.4340 C   0  0  0  0  0  0  0  0  0  0  0  0
  1  2  2  0
  2  3  1  0
  3  4  2  0
  3 16  1  0
  4  5  1  0
  5  6  1  0
  5  7  2  0
  7  8  1  0
  7 10  1  0
  8  9  1  0
 10 11  1  0
 10 16  2  0
 11 12  2  0
 11 13  1  0
 13 14  2  0
 13 32  1  0
 14 15  1  0
 14 17  1  0
 15 16  1  0
 17 18  2  0
 17 30  1  0
 18 19  1  0
 19 20  1  0
 19 21  2  0
 21 22  1  0
 22 23  1  0
 22 30  2  0
 23 24  1  0
 24 25  1  0
 24 29  1  0
 25 26  1  0
 26 27  1  0
 27 28  1  0
 28 29  1  0
 30 31  1  0
 31 32  1  0
M  END
