
     RDKit          3D

 32 36  0  0  0  0  0  0  0  0999 V2000
    9.5640   -0.0540    1.2040 C   0  0  0  0  0  0  0  0  0  0  0  0
    8.5210   -0.1060    0.1700 C   0  0  0  0  0  0  0  0  0  0  0  0
    8.4180   -1.0190   -0.8720 C   0  0  0  0  0  0  0  0  0  0  0  0
    7.2990   -0.6910   -1.5840 C   0  0  0  0  0  0  0  0  0  0  0  0
    6.7240    0.3980   -0.9970 N   0  0  0  0  0  0  0  0  0  0  0  0
    5.5290    0.9990   -1.4870 C   0  0  0  0  0  0  0  0  0  0  0  0
    4.3390    0.3630   -0.8200 C   0  0  0  0  0  0  0  0  0  0  0  0
    3.9220   -0.8990   -1.1670 C   0  0  0  0  0  0  0  0  0  0  0  0
    2.8050   -1.4670   -0.5600 C   0  0  0  0  0  0  0  0  0  0  0  0
    2.1270   -0.7460    0.3880 C   0  0  0  0  0  0  0  0  0  0  0  0
    2.5250    0.5460    0.7670 C   0  0  0  0  0  0  0  0  0  0  0  0
    3.6250    1.0690    0.1510 C   0  0  0  0  0  0  0  0  0  0  0  0
    1.7180    1.1850    1.7460 N   0  0  0  0  0  0  0  0  0  0  0  0
    0.3520    1.0860    1.2630 C   0  0  0  0  0  0  0  0  0  0  0  0
   -0.1570   -0.3240    1.1670 C   0  0  1  0  0  0  0  0  0  0  0  0
   -0.9300   -0.4510   -0.0880 C   0  0  0  0  0  0  0  0  0  0  0  0
   -0.3900   -1.1920   -0.9970 O   0  0  0  0  0  0  0  0  0  0  0  0
   -2.1790    0.1580   -0.3640 N   0  0  0  0  0  0  0  0  0  0  0  0
   -2.7730   -0.0810   -1.6660 C   0  0  0  0  0  0  0  0  0  0  0  0
   -4.2320   -0.4150   -1.5550 C   0  0  0  0  0  0  0  0  0  0  0  0
   -4.9870    0.4120   -0.5800 C   0  0  1  0  0  0  0  0  0  0  0  0
   -5.4720    1.6470   -1.3160 C   0  0  0  0  0  0  0  0  0  0  0  0
   -6.1720   -0.4390   -0.1760 C   0  0  0  0  0  0  0  0  0  0  0  0
   -7.4620   -0.1100   -0.4250 C   0  0  0  0  0  0  0  0  0  0  0  0
   -8.4700   -0.9680   -0.0140 C   0  0  0  0  0  0  0  0  0  0  0  0
   -8.1390   -2.1500    0.6450 C   0  0  0  0  0  0  0  0  0  0  0  0
   -6.8120   -2.4900    0.9020 C   0  0  0  0  0  0  0  0  0  0  0  0
   -5.8320   -1.6070    0.4770 C   0  0  0  0  0  0  0  0  0  0  0  0
   -4.3030    0.8140    0.6670 C   0  0  0  0  0  0  0  0  0  0  0  0
   -2.8270    0.9710    0.6270 C   0  0  0  0  0  0  0  0  0  0  0  0
    0.9950   -1.1860    1.0760 O   0  0  0  0  0  0  0  0  0  0  0  0
    7.4410    0.7720    0.0640 C   0  0  0  0  0  0  0  0  0  0  0  0
  1  2  1  0
  2  3  1  0
  2 32  2  0
  3  4  2  0
  4  5  1  0
  5  6  1  0
  5 32  1  0
  6  7  1  0
  7  8  2  0
  7 12  1  0
  8  9  1  0
  9 10  2  0
 10 11  1  0
 10 31  1  0
 11 12  2  0
 11 13  1  0
 13 14  1  0
 14 15  1  0
 15 16  1  6
 15 31  1  0
 16 17  2  0
 16 18  1  0
 18 19  1  0
 18 30  1  0
 19 20  1  0
 20 21  1  0
 21 22  1  6
 21 23  1  0
 21 29  1  0
 23 24  2  0
 23 28  1  0
 24 25  1  0
 25 26  2  0
 26 27  1  0
 27 28  2  0
 29 30  1  0
M  CHG  1  13   1
M  END
