
     RDKit          3D

 32 35  0  0  0  0  0  0  0  0999 V2000
   -5.2900    3.1770   -3.3080 C   0  0  0  0  0  0  0  0  0  0  0  0
   -5.0240    2.1710   -2.2160 C   0  0  0  0  0  0  0  0  0  0  0  0
   -6.0110    1.3640   -1.7370 C   0  0  0  0  0  0  0  0  0  0  0  0
   -5.7100    0.4680   -0.7460 C   0  0  0  0  0  0  0  0  0  0  0  0
   -6.8730   -0.3650   -0.2430 C   0  0  0  0  0  0  0  0  0  0  0  0
   -4.4490    0.3040   -0.1710 C   0  0  0  0  0  0  0  0  0  0  0  0
   -3.4410    1.1310   -0.6600 C   0  0  0  0  0  0  0  0  0  0  0  0
   -3.7690    2.0400   -1.6720 C   0  0  0  0  0  0  0  0  0  0  0  0
   -2.1800    1.1680   -0.2750 O   0  0  0  0  0  0  0  0  0  0  0  0
   -1.1440    0.8010    0.4560 C   0  0  0  0  0  0  0  0  0  0  0  0
    0.0840    0.2900   -0.2700 C   0  0  1  0  0  0  0  0  0  0  0  0
    1.0030   -0.3490    0.7180 C   0  0  0  0  0  0  0  0  0  0  0  0
    1.4620    0.6020    1.7350 N   0  0  0  0  0  0  0  0  0  0  0  0
    2.2820   -0.1180    2.6710 C   0  0  0  0  0  0  0  0  0  0  0  0
    3.5870   -0.6100    2.1280 C   0  0  0  0  0  0  0  0  0  0  0  0
    4.3350    0.5420    1.6530 N   0  0  0  0  0  0  0  0  0  0  0  0
    5.6570    0.4780    1.1530 C   0  0  0  0  0  0  0  0  0  0  0  0
    6.7280    1.1450    1.7110 C   0  0  0  0  0  0  0  0  0  0  0  0
    8.0010    1.0500    1.1780 C   0  0  0  0  0  0  0  0  0  0  0  0
    8.2560    0.2840    0.0660 C   0  0  0  0  0  0  0  0  0  0  0  0
    7.1910   -0.3850   -0.4960 C   0  0  0  0  0  0  0  0  0  0  0  0
    5.9200   -0.2940    0.0310 C   0  0  0  0  0  0  0  0  0  0  0  0
    4.8640   -0.9790   -0.5570 O   0  0  0  0  0  0  0  0  0  0  0  0
    3.6190    1.8130    1.7190 C   0  0  0  0  0  0  0  0  0  0  0  0
    2.2510    1.6190    1.0870 C   0  0  0  0  0  0  0  0  0  0  0  0
   -0.1940   -0.5950   -1.3550 N   0  0  0  0  0  0  0  0  0  0  0  0
   -0.0220   -1.9850   -1.1880 C   0  0  0  0  0  0  0  0  0  0  0  0
   -1.1890   -2.8020   -1.7160 C   0  0  0  0  0  0  0  0  0  0  0  0
   -2.5250   -2.3760   -1.1450 C   0  0  0  0  0  0  0  0  0  0  0  0
   -2.5690   -2.4610    0.3280 C   0  0  0  0  0  0  0  0  0  0  0  0
   -3.5970   -1.7420    1.0690 C   0  0  0  0  0  0  0  0  0  0  0  0
   -4.3050   -0.7000    0.8770 C   0  0  0  0  0  0  0  0  0  0  0  0
  1  2  1  0
  2  3  2  0
  2  8  1  0
  3  4  1  0
  4  5  1  0
  4  6  2  0
  6  7  1  0
  6 32  1  0
  7  8  2  0
  7  9  1  0
  9 10  1  0
 10 11  1  0
 11 12  1  1
 11 26  1  0
 12 13  1  0
 13 14  1  0
 13 25  1  0
 14 15  1  0
 15 16  1  0
 16 17  1  0
 16 24  1  0
 17 18  2  0
 17 22  1  0
 18 19  1  0
 19 20  2  0
 20 21  1  0
 21 22  2  0
 22 23  1  0
 24 25  1  0
 26 27  1  0
 27 28  1  0
 28 29  1  0
 29 30  1  0
 30 31  1  0
 31 32  2  0
M  CHG  1  26   1
M  END
