
     RDKit          3D

 32 35  0  0  0  0  0  0  0  0999 V2000
    5.2300    1.5640   -0.6370 C   0  0  0  0  0  0  0  0  0  0  0  0
    3.8950    0.8640   -0.5900 C   0  0  0  0  0  0  0  0  0  0  0  0
    2.7310    1.3700   -1.0710 N   0  0  0  0  0  0  0  0  0  0  0  0
    1.7160    0.5190   -0.8850 C   0  0  0  0  0  0  0  0  0  0  0  0
    0.2960    0.7190   -1.2750 C   0  0  1  0  0  0  0  0  0  0  0  0
   -0.0670   -0.3430   -2.3030 C   0  0  0  0  0  0  0  0  0  0  0  0
   -1.5170   -0.0830   -2.6570 C   0  0  0  0  0  0  0  0  0  0  0  0
   -2.3320   -0.3210   -1.4180 C   0  0  0  0  0  0  0  0  0  0  0  0
   -1.9480    0.4460   -0.2930 N   0  0  0  0  0  0  0  0  0  0  0  0
   -2.9580    1.7790    0.0470 S   0  0  2  0  0  0  0  0  0  0  0  0
   -3.0620    2.6890   -1.1670 O   0  0  0  0  0  0  0  0  0  0  0  0
   -2.4230    2.5700    1.1820 O   0  0  0  0  0  0  0  0  0  0  0  0
   -4.5870    1.2530    0.4050 C   0  0  0  0  0  0  0  0  0  0  0  0
   -4.8810   -0.0130    0.6450 C   0  0  0  0  0  0  0  0  0  0  0  0
   -6.2640   -0.4330    0.9450 C   0  0  0  0  0  0  0  0  0  0  0  0
   -6.5470   -1.7010    1.1820 C   0  0  0  0  0  0  0  0  0  0  0  0
   -7.8830   -2.0760    1.4680 N   0  0  0  0  0  0  0  0  0  0  0  0
   -8.8780   -1.3440    0.9250 O   0  0  0  0  0  0  0  0  0  0  0  0
   -8.6990   -0.0230    1.3270 C   0  0  0  0  0  0  0  0  0  0  0  0
   -7.3670    0.5530    0.9890 C   0  0  0  0  0  0  0  0  0  0  0  0
   -0.5790    0.6420   -0.0580 C   0  0  0  0  0  0  0  0  0  0  0  0
    2.2420   -0.5440   -0.2780 N   0  0  0  0  0  0  0  0  0  0  0  0
    3.5930   -0.3680   -0.0770 C   0  0  0  0  0  0  0  0  0  0  0  0
    4.4110   -1.4010    0.5740 C   0  0  0  0  0  0  0  0  0  0  0  0
    5.8450   -1.0640    0.6820 C   0  0  0  0  0  0  0  0  0  0  0  0
    6.3970   -0.6850    1.9020 C   0  0  0  0  0  0  0  0  0  0  0  0
    7.7270   -0.3960    1.9960 C   0  0  0  0  0  0  0  0  0  0  0  0
    8.3080   -0.0190    3.1830 F   0  0  0  0  0  0  0  0  0  0  0  0
    8.5730   -0.4670    0.8910 C   0  0  0  0  0  0  0  0  0  0  0  0
    8.0280   -0.8440   -0.3240 C   0  0  0  0  0  0  0  0  0  0  0  0
    6.6950   -1.1300   -0.4010 C   0  0  0  0  0  0  0  0  0  0  0  0
    6.0590   -1.6120   -1.9630 Cl  0  0  0  0  0  0  0  0  0  0  0  0
  1  2  1  0
  2  3  1  0
  2 23  2  0
  3  4  1  0
  5  4  1  1
  4 22  2  0
  5  6  1  0
  5 21  1  0
  6  7  1  0
  7  8  1  0
  8  9  1  0
 10  9  1  6
  9 21  1  0
 10 11  2  0
 10 12  2  0
 10 13  1  0
 13 14  2  3
 14 15  1  0
 15 16  2  0
 15 20  1  0
 16 17  1  0
 17 18  1  0
 18 19  1  0
 19 20  1  0
 22 23  1  0
 23 24  1  0
 24 25  1  0
 25 26  2  0
 25 31  1  0
 26 27  1  0
 27 28  1  0
 27 29  2  0
 29 30  1  0
 30 31  2  0
 31 32  1  0
M  CHG  1  22   1
M  END
