
     RDKit          3D

 32 36  0  0  0  0  0  0  0  0999 V2000
    6.3000   -2.5860    1.1430 C   0  0  0  0  0  0  0  0  0  0  0  0
    5.7880   -2.2410   -0.0320 C   0  0  0  0  0  0  0  0  0  0  0  0
    4.4430   -1.6130   -0.1270 C   0  0  0  0  0  0  0  0  0  0  0  0
    4.5580   -0.3300   -0.7290 N   0  0  2  0  0  0  0  0  0  0  0  0
    5.8870    0.2180   -0.7290 C   0  0  0  0  0  0  0  0  0  0  0  0
    6.3660    0.7120    0.6050 C   0  0  0  0  0  0  0  0  0  0  0  0
    5.3010    0.8010    1.6420 C   0  0  0  0  0  0  0  0  0  0  0  0
    4.0110    1.2890    1.0590 C   0  0  0  0  0  0  0  0  0  0  0  0
    3.6680    0.6850   -0.2550 C   0  0  2  0  0  0  0  0  0  0  0  0
    2.2300    0.2400   -0.3170 C   0  0  0  0  0  0  0  0  0  0  0  0
    2.0020   -0.9050   -0.7460 O   0  0  0  0  0  0  0  0  0  0  0  0
    1.1770    1.0680    0.0890 N   0  0  0  0  0  0  0  0  0  0  0  0
   -0.2090    0.7610    0.0800 C   0  0  0  0  0  0  0  0  0  0  0  0
   -0.7440   -0.4440   -0.2750 C   0  0  0  0  0  0  0  0  0  0  0  0
   -2.1350   -0.6670   -0.2610 C   0  0  0  0  0  0  0  0  0  0  0  0
   -3.0000    0.3230    0.1110 C   0  0  0  0  0  0  0  0  0  0  0  0
   -2.4910    1.5420    0.4720 C   0  0  0  0  0  0  0  0  0  0  0  0
   -1.1360    1.7320    0.4490 C   0  0  0  0  0  0  0  0  0  0  0  0
   -3.5800    2.3430    0.7970 C   0  0  0  0  0  0  0  0  0  0  0  0
   -3.5700    3.6440    1.2150 C   0  0  0  0  0  0  0  0  0  0  0  0
   -4.7770    4.2600    1.4880 C   0  0  0  0  0  0  0  0  0  0  0  0
   -5.9350    3.5380    1.3270 C   0  0  0  0  0  0  0  0  0  0  0  0
   -5.9440    2.2080    0.9000 C   0  0  0  0  0  0  0  0  0  0  0  0
   -4.7380    1.5950    0.6280 C   0  0  0  0  0  0  0  0  0  0  0  0
   -4.3520    0.3720    0.2110 N   0  0  0  0  0  0  0  0  0  0  0  0
   -5.2930   -0.6590   -0.0610 C   0  0  0  0  0  0  0  0  0  0  0  0
   -6.5000   -0.4370    0.1100 O   0  0  0  0  0  0  0  0  0  0  0  0
   -4.9750   -2.0260   -0.5470 C   0  0  0  0  0  0  0  0  0  0  0  0
   -3.7710   -2.0160   -1.4720 C   0  0  1  0  0  0  0  0  0  0  0  0
   -3.8730   -3.2980   -2.3050 C   0  0  0  0  0  0  0  0  0  0  0  0
   -3.7850   -0.8320   -2.4100 C   0  0  0  0  0  0  0  0  0  0  0  0
   -2.4770   -2.0440   -0.6830 C   0  0  0  0  0  0  0  0  0  0  0  0
  1  2  2  0
  2  3  1  0
  4  3  1  1
  4  5  1  0
  4  9  1  0
  5  6  1  0
  6  7  1  0
  7  8  1  0
  8  9  1  0
  9 10  1  1
 10 11  2  0
 10 12  1  0
 12 13  1  0
 13 14  2  0
 13 18  1  0
 14 15  1  0
 15 16  2  0
 15 32  1  0
 16 17  1  0
 16 25  1  0
 17 18  2  0
 17 19  1  0
 19 20  2  0
 19 24  1  0
 20 21  1  0
 21 22  2  0
 22 23  1  0
 23 24  2  0
 24 25  1  0
 25 26  1  0
 26 27  2  0
 26 28  1  0
 28 29  1  0
 29 30  1  6
 29 31  1  0
 29 32  1  0
M  CHG  1   4   1
M  END
