
     RDKit          3D

 32 35  0  0  0  0  0  0  0  0999 V2000
   -7.8660    0.1830   -1.7130 C   0  0  0  0  0  0  0  0  0  0  0  0
   -6.8200    0.8400   -0.8370 C   0  0  0  0  0  0  0  0  0  0  0  0
   -6.7700    0.4290    0.3650 N   0  0  0  0  0  0  0  0  0  0  0  0
   -5.8470    0.9190    1.3830 C   0  0  0  0  0  0  0  0  0  0  0  0
   -5.1920   -0.2330    2.0110 C   0  0  0  0  0  0  0  0  0  0  0  0
   -3.9570   -0.1070    2.6460 N   0  0  0  0  0  0  0  0  0  0  0  0
   -3.1000    0.9760    2.3510 C   0  0  0  0  0  0  0  0  0  0  0  0
   -1.9370    0.4380    1.5540 C   0  0  0  0  0  0  0  0  0  0  0  0
   -1.0440   -0.4080    2.1870 C   0  0  0  0  0  0  0  0  0  0  0  0
    0.0450   -0.9480    1.5520 C   0  0  0  0  0  0  0  0  0  0  0  0
    0.2640   -0.6300    0.2060 C   0  0  0  0  0  0  0  0  0  0  0  0
    1.3850   -1.1800   -0.4580 N   0  0  0  0  0  0  0  0  0  0  0  0
    1.3450   -2.5210   -0.9950 C   0  0  0  0  0  0  0  0  0  0  0  0
    2.4990   -3.2970   -0.4060 C   0  0  0  0  0  0  0  0  0  0  0  0
    3.7810   -2.6120   -0.5950 C   0  0  0  0  0  0  0  0  0  0  0  0
    5.0160   -3.1040   -0.6860 O   0  0  0  0  0  0  0  0  0  0  0  0
    5.8800   -2.1070   -0.8550 C   0  0  0  0  0  0  0  0  0  0  0  0
    7.3270   -2.2770   -0.9930 C   0  0  0  0  0  0  0  0  0  0  0  0
    5.1730   -0.9240   -0.8730 C   0  0  0  0  0  0  0  0  0  0  0  0
    5.6710    0.4480   -1.0310 C   0  0  0  0  0  0  0  0  0  0  0  0
    6.3150    1.0090    0.1950 C   0  0  1  0  0  0  0  0  0  0  0  0
    6.7720    2.4170   -0.1160 C   0  0  0  0  0  0  0  0  0  0  0  0
    5.3920    0.9840    1.3810 C   0  0  0  0  0  0  0  0  0  0  0  0
    3.8500   -1.2410   -0.7100 C   0  0  0  0  0  0  0  0  0  0  0  0
    2.6250   -0.4650   -0.6420 C   0  0  0  0  0  0  0  0  0  0  0  0
    2.5750    0.7700   -0.7330 O   0  0  0  0  0  0  0  0  0  0  0  0
   -0.6440    0.2170   -0.4040 C   0  0  0  0  0  0  0  0  0  0  0  0
   -1.7410    0.7640    0.2290 C   0  0  0  0  0  0  0  0  0  0  0  0
   -2.6220    1.6570   -0.5560 C   0  0  0  0  0  0  0  0  0  0  0  0
   -3.6980    0.8940   -1.3310 C   0  0  0  0  0  0  0  0  0  0  0  0
   -4.7310    1.9070   -1.6770 C   0  0  0  0  0  0  0  0  0  0  0  0
   -6.0090    1.8690   -1.4680 C   0  0  0  0  0  0  0  0  0  0  0  0
  1  2  1  0
  2  3  2  0
  2 32  1  0
  3  4  1  0
  4  5  1  0
  5  6  1  0
  6  7  1  0
  7  8  1  0
  8  9  2  0
  8 28  1  0
  9 10  1  0
 10 11  2  0
 11 12  1  0
 11 27  1  0
 12 13  1  0
 12 25  1  0
 13 14  1  0
 14 15  1  0
 15 16  1  0
 15 24  2  0
 16 17  1  0
 17 18  1  0
 17 19  2  0
 19 20  1  0
 19 24  1  0
 20 21  1  0
 21 22  1  6
 21 23  1  0
 24 25  1  0
 25 26  2  0
 27 28  2  0
 28 29  1  0
 29 30  1  0
 30 31  1  0
 31 32  2  0
M  CHG  1   3   1
M  END
