
     RDKit          3D

 32 36  0  0  0  0  0  0  0  0999 V2000
    8.4510    0.7840   -0.6680 C   0  0  0  0  0  0  0  0  0  0  0  0
    7.4960   -0.3430   -0.9930 C   0  0  0  0  0  0  0  0  0  0  0  0
    6.4170   -0.4590    0.0120 C   0  0  0  0  0  0  0  0  0  0  0  0
    5.1480   -0.0120   -0.2430 C   0  0  0  0  0  0  0  0  0  0  0  0
    4.1450   -0.1370    0.7410 C   0  0  0  0  0  0  0  0  0  0  0  0
    4.3960   -0.6990    1.9670 C   0  0  0  0  0  0  0  0  0  0  0  0
    5.7030   -1.1520    2.2120 C   0  0  0  0  0  0  0  0  0  0  0  0
    6.6670   -1.0230    1.2440 C   0  0  0  0  0  0  0  0  0  0  0  0
    8.0510   -1.5090    1.5170 C   0  0  0  0  0  0  0  0  0  0  0  0
    3.3560   -0.8280    2.9890 C   0  0  0  0  0  0  0  0  0  0  0  0
    2.0700   -0.2860    2.5090 C   0  0  0  0  0  0  0  0  0  0  0  0
    1.8650    0.2480    1.3210 C   0  0  0  0  0  0  0  0  0  0  0  0
    0.5270    0.7620    0.9460 C   0  0  0  0  0  0  0  0  0  0  0  0
    0.0880   -0.0290   -0.2660 C   0  0  0  0  0  0  0  0  0  0  0  0
   -1.2150    0.3790   -0.7470 N   0  0  0  0  0  0  0  0  0  0  0  0
   -1.2490    1.4220   -1.7270 C   0  0  0  0  0  0  0  0  0  0  0  0
   -2.2470    1.7980   -2.5320 C   0  0  0  0  0  0  0  0  0  0  0  0
   -3.6030    1.2340   -2.6290 C   0  0  0  0  0  0  0  0  0  0  0  0
   -4.2100    1.6710   -3.7870 C   0  0  0  0  0  0  0  0  0  0  0  0
   -5.4900    1.2920   -4.1330 C   0  0  0  0  0  0  0  0  0  0  0  0
   -6.1690    0.4480   -3.2790 C   0  0  0  0  0  0  0  0  0  0  0  0
   -5.5540    0.0220   -2.1310 C   0  0  0  0  0  0  0  0  0  0  0  0
   -4.2750    0.3790   -1.7510 C   0  0  0  0  0  0  0  0  0  0  0  0
   -3.7290   -0.1340   -0.5330 N   0  0  0  0  0  0  0  0  0  0  0  0
   -4.5660   -0.5570    0.5320 C   0  0  0  0  0  0  0  0  0  0  0  0
   -6.0240   -0.5290    0.2200 C   0  0  2  0  0  0  0  0  0  0  0  0
   -6.7160   -1.4490    1.1030 N   0  0  0  0  0  0  0  0  0  0  0  0
   -6.6500   -0.9010    2.4440 C   0  0  0  0  0  0  0  0  0  0  0  0
   -6.3340   -0.8910   -1.2220 C   0  0  0  0  0  0  0  0  0  0  0  0
   -2.3290   -0.3050   -0.1900 C   0  0  0  0  0  0  0  0  0  0  0  0
   -2.1320   -1.1650    0.7040 O   0  0  0  0  0  0  0  0  0  0  0  0
    2.8840    0.3380    0.4130 O   0  0  0  0  0  0  0  0  0  0  0  0
  1  2  1  0
  2  3  1  0
  3  4  2  0
  3  8  1  0
  4  5  1  0
  5  6  2  0
  5 32  1  0
  6  7  1  0
  6 10  1  0
  7  8  2  0
  8  9  1  0
 10 11  1  0
 11 12  2  0
 12 13  1  0
 12 32  1  0
 13 14  1  0
 14 15  1  0
 15 16  1  0
 15 30  1  0
 16 17  2  0
 17 18  1  0
 18 19  2  0
 18 23  1  0
 19 20  1  0
 20 21  2  0
 21 22  1  0
 22 23  2  0
 22 29  1  0
 23 24  1  0
 24 25  1  0
 24 30  1  0
 25 26  1  0
 26 27  1  1
 26 29  1  0
 27 28  1  0
 30 31  2  0
M  CHG  1  27   1
M  END
