
     RDKit          3D

 19 21  0  0  0  0  0  0  0  0999 V2000
   -3.5410   -1.3330    1.1070 C   0  0  0  0  0  0  0  0  0  0  0  0
   -2.6870   -0.1580    0.7090 C   0  0  1  0  0  0  0  0  0  0  0  0
   -1.3360   -0.5530    0.6250 O   0  0  0  0  0  0  0  0  0  0  0  0
   -0.7680    0.6470    0.1420 C   0  0  1  0  0  0  0  0  0  0  0  0
    0.5880    0.4460   -0.2720 N   0  0  0  0  0  0  0  0  0  0  0  0
    1.1830    0.9480   -1.3660 C   0  0  0  0  0  0  0  0  0  0  0  0
    2.4860    0.5350   -1.4250 C   0  0  0  0  0  0  0  0  0  0  0  0
    3.9540    0.9730   -2.8860 I   0  0  0  0  0  0  0  0  0  0  0  0
    2.7130   -0.2540   -0.3260 C   0  0  0  0  0  0  0  0  0  0  0  0
    3.8380   -0.9260    0.1110 C   0  0  0  0  0  0  0  0  0  0  0  0
    5.0720   -0.8870   -0.6090 N   0  0  0  0  0  0  0  0  0  0  0  0
    3.7100   -1.6240    1.2580 N   0  0  0  0  0  0  0  0  0  0  0  0
    2.5620   -1.6800    1.9570 C   0  0  0  0  0  0  0  0  0  0  0  0
    1.4900   -1.0100    1.4950 N   0  0  0  0  0  0  0  0  0  0  0  0
    1.5090   -0.2820    0.3590 C   0  0  0  0  0  0  0  0  0  0  0  0
   -1.6780    1.1100   -0.9650 C   0  0  2  0  0  0  0  0  0  0  0  0
   -2.0080    2.4610   -0.8430 O   0  0  0  0  0  0  0  0  0  0  0  0
   -2.9430    0.3220   -0.6840 C   0  0  2  0  0  0  0  0  0  0  0  0
   -4.0640    1.1400   -0.7790 O   0  0  0  0  0  0  0  0  0  0  0  0
  2  1  1  6
  2  3  1  0
  2 18  1  0
  3  4  1  0
  4  5  1  6
  4 16  1  0
  5  6  1  0
  5 15  1  0
  6  7  2  0
  7  8  1  0
  7  9  1  0
  9 10  2  0
  9 15  1  0
 10 11  1  0
 10 12  1  0
 12 13  2  0
 13 14  1  0
 14 15  2  0
 16 17  1  1
 16 18  1  0
 18 19  1  1
M  END
