
     RDKit          3D

 27 28  0  0  0  0  0  0  0  0999 V2000
   -7.7930    0.2170    2.3090 C   0  0  0  0  0  0  0  0  0  0  0  0
   -7.2150   -0.3370    1.0100 C   0  0  0  0  0  0  0  0  0  0  0  0
   -8.0590   -0.6970   -0.0160 C   0  0  0  0  0  0  0  0  0  0  0  0
   -6.8690   -1.3020   -1.2830 S   0  0  0  0  0  0  0  0  0  0  0  0
   -5.4030   -0.9480   -0.1700 C   0  0  0  0  0  0  0  0  0  0  0  0
   -4.0810   -1.2910   -0.7320 N   0  0  0  0  0  0  0  0  0  0  0  0
   -2.9660   -0.8820   -0.0260 C   0  0  0  0  0  0  0  0  0  0  0  0
   -3.0820   -0.2040    1.0460 O   0  0  0  0  0  0  0  0  0  0  0  0
   -1.5640   -1.2110   -0.5000 C   0  0  0  0  0  0  0  0  0  0  0  0
   -0.6940   -0.2950    0.0500 O   0  0  0  0  0  0  0  0  0  0  0  0
    0.6740   -0.2450   -0.0920 C   0  0  0  0  0  0  0  0  0  0  0  0
    1.2370   -1.1550   -0.7750 O   0  0  0  0  0  0  0  0  0  0  0  0
    1.3710    0.8770    0.5600 C   0  0  0  0  0  0  0  0  0  0  0  0
    2.7550    0.8410    0.3700 O   0  0  0  0  0  0  0  0  0  0  0  0
    3.4110    0.7650   -0.8550 C   0  0  0  0  0  0  0  0  0  0  0  0
    2.7380    0.6890   -1.8920 O   0  0  0  0  0  0  0  0  0  0  0  0
    4.8850    0.7800   -0.9450 C   0  0  0  0  0  0  0  0  0  0  0  0
    5.6010   -0.3350   -1.3190 C   0  0  0  0  0  0  0  0  0  0  0  0
    6.9920   -0.1780   -1.3760 C   0  0  0  0  0  0  0  0  0  0  0  0
    7.7350   -1.3450   -1.7870 C   0  0  0  0  0  0  0  0  0  0  0  0
    8.3370   -2.3050   -2.1290 N   0  0  0  0  0  0  0  0  0  0  0  0
    7.5560    0.9970   -1.0740 C   0  0  0  0  0  0  0  0  0  0  0  0
    8.8130    1.1050   -1.1390 O   0  0  0  0  0  0  0  0  0  0  0  0
    6.8480    2.1040   -0.7020 N   0  0  0  0  0  0  0  0  0  0  0  0
    5.5310    1.9430   -0.6550 C   0  0  0  0  0  0  0  0  0  0  0  0
    4.5730    3.3740   -0.1860 Cl  0  0  0  0  0  0  0  0  0  0  0  0
   -5.9460   -0.5420    0.7400 N   0  0  0  0  0  0  0  0  0  0  0  0
  1  2  1  0
  2  3  2  0
  2 27  1  0
  3  4  1  0
  4  5  1  0
  5  6  1  0
  5 27  2  0
  6  7  1  0
  7  8  2  0
  7  9  1  0
  9 10  1  0
 10 11  1  0
 11 12  2  0
 11 13  1  0
 13 14  1  0
 14 15  1  0
 15 16  2  0
 15 17  1  0
 17 18  1  0
 17 25  2  0
 18 19  2  0
 19 20  1  0
 19 22  1  0
 20 21  3  0
 22 23  2  0
 22 24  1  0
 24 25  1  0
 25 26  1  0
M  END
