
     RDKit          3D

 30 32  0  0  0  0  0  0  0  0999 V2000
   -1.1810   -2.9430    1.0600 O   0  0  0  0  0  0  0  0  0  0  0  0
   -1.9900   -1.9840    1.0290 C   0  0  0  0  0  0  0  0  0  0  0  0
   -3.1780   -2.2100    1.8820 C   0  0  0  0  0  0  0  0  0  0  0  0
   -4.2450   -1.4270    2.0210 C   0  0  0  0  0  0  0  0  0  0  0  0
   -4.5260   -0.2130    1.4170 O   0  0  0  0  0  0  0  0  0  0  0  0
   -3.7550    0.5750    0.5460 C   0  0  0  0  0  0  0  0  0  0  0  0
   -4.3510    1.7050    0.2320 C   0  0  0  0  0  0  0  0  0  0  0  0
   -3.7400    2.7000   -0.6680 C   0  0  0  0  0  0  0  0  0  0  0  0
   -2.4290    2.3060   -1.1650 C   0  0  0  0  0  0  0  0  0  0  0  0
   -1.7910    1.1840   -0.8780 C   0  0  0  0  0  0  0  0  0  0  0  0
   -2.4310    0.2370    0.0110 C   0  0  0  0  0  0  0  0  0  0  0  0
   -1.6840   -0.8320    0.2070 C   0  0  0  0  0  0  0  0  0  0  0  0
   -0.4420   -0.8430   -0.4700 N   0  0  0  0  0  0  0  0  0  0  0  0
   -0.5420   -1.4030   -2.1370 Cl  0  0  0  0  0  0  0  0  0  0  0  0
    0.7920   -0.4080    0.1270 C   0  0  1  0  0  0  0  0  0  0  0  0
    1.0390   -1.2800    1.7040 Cl  0  0  0  0  0  0  0  0  0  0  0  0
    1.9270   -0.8440   -0.7010 C   0  0  0  0  0  0  0  0  0  0  0  0
    2.8940    0.1130   -1.0270 C   0  0  0  0  0  0  0  0  0  0  0  0
    2.7230    1.3960   -0.6280 N   0  0  0  0  0  0  0  0  0  0  0  0
    3.0740    2.0710    0.3510 C   0  0  0  0  0  0  0  0  0  0  0  0
    3.8460    1.7430    1.5180 C   0  0  0  0  0  0  0  0  0  0  0  0
    4.1290    3.1900    2.8000 Br  0  0  0  0  0  0  0  0  0  0  0  0
    4.3980    0.6150    1.8670 C   0  0  0  0  0  0  0  0  0  0  0  0
    5.1100    0.5180    3.0560 F   0  0  0  0  0  0  0  0  0  0  0  0
    4.3610   -0.5380    1.1760 F   0  0  0  0  0  0  0  0  0  0  0  0
    3.9650   -0.3080   -1.7750 N   0  0  0  0  0  0  0  0  0  0  0  0
    4.1120   -1.5710   -2.1910 C   0  0  0  0  0  0  0  0  0  0  0  0
    3.1740   -2.4690   -1.8670 N   0  0  0  0  0  0  0  0  0  0  0  0
    2.0760   -2.1300   -1.1240 C   0  0  0  0  0  0  0  0  0  0  0  0
    1.2410   -3.0290   -0.8560 O   0  0  0  0  0  0  0  0  0  0  0  0
  1  2  2  0
  2  3  1  0
  2 12  1  0
  3  4  2  0
  4  5  1  0
  5  6  1  0
  6  7  2  0
  6 11  1  0
  7  8  1  0
  8  9  1  0
  9 10  2  0
 10 11  1  0
 11 12  2  0
 12 13  1  0
 13 14  1  0
 13 15  1  0
 15 16  1  1
 15 17  1  0
 17 18  2  0
 17 29  1  0
 18 19  1  0
 18 26  1  0
 19 20  2  3
 20 21  1  0
 21 22  1  0
 21 23  2  3
 23 24  1  0
 23 25  1  0
 26 27  2  0
 27 28  1  0
 28 29  1  0
 29 30  2  0
M  END
