
     RDKit          3D

 31 33  0  0  0  0  0  0  0  0999 V2000
   -4.8980    1.0850   -0.9730 C   0  0  0  0  0  0  0  0  0  0  0  0
   -4.0430    1.5850   -0.1160 C   0  0  0  0  0  0  0  0  0  0  0  0
   -4.4360    2.7610    0.5650 O   0  0  0  0  0  0  0  0  0  0  0  0
   -2.7370    1.0460    0.1990 C   0  0  0  0  0  0  0  0  0  0  0  0
   -1.9680    1.6500    1.0600 C   0  0  0  0  0  0  0  0  0  0  0  0
   -2.3260    2.8900    1.7710 C   0  0  0  0  0  0  0  0  0  0  0  0
   -2.2020   -0.2060   -0.4900 C   0  0  2  0  0  0  0  0  0  0  0  0
   -3.0470   -1.3400   -0.0100 C   0  0  0  0  0  0  0  0  0  0  0  0
   -3.6810   -2.2230   -0.7610 C   0  0  0  0  0  0  0  0  0  0  0  0
   -4.4100   -3.1770    0.0700 C   0  0  0  0  0  0  0  0  0  0  0  0
   -4.1540   -2.7240    1.4130 N   0  0  0  0  0  0  0  0  0  0  0  0
   -3.3850   -1.6950    1.3790 C   0  0  0  0  0  0  0  0  0  0  0  0
   -0.7640   -0.3650   -0.1660 C   0  0  0  0  0  0  0  0  0  0  0  0
   -0.2280   -1.3680    0.4670 C   0  0  0  0  0  0  0  0  0  0  0  0
   -1.0380   -2.4090    0.8980 O   0  0  0  0  0  0  0  0  0  0  0  0
    1.2310   -1.4410    0.7400 C   0  0  0  0  0  0  0  0  0  0  0  0
    1.6820   -2.5800    1.4370 O   0  0  0  0  0  0  0  0  0  0  0  0
    2.3340   -3.6230    0.7040 C   0  0  0  0  0  0  0  0  0  0  0  0
    2.0800   -0.5070    0.3620 C   0  0  0  0  0  0  0  0  0  0  0  0
    1.5760    0.6530   -0.3570 C   0  0  0  0  0  0  0  0  0  0  0  0
    2.3810    1.6350   -0.7600 C   0  0  0  0  0  0  0  0  0  0  0  0
    3.7900    1.5710   -0.4850 C   0  0  0  0  0  0  0  0  0  0  0  0
    4.7670    1.8070   -1.4650 C   0  0  0  0  0  0  0  0  0  0  0  0
    6.1050    1.7400   -1.1590 C   0  0  0  0  0  0  0  0  0  0  0  0
    7.0770    1.9680   -2.1110 O   0  0  0  0  0  0  0  0  0  0  0  0
    6.4730    1.4370    0.1280 C   0  0  0  0  0  0  0  0  0  0  0  0
    5.4650    1.2110    1.0660 C   0  0  0  0  0  0  0  0  0  0  0  0
    5.7340    0.9300    2.2610 O   0  0  0  0  0  0  0  0  0  0  0  0
    4.2130    1.2880    0.7190 O   0  0  0  0  0  0  0  0  0  0  0  0
    0.1470    0.7180   -0.6190 C   0  0  0  0  0  0  0  0  0  0  0  0
   -0.3080    1.7090   -1.2390 O   0  0  0  0  0  0  0  0  0  0  0  0
  1  2  2  0
  2  3  1  0
  2  4  1  0
  4  5  2  3
  7  4  1  1
  5  6  1  0
  7  8  1  0
  7 13  1  0
  8  9  2  0
  8 12  1  0
  9 10  1  0
 10 11  1  0
 11 12  2  0
 13 14  2  0
 13 30  1  0
 14 15  1  0
 14 16  1  0
 16 17  1  0
 16 19  2  0
 17 18  1  0
 19 20  1  0
 20 21  2  3
 20 30  1  0
 21 22  1  0
 22 23  2  0
 22 29  1  0
 23 24  1  0
 24 25  1  0
 24 26  2  0
 26 27  1  0
 27 28  2  0
 27 29  1  0
 30 31  2  0
M  END
