
     RDKit          3D

 31 33  0  0  0  0  0  0  0  0999 V2000
    1.4300    3.2000   -2.8880 C   0  0  0  0  0  0  0  0  0  0  0  0
    0.9110    2.4880   -1.5920 C   0  0  0  0  0  0  0  0  0  0  0  0
   -0.3510    2.7980   -1.4260 C   0  0  0  0  0  0  0  0  0  0  0  0
   -1.3730    2.4400   -0.4070 C   0  0  0  0  0  0  0  0  0  0  0  0
   -1.5380    1.4770    0.4120 C   0  0  0  0  0  0  0  0  0  0  0  0
   -2.4590    0.9550    1.4530 C   0  0  0  0  0  0  0  0  0  0  0  0
   -2.4960   -0.5670    1.4300 C   0  0  1  0  0  0  0  0  0  0  0  0
   -3.8490   -1.1620    1.4070 C   0  0  2  0  0  0  0  0  0  0  0  0
   -3.9000   -2.5520    1.3820 O   0  0  0  0  0  0  0  0  0  0  0  0
   -4.8710   -0.6390    0.4700 C   0  0  0  0  0  0  0  0  0  0  0  0
   -6.1280   -1.1180    0.9700 O   0  0  0  0  0  0  0  0  0  0  0  0
   -1.4000   -1.2690    0.8050 C   0  0  0  0  0  0  0  0  0  0  0  0
   -1.1190   -1.2790   -0.5930 N   0  0  0  0  0  0  0  0  0  0  0  0
   -2.1680   -1.5350   -1.5430 C   0  0  0  0  0  0  0  0  0  0  0  0
   -2.7370   -0.5350   -2.3730 C   0  0  0  0  0  0  0  0  0  0  0  0
   -2.3450    0.6090   -2.5830 O   0  0  0  0  0  0  0  0  0  0  0  0
   -3.9310   -0.8780   -3.0750 O   0  0  0  0  0  0  0  0  0  0  0  0
    0.2850   -1.2860   -1.0550 C   0  0  0  0  0  0  0  0  0  0  0  0
    0.4060   -1.8720   -2.1930 O   0  0  0  0  0  0  0  0  0  0  0  0
    1.5390   -0.7970   -0.5080 C   0  0  0  0  0  0  0  0  0  0  0  0
    2.2550   -1.8460    0.0750 C   0  0  0  0  0  0  0  0  0  0  0  0
    3.5200   -1.7560    0.7200 C   0  0  0  0  0  0  0  0  0  0  0  0
    4.0860   -0.5730    0.7780 C   0  0  0  0  0  0  0  0  0  0  0  0
    5.3800   -0.4480    1.4370 C   0  0  0  0  0  0  0  0  0  0  0  0
    6.0770    0.7310    1.5670 C   0  0  0  0  0  0  0  0  0  0  0  0
    7.2440    0.4720    2.2360 C   0  0  0  0  0  0  0  0  0  0  0  0
    7.2110   -0.8850    2.4930 C   0  0  0  0  0  0  0  0  0  0  0  0
    6.1020   -1.3740    2.0060 O   0  0  0  0  0  0  0  0  0  0  0  0
    3.4570    0.4850    0.2270 O   0  0  0  0  0  0  0  0  0  0  0  0
    2.1750    0.5010   -0.4540 C   0  0  0  0  0  0  0  0  0  0  0  0
    1.8790    1.7160   -0.8940 C   0  0  0  0  0  0  0  0  0  0  0  0
  1  2  1  0
  2  3  2  0
  2 31  1  0
  3  4  1  0
  4  5  2  0
  5  6  1  0
  7  6  1  6
  7  8  1  0
  7 12  1  0
  8  9  1  6
  8 10  1  0
 10 11  1  0
 12 13  1  0
 13 14  1  0
 13 18  1  0
 14 15  1  0
 15 16  2  0
 15 17  1  0
 18 19  2  0
 18 20  1  0
 20 21  2  0
 20 30  1  0
 21 22  1  0
 22 23  2  0
 23 24  1  0
 23 29  1  0
 24 25  2  0
 24 28  1  0
 25 26  1  0
 26 27  2  0
 27 28  1  0
 29 30  1  0
 30 31  2  0
M  END
