
     RDKit          3D

 28 30  0  0  0  0  0  0  0  0999 V2000
   -5.4330    0.3580    2.9910 C   0  0  0  0  0  0  0  0  0  0  0  0
   -4.3550    0.7570    2.1410 O   0  0  0  0  0  0  0  0  0  0  0  0
   -3.3330   -0.1360    1.7980 C   0  0  0  0  0  0  0  0  0  0  0  0
   -3.4300   -1.2880    2.2810 O   0  0  0  0  0  0  0  0  0  0  0  0
   -2.2620    0.2450    0.9580 N   0  0  0  0  0  0  0  0  0  0  0  0
   -2.1700    1.5950    0.4050 C   0  0  0  0  0  0  0  0  0  0  0  0
   -2.1420    1.4510   -1.0800 C   0  0  0  0  0  0  0  0  0  0  0  0
   -1.1640    0.4570   -1.5760 C   0  0  0  0  0  0  0  0  0  0  0  0
   -0.4990    0.7750   -2.6820 C   0  0  0  0  0  0  0  0  0  0  0  0
   -0.8180    2.3130   -3.4530 Cl  0  0  0  0  0  0  0  0  0  0  0  0
    0.7730   -0.3620   -3.5080 Br  0  0  0  0  0  0  0  0  0  0  0  0
   -0.9800   -0.8220   -0.8590 C   0  0  1  0  0  0  0  0  0  0  0  0
   -1.8920   -1.8380   -1.4860 C   0  0  0  0  0  0  0  0  0  0  0  0
    0.4610   -1.3000   -1.0010 C   0  0  0  0  0  0  0  0  0  0  0  0
    0.6890   -2.4940   -1.4010 C   0  0  0  0  0  0  0  0  0  0  0  0
    1.9590   -3.1820   -1.6300 C   0  0  0  0  0  0  0  0  0  0  0  0
    2.1410   -4.2470   -0.7780 F   0  0  0  0  0  0  0  0  0  0  0  0
    1.4680   -0.3750   -0.5090 C   0  0  0  0  0  0  0  0  0  0  0  0
    1.1930    0.9550   -0.3570 N   0  0  0  0  0  0  0  0  0  0  0  0
    2.2740    1.5280    0.1730 C   0  0  0  0  0  0  0  0  0  0  0  0
    3.2230    0.5860    0.3590 C   0  0  0  0  0  0  0  0  0  0  0  0
    2.6940   -0.5970   -0.0750 N   0  0  0  0  0  0  0  0  0  0  0  0
    4.3150    1.1280    0.8870 C   0  0  0  0  0  0  0  0  0  0  0  0
    5.5340    0.4510    1.2290 N   0  0  0  0  0  0  0  0  0  0  0  0
    5.8310   -0.7320    0.6370 F   0  0  0  0  0  0  0  0  0  0  0  0
    4.0850    2.5710    1.0780 C   0  0  0  0  0  0  0  0  0  0  0  0
    2.7120    2.7370    0.5770 C   0  0  0  0  0  0  0  0  0  0  0  0
   -1.2270   -0.6590    0.6100 C   0  0  0  0  0  0  0  0  0  0  0  0
  1  2  1  0
  2  3  1  0
  3  4  2  0
  3  5  1  0
  5  6  1  0
  5 28  1  0
  6  7  1  0
  7  8  1  0
  8  9  2  3
  8 12  1  0
  9 10  1  0
  9 11  1  0
 12 13  1  6
 12 14  1  0
 12 28  1  0
 14 15  2  3
 14 18  1  0
 15 16  1  0
 16 17  1  0
 18 19  2  0
 18 22  1  0
 19 20  1  0
 20 21  1  0
 20 27  2  0
 21 22  1  0
 21 23  2  0
 23 24  1  0
 23 26  1  0
 24 25  1  0
 26 27  1  0
M  END
