
     RDKit          3D

 29 31  0  0  0  0  0  0  0  0999 V2000
   -2.8470   -2.4630    2.8530 C   0  0  0  0  0  0  0  0  0  0  0  0
   -2.3770   -1.1140    2.3850 C   0  0  0  0  0  0  0  0  0  0  0  0
   -3.0360   -0.6220    1.1290 C   0  0  1  0  0  0  0  0  0  0  0  0
   -2.4850    0.7660    0.7940 C   0  0  0  0  0  0  0  0  0  0  0  0
   -3.1720    1.1900   -0.5000 C   0  0  0  0  0  0  0  0  0  0  0  0
   -2.5710    0.4080   -1.6450 C   0  0  0  0  0  0  0  0  0  0  0  0
   -2.4670   -1.0290   -1.2680 C   0  0  0  0  0  0  0  0  0  0  0  0
   -2.1460   -1.9970   -2.2650 N   0  0  0  0  0  0  0  0  0  0  0  0
   -1.0740   -2.0170   -2.9320 C   0  0  0  0  0  0  0  0  0  0  0  0
   -0.9090   -3.3250   -4.1170 Cl  0  0  0  0  0  0  0  0  0  0  0  0
   -0.0400   -1.0620   -2.7600 N   0  0  0  0  0  0  0  0  0  0  0  0
    0.6820   -0.7760   -1.5950 N   0  0  0  0  0  0  0  0  0  0  0  0
    0.4780   -1.4110   -0.4010 F   0  0  0  0  0  0  0  0  0  0  0  0
    1.6380    0.2530   -1.8600 C   0  0  0  0  0  0  0  0  0  0  0  0
    2.5690    0.8040   -0.8590 C   0  0  0  0  0  0  0  0  0  0  0  0
    2.6630    0.4400    0.4100 C   0  0  0  0  0  0  0  0  0  0  0  0
    3.6900    1.2000    1.0930 C   0  0  0  0  0  0  0  0  0  0  0  0
    3.9620    1.2070    2.3820 C   0  0  0  0  0  0  0  0  0  0  0  0
    5.0270    2.0180    2.9530 C   0  0  0  0  0  0  0  0  0  0  0  0
    5.2730    2.0160    4.1690 O   0  0  0  0  0  0  0  0  0  0  0  0
    4.4200    2.0000    0.0880 C   0  0  0  0  0  0  0  0  0  0  0  0
    3.5530    1.8570   -1.1100 C   0  0  0  0  0  0  0  0  0  0  0  0
    3.6200    2.5200   -2.1980 O   0  0  0  0  0  0  0  0  0  0  0  0
    1.5140    0.5750   -3.0980 N   0  0  0  0  0  0  0  0  0  0  0  0
    0.5090   -0.1640   -3.7800 C   0  0  2  0  0  0  0  0  0  0  0  0
   -0.4240    0.6890   -4.2910 F   0  0  0  0  0  0  0  0  0  0  0  0
    1.2200   -1.1580   -5.1000 Cl  0  0  0  0  0  0  0  0  0  0  0  0
   -2.6760   -1.4860   -0.0200 C   0  0  0  0  0  0  0  0  0  0  0  0
   -2.4730   -3.3990    0.1790 Br  0  0  0  0  0  0  0  0  0  0  0  0
  1  2  1  0
  3  2  1  1
  3  4  1  0
  3 28  1  0
  4  5  1  0
  5  6  1  0
  6  7  1  0
  7  8  1  0
  7 28  2  0
  8  9  2  3
  9 10  1  0
  9 11  1  0
 11 12  1  0
 11 25  1  0
 12 13  1  0
 12 14  1  0
 14 15  1  0
 14 24  2  0
 15 16  2  0
 15 22  1  0
 16 17  1  0
 17 18  2  3
 17 21  1  0
 18 19  1  0
 19 20  2  0
 21 22  1  0
 22 23  2  0
 24 25  1  0
 25 26  1  6
 25 27  1  0
 28 29  1  0
M  END
