
     RDKit          3D

 31 32  0  0  0  0  0  0  0  0999 V2000
   -4.9210   -0.4720    2.6760 C   0  0  0  0  0  0  0  0  0  0  0  0
   -3.7630   -0.9120    1.8300 C   0  0  0  0  0  0  0  0  0  0  0  0
   -3.1460    0.2310    1.0830 C   0  0  2  0  0  0  0  0  0  0  0  0
   -2.7060    1.1490    2.0570 O   0  0  0  0  0  0  0  0  0  0  0  0
   -4.0410    0.9680    0.1620 C   0  0  0  0  0  0  0  0  0  0  0  0
   -3.2440    1.7780   -0.7600 C   0  0  0  0  0  0  0  0  0  0  0  0
   -3.8560    2.3810   -1.6410 O   0  0  0  0  0  0  0  0  0  0  0  0
   -1.7650    1.9500   -0.7470 C   0  0  0  0  0  0  0  0  0  0  0  0
   -1.0530    0.9660    0.1600 C   0  0  2  0  0  0  0  0  0  0  0  0
    0.3650    0.9610   -0.0860 C   0  0  0  0  0  0  0  0  0  0  0  0
    0.8540    2.0460   -0.8360 C   0  0  0  0  0  0  0  0  0  0  0  0
    2.1900    2.2600   -1.0550 C   0  0  0  0  0  0  0  0  0  0  0  0
    2.6690    3.4290   -1.8600 C   0  0  0  0  0  0  0  0  0  0  0  0
    3.1630    1.4140   -0.5480 C   0  0  0  0  0  0  0  0  0  0  0  0
    4.5370    1.6770   -0.7990 N   0  0  0  0  0  0  0  0  0  0  0  0
    5.6460    0.9300   -0.3780 C   0  0  0  0  0  0  0  0  0  0  0  0
    5.4870   -0.1000    0.3010 O   0  0  0  0  0  0  0  0  0  0  0  0
    7.0300    1.3910   -0.7570 C   0  0  0  0  0  0  0  0  0  0  0  0
    6.9910    2.5510   -1.5020 O   0  0  0  0  0  0  0  0  0  0  0  0
    2.7170    0.3560    0.1790 C   0  0  0  0  0  0  0  0  0  0  0  0
    1.3340    0.1260    0.4090 C   0  0  0  0  0  0  0  0  0  0  0  0
    0.9670   -0.9700    1.1340 O   0  0  0  0  0  0  0  0  0  0  0  0
    0.9510   -2.2910    0.6730 C   0  0  1  0  0  0  0  0  0  0  0  0
    0.3790   -3.2380    1.7360 C   0  0  0  0  0  0  0  0  0  0  0  0
    0.2890   -2.5770   -0.6270 C   0  0  0  0  0  0  0  0  0  0  0  0
    2.4080   -2.8040    0.5050 C   0  0  0  0  0  0  0  0  0  0  0  0
   -1.8820   -0.2190    0.2930 C   0  0  2  0  0  0  0  0  0  0  0  0
   -2.4580   -0.7030   -1.0000 C   0  0  0  0  0  0  0  0  0  0  0  0
   -2.1010   -0.2780   -2.1320 O   0  0  0  0  0  0  0  0  0  0  0  0
   -3.4370   -1.6700   -1.0030 O   0  0  0  0  0  0  0  0  0  0  0  0
   -4.0000   -2.1500   -2.2130 C   0  0  0  0  0  0  0  0  0  0  0  0
  1  2  1  0
  2  3  1  0
  3  4  1  1
  3  5  1  0
  3 27  1  0
  5  6  1  0
  6  7  2  0
  6  8  1  0
  8  9  1  0
  9 10  1  6
  9 27  1  0
 10 11  2  0
 10 21  1  0
 11 12  1  0
 12 13  1  0
 12 14  2  0
 14 15  1  0
 14 20  1  0
 15 16  1  0
 16 17  2  0
 16 18  1  0
 18 19  1  0
 20 21  2  0
 21 22  1  0
 22 23  1  0
 23 24  1  1
 23 25  1  0
 23 26  1  0
 27 28  1  6
 28 29  2  0
 28 30  1  0
 30 31  1  0
M  END
