
     RDKit          3D

 29 31  0  0  0  0  0  0  0  0999 V2000
    5.7260    0.3400    0.8570 C   0  0  0  0  0  0  0  0  0  0  0  0
    4.8840    1.1240    1.5040 C   0  0  0  0  0  0  0  0  0  0  0  0
    5.4160    2.3140    2.2040 C   0  0  0  0  0  0  0  0  0  0  0  0
    4.7930    3.5890    1.6820 C   0  0  0  0  0  0  0  0  0  0  0  0
    3.4910    0.8440    1.5340 N   0  0  0  0  0  0  0  0  0  0  0  0
    2.9930    0.0470    2.4180 C   0  0  0  0  0  0  0  0  0  0  0  0
    4.1630   -0.7670    3.7190 Br  0  0  0  0  0  0  0  0  0  0  0  0
    1.5610   -0.3100    2.4770 C   0  0  1  0  0  0  0  0  0  0  0  0
    1.5150   -1.7110    2.3840 F   0  0  0  0  0  0  0  0  0  0  0  0
    0.8300    0.1570    4.0270 Cl  0  0  0  0  0  0  0  0  0  0  0  0
    0.7970    0.2070    1.3290 C   0  0  0  0  0  0  0  0  0  0  0  0
    1.5300    0.6960    0.2820 F   0  0  0  0  0  0  0  0  0  0  0  0
   -0.4830    0.2020    1.2220 N   0  0  0  0  0  0  0  0  0  0  0  0
   -1.2460    0.6730    0.1790 N   0  0  0  0  0  0  0  0  0  0  0  0
   -1.8310    2.0410    0.2560 C   0  0  0  0  0  0  0  0  0  0  0  0
   -2.4860    2.2390   -1.1050 C   0  0  0  0  0  0  0  0  0  0  0  0
   -2.8660    0.8370   -1.4010 C   0  0  0  0  0  0  0  0  0  0  0  0
   -3.8930    0.2730   -1.8750 N   0  0  0  0  0  0  0  0  0  0  0  0
   -4.0140   -1.1430   -2.0580 C   0  0  0  0  0  0  0  0  0  0  0  0
   -5.0380   -1.6800   -2.6290 C   0  0  0  0  0  0  0  0  0  0  0  0
   -5.3550   -3.0860   -2.8930 C   0  0  0  0  0  0  0  0  0  0  0  0
   -2.8540   -1.9650   -1.6590 C   0  0  0  0  0  0  0  0  0  0  0  0
   -1.7660   -1.3620   -1.1640 C   0  0  0  0  0  0  0  0  0  0  0  0
   -0.7940   -2.4010   -0.8580 C   0  0  0  0  0  0  0  0  0  0  0  0
    0.3840   -2.3100   -0.3800 O   0  0  0  0  0  0  0  0  0  0  0  0
   -1.3310   -3.6130   -1.1720 O   0  0  0  0  0  0  0  0  0  0  0  0
   -2.6150   -3.4090   -1.7050 C   0  0  0  0  0  0  0  0  0  0  0  0
   -1.6220    0.0740   -1.0470 C   0  0  2  0  0  0  0  0  0  0  0  0
   -0.3890    0.6700   -2.2590 Cl  0  0  0  0  0  0  0  0  0  0  0  0
  1  2  2  0
  2  3  1  0
  2  5  1  0
  3  4  1  0
  5  6  2  3
  6  7  1  0
  6  8  1  0
  8  9  1  6
  8 10  1  0
  8 11  1  0
 11 12  1  0
 11 13  2  3
 13 14  1  0
 14 15  1  0
 14 28  1  0
 15 16  1  0
 16 17  1  0
 17 18  2  0
 17 28  1  0
 18 19  1  0
 19 20  2  3
 19 22  1  0
 20 21  1  0
 22 23  2  0
 22 27  1  0
 23 24  1  0
 23 28  1  0
 24 25  2  0
 24 26  1  0
 26 27  1  0
 28 29  1  6
M  END
