
     RDKit          3D

  9  9  0  0  0  0  0  0  0  0999 V2000
   -2.5980    0.3610   -0.4690 C   0  0  0  0  0  0  0  0  0  0  0  0
   -1.6630   -0.4660    0.2260 N   0  0  0  0  0  0  0  0  0  0  0  0
   -0.2680   -0.2550    0.1660 C   0  0  0  0  0  0  0  0  0  0  0  0
    0.2900    0.7700   -0.5740 C   0  0  0  0  0  0  0  0  0  0  0  0
    1.6670    0.9320   -0.5990 C   0  0  0  0  0  0  0  0  0  0  0  0
    2.5270    0.1010    0.0940 C   0  0  0  0  0  0  0  0  0  0  0  0
    1.9570   -0.8890    0.8060 N   0  0  0  0  0  0  0  0  0  0  0  0
    0.6170   -1.0710    0.8490 C   0  0  0  0  0  0  0  0  0  0  0  0
    0.0960   -2.0050    1.5210 O   0  0  0  0  0  0  0  0  0  0  0  0
  1  2  1  0
  2  3  1  0
  3  4  2  0
  3  8  1  0
  4  5  1  0
  5  6  2  0
  6  7  1  0
  7  8  1  0
  8  9  2  0
M  END
