
     RDKit          3D

 18 18  0  0  0  0  0  0  0  0999 V2000
   -3.4900    0.3380    1.1140 C   0  0  0  0  0  0  0  0  0  0  0  0
   -2.7060    0.2440   -0.1400 C   0  0  1  0  0  0  0  0  0  0  0  0
   -2.9000   -1.2700   -0.5510 C   0  0  0  0  0  0  0  0  0  0  0  0
   -3.2770    1.0460   -1.3000 C   0  0  0  0  0  0  0  0  0  0  0  0
   -3.3810    2.7280   -0.8150 Cl  0  0  0  0  0  0  0  0  0  0  0  0
   -1.2690    0.5120   -0.0730 C   0  0  0  0  0  0  0  0  0  0  0  0
   -0.7840    1.5990   -0.4690 O   0  0  0  0  0  0  0  0  0  0  0  0
   -0.3800   -0.4730    0.4300 N   0  0  0  0  0  0  0  0  0  0  0  0
    1.0230   -0.2920    0.4490 C   0  0  0  0  0  0  0  0  0  0  0  0
    1.7040   -1.0060   -0.5460 C   0  0  0  0  0  0  0  0  0  0  0  0
    3.0600   -0.9030   -0.6400 C   0  0  0  0  0  0  0  0  0  0  0  0
    3.7220   -0.0690    0.2750 C   0  0  0  0  0  0  0  0  0  0  0  0
    5.2020    0.0800    0.1980 C   0  0  2  0  0  0  0  0  0  0  0  0
    5.4970    1.4380    0.2310 F   0  0  0  0  0  0  0  0  0  0  0  0
    5.6500   -0.4280   -1.0250 F   0  0  0  0  0  0  0  0  0  0  0  0
    5.8550   -0.5720    1.2170 F   0  0  0  0  0  0  0  0  0  0  0  0
    3.0390    0.6240    1.2420 C   0  0  0  0  0  0  0  0  0  0  0  0
    1.6460    0.5090    1.3350 C   0  0  0  0  0  0  0  0  0  0  0  0
  2  1  1  1
  2  3  1  0
  2  4  1  0
  2  6  1  0
  4  5  1  0
  6  7  2  0
  6  8  1  0
  8  9  1  0
  9 10  2  0
  9 18  1  0
 10 11  1  0
 11 12  2  0
 12 13  1  0
 12 17  1  0
 13 14  1  6
 13 15  1  0
 13 16  1  0
 17 18  2  0
M  END
