
     RDKit          3D

  9  9  0  0  0  0  0  0  0  0999 V2000
   -2.6760    0.5810   -0.1700 C   0  0  0  0  0  0  0  0  0  0  0  0
   -1.8000   -0.3060    0.5510 N   0  0  0  0  0  0  0  0  0  0  0  0
   -0.4020   -0.3070    0.3220 C   0  0  0  0  0  0  0  0  0  0  0  0
    0.1750    0.5540   -0.6130 C   0  0  0  0  0  0  0  0  0  0  0  0
    1.5330    0.5760   -0.8570 C   0  0  0  0  0  0  0  0  0  0  0  0
    2.3420   -0.2880   -0.1480 C   0  0  0  0  0  0  0  0  0  0  0  0
    3.7110   -0.2590   -0.4020 O   0  0  0  0  0  0  0  0  0  0  0  0
    1.7810   -1.1170    0.7530 N   0  0  0  0  0  0  0  0  0  0  0  0
    0.4600   -1.1460    0.9980 C   0  0  0  0  0  0  0  0  0  0  0  0
  1  2  1  0
  2  3  1  0
  3  4  2  0
  3  9  1  0
  4  5  1  0
  5  6  2  0
  6  7  1  0
  6  8  1  0
  8  9  2  0
M  END
