
     RDKit          3D

  9  9  0  0  0  0  0  0  0  0999 V2000
   -2.7100   -0.0530   -0.6200 C   0  0  0  0  0  0  0  0  0  0  0  0
   -1.9440    0.4680    0.5750 C   0  0  0  0  0  0  0  0  0  0  0  0
   -0.5460    0.1260    0.4660 N   0  0  0  0  0  0  0  0  0  0  0  0
    0.3640    0.9130   -0.1330 C   0  0  0  0  0  0  0  0  0  0  0  0
    1.5960    0.2660   -0.0500 C   0  0  0  0  0  0  0  0  0  0  0  0
    2.8030    0.7850   -0.5700 N   0  0  0  0  0  0  0  0  0  0  0  0
    1.4240   -0.9290    0.6100 C   0  0  0  0  0  0  0  0  0  0  0  0
    2.4010   -1.8970    0.9150 O   0  0  0  0  0  0  0  0  0  0  0  0
    0.0820   -0.9930    0.9210 C   0  0  0  0  0  0  0  0  0  0  0  0
  1  2  1  0
  2  3  1  0
  3  4  1  0
  3  9  1  0
  4  5  2  0
  5  6  1  0
  5  7  1  0
  7  8  1  0
  7  9  2  0
M  END
