
     RDKit          3D

 18 18  0  0  0  0  0  0  0  0999 V2000
   -2.6300   -1.8910   -1.5930 C   0  0  0  0  0  0  0  0  0  0  0  0
   -3.1110   -0.8030   -0.9880 C   0  0  0  0  0  0  0  0  0  0  0  0
   -2.3400   -0.0760   -0.0100 C   0  0  0  0  0  0  0  0  0  0  0  0
   -2.8090    0.9900    0.5980 C   0  0  0  0  0  0  0  0  0  0  0  0
   -4.1320    1.6100    0.4150 C   0  0  0  0  0  0  0  0  0  0  0  0
   -3.9910    3.2930   -0.1860 Cl  0  0  0  0  0  0  0  0  0  0  0  0
   -0.9910   -0.5230    0.2880 N   0  0  0  0  0  0  0  0  0  0  0  0
    0.0330    0.3840   -0.1020 C   0  0  0  0  0  0  0  0  0  0  0  0
    1.4110   -0.0190    0.1450 C   0  0  0  0  0  0  0  0  0  0  0  0
    1.9670   -1.1570    0.7110 C   0  0  0  0  0  0  0  0  0  0  0  0
    3.3310   -0.9920    0.6900 C   0  0  0  0  0  0  0  0  0  0  0  0
    4.3180   -1.9910    1.2050 C   0  0  1  0  0  0  0  0  0  0  0  0
    5.4430   -1.9860    0.3980 F   0  0  0  0  0  0  0  0  0  0  0  0
    4.6690   -1.6590    2.4860 F   0  0  0  0  0  0  0  0  0  0  0  0
    3.8300   -3.2850    1.1960 F   0  0  0  0  0  0  0  0  0  0  0  0
    3.6100    0.1810    0.1420 O   0  0  0  0  0  0  0  0  0  0  0  0
    2.4990    0.7990   -0.2010 C   0  0  0  0  0  0  0  0  0  0  0  0
    2.3450    2.1270   -0.8460 C   0  0  0  0  0  0  0  0  0  0  0  0
  1  2  2  0
  2  3  1  0
  3  4  2  3
  3  7  1  0
  4  5  1  0
  5  6  1  0
  7  8  1  0
  8  9  1  0
  9 10  1  0
  9 17  2  0
 10 11  2  0
 11 12  1  0
 11 16  1  0
 12 13  1  6
 12 14  1  0
 12 15  1  0
 16 17  1  0
 17 18  1  0
M  END
