
     RDKit          3D

  9  9  0  0  0  0  0  0  0  0999 V2000
   -2.3620   -1.3450    0.0840 C   0  0  0  0  0  0  0  0  0  0  0  0
   -0.9100   -1.1710   -0.2270 C   0  0  0  0  0  0  0  0  0  0  0  0
   -0.0660   -2.0220   -0.8230 N   0  0  0  0  0  0  0  0  0  0  0  0
    1.1560   -1.4810   -0.9130 N   0  0  0  0  0  0  0  0  0  0  0  0
    1.1200   -0.2520   -0.3680 C   0  0  0  0  0  0  0  0  0  0  0  0
    2.2630    0.6960   -0.2590 C   0  0  0  0  0  0  0  0  0  0  0  0
   -0.1730   -0.0450    0.0670 C   0  0  0  0  0  0  0  0  0  0  0  0
   -0.6510    1.1950    0.7340 C   0  0  0  0  0  0  0  0  0  0  0  0
    0.3430    2.1350    0.8790 O   0  0  0  0  0  0  0  0  0  0  0  0
  1  2  1  0
  2  3  2  0
  2  7  1  0
  3  4  1  0
  4  5  1  0
  5  6  1  0
  5  7  2  0
  7  8  1  0
  8  9  1  0
M  END
