
     RDKit          3D

 18 18  0  0  0  0  0  0  0  0999 V2000
    1.1120    1.3970    0.1030 O   0  0  0  0  0  0  0  0  0  0  0  0
    0.9510    0.3160   -0.4790 C   0  0  0  0  0  0  0  0  0  0  0  0
   -0.4150   -0.2680   -0.5250 C   0  0  0  0  0  0  0  0  0  0  0  0
   -1.4080    0.3680    0.0460 C   0  0  0  0  0  0  0  0  0  0  0  0
   -2.7740   -0.2040    0.0080 C   0  0  0  0  0  0  0  0  0  0  0  0
   -3.7260    0.4790    0.5940 C   0  0  0  0  0  0  0  0  0  0  0  0
   -5.1110    0.1690    0.7080 C   0  0  0  0  0  0  0  0  0  0  0  0
   -5.9160    1.0360    1.3690 C   0  0  0  0  0  0  0  0  0  0  0  0
   -5.2350    2.4970    2.0580 Cl  0  0  0  0  0  0  0  0  0  0  0  0
   -2.9400   -1.4970   -0.6880 C   0  0  1  0  0  0  0  0  0  0  0  0
   -2.1210   -2.4750   -0.0880 F   0  0  0  0  0  0  0  0  0  0  0  0
   -4.2060   -1.9760   -0.5540 F   0  0  0  0  0  0  0  0  0  0  0  0
   -2.5460   -1.4540   -2.0200 F   0  0  0  0  0  0  0  0  0  0  0  0
    1.9910   -0.3980   -1.1040 N   0  0  0  0  0  0  0  0  0  0  0  0
    3.3520    0.1490   -1.0790 C   0  0  0  0  0  0  0  0  0  0  0  0
    3.7530    0.2760    0.3650 C   0  0  2  0  0  0  0  0  0  0  0  0
    5.0660    0.7940    0.7780 C   0  0  0  0  0  0  0  0  0  0  0  0
    4.8860   -0.6700    0.7920 C   0  0  0  0  0  0  0  0  0  0  0  0
  1  2  2  0
  2  3  1  0
  2 14  1  0
  3  4  2  3
  4  5  1  0
  5  6  2  3
  5 10  1  0
  6  7  1  0
  7  8  2  3
  8  9  1  0
 10 11  1  1
 10 12  1  0
 10 13  1  0
 14 15  1  0
 16 15  1  6
 16 17  1  0
 16 18  1  0
 17 18  1  0
M  END
