
     RDKit          3D

 38 42  0  0  0  0  0  0  0  0999 V2000
    4.6350   -3.7210    0.7160 C   0  0  0  0  0  0  0  0  0  0  0  0
    4.8430   -2.6220    1.5450 O   0  0  0  0  0  0  0  0  0  0  0  0
    5.8820   -1.8150    1.0870 C   0  0  2  0  0  0  0  0  0  0  0  0
    6.9490   -1.8480    2.1770 C   0  0  0  0  0  0  0  0  0  0  0  0
    5.3560   -0.4080    1.0130 C   0  0  0  0  0  0  0  0  0  0  0  0
    4.2700   -0.2450    0.1580 O   0  0  0  0  0  0  0  0  0  0  0  0
    4.3570   -0.5340   -1.1770 C   0  0  0  0  0  0  0  0  0  0  0  0
    5.4610   -0.9560   -1.6130 O   0  0  0  0  0  0  0  0  0  0  0  0
    3.2590   -0.3930   -2.1580 C   0  0  0  0  0  0  0  0  0  0  0  0
    2.0390    0.0880   -1.6050 N   0  0  0  0  0  0  0  0  0  0  0  0
    1.1190   -0.7000   -1.1240 C   0  0  0  0  0  0  0  0  0  0  0  0
    1.2720   -1.9590   -1.1270 O   0  0  0  0  0  0  0  0  0  0  0  0
   -0.1140   -0.2330   -0.5650 C   0  0  0  0  0  0  0  0  0  0  0  0
   -0.9540   -1.2760   -0.1130 C   0  0  0  0  0  0  0  0  0  0  0  0
   -2.2120   -1.3280    0.4680 N   0  0  2  0  0  0  0  0  0  0  0  0
   -2.3370   -2.7420    1.0630 C   0  0  0  0  0  0  0  0  0  0  0  0
   -3.7460   -3.1210    1.1670 C   0  0  0  0  0  0  0  0  0  0  0  0
   -4.6540   -2.0280    1.4260 N   0  0  0  0  0  0  0  0  0  0  0  0
   -5.9890   -2.5570    1.4110 C   0  0  0  0  0  0  0  0  0  0  0  0
   -6.3820   -2.5430    0.0210 N   0  0  0  0  0  0  0  0  0  0  0  0
   -5.8260   -1.3530   -0.5350 C   0  0  0  0  0  0  0  0  0  0  0  0
   -4.6150   -1.0650    0.3400 C   0  0  1  0  0  0  0  0  0  0  0  0
   -4.7240    0.3080    0.9530 C   0  0  0  0  0  0  0  0  0  0  0  0
   -3.3340   -1.2680   -0.4060 C   0  0  0  0  0  0  0  0  0  0  0  0
   -0.2790    1.1320   -0.5610 C   0  0  0  0  0  0  0  0  0  0  0  0
   -1.4190    1.6880   -0.0470 C   0  0  0  0  0  0  0  0  0  0  0  0
   -1.6290    3.0240   -0.0180 C   0  0  0  0  0  0  0  0  0  0  0  0
   -0.6420    3.8350   -0.5320 C   0  0  0  0  0  0  0  0  0  0  0  0
   -0.8090    5.2110   -0.5270 C   0  0  0  0  0  0  0  0  0  0  0  0
    0.1500    6.0520   -1.0290 C   0  0  0  0  0  0  0  0  0  0  0  0
   -0.1090    7.7860   -1.0000 Cl  0  0  0  0  0  0  0  0  0  0  0  0
    1.3130    5.5360   -1.5560 C   0  0  0  0  0  0  0  0  0  0  0  0
    2.3410    6.4880   -2.0980 C   0  0  0  0  0  0  0  0  0  0  0  0
    1.5000    4.1630   -1.5710 C   0  0  0  0  0  0  0  0  0  0  0  0
    0.5400    3.3250   -1.0680 C   0  0  0  0  0  0  0  0  0  0  0  0
    0.6920    1.9680   -1.0680 N   0  0  0  0  0  0  0  0  0  0  0  0
    1.8120    1.4430   -1.5710 C   0  0  0  0  0  0  0  0  0  0  0  0
    2.7230    2.1380   -2.0430 O   0  0  0  0  0  0  0  0  0  0  0  0
  1  2  1  0
  2  3  1  0
  3  4  1  1
  3  5  1  0
  5  6  1  0
  6  7  1  0
  7  8  2  0
  7  9  1  0
  9 10  1  0
 10 11  1  0
 10 37  1  0
 11 12  2  0
 11 13  1  0
 13 14  1  0
 13 25  2  0
 15 14  1  6
 15 16  1  0
 15 24  1  0
 16 17  1  0
 17 18  1  0
 18 19  1  0
 18 22  1  0
 19 20  1  0
 20 21  1  0
 21 22  1  0
 22 23  1  1
 22 24  1  0
 25 26  1  0
 25 36  1  0
 26 27  2  0
 27 28  1  0
 28 29  2  0
 28 35  1  0
 29 30  1  0
 30 31  1  0
 30 32  2  0
 32 33  1  0
 32 34  1  0
 34 35  2  0
 35 36  1  0
 36 37  1  0
 37 38  2  0
M  CHG  2  15   1  20   1
M  END
