
     RDKit          3D

 38 42  0  0  0  0  0  0  0  0999 V2000
    6.8490   -0.2810    1.8130 C   0  0  0  0  0  0  0  0  0  0  0  0
    7.6210   -1.1210    1.0930 C   0  0  0  0  0  0  0  0  0  0  0  0
    6.9230   -2.0150    0.1330 C   0  0  0  0  0  0  0  0  0  0  0  0
    7.7480   -2.8060   -0.4800 C   0  0  0  0  0  0  0  0  0  0  0  0
    8.9690   -3.4000   -0.8450 C   0  0  0  0  0  0  0  0  0  0  0  0
    8.9540   -5.1870   -0.5150 Cl  0  0  0  0  0  0  0  0  0  0  0  0
    5.5120   -2.0650   -0.1250 C   0  0  0  0  0  0  0  0  0  0  0  0
    4.7710   -1.0150   -0.8060 C   0  0  0  0  0  0  0  0  0  0  0  0
    4.4250    0.2820   -0.3780 N   0  0  0  0  0  0  0  0  0  0  0  0
    5.1110    1.4040   -0.4200 C   0  0  0  0  0  0  0  0  0  0  0  0
    6.3560    1.3690   -0.8700 O   0  0  0  0  0  0  0  0  0  0  0  0
    4.6270    2.5880   -0.0190 N   0  0  0  0  0  0  0  0  0  0  0  0
    3.3480    2.6440    0.4700 C   0  0  0  0  0  0  0  0  0  0  0  0
    2.8260    3.8430    0.7900 N   0  0  0  0  0  0  0  0  0  0  0  0
    1.5410    3.9420    1.1740 C   0  0  0  0  0  0  0  0  0  0  0  0
    0.7690    2.8090    1.2280 C   0  0  0  0  0  0  0  0  0  0  0  0
    1.2190    1.5600    0.9190 C   0  0  0  0  0  0  0  0  0  0  0  0
    0.4790    0.2950    0.9370 C   0  0  0  0  0  0  0  0  0  0  0  0
   -0.5020    0.1910   -0.1280 N   0  0  2  0  0  0  0  0  0  0  0  0
   -0.8950    1.4010   -0.7150 C   0  0  0  0  0  0  0  0  0  0  0  0
   -2.2410    1.9610   -0.3670 C   0  0  0  0  0  0  0  0  0  0  0  0
   -3.2520    1.2310   -1.2690 C   0  0  0  0  0  0  0  0  0  0  0  0
   -3.5990   -0.1130   -0.7300 C   0  0  2  0  0  0  0  0  0  0  0  0
   -5.0560   -0.0800   -0.4270 C   0  0  0  0  0  0  0  0  0  0  0  0
   -5.6500   -0.1930    0.7770 N   0  0  0  0  0  0  0  0  0  0  0  0
   -6.9710   -0.1050    0.5970 C   0  0  0  0  0  0  0  0  0  0  0  0
   -7.1670    0.0650   -0.7510 C   0  0  0  0  0  0  0  0  0  0  0  0
   -5.9850    0.0700   -1.3060 O   0  0  0  0  0  0  0  0  0  0  0  0
   -8.3960    0.2330   -1.5390 C   0  0  0  0  0  0  0  0  0  0  0  0
   -9.5020   -0.3550   -0.9690 O   0  0  0  0  0  0  0  0  0  0  0  0
   -9.1910   -1.2440    0.0580 C   0  0  0  0  0  0  0  0  0  0  0  0
   -9.2200   -0.5170    1.2560 O   0  0  0  0  0  0  0  0  0  0  0  0
   -7.9580   -0.1920    1.6960 C   0  0  0  0  0  0  0  0  0  0  0  0
   -2.7910   -0.5720    0.4360 C   0  0  0  0  0  0  0  0  0  0  0  0
   -1.4010   -0.8750    0.0120 C   0  0  0  0  0  0  0  0  0  0  0  0
    2.5760    1.5280    0.5470 C   0  0  0  0  0  0  0  0  0  0  0  0
    3.1270    0.3580    0.1200 C   0  0  0  0  0  0  0  0  0  0  0  0
    2.4810   -0.7440    0.1480 O   0  0  0  0  0  0  0  0  0  0  0  0
  1  2  2  0
  2  3  1  0
  3  4  2  3
  3  7  1  0
  4  5  1  0
  5  6  1  0
  7  8  1  0
  8  9  1  0
  9 10  1  0
  9 37  1  0
 10 11  2  0
 10 12  1  0
 12 13  1  0
 13 14  2  0
 13 36  1  0
 14 15  1  0
 15 16  2  0
 16 17  1  0
 17 18  1  0
 17 36  2  0
 19 18  1  1
 19 20  1  0
 19 35  1  0
 20 21  1  0
 21 22  1  0
 22 23  1  0
 23 24  1  1
 23 34  1  0
 24 25  2  0
 24 28  1  0
 25 26  1  0
 26 27  2  0
 26 33  1  0
 27 28  1  0
 27 29  1  0
 29 30  1  0
 30 31  1  0
 31 32  1  0
 32 33  1  0
 34 35  1  0
 36 37  1  0
 37 38  2  0
M  CHG  2  19   1  25   1
M  END
