
     RDKit          3D

 38 42  0  0  0  0  0  0  0  0999 V2000
   -7.3810    0.4560   -0.8500 C   0  0  0  0  0  0  0  0  0  0  0  0
   -6.1150    0.6990   -0.1190 C   0  0  0  0  0  0  0  0  0  0  0  0
   -5.8400    1.9590    0.4250 C   0  0  0  0  0  0  0  0  0  0  0  0
   -4.6660    2.1750    1.0980 C   0  0  0  0  0  0  0  0  0  0  0  0
   -3.7370    1.1440    1.2480 C   0  0  0  0  0  0  0  0  0  0  0  0
   -4.0260   -0.0720    0.7100 C   0  0  0  0  0  0  0  0  0  0  0  0
   -3.0990   -1.2010    0.8650 C   0  0  0  0  0  0  0  0  0  0  0  0
   -1.8950   -0.9060    1.5100 O   0  0  0  0  0  0  0  0  0  0  0  0
   -1.0160   -0.0050    0.9180 C   0  0  0  0  0  0  0  0  0  0  0  0
   -1.2970    0.5370   -0.2030 O   0  0  0  0  0  0  0  0  0  0  0  0
    0.2750    0.3730    1.5400 C   0  0  0  0  0  0  0  0  0  0  0  0
    0.9820    1.2770    0.7500 O   0  0  0  0  0  0  0  0  0  0  0  0
    2.2030    1.8110    1.0640 C   0  0  0  0  0  0  0  0  0  0  0  0
    2.7250    1.4590    2.1490 O   0  0  0  0  0  0  0  0  0  0  0  0
    2.8530    2.7700    0.1250 C   0  0  0  0  0  0  0  0  0  0  0  0
    4.0920    3.2350    0.6000 N   0  0  1  0  0  0  0  0  0  0  0  0
    4.0190    3.6500    2.0150 C   0  0  0  0  0  0  0  0  0  0  0  0
    5.2430    2.4510    0.4770 C   0  0  0  0  0  0  0  0  0  0  0  0
    6.4850    2.8660    0.9320 N   0  0  0  0  0  0  0  0  0  0  0  0
    7.3570    1.9420    0.6850 N   0  0  0  0  0  0  0  0  0  0  0  0
    6.7690    0.9040    0.0770 C   0  0  0  0  0  0  0  0  0  0  0  0
    5.4530    1.2410   -0.0430 N   0  0  0  0  0  0  0  0  0  0  0  0
    4.8390    0.1290   -0.6900 C   0  0  0  0  0  0  0  0  0  0  0  0
    3.6470   -0.0290   -1.0150 O   0  0  0  0  0  0  0  0  0  0  0  0
    5.8510   -0.9150   -0.9640 C   0  0  0  0  0  0  0  0  0  0  0  0
    5.7910   -2.1550   -1.5550 C   0  0  0  0  0  0  0  0  0  0  0  0
    6.9100   -2.9460   -1.6880 C   0  0  0  0  0  0  0  0  0  0  0  0
    8.0950   -2.4230   -1.1950 C   0  0  0  0  0  0  0  0  0  0  0  0
    8.1780   -1.1870   -0.6010 C   0  0  0  0  0  0  0  0  0  0  0  0
    7.0270   -0.4180   -0.4850 C   0  0  0  0  0  0  0  0  0  0  0  0
   -5.2070   -0.3240    0.0210 C   0  0  0  0  0  0  0  0  0  0  0  0
   -5.4440   -1.6480   -0.5290 C   0  0  0  0  0  0  0  0  0  0  0  0
   -5.2200   -1.9580   -1.8530 C   0  0  0  0  0  0  0  0  0  0  0  0
   -5.4720   -3.2390   -2.2870 C   0  0  0  0  0  0  0  0  0  0  0  0
   -5.9310   -4.1960   -1.4560 N   0  0  0  0  0  0  0  0  0  0  0  0
   -6.1660   -3.9400   -0.1490 C   0  0  0  0  0  0  0  0  0  0  0  0
   -6.7670   -5.1990    0.9290 Cl  0  0  0  0  0  0  0  0  0  0  0  0
   -5.9150   -2.6580    0.2930 C   0  0  0  0  0  0  0  0  0  0  0  0
  1  2  1  0
  2  3  2  0
  2 31  1  0
  3  4  1  0
  4  5  2  0
  5  6  1  0
  6  7  1  0
  6 31  2  0
  7  8  1  0
  8  9  1  0
  9 10  2  0
  9 11  1  0
 11 12  1  0
 12 13  1  0
 13 14  2  0
 13 15  1  0
 15 16  1  0
 16 17  1  1
 16 18  1  0
 18 19  2  0
 18 22  1  0
 19 20  1  0
 20 21  2  0
 21 22  1  0
 21 30  1  0
 22 23  1  0
 23 24  2  0
 23 25  1  0
 25 26  2  0
 25 30  1  0
 26 27  1  0
 27 28  2  0
 28 29  1  0
 29 30  2  0
 31 32  1  0
 32 33  2  0
 32 38  1  0
 33 34  1  0
 34 35  2  0
 35 36  1  0
 36 37  1  0
 36 38  2  0
M  CHG  2  16   1  35   1
M  END
