
     RDKit          3D

 38 42  0  0  0  0  0  0  0  0999 V2000
    7.7720    3.0660    1.9260 C   0  0  0  0  0  0  0  0  0  0  0  0
    8.4060    2.1100    1.1050 O   0  0  0  0  0  0  0  0  0  0  0  0
    7.3720    1.4640    0.4180 C   0  0  0  0  0  0  0  0  0  0  0  0
    7.9120    0.4180   -0.4940 C   0  0  0  0  0  0  0  0  0  0  0  0
    9.2860    0.3070   -0.6290 C   0  0  0  0  0  0  0  0  0  0  0  0
    9.8070   -0.6540   -1.4660 C   0  0  0  0  0  0  0  0  0  0  0  0
    8.9480   -1.5070   -2.1710 C   0  0  0  0  0  0  0  0  0  0  0  0
    9.5860   -2.7390   -3.2440 Cl  0  0  0  0  0  0  0  0  0  0  0  0
    7.5850   -1.3380   -1.9860 C   0  0  0  0  0  0  0  0  0  0  0  0
    7.0710   -0.3900   -1.1610 N   0  0  0  0  0  0  0  0  0  0  0  0
    5.6670   -0.2600   -1.0070 C   0  0  0  0  0  0  0  0  0  0  0  0
    4.9310   -1.4250   -1.0440 C   0  0  0  0  0  0  0  0  0  0  0  0
    3.5430   -1.3440   -0.8990 C   0  0  0  0  0  0  0  0  0  0  0  0
    2.9380   -0.1340   -0.7230 C   0  0  0  0  0  0  0  0  0  0  0  0
    1.4930   -0.0250   -0.5730 C   0  0  0  0  0  0  0  0  0  0  0  0
    1.0430    1.1310   -0.4110 O   0  0  0  0  0  0  0  0  0  0  0  0
    0.5960   -1.1150   -0.6000 N   0  0  0  0  0  0  0  0  0  0  0  0
   -0.8010   -1.0760   -0.4600 C   0  0  0  0  0  0  0  0  0  0  0  0
   -1.4910   -2.2790   -0.6600 C   0  0  0  0  0  0  0  0  0  0  0  0
   -2.8680   -2.3560   -0.5430 C   0  0  0  0  0  0  0  0  0  0  0  0
   -3.6000   -1.2310   -0.2240 C   0  0  0  0  0  0  0  0  0  0  0  0
   -4.9650   -1.2420   -0.0940 O   0  0  0  0  0  0  0  0  0  0  0  0
   -5.8530   -2.2920   -0.2420 C   0  0  1  0  0  0  0  0  0  0  0  0
   -6.6680   -2.5430    1.0360 C   0  0  0  0  0  0  0  0  0  0  0  0
   -7.7910   -3.3970    0.4530 C   0  0  0  0  0  0  0  0  0  0  0  0
   -8.0490   -2.8640   -0.8610 N   0  0  0  0  0  0  0  0  0  0  0  0
   -6.9920   -1.9650   -1.2050 C   0  0  0  0  0  0  0  0  0  0  0  0
   -2.9450   -0.0340   -0.0220 C   0  0  0  0  0  0  0  0  0  0  0  0
   -3.7090    1.1920    0.3220 C   0  0  0  0  0  0  0  0  0  0  0  0
   -4.9440    1.1520    0.4290 O   0  0  0  0  0  0  0  0  0  0  0  0
   -3.0390    2.3260    0.5120 O   0  0  0  0  0  0  0  0  0  0  0  0
   -3.4200    3.5940    0.8390 C   0  0  0  0  0  0  0  0  0  0  0  0
   -4.0090    3.7580    2.1830 C   0  0  2  0  0  0  0  0  0  0  0  0
   -5.2470    3.1120    2.6000 C   0  0  0  0  0  0  0  0  0  0  0  0
   -5.1320    4.6180    2.5470 C   0  0  0  0  0  0  0  0  0  0  0  0
   -1.5690   -0.0070   -0.1490 C   0  0  0  0  0  0  0  0  0  0  0  0
    3.7360    0.9470   -0.7000 N   0  0  0  0  0  0  0  0  0  0  0  0
    5.0340    0.9220   -0.8310 N   0  0  0  0  0  0  0  0  0  0  0  0
  1  2  1  0
  2  3  1  0
  3  4  1  0
  4  5  2  0
  4 10  1  0
  5  6  1  0
  6  7  2  0
  7  8  1  0
  7  9  1  0
  9 10  2  0
 10 11  1  0
 11 12  2  0
 11 38  1  0
 12 13  1  0
 13 14  2  0
 14 15  1  0
 14 37  1  0
 15 16  2  0
 15 17  1  0
 17 18  1  0
 18 19  2  0
 18 36  1  0
 19 20  1  0
 20 21  2  0
 21 22  1  0
 21 28  1  0
 23 22  1  1
 23 24  1  0
 23 27  1  0
 24 25  1  0
 25 26  1  0
 26 27  1  0
 28 29  1  0
 28 36  2  0
 29 30  2  0
 29 31  1  0
 31 32  1  0
 33 32  1  6
 33 34  1  0
 33 35  1  0
 34 35  1  0
 37 38  2  0
M  CHG  2  10   1  26   1
M  END
