
     RDKit          3D

 38 42  0  0  0  0  0  0  0  0999 V2000
    8.9140    1.0740   -0.0330 C   0  0  0  0  0  0  0  0  0  0  0  0
    8.1020    2.3250    0.2980 C   0  0  0  0  0  0  0  0  0  0  0  0
    6.6900    2.1240   -0.2060 C   0  0  0  0  0  0  0  0  0  0  0  0
    6.1040    0.9110   -0.0100 N   0  0  0  0  0  0  0  0  0  0  0  0
    4.8540    0.7350   -0.4460 C   0  0  0  0  0  0  0  0  0  0  0  0
    4.2050    1.7660   -1.0800 C   0  0  0  0  0  0  0  0  0  0  0  0
    4.8140    2.9680   -1.2640 C   0  0  0  0  0  0  0  0  0  0  0  0
    4.2040    3.9280   -1.8610 O   0  0  0  0  0  0  0  0  0  0  0  0
    6.0320    3.0710   -0.8070 O   0  0  0  0  0  0  0  0  0  0  0  0
    2.8330    1.4540   -1.6110 C   0  0  0  0  0  0  0  0  0  0  0  0
    2.0830    0.7580   -0.5060 C   0  0  0  0  0  0  0  0  0  0  0  0
    2.7480   -0.3890   -0.0460 N   0  0  2  0  0  0  0  0  0  0  0  0
    2.3120   -0.7380    1.3050 C   0  0  0  0  0  0  0  0  0  0  0  0
    0.8530   -1.0420    1.2230 C   0  0  0  0  0  0  0  0  0  0  0  0
   -0.1990   -0.2700    1.0400 N   0  0  0  0  0  0  0  0  0  0  0  0
   -1.2950   -1.0220    1.2460 C   0  0  0  0  0  0  0  0  0  0  0  0
   -2.7170   -0.6740    1.1840 C   0  0  2  0  0  0  0  0  0  0  0  0
   -3.3370   -1.6060    0.0930 C   0  0  0  0  0  0  0  0  0  0  0  0
   -4.8110   -1.7160    0.5060 C   0  0  0  0  0  0  0  0  0  0  0  0
   -5.2610   -0.2910    0.8700 C   0  0  0  0  0  0  0  0  0  0  0  0
   -4.3680    0.6480    0.1610 N   0  0  0  0  0  0  0  0  0  0  0  0
   -4.8020    1.3010   -0.9990 C   0  0  0  0  0  0  0  0  0  0  0  0
   -4.0820    2.0700   -1.6510 O   0  0  0  0  0  0  0  0  0  0  0  0
   -6.2120    0.9760   -1.4080 C   0  0  0  0  0  0  0  0  0  0  0  0
   -6.5670    0.2160   -2.3900 O   0  0  0  0  0  0  0  0  0  0  0  0
   -7.8850    0.1230   -2.4620 C   0  0  0  0  0  0  0  0  0  0  0  0
   -8.4260    0.8900   -1.4630 C   0  0  0  0  0  0  0  0  0  0  0  0
   -7.3650    1.4320   -0.7960 C   0  0  0  0  0  0  0  0  0  0  0  0
   -7.4300    2.4130    0.3020 C   0  0  0  0  0  0  0  0  0  0  0  0
   -3.0430    0.7380    0.7640 C   0  0  0  0  0  0  0  0  0  0  0  0
   -0.8820   -2.2880    1.5610 N   0  0  0  0  0  0  0  0  0  0  0  0
    0.4190   -2.3440    1.5570 C   0  0  0  0  0  0  0  0  0  0  0  0
    1.3590   -3.4480    1.7560 C   0  0  0  0  0  0  0  0  0  0  0  0
    1.7500   -4.3260    0.8920 C   0  0  0  0  0  0  0  0  0  0  0  0
    1.2950   -4.3530   -0.4940 C   0  0  0  0  0  0  0  0  0  0  0  0
    0.4380   -3.6040   -0.9950 O   0  0  0  0  0  0  0  0  0  0  0  0
    2.0190   -5.5570   -1.6060 Cl  0  0  0  0  0  0  0  0  0  0  0  0
    4.1390   -0.5590   -0.2420 C   0  0  0  0  0  0  0  0  0  0  0  0
  1  2  1  0
  2  3  1  0
  3  4  2  0
  3  9  1  0
  4  5  1  0
  5  6  2  0
  5 38  1  0
  6  7  1  0
  6 10  1  0
  7  8  2  0
  7  9  1  0
 10 11  1  0
 11 12  1  0
 12 13  1  1
 12 38  1  0
 13 14  1  0
 14 15  1  0
 14 32  2  0
 15 16  1  0
 17 16  1  6
 16 31  2  0
 17 18  1  0
 17 30  1  0
 18 19  1  0
 19 20  1  0
 20 21  1  0
 21 22  1  0
 21 30  1  0
 22 23  2  0
 22 24  1  0
 24 25  1  0
 24 28  2  0
 25 26  1  0
 26 27  2  0
 27 28  1  0
 28 29  1  0
 31 32  1  0
 32 33  1  0
 33 34  2  3
 34 35  1  0
 35 36  2  0
 35 37  1  0
M  CHG  2   4   1  12   1
M  END
