
     RDKit          3D

 37 42  0  0  0  0  0  0  0  0999 V2000
    8.0100   -0.1420    1.6730 C   0  0  0  0  0  0  0  0  0  0  0  0
    7.7960   -1.4670    1.1740 N   0  0  0  0  0  0  0  0  0  0  0  0
    8.1180   -1.5940   -0.2220 C   0  0  0  0  0  0  0  0  0  0  0  0
    6.9000   -1.6210   -1.1250 C   0  0  0  0  0  0  0  0  0  0  0  0
    6.0850   -0.3860   -1.0140 C   0  0  0  0  0  0  0  0  0  0  0  0
    6.3590    0.7090   -1.8300 C   0  0  0  0  0  0  0  0  0  0  0  0
    5.6130    1.8620   -1.7470 C   0  0  0  0  0  0  0  0  0  0  0  0
    4.5710    2.0000   -0.8660 C   0  0  0  0  0  0  0  0  0  0  0  0
    4.2720    0.9320   -0.0410 C   0  0  0  0  0  0  0  0  0  0  0  0
    3.2460    1.0480    0.8360 O   0  0  0  0  0  0  0  0  0  0  0  0
    1.9600    0.6390    0.8310 C   0  0  0  0  0  0  0  0  0  0  0  0
    1.4960   -0.2190    1.8500 C   0  0  0  0  0  0  0  0  0  0  0  0
    0.2000   -0.6650    1.9020 C   0  0  0  0  0  0  0  0  0  0  0  0
   -0.7150   -0.2890    0.9500 C   0  0  0  0  0  0  0  0  0  0  0  0
   -0.2760    0.5640   -0.0740 C   0  0  0  0  0  0  0  0  0  0  0  0
    1.0570    1.0110   -0.1110 C   0  0  0  0  0  0  0  0  0  0  0  0
    1.3930    1.8450   -1.1650 O   0  0  0  0  0  0  0  0  0  0  0  0
    1.7210    1.2960   -2.4550 C   0  0  0  0  0  0  0  0  0  0  0  0
    2.0190    2.3650   -3.2830 O   0  0  0  0  0  0  0  0  0  0  0  0
   -1.1590    0.9810   -1.0670 O   0  0  0  0  0  0  0  0  0  0  0  0
   -2.4960    0.5430   -1.0470 C   0  0  0  0  0  0  0  0  0  0  0  0
   -3.5560    0.7470   -1.7950 N   0  0  0  0  0  0  0  0  0  0  0  0
   -4.6450    0.0530   -1.2740 N   0  0  0  0  0  0  0  0  0  0  0  0
   -5.9040    0.2710   -2.0020 C   0  0  0  0  0  0  0  0  0  0  0  0
   -7.0740   -0.2190   -1.1750 C   0  0  0  0  0  0  0  0  0  0  0  0
   -7.5040    0.6830   -0.1580 N   0  0  1  0  0  0  0  0  0  0  0  0
   -8.5740    0.0190    0.5800 C   0  0  0  0  0  0  0  0  0  0  0  0
   -6.5050    1.1370    0.7530 C   0  0  0  0  0  0  0  0  0  0  0  0
   -6.0380    0.0340    1.7010 C   0  0  0  0  0  0  0  0  0  0  0  0
   -4.8500   -0.5130    1.1350 N   0  0  0  0  0  0  0  0  0  0  0  0
   -4.0700   -0.9950    2.2650 C   0  0  0  0  0  0  0  0  0  0  0  0
   -4.5120   -0.9510    3.4330 O   0  0  0  0  0  0  0  0  0  0  0  0
   -2.6770   -1.5690    2.0330 C   0  0  0  0  0  0  0  0  0  0  0  0
   -2.0900   -0.7470    0.9690 C   0  0  0  0  0  0  0  0  0  0  0  0
   -2.8490   -0.3240    0.0130 C   0  0  0  0  0  0  0  0  0  0  0  0
   -4.2730   -0.6970   -0.1470 C   0  0  2  0  0  0  0  0  0  0  0  0
    5.0400   -0.2380   -0.1360 C   0  0  0  0  0  0  0  0  0  0  0  0
  1  2  1  0
  2  3  1  0
  3  4  1  0
  4  5  1  0
  5  6  2  0
  5 37  1  0
  6  7  1  0
  7  8  2  0
  8  9  1  0
  9 10  1  0
  9 37  2  0
 10 11  1  0
 11 12  2  0
 11 16  1  0
 12 13  1  0
 13 14  2  0
 14 15  1  0
 14 34  1  0
 15 16  2  0
 15 20  1  0
 16 17  1  0
 17 18  1  0
 18 19  1  0
 20 21  1  0
 21 22  2  0
 21 35  1  0
 22 23  1  0
 23 24  1  0
 36 23  1  6
 24 25  1  0
 25 26  1  0
 26 27  1  1
 26 28  1  0
 28 29  1  0
 29 30  1  0
 30 31  1  0
 30 36  1  0
 31 32  2  0
 31 33  1  0
 33 34  1  0
 34 35  2  0
 35 36  1  0
M  CHG  2   2   1  26   1
M  END
