
     RDKit          3D

 38 43  0  0  0  0  0  0  0  0999 V2000
   10.2410    0.6230    0.7380 C   0  0  0  0  0  0  0  0  0  0  0  0
    8.8790    0.5340    0.0680 C   0  0  0  0  0  0  0  0  0  0  0  0
    8.5000   -0.7810    0.0270 O   0  0  0  0  0  0  0  0  0  0  0  0
    7.2910   -1.0550   -0.5460 C   0  0  0  0  0  0  0  0  0  0  0  0
    6.1330   -0.4000    0.1610 C   0  0  0  0  0  0  0  0  0  0  0  0
    6.1690    0.3600    1.2170 O   0  0  0  0  0  0  0  0  0  0  0  0
    4.9570    0.7380    1.5320 C   0  0  0  0  0  0  0  0  0  0  0  0
    4.6680    1.5730    2.6340 O   0  0  0  0  0  0  0  0  0  0  0  0
    4.5590    2.9800    2.4260 C   0  0  0  0  0  0  0  0  0  0  0  0
    4.0820    0.1950    0.6370 C   0  0  0  0  0  0  0  0  0  0  0  0
    2.6310    0.3140    0.6010 C   0  0  0  0  0  0  0  0  0  0  0  0
    1.8100   -0.2000   -0.3660 N   0  0  0  0  0  0  0  0  0  0  0  0
    0.5320    0.1040   -0.0930 C   0  0  0  0  0  0  0  0  0  0  0  0
   -0.6880   -0.1360   -0.6870 C   0  0  0  0  0  0  0  0  0  0  0  0
   -1.8530    0.3300   -0.1330 C   0  0  0  0  0  0  0  0  0  0  0  0
   -1.7630    1.0360    1.0210 N   0  0  0  0  0  0  0  0  0  0  0  0
   -0.5950    1.2810    1.6150 C   0  0  0  0  0  0  0  0  0  0  0  0
    0.5860    0.8240    1.0780 C   0  0  0  0  0  0  0  0  0  0  0  0
    1.8790    0.9520    1.5040 N   0  0  0  0  0  0  0  0  0  0  0  0
   -3.0470   -0.0540   -0.9680 C   0  0  2  0  0  0  0  0  0  0  0  0
   -4.1790   -0.3940   -0.1390 N   0  0  0  0  0  0  0  0  0  0  0  0
   -5.2780    0.4760   -0.5130 C   0  0  0  0  0  0  0  0  0  0  0  0
   -6.4960   -0.3310   -0.9130 C   0  0  1  0  0  0  0  0  0  0  0  0
   -6.8750   -1.1220    0.1970 O   0  0  0  0  0  0  0  0  0  0  0  0
   -7.6600   -0.2940    0.9990 C   0  0  0  0  0  0  0  0  0  0  0  0
   -8.0490   -0.3240    2.3340 C   0  0  0  0  0  0  0  0  0  0  0  0
   -8.8450    0.6460    2.8710 C   0  0  0  0  0  0  0  0  0  0  0  0
   -9.2900    1.6970    2.0890 C   0  0  0  0  0  0  0  0  0  0  0  0
   -8.9190    1.7450    0.7760 C   0  0  0  0  0  0  0  0  0  0  0  0
   -8.1050    0.7550    0.2230 C   0  0  0  0  0  0  0  0  0  0  0  0
   -7.5880    0.5590   -1.0460 O   0  0  0  0  0  0  0  0  0  0  0  0
   -2.5160   -1.2200   -1.7470 C   0  0  0  0  0  0  0  0  0  0  0  0
   -1.0450   -0.8720   -1.9260 C   0  0  2  0  0  0  0  0  0  0  0  0
   -0.3230   -2.1010   -2.1110 N   0  0  1  0  0  0  0  0  0  0  0  0
    0.8410   -1.9680   -2.9290 C   0  0  0  0  0  0  0  0  0  0  0  0
    0.0110   -2.7590   -0.8740 C   0  0  0  0  0  0  0  0  0  0  0  0
    4.8400   -0.5400   -0.2500 C   0  0  0  0  0  0  0  0  0  0  0  0
    4.2270   -1.4530   -1.6150 Cl  0  0  0  0  0  0  0  0  0  0  0  0
  1  2  1  0
  2  3  1  0
  3  4  1  0
  4  5  1  0
  5  6  1  0
  5 37  2  0
  6  7  1  0
  7  8  1  0
  7 10  2  0
  8  9  1  0
 10 11  1  0
 10 37  1  0
 11 12  2  0
 11 19  1  0
 12 13  1  0
 13 14  2  0
 13 18  1  0
 14 15  1  0
 14 33  1  0
 15 16  2  0
 15 20  1  0
 16 17  1  0
 17 18  2  0
 18 19  1  0
 20 21  1  1
 20 32  1  0
 21 22  1  0
 23 22  1  1
 23 24  1  0
 23 31  1  0
 24 25  1  0
 25 26  2  0
 25 30  1  0
 26 27  1  0
 27 28  2  0
 28 29  1  0
 29 30  2  0
 30 31  1  0
 33 32  1  1
 33 34  1  0
 34 35  1  1
 34 36  1  0
 37 38  1  0
M  CHG  2  21   1  34   1
M  END
