
     RDKit          3D

 38 42  0  0  0  0  0  0  0  0999 V2000
   10.1050   -0.9240    0.5070 C   0  0  0  0  0  0  0  0  0  0  0  0
   10.3230    0.3550   -0.1460 N   0  0  0  0  0  0  0  0  0  0  0  0
    9.3970    0.4660   -1.2590 C   0  0  0  0  0  0  0  0  0  0  0  0
    8.0510    0.0800   -0.7580 C   0  0  0  0  0  0  0  0  0  0  0  0
    7.2410   -0.8170   -1.4330 C   0  0  0  0  0  0  0  0  0  0  0  0
    5.9940   -1.1950   -0.9910 C   0  0  0  0  0  0  0  0  0  0  0  0
    5.5000   -0.6700    0.1840 C   0  0  0  0  0  0  0  0  0  0  0  0
    4.2360   -1.0500    0.6390 O   0  0  0  0  0  0  0  0  0  0  0  0
    3.1550   -0.2860    0.2940 C   0  0  0  0  0  0  0  0  0  0  0  0
    2.7550    0.7420    1.1020 C   0  0  0  0  0  0  0  0  0  0  0  0
    1.6630    1.4990    0.7430 C   0  0  0  0  0  0  0  0  0  0  0  0
    0.9680    1.2300   -0.4270 C   0  0  0  0  0  0  0  0  0  0  0  0
   -0.1090    2.0290   -0.7140 O   0  0  0  0  0  0  0  0  0  0  0  0
   -1.3890    1.5220   -0.6690 C   0  0  0  0  0  0  0  0  0  0  0  0
   -2.4590    2.3000   -1.0360 N   0  0  0  0  0  0  0  0  0  0  0  0
   -3.7010    1.8460   -0.9980 N   0  0  0  0  0  0  0  0  0  0  0  0
   -3.9960    0.5980   -0.6000 C   0  0  0  0  0  0  0  0  0  0  0  0
   -5.3710    0.1520   -0.5880 N   0  0  0  0  0  0  0  0  0  0  0  0
   -5.9580    0.0560    0.5280 C   0  0  0  0  0  0  0  0  0  0  0  0
   -5.1050    0.4460    1.6730 C   0  0  0  0  0  0  0  0  0  0  0  0
   -4.2750    1.3380    1.4070 O   0  0  0  0  0  0  0  0  0  0  0  0
   -5.1650   -0.0890    2.9590 O   0  0  0  0  0  0  0  0  0  0  0  0
   -6.3470   -0.5340    3.6200 C   0  0  0  0  0  0  0  0  0  0  0  0
   -7.5920    0.0680    3.0460 C   0  0  0  0  0  0  0  0  0  0  0  0
   -8.1680   -0.6790    1.8930 C   0  0  0  0  0  0  0  0  0  0  0  0
   -7.3160   -0.4960    0.6750 C   0  0  0  0  0  0  0  0  0  0  0  0
   -7.9080   -0.9090   -0.4220 C   0  0  0  0  0  0  0  0  0  0  0  0
   -7.2840   -0.8530   -1.7410 C   0  0  0  0  0  0  0  0  0  0  0  0
   -6.0430   -0.0930   -1.8290 C   0  0  2  0  0  0  0  0  0  0  0  0
   -5.0630   -0.6620   -2.8670 C   0  0  0  0  0  0  0  0  0  0  0  0
   -2.9740   -0.1880   -0.2340 N   0  0  0  0  0  0  0  0  0  0  0  0
   -1.6890    0.2450   -0.2600 C   0  0  0  0  0  0  0  0  0  0  0  0
   -0.8100   -0.5720    0.1110 O   0  0  0  0  0  0  0  0  0  0  0  0
    1.3670    0.1990   -1.2480 C   0  0  0  0  0  0  0  0  0  0  0  0
    0.5250   -0.1060   -2.7640 Cl  0  0  0  0  0  0  0  0  0  0  0  0
    2.4690   -0.5520   -0.8670 C   0  0  0  0  0  0  0  0  0  0  0  0
    6.2770    0.2250    0.8810 C   0  0  0  0  0  0  0  0  0  0  0  0
    7.5170    0.5850    0.4170 C   0  0  0  0  0  0  0  0  0  0  0  0
  1  2  1  0
  2  3  1  0
  3  4  1  0
  4  5  2  0
  4 38  1  0
  5  6  1  0
  6  7  2  0
  7  8  1  0
  7 37  1  0
  8  9  1  0
  9 10  2  0
  9 36  1  0
 10 11  1  0
 11 12  2  0
 12 13  1  0
 12 34  1  0
 13 14  1  0
 14 15  2  0
 14 32  1  0
 15 16  1  0
 16 17  2  0
 17 18  1  0
 17 31  1  0
 18 19  2  0
 18 29  1  0
 19 20  1  0
 19 26  1  0
 20 21  2  0
 20 22  1  0
 22 23  1  0
 23 24  1  0
 24 25  1  0
 25 26  1  0
 26 27  2  0
 27 28  1  0
 28 29  1  0
 29 30  1  6
 31 32  1  0
 32 33  2  0
 34 35  1  0
 34 36  2  0
 37 38  2  0
M  CHG  2   2   1  18   1
M  END
