
     RDKit          3D

 18 18  0  0  0  0  0  0  0  0999 V2000
   -6.0450    1.7960   -0.9590 C   0  0  0  0  0  0  0  0  0  0  0  0
   -5.2240    0.8610   -0.4710 C   0  0  0  0  0  0  0  0  0  0  0  0
   -4.7220    1.0140    0.9180 C   0  0  0  0  0  0  0  0  0  0  0  0
   -3.2220    1.0930    0.8660 C   0  0  0  0  0  0  0  0  0  0  0  0
   -2.5890   -0.1430    0.2620 C   0  0  0  0  0  0  0  0  0  0  0  0
   -1.0940    0.0810    0.2780 C   0  0  0  0  0  0  0  0  0  0  0  0
   -0.3460   -1.0540   -0.2870 C   0  0  0  0  0  0  0  0  0  0  0  0
   -0.9750   -2.0420   -0.7040 O   0  0  0  0  0  0  0  0  0  0  0  0
    1.1080   -1.0340   -0.3630 C   0  0  0  0  0  0  0  0  0  0  0  0
    1.8190    0.0710    0.1090 C   0  0  0  0  0  0  0  0  0  0  0  0
    3.1830    0.0940    0.0400 C   0  0  0  0  0  0  0  0  0  0  0  0
    3.9440    1.2770    0.5440 C   0  0  0  0  0  0  0  0  0  0  0  0
    4.4180    2.1040   -0.6170 C   0  0  0  0  0  0  0  0  0  0  0  0
    3.9340   -0.9370   -0.4830 C   0  0  0  0  0  0  0  0  0  0  0  0
    5.3120   -0.8510   -0.5230 O   0  0  0  0  0  0  0  0  0  0  0  0
    3.2470   -2.0320   -0.9520 C   0  0  0  0  0  0  0  0  0  0  0  0
    1.8470   -2.0630   -0.8850 C   0  0  0  0  0  0  0  0  0  0  0  0
    1.1430   -3.2670   -1.4050 C   0  0  0  0  0  0  0  0  0  0  0  0
  1  2  2  0
  2  3  1  0
  3  4  1  0
  4  5  1  0
  5  6  1  0
  6  7  1  0
  7  8  2  0
  7  9  1  0
  9 10  2  0
  9 17  1  0
 10 11  1  0
 11 12  1  0
 11 14  2  0
 12 13  1  0
 14 15  1  0
 14 16  1  0
 16 17  2  0
 17 18  1  0
M  END
