
     RDKit          3D

 18 18  0  0  0  0  0  0  0  0999 V2000
   -2.4870    2.4030    0.7040 C   0  0  0  0  0  0  0  0  0  0  0  0
   -2.4190    0.9620    1.0460 C   0  0  0  0  0  0  0  0  0  0  0  0
   -2.1490    0.0380   -0.1070 C   0  0  2  0  0  0  0  0  0  0  0  0
   -3.3170    0.2610   -1.0870 C   0  0  0  0  0  0  0  0  0  0  0  0
   -4.6160   -0.0740   -0.4000 C   0  0  0  0  0  0  0  0  0  0  0  0
   -2.1960   -1.3820    0.2990 C   0  0  0  0  0  0  0  0  0  0  0  0
   -0.9350   -2.1600    0.1780 C   0  0  0  0  0  0  0  0  0  0  0  0
    0.0700   -1.8830    1.2580 C   0  0  0  0  0  0  0  0  0  0  0  0
    1.4050   -1.4550    0.7510 C   0  0  0  0  0  0  0  0  0  0  0  0
    1.3830   -0.3610   -0.2540 C   0  0  2  0  0  0  0  0  0  0  0  0
    1.3440   -0.8400   -1.5850 O   0  0  0  0  0  0  0  0  0  0  0  0
    2.7130    0.3800   -0.1470 C   0  0  0  0  0  0  0  0  0  0  0  0
    3.8750   -0.5430   -0.4230 C   0  0  0  0  0  0  0  0  0  0  0  0
    5.1250    0.2520   -0.3000 C   0  0  0  0  0  0  0  0  0  0  0  0
    5.1130    1.6950    0.0380 C   0  0  0  0  0  0  0  0  0  0  0  0
    6.1940   -0.3000   -0.4830 O   0  0  0  0  0  0  0  0  0  0  0  0
    0.2950    0.6630   -0.0230 C   0  0  0  0  0  0  0  0  0  0  0  0
   -0.9130    0.4420   -0.8730 C   0  0  0  0  0  0  0  0  0  0  0  0
  1  2  1  0
  3  2  1  1
  3  4  1  0
  3  6  1  0
  3 18  1  0
  4  5  1  0
  6  7  1  0
  7  8  1  0
  8  9  1  0
  9 10  1  0
 10 11  1  6
 10 12  1  0
 10 17  1  0
 12 13  1  0
 13 14  1  0
 14 15  1  0
 14 16  2  0
 17 18  1  0
M  END
