
     RDKit          3D

 18 18  0  0  0  0  0  0  0  0999 V2000
    6.3460    1.4770    0.1180 C   0  0  0  0  0  0  0  0  0  0  0  0
    5.2930    0.8930    0.6650 C   0  0  0  0  0  0  0  0  0  0  0  0
    5.0420   -0.5540    0.4640 C   0  0  0  0  0  0  0  0  0  0  0  0
    3.7320   -0.7540   -0.2170 C   0  0  0  0  0  0  0  0  0  0  0  0
    2.6270   -0.1870    0.6130 C   0  0  0  0  0  0  0  0  0  0  0  0
    1.2630   -0.3840   -0.0670 C   0  0  0  0  0  0  0  0  0  0  0  0
    0.2410    0.2200    0.8560 C   0  0  0  0  0  0  0  0  0  0  0  0
   -1.1390    0.1240    0.3530 C   0  0  0  0  0  0  0  0  0  0  0  0
   -1.7600    1.2340   -0.1780 C   0  0  0  0  0  0  0  0  0  0  0  0
   -3.0540    1.2180   -0.6680 C   0  0  0  0  0  0  0  0  0  0  0  0
   -3.7070    2.4190   -1.2350 C   0  0  0  0  0  0  0  0  0  0  0  0
   -2.8130    3.4730   -1.1740 O   0  0  0  0  0  0  0  0  0  0  0  0
   -3.7700    0.0400   -0.6280 C   0  0  0  0  0  0  0  0  0  0  0  0
   -5.1710   -0.0160   -1.1480 C   0  0  0  0  0  0  0  0  0  0  0  0
   -3.1470   -1.0710   -0.0960 C   0  0  0  0  0  0  0  0  0  0  0  0
   -1.8520   -1.0580    0.3940 C   0  0  0  0  0  0  0  0  0  0  0  0
   -1.2720   -2.2280    0.9260 O   0  0  0  0  0  0  0  0  0  0  0  0
   -2.0340   -3.4110    0.9480 C   0  0  0  0  0  0  0  0  0  0  0  0
  1  2  2  0
  2  3  1  0
  3  4  1  0
  4  5  1  0
  5  6  1  0
  6  7  1  0
  7  8  1  0
  8  9  2  0
  8 16  1  0
  9 10  1  0
 10 11  1  0
 10 13  2  0
 11 12  1  0
 13 14  1  0
 13 15  1  0
 15 16  2  0
 16 17  1  0
 17 18  1  0
M  END
