
     RDKit          3D

 18 18  0  0  0  0  0  0  0  0999 V2000
   -1.0440    2.1170    1.7900 C   0  0  0  0  0  0  0  0  0  0  0  0
   -1.1810    2.2480    0.3060 C   0  0  1  0  0  0  0  0  0  0  0  0
   -0.7630    3.6880   -0.0420 C   0  0  0  0  0  0  0  0  0  0  0  0
   -0.2260    1.3780   -0.4730 C   0  0  0  0  0  0  0  0  0  0  0  0
   -0.3930   -0.1100   -0.1890 C   0  0  2  0  0  0  0  0  0  0  0  0
    0.5910   -0.8260   -1.0210 C   0  0  0  0  0  0  0  0  0  0  0  0
    1.9850   -0.3480   -0.6660 C   0  0  0  0  0  0  0  0  0  0  0  0
    2.6600    0.6830   -1.2760 C   0  0  0  0  0  0  0  0  0  0  0  0
    3.8830    0.7680   -0.6370 C   0  0  0  0  0  0  0  0  0  0  0  0
    3.8970   -0.2200    0.3380 C   0  0  0  0  0  0  0  0  0  0  0  0
    5.0400   -0.4950    1.2810 C   0  0  0  0  0  0  0  0  0  0  0  0
    6.0740    0.3950    1.0210 O   0  0  0  0  0  0  0  0  0  0  0  0
    2.7540   -0.8360    0.2650 O   0  0  0  0  0  0  0  0  0  0  0  0
   -1.8160   -0.4470   -0.2840 C   0  0  0  0  0  0  0  0  0  0  0  0
   -2.3170   -1.8010   -0.0690 C   0  0  2  0  0  0  0  0  0  0  0  0
   -1.7750   -2.7880   -1.0490 C   0  0  0  0  0  0  0  0  0  0  0  0
   -3.8410   -1.7540   -0.3160 C   0  0  0  0  0  0  0  0  0  0  0  0
   -2.2090   -2.2950    1.3620 C   0  0  0  0  0  0  0  0  0  0  0  0
  2  1  1  1
  2  3  1  0
  2  4  1  0
  5  4  1  6
  5  6  1  0
  5 14  1  0
  6  7  1  0
  7  8  2  0
  7 13  1  0
  8  9  1  0
  9 10  2  0
 10 11  1  0
 10 13  1  0
 11 12  1  0
 14 15  1  0
 15 16  1  6
 15 17  1  0
 15 18  1  0
M  END
