
     RDKit          3D

 18 17  0  0  0  0  0  0  0  0999 V2000
   -6.3870   -1.0540    0.0050 C   0  0  0  0  0  0  0  0  0  0  0  0
   -5.4340   -1.3130   -1.1180 C   0  0  0  0  0  0  0  0  0  0  0  0
   -5.2700   -0.2440   -2.1090 C   0  0  0  0  0  0  0  0  0  0  0  0
   -4.8670    1.1110   -1.7750 C   0  0  0  0  0  0  0  0  0  0  0  0
   -3.5540    1.3450   -1.1370 C   0  0  0  0  0  0  0  0  0  0  0  0
   -3.4350    0.7540    0.2280 C   0  0  0  0  0  0  0  0  0  0  0  0
   -2.0760    1.0910    0.8730 C   0  0  0  0  0  0  0  0  0  0  0  0
   -0.9960    0.5350    0.0200 C   0  0  0  0  0  0  0  0  0  0  0  0
    0.3930    0.8140    0.6340 C   0  0  0  0  0  0  0  0  0  0  0  0
    1.3840    0.2120   -0.3060 C   0  0  0  0  0  0  0  0  0  0  0  0
    2.8240    0.4100    0.1740 C   0  0  0  0  0  0  0  0  0  0  0  0
    3.0670   -0.2030    1.4890 C   0  0  0  0  0  0  0  0  0  0  0  0
    4.3950   -0.0430    2.0720 C   0  0  0  0  0  0  0  0  0  0  0  0
    5.6260   -0.5730    1.5090 C   0  0  0  0  0  0  0  0  0  0  0  0
    6.1060   -0.1680    0.1640 C   0  0  0  0  0  0  0  0  0  0  0  0
    7.4500   -0.8040   -0.1280 C   0  0  0  0  0  0  0  0  0  0  0  0
    7.9650   -1.5360    0.7170 O   0  0  0  0  0  0  0  0  0  0  0  0
    8.0370   -0.5330   -1.3310 O   0  0  0  0  0  0  0  0  0  0  0  0
  1  2  1  0
  2  3  1  0
  3  4  1  0
  4  5  1  0
  5  6  1  0
  6  7  1  0
  7  8  1  0
  8  9  1  0
  9 10  1  0
 10 11  1  0
 11 12  1  0
 12 13  1  0
 13 14  1  0
 14 15  1  0
 15 16  1  0
 16 17  2  0
 16 18  1  0
M  END
