
     RDKit          3D

 19 21  0  0  0  0  0  0  0  0999 V2000
   -5.7600   -0.7830    0.7940 N   0  0  0  0  0  0  0  0  0  0  0  0
   -4.5710   -0.4970    0.4580 C   0  0  0  0  0  0  0  0  0  0  0  0
   -3.4530   -1.3180    0.8120 N   0  0  0  0  0  0  0  0  0  0  0  0
   -2.2970   -0.6930    0.2720 C   0  0  0  0  0  0  0  0  0  0  0  0
   -0.9360   -1.2230    0.4140 C   0  0  0  0  0  0  0  0  0  0  0  0
    0.0590   -0.3850   -0.2340 N   0  0  1  0  0  0  0  0  0  0  0  0
    0.3090    0.7270    0.6330 C   0  0  0  0  0  0  0  0  0  0  0  0
    1.4480    1.5530    0.0480 C   0  0  0  0  0  0  0  0  0  0  0  0
    2.6550    0.6950    0.2340 C   0  0  2  0  0  0  0  0  0  0  0  0
    3.8430    1.3000   -0.1270 O   0  0  0  0  0  0  0  0  0  0  0  0
    4.8890    0.4960    0.2220 C   0  0  0  0  0  0  0  0  0  0  0  0
    4.7210   -0.9550    0.0070 C   0  0  0  0  0  0  0  0  0  0  0  0
    3.4550   -1.4460   -0.0150 O   0  0  0  0  0  0  0  0  0  0  0  0
    2.5120   -0.5600   -0.5610 C   0  0  1  0  0  0  0  0  0  0  0  0
    1.1720   -1.1570   -0.6140 C   0  0  0  0  0  0  0  0  0  0  0  0
   -2.6110    0.3840   -0.3460 N   0  0  0  0  0  0  0  0  0  0  0  0
   -4.0110    0.6130   -0.2980 C   0  0  0  0  0  0  0  0  0  0  0  0
   -4.7060    1.6060   -0.8140 C   0  0  0  0  0  0  0  0  0  0  0  0
   -6.0800    1.7270   -0.7030 O   0  0  0  0  0  0  0  0  0  0  0  0
  1  2  2  0
  2  3  1  0
  2 17  1  0
  3  4  1  0
  4  5  1  0
  4 16  2  0
  6  5  1  1
  6  7  1  0
  6 15  1  0
  7  8  1  0
  9  8  1  6
  9 10  1  0
  9 14  1  0
 10 11  1  0
 11 12  1  0
 12 13  1  0
 13 14  1  0
 14 15  1  1
 16 17  1  0
 17 18  2  3
 18 19  1  0
M  CHG  1   6   1
M  END
