
     RDKit          3D

 18 18  0  0  0  0  0  0  0  0999 V2000
    4.9320    1.7640    0.0320 C   0  0  0  0  0  0  0  0  0  0  0  0
    4.9130    0.8570   -1.1680 C   0  0  0  0  0  0  0  0  0  0  0  0
    3.9390   -0.2970   -0.9400 C   0  0  0  0  0  0  0  0  0  0  0  0
    2.5600    0.2710   -0.7200 C   0  0  0  0  0  0  0  0  0  0  0  0
    1.6250   -0.9160   -0.4890 C   0  0  0  0  0  0  0  0  0  0  0  0
    0.2420   -0.4540   -0.2800 C   0  0  0  0  0  0  0  0  0  0  0  0
    0.0180    0.9330   -0.2610 C   0  0  0  0  0  0  0  0  0  0  0  0
   -1.2410    1.4320   -0.0970 C   0  0  0  0  0  0  0  0  0  0  0  0
   -1.5220    2.9090   -0.0680 C   0  0  0  0  0  0  0  0  0  0  0  0
   -2.2950    0.5400    0.0510 C   0  0  0  0  0  0  0  0  0  0  0  0
   -3.5590    1.0810    0.2130 O   0  0  0  0  0  0  0  0  0  0  0  0
   -4.7090    0.3150    0.3810 C   0  0  0  0  0  0  0  0  0  0  0  0
   -5.9580    1.1640    0.5300 C   0  0  0  0  0  0  0  0  0  0  0  0
   -2.0660   -0.8260    0.0310 C   0  0  0  0  0  0  0  0  0  0  0  0
   -0.7730   -1.3470   -0.1370 C   0  0  0  0  0  0  0  0  0  0  0  0
   -0.5850   -2.8010   -0.1200 C   0  0  0  0  0  0  0  0  0  0  0  0
   -0.1570   -3.3900    1.1780 C   0  0  0  0  0  0  0  0  0  0  0  0
   -1.0760   -3.1460    2.2030 O   0  0  0  0  0  0  0  0  0  0  0  0
  1  2  1  0
  2  3  1  0
  3  4  1  0
  4  5  1  0
  5  6  1  0
  6  7  2  0
  6 15  1  0
  7  8  1  0
  8  9  1  0
  8 10  2  0
 10 11  1  0
 10 14  1  0
 11 12  1  0
 12 13  1  0
 14 15  2  0
 15 16  1  0
 16 17  1  0
 17 18  1  0
M  END
