
     RDKit          3D

 18 18  0  0  0  0  0  0  0  0999 V2000
    5.0810    2.0580    1.3290 C   0  0  0  0  0  0  0  0  0  0  0  0
    4.7420    1.0660    0.2350 C   0  0  0  0  0  0  0  0  0  0  0  0
    3.2190    0.8600    0.1800 C   0  0  0  0  0  0  0  0  0  0  0  0
    2.9460   -0.1200   -0.9210 C   0  0  0  0  0  0  0  0  0  0  0  0
    1.5140   -0.4550   -1.1410 C   0  0  0  0  0  0  0  0  0  0  0  0
    0.8230   -1.0770   -0.0030 C   0  0  0  0  0  0  0  0  0  0  0  0
    1.4360   -1.2340    1.0920 O   0  0  0  0  0  0  0  0  0  0  0  0
   -0.5720   -1.5460   -0.0580 C   0  0  0  0  0  0  0  0  0  0  0  0
   -0.9420   -2.8380   -0.4410 C   0  0  0  0  0  0  0  0  0  0  0  0
    0.0760   -3.8610   -0.8520 C   0  0  0  0  0  0  0  0  0  0  0  0
   -2.2260   -2.9180   -0.3600 O   0  0  0  0  0  0  0  0  0  0  0  0
   -2.7880   -1.7840    0.0500 C   0  0  0  0  0  0  0  0  0  0  0  0
   -4.2400   -1.5440    0.2510 C   0  0  0  0  0  0  0  0  0  0  0  0
   -1.7510   -0.8990    0.2460 C   0  0  0  0  0  0  0  0  0  0  0  0
   -1.7950    0.4980    0.6900 C   0  0  0  0  0  0  0  0  0  0  0  0
   -3.0110    1.2810    0.3400 C   0  0  1  0  0  0  0  0  0  0  0  0
   -2.8260    2.7130    0.9090 C   0  0  0  0  0  0  0  0  0  0  0  0
   -3.1070    1.4840   -1.1560 C   0  0  0  0  0  0  0  0  0  0  0  0
  1  2  1  0
  2  3  1  0
  3  4  1  0
  4  5  1  0
  5  6  1  0
  6  7  2  0
  6  8  1  0
  8  9  2  0
  8 14  1  0
  9 10  1  0
  9 11  1  0
 11 12  1  0
 12 13  1  0
 12 14  2  0
 14 15  1  0
 15 16  1  0
 16 17  1  1
 16 18  1  0
M  END
