
     RDKit          3D

 18 18  0  0  0  0  0  0  0  0999 V2000
    5.3210    1.3540    2.1590 C   0  0  0  0  0  0  0  0  0  0  0  0
    4.0620    1.0410    2.1820 C   0  0  0  0  0  0  0  0  0  0  0  0
    3.3510    0.4070    1.1090 C   0  0  0  0  0  0  0  0  0  0  0  0
    2.4190   -0.5970    1.4320 C   0  0  0  0  0  0  0  0  0  0  0  0
    1.6750   -1.2440    0.4990 C   0  0  0  0  0  0  0  0  0  0  0  0
    0.6940   -2.2920    0.7610 C   0  0  0  0  0  0  0  0  0  0  0  0
   -0.6920   -1.8660    1.0100 C   0  0  0  0  0  0  0  0  0  0  0  0
   -1.3090   -1.1080   -0.1440 C   0  0  1  0  0  0  0  0  0  0  0  0
   -1.3610   -1.8460   -1.3170 O   0  0  0  0  0  0  0  0  0  0  0  0
   -2.7540   -0.8170    0.2510 C   0  0  0  0  0  0  0  0  0  0  0  0
   -3.4700   -0.0550   -0.8420 C   0  0  0  0  0  0  0  0  0  0  0  0
   -4.8840    0.1820   -0.3580 C   0  0  0  0  0  0  0  0  0  0  0  0
   -5.6630    0.8820   -1.2790 O   0  0  0  0  0  0  0  0  0  0  0  0
   -5.1230    2.1290   -1.5540 C   0  0  0  0  0  0  0  0  0  0  0  0
    1.8560   -0.8840   -0.8430 C   0  0  0  0  0  0  0  0  0  0  0  0
    2.7520    0.0850   -1.1780 C   0  0  0  0  0  0  0  0  0  0  0  0
    3.5160    0.7490   -0.2030 C   0  0  0  0  0  0  0  0  0  0  0  0
    4.4470    1.8250   -0.6110 C   0  0  0  0  0  0  0  0  0  0  0  0
  1  2  2  0
  2  3  1  0
  3  4  2  0
  3 17  1  0
  4  5  1  0
  5  6  1  0
  5 15  2  0
  6  7  1  0
  7  8  1  0
  8  9  1  6
  8 10  1  0
 10 11  1  0
 11 12  1  0
 12 13  1  0
 13 14  1  0
 15 16  1  0
 16 17  2  0
 17 18  1  0
M  END
