
     RDKit          3D

 42 44  0  0  0  0  0  0  0  0999 V2000
   -8.3150   -0.7790    1.0450 C   0  0  0  0  0  0  0  0  0  0  0  0
   -6.9790   -1.1760    0.5630 C   0  0  0  0  0  0  0  0  0  0  0  0
   -6.9540   -2.0320   -0.3860 O   0  0  0  0  0  0  0  0  0  0  0  0
   -5.7560   -0.6730    1.0810 N   0  0  0  0  0  0  0  0  0  0  0  0
   -4.5200   -1.1290    0.5370 C   0  0  2  0  0  0  0  0  0  0  0  0
   -3.6590   -1.8560    1.5430 C   0  0  1  0  0  0  0  0  0  0  0  0
   -3.8790   -3.2310    1.5400 O   0  0  0  0  0  0  0  0  0  0  0  0
   -2.2330   -1.4860    1.3260 C   0  0  1  0  0  0  0  0  0  0  0  0
   -1.4530   -2.5340    1.8320 F   0  0  0  0  0  0  0  0  0  0  0  0
   -1.8360   -1.3370   -0.1330 C   0  0  1  0  0  0  0  0  0  0  0  0
   -0.6430   -0.6820   -0.1460 O   0  0  0  0  0  0  0  0  0  0  0  0
    0.0960   -0.3190   -1.5090 P   0  0  0  0  0  0  0  0  0  0  0  0
    0.3040   -1.4210   -2.7460 O   0  0  0  0  0  0  0  0  0  0  0  0
    0.6510    1.2440   -1.8210 O   0  0  0  0  0  0  0  0  0  0  0  0
    1.5120   -0.6500   -1.0140 O   0  0  0  0  0  0  0  0  0  0  0  0
    1.8640   -0.0380    0.1830 C   0  0  0  0  0  0  0  0  0  0  0  0
    3.2340   -0.3750    0.6370 C   0  0  1  0  0  0  0  0  0  0  0  0
    4.2200    0.0100   -0.3010 O   0  0  0  0  0  0  0  0  0  0  0  0
    5.3690   -0.1450    0.5100 C   0  0  1  0  0  0  0  0  0  0  0  0
    6.5620    0.2090   -0.1930 N   0  0  0  0  0  0  0  0  0  0  0  0
    7.7320    0.1240    0.4370 C   0  0  0  0  0  0  0  0  0  0  0  0
    8.9050    0.4590   -0.2160 C   0  0  0  0  0  0  0  0  0  0  0  0
    8.8460    0.8810   -1.5270 C   0  0  0  0  0  0  0  0  0  0  0  0
   10.0670    1.2160   -2.1670 N   0  0  0  0  0  0  0  0  0  0  0  0
    7.6490    0.9510   -2.1180 N   0  0  0  0  0  0  0  0  0  0  0  0
    6.5020    0.6210   -1.4720 C   0  0  0  0  0  0  0  0  0  0  0  0
    5.4260    0.7190   -2.1120 O   0  0  0  0  0  0  0  0  0  0  0  0
    5.0340    0.7870    1.6540 C   0  0  2  0  0  0  0  0  0  0  0  0
    5.7190    0.4500    2.8160 O   0  0  0  0  0  0  0  0  0  0  0  0
    3.5510    0.4550    1.8740 C   0  0  2  0  0  0  0  0  0  0  0  0
    3.4040   -0.3320    3.0120 O   0  0  0  0  0  0  0  0  0  0  0  0
   -1.6290   -2.7350   -0.6200 C   0  0  0  0  0  0  0  0  0  0  0  0
   -0.4860   -3.1250   -0.9350 O   0  0  0  0  0  0  0  0  0  0  0  0
   -2.6590   -3.6550   -0.7500 O   0  0  0  0  0  0  0  0  0  0  0  0
   -2.7430   -0.6330   -0.8830 O   0  0  0  0  0  0  0  0  0  0  0  0
   -3.6820   -0.0360   -0.0590 C   0  0  1  0  0  0  0  0  0  0  0  0
   -4.5060    0.9900   -0.7950 C   0  0  2  0  0  0  0  0  0  0  0  0
   -5.1850    0.4050   -1.8480 O   0  0  0  0  0  0  0  0  0  0  0  0
   -3.6270    2.1030   -1.3240 C   0  0  2  0  0  0  0  0  0  0  0  0
   -2.9170    2.7340   -0.3220 O   0  0  0  0  0  0  0  0  0  0  0  0
   -4.4250    3.1430   -2.0660 C   0  0  0  0  0  0  0  0  0  0  0  0
   -3.5010    4.0590   -2.5930 O   0  0  0  0  0  0  0  0  0  0  0  0
  1  2  1  0
  2  3  2  0
  2  4  1  0
  5  4  1  1
  5  6  1  0
  5 36  1  0
  6  7  1  6
  6  8  1  0
  8  9  1  6
  8 10  1  0
 10 11  1  1
 10 32  1  0
 10 35  1  0
 11 12  1  0
 12 13  1  0
 12 14  1  0
 12 15  1  0
 15 16  1  0
 17 16  1  6
 17 18  1  0
 17 30  1  0
 18 19  1  0
 19 20  1  6
 19 28  1  0
 20 21  1  0
 20 26  1  0
 21 22  2  0
 22 23  1  0
 23 24  1  0
 23 25  2  0
 25 26  1  0
 26 27  2  0
 28 29  1  1
 28 30  1  0
 30 31  1  1
 32 33  2  0
 32 34  1  0
 36 35  1  6
 36 37  1  0
 37 38  1  6
 37 39  1  0
 39 40  1  1
 39 41  1  0
 41 42  1  0
M  END
