
     RDKit          3D

 42 44  0  0  0  0  0  0  0  0999 V2000
    6.8270   -0.8030   -0.7390 C   0  0  0  0  0  0  0  0  0  0  0  0
    5.4200   -0.5460   -0.7410 O   0  0  0  0  0  0  0  0  0  0  0  0
    4.5240   -1.5890   -0.5570 C   0  0  0  0  0  0  0  0  0  0  0  0
    5.0520   -2.7440   -0.3940 O   0  0  0  0  0  0  0  0  0  0  0  0
    3.1140   -1.4320   -0.5420 N   0  0  0  0  0  0  0  0  0  0  0  0
    2.2400   -2.5640   -0.3340 C   0  0  0  0  0  0  0  0  0  0  0  0
    0.8350   -2.0880   -0.4080 C   0  0  0  0  0  0  0  0  0  0  0  0
    0.0610   -2.6380   -1.1540 O   0  0  0  0  0  0  0  0  0  0  0  0
    0.4540   -0.9240    0.4730 C   0  0  2  0  0  0  0  0  0  0  0  0
    0.4310   -1.5230    1.8580 C   0  0  0  0  0  0  0  0  0  0  0  0
    1.0910   -1.0950    2.8190 O   0  0  0  0  0  0  0  0  0  0  0  0
   -0.3990   -2.6440    2.0560 N   0  0  0  0  0  0  0  0  0  0  0  0
   -1.5190   -2.8150    1.1840 C   0  0  0  0  0  0  0  0  0  0  0  0
   -2.2700   -3.8380    1.3960 N   0  0  0  0  0  0  0  0  0  0  0  0
   -1.7230   -1.8410    0.1720 N   0  0  0  0  0  0  0  0  0  0  0  0
   -2.7440   -2.1240   -0.8010 C   0  0  0  0  0  0  0  0  0  0  0  0
   -3.9750   -1.3170   -0.4890 C   0  0  1  0  0  0  0  0  0  0  0  0
   -3.8110    0.0380   -0.5010 O   0  0  0  0  0  0  0  0  0  0  0  0
   -5.3710   -1.7400   -1.6470 P   0  0  0  0  0  0  0  0  0  0  0  0
   -5.3200   -3.4390   -2.0620 O   0  0  0  0  0  0  0  0  0  0  0  0
   -6.8590   -1.4510   -0.8070 O   0  0  0  0  0  0  0  0  0  0  0  0
   -0.9790   -0.5700    0.1270 C   0  0  2  0  0  0  0  0  0  0  0  0
   -1.1220   -0.1150   -1.1420 F   0  0  0  0  0  0  0  0  0  0  0  0
   -1.6000    0.2950    1.1750 C   0  0  0  0  0  0  0  0  0  0  0  0
   -1.9580   -0.4060    2.2090 O   0  0  0  0  0  0  0  0  0  0  0  0
   -1.8160    1.5610    1.2020 O   0  0  0  0  0  0  0  0  0  0  0  0
   -2.1850    2.8150    1.0520 C   0  0  2  0  0  0  0  0  0  0  0  0
   -2.5130    3.3270   -0.3020 C   0  0  0  0  0  0  0  0  0  0  0  0
   -2.3790    2.6050   -1.2960 O   0  0  0  0  0  0  0  0  0  0  0  0
   -2.9700    4.6170   -0.4410 O   0  0  0  0  0  0  0  0  0  0  0  0
   -1.2480    3.8530    1.7160 C   0  0  0  0  0  0  0  0  0  0  0  0
   -0.5540    4.5100    0.7120 O   0  0  0  0  0  0  0  0  0  0  0  0
    0.6200    4.2600    0.1030 C   0  0  0  0  0  0  0  0  0  0  0  0
    0.7370    4.6510   -1.1180 O   0  0  0  0  0  0  0  0  0  0  0  0
    1.8250    3.5890    0.6300 C   0  0  0  0  0  0  0  0  0  0  0  0
    2.1240    2.3970   -0.0370 O   0  0  0  0  0  0  0  0  0  0  0  0
    1.0540    1.5320    0.3010 C   0  0  0  0  0  0  0  0  0  0  0  0
    1.4750    0.1110    0.3880 C   0  0  1  0  0  0  0  0  0  0  0  0
    2.3100    0.0600    1.5520 O   0  0  0  0  0  0  0  0  0  0  0  0
    2.5110   -0.1500   -0.7220 C   0  0  2  0  0  0  0  0  0  0  0  0
    2.0040    0.0920   -2.0910 C   0  0  0  0  0  0  0  0  0  0  0  0
    3.1210   -0.0160   -2.9550 O   0  0  0  0  0  0  0  0  0  0  0  0
  1  2  1  0
  2  3  1  0
  3  4  2  0
  3  5  1  0
  5  6  1  0
  5 40  1  0
  6  7  1  0
  7  8  2  0
  9  7  1  6
  9 10  1  0
  9 22  1  0
  9 38  1  0
 10 11  2  0
 10 12  1  0
 12 13  1  0
 13 14  2  0
 13 15  1  0
 15 16  1  0
 15 22  1  0
 16 17  1  0
 17 18  1  6
 17 19  1  0
 19 20  1  0
 19 21  1  0
 22 23  1  6
 22 24  1  0
 24 25  2  0
 24 26  1  0
 26 27  1  0
 27 28  1  6
 27 31  1  0
 28 29  2  0
 28 30  1  0
 31 32  1  0
 32 33  1  0
 33 34  2  0
 33 35  1  0
 35 36  1  0
 36 37  1  0
 37 38  1  0
 38 39  1  1
 38 40  1  0
 40 41  1  6
 41 42  1  0
M  END
