
     RDKit          3D

 42 43  0  0  0  0  0  0  0  0999 V2000
   -4.1970    3.9000   -1.1810 N   0  0  0  0  0  0  0  0  0  0  0  0
   -3.9040    3.0630   -0.2590 C   0  0  0  0  0  0  0  0  0  0  0  0
   -3.1490    2.0280   -0.7580 N   0  0  0  0  0  0  0  0  0  0  0  0
   -2.1940    1.3400   -0.0530 C   0  0  0  0  0  0  0  0  0  0  0  0
   -2.0170    1.7770    1.1000 O   0  0  0  0  0  0  0  0  0  0  0  0
   -1.4810    0.2230   -0.6450 C   0  0  1  0  0  0  0  0  0  0  0  0
   -2.4900   -0.8740   -0.8770 C   0  0  0  0  0  0  0  0  0  0  0  0
   -2.0270   -2.0920   -1.4030 N   0  0  0  0  0  0  0  0  0  0  0  0
   -3.1920   -2.9470   -1.6180 C   0  0  0  0  0  0  0  0  0  0  0  0
   -2.8210   -4.3830   -1.8330 C   0  0  0  0  0  0  0  0  0  0  0  0
   -2.2700   -4.8950   -0.5260 C   0  0  0  0  0  0  0  0  0  0  0  0
   -2.3390   -6.0420   -0.1920 O   0  0  0  0  0  0  0  0  0  0  0  0
   -1.6260   -3.8140    0.3060 C   0  0  2  0  0  0  0  0  0  0  0  0
   -2.5120   -3.2480    1.1830 O   0  0  0  0  0  0  0  0  0  0  0  0
   -1.0550   -2.8390   -0.7030 C   0  0  0  0  0  0  0  0  0  0  0  0
   -0.8560    0.6720   -1.9530 C   0  0  0  0  0  0  0  0  0  0  0  0
   -0.0530    1.7510   -1.7530 O   0  0  0  0  0  0  0  0  0  0  0  0
    0.6640    1.8150   -0.5990 C   0  0  0  0  0  0  0  0  0  0  0  0
    0.6750    0.5300    0.1950 C   0  0  2  0  0  0  0  0  0  0  0  0
    1.1640    0.8430    1.5880 C   0  0  0  0  0  0  0  0  0  0  0  0
    1.3740   -0.2850    2.3620 O   0  0  0  0  0  0  0  0  0  0  0  0
    0.5140   -1.2290    2.8110 C   0  0  0  0  0  0  0  0  0  0  0  0
   -0.6960   -1.1320    2.5270 O   0  0  0  0  0  0  0  0  0  0  0  0
    0.9280   -2.3290    3.5950 O   0  0  0  0  0  0  0  0  0  0  0  0
    1.8090   -0.3160   -0.4160 C   0  0  0  0  0  0  0  0  0  0  0  0
    2.9630    0.5380   -0.3630 O   0  0  0  0  0  0  0  0  0  0  0  0
    4.1880    0.1390   -0.8200 C   0  0  0  0  0  0  0  0  0  0  0  0
    4.3150   -1.0070   -1.3000 O   0  0  0  0  0  0  0  0  0  0  0  0
    5.4100    1.0320   -0.7690 C   0  0  2  0  0  0  0  0  0  0  0  0
    5.1000    2.1830   -1.5570 F   0  0  0  0  0  0  0  0  0  0  0  0
    6.5960    0.4430   -1.4160 C   0  0  0  0  0  0  0  0  0  0  0  0
    7.1240   -0.7360   -0.9570 O   0  0  0  0  0  0  0  0  0  0  0  0
    7.7460   -0.8900    0.2510 C   0  0  0  0  0  0  0  0  0  0  0  0
    7.9050    0.0510    1.0580 O   0  0  0  0  0  0  0  0  0  0  0  0
    5.5340    1.5310    0.6070 C   0  0  0  0  0  0  0  0  0  0  0  0
    6.0060    2.6610    0.8960 O   0  0  0  0  0  0  0  0  0  0  0  0
    5.1160    0.7440    1.7010 O   0  0  0  0  0  0  0  0  0  0  0  0
   -0.5040   -0.1170    0.2320 O   0  0  0  0  0  0  0  0  0  0  0  0
   -4.7660    3.2170    0.8810 N   0  0  0  0  0  0  0  0  0  0  0  0
   -5.1070    4.8430    1.4830 P   0  0  0  0  0  0  0  0  0  0  0  0
   -6.7910    5.0150    1.6870 O   0  0  0  0  0  0  0  0  0  0  0  0
   -4.1430    5.2480    2.8270 O   0  0  0  0  0  0  0  0  0  0  0  0
  1  2  2  0
  2  3  1  0
  2 39  1  0
  3  4  1  0
  4  5  2  0
  4  6  1  0
  6  7  1  6
  6 16  1  0
  6 38  1  0
  7  8  1  0
  8  9  1  0
  8 15  1  0
  9 10  1  0
 10 11  1  0
 11 12  2  0
 11 13  1  0
 13 14  1  1
 13 15  1  0
 16 17  1  0
 17 18  1  0
 18 19  1  0
 19 20  1  1
 19 25  1  0
 19 38  1  0
 20 21  1  0
 21 22  1  0
 22 23  2  0
 22 24  1  0
 25 26  1  0
 26 27  1  0
 27 28  2  0
 27 29  1  0
 29 30  1  6
 29 31  1  0
 29 35  1  0
 31 32  1  0
 32 33  1  0
 33 34  2  0
 35 36  2  0
 35 37  1  0
 39 40  1  0
 40 41  1  0
 40 42  1  0
M  END
