
     RDKit          3D

 42 43  0  0  0  0  0  0  0  0999 V2000
    9.9110    2.0530    0.1280 C   0  0  0  0  0  0  0  0  0  0  0  0
    9.3270    0.6810    0.0690 C   0  0  0  0  0  0  0  0  0  0  0  0
    8.2930    0.6690   -0.8470 O   0  0  0  0  0  0  0  0  0  0  0  0
    7.6300   -0.9460   -0.8970 P   0  0  0  0  0  0  0  0  0  0  0  0
    7.4480   -1.3470   -2.5950 O   0  0  0  0  0  0  0  0  0  0  0  0
    6.0320   -0.8730   -0.2040 O   0  0  0  0  0  0  0  0  0  0  0  0
    5.4790   -1.8650    0.5910 C   0  0  0  0  0  0  0  0  0  0  0  0
    6.1740   -2.8840    0.8300 O   0  0  0  0  0  0  0  0  0  0  0  0
    4.1140   -1.7610    1.1600 C   0  0  1  0  0  0  0  0  0  0  0  0
    4.2050   -1.7740    2.5570 F   0  0  0  0  0  0  0  0  0  0  0  0
    3.4810   -0.5870    0.8090 O   0  0  0  0  0  0  0  0  0  0  0  0
    2.2820   -0.7780    0.1280 C   0  0  2  0  0  0  0  0  0  0  0  0
    2.4270   -0.1610   -1.2150 C   0  0  0  0  0  0  0  0  0  0  0  0
    1.4090   -0.2510   -1.9650 O   0  0  0  0  0  0  0  0  0  0  0  0
    3.5880    0.4600   -1.5980 O   0  0  0  0  0  0  0  0  0  0  0  0
    1.2030   -0.0810    0.9300 C   0  0  2  0  0  0  0  0  0  0  0  0
    1.1710   -0.7010    2.2720 C   0  0  0  0  0  0  0  0  0  0  0  0
    1.3910    0.0190    3.2960 O   0  0  0  0  0  0  0  0  0  0  0  0
    0.9100   -2.0350    2.4770 O   0  0  0  0  0  0  0  0  0  0  0  0
   -0.1000   -0.2390    0.2970 N   0  0  0  0  0  0  0  0  0  0  0  0
   -0.6420   -1.3160   -0.2510 C   0  0  0  0  0  0  0  0  0  0  0  0
   -1.9370   -1.0330   -0.7550 C   0  0  0  0  0  0  0  0  0  0  0  0
   -2.1320    0.2860   -0.4740 C   0  0  0  0  0  0  0  0  0  0  0  0
   -0.9830    0.7450    0.1750 C   0  0  0  0  0  0  0  0  0  0  0  0
   -3.3490    1.1030   -0.8430 C   0  0  2  0  0  0  0  0  0  0  0  0
   -3.1110    1.7900   -2.0400 O   0  0  0  0  0  0  0  0  0  0  0  0
   -3.5900    2.0330    0.2890 C   0  0  2  0  0  0  0  0  0  0  0  0
   -3.8410    1.3030    1.4520 O   0  0  0  0  0  0  0  0  0  0  0  0
   -4.7100    2.9910    0.1100 C   0  0  0  0  0  0  0  0  0  0  0  0
   -5.0190    3.5890    1.2040 O   0  0  0  0  0  0  0  0  0  0  0  0
   -5.2980    3.1750   -1.0900 O   0  0  0  0  0  0  0  0  0  0  0  0
   -6.0980    2.3910   -1.8560 C   0  0  0  0  0  0  0  0  0  0  0  0
   -5.9360    2.4320   -3.1270 O   0  0  0  0  0  0  0  0  0  0  0  0
   -7.1100    1.5170   -1.4100 N   0  0  0  0  0  0  0  0  0  0  0  0
   -7.0710    0.8260   -0.1320 C   0  0  0  0  0  0  0  0  0  0  0  0
   -6.7970   -0.6010   -0.3980 C   0  0  0  0  0  0  0  0  0  0  0  0
   -5.7530   -1.1970    0.4150 N   0  0  0  0  0  0  0  0  0  0  0  0
   -4.9200   -2.2610    0.0750 C   0  0  0  0  0  0  0  0  0  0  0  0
   -4.9490   -3.2240    0.9640 O   0  0  0  0  0  0  0  0  0  0  0  0
   -4.0510   -2.5110   -1.0390 C   0  0  0  0  0  0  0  0  0  0  0  0
   -4.4950   -3.4690   -1.8500 O   0  0  0  0  0  0  0  0  0  0  0  0
   -2.8250   -1.9270   -1.4120 N   0  0  0  0  0  0  0  0  0  0  0  0
  1  2  1  0
  2  3  1  0
  3  4  1  0
  4  5  1  0
  4  6  1  0
  6  7  1  0
  7  8  2  0
  7  9  1  0
  9 10  1  1
  9 11  1  0
 12 11  1  1
 12 13  1  0
 12 16  1  0
 13 14  2  0
 13 15  1  0
 16 17  1  0
 16 20  1  6
 17 18  2  0
 17 19  1  0
 20 21  1  0
 20 24  1  0
 21 22  2  0
 22 23  1  0
 22 42  1  0
 23 24  2  0
 23 25  1  0
 25 26  1  6
 25 27  1  0
 27 28  1  1
 27 29  1  0
 29 30  2  0
 29 31  1  0
 31 32  1  0
 32 33  2  0
 32 34  1  0
 34 35  1  0
 35 36  1  0
 36 37  1  0
 37 38  1  0
 38 39  2  0
 38 40  1  0
 40 41  2  0
 40 42  1  0
M  END
