
     RDKit          3D

 42 43  0  0  0  0  0  0  0  0999 V2000
    6.8510    2.0610    0.4000 O   0  0  0  0  0  0  0  0  0  0  0  0
    7.5270    1.0640    0.1130 C   0  0  0  0  0  0  0  0  0  0  0  0
    7.0720   -0.2740    0.1420 C   0  0  0  0  0  0  0  0  0  0  0  0
    5.9100   -0.7270    0.4610 C   0  0  0  0  0  0  0  0  0  0  0  0
    5.7930   -2.1620    0.3780 O   0  0  0  0  0  0  0  0  0  0  0  0
    7.0100   -3.1790    1.1040 P   0  0  0  0  0  0  0  0  0  0  0  0
    7.3490   -4.5790    0.1480 O   0  0  0  0  0  0  0  0  0  0  0  0
    6.6160   -3.6340    2.7320 O   0  0  0  0  0  0  0  0  0  0  0  0
    4.7610    0.0280    0.8760 C   0  0  0  0  0  0  0  0  0  0  0  0
    4.6760    1.2730    1.0000 O   0  0  0  0  0  0  0  0  0  0  0  0
    3.5470   -0.7040    1.1950 N   0  0  0  0  0  0  0  0  0  0  0  0
    2.3420   -0.0330    1.6200 C   0  0  0  0  0  0  0  0  0  0  0  0
    1.7650    0.9160    0.6260 C   0  0  1  0  0  0  0  0  0  0  0  0
    1.4030    0.3490   -0.5710 O   0  0  0  0  0  0  0  0  0  0  0  0
    0.3390   -0.5140   -0.5370 C   0  0  0  0  0  0  0  0  0  0  0  0
   -0.7160   -0.1810    0.4580 C   0  0  2  0  0  0  0  0  0  0  0  0
   -2.1450   -0.4180   -0.0850 C   0  0  1  0  0  0  0  0  0  0  0  0
   -2.2800   -1.8040   -0.5990 C   0  0  0  0  0  0  0  0  0  0  0  0
   -2.8740   -2.0570   -1.7510 O   0  0  0  0  0  0  0  0  0  0  0  0
   -3.5150   -1.2100   -2.5400 C   0  0  1  0  0  0  0  0  0  0  0  0
   -2.7680   -0.1050   -2.9870 F   0  0  0  0  0  0  0  0  0  0  0  0
   -3.8190   -1.9260   -3.8140 C   0  0  0  0  0  0  0  0  0  0  0  0
   -3.4680   -3.1120   -3.9390 O   0  0  0  0  0  0  0  0  0  0  0  0
   -4.4770   -1.3320   -4.8690 O   0  0  0  0  0  0  0  0  0  0  0  0
   -4.8420   -0.6900   -2.0380 C   0  0  0  0  0  0  0  0  0  0  0  0
   -5.2790   -1.3320   -0.8410 N   0  0  0  0  0  0  0  0  0  0  0  0
   -6.3060   -0.9160    0.0340 C   0  0  0  0  0  0  0  0  0  0  0  0
   -6.5430    0.2880    0.5080 C   0  0  0  0  0  0  0  0  0  0  0  0
   -5.8130    1.5120    0.2630 C   0  0  0  0  0  0  0  0  0  0  0  0
   -4.5940    1.8580    0.6190 C   0  0  0  0  0  0  0  0  0  0  0  0
   -4.1090    3.1940    0.2240 N   0  0  0  0  0  0  0  0  0  0  0  0
   -4.5950    4.2360    0.8110 C   0  0  0  0  0  0  0  0  0  0  0  0
   -4.0960    5.4570    0.3930 O   0  0  0  0  0  0  0  0  0  0  0  0
   -3.6350    1.0740    1.3810 C   0  0  0  0  0  0  0  0  0  0  0  0
   -3.3190    1.5930    2.5400 O   0  0  0  0  0  0  0  0  0  0  0  0
   -3.0210   -0.1400    1.0390 N   0  0  0  0  0  0  0  0  0  0  0  0
   -0.6590    1.1700    0.8780 O   0  0  0  0  0  0  0  0  0  0  0  0
    0.5940    1.6690    1.1990 C   0  0  0  0  0  0  0  0  0  0  0  0
    0.7180    2.6730    1.9140 O   0  0  0  0  0  0  0  0  0  0  0  0
    8.8730    1.3360   -0.2740 O   0  0  0  0  0  0  0  0  0  0  0  0
    9.3140    2.5840   -0.3040 O   0  0  0  0  0  0  0  0  0  0  0  0
    8.3230    3.4150   -0.6310 O   0  0  0  0  0  0  0  0  0  0  0  0
  1  2  2  0
  2  3  1  0
  2 40  1  0
  3  4  2  3
  4  5  1  0
  4  9  1  0
  5  6  1  0
  6  7  1  0
  6  8  1  0
  9 10  2  0
  9 11  1  0
 11 12  1  0
 13 12  1  1
 13 14  1  0
 13 38  1  0
 14 15  1  0
 16 15  1  6
 16 17  1  0
 16 37  1  0
 17 18  1  1
 17 36  1  0
 18 19  1  0
 19 20  1  0
 20 21  1  6
 20 22  1  0
 20 25  1  0
 22 23  2  0
 22 24  1  0
 25 26  1  0
 26 27  1  0
 27 28  2  0
 28 29  1  0
 29 30  2  0
 30 31  1  0
 30 34  1  0
 31 32  2  3
 32 33  1  0
 34 35  2  0
 34 36  1  0
 37 38  1  0
 38 39  2  0
 40 41  1  0
 41 42  1  0
M  END
