
     RDKit          3D

 41 43  0  0  0  0  0  0  0  0999 V2000
   -3.4940    0.0330    0.1740 N   0  0  0  0  0  0  0  0  0  0  0  0
   -2.5210    0.3010   -0.6160 C   0  0  0  0  0  0  0  0  0  0  0  0
   -2.5890    1.4790   -1.3170 O   0  0  0  0  0  0  0  0  0  0  0  0
   -3.3180    2.5850   -0.8860 C   0  0  0  0  0  0  0  0  0  0  0  0
   -3.3060    2.8720    0.3970 C   0  0  0  0  0  0  0  0  0  0  0  0
   -4.0650    4.0370    0.8990 C   0  0  1  0  0  0  0  0  0  0  0  0
   -3.1350    4.9090    1.4760 O   0  0  0  0  0  0  0  0  0  0  0  0
   -4.7570    4.7660   -0.0710 O   0  0  0  0  0  0  0  0  0  0  0  0
   -4.7710    4.4650   -1.4200 C   0  0  0  0  0  0  0  0  0  0  0  0
   -5.5040    5.2680   -2.2990 O   0  0  0  0  0  0  0  0  0  0  0  0
   -4.0760    3.4160   -1.8010 C   0  0  0  0  0  0  0  0  0  0  0  0
   -1.3890   -0.6880   -0.7100 C   0  0  1  0  0  0  0  0  0  0  0  0
   -1.8820   -1.8810    0.0760 C   0  0  0  0  0  0  0  0  0  0  0  0
   -1.3940   -2.1470    1.2020 O   0  0  0  0  0  0  0  0  0  0  0  0
   -2.8980   -2.6790   -0.4900 N   0  0  0  0  0  0  0  0  0  0  0  0
   -3.4250   -3.8500    0.2120 C   0  0  1  0  0  0  0  0  0  0  0  0
   -4.7480   -3.6600    0.5160 F   0  0  0  0  0  0  0  0  0  0  0  0
   -3.2310   -5.0920   -0.5810 C   0  0  0  0  0  0  0  0  0  0  0  0
   -3.7120   -6.2180    0.0560 O   0  0  0  0  0  0  0  0  0  0  0  0
   -4.9940   -6.5140    0.3620 C   0  0  0  0  0  0  0  0  0  0  0  0
   -5.9330   -5.7450    0.0660 O   0  0  0  0  0  0  0  0  0  0  0  0
   -5.3730   -7.6980    1.0300 O   0  0  0  0  0  0  0  0  0  0  0  0
   -1.2020   -1.0250   -2.1430 C   0  0  0  0  0  0  0  0  0  0  0  0
   -0.3060   -0.2570   -2.8260 O   0  0  0  0  0  0  0  0  0  0  0  0
    0.4850    0.5670   -2.1120 C   0  0  0  0  0  0  0  0  0  0  0  0
    0.8340   -0.0660   -0.7590 C   0  0  2  0  0  0  0  0  0  0  0  0
    1.7670    0.9210   -0.0510 C   0  0  0  0  0  0  0  0  0  0  0  0
    3.0330    1.0560   -0.7140 N   0  0  0  0  0  0  0  0  0  0  0  0
    3.8410    2.1610   -0.2320 C   0  0  0  0  0  0  0  0  0  0  0  0
    4.6150    1.2620    0.6540 C   0  0  2  0  0  0  0  0  0  0  0  0
    6.0160    1.3970    0.5500 O   0  0  0  0  0  0  0  0  0  0  0  0
    6.5170    1.4810    1.8420 C   0  0  0  0  0  0  0  0  0  0  0  0
    7.9070    1.6160    1.8430 O   0  0  0  0  0  0  0  0  0  0  0  0
    8.5540    1.7240    3.4460 P   0  0  0  0  0  0  0  0  0  0  0  0
    7.4690    2.6670    4.4420 O   0  0  0  0  0  0  0  0  0  0  0  0
    8.8190    0.1740    4.1550 O   0  0  0  0  0  0  0  0  0  0  0  0
    4.0680    0.1530   -0.2120 C   0  0  0  0  0  0  0  0  0  0  0  0
    1.4980   -1.3500   -1.0180 C   0  0  0  0  0  0  0  0  0  0  0  0
    2.5950   -1.4910   -1.8990 N   0  0  0  0  0  0  0  0  0  0  0  0
    1.1010   -2.3930   -0.4550 O   0  0  0  0  0  0  0  0  0  0  0  0
   -0.3420   -0.1530   -0.0510 O   0  0  0  0  0  0  0  0  0  0  0  0
  1  2  2  0
  2  3  1  0
 12  2  1  6
  3  4  1  0
  4  5  2  0
  4 11  1  0
  5  6  1  0
  6  7  1  6
  6  8  1  0
  8  9  1  0
  9 10  1  0
  9 11  2  0
 12 13  1  0
 12 23  1  0
 12 41  1  0
 13 14  2  0
 13 15  1  0
 15 16  1  0
 16 17  1  6
 16 18  1  0
 18 19  1  0
 19 20  1  0
 20 21  2  0
 20 22  1  0
 23 24  1  0
 24 25  1  0
 25 26  1  0
 26 27  1  1
 26 38  1  0
 26 41  1  0
 27 28  1  0
 28 29  1  0
 28 37  1  0
 29 30  1  0
 30 31  1  6
 30 37  1  0
 31 32  1  0
 32 33  1  0
 33 34  1  0
 34 35  1  0
 34 36  1  0
 38 39  1  0
 38 40  2  0
M  END
