
     RDKit          3D

 41 43  0  0  0  0  0  0  0  0999 V2000
   -7.9510    3.3800   -0.6460 C   0  0  0  0  0  0  0  0  0  0  0  0
   -8.1720    2.1910    0.2800 C   0  0  2  0  0  0  0  0  0  0  0  0
   -8.9330    2.5340    1.3760 O   0  0  0  0  0  0  0  0  0  0  0  0
  -10.0540    1.8530    1.4470 O   0  0  0  0  0  0  0  0  0  0  0  0
   -6.8040    1.7340    0.7090 C   0  0  0  0  0  0  0  0  0  0  0  0
   -6.4810    1.7040    1.9170 O   0  0  0  0  0  0  0  0  0  0  0  0
   -5.8610    1.3280   -0.2770 N   0  0  0  0  0  0  0  0  0  0  0  0
   -4.5360    0.8810    0.0560 C   0  0  2  0  0  0  0  0  0  0  0  0
   -3.7820    1.8730    0.6800 O   0  0  0  0  0  0  0  0  0  0  0  0
   -3.8110    0.5290   -1.2230 C   0  0  0  0  0  0  0  0  0  0  0  0
   -3.7980   -0.8620   -1.2040 O   0  0  0  0  0  0  0  0  0  0  0  0
   -3.6350   -1.1330    0.1530 C   0  0  1  0  0  0  0  0  0  0  0  0
   -3.8820   -2.5980    0.3950 C   0  0  0  0  0  0  0  0  0  0  0  0
   -3.0500   -3.3990   -0.5380 C   0  0  0  0  0  0  0  0  0  0  0  0
   -1.6010   -3.0240   -0.5740 C   0  0  2  0  0  0  0  0  0  0  0  0
   -0.8890   -3.7310    0.4080 O   0  0  0  0  0  0  0  0  0  0  0  0
   -1.3230   -1.5680   -0.4540 C   0  0  2  0  0  0  0  0  0  0  0  0
   -0.0010   -1.3930    0.0380 O   0  0  0  0  0  0  0  0  0  0  0  0
    0.9590   -0.6660   -0.5970 C   0  0  0  0  0  0  0  0  0  0  0  0
    0.7160   -0.1030   -1.6800 O   0  0  0  0  0  0  0  0  0  0  0  0
    2.2500   -0.5460   -0.0210 N   0  0  0  0  0  0  0  0  0  0  0  0
    2.6180   -1.1670    1.2230 C   0  0  0  0  0  0  0  0  0  0  0  0
    3.9420   -1.8140    1.2040 C   0  0  0  0  0  0  0  0  0  0  0  0
    4.1900   -2.9210    1.5850 O   0  0  0  0  0  0  0  0  0  0  0  0
    5.0710   -0.9120    0.6210 C   0  0  1  0  0  0  0  0  0  0  0  0
    5.1560    0.1760    1.5020 N   0  0  0  0  0  0  0  0  0  0  0  0
    6.3190    0.8450    1.8420 C   0  0  0  0  0  0  0  0  0  0  0  0
    6.9220    1.6690    0.7310 C   0  0  0  0  0  0  0  0  0  0  0  0
    7.2540    0.8890   -0.3490 O   0  0  0  0  0  0  0  0  0  0  0  0
    7.9480    1.8490   -1.6270 P   0  0  0  0  0  0  0  0  0  0  0  0
    7.0720    3.3480   -1.7750 O   0  0  0  0  0  0  0  0  0  0  0  0
    9.6000    2.1560   -1.2230 O   0  0  0  0  0  0  0  0  0  0  0  0
    6.2150   -1.8170    0.5150 C   0  0  0  0  0  0  0  0  0  0  0  0
    7.2590   -1.7320    1.1810 O   0  0  0  0  0  0  0  0  0  0  0  0
    6.1520   -2.8750   -0.4030 O   0  0  0  0  0  0  0  0  0  0  0  0
    4.5200   -0.4900   -0.7150 C   0  0  0  0  0  0  0  0  0  0  0  0
    5.1260   -0.7930   -1.7680 N   0  0  0  0  0  0  0  0  0  0  0  0
    4.6480   -0.4250   -2.9590 F   0  0  0  0  0  0  0  0  0  0  0  0
    3.2590    0.2570   -0.7180 C   0  0  0  0  0  0  0  0  0  0  0  0
   -2.2160   -0.8510    0.5260 C   0  0  0  0  0  0  0  0  0  0  0  0
   -4.5380   -0.3020    0.8170 O   0  0  0  0  0  0  0  0  0  0  0  0
  2  1  1  6
  2  3  1  0
  2  5  1  0
  3  4  1  0
  5  6  2  0
  5  7  1  0
  7  8  1  0
  8  9  1  1
  8 10  1  0
  8 41  1  0
 10 11  1  0
 11 12  1  0
 12 13  1  6
 12 40  1  0
 12 41  1  0
 13 14  1  0
 14 15  1  0
 15 16  1  1
 15 17  1  0
 17 18  1  1
 17 40  1  0
 18 19  1  0
 19 20  2  0
 19 21  1  0
 21 22  1  0
 21 39  1  0
 22 23  1  0
 23 24  2  0
 23 25  1  0
 25 26  1  1
 25 33  1  0
 25 36  1  0
 26 27  1  0
 27 28  1  0
 28 29  1  0
 29 30  1  0
 30 31  1  0
 30 32  1  0
 33 34  2  0
 33 35  1  0
 36 37  2  3
 36 39  1  0
 37 38  1  0
M  END
