
     RDKit          3D

 42 44  0  0  0  0  0  0  0  0999 V2000
   -7.4600    1.4340   -2.4750 C   0  0  0  0  0  0  0  0  0  0  0  0
   -6.0370    1.2000   -2.1630 C   0  0  0  0  0  0  0  0  0  0  0  0
   -5.0770    1.8410   -2.6540 O   0  0  0  0  0  0  0  0  0  0  0  0
   -5.6700    0.1650   -1.2260 N   0  0  0  0  0  0  0  0  0  0  0  0
   -4.3320   -0.1140   -0.8800 C   0  0  2  0  0  0  0  0  0  0  0  0
   -3.8810   -1.4960   -1.3170 C   0  0  1  0  0  0  0  0  0  0  0  0
   -4.2240   -1.7550   -2.6350 O   0  0  0  0  0  0  0  0  0  0  0  0
   -2.4100   -1.5800   -1.1630 C   0  0  1  0  0  0  0  0  0  0  0  0
   -1.8310   -1.0950   -2.3440 F   0  0  0  0  0  0  0  0  0  0  0  0
   -1.8320   -0.9640    0.0590 C   0  0  2  0  0  0  0  0  0  0  0  0
   -0.5660   -0.4820   -0.2640 O   0  0  0  0  0  0  0  0  0  0  0  0
    0.5270   -1.5870   -0.8150 P   0  0  2  0  0  0  0  0  0  0  0  0
    0.7270   -1.5110   -2.3300 O   0  0  0  0  0  0  0  0  0  0  0  0
   -0.0100   -3.1530   -0.5020 O   0  0  0  0  0  0  0  0  0  0  0  0
    2.0660   -1.3240   -0.1550 O   0  0  0  0  0  0  0  0  0  0  0  0
    2.3160    0.0100    0.0660 C   0  0  0  0  0  0  0  0  0  0  0  0
    3.6620    0.2830    0.6480 C   0  0  1  0  0  0  0  0  0  0  0  0
    4.7020   -0.1720   -0.1960 O   0  0  0  0  0  0  0  0  0  0  0  0
    5.8150    0.2450    0.5650 C   0  0  1  0  0  0  0  0  0  0  0  0
    7.0500    0.0980   -0.1490 N   0  0  0  0  0  0  0  0  0  0  0  0
    8.1660   -0.1300    0.5730 C   0  0  0  0  0  0  0  0  0  0  0  0
    9.3970   -0.2840   -0.0290 C   0  0  0  0  0  0  0  0  0  0  0  0
    9.4600   -0.1980   -1.4040 C   0  0  0  0  0  0  0  0  0  0  0  0
   10.7220   -0.3510   -2.0830 N   0  0  0  0  0  0  0  0  0  0  0  0
    8.3170    0.0300   -2.0700 N   0  0  0  0  0  0  0  0  0  0  0  0
    7.1300    0.1780   -1.4790 C   0  0  0  0  0  0  0  0  0  0  0  0
    6.0600    0.3930   -2.1250 O   0  0  0  0  0  0  0  0  0  0  0  0
    5.5050    1.7250    0.8160 C   0  0  2  0  0  0  0  0  0  0  0  0
    5.8150    2.0810    2.1170 O   0  0  0  0  0  0  0  0  0  0  0  0
    3.9790    1.7620    0.7010 C   0  0  2  0  0  0  0  0  0  0  0  0
    3.3910    2.4000    1.7700 O   0  0  0  0  0  0  0  0  0  0  0  0
   -1.7020   -1.8630    1.2230 C   0  0  0  0  0  0  0  0  0  0  0  0
   -0.5820   -2.0220    1.7540 O   0  0  0  0  0  0  0  0  0  0  0  0
   -2.7700   -2.5590    1.7750 O   0  0  0  0  0  0  0  0  0  0  0  0
   -2.5180    0.1590    0.5060 O   0  0  0  0  0  0  0  0  0  0  0  0
   -3.9140    0.0130    0.5430 C   0  0  1  0  0  0  0  0  0  0  0  0
   -4.3870    1.2700    1.2530 C   0  0  2  0  0  0  0  0  0  0  0  0
   -3.7040    1.2570    2.5240 O   0  0  0  0  0  0  0  0  0  0  0  0
   -5.8530    1.2340    1.5590 C   0  0  2  0  0  0  0  0  0  0  0  0
   -6.1570    2.3600    2.3860 O   0  0  0  0  0  0  0  0  0  0  0  0
   -6.2820   -0.0180    2.2440 C   0  0  0  0  0  0  0  0  0  0  0  0
   -5.6530   -0.2230    3.4600 O   0  0  0  0  0  0  0  0  0  0  0  0
  1  2  1  0
  2  3  2  0
  2  4  1  0
  5  4  1  1
  5  6  1  0
  5 36  1  0
  6  7  1  6
  6  8  1  0
  8  9  1  6
  8 10  1  0
 10 11  1  6
 10 32  1  0
 10 35  1  0
 11 12  1  0
 12 13  2  0
 12 14  1  6
 12 15  1  0
 15 16  1  0
 17 16  1  6
 17 18  1  0
 17 30  1  0
 18 19  1  0
 19 20  1  6
 19 28  1  0
 20 21  1  0
 20 26  1  0
 21 22  2  0
 22 23  1  0
 23 24  1  0
 23 25  2  0
 25 26  1  0
 26 27  2  0
 28 29  1  1
 28 30  1  0
 30 31  1  1
 32 33  2  0
 32 34  1  0
 36 35  1  6
 36 37  1  0
 37 38  1  1
 37 39  1  0
 39 40  1  1
 39 41  1  0
 41 42  1  0
M  END
