
     RDKit          3D

 41 42  0  0  0  0  0  0  0  0999 V2000
   -7.5880   -5.6830    0.1560 C   0  0  0  0  0  0  0  0  0  0  0  0
   -6.6730   -4.8880    0.8850 O   0  0  0  0  0  0  0  0  0  0  0  0
   -5.8360   -3.9660    0.2490 C   0  0  0  0  0  0  0  0  0  0  0  0
   -5.8920   -3.8490   -0.9930 O   0  0  0  0  0  0  0  0  0  0  0  0
   -4.8970   -3.1320    1.0230 C   0  0  0  0  0  0  0  0  0  0  0  0
   -4.0290   -2.3700    0.2740 O   0  0  0  0  0  0  0  0  0  0  0  0
   -3.1150   -3.1010   -0.4540 C   0  0  0  0  0  0  0  0  0  0  0  0
   -2.2190   -2.1140   -1.2160 C   0  0  0  0  0  0  0  0  0  0  0  0
   -1.6570   -1.2580   -0.2360 N   0  0  0  0  0  0  0  0  0  0  0  0
   -0.7450   -1.8870    0.7050 C   0  0  0  0  0  0  0  0  0  0  0  0
   -0.5010   -0.6700    1.5730 C   0  0  2  0  0  0  0  0  0  0  0  0
   -1.8130   -0.2630    1.9430 O   0  0  0  0  0  0  0  0  0  0  0  0
    0.0150    0.2660    0.5000 C   0  0  1  0  0  0  0  0  0  0  0  0
   -0.3480    1.6210    0.7690 N   0  0  0  0  0  0  0  0  0  0  0  0
   -0.0350    2.6980   -0.0710 C   0  0  0  0  0  0  0  0  0  0  0  0
    0.6210    2.5730   -1.1470 O   0  0  0  0  0  0  0  0  0  0  0  0
   -0.4670    4.0970    0.2400 C   0  0  1  0  0  0  0  0  0  0  0  0
   -1.3470    4.0460    1.3360 O   0  0  0  0  0  0  0  0  0  0  0  0
    0.7570    4.8720    0.6600 C   0  0  0  0  0  0  0  0  0  0  0  0
    0.4280    6.2470    0.8570 O   0  0  0  0  0  0  0  0  0  0  0  0
   -0.2740    6.8580   -0.1980 C   0  0  0  0  0  0  0  0  0  0  0  0
   -0.6650    8.0450   -0.1100 O   0  0  0  0  0  0  0  0  0  0  0  0
   -0.5080    6.0160   -1.3820 C   0  0  0  0  0  0  0  0  0  0  0  0
   -1.0950    4.6620   -1.0090 C   0  0  1  0  0  0  0  0  0  0  0  0
   -0.9050    3.8430   -2.1160 F   0  0  0  0  0  0  0  0  0  0  0  0
   -2.5880    4.7310   -0.7880 C   0  0  0  0  0  0  0  0  0  0  0  0
   -3.3710    4.1090   -1.5200 O   0  0  0  0  0  0  0  0  0  0  0  0
   -3.1240    5.4900    0.2430 O   0  0  0  0  0  0  0  0  0  0  0  0
    1.3610    0.0820    0.0540 C   0  0  0  0  0  0  0  0  0  0  0  0
    2.0220    0.5710   -0.7570 O   0  0  0  0  0  0  0  0  0  0  0  0
    2.1730   -1.1730    0.9600 N   0  0  0  0  0  0  0  0  0  0  0  0
    3.3820   -1.1710    0.1250 C   0  0  0  0  0  0  0  0  0  0  0  0
    3.7220   -0.7520   -0.8790 O   0  0  0  0  0  0  0  0  0  0  0  0
    4.3930   -2.0050    0.8770 N   0  0  0  0  0  0  0  0  0  0  0  0
    5.5800   -2.4760    0.3990 C   0  0  0  0  0  0  0  0  0  0  0  0
    6.4700   -1.4470   -0.2500 C   0  0  0  0  0  0  0  0  0  0  0  0
    7.6280   -2.0560   -0.6430 O   0  0  0  0  0  0  0  0  0  0  0  0
    8.6740   -1.0650   -1.5210 P   0  0  0  0  0  0  0  0  0  0  0  0
    9.6820   -2.1200   -2.5600 O   0  0  0  0  0  0  0  0  0  0  0  0
    9.6740   -0.1070   -0.4930 O   0  0  0  0  0  0  0  0  0  0  0  0
   -0.9550   -0.1240   -0.7040 C   0  0  0  0  0  0  0  0  0  0  0  0
  1  2  1  0
  2  3  1  0
  3  4  2  0
  3  5  1  0
  5  6  1  0
  6  7  1  0
  7  8  1  0
  8  9  1  0
  9 10  1  0
  9 41  1  0
 10 11  1  0
 11 12  1  6
 11 13  1  0
 13 14  1  1
 13 29  1  0
 13 41  1  0
 14 15  1  0
 15 16  2  0
 15 17  1  0
 17 18  1  1
 17 19  1  0
 17 24  1  0
 19 20  1  0
 20 21  1  0
 21 22  2  0
 21 23  1  0
 23 24  1  0
 24 25  1  6
 24 26  1  0
 26 27  2  0
 26 28  1  0
 29 30  2  0
 29 31  1  0
 31 32  1  0
 32 33  2  0
 32 34  1  0
 34 35  1  0
 35 36  1  0
 36 37  1  0
 37 38  1  0
 38 39  1  0
 38 40  1  0
M  END
