
     RDKit          3D

 42 43  0  0  0  0  0  0  0  0999 V2000
    6.2510   -1.8310    0.7300 C   0  0  0  0  0  0  0  0  0  0  0  0
    6.3320   -0.3840    1.0630 C   0  0  0  0  0  0  0  0  0  0  0  0
    5.2300    0.3700    0.5580 O   0  0  0  0  0  0  0  0  0  0  0  0
    3.9210    0.1100    0.9180 C   0  0  0  0  0  0  0  0  0  0  0  0
    3.7430   -0.8370    1.7220 O   0  0  0  0  0  0  0  0  0  0  0  0
    2.7440    0.8480    0.4360 C   0  0  2  0  0  0  0  0  0  0  0  0
    1.5530    0.3620    0.9610 O   0  0  0  0  0  0  0  0  0  0  0  0
    1.2270    0.8390    2.2030 C   0  0  0  0  0  0  0  0  0  0  0  0
    0.5160    2.1400    2.1760 C   0  0  0  0  0  0  0  0  0  0  0  0
    1.2030    3.1890    1.9040 O   0  0  0  0  0  0  0  0  0  0  0  0
   -0.8660    2.3270    2.4290 N   0  0  0  0  0  0  0  0  0  0  0  0
   -1.9350    1.6380    1.8010 C   0  0  0  0  0  0  0  0  0  0  0  0
   -2.7910    1.0930    2.5890 O   0  0  0  0  0  0  0  0  0  0  0  0
   -2.1040    1.5230    0.3860 N   0  0  0  0  0  0  0  0  0  0  0  0
   -1.2670    2.2150   -0.5550 C   0  0  0  0  0  0  0  0  0  0  0  0
   -1.6660    1.9920   -1.9920 C   0  0  2  0  0  0  0  0  0  0  0  0
   -3.0340    2.6010   -2.1690 C   0  0  0  0  0  0  0  0  0  0  0  0
   -3.7890    3.2300   -1.2040 C   0  0  0  0  0  0  0  0  0  0  0  0
   -4.9570    3.6480   -1.7230 N   0  0  0  0  0  0  0  0  0  0  0  0
   -4.9540    3.2910   -3.0130 N   0  0  0  0  0  0  0  0  0  0  0  0
   -3.7960    2.6520   -3.3120 C   0  0  0  0  0  0  0  0  0  0  0  0
   -3.4520    2.1520   -4.5300 F   0  0  0  0  0  0  0  0  0  0  0  0
   -1.7180    0.6690   -2.2970 O   0  0  0  0  0  0  0  0  0  0  0  0
   -2.0090   -0.5130   -1.7480 C   0  0  0  0  0  0  0  0  0  0  0  0
   -3.1240   -1.1270   -2.0080 O   0  0  0  0  0  0  0  0  0  0  0  0
   -1.1480   -1.2460   -0.8190 C   0  0  0  0  0  0  0  0  0  0  0  0
   -1.7850   -1.9230    0.3700 C   0  0  2  0  0  0  0  0  0  0  0  0
   -0.8770   -2.6430    1.1280 O   0  0  0  0  0  0  0  0  0  0  0  0
   -0.7120   -2.4960    2.5020 C   0  0  0  0  0  0  0  0  0  0  0  0
   -1.4510   -1.6500    3.0610 O   0  0  0  0  0  0  0  0  0  0  0  0
    0.2300   -3.2690    3.1640 O   0  0  0  0  0  0  0  0  0  0  0  0
   -2.7830   -2.7390   -0.1930 O   0  0  0  0  0  0  0  0  0  0  0  0
   -4.3630   -2.3390    0.3860 P   0  0  0  0  0  0  0  0  0  0  0  0
   -4.3540   -1.7860    2.0270 O   0  0  0  0  0  0  0  0  0  0  0  0
   -5.3290   -3.7970    0.2350 O   0  0  0  0  0  0  0  0  0  0  0  0
    0.1580   -1.3930   -0.9360 C   0  0  0  0  0  0  0  0  0  0  0  0
    0.9990   -0.8370   -2.0430 C   0  0  2  0  0  0  0  0  0  0  0  0
    2.0460   -1.8690   -2.4530 C   0  0  0  0  0  0  0  0  0  0  0  0
    2.9310   -2.1930   -1.4600 O   0  0  0  0  0  0  0  0  0  0  0  0
    1.5870    0.3140   -1.6570 O   0  0  0  0  0  0  0  0  0  0  0  0
    2.6120    0.8630   -1.0420 C   0  0  0  0  0  0  0  0  0  0  0  0
    3.5650    1.4470   -1.6410 O   0  0  0  0  0  0  0  0  0  0  0  0
  1  2  1  0
  2  3  1  0
  3  4  1  0
  4  5  2  0
  6  4  1  6
  6  7  1  0
  6 41  1  0
  7  8  1  0
  8  9  1  0
  9 10  2  0
  9 11  1  0
 11 12  1  0
 12 13  2  0
 12 14  1  0
 14 15  1  0
 15 16  1  0
 16 17  1  1
 16 23  1  0
 17 18  1  0
 17 21  2  0
 18 19  2  0
 19 20  1  0
 20 21  1  0
 21 22  1  0
 23 24  1  0
 24 25  2  0
 24 26  1  0
 26 27  1  0
 26 36  2  0
 27 28  1  6
 27 32  1  0
 28 29  1  0
 29 30  2  0
 29 31  1  0
 32 33  1  0
 33 34  1  0
 33 35  1  0
 36 37  1  0
 37 38  1  1
 37 40  1  0
 38 39  1  0
 40 41  1  0
 41 42  2  0
M  END
