
     RDKit          3D

 42 42  0  0  0  0  0  0  0  0999 V2000
    6.0120   -2.5860    1.1030 C   0  0  0  0  0  0  0  0  0  0  0  0
    5.4180   -1.4600    0.5240 O   0  0  0  0  0  0  0  0  0  0  0  0
    4.0330   -1.2520    0.5260 C   0  0  0  0  0  0  0  0  0  0  0  0
    3.3750   -2.1990    1.0860 O   0  0  0  0  0  0  0  0  0  0  0  0
    3.4330   -0.0470   -0.0440 C   0  0  1  0  0  0  0  0  0  0  0  0
    4.1220    1.1920    0.6170 C   0  0  0  0  0  0  0  0  0  0  0  0
    5.4760    0.9890    0.4620 O   0  0  0  0  0  0  0  0  0  0  0  0
    3.9820   -0.0230   -1.4960 C   0  0  0  0  0  0  0  0  0  0  0  0
    3.6490   -1.2700   -2.1550 C   0  0  0  0  0  0  0  0  0  0  0  0
    3.3240   -2.2900   -1.4960 O   0  0  0  0  0  0  0  0  0  0  0  0
    3.6790   -1.3840   -3.5360 O   0  0  0  0  0  0  0  0  0  0  0  0
    2.0840    0.0990    0.0420 N   0  0  0  0  0  0  0  0  0  0  0  0
    1.1030   -0.2850   -0.9420 C   0  0  1  0  0  0  0  0  0  0  0  0
    0.2530   -1.3830   -0.3670 C   0  0  0  0  0  0  0  0  0  0  0  0
   -0.4540   -0.8050    0.7380 O   0  0  0  0  0  0  0  0  0  0  0  0
   -1.2000   -1.5090    1.6410 C   0  0  0  0  0  0  0  0  0  0  0  0
   -1.3440   -1.3390    2.8630 O   0  0  0  0  0  0  0  0  0  0  0  0
   -1.9490   -2.6460    1.1100 N   0  0  0  0  0  0  0  0  0  0  0  0
   -2.6410   -2.6250   -0.0840 C   0  0  0  0  0  0  0  0  0  0  0  0
   -2.5760   -3.4730   -1.2020 N   0  0  0  0  0  0  0  0  0  0  0  0
   -2.9480   -4.8120   -1.1110 C   0  0  0  0  0  0  0  0  0  0  0  0
   -3.4630   -4.9900    0.1190 O   0  0  0  0  0  0  0  0  0  0  0  0
   -2.9070   -5.8450   -1.9120 O   0  0  0  0  0  0  0  0  0  0  0  0
   -3.4290   -1.6080   -0.4270 N   0  0  0  0  0  0  0  0  0  0  0  0
   -3.5920   -0.5990    0.4190 C   0  0  0  0  0  0  0  0  0  0  0  0
   -5.1630   -0.1500   -0.4580 C   0  0  0  0  0  0  0  0  0  0  0  0
   -5.9690   -1.2690   -0.1330 C   0  0  0  0  0  0  0  0  0  0  0  0
   -5.6720   -2.0330    0.9090 O   0  0  0  0  0  0  0  0  0  0  0  0
   -7.0860   -1.6820   -0.8240 O   0  0  0  0  0  0  0  0  0  0  0  0
   -3.8540    0.3950    1.2510 C   0  0  0  0  0  0  0  0  0  0  0  0
   -2.7190    1.1150    1.8420 O   0  0  0  0  0  0  0  0  0  0  0  0
   -2.0200    2.0770    1.0000 C   0  0  0  0  0  0  0  0  0  0  0  0
   -0.5440    2.0940    1.1230 C   0  0  2  0  0  0  0  0  0  0  0  0
   -0.0390    1.5670    2.3030 F   0  0  0  0  0  0  0  0  0  0  0  0
   -0.0520    3.5860    1.2910 C   0  0  0  0  0  0  0  0  0  0  0  0
   -0.4690    4.2920    0.0300 C   0  0  0  0  0  0  0  0  0  0  0  0
    0.1450    6.0740    0.0520 P   0  0  0  0  0  0  0  0  0  0  0  0
    0.0380    6.5870    1.7000 O   0  0  0  0  0  0  0  0  0  0  0  0
   -0.9110    7.0570   -0.8920 O   0  0  0  0  0  0  0  0  0  0  0  0
    0.1130    1.7760   -0.0400 O   0  0  0  0  0  0  0  0  0  0  0  0
    0.2080    0.9800   -1.0630 C   0  0  0  0  0  0  0  0  0  0  0  0
   -0.3570    1.0890   -2.1730 O   0  0  0  0  0  0  0  0  0  0  0  0
  1  2  1  0
  2  3  1  0
  3  4  2  0
  3  5  1  0
  5  6  1  1
  5  8  1  0
  5 12  1  0
  6  7  1  0
  8  9  1  0
  9 10  2  0
  9 11  1  0
 13 12  1  1
 13 14  1  0
 13 41  1  0
 14 15  1  0
 15 16  1  0
 16 17  2  0
 16 18  1  0
 18 19  1  0
 19 20  1  0
 19 24  2  0
 20 21  1  0
 21 22  2  0
 21 23  1  0
 24 25  1  0
 25 26  1  0
 25 30  2  0
 26 27  1  0
 27 28  2  0
 27 29  1  0
 30 31  1  0
 31 32  1  0
 32 33  1  0
 33 34  1  1
 33 35  1  0
 33 40  1  0
 35 36  1  0
 36 37  1  0
 37 38  1  0
 37 39  1  0
 40 41  1  0
 41 42  2  0
M  END
