
     RDKit          3D

 42 44  0  0  0  0  0  0  0  0999 V2000
    8.9110    2.3330    0.0770 C   0  0  0  0  0  0  0  0  0  0  0  0
    7.6460    1.8610    0.5100 O   0  0  0  0  0  0  0  0  0  0  0  0
    6.5460    1.9100   -0.4270 C   0  0  0  0  0  0  0  0  0  0  0  0
    6.7390    2.3510   -1.4990 O   0  0  0  0  0  0  0  0  0  0  0  0
    5.2570    1.3590    0.1540 C   0  0  2  0  0  0  0  0  0  0  0  0
    4.3450    1.3640   -0.8500 O   0  0  0  0  0  0  0  0  0  0  0  0
    3.0390    0.9120   -0.8790 C   0  0  0  0  0  0  0  0  0  0  0  0
    2.6330    0.4530    0.1990 O   0  0  0  0  0  0  0  0  0  0  0  0
    2.1340    0.9270   -2.0480 C   0  0  0  0  0  0  0  0  0  0  0  0
    0.9950    0.0720   -1.6570 N   0  0  0  0  0  0  0  0  0  0  0  0
   -0.0240   -0.2470   -2.6790 C   0  0  0  0  0  0  0  0  0  0  0  0
    0.0600    0.1730   -3.7680 O   0  0  0  0  0  0  0  0  0  0  0  0
   -1.1050   -1.1400   -2.0750 C   0  0  1  0  0  0  0  0  0  0  0  0
   -0.4630   -2.1620   -1.4470 F   0  0  0  0  0  0  0  0  0  0  0  0
   -1.8750   -0.3240   -1.0470 C   0  0  0  0  0  0  0  0  0  0  0  0
   -2.6220   -1.3130   -0.1910 C   0  0  1  0  0  0  0  0  0  0  0  0
   -1.9200   -1.4790    1.1560 C   0  0  0  0  0  0  0  0  0  0  0  0
   -1.6660   -2.6380    1.5510 O   0  0  0  0  0  0  0  0  0  0  0  0
   -1.5640   -0.3800    1.9620 N   0  0  0  0  0  0  0  0  0  0  0  0
   -0.9620   -0.5220    3.2330 C   0  0  0  0  0  0  0  0  0  0  0  0
   -0.6960   -1.6490    3.7160 O   0  0  0  0  0  0  0  0  0  0  0  0
   -0.6400    0.6310    4.0000 O   0  0  0  0  0  0  0  0  0  0  0  0
   -4.0460   -1.0570    0.0410 C   0  0  0  0  0  0  0  0  0  0  0  0
   -4.9620   -1.7560    0.0710 O   0  0  0  0  0  0  0  0  0  0  0  0
   -4.3760    0.6110    0.3230 N   0  0  0  0  0  0  0  0  0  0  0  0
   -5.6730    0.4960    0.6950 C   0  0  0  0  0  0  0  0  0  0  0  0
   -6.5040   -0.3560    0.6630 O   0  0  0  0  0  0  0  0  0  0  0  0
   -6.1550    1.8020    1.3120 N   0  0  0  0  0  0  0  0  0  0  0  0
   -7.7380    1.9800    1.9410 P   0  0  0  0  0  0  0  0  0  0  0  0
   -7.9550    3.3980    2.8640 O   0  0  0  0  0  0  0  0  0  0  0  0
   -8.6130    0.6540    2.4930 O   0  0  0  0  0  0  0  0  0  0  0  0
   -2.5130   -2.6210   -0.9080 C   0  0  0  0  0  0  0  0  0  0  0  0
   -2.3070   -3.6410   -0.3010 O   0  0  0  0  0  0  0  0  0  0  0  0
   -2.6680   -2.6790   -2.3800 C   0  0  1  0  0  0  0  0  0  0  0  0
   -2.2380   -3.9670   -3.0090 C   0  0  0  0  0  0  0  0  0  0  0  0
   -3.5170   -4.2310   -3.4090 O   0  0  0  0  0  0  0  0  0  0  0  0
   -3.9670   -3.0030   -2.9700 C   0  0  0  0  0  0  0  0  0  0  0  0
   -1.9920   -1.5980   -2.9950 O   0  0  0  0  0  0  0  0  0  0  0  0
    5.0530    2.0120    1.4430 C   0  0  0  0  0  0  0  0  0  0  0  0
    5.0000    0.8650    2.4480 C   0  0  0  0  0  0  0  0  0  0  0  0
    6.0490    0.0610    1.9060 O   0  0  0  0  0  0  0  0  0  0  0  0
    5.6430   -0.0750    0.5880 C   0  0  0  0  0  0  0  0  0  0  0  0
  1  2  1  0
  2  3  1  0
  3  4  2  0
  3  5  1  0
  5  6  1  6
  5 39  1  0
  5 42  1  0
  6  7  1  0
  7  8  2  0
  7  9  1  0
  9 10  1  0
 10 11  1  0
 11 12  2  0
 11 13  1  0
 13 14  1  1
 13 15  1  0
 13 38  1  0
 15 16  1  0
 16 17  1  1
 16 23  1  0
 16 32  1  0
 17 18  2  0
 17 19  1  0
 19 20  1  0
 20 21  2  0
 20 22  1  0
 23 24  2  0
 23 25  1  0
 25 26  1  0
 26 27  2  0
 26 28  1  0
 28 29  1  0
 29 30  1  0
 29 31  1  0
 32 33  2  0
 32 34  1  0
 34 35  1  6
 34 37  1  0
 34 38  1  0
 35 36  1  0
 36 37  1  0
 39 40  1  0
 40 41  1  0
 41 42  1  0
M  END
