
     RDKit          3D

 42 43  0  0  0  0  0  0  0  0999 V2000
   -2.9680   -2.4130    3.2400 O   0  0  0  0  0  0  0  0  0  0  0  0
   -4.1250   -2.1620    2.8870 C   0  0  0  0  0  0  0  0  0  0  0  0
   -5.1460   -2.8710    3.5450 O   0  0  0  0  0  0  0  0  0  0  0  0
   -4.5490   -1.2080    1.8610 C   0  0  0  0  0  0  0  0  0  0  0  0
   -3.4810   -0.5090    1.2150 N   0  0  0  0  0  0  0  0  0  0  0  0
   -2.6190   -1.2760    0.3740 C   0  0  2  0  0  0  0  0  0  0  0  0
   -1.5070   -0.5790    0.0730 O   0  0  0  0  0  0  0  0  0  0  0  0
   -1.4720    0.7510   -0.0900 C   0  0  2  0  0  0  0  0  0  0  0  0
   -2.0270    1.1960   -1.4050 C   0  0  0  0  0  0  0  0  0  0  0  0
   -2.3920    0.3260   -2.2230 O   0  0  0  0  0  0  0  0  0  0  0  0
   -2.1680    2.5190   -1.7810 O   0  0  0  0  0  0  0  0  0  0  0  0
    0.0200    1.1410   -0.0060 C   0  0  2  0  0  0  0  0  0  0  0  0
    0.0180    2.2430    1.0990 C   0  0  0  0  0  0  0  0  0  0  0  0
   -0.8040    3.2910    0.6760 O   0  0  0  0  0  0  0  0  0  0  0  0
   -0.7950    4.2530    1.6610 C   0  0  0  0  0  0  0  0  0  0  0  0
    0.4560    4.7560    1.9170 F   0  0  0  0  0  0  0  0  0  0  0  0
    0.4470    1.8510   -1.2220 C   0  0  0  0  0  0  0  0  0  0  0  0
    1.8230    2.1530   -1.0880 O   0  0  0  0  0  0  0  0  0  0  0  0
    2.3140    2.8220   -2.1810 C   0  0  0  0  0  0  0  0  0  0  0  0
    1.6340    4.1360   -2.4500 C   0  0  0  0  0  0  0  0  0  0  0  0
    1.7480    5.0230   -1.3990 O   0  0  0  0  0  0  0  0  0  0  0  0
    1.1250    6.1340   -1.7290 O   0  0  0  0  0  0  0  0  0  0  0  0
    0.8720    0.0910    0.5310 C   0  0  0  0  0  0  0  0  0  0  0  0
    0.3510   -0.5700    1.5150 O   0  0  0  0  0  0  0  0  0  0  0  0
    2.1720   -0.3460    0.1820 N   0  0  0  0  0  0  0  0  0  0  0  0
    3.1500   -0.6400    1.2370 C   0  0  0  0  0  0  0  0  0  0  0  0
    3.0810   -2.0890    1.6640 C   0  0  0  0  0  0  0  0  0  0  0  0
    3.9920   -2.3690    2.6490 O   0  0  0  0  0  0  0  0  0  0  0  0
    3.9080   -4.0150    3.1280 P   0  0  0  0  0  0  0  0  0  0  0  0
    3.5390   -5.0880    1.8360 O   0  0  0  0  0  0  0  0  0  0  0  0
    5.3960   -4.5080    3.8630 O   0  0  0  0  0  0  0  0  0  0  0  0
    2.6220   -0.5480   -1.1940 C   0  0  0  0  0  0  0  0  0  0  0  0
    3.8680   -0.4730   -1.3570 O   0  0  0  0  0  0  0  0  0  0  0  0
    1.6980   -0.8030   -2.2140 N   0  0  0  0  0  0  0  0  0  0  0  0
    0.6330   -1.4770   -2.2700 C   0  0  0  0  0  0  0  0  0  0  0  0
   -0.1330   -2.2950   -1.3570 C   0  0  0  0  0  0  0  0  0  0  0  0
   -1.1970   -2.6780   -2.0400 C   0  0  0  0  0  0  0  0  0  0  0  0
   -0.6480   -2.9150   -3.4420 C   0  0  0  0  0  0  0  0  0  0  0  0
   -0.1410   -1.5180   -3.5080 O   0  0  0  0  0  0  0  0  0  0  0  0
   -2.5620   -2.7680   -1.6870 N   0  0  0  0  0  0  0  0  0  0  0  0
   -3.2800   -1.8840   -0.8080 C   0  0  0  0  0  0  0  0  0  0  0  0
   -4.4810   -1.5960   -1.0040 O   0  0  0  0  0  0  0  0  0  0  0  0
  1  2  2  0
  2  3  1  0
  2  4  1  0
  4  5  1  0
  6  5  1  6
  6  7  1  0
  6 41  1  0
  7  8  1  0
  8  9  1  6
  8 12  1  0
  9 10  2  0
  9 11  1  0
 12 13  1  1
 12 17  1  0
 12 23  1  0
 13 14  1  0
 14 15  1  0
 15 16  1  0
 17 18  1  0
 18 19  1  0
 19 20  1  0
 20 21  1  0
 21 22  1  0
 23 24  2  0
 23 25  1  0
 25 26  1  0
 25 32  1  0
 26 27  1  0
 27 28  1  0
 28 29  1  0
 29 30  1  0
 29 31  1  0
 32 33  2  0
 32 34  1  0
 34 35  2  0
 35 36  1  0
 35 39  1  0
 36 37  2  0
 37 38  1  0
 37 40  1  0
 38 39  1  0
 40 41  1  0
 41 42  2  0
M  END
