
     RDKit          3D

 42 43  0  0  0  0  0  0  0  0999 V2000
    2.2560   -2.5910   -2.5080 O   0  0  0  0  0  0  0  0  0  0  0  0
    2.8530   -2.2240   -1.5090 C   0  0  0  0  0  0  0  0  0  0  0  0
    2.8700   -3.1590   -0.3500 C   0  0  0  0  0  0  0  0  0  0  0  0
    1.4740   -3.8020   -0.3080 C   0  0  0  0  0  0  0  0  0  0  0  0
    1.0070   -4.0190    1.0190 N   0  0  0  0  0  0  0  0  0  0  0  0
   -0.2940   -3.6790    1.4110 C   0  0  0  0  0  0  0  0  0  0  0  0
   -0.4330   -3.3380    2.6430 O   0  0  0  0  0  0  0  0  0  0  0  0
   -1.5110   -3.6620    0.6030 C   0  0  2  0  0  0  0  0  0  0  0  0
   -1.3120   -3.7350   -0.7750 O   0  0  0  0  0  0  0  0  0  0  0  0
   -2.4420   -2.5640    0.9610 C   0  0  0  0  0  0  0  0  0  0  0  0
   -3.6130   -3.0040    1.5480 F   0  0  0  0  0  0  0  0  0  0  0  0
   -2.2030   -1.2520    0.7640 C   0  0  0  0  0  0  0  0  0  0  0  0
   -0.9270   -0.9280    0.1580 C   0  0  0  0  0  0  0  0  0  0  0  0
   -0.4840    0.4160    0.0400 N   0  0  0  0  0  0  0  0  0  0  0  0
   -0.8180    1.3790    1.0730 C   0  0  0  0  0  0  0  0  0  0  0  0
   -1.3780    2.6830    0.5420 C   0  0  0  0  0  0  0  0  0  0  0  0
   -2.4270    3.1850    1.4520 N   0  0  0  0  0  0  0  0  0  0  0  0
   -3.6920    3.6400    1.0210 C   0  0  0  0  0  0  0  0  0  0  0  0
   -4.4440    4.2030    1.8980 O   0  0  0  0  0  0  0  0  0  0  0  0
   -4.2180    3.5360   -0.2940 N   0  0  0  0  0  0  0  0  0  0  0  0
   -4.2220    2.3780   -1.1000 C   0  0  0  0  0  0  0  0  0  0  0  0
   -3.9960    2.5630   -2.3440 O   0  0  0  0  0  0  0  0  0  0  0  0
   -4.4680    0.9900   -0.5980 C   0  0  1  0  0  0  0  0  0  0  0  0
   -4.3330    0.0490   -1.7110 C   0  0  0  0  0  0  0  0  0  0  0  0
   -3.6510   -0.9810   -1.5940 O   0  0  0  0  0  0  0  0  0  0  0  0
   -4.9660    0.3050   -2.9050 O   0  0  0  0  0  0  0  0  0  0  0  0
   -3.8230    0.7040    0.5690 O   0  0  0  0  0  0  0  0  0  0  0  0
   -3.2920   -0.3710    1.1860 C   0  0  0  0  0  0  0  0  0  0  0  0
   -3.8140   -0.6880    2.3360 O   0  0  0  0  0  0  0  0  0  0  0  0
    0.3190    0.8920   -1.0430 C   0  0  0  0  0  0  0  0  0  0  0  0
   -0.0950    1.9900   -1.5730 O   0  0  0  0  0  0  0  0  0  0  0  0
    1.4650    0.2730   -1.5360 O   0  0  0  0  0  0  0  0  0  0  0  0
    2.7290    0.2230   -0.9410 C   0  0  2  0  0  0  0  0  0  0  0  0
    2.7040    0.2510    0.5730 C   0  0  0  0  0  0  0  0  0  0  0  0
    4.0560    0.1950    0.9760 O   0  0  0  0  0  0  0  0  0  0  0  0
    3.5760    1.4260   -1.3070 C   0  0  0  0  0  0  0  0  0  0  0  0
    3.0530    2.2700   -2.0620 O   0  0  0  0  0  0  0  0  0  0  0  0
    4.8470    1.5910   -0.8420 O   0  0  0  0  0  0  0  0  0  0  0  0
    5.8250    2.9870   -1.2680 P   0  0  0  0  0  0  0  0  0  0  0  0
    7.0760    3.2440   -0.0900 O   0  0  0  0  0  0  0  0  0  0  0  0
    4.7610    4.3750   -1.2710 O   0  0  0  0  0  0  0  0  0  0  0  0
    3.5260   -0.9400   -1.4220 C   0  0  0  0  0  0  0  0  0  0  0  0
  1  2  2  0
  2  3  1  0
  2 42  1  0
  3  4  1  0
  4  5  1  0
  5  6  1  0
  6  7  2  0
  6  8  1  0
  8  9  1  6
  8 10  1  0
 10 11  1  0
 10 12  2  0
 12 13  1  0
 12 28  1  0
 13 14  1  0
 14 15  1  0
 14 30  1  0
 15 16  1  0
 16 17  1  0
 17 18  1  0
 18 19  2  0
 18 20  1  0
 20 21  1  0
 21 22  2  0
 21 23  1  0
 23 24  1  6
 23 27  1  0
 24 25  2  0
 24 26  1  0
 27 28  1  0
 28 29  2  0
 30 31  2  0
 30 32  1  0
 32 33  1  0
 33 34  1  1
 33 36  1  0
 33 42  1  0
 34 35  1  0
 36 37  2  0
 36 38  1  0
 38 39  1  0
 39 40  1  0
 39 41  1  0
M  END
