
     RDKit          3D

 13 15  0  0  0  0  0  0  0  0999 V2000
   -1.9560    1.3740    0.8140 C   0  0  0  0  0  0  0  0  0  0  0  0
   -1.8660    0.0400    0.1210 C   0  0  0  0  0  0  0  0  0  0  0  0
   -2.9500   -0.7110   -0.2030 C   0  0  0  0  0  0  0  0  0  0  0  0
   -2.5140   -1.8310   -0.8050 N   0  0  0  0  0  0  0  0  0  0  0  0
   -1.1400   -1.7080   -0.8200 C   0  0  0  0  0  0  0  0  0  0  0  0
    0.3680   -2.5840   -1.3580 S   0  0  0  0  0  0  0  0  0  0  0  0
    1.4330   -1.3140   -0.7650 C   0  0  0  0  0  0  0  0  0  0  0  0
    2.7890   -1.2400   -0.8050 N   0  0  0  0  0  0  0  0  0  0  0  0
    3.4410   -0.1890   -0.3010 C   0  0  0  0  0  0  0  0  0  0  0  0
    2.6590    0.7950    0.2500 C   0  0  0  0  0  0  0  0  0  0  0  0
    1.2950    0.7160    0.2880 C   0  0  0  0  0  0  0  0  0  0  0  0
    0.5970   -0.3980   -0.2450 C   0  0  0  0  0  0  0  0  0  0  0  0
   -0.7220   -0.6100   -0.2790 N   0  0  0  0  0  0  0  0  0  0  0  0
  1  2  1  0
  2  3  2  0
  2 13  1  0
  3  4  1  0
  4  5  2  0
  5  6  1  0
  5 13  1  0
  6  7  1  0
  7  8  2  0
  7 12  1  0
  8  9  1  0
  9 10  2  0
 10 11  1  0
 11 12  2  0
 12 13  1  0
M  END
