
     RDKit          3D

 13 15  0  0  0  0  0  0  0  0999 V2000
   -2.3920   -1.1630    0.5910 C   0  0  0  0  0  0  0  0  0  0  0  0
   -1.9860    0.2580    0.1550 C   0  0  0  0  0  0  0  0  0  0  0  0
   -2.9930    1.1780    0.0150 C   0  0  0  0  0  0  0  0  0  0  0  0
   -2.1100    2.6500   -0.4870 S   0  0  0  0  0  0  0  0  0  0  0  0
   -0.4890    1.8640   -0.4540 C   0  0  0  0  0  0  0  0  0  0  0  0
    0.8210    2.1160   -0.6700 N   0  0  0  0  0  0  0  0  0  0  0  0
    1.4760    0.9520   -0.4250 C   0  0  0  0  0  0  0  0  0  0  0  0
    2.8060    0.5950   -0.4760 C   0  0  0  0  0  0  0  0  0  0  0  0
    3.2010   -0.6850   -0.1700 C   0  0  0  0  0  0  0  0  0  0  0  0
    2.2110   -1.5870    0.1890 C   0  0  0  0  0  0  0  0  0  0  0  0
    0.9330   -1.1930    0.2240 N   0  0  0  0  0  0  0  0  0  0  0  0
    0.5080    0.0470   -0.0680 C   0  0  0  0  0  0  0  0  0  0  0  0
   -0.7500    0.6480   -0.0910 N   0  0  0  0  0  0  0  0  0  0  0  0
  1  2  1  0
  2  3  2  0
  2 13  1  0
  3  4  1  0
  4  5  1  0
  5  6  2  0
  5 13  1  0
  6  7  1  0
  7  8  2  0
  7 12  1  0
  8  9  1  0
  9 10  2  0
 10 11  1  0
 11 12  2  0
 12 13  1  0
M  END
