
     RDKit          3D

 24 27  0  0  0  0  0  0  0  0999 V2000
    4.4740   -1.2450    1.6530 C   0  0  0  0  0  0  0  0  0  0  0  0
    4.0320   -0.3570    0.5540 C   0  0  0  0  0  0  0  0  0  0  0  0
    4.0640    0.9650    0.5360 C   0  0  0  0  0  0  0  0  0  0  0  0
    3.5290    1.4150   -0.7520 C   0  0  0  0  0  0  0  0  0  0  0  0
    3.3970    2.6180   -1.1450 N   0  0  0  0  0  0  0  0  0  0  0  0
    3.1880    0.1910   -1.4650 C   0  0  0  0  0  0  0  0  0  0  0  0
    3.4760   -0.8610   -0.7180 C   0  0  0  0  0  0  0  0  0  0  0  0
    3.2930   -2.1930   -1.0510 O   0  0  0  0  0  0  0  0  0  0  0  0
    2.5520   -2.5060   -2.2040 C   0  0  0  0  0  0  0  0  0  0  0  0
    1.1810   -1.9760   -2.0800 C   0  0  0  0  0  0  0  0  0  0  0  0
    0.2310   -1.9030   -3.0080 N   0  0  0  0  0  0  0  0  0  0  0  0
   -0.8660   -1.3700   -2.5110 N   0  0  0  0  0  0  0  0  0  0  0  0
   -0.5880   -1.0940   -1.2000 C   0  0  0  0  0  0  0  0  0  0  0  0
   -1.5260   -0.4890   -0.2560 C   0  0  0  0  0  0  0  0  0  0  0  0
   -2.8190   -0.1540   -0.6970 C   0  0  0  0  0  0  0  0  0  0  0  0
   -3.7640    0.4180    0.1220 C   0  0  0  0  0  0  0  0  0  0  0  0
   -3.4260    0.6750    1.4410 C   0  0  0  0  0  0  0  0  0  0  0  0
   -2.1960    0.3610    1.8750 N   0  0  0  0  0  0  0  0  0  0  0  0
   -1.2540   -0.2090    1.0560 C   0  0  0  0  0  0  0  0  0  0  0  0
   -0.1310   -0.4760    1.5210 O   0  0  0  0  0  0  0  0  0  0  0  0
   -4.5820    1.2870    2.1410 C   0  0  0  0  0  0  0  0  0  0  0  0
   -5.3380    1.9140    0.9790 C   0  0  0  0  0  0  0  0  0  0  0  0
   -5.1660    0.8560   -0.0930 C   0  0  0  0  0  0  0  0  0  0  0  0
    0.6580   -1.4640   -0.9400 N   0  0  0  0  0  0  0  0  0  0  0  0
  1  2  1  0
  2  3  2  0
  2  7  1  0
  3  4  1  0
  4  5  2  0
  4  6  1  0
  6  7  2  0
  7  8  1  0
  8  9  1  0
  9 10  1  0
 10 11  2  0
 10 24  1  0
 11 12  1  0
 12 13  2  0
 13 14  1  0
 13 24  1  0
 14 15  2  0
 14 19  1  0
 15 16  1  0
 16 17  2  0
 16 23  1  0
 17 18  1  0
 17 21  1  0
 18 19  1  0
 19 20  2  0
 21 22  1  0
 22 23  1  0
M  CHG  1   5   1
M  END
