
     RDKit          3D

 24 27  0  0  0  0  0  0  0  0999 V2000
   -5.3550   -1.3290    0.7310 C   0  0  0  0  0  0  0  0  0  0  0  0
   -4.8450   -0.3450    1.7490 C   0  0  2  0  0  0  0  0  0  0  0  0
   -5.2930    1.0650    1.4440 C   0  0  0  0  0  0  0  0  0  0  0  0
   -3.3560   -0.4370    1.9430 C   0  0  0  0  0  0  0  0  0  0  0  0
   -2.6150   -0.1660    0.6980 C   0  0  0  0  0  0  0  0  0  0  0  0
   -3.0970    0.1540   -0.5250 C   0  0  0  0  0  0  0  0  0  0  0  0
   -2.0310    0.3170   -1.3970 C   0  0  0  0  0  0  0  0  0  0  0  0
   -1.7180    0.6220   -2.6620 N   0  0  0  0  0  0  0  0  0  0  0  0
   -0.4180    0.5850   -2.7330 N   0  0  0  0  0  0  0  0  0  0  0  0
    0.1170    0.2530   -1.5090 C   0  0  0  0  0  0  0  0  0  0  0  0
    1.5540    0.1810   -1.3090 C   0  0  0  0  0  0  0  0  0  0  0  0
    2.3890    0.8310   -2.2310 C   0  0  0  0  0  0  0  0  0  0  0  0
    3.7300    0.7880   -2.1570 N   0  0  0  0  0  0  0  0  0  0  0  0
    4.3730    0.1120   -1.1860 C   0  0  0  0  0  0  0  0  0  0  0  0
    5.7470    0.0560   -1.0930 C   0  0  0  0  0  0  0  0  0  0  0  0
    6.3650   -0.6570   -0.0700 C   0  0  0  0  0  0  0  0  0  0  0  0
    7.7540   -0.7210    0.0350 O   0  0  0  0  0  0  0  0  0  0  0  0
    5.6110   -1.3210    0.8730 C   0  0  0  0  0  0  0  0  0  0  0  0
    4.2430   -1.2520    0.7620 C   0  0  0  0  0  0  0  0  0  0  0  0
    3.6200   -0.5510   -0.2450 C   0  0  0  0  0  0  0  0  0  0  0  0
    2.2160   -0.5020   -0.3290 C   0  0  0  0  0  0  0  0  0  0  0  0
    1.5870   -1.1210    0.5410 O   0  0  0  0  0  0  0  0  0  0  0  0
   -0.9220    0.0840   -0.6590 N   0  0  0  0  0  0  0  0  0  0  0  0
   -1.2550   -0.1970    0.5670 N   0  0  0  0  0  0  0  0  0  0  0  0
  2  1  1  6
  2  3  1  0
  2  4  1  0
  4  5  1  0
  5  6  2  0
  5 24  1  0
  6  7  1  0
  7  8  2  0
  7 23  1  0
  8  9  1  0
  9 10  2  0
 10 11  1  0
 10 23  1  0
 11 12  2  0
 11 21  1  0
 12 13  1  0
 13 14  1  0
 14 15  2  0
 14 20  1  0
 15 16  1  0
 16 17  1  0
 16 18  2  0
 18 19  1  0
 19 20  2  0
 20 21  1  0
 21 22  2  0
 23 24  1  0
M  END
