
     RDKit          3D

 13 15  0  0  0  0  0  0  0  0999 V2000
   -3.9120   -0.2360   -0.2490 C   0  0  0  0  0  0  0  0  0  0  0  0
   -3.7510    0.1190    1.0870 C   0  0  0  0  0  0  0  0  0  0  0  0
   -2.3970    0.2780    1.2930 C   0  0  0  0  0  0  0  0  0  0  0  0
   -1.7310    0.0390    0.1500 N   0  0  0  0  0  0  0  0  0  0  0  0
   -0.3180    0.0850   -0.1030 C   0  0  0  0  0  0  0  0  0  0  0  0
    0.5570    0.3610   -0.7860 N   0  0  0  0  0  0  0  0  0  0  0  0
    1.8340    0.2310   -0.6470 N   0  0  0  0  0  0  0  0  0  0  0  0
    2.9750    0.5020   -1.3480 C   0  0  0  0  0  0  0  0  0  0  0  0
    4.0920    0.1110   -0.6340 C   0  0  0  0  0  0  0  0  0  0  0  0
    3.6270   -0.4270    0.5630 C   0  0  0  0  0  0  0  0  0  0  0  0
    2.2640   -0.3180    0.4790 C   0  0  0  0  0  0  0  0  0  0  0  0
    0.6920   -0.6490    1.3550 S   0  0  0  0  0  0  0  0  0  0  0  0
   -2.6230   -0.2690   -0.7760 C   0  0  0  0  0  0  0  0  0  0  0  0
  1  2  1  0
  1 13  2  0
  2  3  2  0
  3  4  1  0
  4  5  1  0
  4 13  1  0
  5  6  2  0
  5 12  1  0
  6  7  1  0
  7  8  1  0
  7 11  1  0
  8  9  2  0
  9 10  1  0
 10 11  2  0
 11 12  1  0
M  END
