
     RDKit          3D

 13 15  0  0  0  0  0  0  0  0999 V2000
   -3.0090    0.3740    0.2160 C   0  0  0  0  0  0  0  0  0  0  0  0
   -2.0940   -0.7400   -0.0580 C   0  0  0  0  0  0  0  0  0  0  0  0
   -0.7820   -0.6350   -0.0970 C   0  0  0  0  0  0  0  0  0  0  0  0
    0.0470   -1.7080   -0.3580 C   0  0  0  0  0  0  0  0  0  0  0  0
    1.4140   -1.5210   -0.3820 C   0  0  0  0  0  0  0  0  0  0  0  0
    1.9900   -0.2620   -0.1470 C   0  0  0  0  0  0  0  0  0  0  0  0
    3.2830    0.0450   -0.1430 C   0  0  0  0  0  0  0  0  0  0  0  0
    3.3020    1.8810    0.2380 S   0  0  0  0  0  0  0  0  0  0  0  0
    1.4790    1.8690    0.3190 C   0  0  0  0  0  0  0  0  0  0  0  0
    0.3840    2.6990    0.5420 N   0  0  0  0  0  0  0  0  0  0  0  0
   -0.6450    1.8360    0.4100 N   0  0  0  0  0  0  0  0  0  0  0  0
   -0.1740    0.5910    0.1300 C   0  0  0  0  0  0  0  0  0  0  0  0
    1.1770    0.7580    0.1020 N   0  0  0  0  0  0  0  0  0  0  0  0
  1  2  1  0
  2  3  2  3
  3  4  1  0
  3 12  1  0
  4  5  2  0
  5  6  1  0
  6  7  2  0
  6 13  1  0
  7  8  1  0
  8  9  1  0
  9 10  2  0
  9 13  1  0
 10 11  1  0
 11 12  2  0
 12 13  1  0
M  END
