
     RDKit          3D

 13 15  0  0  0  0  0  0  0  0999 V2000
   -3.4480   -0.3740    1.2890 C   0  0  0  0  0  0  0  0  0  0  0  0
   -2.2580   -0.2260    0.3980 C   0  0  0  0  0  0  0  0  0  0  0  0
   -2.3930   -0.1690   -0.9720 C   0  0  0  0  0  0  0  0  0  0  0  0
   -1.3120   -0.0340   -1.7980 C   0  0  0  0  0  0  0  0  0  0  0  0
   -0.0580    0.0460   -1.1930 C   0  0  0  0  0  0  0  0  0  0  0  0
    1.1850    0.1800   -1.6820 N   0  0  0  0  0  0  0  0  0  0  0  0
    2.1020    0.2090   -0.6610 C   0  0  0  0  0  0  0  0  0  0  0  0
    1.4170    0.0930    0.4720 C   0  0  0  0  0  0  0  0  0  0  0  0
    0.0850   -0.0070    0.1420 N   0  0  0  0  0  0  0  0  0  0  0  0
   -1.0090   -0.1400    0.8790 N   0  0  0  0  0  0  0  0  0  0  0  0
    2.1810    0.0960    1.7370 C   0  0  0  0  0  0  0  0  0  0  0  0
    3.8570   -0.3040    1.1020 S   0  0  0  0  0  0  0  0  0  0  0  0
    3.5630    0.3340   -0.5920 C   0  0  0  0  0  0  0  0  0  0  0  0
  1  2  1  0
  2  3  1  0
  2 10  2  0
  3  4  2  0
  4  5  1  0
  5  6  2  0
  5  9  1  0
  6  7  1  0
  7  8  2  0
  7 13  1  0
  8  9  1  0
  8 11  1  0
  9 10  1  0
 11 12  1  0
 12 13  1  0
M  END
