
     RDKit          3D

 24 26  0  0  0  0  0  0  0  0999 V2000
   -0.2120    4.0530    1.7220 C   0  0  0  0  0  0  0  0  0  0  0  0
   -0.0400    3.2160    0.4960 C   0  0  0  0  0  0  0  0  0  0  0  0
   -0.8020    1.8870    0.7000 C   0  0  0  0  0  0  0  0  0  0  0  0
   -0.6580    1.1110   -0.5590 C   0  0  2  0  0  0  0  0  0  0  0  0
   -1.1930   -0.1480   -0.7470 N   0  0  0  0  0  0  0  0  0  0  0  0
   -2.5620   -0.4510   -0.7760 C   0  0  2  0  0  0  0  0  0  0  0  0
   -3.3600    0.0500   -1.9330 C   0  0  0  0  0  0  0  0  0  0  0  0
   -3.2620   -0.0410    0.5180 C   0  0  0  0  0  0  0  0  0  0  0  0
   -4.1790    0.7950    0.6190 O   0  0  0  0  0  0  0  0  0  0  0  0
   -2.6170   -0.8240    1.4620 O   0  0  0  0  0  0  0  0  0  0  0  0
   -2.5210   -2.1640    0.9520 C   0  0  0  0  0  0  0  0  0  0  0  0
   -2.6630   -1.9700   -0.5690 C   0  0  1  0  0  0  0  0  0  0  0  0
   -3.8990   -2.5270   -1.0030 N   0  0  0  0  0  0  0  0  0  0  0  0
    0.8050    1.0720   -0.9180 C   0  0  0  0  0  0  0  0  0  0  0  0
    1.3110    1.6760   -1.8710 O   0  0  0  0  0  0  0  0  0  0  0  0
    1.6460    0.2720   -0.1070 N   0  0  0  0  0  0  0  0  0  0  0  0
    3.0500    0.2400   -0.2490 C   0  0  0  0  0  0  0  0  0  0  0  0
    3.8200    1.1170   -0.9140 N   0  0  0  0  0  0  0  0  0  0  0  0
    5.0820    0.6720   -0.8340 N   0  0  0  0  0  0  0  0  0  0  0  0
    5.1480   -0.4810   -0.1340 C   0  0  0  0  0  0  0  0  0  0  0  0
    3.8760   -0.7350    0.2150 N   0  0  0  0  0  0  0  0  0  0  0  0
    3.8120   -1.9700    0.9250 C   0  0  0  0  0  0  0  0  0  0  0  0
    5.0210   -2.4850    1.0310 C   0  0  0  0  0  0  0  0  0  0  0  0
    5.9950   -1.5660    0.3780 C   0  0  0  0  0  0  0  0  0  0  0  0
  1  2  1  0
  2  3  1  0
  4  3  1  1
  4  5  1  0
  4 14  1  0
  5  6  1  0
  6  7  1  6
  6  8  1  0
  6 12  1  0
  8  9  2  0
  8 10  1  0
 10 11  1  0
 11 12  1  0
 12 13  1  1
 14 15  2  0
 14 16  1  0
 16 17  1  0
 17 18  2  0
 17 21  1  0
 18 19  1  0
 19 20  2  0
 20 21  1  0
 20 24  1  0
 21 22  1  0
 22 23  2  0
 23 24  1  0
M  CHG  1  13   1
M  END
