
     RDKit          3D

 25 27  0  0  0  0  0  0  0  0999 V2000
    3.7550   -3.1370    2.3150 C   0  0  0  0  0  0  0  0  0  0  0  0
    3.2850   -1.9490    1.7270 O   0  0  0  0  0  0  0  0  0  0  0  0
    2.0650   -1.9440    1.0680 C   0  0  0  0  0  0  0  0  0  0  0  0
    1.3080   -3.0990    0.9850 C   0  0  0  0  0  0  0  0  0  0  0  0
    0.1090   -3.0640    0.3290 C   0  0  0  0  0  0  0  0  0  0  0  0
   -0.3440   -1.9520   -0.2280 N   0  0  0  0  0  0  0  0  0  0  0  0
    0.3360   -0.8020   -0.1850 C   0  0  0  0  0  0  0  0  0  0  0  0
   -0.1550    0.3840   -0.8140 N   0  0  0  0  0  0  0  0  0  0  0  0
   -1.4040    0.4930   -1.4880 C   0  0  2  0  0  0  0  0  0  0  0  0
   -1.3440    1.7670   -2.2670 N   0  0  0  0  0  0  0  0  0  0  0  0
   -2.5980    0.7020   -0.5860 C   0  0  2  0  0  0  0  0  0  0  0  0
   -2.7300   -0.2640    0.5490 C   0  0  0  0  0  0  0  0  0  0  0  0
   -3.9940    0.2010    1.3120 C   0  0  0  0  0  0  0  0  0  0  0  0
   -5.1620   -0.1510    0.4510 C   0  0  0  0  0  0  0  0  0  0  0  0
   -4.6880   -0.2070   -0.9880 C   0  0  0  0  0  0  0  0  0  0  0  0
   -3.7790    0.7980   -1.2790 O   0  0  0  0  0  0  0  0  0  0  0  0
    1.5500   -0.8190    0.4740 C   0  0  0  0  0  0  0  0  0  0  0  0
    2.2890    0.3580    0.5410 O   0  0  0  0  0  0  0  0  0  0  0  0
    3.2230    0.7350   -0.3980 C   0  0  0  0  0  0  0  0  0  0  0  0
    3.4250   -0.0270   -1.3770 O   0  0  0  0  0  0  0  0  0  0  0  0
    3.9850    1.9810   -0.3000 C   0  0  0  0  0  0  0  0  0  0  0  0
    4.9140    2.4580   -1.1400 N   0  0  0  0  0  0  0  0  0  0  0  0
    5.3820    3.6430   -0.6930 C   0  0  0  0  0  0  0  0  0  0  0  0
    4.7180    3.8970    0.4550 N   0  0  0  0  0  0  0  0  0  0  0  0
    3.8750    2.8870    0.6860 N   0  0  0  0  0  0  0  0  0  0  0  0
  1  2  1  0
  2  3  1  0
  3  4  2  0
  3 17  1  0
  4  5  1  0
  5  6  2  0
  6  7  1  0
  7  8  1  0
  7 17  2  0
  8  9  1  0
  9 10  1  6
  9 11  1  0
 11 12  1  1
 11 16  1  0
 12 13  1  0
 13 14  1  0
 14 15  1  0
 15 16  1  0
 17 18  1  0
 18 19  1  0
 19 20  2  0
 19 21  1  0
 21 22  1  0
 21 25  2  0
 22 23  2  0
 23 24  1  0
 24 25  1  0
M  CHG  1  10   1
M  END
