
     RDKit          3D

 15 16  0  0  0  0  0  0  0  0999 V2000
   -1.0750   -0.3650    0.0450 C   0  0  0  0  0  0  0  0  0  0  0  0
   -1.9410   -0.0490   -0.8800 C   0  0  0  0  0  0  0  0  0  0  0  0
   -3.3820   -0.2370   -0.7110 C   0  0  0  0  0  0  0  0  0  0  0  0
   -4.0010   -0.7550    0.4120 C   0  0  0  0  0  0  0  0  0  0  0  0
   -5.3710   -0.7840    0.2150 C   0  0  0  0  0  0  0  0  0  0  0  0
   -5.5660   -0.2720   -1.0530 C   0  0  0  0  0  0  0  0  0  0  0  0
   -4.3690    0.0450   -1.5790 N   0  0  0  0  0  0  0  0  0  0  0  0
    0.3400   -0.1630   -0.1630 C   0  0  0  0  0  0  0  0  0  0  0  0
    1.1630   -0.4870    0.7730 N   0  0  0  0  0  0  0  0  0  0  0  0
    2.5680   -0.3120    0.6270 C   0  0  0  0  0  0  0  0  0  0  0  0
    3.3860   -0.0860    1.7290 C   0  0  0  0  0  0  0  0  0  0  0  0
    4.7440    0.0830    1.5810 C   0  0  0  0  0  0  0  0  0  0  0  0
    5.3330    0.0320    0.3310 C   0  0  0  0  0  0  0  0  0  0  0  0
    4.5320   -0.1910   -0.7620 C   0  0  0  0  0  0  0  0  0  0  0  0
    3.1760   -0.3580   -0.6100 C   0  0  0  0  0  0  0  0  0  0  0  0
  1  2  2  3
  1  8  1  0
  2  3  1  0
  3  4  2  0
  3  7  1  0
  4  5  1  0
  5  6  2  0
  6  7  1  0
  8  9  2  3
  9 10  1  0
 10 11  2  0
 10 15  1  0
 11 12  1  0
 12 13  2  0
 13 14  1  0
 14 15  2  0
M  CHG  1   9   1
M  END
