
     RDKit          3D

 25 27  0  0  0  0  0  0  0  0999 V2000
    4.3570   -2.7970    1.3850 C   0  0  0  0  0  0  0  0  0  0  0  0
    3.3810   -1.7420    1.0020 C   0  0  0  0  0  0  0  0  0  0  0  0
    2.7840   -1.5150   -0.2170 C   0  0  0  0  0  0  0  0  0  0  0  0
    1.9700   -0.4380   -0.0690 C   0  0  0  0  0  0  0  0  0  0  0  0
    1.0690    0.2580   -1.0660 C   0  0  1  0  0  0  0  0  0  0  0  0
   -0.1390    0.5540   -0.4170 N   0  0  0  0  0  0  0  0  0  0  0  0
   -1.1260   -0.4010   -0.2760 C   0  0  0  0  0  0  0  0  0  0  0  0
   -2.2760    0.0040    0.4260 C   0  0  0  0  0  0  0  0  0  0  0  0
   -2.4390    1.3620    0.9690 C   0  0  2  0  0  0  0  0  0  0  0  0
   -3.5880    1.7510    1.7780 C   0  0  0  0  0  0  0  0  0  0  0  0
   -3.5340    2.2120    0.3500 C   0  0  0  0  0  0  0  0  0  0  0  0
   -3.2860   -0.8670    0.6110 N   0  0  0  0  0  0  0  0  0  0  0  0
   -3.2470   -2.1360    0.1450 C   0  0  0  0  0  0  0  0  0  0  0  0
   -4.2250   -2.9150    0.3470 O   0  0  0  0  0  0  0  0  0  0  0  0
   -2.1520   -2.5340   -0.5290 N   0  0  0  0  0  0  0  0  0  0  0  0
   -2.0800   -3.8970   -1.0440 C   0  0  0  0  0  0  0  0  0  0  0  0
   -1.1240   -1.6790   -0.7280 C   0  0  0  0  0  0  0  0  0  0  0  0
   -0.1420   -2.1230   -1.3640 O   0  0  0  0  0  0  0  0  0  0  0  0
    1.8460    1.5100   -1.3880 C   0  0  0  0  0  0  0  0  0  0  0  0
    2.9220    1.3580   -2.0240 O   0  0  0  0  0  0  0  0  0  0  0  0
    1.4480    2.8040   -1.0270 N   0  0  0  0  0  0  0  0  0  0  0  0
    2.3110    3.9260   -1.4140 C   0  0  0  0  0  0  0  0  0  0  0  0
    1.7990    5.1300   -1.0010 O   0  0  0  0  0  0  0  0  0  0  0  0
    2.0940   -0.0470    1.2200 N   0  0  0  0  0  0  0  0  0  0  0  0
    2.9300   -0.8170    1.8620 N   0  0  0  0  0  0  0  0  0  0  0  0
  1  2  1  0
  2  3  2  0
  2 25  1  0
  3  4  1  0
  4  5  1  0
  4 24  2  0
  5  6  1  1
  5 19  1  0
  6  7  1  0
  7  8  2  0
  7 17  1  0
  9  8  1  6
  8 12  1  0
  9 10  1  0
  9 11  1  0
 10 11  1  0
 12 13  1  0
 13 14  2  0
 13 15  1  0
 15 16  1  0
 15 17  1  0
 17 18  2  0
 19 20  2  0
 19 21  1  0
 21 22  1  0
 22 23  1  0
 24 25  1  0
M  CHG  1   6   1
M  END
