
     RDKit          3D

 15 16  0  0  0  0  0  0  0  0999 V2000
   -3.9660   -1.8610   -0.3100 C   0  0  0  0  0  0  0  0  0  0  0  0
   -3.4580   -0.7170    0.0700 C   0  0  0  0  0  0  0  0  0  0  0  0
   -4.2440    0.5190    0.0930 C   0  0  0  0  0  0  0  0  0  0  0  0
   -3.4660    1.7190   -0.2440 C   0  0  0  0  0  0  0  0  0  0  0  0
   -1.9920    1.6220   -0.3620 C   0  0  0  0  0  0  0  0  0  0  0  0
   -1.3960    0.3770   -0.2330 N   0  0  0  0  0  0  0  0  0  0  0  0
   -0.0490    0.2620   -0.5700 C   0  0  1  0  0  0  0  0  0  0  0  0
    0.8350    1.0720    0.3160 C   0  0  0  0  0  0  0  0  0  0  0  0
    1.7450    0.1700    1.1470 C   0  0  0  0  0  0  0  0  0  0  0  0
    2.6820   -0.5550    0.2110 C   0  0  2  0  0  0  0  0  0  0  0  0
    3.8320    0.2850   -0.0110 N   0  0  0  0  0  0  0  0  0  0  0  0
    5.0260   -0.5720    0.0320 C   0  0  0  0  0  0  0  0  0  0  0  0
    1.9740   -0.9690   -1.0500 C   0  0  0  0  0  0  0  0  0  0  0  0
    0.4870   -1.1410   -0.7040 C   0  0  0  0  0  0  0  0  0  0  0  0
   -2.0440   -0.6350    0.4990 C   0  0  0  0  0  0  0  0  0  0  0  0
  1  2  2  0
  2  3  1  0
  2 15  1  0
  3  4  1  0
  4  5  1  0
  5  6  1  0
  7  6  1  1
  6 15  1  0
  7  8  1  0
  7 14  1  0
  8  9  1  0
  9 10  1  0
 10 11  1  6
 10 13  1  0
 11 12  1  0
 13 14  1  0
M  CHG  1  11   1
M  END
