
     RDKit          3D

 32 33  0  0  0  0  0  0  0  0999 V2000
   -0.0530   -3.4260    2.3770 C   0  0  0  0  0  0  0  0  0  0  0  0
   -0.3900   -2.2920    1.4170 C   0  0  1  0  0  0  0  0  0  0  0  0
   -1.0680   -1.2890    2.0450 O   0  0  0  0  0  0  0  0  0  0  0  0
   -2.3000   -0.9650    1.4640 C   0  0  0  0  0  0  0  0  0  0  0  0
   -2.1320   -0.4410    0.0460 C   0  0  2  0  0  0  0  0  0  0  0  0
   -1.3010    0.7420    0.1800 N   0  0  0  0  0  0  0  0  0  0  0  0
   -1.6450    1.9370    0.8320 C   0  0  0  0  0  0  0  0  0  0  0  0
   -2.7760    2.3650    1.4760 C   0  0  0  0  0  0  0  0  0  0  0  0
   -2.5500    3.6650    1.9420 C   0  0  0  0  0  0  0  0  0  0  0  0
   -1.2840    3.9600    1.5530 C   0  0  0  0  0  0  0  0  0  0  0  0
   -0.7920    2.9570    0.9220 O   0  0  0  0  0  0  0  0  0  0  0  0
   -3.3860   -0.1670   -0.6300 C   0  0  0  0  0  0  0  0  0  0  0  0
   -3.6710    1.0280   -0.9430 O   0  0  0  0  0  0  0  0  0  0  0  0
   -4.3220   -1.1540   -0.9690 N   0  0  0  0  0  0  0  0  0  0  0  0
   -4.0640   -2.5490   -0.6930 C   0  0  0  0  0  0  0  0  0  0  0  0
   -5.5960   -0.8270   -1.6110 C   0  0  0  0  0  0  0  0  0  0  0  0
   -6.9310   -0.5080   -0.3830 P   0  0  0  0  0  0  0  0  0  0  0  0
   -7.8870    0.8780   -0.8740 O   0  0  0  0  0  0  0  0  0  0  0  0
   -8.0330   -1.8740   -0.3910 O   0  0  0  0  0  0  0  0  0  0  0  0
    0.8780   -1.7070    0.8760 C   0  0  0  0  0  0  0  0  0  0  0  0
    1.6510   -0.8750    1.6480 C   0  0  0  0  0  0  0  0  0  0  0  0
    2.8410   -0.3160    1.1600 C   0  0  0  0  0  0  0  0  0  0  0  0
    3.2520   -0.5980   -0.1130 C   0  0  0  0  0  0  0  0  0  0  0  0
    4.4790   -0.0500   -0.6780 C   0  0  0  0  0  0  0  0  0  0  0  0
    4.7240   -0.2660   -1.9080 O   0  0  0  0  0  0  0  0  0  0  0  0
    5.3960    0.7020    0.0780 N   0  0  0  0  0  0  0  0  0  0  0  0
    6.5870    1.2240   -0.5320 C   0  0  0  0  0  0  0  0  0  0  0  0
    6.2560    2.1850   -1.6430 C   0  0  0  0  0  0  0  0  0  0  0  0
    7.5280    2.7300   -2.2700 C   0  0  0  0  0  0  0  0  0  0  0  0
    7.2220    3.6110   -3.2860 O   0  0  0  0  0  0  0  0  0  0  0  0
    2.4510   -1.4420   -0.8710 C   0  0  0  0  0  0  0  0  0  0  0  0
    1.2980   -1.9810   -0.3910 C   0  0  0  0  0  0  0  0  0  0  0  0
  2  1  1  1
  2  3  1  0
  2 20  1  0
  3  4  1  0
  5  4  1  1
  5  6  1  0
  5 12  1  0
  6  7  1  0
  7  8  2  0
  7 11  1  0
  8  9  1  0
  9 10  2  0
 10 11  1  0
 12 13  2  0
 12 14  1  0
 14 15  1  0
 14 16  1  0
 16 17  1  0
 17 18  1  0
 17 19  1  0
 20 21  2  0
 20 32  1  0
 21 22  1  0
 22 23  2  0
 23 24  1  0
 23 31  1  0
 24 25  2  0
 24 26  1  0
 26 27  1  0
 27 28  1  0
 28 29  1  0
 29 30  1  0
 31 32  2  0
M  END
