
     RDKit          3D

 32 32  0  0  0  0  0  0  0  0999 V2000
   -8.1520    3.0510    1.0340 C   0  0  0  0  0  0  0  0  0  0  0  0
   -7.6520    1.9370    0.1340 C   0  0  0  0  0  0  0  0  0  0  0  0
   -6.7980    1.1300    0.8920 O   0  0  0  0  0  0  0  0  0  0  0  0
   -6.2410   -0.1330   -0.1570 P   0  0  0  0  0  0  0  0  0  0  0  0
   -5.3530   -1.4410    0.7660 C   0  0  0  0  0  0  0  0  0  0  0  0
   -3.9280   -1.0460    1.0750 C   0  0  0  0  0  0  0  0  0  0  0  0
   -3.2070   -0.8060   -0.1130 N   0  0  0  0  0  0  0  0  0  0  0  0
   -2.9300   -1.8820   -0.9760 C   0  0  0  0  0  0  0  0  0  0  0  0
   -2.9720    0.4960   -0.5470 C   0  0  0  0  0  0  0  0  0  0  0  0
   -2.0350    1.3830    0.1790 C   0  0  0  0  0  0  0  0  0  0  0  0
   -0.6500    1.0070    0.2170 N   0  0  0  0  0  0  0  0  0  0  0  0
   -0.0810   -0.1390    0.7660 C   0  0  0  0  0  0  0  0  0  0  0  0
   -0.8510   -0.9900    1.3210 O   0  0  0  0  0  0  0  0  0  0  0  0
    1.3370   -0.4800    0.7770 C   0  0  0  0  0  0  0  0  0  0  0  0
    2.1520    0.5140    0.1520 N   0  0  0  0  0  0  0  0  0  0  0  0
    3.5910    0.2580    0.1110 C   0  0  0  0  0  0  0  0  0  0  0  0
    4.0720   -0.7940    0.6040 O   0  0  0  0  0  0  0  0  0  0  0  0
    4.4680    1.1580   -0.4690 O   0  0  0  0  0  0  0  0  0  0  0  0
    5.8280    0.8870   -0.4940 C   0  0  0  0  0  0  0  0  0  0  0  0
    6.4510    0.2740   -1.5590 C   0  0  0  0  0  0  0  0  0  0  0  0
    7.8010   -0.0020   -1.5970 C   0  0  0  0  0  0  0  0  0  0  0  0
    8.5900    0.3460   -0.5230 C   0  0  0  0  0  0  0  0  0  0  0  0
   10.0270    0.0550   -0.5600 C   0  0  1  0  0  0  0  0  0  0  0  0
   10.8040    1.3330   -0.3200 C   0  0  0  0  0  0  0  0  0  0  0  0
   10.2960   -0.9480    0.5040 C   0  0  0  0  0  0  0  0  0  0  0  0
   10.7800   -2.0690    0.2220 O   0  0  0  0  0  0  0  0  0  0  0  0
   10.0190   -0.6640    1.8270 O   0  0  0  0  0  0  0  0  0  0  0  0
    7.9810    0.9700    0.5730 C   0  0  0  0  0  0  0  0  0  0  0  0
    6.6270    1.2300    0.5770 C   0  0  0  0  0  0  0  0  0  0  0  0
   -7.5230   -0.7550   -1.1400 O   0  0  0  0  0  0  0  0  0  0  0  0
   -7.9810   -1.9840   -0.6750 C   0  0  0  0  0  0  0  0  0  0  0  0
   -9.0990   -2.5040   -1.5470 C   0  0  0  0  0  0  0  0  0  0  0  0
  1  2  1  0
  2  3  1  0
  3  4  1  0
  4  5  1  0
  4 30  1  0
  5  6  1  0
  6  7  1  0
  7  8  1  0
  7  9  1  0
  9 10  1  0
 10 11  1  0
 11 12  1  0
 12 13  2  0
 12 14  1  0
 14 15  1  0
 15 16  1  0
 16 17  2  0
 16 18  1  0
 18 19  1  0
 19 20  2  0
 19 29  1  0
 20 21  1  0
 21 22  2  0
 22 23  1  0
 22 28  1  0
 23 24  1  1
 23 25  1  0
 25 26  2  0
 25 27  1  0
 28 29  2  0
 30 31  1  0
 31 32  1  0
M  END
