
     RDKit          3D

 32 32  0  0  0  0  0  0  0  0999 V2000
    0.5540    6.1310    0.6950 C   0  0  0  0  0  0  0  0  0  0  0  0
    0.2170    4.7410    1.1710 C   0  0  0  0  0  0  0  0  0  0  0  0
    0.5360    3.7000    0.1440 N   0  0  0  0  0  0  0  0  0  0  0  0
    0.2850    2.3140    0.4680 C   0  0  0  0  0  0  0  0  0  0  0  0
   -0.0830    2.2450    1.7070 O   0  0  0  0  0  0  0  0  0  0  0  0
    0.4470    1.2600   -0.4330 C   0  0  1  0  0  0  0  0  0  0  0  0
   -0.8420    1.0360   -1.1960 C   0  0  0  0  0  0  0  0  0  0  0  0
   -1.9630    0.8760   -0.1470 C   0  0  0  0  0  0  0  0  0  0  0  0
   -1.6940    0.9220    1.1010 O   0  0  0  0  0  0  0  0  0  0  0  0
   -3.2640    0.7110   -0.5010 N   0  0  0  0  0  0  0  0  0  0  0  0
   -4.2250    1.4420    0.3800 C   0  0  0  0  0  0  0  0  0  0  0  0
   -3.8910   -0.3800   -1.2360 C   0  0  0  0  0  0  0  0  0  0  0  0
   -4.9000   -1.5080   -0.2760 P   0  0  0  0  0  0  0  0  0  0  0  0
   -6.5700   -1.2460   -0.1120 O   0  0  0  0  0  0  0  0  0  0  0  0
   -7.0610    0.0130   -0.3110 C   0  0  0  0  0  0  0  0  0  0  0  0
   -7.9450    0.0940    1.0240 C   0  0  0  0  0  0  0  0  0  0  0  0
   -4.6610   -3.1950   -0.3000 O   0  0  0  0  0  0  0  0  0  0  0  0
   -5.9490   -3.7540    0.0730 C   0  0  0  0  0  0  0  0  0  0  0  0
   -6.0030   -5.2170   -0.0480 C   0  0  0  0  0  0  0  0  0  0  0  0
    1.3790    1.8930   -1.4500 O   0  0  0  0  0  0  0  0  0  0  0  0
    2.5460    2.0920   -0.6610 C   0  0  0  0  0  0  0  0  0  0  0  0
    3.3560    0.8410   -0.2490 C   0  0  0  0  0  0  0  0  0  0  0  0
    4.5650    0.6160   -0.5350 C   0  0  0  0  0  0  0  0  0  0  0  0
    5.5850   -0.3840   -0.3200 C   0  0  0  0  0  0  0  0  0  0  0  0
    5.4640   -1.1270    0.9650 C   0  0  0  0  0  0  0  0  0  0  0  0
    6.7770   -1.9770    1.0530 C   0  0  0  0  0  0  0  0  0  0  0  0
    6.8260   -2.9400   -0.0560 C   0  0  0  0  0  0  0  0  0  0  0  0
    8.3310   -3.0510   -0.4750 C   0  0  0  0  0  0  0  0  0  0  0  0
    9.0850   -3.3700    0.6200 O   0  0  0  0  0  0  0  0  0  0  0  0
    2.4250   -0.1110    0.4070 N   0  0  0  0  0  0  0  0  0  0  0  0
    1.2380    0.0740   -0.2440 C   0  0  0  0  0  0  0  0  0  0  0  0
    0.6610   -1.0270   -0.9090 O   0  0  0  0  0  0  0  0  0  0  0  0
  1  2  1  0
  2  3  1  0
  3  4  1  0
  4  5  2  0
  4  6  1  0
  6  7  1  6
  6 20  1  0
  6 31  1  0
  7  8  1  0
  8  9  2  0
  8 10  1  0
 10 11  1  0
 10 12  1  0
 12 13  1  0
 13 14  1  0
 13 17  1  0
 14 15  1  0
 15 16  1  0
 17 18  1  0
 18 19  1  0
 20 21  1  0
 21 22  1  0
 22 23  2  3
 22 30  1  0
 23 24  1  0
 24 25  1  0
 25 26  1  0
 26 27  1  0
 27 28  1  0
 28 29  1  0
 30 31  1  0
 31 32  2  0
M  END
