
     RDKit          3D

 32 33  0  0  0  0  0  0  0  0999 V2000
    7.6820    0.3330   -1.6360 C   0  0  0  0  0  0  0  0  0  0  0  0
    6.9950    1.4920   -1.7440 O   0  0  0  0  0  0  0  0  0  0  0  0
    6.0380    1.8100   -0.8510 C   0  0  0  0  0  0  0  0  0  0  0  0
    4.7770    1.0370   -0.8590 C   0  0  0  0  0  0  0  0  0  0  0  0
    4.5140    0.0570   -1.7810 C   0  0  0  0  0  0  0  0  0  0  0  0
    3.3230   -0.6720   -1.8260 C   0  0  0  0  0  0  0  0  0  0  0  0
    2.3370   -0.4110   -0.9090 C   0  0  0  0  0  0  0  0  0  0  0  0
    1.1110   -1.1660   -0.8920 N   0  0  0  0  0  0  0  0  0  0  0  0
   -0.1320   -0.6440   -0.4260 C   0  0  0  0  0  0  0  0  0  0  0  0
   -1.1860   -1.6950   -0.2460 C   0  0  0  0  0  0  0  0  0  0  0  0
   -1.5190   -2.4160   -1.3750 O   0  0  0  0  0  0  0  0  0  0  0  0
   -2.5210   -3.3430   -1.1360 C   0  0  2  0  0  0  0  0  0  0  0  0
   -1.9490   -4.7740   -1.1850 C   0  0  0  0  0  0  0  0  0  0  0  0
   -3.6960   -3.2940   -2.0310 C   0  0  0  0  0  0  0  0  0  0  0  0
   -4.3930   -2.0300   -2.0450 N   0  0  0  0  0  0  0  0  0  0  0  0
   -4.9550   -1.4510   -0.8600 C   0  0  0  0  0  0  0  0  0  0  0  0
   -4.8340   -2.0330    0.2430 O   0  0  0  0  0  0  0  0  0  0  0  0
   -5.6570   -0.2190   -0.8920 N   0  0  0  0  0  0  0  0  0  0  0  0
   -6.2300    0.4290    0.2090 C   0  0  0  0  0  0  0  0  0  0  0  0
   -7.5280    0.6240    0.2640 C   0  0  0  0  0  0  0  0  0  0  0  0
   -8.1660    1.3050    1.4170 C   0  0  1  0  0  0  0  0  0  0  0  0
   -9.1430    0.4630    1.9780 O   0  0  0  0  0  0  0  0  0  0  0  0
   -7.2850    1.7830    2.3770 O   0  0  0  0  0  0  0  0  0  0  0  0
   -5.9330    1.5760    2.3250 C   0  0  0  0  0  0  0  0  0  0  0  0
   -5.4100    0.9330    1.2970 C   0  0  0  0  0  0  0  0  0  0  0  0
    2.5750    0.5580    0.0120 C   0  0  0  0  0  0  0  0  0  0  0  0
    3.7710    1.2990    0.0730 C   0  0  0  0  0  0  0  0  0  0  0  0
    3.8800    2.2270    1.0340 O   0  0  0  0  0  0  0  0  0  0  0  0
    5.0630    3.3320    1.5270 P   0  0  0  0  0  0  0  0  0  0  0  0
    4.4830    5.0220    1.9450 C   0  0  0  0  0  0  0  0  0  0  0  0
    6.1800    2.6980    2.7010 O   0  0  0  0  0  0  0  0  0  0  0  0
    5.7200    1.4550    3.1600 C   0  0  0  0  0  0  0  0  0  0  0  0
  1  2  1  0
  2  3  1  0
  3  4  1  0
  4  5  2  0
  4 27  1  0
  5  6  1  0
  6  7  2  0
  7  8  1  0
  7 26  1  0
  8  9  1  0
  9 10  1  0
 10 11  1  0
 11 12  1  0
 12 13  1  6
 12 14  1  0
 14 15  1  0
 15 16  1  0
 16 17  2  0
 16 18  1  0
 18 19  1  0
 19 20  2  0
 19 25  1  0
 20 21  1  0
 21 22  1  1
 21 23  1  0
 23 24  1  0
 24 25  2  0
 26 27  2  0
 27 28  1  0
 28 29  1  0
 29 30  1  0
 29 31  1  0
 31 32  1  0
M  END
