
     RDKit          3D

 32 33  0  0  0  0  0  0  0  0999 V2000
   -8.1690   -3.3140   -0.8670 C   0  0  0  0  0  0  0  0  0  0  0  0
   -6.9100   -2.5080   -0.6230 C   0  0  0  0  0  0  0  0  0  0  0  0
   -7.1350   -1.1290   -0.7600 O   0  0  0  0  0  0  0  0  0  0  0  0
   -5.6520   -0.3350   -0.4620 P   0  0  0  0  0  0  0  0  0  0  0  0
   -4.8670   -0.8050    1.1240 C   0  0  0  0  0  0  0  0  0  0  0  0
   -3.4170   -0.5230    0.9970 N   0  0  0  0  0  0  0  0  0  0  0  0
   -2.9790    0.7800    1.3800 C   0  0  0  0  0  0  0  0  0  0  0  0
   -2.5430   -1.5100    0.5110 C   0  0  0  0  0  0  0  0  0  0  0  0
   -3.0380   -2.6580    0.1640 O   0  0  0  0  0  0  0  0  0  0  0  0
   -1.0960   -1.2870    0.3840 C   0  0  0  0  0  0  0  0  0  0  0  0
   -0.7280   -0.0420    0.8510 O   0  0  0  0  0  0  0  0  0  0  0  0
    0.5440    0.4730    0.8710 C   0  0  0  0  0  0  0  0  0  0  0  0
    0.8080    1.7290    1.3640 C   0  0  0  0  0  0  0  0  0  0  0  0
    2.1110    2.2440    1.3790 C   0  0  0  0  0  0  0  0  0  0  0  0
    3.1220    1.4510    0.8820 C   0  0  0  0  0  0  0  0  0  0  0  0
    2.8820    0.1870    0.3820 C   0  0  0  0  0  0  0  0  0  0  0  0
    1.5830   -0.3060    0.3760 C   0  0  0  0  0  0  0  0  0  0  0  0
    4.0600   -0.5540   -0.1240 C   0  0  1  0  0  0  0  0  0  0  0  0
    3.7280   -1.8480   -0.6410 N   0  0  0  0  0  0  0  0  0  0  0  0
    4.8680   -2.6320   -1.0290 C   0  0  0  0  0  0  0  0  0  0  0  0
    5.6650   -3.0310    0.1690 C   0  0  0  0  0  0  0  0  0  0  0  0
    4.8530   -3.7950    1.0350 O   0  0  0  0  0  0  0  0  0  0  0  0
    4.7580    0.3270   -1.1020 C   0  0  0  0  0  0  0  0  0  0  0  0
    5.0290    1.6880   -0.5580 C   0  0  2  0  0  0  0  0  0  0  0  0
    6.4380    2.0140   -0.5380 N   0  0  0  0  0  0  0  0  0  0  0  0
    6.8880    3.1470   -1.2570 C   0  0  0  0  0  0  0  0  0  0  0  0
    6.0810    3.8770   -1.9140 O   0  0  0  0  0  0  0  0  0  0  0  0
    8.2190    3.5380   -1.2970 O   0  0  0  0  0  0  0  0  0  0  0  0
    4.5260    1.9170    0.8550 C   0  0  0  0  0  0  0  0  0  0  0  0
   -5.6280    1.3250   -0.8190 O   0  0  0  0  0  0  0  0  0  0  0  0
   -6.4250    2.1280   -0.0410 C   0  0  0  0  0  0  0  0  0  0  0  0
   -6.2290    3.5610   -0.5570 C   0  0  0  0  0  0  0  0  0  0  0  0
  1  2  1  0
  2  3  1  0
  3  4  1  0
  4  5  1  0
  4 30  1  0
  5  6  1  0
  6  7  1  0
  6  8  1  0
  8  9  2  0
  8 10  1  0
 10 11  1  0
 11 12  1  0
 12 13  2  0
 12 17  1  0
 13 14  1  0
 14 15  2  0
 15 16  1  0
 15 29  1  0
 16 17  2  0
 16 18  1  0
 18 19  1  6
 18 23  1  0
 19 20  1  0
 20 21  1  0
 21 22  1  0
 23 24  1  0
 24 25  1  1
 24 29  1  0
 25 26  1  0
 26 27  2  0
 26 28  1  0
 30 31  1  0
 31 32  1  0
M  END
