
     RDKit          3D

 32 33  0  0  0  0  0  0  0  0999 V2000
   -3.1260   -5.8840   -0.6690 C   0  0  0  0  0  0  0  0  0  0  0  0
   -2.1260   -4.7980   -0.3500 C   0  0  0  0  0  0  0  0  0  0  0  0
   -2.7830   -3.7070    0.2130 O   0  0  0  0  0  0  0  0  0  0  0  0
   -1.9350   -2.6740    0.5340 C   0  0  2  0  0  0  0  0  0  0  0  0
   -2.0600   -2.1920    1.9680 C   0  0  0  0  0  0  0  0  0  0  0  0
   -3.1560   -1.1470    1.9600 C   0  0  0  0  0  0  0  0  0  0  0  0
   -2.6500    0.0200    1.4730 O   0  0  0  0  0  0  0  0  0  0  0  0
   -1.8990   -0.1910    0.2600 C   0  0  1  0  0  0  0  0  0  0  0  0
   -2.4750    0.9190   -0.6520 C   0  0  0  0  0  0  0  0  0  0  0  0
   -2.2270    2.2550   -0.0260 C   0  0  0  0  0  0  0  0  0  0  0  0
   -1.6280    2.2950    1.0780 O   0  0  0  0  0  0  0  0  0  0  0  0
   -2.6360    3.4590   -0.6220 N   0  0  0  0  0  0  0  0  0  0  0  0
   -3.3340    3.4960   -1.8990 C   0  0  0  0  0  0  0  0  0  0  0  0
   -2.3670    4.7220    0.0270 C   0  0  0  0  0  0  0  0  0  0  0  0
   -3.7320    5.2480    1.1680 P   0  0  0  0  0  0  0  0  0  0  0  0
   -4.4740    3.9190    1.9630 O   0  0  0  0  0  0  0  0  0  0  0  0
   -4.9330    6.1660    0.3050 O   0  0  0  0  0  0  0  0  0  0  0  0
   -0.5810    0.0110    0.5920 N   0  0  0  0  0  0  0  0  0  0  0  0
    0.5230    0.0810   -0.2230 C   0  0  0  0  0  0  0  0  0  0  0  0
    1.0240   -1.1950   -0.8450 C   0  0  0  0  0  0  0  0  0  0  0  0
    2.1870   -0.8410   -1.6280 N   0  0  0  0  0  0  0  0  0  0  0  0
    3.3680   -0.3960   -0.9910 C   0  0  0  0  0  0  0  0  0  0  0  0
    3.5870   -0.5930    0.3530 C   0  0  0  0  0  0  0  0  0  0  0  0
    4.7470   -0.1130    0.9230 C   0  0  0  0  0  0  0  0  0  0  0  0
    5.7150    0.5650    0.2020 C   0  0  0  0  0  0  0  0  0  0  0  0
    6.9420    1.0680    0.8690 C   0  0  0  0  0  0  0  0  0  0  0  0
    7.9920    0.0450    0.8310 C   0  0  0  0  0  0  0  0  0  0  0  0
    7.7960   -1.0610    0.3060 O   0  0  0  0  0  0  0  0  0  0  0  0
    9.2250    0.3290    1.3950 O   0  0  0  0  0  0  0  0  0  0  0  0
    5.4730    0.7480   -1.1400 C   0  0  0  0  0  0  0  0  0  0  0  0
    4.3340    0.2810   -1.7170 C   0  0  0  0  0  0  0  0  0  0  0  0
   -2.3030   -1.4830   -0.3480 C   0  0  0  0  0  0  0  0  0  0  0  0
  1  2  1  0
  2  3  1  0
  4  3  1  1
  4  5  1  0
  4 32  1  0
  5  6  1  0
  6  7  1  0
  7  8  1  0
  8  9  1  6
  8 18  1  0
  8 32  1  0
  9 10  1  0
 10 11  2  0
 10 12  1  0
 12 13  1  0
 12 14  1  0
 14 15  1  0
 15 16  1  0
 15 17  1  0
 18 19  1  0
 19 20  1  0
 20 21  1  0
 21 22  1  0
 22 23  2  0
 22 31  1  0
 23 24  1  0
 24 25  2  0
 25 26  1  0
 25 30  1  0
 26 27  1  0
 27 28  2  0
 27 29  1  0
 30 31  2  0
M  END
