
     RDKit          3D

 31 31  0  0  0  0  0  0  0  0999 V2000
   -7.7470   -1.6410    2.6160 C   0  0  0  0  0  0  0  0  0  0  0  0
   -6.3310   -1.2250    2.2830 C   0  0  0  0  0  0  0  0  0  0  0  0
   -6.2510   -0.8990    0.9490 O   0  0  0  0  0  0  0  0  0  0  0  0
   -4.6880   -0.4080    0.4450 P   0  0  0  0  0  0  0  0  0  0  0  0
   -3.7830    0.5610    1.7450 C   0  0  0  0  0  0  0  0  0  0  0  0
   -3.0410   -0.3410    2.6760 C   0  0  0  0  0  0  0  0  0  0  0  0
   -2.0380   -1.1610    1.9070 C   0  0  0  0  0  0  0  0  0  0  0  0
   -1.0950   -0.2710    1.2790 N   0  0  0  0  0  0  0  0  0  0  0  0
   -0.0160   -0.7600    0.4620 C   0  0  0  0  0  0  0  0  0  0  0  0
    0.0540   -2.0070    0.3320 O   0  0  0  0  0  0  0  0  0  0  0  0
    0.9610    0.1710   -0.1900 C   0  0  2  0  0  0  0  0  0  0  0  0
    1.6680    0.9890    0.9290 C   0  0  0  0  0  0  0  0  0  0  0  0
    0.2970    1.1870   -1.0340 C   0  0  0  0  0  0  0  0  0  0  0  0
   -0.5500    0.7210   -2.1550 C   0  0  0  0  0  0  0  0  0  0  0  0
    0.0770   -0.0380   -3.1260 O   0  0  0  0  0  0  0  0  0  0  0  0
    2.0310   -0.6200   -0.8010 C   0  0  0  0  0  0  0  0  0  0  0  0
    2.3200   -0.5070   -2.0000 O   0  0  0  0  0  0  0  0  0  0  0  0
    2.7390   -1.5140   -0.0260 O   0  0  0  0  0  0  0  0  0  0  0  0
    3.7620   -2.2720   -0.5890 C   0  0  0  0  0  0  0  0  0  0  0  0
    4.7970   -1.3690   -1.1270 C   0  0  0  0  0  0  0  0  0  0  0  0
    5.0510   -1.0380   -2.4350 C   0  0  0  0  0  0  0  0  0  0  0  0
    6.0920   -0.1730   -2.4430 N   0  0  0  0  0  0  0  0  0  0  0  0
    6.5090    0.0560   -1.1950 C   0  0  0  0  0  0  0  0  0  0  0  0
    7.6180    0.9380   -0.7910 C   0  0  0  0  0  0  0  0  0  0  0  0
    8.2620    1.5540   -1.6770 O   0  0  0  0  0  0  0  0  0  0  0  0
    7.9750    1.1100    0.5550 N   0  0  0  0  0  0  0  0  0  0  0  0
    9.0710    1.9820    0.9520 C   0  0  0  0  0  0  0  0  0  0  0  0
    5.7090   -0.6850   -0.3610 C   0  0  0  0  0  0  0  0  0  0  0  0
   -4.7390    0.5410   -1.0100 O   0  0  0  0  0  0  0  0  0  0  0  0
   -6.0540    0.4710   -1.4970 C   0  0  0  0  0  0  0  0  0  0  0  0
   -6.1190    1.2950   -2.7670 C   0  0  0  0  0  0  0  0  0  0  0  0
  1  2  1  0
  2  3  1  0
  3  4  1  0
  4  5  1  0
  4 29  1  0
  5  6  1  0
  6  7  1  0
  7  8  1  0
  8  9  1  0
  9 10  2  0
  9 11  1  0
 11 12  1  1
 11 13  1  0
 11 16  1  0
 13 14  1  0
 14 15  1  0
 16 17  2  0
 16 18  1  0
 18 19  1  0
 19 20  1  0
 20 21  2  0
 20 28  1  0
 21 22  1  0
 22 23  1  0
 23 24  1  0
 23 28  2  0
 24 25  2  0
 24 26  1  0
 26 27  1  0
 29 30  1  0
 30 31  1  0
M  END
