
     RDKit          3D

 31 33  0  0  0  0  0  0  0  0999 V2000
    9.2800   -0.1430    1.6290 N   0  0  0  0  0  0  0  0  0  0  0  0
    8.4140    0.7950    1.0200 C   0  0  0  0  0  0  0  0  0  0  0  0
    8.8950    1.8900    0.6430 O   0  0  0  0  0  0  0  0  0  0  0  0
    7.0460    0.5660    0.8160 N   0  0  0  0  0  0  0  0  0  0  0  0
    6.1180    1.4640    0.2110 C   0  0  1  0  0  0  0  0  0  0  0  0
    5.2500    0.9130   -0.8790 C   0  0  0  0  0  0  0  0  0  0  0  0
    4.2810    0.5610    0.1310 N   0  0  0  0  0  0  0  0  0  0  0  0
    3.2680   -0.4400    0.2220 C   0  0  0  0  0  0  0  0  0  0  0  0
    2.5680   -0.4820    1.2730 O   0  0  0  0  0  0  0  0  0  0  0  0
    3.0150   -1.3520   -0.7630 O   0  0  0  0  0  0  0  0  0  0  0  0
    1.9910   -2.3490   -0.6480 C   0  0  0  0  0  0  0  0  0  0  0  0
    0.7280   -1.7820   -0.4820 O   0  0  0  0  0  0  0  0  0  0  0  0
    0.2220   -0.9460   -1.4510 C   0  0  0  0  0  0  0  0  0  0  0  0
    0.8330   -0.6460   -2.5080 O   0  0  0  0  0  0  0  0  0  0  0  0
   -1.1250   -0.3650   -1.2330 C   0  0  2  0  0  0  0  0  0  0  0  0
   -1.1740    0.4730    0.0210 C   0  0  0  0  0  0  0  0  0  0  0  0
   -2.6170    0.3450    0.4460 C   0  0  0  0  0  0  0  0  0  0  0  0
   -3.1890   -0.7440   -0.2570 N   0  0  0  0  0  0  0  0  0  0  0  0
   -4.5370   -1.1300   -0.3380 C   0  0  0  0  0  0  0  0  0  0  0  0
   -4.7400   -2.1540   -1.1080 O   0  0  0  0  0  0  0  0  0  0  0  0
   -5.7030   -0.5810    0.2860 C   0  0  0  0  0  0  0  0  0  0  0  0
   -5.7670    0.4320    1.1170 C   0  0  0  0  0  0  0  0  0  0  0  0
   -6.9820    0.9880    1.7520 C   0  0  1  0  0  0  0  0  0  0  0  0
   -6.7270    0.8930    3.1520 O   0  0  0  0  0  0  0  0  0  0  0  0
   -7.0400    2.8170    1.3670 P   0  0  0  0  0  0  0  0  0  0  0  0
   -7.0430    3.2280   -0.1280 O   0  0  0  0  0  0  0  0  0  0  0  0
   -8.1400    0.3420    1.4080 O   0  0  0  0  0  0  0  0  0  0  0  0
   -8.1250   -0.7220    0.5440 C   0  0  0  0  0  0  0  0  0  0  0  0
   -7.0370   -1.2000   -0.0110 C   0  0  0  0  0  0  0  0  0  0  0  0
   -2.0880   -1.4870   -0.9220 C   0  0  0  0  0  0  0  0  0  0  0  0
    4.8030    1.6380    0.9390 C   0  0  0  0  0  0  0  0  0  0  0  0
  1  2  1  0
  2  3  2  0
  2  4  1  0
  5  4  1  1
  5  6  1  0
  5 31  1  0
  6  7  1  0
  7  8  1  0
  7 31  1  0
  8  9  2  0
  8 10  1  0
 10 11  1  0
 11 12  1  0
 12 13  1  0
 13 14  2  0
 15 13  1  1
 15 16  1  0
 15 30  1  0
 16 17  1  0
 17 18  1  0
 18 19  1  0
 18 30  1  0
 19 20  2  0
 19 21  1  0
 21 22  2  0
 21 29  1  0
 22 23  1  0
 23 24  1  1
 23 25  1  0
 23 27  1  0
 25 26  2  0
 27 28  1  0
 28 29  2  0
M  END
