
     RDKit          3D

 31 32  0  0  0  0  0  0  0  0999 V2000
    8.0130   -1.5410   -1.3890 C   0  0  0  0  0  0  0  0  0  0  0  0
    6.6390   -1.8910   -1.0550 C   0  0  0  0  0  0  0  0  0  0  0  0
    5.7250   -0.9280   -0.7900 C   0  0  0  0  0  0  0  0  0  0  0  0
    6.2200    0.4190   -0.8870 C   0  0  0  0  0  0  0  0  0  0  0  0
    5.7140    1.5460   -0.6330 C   0  0  0  0  0  0  0  0  0  0  0  0
    6.7060    2.6570   -0.9060 O   0  0  0  0  0  0  0  0  0  0  0  0
    7.6140    2.8810    0.6810 P   0  0  0  0  0  0  0  0  0  0  0  0
    8.7430    4.1680    0.3650 O   0  0  0  0  0  0  0  0  0  0  0  0
    8.4690    1.4100    0.9340 O   0  0  0  0  0  0  0  0  0  0  0  0
    4.5230   -1.3970   -0.1680 C   0  0  0  0  0  0  0  0  0  0  0  0
    4.1680   -2.4280    0.3140 O   0  0  0  0  0  0  0  0  0  0  0  0
    3.3610   -0.1400   -0.2300 N   0  0  0  0  0  0  0  0  0  0  0  0
    2.3680   -0.7760    0.6470 C   0  0  0  0  0  0  0  0  0  0  0  0
    2.4980   -1.5750    1.4690 O   0  0  0  0  0  0  0  0  0  0  0  0
    1.2320   -0.0640    0.0860 N   0  0  0  0  0  0  0  0  0  0  0  0
    0.0520   -0.8690    1.0910 C   0  0  0  0  0  0  0  0  0  0  0  0
    0.4670   -1.1150    2.1310 O   0  0  0  0  0  0  0  0  0  0  0  0
   -1.1810   -1.0440    0.3370 C   0  0  0  0  0  0  0  0  0  0  0  0
   -1.3700   -0.6510   -0.8190 O   0  0  0  0  0  0  0  0  0  0  0  0
   -2.2160   -1.7530    0.9180 O   0  0  0  0  0  0  0  0  0  0  0  0
   -3.3620   -2.2470    0.4540 C   0  0  0  0  0  0  0  0  0  0  0  0
   -4.4090   -1.7270   -0.3790 C   0  0  0  0  0  0  0  0  0  0  0  0
   -5.1650   -0.5600   -0.1210 N   0  0  0  0  0  0  0  0  0  0  0  0
   -6.2640   -0.5830    0.8470 C   0  0  0  0  0  0  0  0  0  0  0  0
   -7.4370    0.1650    0.3260 C   0  0  1  0  0  0  0  0  0  0  0  0
   -7.5790    1.4960    1.0270 C   0  0  0  0  0  0  0  0  0  0  0  0
   -6.3940    2.2750    0.4680 C   0  0  0  0  0  0  0  0  0  0  0  0
   -6.1300    1.5690   -0.8420 C   0  0  2  0  0  0  0  0  0  0  0  0
   -7.2690    0.6530   -1.0510 N   0  0  0  0  0  0  0  0  0  0  0  0
   -4.9190    0.6970   -0.7700 C   0  0  0  0  0  0  0  0  0  0  0  0
   -3.8550    1.0410   -1.2200 O   0  0  0  0  0  0  0  0  0  0  0  0
  1  2  1  0
  2  3  2  3
  3  4  1  0
  3 10  1  0
  4  5  2  3
  5  6  1  0
  6  7  1  0
  7  8  1  0
  7  9  1  0
 10 11  2  0
 10 12  1  0
 12 13  1  0
 13 14  2  0
 13 15  1  0
 15 16  1  0
 16 17  2  0
 16 18  1  0
 18 19  2  0
 18 20  1  0
 20 21  1  0
 21 22  1  0
 22 23  1  0
 23 24  1  0
 23 30  1  0
 25 24  1  1
 25 26  1  0
 25 29  1  0
 26 27  1  0
 28 27  1  1
 28 29  1  0
 28 30  1  0
 30 31  2  0
M  END
