
     RDKit          3D

 30 32  0  0  0  0  0  0  0  0999 V2000
   -3.9050   -2.6650   -4.5570 O   0  0  0  0  0  0  0  0  0  0  0  0
   -4.0930   -1.8410   -3.6320 C   0  0  0  0  0  0  0  0  0  0  0  0
   -5.3710   -1.3700   -3.3900 O   0  0  0  0  0  0  0  0  0  0  0  0
   -3.0240   -1.3810   -2.8270 N   0  0  0  0  0  0  0  0  0  0  0  0
   -2.3030   -2.2400   -2.2190 C   0  0  0  0  0  0  0  0  0  0  0  0
   -2.5490   -3.6060   -2.3340 O   0  0  0  0  0  0  0  0  0  0  0  0
   -1.7390   -4.5800   -1.7570 C   0  0  0  0  0  0  0  0  0  0  0  0
   -0.3430   -4.0130   -1.5460 C   0  0  0  0  0  0  0  0  0  0  0  0
   -0.4540   -2.7690   -0.7520 N   0  0  0  0  0  0  0  0  0  0  0  0
   -1.1890   -1.7350   -1.3810 C   0  0  0  0  0  0  0  0  0  0  0  0
   -0.9660   -0.4750   -1.3030 C   0  0  0  0  0  0  0  0  0  0  0  0
    0.0080    0.3240   -0.5960 C   0  0  0  0  0  0  0  0  0  0  0  0
    0.0260    1.6030   -0.7170 N   0  0  0  0  0  0  0  0  0  0  0  0
   -0.6840    2.4120   -1.3800 O   0  0  0  0  0  0  0  0  0  0  0  0
   -1.5940    2.5700   -2.3810 C   0  0  0  0  0  0  0  0  0  0  0  0
   -1.8890    4.0900   -2.5400 C   0  0  1  0  0  0  0  0  0  0  0  0
   -2.4620    4.7040   -1.2480 C   0  0  0  0  0  0  0  0  0  0  0  0
   -1.0690    5.0330   -1.7470 C   0  0  0  0  0  0  0  0  0  0  0  0
    1.0340   -0.1870    0.3730 C   0  0  1  0  0  0  0  0  0  0  0  0
    2.0490    0.9120    0.6690 C   0  0  0  0  0  0  0  0  0  0  0  0
    3.1340    0.4580    1.3600 O   0  0  0  0  0  0  0  0  0  0  0  0
    2.9190    0.7540    2.7260 C   0  0  0  0  0  0  0  0  0  0  0  0
    2.3350   -0.5160    3.3120 C   0  0  1  0  0  0  0  0  0  0  0  0
    2.4830   -0.4160    4.8230 C   0  0  0  0  0  0  0  0  0  0  0  0
    4.2520   -0.2550    5.3090 P   0  0  0  0  0  0  0  0  0  0  0  0
    4.6120    1.3690    5.8390 O   0  0  0  0  0  0  0  0  0  0  0  0
    5.3210   -0.6700    4.0320 O   0  0  0  0  0  0  0  0  0  0  0  0
    0.9540   -0.7480    2.8980 C   0  0  0  0  0  0  0  0  0  0  0  0
    0.1760   -1.1350    3.7920 O   0  0  0  0  0  0  0  0  0  0  0  0
    0.3900   -0.5890    1.6130 N   0  0  0  0  0  0  0  0  0  0  0  0
  1  2  2  0
  2  3  1  0
  2  4  1  0
  4  5  2  3
  5  6  1  0
  5 10  1  0
  6  7  1  0
  7  8  1  0
  8  9  1  0
  9 10  1  0
 10 11  2  3
 11 12  1  0
 12 13  2  3
 19 12  1  6
 13 14  1  0
 14 15  1  0
 16 15  1  1
 16 17  1  0
 16 18  1  0
 17 18  1  0
 19 20  1  0
 19 30  1  0
 20 21  1  0
 21 22  1  0
 22 23  1  0
 23 24  1  1
 23 28  1  0
 24 25  1  0
 25 26  1  0
 25 27  1  0
 28 29  2  0
 28 30  1  0
M  END
