
     RDKit          3D

 31 33  0  0  0  0  0  0  0  0999 V2000
    7.9220    0.4580    1.5300 O   0  0  0  0  0  0  0  0  0  0  0  0
    7.4440    0.7680    0.4130 C   0  0  0  0  0  0  0  0  0  0  0  0
    8.2910    1.2760   -0.5490 O   0  0  0  0  0  0  0  0  0  0  0  0
    6.0140    0.5680    0.2090 C   0  0  0  0  0  0  0  0  0  0  0  0
    5.4260    0.8920   -1.0000 C   0  0  0  0  0  0  0  0  0  0  0  0
    4.0760    0.6930   -1.1650 C   0  0  0  0  0  0  0  0  0  0  0  0
    3.2460    0.1810   -0.1890 C   0  0  0  0  0  0  0  0  0  0  0  0
    1.8910    0.0370   -0.4880 N   0  0  0  0  0  0  0  0  0  0  0  0
    0.8820   -0.5720    0.2910 C   0  0  0  0  0  0  0  0  0  0  0  0
    1.1770   -1.0770    1.3960 O   0  0  0  0  0  0  0  0  0  0  0  0
   -0.5030   -0.6170   -0.1940 C   0  0  2  0  0  0  0  0  0  0  0  0
   -1.2100    0.7090   -0.2290 C   0  0  0  0  0  0  0  0  0  0  0  0
   -0.6590    1.7900   -1.0440 C   0  0  0  0  0  0  0  0  0  0  0  0
   -1.8440    3.2560   -0.8610 P   0  0  0  0  0  0  0  0  0  0  0  0
   -1.1200    4.6820   -1.5150 O   0  0  0  0  0  0  0  0  0  0  0  0
   -2.1580    3.4410    0.8400 O   0  0  0  0  0  0  0  0  0  0  0  0
   -1.2510   -1.4900    0.7450 N   0  0  0  0  0  0  0  0  0  0  0  0
   -2.6270   -1.7730    0.5860 C   0  0  0  0  0  0  0  0  0  0  0  0
   -3.2810   -1.5880   -0.5100 N   0  0  0  0  0  0  0  0  0  0  0  0
   -4.6500   -1.9640   -0.3680 C   0  0  0  0  0  0  0  0  0  0  0  0
   -5.7160   -1.9630   -1.1960 N   0  0  0  0  0  0  0  0  0  0  0  0
   -6.9160   -2.3880   -0.7670 C   0  0  0  0  0  0  0  0  0  0  0  0
   -7.8670   -2.3580   -1.5980 O   0  0  0  0  0  0  0  0  0  0  0  0
   -7.1440   -2.8240    0.4500 O   0  0  0  0  0  0  0  0  0  0  0  0
   -6.1240   -2.8450    1.3030 C   0  0  0  0  0  0  0  0  0  0  0  0
   -6.2810   -3.2500    2.4770 O   0  0  0  0  0  0  0  0  0  0  0  0
   -4.8670   -2.4210    0.9230 C   0  0  0  0  0  0  0  0  0  0  0  0
   -3.5700   -2.3120    1.5760 C   0  0  0  0  0  0  0  0  0  0  0  0
   -3.2960   -2.6110    2.7450 O   0  0  0  0  0  0  0  0  0  0  0  0
    3.8190   -0.1410    1.0090 C   0  0  0  0  0  0  0  0  0  0  0  0
    5.1920    0.0580    1.1850 C   0  0  0  0  0  0  0  0  0  0  0  0
  1  2  2  0
  2  3  1  0
  2  4  1  0
  4  5  2  0
  4 31  1  0
  5  6  1  0
  6  7  2  0
  7  8  1  0
  7 30  1  0
  8  9  1  0
  9 10  2  0
  9 11  1  0
 11 12  1  1
 11 17  1  0
 12 13  1  0
 13 14  1  0
 14 15  1  0
 14 16  1  0
 17 18  1  0
 18 19  2  0
 18 28  1  0
 19 20  1  0
 20 21  1  0
 20 27  2  0
 21 22  1  0
 22 23  2  0
 22 24  1  0
 24 25  1  0
 25 26  2  0
 25 27  1  0
 27 28  1  0
 28 29  2  0
 30 31  2  0
M  END
