
     RDKit          3D

 31 33  0  0  0  0  0  0  0  0999 V2000
   -5.1740    3.6410    0.6400 C   0  0  0  0  0  0  0  0  0  0  0  0
   -4.5100    2.7130   -0.3590 C   0  0  1  0  0  0  0  0  0  0  0  0
   -3.1750    2.2750    0.1720 C   0  0  0  0  0  0  0  0  0  0  0  0
   -2.2810    3.0920    0.4500 O   0  0  0  0  0  0  0  0  0  0  0  0
   -3.2230    0.8540    0.2530 N   0  0  0  0  0  0  0  0  0  0  0  0
   -2.4550   -0.2990    0.6200 C   0  0  0  0  0  0  0  0  0  0  0  0
   -1.1040   -0.2900    1.1260 C   0  0  0  0  0  0  0  0  0  0  0  0
   -0.4540   -1.3650    1.4410 O   0  0  0  0  0  0  0  0  0  0  0  0
   -0.2820    0.8480    1.3580 N   0  0  0  0  0  0  0  0  0  0  0  0
    1.0870    0.7260    1.8770 C   0  0  0  0  0  0  0  0  0  0  0  0
    1.9880   -0.0650    0.9940 C   0  0  0  0  0  0  0  0  0  0  0  0
    2.1210    0.4820   -0.2810 O   0  0  0  0  0  0  0  0  0  0  0  0
    3.1590   -0.4350   -1.2880 P   0  0  0  0  0  0  0  0  0  0  0  0
    2.5820   -0.3100   -2.9200 O   0  0  0  0  0  0  0  0  0  0  0  0
    4.9180    0.1440   -1.2030 C   0  0  1  0  0  0  0  0  0  0  0  0
    5.4170    0.2560    0.2020 C   0  0  0  0  0  0  0  0  0  0  0  0
    6.9460    0.3630    0.1200 C   0  0  0  0  0  0  0  0  0  0  0  0
    7.5290   -0.9150   -0.4160 C   0  0  0  0  0  0  0  0  0  0  0  0
    6.5830   -1.5930   -1.1570 O   0  0  0  0  0  0  0  0  0  0  0  0
    5.8470   -0.7350   -1.9740 C   0  0  0  0  0  0  0  0  0  0  0  0
   -3.2120   -1.4020    0.4120 C   0  0  0  0  0  0  0  0  0  0  0  0
   -2.8050   -2.7520    0.6580 C   0  0  0  0  0  0  0  0  0  0  0  0
   -3.6030   -3.8960    0.4370 N   0  0  0  0  0  0  0  0  0  0  0  0
   -1.6590   -3.0210    1.1080 O   0  0  0  0  0  0  0  0  0  0  0  0
   -4.4840   -1.0200   -0.0920 N   0  0  0  0  0  0  0  0  0  0  0  0
   -5.6320   -1.7560   -0.4720 C   0  0  0  0  0  0  0  0  0  0  0  0
   -6.6770   -1.1180   -0.9090 O   0  0  0  0  0  0  0  0  0  0  0  0
   -5.8070   -3.1220   -0.4440 O   0  0  0  0  0  0  0  0  0  0  0  0
   -4.5030    0.4320   -0.1990 C   0  0  0  0  0  0  0  0  0  0  0  0
   -5.2320    1.4680   -0.5450 C   0  0  0  0  0  0  0  0  0  0  0  0
   -6.5480    1.3820   -1.0340 O   0  0  0  0  0  0  0  0  0  0  0  0
  2  1  1  1
  2  3  1  0
  2 30  1  0
  3  4  2  0
  3  5  1  0
  5  6  1  0
  5 29  1  0
  6  7  1  0
  6 21  2  0
  7  8  2  0
  7  9  1  0
  9 10  1  0
 10 11  1  0
 11 12  1  0
 12 13  1  0
 13 14  1  0
 15 13  1  1
 15 16  1  0
 15 20  1  0
 16 17  1  0
 17 18  1  0
 18 19  1  0
 19 20  1  0
 21 22  1  0
 21 25  1  0
 22 23  1  0
 22 24  2  0
 25 26  1  0
 25 29  1  0
 26 27  2  0
 26 28  1  0
 29 30  2  0
 30 31  1  0
M  END
