
     RDKit          3D

 30 32  0  0  0  0  0  0  0  0999 V2000
   -3.1780    3.1420   -0.0570 O   0  0  0  0  0  0  0  0  0  0  0  0
   -3.7180    2.0490    0.1260 C   0  0  0  0  0  0  0  0  0  0  0  0
   -3.7420    1.4070    1.4010 N   0  0  0  0  0  0  0  0  0  0  0  0
   -3.9970   -0.0070    1.3620 C   0  0  0  0  0  0  0  0  0  0  0  0
   -4.6910   -0.5740    2.2400 O   0  0  0  0  0  0  0  0  0  0  0  0
   -3.3730   -0.7380    0.1980 C   0  0  2  0  0  0  0  0  0  0  0  0
   -1.9040   -0.5040    0.1220 C   0  0  0  0  0  0  0  0  0  0  0  0
   -1.5190    0.3260   -0.7440 O   0  0  0  0  0  0  0  0  0  0  0  0
   -0.9410   -1.1240    0.9210 N   0  0  0  0  0  0  0  0  0  0  0  0
   -1.3530   -2.1070    1.9310 C   0  0  0  0  0  0  0  0  0  0  0  0
   -0.5930   -1.9620    3.2160 C   0  0  0  0  0  0  0  0  0  0  0  0
    0.7060   -1.5480    3.0690 O   0  0  0  0  0  0  0  0  0  0  0  0
    0.8370   -0.4170    2.2620 C   0  0  0  0  0  0  0  0  0  0  0  0
    0.4840   -0.8810    0.8620 C   0  0  1  0  0  0  0  0  0  0  0  0
    1.1780   -2.1530    0.5100 C   0  0  0  0  0  0  0  0  0  0  0  0
    1.0180   -3.1960    1.3810 O   0  0  0  0  0  0  0  0  0  0  0  0
    0.9030    0.1910   -0.0980 C   0  0  0  0  0  0  0  0  0  0  0  0
    2.3300    0.3270   -0.0480 N   0  0  0  0  0  0  0  0  0  0  0  0
    2.9050    1.3060   -0.8860 C   0  0  0  0  0  0  0  0  0  0  0  0
    4.3960    1.4080   -0.7970 C   0  0  0  0  0  0  0  0  0  0  0  0
    5.1010    0.1340   -1.1610 C   0  0  0  0  0  0  0  0  0  0  0  0
    6.9430    0.4370   -0.9970 P   0  0  0  0  0  0  0  0  0  0  0  0
    7.4360    1.7180   -2.0400 O   0  0  0  0  0  0  0  0  0  0  0  0
    7.4150    0.6710    0.6310 O   0  0  0  0  0  0  0  0  0  0  0  0
   -4.0230   -0.0990   -0.9590 N   0  0  0  0  0  0  0  0  0  0  0  0
   -4.4280   -0.5730   -2.2350 C   0  0  0  0  0  0  0  0  0  0  0  0
   -4.6640   -1.7680   -2.5550 O   0  0  0  0  0  0  0  0  0  0  0  0
   -4.5420    0.5690   -3.1840 C   0  0  0  0  0  0  0  0  0  0  0  0
   -3.9990    1.7330   -2.3450 C   0  0  0  0  0  0  0  0  0  0  0  0
   -4.3880    1.3130   -0.9680 C   0  0  2  0  0  0  0  0  0  0  0  0
  1  2  2  0
  2  3  1  0
  2 30  1  0
  3  4  1  0
  4  5  2  0
  4  6  1  0
  6  7  1  6
  6 25  1  0
  7  8  2  0
  7  9  1  0
  9 10  1  0
  9 14  1  0
 10 11  1  0
 11 12  1  0
 12 13  1  0
 13 14  1  0
 14 15  1  6
 14 17  1  0
 15 16  1  0
 17 18  1  0
 18 19  1  0
 19 20  1  0
 20 21  1  0
 21 22  1  0
 22 23  1  0
 22 24  1  0
 25 26  1  0
 25 30  1  0
 26 27  2  0
 26 28  1  0
 28 29  1  0
 30 29  1  6
M  END
