
     RDKit          3D

 12 11  0  0  0  0  0  0  0  0999 V2000
   -2.6390    0.8250    0.9050 C   0  0  0  0  0  0  0  0  0  0  0  0
   -1.6350    0.3150   -0.1080 C   0  0  1  0  0  0  0  0  0  0  0  0
   -1.2420    1.5270   -0.9140 C   0  0  0  0  0  0  0  0  0  0  0  0
   -0.6040   -0.4400    0.4700 N   0  0  0  0  0  0  0  0  0  0  0  0
   -1.1260   -1.6400    1.1000 C   0  0  0  0  0  0  0  0  0  0  0  0
   -1.7950   -2.4620    0.2050 O   0  0  0  0  0  0  0  0  0  0  0  0
    0.5340   -0.7860   -0.2630 C   0  0  0  0  0  0  0  0  0  0  0  0
    1.5320    0.2410   -0.6330 C   0  0  2  0  0  0  0  0  0  0  0  0
    2.5520   -0.4440   -1.3620 O   0  0  0  0  0  0  0  0  0  0  0  0
    2.4080    0.9610    0.8450 P   0  0  0  0  0  0  0  0  0  0  0  0
    3.2460   -0.3420    1.6710 O   0  0  0  0  0  0  0  0  0  0  0  0
    3.5240    2.1700    0.2840 O   0  0  0  0  0  0  0  0  0  0  0  0
  2  1  1  1
  2  3  1  0
  2  4  1  0
  4  5  1  0
  4  7  1  0
  5  6  1  0
  7  8  1  0
  8  9  1  6
  8 10  1  0
 10 11  1  0
 10 12  1  0
M  END
