
     RDKit          3D

 12 11  0  0  0  0  0  0  0  0999 V2000
    3.6400   -0.3900   -0.4750 C   0  0  0  0  0  0  0  0  0  0  0  0
    2.9510    0.4140    0.5500 C   0  0  0  0  0  0  0  0  0  0  0  0
    1.4870    0.1170    0.7470 C   0  0  0  0  0  0  0  0  0  0  0  0
    0.6960    0.2930   -0.4080 N   0  0  0  0  0  0  0  0  0  0  0  0
   -0.7160    0.1650   -0.0560 C   0  0  2  0  0  0  0  0  0  0  0  0
   -1.0320   -1.2010    0.4860 C   0  0  0  0  0  0  0  0  0  0  0  0
   -2.3840   -1.3800    0.7890 O   0  0  0  0  0  0  0  0  0  0  0  0
   -1.5700    0.5920   -1.2040 C   0  0  0  0  0  0  0  0  0  0  0  0
   -1.0340    0.6820   -2.2940 O   0  0  0  0  0  0  0  0  0  0  0  0
   -3.3430    0.9880   -1.0530 P   0  0  0  0  0  0  0  0  0  0  0  0
   -3.5030    2.2100    0.2080 O   0  0  0  0  0  0  0  0  0  0  0  0
   -4.2900   -0.3590   -0.5870 O   0  0  0  0  0  0  0  0  0  0  0  0
  1  2  1  0
  2  3  1  0
  3  4  1  0
  4  5  1  0
  5  6  1  6
  5  8  1  0
  6  7  1  0
  8  9  2  0
  8 10  1  0
 10 11  1  0
 10 12  1  0
M  END
