
     RDKit          3D

 10  9  0  0  0  0  0  0  0  0999 V2000
    1.6350    0.9540   -0.9110 O   0  0  0  0  0  0  0  0  0  0  0  0
    1.7260    0.1950    0.0720 C   0  0  0  0  0  0  0  0  0  0  0  0
    0.4860   -0.0880    0.9330 C   0  0  0  0  0  0  0  0  0  0  0  0
   -0.4820    0.7550    0.5180 O   0  0  0  0  0  0  0  0  0  0  0  0
   -1.8230    0.3870   -0.0390 P   0  0  0  0  0  0  0  0  0  0  0  0
   -3.0850    0.0040   -0.8440 O   0  0  0  0  0  0  0  0  0  0  0  0
   -1.1990    0.9130   -1.5310 O   0  0  0  0  0  0  0  0  0  0  0  0
   -2.5910    1.4620    0.8610 O   0  0  0  0  0  0  0  0  0  0  0  0
    2.8680   -0.4510    0.4900 N   0  0  0  0  0  0  0  0  0  0  0  0
    3.9940   -0.4670   -0.2750 O   0  0  0  0  0  0  0  0  0  0  0  0
  1  2  2  0
  2  3  1  0
  2  9  1  0
  3  4  1  0
  4  5  1  0
  5  6  1  0
  5  7  1  0
  5  8  1  0
  9 10  1  0
M  END
