
     RDKit          3D

 13 12  0  0  0  0  0  0  0  0999 V2000
    4.9050    0.6860   -0.1310 C   0  0  0  0  0  0  0  0  0  0  0  0
    3.4150    0.4520   -0.0130 C   0  0  0  0  0  0  0  0  0  0  0  0
    3.0220    0.4280    1.3250 O   0  0  0  0  0  0  0  0  0  0  0  0
    1.7530    0.2300    1.4760 O   0  0  0  0  0  0  0  0  0  0  0  0
    1.2570   -0.7490    0.7170 O   0  0  0  0  0  0  0  0  0  0  0  0
   -0.0800   -0.7570    0.3160 C   0  0  0  0  0  0  0  0  0  0  0  0
   -0.4800   -1.6490   -0.8000 C   0  0  0  0  0  0  0  0  0  0  0  0
   -0.8790    0.0140    0.9470 N   0  0  0  0  0  0  0  0  0  0  0  0
   -2.2850    0.1530    0.6910 C   0  0  2  0  0  0  0  0  0  0  0  0
   -3.0390   -1.1420    0.6780 C   0  0  0  0  0  0  0  0  0  0  0  0
   -2.4710    1.0900   -0.9210 P   0  0  0  0  0  0  0  0  0  0  0  0
   -4.1580    1.3320   -1.2000 O   0  0  0  0  0  0  0  0  0  0  0  0
   -1.7010    2.6330   -0.6950 O   0  0  0  0  0  0  0  0  0  0  0  0
  1  2  1  0
  2  3  1  0
  3  4  1  0
  4  5  1  0
  5  6  1  0
  6  7  1  0
  6  8  2  3
  8  9  1  0
  9 10  1  6
  9 11  1  0
 11 12  1  0
 11 13  1  0
M  END
