
     RDKit          3D

 13 13  0  0  0  0  0  0  0  0999 V2000
    2.1030    1.2240    1.0220 O   0  0  0  0  0  0  0  0  0  0  0  0
    3.4470    0.3070    0.3820 P   0  0  0  0  0  0  0  0  0  0  0  0
    4.1060   -0.6080    1.7170 O   0  0  0  0  0  0  0  0  0  0  0  0
    2.8090   -0.9010   -0.8660 C   0  0  0  0  0  0  0  0  0  0  0  0
    1.6120   -0.3070   -1.6200 C   0  0  0  0  0  0  0  0  0  0  0  0
    0.6060   -0.0220   -0.6500 N   0  0  0  0  0  0  0  0  0  0  0  0
   -0.5950    0.5440   -1.1750 C   0  0  0  0  0  0  0  0  0  0  0  0
   -1.5420    0.7790   -0.0130 C   0  0  2  0  0  0  0  0  0  0  0  0
   -1.8820   -0.5460    0.6780 C   0  0  0  0  0  0  0  0  0  0  0  0
   -3.3720   -0.4340    1.0160 C   0  0  0  0  0  0  0  0  0  0  0  0
   -3.5260    0.8490    1.5760 O   0  0  0  0  0  0  0  0  0  0  0  0
   -3.3750    1.7590    0.6640 O   0  0  0  0  0  0  0  0  0  0  0  0
   -2.7480    1.3300   -0.4130 O   0  0  0  0  0  0  0  0  0  0  0  0
  1  2  1  0
  2  3  1  0
  2  4  1  0
  4  5  1  0
  5  6  1  0
  6  7  1  0
  8  7  1  6
  8  9  1  0
  8 13  1  0
  9 10  1  0
 10 11  1  0
 11 12  1  0
 12 13  1  0
M  END
