
     RDKit          3D

 13 12  0  0  0  0  0  0  0  0999 V2000
    4.5400    1.6930    0.3300 C   0  0  0  0  0  0  0  0  0  0  0  0
    3.1590    1.4870    0.3440 O   0  0  0  0  0  0  0  0  0  0  0  0
    2.5180    0.3690   -0.1260 C   0  0  0  0  0  0  0  0  0  0  0  0
    3.1950   -0.5600   -0.6120 O   0  0  0  0  0  0  0  0  0  0  0  0
    1.0340    0.2470   -0.0640 C   0  0  0  0  0  0  0  0  0  0  0  0
    0.5510   -1.0500   -0.6400 C   0  0  2  0  0  0  0  0  0  0  0  0
    0.9510   -1.1350   -1.9950 O   0  0  0  0  0  0  0  0  0  0  0  0
   -0.8770   -1.0930   -0.5900 N   0  0  0  0  0  0  0  0  0  0  0  0
   -1.4450   -1.0540    0.7150 C   0  0  0  0  0  0  0  0  0  0  0  0
   -2.9610   -1.1100    0.6100 C   0  0  0  0  0  0  0  0  0  0  0  0
   -3.6300    0.3160   -0.3570 P   0  0  0  0  0  0  0  0  0  0  0  0
   -2.3950    1.4550   -0.7220 O   0  0  0  0  0  0  0  0  0  0  0  0
   -4.9540    1.0190    0.4850 O   0  0  0  0  0  0  0  0  0  0  0  0
  1  2  1  0
  2  3  1  0
  3  4  2  0
  3  5  1  0
  5  6  1  0
  6  7  1  6
  6  8  1  0
  8  9  1  0
  9 10  1  0
 10 11  1  0
 11 12  1  0
 11 13  1  0
M  END
