
     RDKit          3D

 27 28  0  0  0  0  0  0  0  0999 V2000
   -2.2870   -3.9720    3.4420 C   0  0  0  0  0  0  0  0  0  0  0  0
   -0.8220   -3.6280    3.6610 C   0  0  0  0  0  0  0  0  0  0  0  0
   -0.1990   -3.2280    2.4080 N   0  0  0  0  0  0  0  0  0  0  0  0
   -0.5360   -2.0260    1.7500 C   0  0  0  0  0  0  0  0  0  0  0  0
   -1.8380   -1.5920    1.8590 O   0  0  0  0  0  0  0  0  0  0  0  0
    0.3390   -1.3260    1.0510 C   0  0  0  0  0  0  0  0  0  0  0  0
    1.6200   -1.6870    0.9020 N   0  0  0  0  0  0  0  0  0  0  0  0
    2.5310   -0.9970    0.1860 C   0  0  0  0  0  0  0  0  0  0  0  0
    3.7140   -1.4780    0.1410 O   0  0  0  0  0  0  0  0  0  0  0  0
    2.1740    0.1530   -0.4460 C   0  0  0  0  0  0  0  0  0  0  0  0
    2.9690    0.8930   -1.1530 C   0  0  0  0  0  0  0  0  0  0  0  0
    2.4220    2.0590   -1.7450 O   0  0  0  0  0  0  0  0  0  0  0  0
    4.3850    0.6820   -1.4280 C   0  0  2  0  0  0  0  0  0  0  0  0
    5.1080    1.9090   -1.2300 O   0  0  0  0  0  0  0  0  0  0  0  0
    4.6390    0.3340   -2.8910 C   0  0  0  0  0  0  0  0  0  0  0  0
    4.1710    1.4310   -3.7860 C   0  0  0  0  0  0  0  0  0  0  0  0
    0.8230    0.5520   -0.3000 C   0  0  0  0  0  0  0  0  0  0  0  0
   -0.0940   -0.1470    0.4230 C   0  0  0  0  0  0  0  0  0  0  0  0
   -1.3840    0.2390    0.5620 O   0  0  0  0  0  0  0  0  0  0  0  0
   -2.0380    1.3480    0.0580 C   0  0  2  0  0  0  0  0  0  0  0  0
   -2.7690    2.1420    1.1360 C   0  0  0  0  0  0  0  0  0  0  0  0
   -3.6940    2.9460    0.2560 C   0  0  0  0  0  0  0  0  0  0  0  0
   -3.9890    4.1480    0.3020 O   0  0  0  0  0  0  0  0  0  0  0  0
   -4.1630    1.9510   -0.6730 N   0  0  0  0  0  0  0  0  0  0  0  0
   -5.4700    2.0470   -1.3440 C   0  0  0  0  0  0  0  0  0  0  0  0
   -3.1860    0.9330   -0.8040 C   0  0  0  0  0  0  0  0  0  0  0  0
   -3.2950   -0.0940   -1.5090 O   0  0  0  0  0  0  0  0  0  0  0  0
  1  2  1  0
  2  3  1  0
  3  4  1  0
  4  5  1  0
  4  6  2  3
  6  7  1  0
  6 18  1  0
  7  8  1  0
  8  9  2  0
  8 10  1  0
 10 11  2  3
 10 17  1  0
 11 12  1  0
 11 13  1  0
 13 14  1  6
 13 15  1  0
 15 16  1  0
 17 18  2  0
 18 19  1  0
 20 19  1  1
 20 21  1  0
 20 26  1  0
 21 22  1  0
 22 23  2  0
 22 24  1  0
 24 25  1  0
 24 26  1  0
 26 27  2  0
M  END
