
     RDKit          3D

 26 28  0  0  0  0  0  0  0  0999 V2000
    2.8090   -3.0960   -1.9190 N   0  0  0  0  0  0  0  0  0  0  0  0
    3.1990   -2.1490   -1.2420 C   0  0  0  0  0  0  0  0  0  0  0  0
    3.7010   -0.9750   -0.3740 C   0  0  0  0  0  0  0  0  0  0  0  0
    2.7030   -0.2610    0.2620 C   0  0  0  0  0  0  0  0  0  0  0  0
    1.3720   -0.1550   -0.4100 C   0  0  0  0  0  0  0  0  0  0  0  0
    0.5900   -1.4430   -0.2620 N   0  0  0  0  0  0  0  0  0  0  0  0
   -0.8100   -1.1040   -0.2950 C   0  0  0  0  0  0  0  0  0  0  0  0
   -1.2560   -0.3000   -1.4100 C   0  0  0  0  0  0  0  0  0  0  0  0
   -2.5540    0.2640   -1.2280 C   0  0  0  0  0  0  0  0  0  0  0  0
   -3.3440    0.0700   -0.1600 C   0  0  0  0  0  0  0  0  0  0  0  0
   -4.7670    0.3990   -0.0000 C   0  0  0  0  0  0  0  0  0  0  0  0
   -5.6330    0.1960   -1.0970 C   0  0  0  0  0  0  0  0  0  0  0  0
   -7.0840    0.4230   -0.7980 C   0  0  0  0  0  0  0  0  0  0  0  0
   -7.3290    0.7490    0.3280 C   0  0  0  0  0  0  0  0  0  0  0  0
   -8.8650    0.8490    0.7060 F   0  0  0  0  0  0  0  0  0  0  0  0
   -6.7060    0.9890    1.5520 C   0  0  0  0  0  0  0  0  0  0  0  0
   -7.1830    1.3330    2.6310 F   0  0  0  0  0  0  0  0  0  0  0  0
   -5.2340    0.7630    1.2830 C   0  0  0  0  0  0  0  0  0  0  0  0
   -2.8600   -0.7510    0.9350 C   0  0  0  0  0  0  0  0  0  0  0  0
   -1.6540   -1.1910    0.6900 C   0  0  0  0  0  0  0  0  0  0  0  0
    5.0930   -1.0520   -0.2890 C   0  0  0  0  0  0  0  0  0  0  0  0
    6.2750   -0.8060   -0.0350 N   0  0  0  0  0  0  0  0  0  0  0  0
    7.0940    0.1230    0.3370 C   0  0  0  0  0  0  0  0  0  0  0  0
    6.2350    1.1330    0.4710 C   0  0  0  0  0  0  0  0  0  0  0  0
    6.4380    2.5090    0.9110 N   0  0  0  0  0  0  0  0  0  0  0  0
    4.9480    0.7390    0.1470 N   0  0  0  0  0  0  0  0  0  0  0  0
  1  2  3  0
  2  3  1  0
  3  4  1  0
  3 21  2  3
  4  5  1  0
  5  6  1  0
  6  7  1  0
  7  8  2  0
  7 20  1  0
  8  9  1  0
  9 10  2  0
 10 11  1  0
 10 19  1  0
 11 12  2  0
 11 18  1  0
 12 13  1  0
 13 14  2  0
 14 15  1  0
 14 16  1  0
 16 17  1  0
 16 18  2  0
 19 20  2  0
 21 22  1  0
 21 26  1  0
 22 23  1  0
 23 24  2  0
 24 25  1  0
 24 26  1  0
M  END
