
     RDKit          3D

 10  9  0  0  0  0  0  0  0  0999 V2000
    0.7240    1.5550   -0.7350 O   0  0  0  0  0  0  0  0  0  0  0  0
    0.9320    0.4110   -0.4000 C   0  0  0  0  0  0  0  0  0  0  0  0
    2.3300    0.1030    0.0840 C   0  0  0  0  0  0  0  0  0  0  0  0
    3.0580    1.2800    0.0170 O   0  0  0  0  0  0  0  0  0  0  0  0
   -0.0360   -0.6990   -0.4200 C   0  0  1  0  0  0  0  0  0  0  0  0
    0.6560   -1.9270   -0.1800 O   0  0  0  0  0  0  0  0  0  0  0  0
   -1.0600   -0.5250    0.6820 C   0  0  2  0  0  0  0  0  0  0  0  0
   -1.9090   -1.6810    0.6660 O   0  0  0  0  0  0  0  0  0  0  0  0
   -1.9730    0.6160    0.3970 C   0  0  0  0  0  0  0  0  0  0  0  0
   -1.4080    1.8550    0.4260 O   0  0  0  0  0  0  0  0  0  0  0  0
  1  2  2  0
  2  3  1  0
  2  5  1  0
  3  4  1  0
  5  6  1  1
  5  7  1  0
  7  8  1  6
  7  9  1  0
  9 10  1  0
M  END
