
     RDKit          3D

 25 27  0  0  0  0  0  0  0  0999 V2000
    0.1770    4.0050   -0.3280 C   0  0  0  0  0  0  0  0  0  0  0  0
   -0.0550    2.8980    0.6740 C   0  0  1  0  0  0  0  0  0  0  0  0
   -0.7750    3.5150    1.8540 C   0  0  0  0  0  0  0  0  0  0  0  0
   -0.9440    1.8100    0.1150 C   0  0  0  0  0  0  0  0  0  0  0  0
   -1.1200    0.7960    1.1190 N   0  0  0  0  0  0  0  0  0  0  0  0
   -1.9210   -0.3730    0.8800 C   0  0  0  0  0  0  0  0  0  0  0  0
   -2.0820   -1.3380    1.8490 C   0  0  0  0  0  0  0  0  0  0  0  0
   -2.8450   -2.4690    1.6470 C   0  0  0  0  0  0  0  0  0  0  0  0
   -3.4840   -2.6750    0.4450 C   0  0  0  0  0  0  0  0  0  0  0  0
   -4.2760   -3.6520   -0.0420 N   0  0  0  0  0  0  0  0  0  0  0  0
   -4.6460   -3.3710   -1.2940 C   0  0  0  0  0  0  0  0  0  0  0  0
   -4.0680   -2.1660   -1.6250 C   0  0  0  0  0  0  0  0  0  0  0  0
   -3.3400   -1.7250   -0.5430 C   0  0  0  0  0  0  0  0  0  0  0  0
   -2.5620   -0.5840   -0.3210 C   0  0  0  0  0  0  0  0  0  0  0  0
    1.1670    2.3110    1.1430 N   0  0  0  0  0  0  0  0  0  0  0  0
    2.1090    1.6700    0.2610 C   0  0  0  0  0  0  0  0  0  0  0  0
    2.0630    1.9100   -0.9930 N   0  0  0  0  0  0  0  0  0  0  0  0
    3.0970    0.7820    0.7620 N   0  0  0  0  0  0  0  0  0  0  0  0
    3.3840   -0.4470    0.1120 C   0  0  0  0  0  0  0  0  0  0  0  0
    2.5950   -0.9970   -0.8740 C   0  0  0  0  0  0  0  0  0  0  0  0
    2.9980   -2.1880   -1.4340 C   0  0  0  0  0  0  0  0  0  0  0  0
    4.1430   -2.8200   -1.0360 C   0  0  0  0  0  0  0  0  0  0  0  0
    4.4860   -3.9800   -1.6170 F   0  0  0  0  0  0  0  0  0  0  0  0
    4.9380   -2.2600   -0.0360 C   0  0  0  0  0  0  0  0  0  0  0  0
    4.5470   -1.0850    0.5210 C   0  0  0  0  0  0  0  0  0  0  0  0
  2  1  1  6
  2  3  1  0
  2  4  1  0
  2 15  1  0
  4  5  1  0
  5  6  1  0
  6  7  2  0
  6 14  1  0
  7  8  1  0
  8  9  2  0
  9 10  1  0
  9 13  1  0
 10 11  1  0
 11 12  2  0
 12 13  1  0
 13 14  2  0
 15 16  1  0
 16 17  2  0
 16 18  1  0
 18 19  1  0
 19 20  2  0
 19 25  1  0
 20 21  1  0
 21 22  2  0
 22 23  1  0
 22 24  1  0
 24 25  2  0
M  END
