
     RDKit          3D

 26 28  0  0  0  0  0  0  0  0999 V2000
   -7.9710    0.6190    0.6280 C   0  0  0  0  0  0  0  0  0  0  0  0
   -6.4900    0.5880    0.5180 C   0  0  0  0  0  0  0  0  0  0  0  0
   -5.7210    1.7040    0.2280 C   0  0  0  0  0  0  0  0  0  0  0  0
   -4.3650    1.6050    0.0600 N   0  0  0  0  0  0  0  0  0  0  0  0
   -3.7010    0.4530    0.1610 C   0  0  0  0  0  0  0  0  0  0  0  0
   -2.2770    0.3060   -0.1050 C   0  0  0  0  0  0  0  0  0  0  0  0
   -1.7480    1.0060   -1.1590 C   0  0  0  0  0  0  0  0  0  0  0  0
   -0.4670    0.8340   -1.5870 C   0  0  0  0  0  0  0  0  0  0  0  0
    0.3640   -0.0910   -0.9180 C   0  0  0  0  0  0  0  0  0  0  0  0
    1.6470   -0.3090   -1.3970 N   0  0  0  0  0  0  0  0  0  0  0  0
    2.7870   -1.0970   -1.1330 C   0  0  0  0  0  0  0  0  0  0  0  0
    3.6750   -0.7180   -0.0010 C   0  0  0  0  0  0  0  0  0  0  0  0
    3.7170   -1.2510    1.2390 C   0  0  0  0  0  0  0  0  0  0  0  0
    4.7450   -1.0560    2.1530 C   0  0  0  0  0  0  0  0  0  0  0  0
    4.7360   -1.6250    3.3740 F   0  0  0  0  0  0  0  0  0  0  0  0
    5.8360   -0.2530    1.7870 C   0  0  0  0  0  0  0  0  0  0  0  0
    5.8240    0.3070    0.5290 C   0  0  0  0  0  0  0  0  0  0  0  0
    6.8460    1.2840    0.0340 C   0  0  0  0  0  0  0  0  0  0  0  0
    7.6160    0.7000   -0.9320 F   0  0  0  0  0  0  0  0  0  0  0  0
    4.7860    0.0830   -0.3300 C   0  0  0  0  0  0  0  0  0  0  0  0
    4.6910    0.6840   -1.6220 N   0  0  0  0  0  0  0  0  0  0  0  0
   -0.1850   -0.7360    0.1040 N   0  0  0  0  0  0  0  0  0  0  0  0
   -1.4360   -0.5870    0.5290 C   0  0  0  0  0  0  0  0  0  0  0  0
   -4.4680   -0.6910    0.4670 C   0  0  0  0  0  0  0  0  0  0  0  0
   -3.8130   -1.9390    0.6510 N   0  0  0  0  0  0  0  0  0  0  0  0
   -5.8180   -0.6260    0.6360 C   0  0  0  0  0  0  0  0  0  0  0  0
  1  2  1  0
  2  3  2  0
  2 26  1  0
  3  4  1  0
  4  5  2  0
  5  6  1  0
  5 24  1  0
  6  7  2  0
  6 23  1  0
  7  8  1  0
  8  9  2  0
  9 10  1  0
  9 22  1  0
 10 11  1  0
 11 12  1  0
 12 13  2  0
 12 20  1  0
 13 14  1  0
 14 15  1  0
 14 16  2  0
 16 17  1  0
 17 18  1  0
 17 20  2  0
 18 19  1  0
 20 21  1  0
 22 23  2  0
 24 25  1  0
 24 26  2  0
M  END
