
     RDKit          3D

 27 29  0  0  0  0  0  0  0  0999 V2000
    7.4030    1.4380   -0.0400 C   0  0  0  0  0  0  0  0  0  0  0  0
    6.0350    0.9540   -0.0420 N   0  0  0  0  0  0  0  0  0  0  0  0
    5.4150    0.1190    0.9250 C   0  0  0  0  0  0  0  0  0  0  0  0
    5.9390   -0.3630    1.9780 O   0  0  0  0  0  0  0  0  0  0  0  0
    4.0420   -0.1290    0.5470 C   0  0  0  0  0  0  0  0  0  0  0  0
    2.8120   -0.7260    0.8000 C   0  0  0  0  0  0  0  0  0  0  0  0
    1.9390   -0.3920   -0.2160 C   0  0  0  0  0  0  0  0  0  0  0  0
    0.5100   -0.8020   -0.3710 C   0  0  0  0  0  0  0  0  0  0  0  0
   -0.3430    0.1930    0.3160 C   0  0  1  0  0  0  0  0  0  0  0  0
    0.0750    0.1610    1.6940 O   0  0  0  0  0  0  0  0  0  0  0  0
    0.0340    1.5810   -0.1270 C   0  0  0  0  0  0  0  0  0  0  0  0
   -0.2140    1.8630   -1.4510 O   0  0  0  0  0  0  0  0  0  0  0  0
   -1.8230   -0.0860    0.3260 C   0  0  2  0  0  0  0  0  0  0  0  0
   -2.0810   -1.3820    1.0280 C   0  0  0  0  0  0  0  0  0  0  0  0
   -2.3690   -2.5720    0.2120 C   0  0  1  0  0  0  0  0  0  0  0  0
   -3.3260   -3.4170    0.9510 N   0  0  0  0  0  0  0  0  0  0  0  0
   -3.0340   -2.2860   -1.0820 C   0  0  0  0  0  0  0  0  0  0  0  0
   -3.2770   -3.2600   -1.8400 O   0  0  0  0  0  0  0  0  0  0  0  0
   -3.3620   -0.9620   -1.4100 N   0  0  0  0  0  0  0  0  0  0  0  0
   -2.5600    0.1560   -0.9300 C   0  0  1  0  0  0  0  0  0  0  0  0
   -3.4330    1.4230   -0.8920 C   0  0  0  0  0  0  0  0  0  0  0  0
   -4.4780    1.3550    0.1920 C   0  0  0  0  0  0  0  0  0  0  0  0
   -5.3500    0.2920    0.0510 O   0  0  0  0  0  0  0  0  0  0  0  0
    2.6240    0.3710   -1.0350 O   0  0  0  0  0  0  0  0  0  0  0  0
    3.8400    0.5550   -0.6440 C   0  0  0  0  0  0  0  0  0  0  0  0
    5.0660    1.2440   -1.0430 C   0  0  0  0  0  0  0  0  0  0  0  0
    5.2210    1.9580   -2.0810 O   0  0  0  0  0  0  0  0  0  0  0  0
  1  2  1  0
  2  3  1  0
  2 26  1  0
  3  4  2  0
  3  5  1  0
  5  6  1  0
  5 25  2  0
  6  7  2  0
  7  8  1  0
  7 24  1  0
  8  9  1  0
  9 10  1  1
  9 11  1  0
  9 13  1  0
 11 12  1  0
 13 14  1  6
 13 20  1  0
 14 15  1  0
 15 16  1  1
 15 17  1  0
 17 18  2  0
 17 19  1  0
 19 20  1  0
 20 21  1  1
 21 22  1  0
 22 23  1  0
 24 25  1  0
 25 26  1  0
 26 27  2  0
M  END
