
     RDKit          3D

 27 28  0  0  0  0  0  0  0  0999 V2000
   -1.0730   -4.9520   -0.0330 C   0  0  0  0  0  0  0  0  0  0  0  0
   -0.6240   -3.6110   -0.0530 O   0  0  0  0  0  0  0  0  0  0  0  0
   -1.5480   -2.5990    0.0140 C   0  0  0  0  0  0  0  0  0  0  0  0
   -2.7430   -2.8920    0.0900 O   0  0  0  0  0  0  0  0  0  0  0  0
   -1.1500   -1.1680   -0.0030 C   0  0  0  0  0  0  0  0  0  0  0  0
    0.1090   -0.9390   -0.0940 C   0  0  0  0  0  0  0  0  0  0  0  0
    0.9020    0.2650   -0.1290 C   0  0  0  0  0  0  0  0  0  0  0  0
    0.4410    1.4270   -0.0300 O   0  0  0  0  0  0  0  0  0  0  0  0
    2.3130    0.1520   -0.2870 N   0  0  0  0  0  0  0  0  0  0  0  0
    3.0710   -1.0450   -0.4040 C   0  0  0  0  0  0  0  0  0  0  0  0
    4.4010   -0.6760    0.2700 C   0  0  2  0  0  0  0  0  0  0  0  0
    4.1590   -0.6900    1.6340 O   0  0  0  0  0  0  0  0  0  0  0  0
    4.6040    0.7210   -0.2200 C   0  0  2  0  0  0  0  0  0  0  0  0
    5.3540    1.5930    0.7380 C   0  0  0  0  0  0  0  0  0  0  0  0
    6.7380    1.0680    1.0430 C   0  0  0  0  0  0  0  0  0  0  0  0
    7.4720    0.9960   -0.1390 O   0  0  0  0  0  0  0  0  0  0  0  0
    3.2110    1.2730   -0.3670 C   0  0  0  0  0  0  0  0  0  0  0  0
   -2.2200   -0.2090   -0.0750 C   0  0  0  0  0  0  0  0  0  0  0  0
   -3.4990   -0.4100    0.4790 C   0  0  0  0  0  0  0  0  0  0  0  0
   -4.3400    0.6300    0.1570 C   0  0  0  0  0  0  0  0  0  0  0  0
   -5.7090    0.7820    0.5360 N   0  0  0  0  0  0  0  0  0  0  0  0
   -6.5190    1.8780    0.1720 C   0  0  0  0  0  0  0  0  0  0  0  0
   -6.0370    2.7930   -0.5280 O   0  0  0  0  0  0  0  0  0  0  0  0
   -7.9560    1.9650    0.6120 C   0  0  0  0  0  0  0  0  0  0  0  0
   -8.4780    3.1360    0.1060 O   0  0  0  0  0  0  0  0  0  0  0  0
   -3.5880    1.4800   -0.5980 C   0  0  0  0  0  0  0  0  0  0  0  0
   -2.3410    0.9580   -0.7190 N   0  0  0  0  0  0  0  0  0  0  0  0
  1  2  1  0
  2  3  1  0
  3  4  2  0
  3  5  1  0
  5  6  2  3
  5 18  1  0
  6  7  1  0
  7  8  2  0
  7  9  1  0
  9 10  1  0
  9 17  1  0
 10 11  1  0
 11 12  1  1
 11 13  1  0
 13 14  1  1
 13 17  1  0
 14 15  1  0
 15 16  1  0
 18 19  2  0
 18 27  1  0
 19 20  1  0
 20 21  1  0
 20 26  2  0
 21 22  1  0
 22 23  2  0
 22 24  1  0
 24 25  1  0
 26 27  1  0
M  END
