
     RDKit          3D

 27 28  0  0  0  0  0  0  0  0999 V2000
    6.6040   -0.8730    1.1340 C   0  0  0  0  0  0  0  0  0  0  0  0
    5.2790   -1.3820    0.7420 C   0  0  0  0  0  0  0  0  0  0  0  0
    4.1960   -0.7210    1.0170 C   0  0  0  0  0  0  0  0  0  0  0  0
    2.8810   -1.2840    0.5960 C   0  0  0  0  0  0  0  0  0  0  0  0
    2.2830   -0.3610   -0.2630 O   0  0  0  0  0  0  0  0  0  0  0  0
    2.8220    0.0690   -1.4590 C   0  0  0  0  0  0  0  0  0  0  0  0
    3.9420   -0.4050   -1.8060 O   0  0  0  0  0  0  0  0  0  0  0  0
    2.1160    1.0260   -2.2680 C   0  0  0  0  0  0  0  0  0  0  0  0
    0.9630    1.5100   -1.8980 C   0  0  0  0  0  0  0  0  0  0  0  0
    0.2600    1.1410   -0.6310 C   0  0  0  0  0  0  0  0  0  0  0  0
   -0.9640    2.0300   -0.5970 C   0  0  0  0  0  0  0  0  0  0  0  0
   -1.8140    1.8880   -1.8110 C   0  0  2  0  0  0  0  0  0  0  0  0
   -2.5310    0.6080   -1.9360 C   0  0  0  0  0  0  0  0  0  0  0  0
   -3.4260    0.1070   -1.0010 N   0  0  0  0  0  0  0  0  0  0  0  0
   -3.2720   -0.3650    0.3160 C   0  0  0  0  0  0  0  0  0  0  0  0
   -2.1480   -0.3970    0.8230 O   0  0  0  0  0  0  0  0  0  0  0  0
   -4.4320   -0.8350    1.1370 C   0  0  1  0  0  0  0  0  0  0  0  0
   -5.0400   -2.0960    0.6020 C   0  0  0  0  0  0  0  0  0  0  0  0
   -5.6780   -2.6540    1.7800 N   0  0  0  0  0  0  0  0  0  0  0  0
   -4.8420   -2.2650    2.8720 C   0  0  0  0  0  0  0  0  0  0  0  0
   -4.8600   -2.7170    4.0560 O   0  0  0  0  0  0  0  0  0  0  0  0
   -3.9390   -1.2500    2.4300 N   0  0  0  0  0  0  0  0  0  0  0  0
   -1.0280    1.9980   -2.9840 O   0  0  0  0  0  0  0  0  0  0  0  0
    0.2200    2.5070   -2.7520 C   0  0  0  0  0  0  0  0  0  0  0  0
    4.2010    0.5320    1.7110 C   0  0  0  0  0  0  0  0  0  0  0  0
    5.2660    1.0550    2.0900 O   0  0  0  0  0  0  0  0  0  0  0  0
    3.0230    1.2350    2.0010 O   0  0  0  0  0  0  0  0  0  0  0  0
  1  2  1  0
  2  3  2  3
  3  4  1  0
  3 25  1  0
  4  5  1  0
  5  6  1  0
  6  7  2  0
  6  8  1  0
  8  9  2  3
  9 10  1  0
  9 24  1  0
 10 11  1  0
 11 12  1  0
 12 13  1  1
 12 23  1  0
 13 14  1  0
 14 15  1  0
 15 16  2  0
 17 15  1  6
 17 18  1  0
 17 22  1  0
 18 19  1  0
 19 20  1  0
 20 21  2  0
 20 22  1  0
 23 24  1  0
 25 26  2  0
 25 27  1  0
M  END
