
     RDKit          3D

 23 25  0  0  0  0  0  0  0  0999 V2000
   -2.2120    3.7880   -0.5050 C   0  0  0  0  0  0  0  0  0  0  0  0
   -1.6660    2.4390   -0.4580 N   0  0  0  0  0  0  0  0  0  0  0  0
   -2.5480    1.5310    0.2540 C   0  0  0  0  0  0  0  0  0  0  0  0
   -2.4340    0.1290   -0.2430 C   0  0  2  0  0  0  0  0  0  0  0  0
   -3.3860   -0.7400    0.5550 C   0  0  1  0  0  0  0  0  0  0  0  0
   -5.1480   -0.0060    0.6660 Br  0  0  0  0  0  0  0  0  0  0  0  0
   -3.4160   -2.0900   -0.1230 C   0  0  1  0  0  0  0  0  0  0  0  0
   -4.2940   -2.9890    0.7210 C   0  0  0  0  0  0  0  0  0  0  0  0
   -4.0610   -2.0150   -1.4910 C   0  0  0  0  0  0  0  0  0  0  0  0
   -2.0820   -2.7220   -0.2770 C   0  0  0  0  0  0  0  0  0  0  0  0
   -0.9540   -1.7430   -0.0710 C   0  0  0  0  0  0  0  0  0  0  0  0
    0.3530   -2.0150    0.1250 N   0  0  0  0  0  0  0  0  0  0  0  0
    1.0250   -0.8610    0.2660 C   0  0  0  0  0  0  0  0  0  0  0  0
    2.4700   -0.7550    0.4950 C   0  0  2  0  0  0  0  0  0  0  0  0
    2.8340    0.0470    1.7000 C   0  0  0  0  0  0  0  0  0  0  0  0
    4.1660    0.7060    1.5780 C   0  0  2  0  0  0  0  0  0  0  0  0
    4.0480    2.1900    1.2970 C   0  0  0  0  0  0  0  0  0  0  0  0
    5.0470    0.1160    0.7170 O   0  0  0  0  0  0  0  0  0  0  0  0
    4.5860   -0.2140   -0.5230 C   0  0  2  0  0  0  0  0  0  0  0  0
    5.2840    0.4580   -1.6620 C   0  0  0  0  0  0  0  0  0  0  0  0
    3.0940   -0.0090   -0.6950 C   0  0  0  0  0  0  0  0  0  0  0  0
    0.0990    0.0950    0.1510 N   0  0  0  0  0  0  0  0  0  0  0  0
   -1.1060   -0.4290   -0.0540 N   0  0  0  0  0  0  0  0  0  0  0  0
  1  2  1  0
  2  3  1  0
  4  3  1  1
  4  5  1  0
  4 23  1  0
  5  6  1  6
  5  7  1  0
  7  8  1  1
  7  9  1  0
  7 10  1  0
 10 11  1  0
 11 12  2  0
 11 23  1  0
 12 13  1  0
 14 13  1  6
 13 22  2  0
 14 15  1  0
 14 21  1  0
 15 16  1  0
 16 17  1  6
 16 18  1  0
 18 19  1  0
 19 20  1  6
 19 21  1  0
 22 23  1  0
M  CHG  1   2   1
M  END
