
     RDKit          3D

 24 25  0  0  0  0  0  0  0  0999 V2000
    0.0310   -1.6160   -1.4040 O   0  0  0  0  0  0  0  0  0  0  0  0
    0.0770   -1.5830   -0.1990 C   0  0  0  0  0  0  0  0  0  0  0  0
    1.0120   -2.4460    0.5470 C   0  0  0  0  0  0  0  0  0  0  0  0
    2.3450   -1.7870    0.8510 C   0  0  0  0  0  0  0  0  0  0  0  0
    3.1740   -1.4960   -0.3520 C   0  0  0  0  0  0  0  0  0  0  0  0
    4.2430   -0.4980   -0.1620 C   0  0  0  0  0  0  0  0  0  0  0  0
    3.9380    0.8970   -0.7360 C   0  0  0  0  0  0  0  0  0  0  0  0
    2.6340    1.3910   -0.1950 C   0  0  0  0  0  0  0  0  0  0  0  0
    2.2220    2.4050    0.4910 C   0  0  0  0  0  0  0  0  0  0  0  0
    0.8890    2.8540    1.0120 C   0  0  0  0  0  0  0  0  0  0  0  0
   -0.1310    3.1560   -0.0810 C   0  0  0  0  0  0  0  0  0  0  0  0
   -1.1690    2.3150   -0.1450 O   0  0  0  0  0  0  0  0  0  0  0  0
   -2.3650    1.9150    0.2240 C   0  0  0  0  0  0  0  0  0  0  0  0
   -3.2730    2.5670    0.8990 O   0  0  0  0  0  0  0  0  0  0  0  0
   -2.8740    0.5600   -0.1100 C   0  0  0  0  0  0  0  0  0  0  0  0
   -4.1880    0.4720   -0.5990 C   0  0  0  0  0  0  0  0  0  0  0  0
   -4.9750    1.6070   -0.7550 O   0  0  0  0  0  0  0  0  0  0  0  0
   -4.7470   -0.7490   -0.9430 C   0  0  0  0  0  0  0  0  0  0  0  0
   -4.0250   -1.9100   -0.8120 C   0  0  0  0  0  0  0  0  0  0  0  0
   -4.5850   -3.1590   -1.1600 O   0  0  0  0  0  0  0  0  0  0  0  0
   -2.7380   -1.8490   -0.3340 C   0  0  0  0  0  0  0  0  0  0  0  0
   -1.8370   -3.3370   -0.1690 Cl  0  0  0  0  0  0  0  0  0  0  0  0
   -2.1990   -0.6070    0.0050 C   0  0  0  0  0  0  0  0  0  0  0  0
   -0.8120   -0.6680    0.5410 C   0  0  0  0  0  0  0  0  0  0  0  0
  1  2  2  0
  2  3  1  0
  2 24  1  0
  3  4  1  0
  4  5  1  0
  5  6  1  0
  6  7  1  0
  7  8  1  0
  8  9  2  0
  9 10  1  0
 10 11  1  0
 11 12  1  0
 12 13  1  0
 13 14  2  0
 13 15  1  0
 15 16  2  0
 15 23  1  0
 16 17  1  0
 16 18  1  0
 18 19  2  0
 19 20  1  0
 19 21  1  0
 21 22  1  0
 21 23  2  0
 23 24  1  0
M  END
