
     RDKit          3D

 23 25  0  0  0  0  0  0  0  0999 V2000
    0.4210    3.6700   -0.1620 C   0  0  0  0  0  0  0  0  0  0  0  0
   -0.4310    2.4630   -0.3450 C   0  0  0  0  0  0  0  0  0  0  0  0
   -1.7960    2.4900   -0.5080 N   0  0  0  0  0  0  0  0  0  0  0  0
   -2.2260    1.2500   -0.6410 C   0  0  0  0  0  0  0  0  0  0  0  0
   -3.6270    0.7430   -0.8440 C   0  0  1  0  0  0  0  0  0  0  0  0
   -3.6370   -0.7470   -0.7620 C   0  0  0  0  0  0  0  0  0  0  0  0
   -4.9240   -1.2870   -0.3710 N   0  0  1  0  0  0  0  0  0  0  0  0
   -4.7410   -2.7220   -0.2050 C   0  0  0  0  0  0  0  0  0  0  0  0
   -5.3500   -0.7230    0.8770 C   0  0  0  0  0  0  0  0  0  0  0  0
   -4.7830    0.6390    1.1420 C   0  0  0  0  0  0  0  0  0  0  0  0
   -4.5200    1.3590   -0.0030 O   0  0  0  0  0  0  0  0  0  0  0  0
   -1.1380    0.4810   -0.5600 N   0  0  0  0  0  0  0  0  0  0  0  0
   -0.0270    1.2100   -0.3790 N   0  0  0  0  0  0  0  0  0  0  0  0
    1.2250    0.5600   -0.2740 C   0  0  0  0  0  0  0  0  0  0  0  0
    2.3590    1.1480   -0.1110 C   0  0  0  0  0  0  0  0  0  0  0  0
    3.6080    0.3990   -0.0180 C   0  0  0  0  0  0  0  0  0  0  0  0
    4.7800    1.0320    0.2050 C   0  0  0  0  0  0  0  0  0  0  0  0
    6.0610    0.3280    0.3090 C   0  0  0  0  0  0  0  0  0  0  0  0
    6.0400   -1.1390    0.3870 C   0  0  0  0  0  0  0  0  0  0  0  0
    4.6800   -1.7200    0.7130 C   0  0  0  0  0  0  0  0  0  0  0  0
    3.7360   -1.0250   -0.2190 C   0  0  0  0  0  0  0  0  0  0  0  0
    3.1130   -1.6190   -1.2070 C   0  0  0  0  0  0  0  0  0  0  0  0
    3.3740   -3.5230   -1.3450 Br  0  0  0  0  0  0  0  0  0  0  0  0
  1  2  1  0
  2  3  2  0
  2 13  1  0
  3  4  1  0
  5  4  1  1
  4 12  2  0
  5  6  1  0
  5 11  1  0
  6  7  1  0
  7  8  1  1
  7  9  1  0
  9 10  1  0
 10 11  1  0
 12 13  1  0
 13 14  1  0
 14 15  2  3
 15 16  1  0
 16 17  2  0
 16 21  1  0
 17 18  1  0
 18 19  1  0
 19 20  1  0
 20 21  1  0
 21 22  2  3
 22 23  1  0
M  CHG  1   7   1
M  END
