
     RDKit          3D

 23 24  0  0  0  0  0  0  0  0999 V2000
    7.0510    0.2690   -1.8360 C   0  0  0  0  0  0  0  0  0  0  0  0
    6.4370    0.0040   -0.5710 N   0  0  0  0  0  0  0  0  0  0  0  0
    7.0290   -0.4820    0.4440 C   0  0  0  0  0  0  0  0  0  0  0  0
    6.3410   -0.7020    1.6270 O   0  0  0  0  0  0  0  0  0  0  0  0
    4.9780   -0.8340    1.5480 N   0  0  0  0  0  0  0  0  0  0  0  0
    4.2030    0.1580    1.3740 C   0  0  0  0  0  0  0  0  0  0  0  0
    2.7540   -0.0800    1.3030 C   0  0  0  0  0  0  0  0  0  0  0  0
    1.8980    0.8920    1.1260 C   0  0  0  0  0  0  0  0  0  0  0  0
    0.4650    0.7210    1.0640 N   0  0  2  0  0  0  0  0  0  0  0  0
    0.0850    1.1250    2.4580 C   0  0  0  0  0  0  0  0  0  0  0  0
    0.0360   -0.5770    0.8140 C   0  0  0  0  0  0  0  0  0  0  0  0
   -1.1000   -0.9290    0.3310 C   0  0  0  0  0  0  0  0  0  0  0  0
   -2.3110   -0.2740   -0.1290 C   0  0  1  0  0  0  0  0  0  0  0  0
   -2.5050    1.1680    0.0300 C   0  0  0  0  0  0  0  0  0  0  0  0
   -3.9240    1.6430   -0.1210 C   0  0  0  0  0  0  0  0  0  0  0  0
   -4.9690    0.6400    0.1690 C   0  0  2  0  0  0  0  0  0  0  0  0
   -5.0090    0.1320    2.0510 Br  0  0  0  0  0  0  0  0  0  0  0  0
   -4.9810   -0.5450   -0.7440 C   0  0  0  0  0  0  0  0  0  0  0  0
   -4.0240   -0.4070   -1.8970 C   0  0  0  0  0  0  0  0  0  0  0  0
   -2.5890   -0.6110   -1.5940 C   0  0  2  0  0  0  0  0  0  0  0  0
   -2.2290   -2.0580   -1.8800 C   0  0  0  0  0  0  0  0  0  0  0  0
    1.0040   -1.6430    1.0570 N   0  0  0  0  0  0  0  0  0  0  0  0
    2.2350   -1.4520    1.2730 C   0  0  0  0  0  0  0  0  0  0  0  0
  1  2  1  0
  2  3  2  3
  3  4  1  0
  4  5  1  0
  5  6  2  3
  6  7  1  0
  7  8  2  0
  7 23  1  0
  8  9  1  0
  9 10  1  1
  9 11  1  0
 11 12  2  3
 11 22  1  0
 13 12  1  6
 13 14  1  0
 13 20  1  0
 14 15  1  0
 15 16  1  0
 16 17  1  1
 16 18  1  0
 18 19  1  0
 19 20  1  0
 20 21  1  1
 22 23  2  0
M  CHG  1   9   1
M  END
