
     RDKit          3D

 23 25  0  0  0  0  0  0  0  0999 V2000
    4.4430    2.4090    1.3370 C   0  0  0  0  0  0  0  0  0  0  0  0
    3.6800    1.1490    1.2110 C   0  0  0  0  0  0  0  0  0  0  0  0
    3.2860    0.6470   -0.0960 C   0  0  0  0  0  0  0  0  0  0  0  0
    2.6250   -0.4470   -0.1860 N   0  0  0  0  0  0  0  0  0  0  0  0
    2.2020   -1.0110   -1.3740 N   0  0  0  0  0  0  0  0  0  0  0  0
    0.9470   -1.0730   -1.6380 C   0  0  0  0  0  0  0  0  0  0  0  0
    0.4420   -1.6900   -2.9450 C   0  0  2  0  0  0  0  0  0  0  0  0
    0.7540   -0.8380   -4.1160 C   0  0  0  0  0  0  0  0  0  0  0  0
   -1.0680   -1.7280   -2.6200 C   0  0  2  0  0  0  0  0  0  0  0  0
   -1.1060   -0.2960   -1.9780 C   0  0  0  0  0  0  0  0  0  0  0  0
   -0.2040   -0.6680   -0.9060 N   0  0  0  0  0  0  0  0  0  0  0  0
   -0.2930   -0.7820    0.5210 C   0  0  1  0  0  0  0  0  0  0  0  0
   -0.7880    0.3500    1.2750 C   0  0  1  0  0  0  0  0  0  0  0  0
   -1.3910    1.4570    0.6000 N   0  0  1  0  0  0  0  0  0  0  0  0
   -2.8620    1.4130    0.6430 C   0  0  0  0  0  0  0  0  0  0  0  0
   -1.0790    2.7270    1.2930 C   0  0  0  0  0  0  0  0  0  0  0  0
   -1.7110   -0.2480    2.3270 C   0  0  0  0  0  0  0  0  0  0  0  0
   -2.0340   -1.6300    1.8810 C   0  0  0  0  0  0  0  0  0  0  0  0
   -1.1980   -2.0050    0.7250 C   0  0  1  0  0  0  0  0  0  0  0  0
   -1.9850   -2.3250   -0.5380 C   0  0  0  0  0  0  0  0  0  0  0  0
   -1.2050   -2.6540   -1.5970 O   0  0  0  0  0  0  0  0  0  0  0  0
    3.3550    0.4760    2.3010 C   0  0  0  0  0  0  0  0  0  0  0  0
    3.8550    1.1040    4.0270 Br  0  0  0  0  0  0  0  0  0  0  0  0
  1  2  1  0
  2  3  1  0
  2 22  2  3
  3  4  2  3
  4  5  1  0
  5  6  2  3
  6  7  1  0
  6 11  1  0
  7  8  1  6
  7  9  1  0
  9 10  1  0
  9 21  1  1
 10 11  1  0
 12 11  1  6
 12 13  1  0
 12 19  1  0
 13 14  1  0
 13 17  1  1
 14 15  1  1
 14 16  1  0
 17 18  1  0
 19 18  1  1
 19 20  1  0
 20 21  1  0
 22 23  1  0
M  CHG  1  14   1
M  END
