
     RDKit          3D

 24 26  0  0  0  0  0  0  0  0999 V2000
    5.1740    1.7940    0.7990 C   0  0  0  0  0  0  0  0  0  0  0  0
    4.3530    1.1160    0.0810 O   0  0  0  0  0  0  0  0  0  0  0  0
    3.5190    0.4370   -0.5970 C   0  0  0  0  0  0  0  0  0  0  0  0
    3.6040    0.2020   -1.9700 C   0  0  0  0  0  0  0  0  0  0  0  0
    2.6900   -0.5360   -2.6620 C   0  0  0  0  0  0  0  0  0  0  0  0
    2.9570   -0.7860   -4.3820 Cl  0  0  0  0  0  0  0  0  0  0  0  0
    1.6250   -1.0830   -2.0220 C   0  0  0  0  0  0  0  0  0  0  0  0
    1.4400   -0.9130   -0.6600 C   0  0  0  0  0  0  0  0  0  0  0  0
    2.3800   -0.1730   -0.0200 C   0  0  0  0  0  0  0  0  0  0  0  0
    0.5010   -1.4820    0.2450 C   0  0  0  0  0  0  0  0  0  0  0  0
   -0.9490   -1.6520    0.0220 C   0  0  1  0  0  0  0  0  0  0  0  0
   -1.6660   -0.4060    0.4640 C   0  0  0  0  0  0  0  0  0  0  0  0
   -1.1620    0.8020   -0.0410 C   0  0  0  0  0  0  0  0  0  0  0  0
   -1.6790    1.9520    0.2620 C   0  0  0  0  0  0  0  0  0  0  0  0
   -1.2070    3.2110   -0.2400 O   0  0  0  0  0  0  0  0  0  0  0  0
   -2.7940    2.0540    1.1540 C   0  0  0  0  0  0  0  0  0  0  0  0
   -3.3100    0.8880    1.6670 C   0  0  0  0  0  0  0  0  0  0  0  0
   -4.3590    0.8920    2.7020 C   0  0  0  0  0  0  0  0  0  0  0  0
   -2.7250   -0.3740    1.2910 C   0  0  0  0  0  0  0  0  0  0  0  0
   -3.3230   -1.4460    1.8480 O   0  0  0  0  0  0  0  0  0  0  0  0
   -1.3500   -2.2170   -1.2890 C   0  0  0  0  0  0  0  0  0  0  0  0
   -0.6870   -1.9090   -2.5230 C   0  0  0  0  0  0  0  0  0  0  0  0
   -1.3760   -1.6930   -3.5280 O   0  0  0  0  0  0  0  0  0  0  0  0
    0.7240   -1.8150   -2.7850 O   0  0  0  0  0  0  0  0  0  0  0  0
  1  2  1  0
  2  3  1  0
  3  4  2  0
  3  9  1  0
  4  5  1  0
  5  6  1  0
  5  7  2  0
  7  8  1  0
  7 24  1  0
  8  9  2  0
  8 10  1  0
 10 11  1  0
 11 12  1  6
 11 21  1  0
 12 13  2  0
 12 19  1  0
 13 14  1  0
 14 15  1  0
 14 16  2  0
 16 17  1  0
 17 18  1  0
 17 19  2  0
 19 20  1  0
 21 22  1  0
 22 23  2  0
 22 24  1  0
M  END
