
     RDKit          3D

 23 24  0  0  0  0  0  0  0  0999 V2000
    5.2760    1.1640   -0.6390 C   0  0  0  0  0  0  0  0  0  0  0  0
    4.0650    1.3430    0.2610 C   0  0  0  0  0  0  0  0  0  0  0  0
    3.1680    0.1120    0.0730 C   0  0  0  0  0  0  0  0  0  0  0  0
    1.9390    0.2280    0.9460 C   0  0  1  0  0  0  0  0  0  0  0  0
    1.1940    1.5000    0.5150 C   0  0  0  0  0  0  0  0  0  0  0  0
   -0.2630    1.4220    0.8840 C   0  0  0  0  0  0  0  0  0  0  0  0
   -1.1860    1.6500   -0.1760 N   0  0  1  0  0  0  0  0  0  0  0  0
   -0.7540    2.6690   -1.1140 C   0  0  0  0  0  0  0  0  0  0  0  0
   -0.3010    3.9260   -0.4520 C   0  0  0  0  0  0  0  0  0  0  0  0
   -1.5880    0.4870   -0.8960 C   0  0  0  0  0  0  0  0  0  0  0  0
   -2.6420   -0.3420   -0.1710 C   0  0  1  0  0  0  0  0  0  0  0  0
   -3.9370    0.4320   -0.2340 C   0  0  0  0  0  0  0  0  0  0  0  0
   -2.7930   -1.7310   -0.8150 C   0  0  0  0  0  0  0  0  0  0  0  0
   -2.1080   -2.7520   -0.0480 N   0  0  0  0  0  0  0  0  0  0  0  0
   -1.2650   -3.6270   -0.9320 C   0  0  0  0  0  0  0  0  0  0  0  0
    0.0130   -3.9190   -0.1760 C   0  0  0  0  0  0  0  0  0  0  0  0
    0.9200   -5.4550   -0.8530 Br  0  0  0  0  0  0  0  0  0  0  0  0
    0.2480   -3.0830    0.7880 C   0  0  0  0  0  0  0  0  0  0  0  0
   -0.6930   -2.9610    1.9430 C   0  0  0  0  0  0  0  0  0  0  0  0
   -2.0730   -3.0360    1.3100 C   0  0  0  0  0  0  0  0  0  0  0  0
   -2.9300   -3.3500    2.1720 O   0  0  0  0  0  0  0  0  0  0  0  0
    1.3330   -2.1300    0.9060 N   0  0  0  0  0  0  0  0  0  0  0  0
    1.1390   -0.9140    0.8650 N   0  0  0  0  0  0  0  0  0  0  0  0
  1  2  1  0
  2  3  1  0
  4  3  1  6
  4  5  1  0
  4 23  1  0
  5  6  1  0
  6  7  1  0
  7  8  1  6
  7 10  1  0
  8  9  1  0
 10 11  1  0
 11 12  1  6
 11 13  1  0
 13 14  1  0
 14 15  1  0
 14 20  1  0
 15 16  1  0
 16 17  1  0
 16 18  2  0
 18 19  1  0
 18 22  1  0
 19 20  1  0
 20 21  2  0
 22 23  2  0
M  CHG  1   7   1
M  END
