
     RDKit          3D

 24 25  0  0  0  0  0  0  0  0999 V2000
   -3.7100   -2.8130    0.5210 C   0  0  0  0  0  0  0  0  0  0  0  0
   -3.0910   -1.4790    0.2170 C   0  0  0  0  0  0  0  0  0  0  0  0
   -2.4190   -1.2900   -0.9040 C   0  0  0  0  0  0  0  0  0  0  0  0
   -1.8030    0.0270   -1.2120 C   0  0  0  0  0  0  0  0  0  0  0  0
   -2.0770    0.9930   -0.1390 C   0  0  0  0  0  0  0  0  0  0  0  0
   -3.3060    1.5950   -0.0230 C   0  0  0  0  0  0  0  0  0  0  0  0
   -4.3030    1.2840   -0.9360 O   0  0  0  0  0  0  0  0  0  0  0  0
   -3.5640    2.5030    0.9850 C   0  0  0  0  0  0  0  0  0  0  0  0
   -2.5930    2.8330    1.9090 C   0  0  0  0  0  0  0  0  0  0  0  0
   -2.9440    3.9890    3.1810 Cl  0  0  0  0  0  0  0  0  0  0  0  0
   -1.3700    2.2200    1.7750 C   0  0  0  0  0  0  0  0  0  0  0  0
   -1.0950    1.3110    0.7740 C   0  0  0  0  0  0  0  0  0  0  0  0
    0.1400    0.6890    0.6360 O   0  0  0  0  0  0  0  0  0  0  0  0
    1.1630    1.1700   -0.1550 C   0  0  0  0  0  0  0  0  0  0  0  0
    0.9330    2.2470   -0.7840 O   0  0  0  0  0  0  0  0  0  0  0  0
    2.4490    0.5300   -0.3020 C   0  0  0  0  0  0  0  0  0  0  0  0
    2.6450   -0.6010    0.3820 C   0  0  0  0  0  0  0  0  0  0  0  0
    1.5270   -0.9590    1.1340 O   0  0  0  0  0  0  0  0  0  0  0  0
    3.8420   -1.4720    0.4330 C   0  0  0  0  0  0  0  0  0  0  0  0
    4.2350   -1.8030   -0.9810 C   0  0  0  0  0  0  0  0  0  0  0  0
    5.0170   -0.6990   -1.5990 C   0  0  0  0  0  0  0  0  0  0  0  0
    4.6700    0.5920   -1.6910 C   0  0  0  0  0  0  0  0  0  0  0  0
    3.4170    1.1730   -1.1830 C   0  0  0  0  0  0  0  0  0  0  0  0
    3.1560    2.3490   -1.5510 O   0  0  0  0  0  0  0  0  0  0  0  0
  1  2  1  0
  2  3  2  3
  3  4  1  0
  4  5  1  0
  5  6  2  0
  5 12  1  0
  6  7  1  0
  6  8  1  0
  8  9  2  0
  9 10  1  0
  9 11  1  0
 11 12  2  0
 12 13  1  0
 13 14  1  0
 14 15  2  0
 14 16  1  0
 16 17  2  0
 16 23  1  0
 17 18  1  0
 17 19  1  0
 19 20  1  0
 20 21  1  0
 21 22  2  0
 22 23  1  0
 23 24  2  0
M  END
