
     RDKit          3D

 23 25  0  0  0  0  0  0  0  0999 V2000
   -3.2340   -3.1330    0.6940 C   0  0  0  0  0  0  0  0  0  0  0  0
   -3.1790   -1.9310    0.1930 C   0  0  0  0  0  0  0  0  0  0  0  0
   -2.2620   -0.9510    0.7070 N   0  0  0  0  0  0  0  0  0  0  0  0
   -0.9210   -1.4110    0.9100 C   0  0  0  0  0  0  0  0  0  0  0  0
   -0.3360   -2.0050   -0.3690 C   0  0  0  0  0  0  0  0  0  0  0  0
    1.1010   -2.1840   -0.3530 C   0  0  0  0  0  0  0  0  0  0  0  0
    2.1140   -1.3580   -0.5530 C   0  0  0  0  0  0  0  0  0  0  0  0
    2.0880    0.0550   -0.8620 C   0  0  0  0  0  0  0  0  0  0  0  0
    3.2040    0.7160   -1.1310 N   0  0  0  0  0  0  0  0  0  0  0  0
    4.4720    0.0930   -1.1190 C   0  0  0  0  0  0  0  0  0  0  0  0
    4.6120   -1.1860   -0.8260 C   0  0  0  0  0  0  0  0  0  0  0  0
    3.4730   -1.9930   -0.5000 C   0  0  1  0  0  0  0  0  0  0  0  0
    3.6760   -2.5660    1.3670 Br  0  0  0  0  0  0  0  0  0  0  0  0
    0.9240    0.9550   -0.9050 C   0  0  0  0  0  0  0  0  0  0  0  0
    0.9230    2.0050    0.1020 N   0  0  0  0  0  0  0  0  0  0  0  0
    2.1210    2.3220    0.8400 C   0  0  0  0  0  0  0  0  0  0  0  0
   -0.2450    2.7670    0.3840 C   0  0  0  0  0  0  0  0  0  0  0  0
   -0.1610    4.0580    0.4610 O   0  0  0  0  0  0  0  0  0  0  0  0
   -1.5540    2.2620    0.6010 N   0  0  0  0  0  0  0  0  0  0  0  0
   -2.8400    2.4880   -0.0250 C   0  0  0  0  0  0  0  0  0  0  0  0
   -3.2160    1.0290   -0.3310 C   0  0  0  0  0  0  0  0  0  0  0  0
   -2.7690    0.3490    0.9590 C   0  0  2  0  0  0  0  0  0  0  0  0
   -1.8820    1.2870    1.6610 C   0  0  0  0  0  0  0  0  0  0  0  0
  1  2  2  0
  2  3  1  0
  3  4  1  0
  3 22  1  0
  4  5  1  0
  5  6  1  0
  6  7  2  0
  7  8  1  0
  7 12  1  0
  8  9  2  0
  8 14  1  0
  9 10  1  0
 10 11  2  0
 11 12  1  0
 12 13  1  1
 14 15  1  0
 15 16  1  0
 15 17  1  0
 17 18  2  0
 17 19  1  0
 19 20  1  0
 19 23  1  0
 20 21  1  0
 22 21  1  6
 22 23  1  0
M  CHG  1   9   1
M  END
