
     RDKit          3D

 42 44  0  0  0  0  0  0  0  0999 V2000
   -1.7930    2.8220   -2.4650 C   0  0  0  0  0  0  0  0  0  0  0  0
   -1.7930    2.9240   -1.0360 O   0  0  0  0  0  0  0  0  0  0  0  0
   -0.8470    3.6650   -0.3590 C   0  0  0  0  0  0  0  0  0  0  0  0
    0.0230    4.2530   -1.0480 O   0  0  0  0  0  0  0  0  0  0  0  0
   -0.7980    3.8050    1.0890 C   0  0  1  0  0  0  0  0  0  0  0  0
   -1.0090    5.3230    1.3560 C   0  0  0  0  0  0  0  0  0  0  0  0
   -0.1310    6.0780    0.6210 O   0  0  0  0  0  0  0  0  0  0  0  0
   -1.7120    3.1750    1.8620 O   0  0  0  0  0  0  0  0  0  0  0  0
   -2.8850    2.5530    1.8460 C   0  0  0  0  0  0  0  0  0  0  0  0
   -4.0220    3.1560    1.9920 O   0  0  0  0  0  0  0  0  0  0  0  0
   -3.0240    1.1490    1.6660 N   0  0  0  0  0  0  0  0  0  0  0  0
   -2.4930    0.3870    0.6320 N   0  0  0  0  0  0  0  0  0  0  0  0
   -3.4170   -0.5430    0.0690 C   0  0  0  0  0  0  0  0  0  0  0  0
   -3.2040   -1.9640    0.5370 C   0  0  2  0  0  0  0  0  0  0  0  0
   -2.3810   -2.0570    1.7740 C   0  0  0  0  0  0  0  0  0  0  0  0
   -1.0270   -1.4300    1.4540 C   0  0  2  0  0  0  0  0  0  0  0  0
   -1.1730   -0.0980    0.8050 C   0  0  0  0  0  0  0  0  0  0  0  0
   -0.3440   -2.4280    0.6420 N   0  0  0  0  0  0  0  0  0  0  0  0
   -1.1750   -3.3090   -0.1440 C   0  0  0  0  0  0  0  0  0  0  0  0
   -2.4840   -2.6930   -0.5760 C   0  0  1  0  0  0  0  0  0  0  0  0
   -3.3010   -3.7590   -1.0170 O   0  0  0  0  0  0  0  0  0  0  0  0
   -3.7090   -3.8310   -2.3210 C   0  0  0  0  0  0  0  0  0  0  0  0
   -3.3650   -2.9500   -3.1480 O   0  0  0  0  0  0  0  0  0  0  0  0
   -4.5180   -4.8590   -2.8230 O   0  0  0  0  0  0  0  0  0  0  0  0
    1.0650   -2.5970    0.5910 C   0  0  0  0  0  0  0  0  0  0  0  0
    1.5070   -3.7900    0.3530 O   0  0  0  0  0  0  0  0  0  0  0  0
    1.9290   -1.5590    0.7840 O   0  0  0  0  0  0  0  0  0  0  0  0
    2.2560   -0.4890   -0.0420 C   0  0  2  0  0  0  0  0  0  0  0  0
    3.5680   -0.7910   -0.6850 C   0  0  0  0  0  0  0  0  0  0  0  0
    4.1050    0.0220   -1.4920 O   0  0  0  0  0  0  0  0  0  0  0  0
    4.2540   -1.9700   -0.4280 O   0  0  0  0  0  0  0  0  0  0  0  0
    5.4750   -2.2680   -1.0170 C   0  0  0  0  0  0  0  0  0  0  0  0
    5.9850   -1.4410   -1.8150 O   0  0  0  0  0  0  0  0  0  0  0  0
    6.1780   -3.4380   -0.7750 O   0  0  0  0  0  0  0  0  0  0  0  0
    7.7350   -3.7420   -1.5690 P   0  0  0  0  0  0  0  0  0  0  0  0
    8.5960   -5.0000   -0.7830 O   0  0  0  0  0  0  0  0  0  0  0  0
    2.2900    0.8030    0.7160 C   0  0  0  0  0  0  0  0  0  0  0  0
    1.6910    1.9600   -0.0960 C   0  0  2  0  0  0  0  0  0  0  0  0
    2.6090    2.1660   -1.1340 F   0  0  0  0  0  0  0  0  0  0  0  0
    1.6710    3.0910    0.8030 N   0  0  0  0  0  0  0  0  0  0  0  0
    0.5980    3.5320    1.5880 C   0  0  0  0  0  0  0  0  0  0  0  0
    0.7600    3.7360    2.8360 O   0  0  0  0  0  0  0  0  0  0  0  0
  1  2  1  0
  2  3  1  0
  3  4  2  0
  3  5  1  0
  5  6  1  6
  5  8  1  0
  5 41  1  0
  6  7  1  0
  8  9  1  0
  9 10  2  0
  9 11  1  0
 11 12  1  0
 12 13  1  0
 12 17  1  0
 14 13  1  6
 14 15  1  0
 14 20  1  0
 16 15  1  6
 16 17  1  0
 16 18  1  0
 18 19  1  0
 18 25  1  0
 19 20  1  0
 20 21  1  1
 21 22  1  0
 22 23  2  0
 22 24  1  0
 25 26  2  0
 25 27  1  0
 27 28  1  0
 28 29  1  1
 28 37  1  0
 29 30  2  0
 29 31  1  0
 31 32  1  0
 32 33  2  0
 32 34  1  0
 34 35  1  0
 35 36  1  0
 37 38  1  0
 38 39  1  6
 38 40  1  0
 40 41  1  0
 41 42  2  0
M  END
