
     RDKit          3D

 42 44  0  0  0  0  0  0  0  0999 V2000
    2.5450    2.1590    4.5490 O   0  0  0  0  0  0  0  0  0  0  0  0
    2.9070    2.7830    3.5200 C   0  0  0  0  0  0  0  0  0  0  0  0
    3.4290    4.0690    3.6990 O   0  0  0  0  0  0  0  0  0  0  0  0
    2.7740    2.1800    2.2980 O   0  0  0  0  0  0  0  0  0  0  0  0
    2.2430    0.8740    2.1240 C   0  0  2  0  0  0  0  0  0  0  0  0
    3.2270   -0.0660    1.5870 C   0  0  0  0  0  0  0  0  0  0  0  0
    4.1330   -0.5660    2.3080 O   0  0  0  0  0  0  0  0  0  0  0  0
    3.1290   -0.3950    0.2400 O   0  0  0  0  0  0  0  0  0  0  0  0
    1.9230   -0.5610   -0.4310 C   0  0  1  0  0  0  0  0  0  0  0  0
    2.0360   -0.3470   -1.7720 O   0  0  0  0  0  0  0  0  0  0  0  0
    2.4410    0.8630   -2.2220 C   0  0  0  0  0  0  0  0  0  0  0  0
    3.7920    1.3440   -1.8130 C   0  0  0  0  0  0  0  0  0  0  0  0
    4.1400    3.0250   -2.5750 P   0  0  0  0  0  0  0  0  0  0  0  0
    5.3730    3.8600   -1.6860 O   0  0  0  0  0  0  0  0  0  0  0  0
    2.7220    4.0060   -2.6030 O   0  0  0  0  0  0  0  0  0  0  0  0
    3.0490    5.2380   -2.3510 O   0  0  0  0  0  0  0  0  0  0  0  0
    1.5540   -2.0170   -0.2650 C   0  0  0  0  0  0  0  0  0  0  0  0
    0.4840   -2.4500   -0.7850 O   0  0  0  0  0  0  0  0  0  0  0  0
    2.3240   -2.9110    0.4290 O   0  0  0  0  0  0  0  0  0  0  0  0
    2.0470   -4.2640    0.6230 C   0  0  0  0  0  0  0  0  0  0  0  0
    3.1820   -4.8620    1.4550 C   0  0  0  0  0  0  0  0  0  0  0  0
    2.9820   -6.2180    1.6950 O   0  0  0  0  0  0  0  0  0  0  0  0
    0.8190    0.2220    0.1950 C   0  0  0  0  0  0  0  0  0  0  0  0
   -0.3490    0.2570   -0.4480 N   0  0  0  0  0  0  0  0  0  0  0  0
   -1.4240    0.9230    0.0050 C   0  0  0  0  0  0  0  0  0  0  0  0
   -2.7180    0.9440   -0.7370 C   0  0  2  0  0  0  0  0  0  0  0  0
   -3.1020   -0.3520   -1.2210 N   0  0  0  0  0  0  0  0  0  0  0  0
   -4.0270   -1.2670   -0.6600 C   0  0  0  0  0  0  0  0  0  0  0  0
   -4.2620   -2.3760   -1.2040 O   0  0  0  0  0  0  0  0  0  0  0  0
   -4.7310   -0.9760    0.5400 N   0  0  0  0  0  0  0  0  0  0  0  0
   -5.6820   -1.8920    1.1350 C   0  0  0  0  0  0  0  0  0  0  0  0
   -6.2200   -1.2380    2.3900 C   0  0  0  0  0  0  0  0  0  0  0  0
   -7.1420   -2.0130    3.0560 O   0  0  0  0  0  0  0  0  0  0  0  0
   -2.3500   -0.5760   -2.4350 C   0  0  0  0  0  0  0  0  0  0  0  0
   -2.2460    0.7670   -3.0280 C   0  0  0  0  0  0  0  0  0  0  0  0
   -1.9030    1.0250   -4.1650 O   0  0  0  0  0  0  0  0  0  0  0  0
   -2.6330    1.7660   -1.9990 C   0  0  1  0  0  0  0  0  0  0  0  0
   -3.9200    2.2130   -2.2970 O   0  0  0  0  0  0  0  0  0  0  0  0
   -1.7290    2.8010   -1.9000 F   0  0  0  0  0  0  0  0  0  0  0  0
   -1.2760    1.5760    1.1720 N   0  0  0  0  0  0  0  0  0  0  0  0
   -0.1350    1.5840    1.8690 C   0  0  0  0  0  0  0  0  0  0  0  0
    0.9740    0.8840    1.3810 C   0  0  0  0  0  0  0  0  0  0  0  0
  1  2  2  0
  2  3  1  0
  2  4  1  0
  5  4  1  6
  5  6  1  0
  5 42  1  0
  6  7  2  0
  6  8  1  0
  8  9  1  0
  9 10  1  6
  9 17  1  0
  9 23  1  0
 10 11  1  0
 11 12  1  0
 12 13  1  0
 13 14  1  0
 13 15  1  0
 15 16  1  0
 17 18  2  0
 17 19  1  0
 19 20  1  0
 20 21  1  0
 21 22  1  0
 23 24  2  0
 23 42  1  0
 24 25  1  0
 26 25  1  6
 25 40  2  0
 26 27  1  0
 26 37  1  0
 27 28  1  0
 27 34  1  0
 28 29  2  0
 28 30  1  0
 30 31  1  0
 31 32  1  0
 32 33  1  0
 34 35  1  0
 35 36  2  0
 35 37  1  0
 37 38  1  6
 37 39  1  0
 40 41  1  0
 41 42  2  0
M  END
