
     RDKit          3D

 42 44  0  0  0  0  0  0  0  0999 V2000
   -4.1800   -1.0190   -4.1750 C   0  0  0  0  0  0  0  0  0  0  0  0
   -4.0060   -1.5600   -2.8760 O   0  0  0  0  0  0  0  0  0  0  0  0
   -3.4100   -0.8060   -1.8410 C   0  0  0  0  0  0  0  0  0  0  0  0
   -3.0680    0.3450   -2.1910 O   0  0  0  0  0  0  0  0  0  0  0  0
   -3.2500   -1.4070   -0.5070 C   0  0  1  0  0  0  0  0  0  0  0  0
   -2.4540   -2.6480   -0.4640 C   0  0  0  0  0  0  0  0  0  0  0  0
   -1.0430   -2.6340   -0.6730 N   0  0  0  0  0  0  0  0  0  0  0  0
   -0.1700   -3.3140    0.3090 C   0  0  0  0  0  0  0  0  0  0  0  0
   -0.2690   -3.5110    1.5080 O   0  0  0  0  0  0  0  0  0  0  0  0
    1.0030   -3.7730   -0.5400 C   0  0  0  0  0  0  0  0  0  0  0  0
    1.1480   -2.4110   -1.1790 N   0  0  0  0  0  0  0  0  0  0  0  0
    2.4100   -1.7470   -1.1650 C   0  0  0  0  0  0  0  0  0  0  0  0
    2.5130   -0.7720    0.0330 C   0  0  1  0  0  0  0  0  0  0  0  0
    2.6640   -1.4810    1.2070 F   0  0  0  0  0  0  0  0  0  0  0  0
    3.5960    0.0910   -0.2170 O   0  0  0  0  0  0  0  0  0  0  0  0
    4.0380    1.0990    0.5990 C   0  0  0  0  0  0  0  0  0  0  0  0
    3.4350    1.2920    1.6840 O   0  0  0  0  0  0  0  0  0  0  0  0
    5.2070    1.9450    0.2050 C   0  0  2  0  0  0  0  0  0  0  0  0
    6.4710    1.1490    0.0810 C   0  0  0  0  0  0  0  0  0  0  0  0
    7.4870    2.2030    0.1960 N   0  0  0  0  0  0  0  0  0  0  0  0
    6.9270    3.1830    1.0620 C   0  0  0  0  0  0  0  0  0  0  0  0
    7.5880    4.0960    1.6100 O   0  0  0  0  0  0  0  0  0  0  0  0
    5.5110    2.9380    1.1860 N   0  0  0  0  0  0  0  0  0  0  0  0
    1.2550    0.0580    0.1830 C   0  0  0  0  0  0  0  0  0  0  0  0
    0.4800   -0.3650    1.2810 O   0  0  0  0  0  0  0  0  0  0  0  0
   -0.7720    0.0440    1.6350 C   0  0  0  0  0  0  0  0  0  0  0  0
   -1.0210    0.1330    2.8640 O   0  0  0  0  0  0  0  0  0  0  0  0
   -1.7840    0.3670    0.5830 C   0  0  2  0  0  0  0  0  0  0  0  0
   -2.1520    1.7300    0.8480 O   0  0  0  0  0  0  0  0  0  0  0  0
   -1.7600    2.6940   -0.0570 C   0  0  0  0  0  0  0  0  0  0  0  0
   -1.0950    2.3360   -1.0620 O   0  0  0  0  0  0  0  0  0  0  0  0
   -2.0910    4.0530    0.1300 O   0  0  0  0  0  0  0  0  0  0  0  0
   -1.5180    5.1790   -1.1190 P   0  0  0  0  0  0  0  0  0  0  0  0
   -2.2890    4.8220   -2.6280 O   0  0  0  0  0  0  0  0  0  0  0  0
    0.2110    4.9360   -1.2340 O   0  0  0  0  0  0  0  0  0  0  0  0
   -3.0170   -0.4330    0.6190 C   0  0  2  0  0  0  0  0  0  0  0  0
   -3.0040   -1.2390    1.7890 O   0  0  0  0  0  0  0  0  0  0  0  0
   -4.0720   -0.9850    2.6110 C   0  0  0  0  0  0  0  0  0  0  0  0
   -4.0280   -1.8870    3.8050 C   0  0  0  0  0  0  0  0  0  0  0  0
   -2.8580   -1.6770    4.5150 O   0  0  0  0  0  0  0  0  0  0  0  0
   -0.1600   -2.0660   -1.6370 C   0  0  0  0  0  0  0  0  0  0  0  0
   -0.4580   -1.3730   -2.7300 O   0  0  0  0  0  0  0  0  0  0  0  0
  1  2  1  0
  2  3  1  0
  3  4  2  0
  5  3  1  6
  5  6  1  0
  5 36  1  0
  6  7  1  0
  7  8  1  0
  7 41  1  0
  8  9  2  0
  8 10  1  0
 10 11  1  0
 11 12  1  0
 11 41  1  0
 12 13  1  0
 13 14  1  1
 13 15  1  0
 13 24  1  0
 15 16  1  0
 16 17  2  0
 18 16  1  1
 18 19  1  0
 18 23  1  0
 19 20  1  0
 20 21  1  0
 21 22  2  0
 21 23  1  0
 24 25  1  0
 25 26  1  0
 26 27  2  0
 26 28  1  0
 28 29  1  1
 28 36  1  0
 29 30  1  0
 30 31  2  0
 30 32  1  0
 32 33  1  0
 33 34  1  0
 33 35  1  0
 36 37  1  1
 37 38  1  0
 38 39  1  0
 39 40  1  0
 41 42  2  0
M  END
