
     RDKit          3D

 41 42  0  0  0  0  0  0  0  0999 V2000
    1.0000    0.3070   -7.0990 C   0  0  0  0  0  0  0  0  0  0  0  0
    0.6620   -0.4510   -5.9870 O   0  0  0  0  0  0  0  0  0  0  0  0
    0.0520    0.3150   -4.9960 C   0  0  0  0  0  0  0  0  0  0  0  0
   -0.2580   -0.6600   -3.8450 C   0  0  2  0  0  0  0  0  0  0  0  0
   -1.0790   -1.5950   -4.3660 F   0  0  0  0  0  0  0  0  0  0  0  0
   -0.7780    0.1470   -2.7020 C   0  0  2  0  0  0  0  0  0  0  0  0
    0.2490    1.0660   -2.3570 O   0  0  0  0  0  0  0  0  0  0  0  0
    1.3580    0.4000   -1.7780 C   0  0  0  0  0  0  0  0  0  0  0  0
    2.4570    1.0170   -1.6810 O   0  0  0  0  0  0  0  0  0  0  0  0
    1.2430   -0.9390   -1.3120 N   0  0  0  0  0  0  0  0  0  0  0  0
    2.4520   -1.6510   -0.9520 C   0  0  0  0  0  0  0  0  0  0  0  0
    2.8320   -1.4950    0.4530 C   0  0  0  0  0  0  0  0  0  0  0  0
    3.8710   -2.0820    0.8480 O   0  0  0  0  0  0  0  0  0  0  0  0
    2.0800   -0.7170    1.3740 N   0  0  0  0  0  0  0  0  0  0  0  0
    2.4540   -0.5630    2.7600 C   0  0  0  0  0  0  0  0  0  0  0  0
    3.8210    0.0650    2.9320 C   0  0  0  0  0  0  0  0  0  0  0  0
    4.0470    0.1500    4.3130 O   0  0  0  0  0  0  0  0  0  0  0  0
    5.5940    0.8560    4.6670 P   0  0  0  0  0  0  0  0  0  0  0  0
    6.6780    0.3390    3.3870 O   0  0  0  0  0  0  0  0  0  0  0  0
    6.2430    0.2250    6.1490 O   0  0  0  0  0  0  0  0  0  0  0  0
   -0.0120   -1.6520   -1.1700 C   0  0  0  0  0  0  0  0  0  0  0  0
   -1.1070   -0.6040   -1.4640 C   0  0  1  0  0  0  0  0  0  0  0  0
   -1.1730    0.1000   -0.3190 O   0  0  0  0  0  0  0  0  0  0  0  0
   -2.0180    1.0930   -0.0700 C   0  0  2  0  0  0  0  0  0  0  0  0
   -1.2630    2.3260    0.2590 C   0  0  0  0  0  0  0  0  0  0  0  0
   -1.9730    3.3680    0.4720 O   0  0  0  0  0  0  0  0  0  0  0  0
    0.0890    2.4600    0.3580 O   0  0  0  0  0  0  0  0  0  0  0  0
    0.7150    3.7040    0.6860 C   0  0  0  0  0  0  0  0  0  0  0  0
   -2.8550    0.8670    1.1710 C   0  0  0  0  0  0  0  0  0  0  0  0
   -3.6720    1.7360    1.4830 O   0  0  0  0  0  0  0  0  0  0  0  0
   -2.6890   -0.2710    1.9010 O   0  0  0  0  0  0  0  0  0  0  0  0
   -3.4800   -0.4850    3.0750 C   0  0  2  0  0  0  0  0  0  0  0  0
   -2.4940   -0.5050    4.2410 C   0  0  0  0  0  0  0  0  0  0  0  0
   -4.1960   -1.7680    3.0400 C   0  0  0  0  0  0  0  0  0  0  0  0
   -3.5560   -2.9990    2.9520 O   0  0  0  0  0  0  0  0  0  0  0  0
   -5.4750   -1.7720    3.0940 N   0  0  0  0  0  0  0  0  0  0  0  0
   -6.2590   -0.6530    3.1830 O   0  0  0  0  0  0  0  0  0  0  0  0
   -2.4010   -1.2680   -1.8630 C   0  0  0  0  0  0  0  0  0  0  0  0
   -3.0350   -0.2370   -2.6610 N   0  0  0  0  0  0  0  0  0  0  0  0
   -2.0480    0.7250   -3.1100 C   0  0  0  0  0  0  0  0  0  0  0  0
   -2.3290    1.7980   -3.7120 O   0  0  0  0  0  0  0  0  0  0  0  0
  1  2  1  0
  2  3  1  0
  3  4  1  0
  4  5  1  6
  4  6  1  0
  6  7  1  1
  6 22  1  0
  6 40  1  0
  7  8  1  0
  8  9  2  0
  8 10  1  0
 10 11  1  0
 10 21  1  0
 11 12  1  0
 12 13  2  0
 12 14  1  0
 14 15  1  0
 15 16  1  0
 16 17  1  0
 17 18  1  0
 18 19  1  0
 18 20  1  0
 21 22  1  0
 22 23  1  1
 22 38  1  0
 24 23  1  1
 24 25  1  0
 24 29  1  0
 25 26  2  0
 25 27  1  0
 27 28  1  0
 29 30  2  0
 29 31  1  0
 31 32  1  0
 32 33  1  1
 32 34  1  0
 34 35  1  0
 34 36  2  3
 36 37  1  0
 38 39  1  0
 39 40  1  0
 40 41  2  0
M  END
