
     RDKit          3D

 42 43  0  0  0  0  0  0  0  0999 V2000
    8.2650   -2.0840   -0.4770 O   0  0  0  0  0  0  0  0  0  0  0  0
    7.0690   -2.3470   -0.1820 C   0  0  0  0  0  0  0  0  0  0  0  0
    6.0090   -1.3960   -0.4680 C   0  0  0  0  0  0  0  0  0  0  0  0
    6.2940   -0.2590   -1.0330 C   0  0  0  0  0  0  0  0  0  0  0  0
    7.6240    0.0460   -1.3650 O   0  0  0  0  0  0  0  0  0  0  0  0
    8.5460    1.2650   -0.5320 P   0  0  0  0  0  0  0  0  0  0  0  0
    7.5640    2.6040   -0.0410 O   0  0  0  0  0  0  0  0  0  0  0  0
    9.4090    0.6060    0.8300 O   0  0  0  0  0  0  0  0  0  0  0  0
    5.2930    0.7470   -1.3530 C   0  0  0  0  0  0  0  0  0  0  0  0
    5.6310    1.8470   -1.9080 O   0  0  0  0  0  0  0  0  0  0  0  0
    3.9060    0.6080   -1.0920 N   0  0  0  0  0  0  0  0  0  0  0  0
    2.9520    1.6220   -1.4250 C   0  0  0  0  0  0  0  0  0  0  0  0
    1.5510    1.3030   -1.0860 C   0  0  1  0  0  0  0  0  0  0  0  0
    1.0770    0.1480   -1.7320 O   0  0  0  0  0  0  0  0  0  0  0  0
   -0.2780   -0.0070   -1.5750 C   0  0  0  0  0  0  0  0  0  0  0  0
   -0.7730   -0.0250   -0.1640 C   0  0  2  0  0  0  0  0  0  0  0  0
   -1.7420    1.0600    0.1480 C   0  0  1  0  0  0  0  0  0  0  0  0
   -2.9150    1.1870   -0.8080 C   0  0  0  0  0  0  0  0  0  0  0  0
   -4.0240    0.8950   -0.0830 O   0  0  0  0  0  0  0  0  0  0  0  0
   -5.2450    1.3500   -0.4760 C   0  0  1  0  0  0  0  0  0  0  0  0
   -5.5250    2.4830    0.2650 F   0  0  0  0  0  0  0  0  0  0  0  0
   -5.4210    1.6880   -1.8790 C   0  0  0  0  0  0  0  0  0  0  0  0
   -4.5100    1.5270   -2.7020 O   0  0  0  0  0  0  0  0  0  0  0  0
   -6.6220    2.2000   -2.3220 O   0  0  0  0  0  0  0  0  0  0  0  0
   -6.2370    0.2950   -0.0040 C   0  0  0  0  0  0  0  0  0  0  0  0
   -5.9730   -1.0060   -0.5590 N   0  0  0  0  0  0  0  0  0  0  0  0
   -4.7500   -1.6090   -0.8980 C   0  0  0  0  0  0  0  0  0  0  0  0
   -3.7870   -2.0170   -0.0850 C   0  0  0  0  0  0  0  0  0  0  0  0
   -3.6910   -1.9790    1.3490 C   0  0  0  0  0  0  0  0  0  0  0  0
   -3.4650   -1.0590    2.2220 C   0  0  0  0  0  0  0  0  0  0  0  0
   -3.4820   -1.5840    3.6220 N   0  0  0  0  0  0  0  0  0  0  0  0
   -4.6420   -1.7310    4.1590 C   0  0  0  0  0  0  0  0  0  0  0  0
   -5.8110   -1.4120    3.4610 O   0  0  0  0  0  0  0  0  0  0  0  0
   -3.1980    0.3570    2.1460 C   0  0  0  0  0  0  0  0  0  0  0  0
   -4.0150    1.0870    2.8730 O   0  0  0  0  0  0  0  0  0  0  0  0
   -2.2600    1.1250    1.4700 N   0  0  0  0  0  0  0  0  0  0  0  0
    0.4000    0.0980    0.6680 O   0  0  0  0  0  0  0  0  0  0  0  0
    1.2620    1.1400    0.3590 C   0  0  0  0  0  0  0  0  0  0  0  0
    1.7750    1.9080    1.2430 O   0  0  0  0  0  0  0  0  0  0  0  0
    6.8110   -3.5540    0.4120 O   0  0  0  0  0  0  0  0  0  0  0  0
    7.8030   -4.4020    0.6590 O   0  0  0  0  0  0  0  0  0  0  0  0
    8.8720   -3.7560    1.0950 O   0  0  0  0  0  0  0  0  0  0  0  0
  1  2  2  0
  2  3  1  0
  2 40  1  0
  3  4  2  3
  4  5  1  0
  4  9  1  0
  5  6  1  0
  6  7  1  0
  6  8  1  0
  9 10  2  0
  9 11  1  0
 11 12  1  0
 13 12  1  1
 13 14  1  0
 13 38  1  0
 14 15  1  0
 16 15  1  6
 16 17  1  0
 16 37  1  0
 17 18  1  6
 17 36  1  0
 18 19  1  0
 19 20  1  0
 20 21  1  1
 20 22  1  0
 20 25  1  0
 22 23  2  0
 22 24  1  0
 25 26  1  0
 26 27  1  0
 27 28  2  0
 28 29  1  0
 29 30  2  0
 30 31  1  0
 30 34  1  0
 31 32  2  3
 32 33  1  0
 34 35  2  0
 34 36  1  0
 37 38  1  0
 38 39  2  0
 40 41  1  0
 41 42  1  0
M  END
