
     RDKit          3D

 19 20  0  0  0  0  0  0  0  0999 V2000
    5.5210   -1.8730   -0.2080 C   0  0  0  0  0  0  0  0  0  0  0  0
    4.1160   -1.7470   -0.2030 O   0  0  0  0  0  0  0  0  0  0  0  0
    3.5300   -0.5190    0.0200 C   0  0  0  0  0  0  0  0  0  0  0  0
    4.3180    0.5810    0.2370 C   0  0  0  0  0  0  0  0  0  0  0  0
    3.6790    1.7890    0.4560 C   0  0  0  0  0  0  0  0  0  0  0  0
    4.4750    2.9040    0.6760 O   0  0  0  0  0  0  0  0  0  0  0  0
    2.3130    1.8740    0.4540 C   0  0  0  0  0  0  0  0  0  0  0  0
    1.5230    0.7300    0.2280 C   0  0  0  0  0  0  0  0  0  0  0  0
    0.1260    0.9230    0.2540 N   0  0  0  0  0  0  0  0  0  0  0  0
   -0.8680   -0.0140   -0.0880 C   0  0  0  0  0  0  0  0  0  0  0  0
   -0.5730   -1.1460   -0.4650 O   0  0  0  0  0  0  0  0  0  0  0  0
   -2.2610    0.3380   -0.0010 N   0  0  0  0  0  0  0  0  0  0  0  0
   -3.2810   -0.6300   -0.3540 C   0  0  2  0  0  0  0  0  0  0  0  0
   -4.1880    0.0010   -1.3760 C   0  0  0  0  0  0  0  0  0  0  0  0
   -5.5220   -0.6150   -1.0700 C   0  0  0  0  0  0  0  0  0  0  0  0
   -5.5460   -0.5750    0.3930 N   0  0  0  0  0  0  0  0  0  0  0  0
   -4.2050   -0.8310    0.7930 C   0  0  0  0  0  0  0  0  0  0  0  0
   -3.7620   -1.2780    2.2900 S   0  0  0  0  0  0  0  0  0  0  0  0
    2.1300   -0.4670    0.0110 C   0  0  0  0  0  0  0  0  0  0  0  0
  1  2  1  0
  2  3  1  0
  3  4  2  0
  3 19  1  0
  4  5  1  0
  5  6  1  0
  5  7  2  0
  7  8  1  0
  8  9  1  0
  8 19  2  0
  9 10  1  0
 10 11  2  0
 10 12  1  0
 13 12  1  1
 13 14  1  0
 13 17  1  0
 14 15  1  0
 15 16  1  0
 16 17  1  0
 17 18  2  0
M  END
