
     RDKit          3D

 24 26  0  0  0  0  0  0  0  0999 V2000
    5.1230   -3.1340   -1.3580 C   0  0  0  0  0  0  0  0  0  0  0  0
    3.8470   -2.8030   -0.8480 O   0  0  0  0  0  0  0  0  0  0  0  0
    3.4790   -1.5060   -0.5720 C   0  0  0  0  0  0  0  0  0  0  0  0
    4.3870   -0.4940   -0.8010 C   0  0  0  0  0  0  0  0  0  0  0  0
    4.0530    0.8090   -0.5370 C   0  0  0  0  0  0  0  0  0  0  0  0
    4.9810    1.8200   -0.7730 O   0  0  0  0  0  0  0  0  0  0  0  0
    4.6130    3.1560   -0.4930 C   0  0  0  0  0  0  0  0  0  0  0  0
    2.7980    1.0840   -0.0410 C   0  0  0  0  0  0  0  0  0  0  0  0
    1.8480    0.1130    0.2080 C   0  0  0  0  0  0  0  0  0  0  0  0
    0.5140    0.4390    0.7390 C   0  0  1  0  0  0  0  0  0  0  0  0
   -0.5220    0.5230   -0.3620 C   0  0  0  0  0  0  0  0  0  0  0  0
   -1.9260    0.3860    0.1170 C   0  0  1  0  0  0  0  0  0  0  0  0
   -2.4500   -0.9680   -0.3510 C   0  0  0  0  0  0  0  0  0  0  0  0
   -3.8770   -1.1850    0.0970 C   0  0  0  0  0  0  0  0  0  0  0  0
   -4.7630   -0.1290   -0.4600 C   0  0  0  0  0  0  0  0  0  0  0  0
   -5.4900    0.7230    0.2470 C   0  0  0  0  0  0  0  0  0  0  0  0
   -6.2100    1.5870   -0.6900 C   0  0  0  0  0  0  0  0  0  0  0  0
   -5.8750    1.1330   -1.8790 C   0  0  0  0  0  0  0  0  0  0  0  0
   -4.9910    0.1600   -1.8720 C   0  0  0  0  0  0  0  0  0  0  0  0
   -2.1030    0.4740    1.5310 N   0  0  0  0  0  0  0  0  0  0  0  0
   -1.1810   -0.2290    2.3650 C   0  0  0  0  0  0  0  0  0  0  0  0
   -1.5000   -0.6340    3.5490 N   0  0  0  0  0  0  0  0  0  0  0  0
    0.1120   -0.4530    1.8080 N   0  0  0  0  0  0  0  0  0  0  0  0
    2.2320   -1.1950   -0.0760 C   0  0  0  0  0  0  0  0  0  0  0  0
  1  2  1  0
  2  3  1  0
  3  4  2  0
  3 24  1  0
  4  5  1  0
  5  6  1  0
  5  8  2  0
  6  7  1  0
  8  9  1  0
 10  9  1  6
  9 24  2  0
 10 11  1  0
 10 23  1  0
 11 12  1  0
 12 13  1  1
 12 20  1  0
 13 14  1  0
 14 15  1  0
 15 16  2  0
 15 19  1  0
 16 17  1  0
 17 18  2  0
 18 19  2  0
 20 21  1  0
 21 22  2  0
 21 23  1  0
M  END
