
     RDKit          3D

 19 20  0  0  0  0  0  0  0  0999 V2000
    4.6600    1.0720    0.4540 N   0  0  0  0  0  0  0  0  0  0  0  0
    4.4420   -0.2470    0.0790 C   0  0  0  0  0  0  0  0  0  0  0  0
    5.4710   -0.9900    0.0590 O   0  0  0  0  0  0  0  0  0  0  0  0
    3.1010   -0.7970   -0.2960 C   0  0  0  0  0  0  0  0  0  0  0  0
    3.1150   -1.9920   -1.0680 C   0  0  0  0  0  0  0  0  0  0  0  0
    1.3940   -2.3330   -1.3350 S   0  0  0  0  0  0  0  0  0  0  0  0
    0.7810   -0.9590   -0.4610 C   0  0  0  0  0  0  0  0  0  0  0  0
   -0.6240   -0.6750   -0.3100 N   0  0  0  0  0  0  0  0  0  0  0  0
   -1.2550   -0.4390   -1.5750 C   0  0  0  0  0  0  0  0  0  0  0  0
   -2.7490   -0.4640   -1.4960 C   0  0  0  0  0  0  0  0  0  0  0  0
   -3.1320    0.7630   -0.6560 C   0  0  0  0  0  0  0  0  0  0  0  0
   -3.4750    0.3570    0.7400 C   0  0  0  0  0  0  0  0  0  0  0  0
   -2.3480   -0.0580    1.6000 C   0  0  0  0  0  0  0  0  0  0  0  0
   -1.1890   -0.6700    0.9680 C   0  0  0  0  0  0  0  0  0  0  0  0
   -0.5090   -1.3890    1.7890 O   0  0  0  0  0  0  0  0  0  0  0  0
    1.8810   -0.3160   -0.0130 C   0  0  0  0  0  0  0  0  0  0  0  0
    1.6600    0.8710    0.8760 C   0  0  0  0  0  0  0  0  0  0  0  0
    0.4210    1.5800    0.7790 N   0  0  0  0  0  0  0  0  0  0  0  0
    2.5000    1.2770    1.6980 O   0  0  0  0  0  0  0  0  0  0  0  0
  1  2  1  0
  2  3  2  0
  2  4  1  0
  4  5  2  0
  4 16  1  0
  5  6  1  0
  6  7  1  0
  7  8  1  0
  7 16  2  0
  8  9  1  0
  8 14  1  0
  9 10  1  0
 10 11  1  0
 11 12  1  0
 12 13  1  0
 13 14  1  0
 14 15  2  0
 16 17  1  0
 17 18  1  0
 17 19  2  0
M  END
