
     RDKit          3D

 19 20  0  0  0  0  0  0  0  0999 V2000
    6.3780   -0.9460   -0.7690 N   0  0  0  0  0  0  0  0  0  0  0  0
    5.3570   -0.9460    0.2030 C   0  0  0  0  0  0  0  0  0  0  0  0
    5.5240   -1.4210    1.3640 O   0  0  0  0  0  0  0  0  0  0  0  0
    4.0290   -0.3900   -0.0820 C   0  0  0  0  0  0  0  0  0  0  0  0
    3.4720    0.1940   -1.1790 C   0  0  0  0  0  0  0  0  0  0  0  0
    2.1890    0.6010   -1.0900 C   0  0  0  0  0  0  0  0  0  0  0  0
    1.5160    0.4240    0.0430 C   0  0  0  0  0  0  0  0  0  0  0  0
    0.1240    0.7690    0.4060 C   0  0  0  0  0  0  0  0  0  0  0  0
   -0.2840    0.4950    1.5570 O   0  0  0  0  0  0  0  0  0  0  0  0
   -0.7230    1.3920   -0.5230 N   0  0  0  0  0  0  0  0  0  0  0  0
   -2.0920    1.7530   -0.2270 C   0  0  0  0  0  0  0  0  0  0  0  0
   -2.9400    0.5940    0.1400 C   0  0  0  0  0  0  0  0  0  0  0  0
   -3.2560    0.2930    1.4460 C   0  0  0  0  0  0  0  0  0  0  0  0
   -4.0420   -0.7990    1.6920 C   0  0  0  0  0  0  0  0  0  0  0  0
   -4.5250   -1.6000    0.6870 C   0  0  0  0  0  0  0  0  0  0  0  0
   -4.1850   -1.2650   -0.6170 C   0  0  0  0  0  0  0  0  0  0  0  0
   -4.6190   -1.9870   -1.5380 O   0  0  0  0  0  0  0  0  0  0  0  0
   -3.4170   -0.1950   -0.8360 N   0  0  0  0  0  0  0  0  0  0  0  0
    2.6380   -0.3390    1.0960 S   0  0  0  0  0  0  0  0  0  0  0  0
  1  2  1  0
  2  3  2  0
  2  4  1  0
  4  5  2  0
  4 19  1  0
  5  6  1  0
  6  7  2  0
  7  8  1  0
  7 19  1  0
  8  9  2  0
  8 10  1  0
 10 11  1  0
 11 12  1  0
 12 13  2  0
 12 18  1  0
 13 14  1  0
 14 15  2  0
 15 16  1  0
 16 17  2  0
 16 18  1  0
M  END
