
     RDKit          3D

 19 20  0  0  0  0  0  0  0  0999 V2000
   -5.1200    0.7740   -0.8880 N   0  0  0  0  0  0  0  0  0  0  0  0
   -3.8850    0.3850   -1.4730 C   0  0  0  0  0  0  0  0  0  0  0  0
   -3.7680    0.3130   -2.7200 O   0  0  0  0  0  0  0  0  0  0  0  0
   -2.7760    0.0780   -0.5780 C   0  0  0  0  0  0  0  0  0  0  0  0
   -1.5630   -0.3010   -1.0500 C   0  0  0  0  0  0  0  0  0  0  0  0
   -0.4770   -0.6040   -0.2170 C   0  0  0  0  0  0  0  0  0  0  0  0
    0.7170   -1.0220   -0.8230 N   0  0  0  0  0  0  0  0  0  0  0  0
    2.0370   -0.7310   -0.4710 C   0  0  0  0  0  0  0  0  0  0  0  0
    2.4510    0.1340    0.5100 C   0  0  0  0  0  0  0  0  0  0  0  0
    3.7980    0.3340    0.8100 C   0  0  0  0  0  0  0  0  0  0  0  0
    4.2370    1.4790    2.1030 S   0  0  0  0  0  0  0  0  0  0  0  0
    3.6430    2.8370    1.6800 O   0  0  0  0  0  0  0  0  0  0  0  0
    4.7480   -0.3570    0.1010 C   0  0  0  0  0  0  0  0  0  0  0  0
    4.3330   -1.2210   -0.8810 C   0  0  0  0  0  0  0  0  0  0  0  0
    3.0420   -1.3750   -1.1260 N   0  0  0  0  0  0  0  0  0  0  0  0
   -0.6190   -0.5220    1.1460 C   0  0  0  0  0  0  0  0  0  0  0  0
   -1.8570   -0.1350    1.6380 C   0  0  0  0  0  0  0  0  0  0  0  0
   -2.9120    0.1590    0.8060 C   0  0  0  0  0  0  0  0  0  0  0  0
   -4.1630    0.5510    1.2860 O   0  0  0  0  0  0  0  0  0  0  0  0
  1  2  1  0
  2  3  2  0
  2  4  1  0
  4  5  2  0
  4 18  1  0
  5  6  1  0
  6  7  1  0
  6 16  2  0
  7  8  1  0
  8  9  2  0
  8 15  1  0
  9 10  1  0
 10 11  1  0
 10 13  2  0
 11 12  2  0
 13 14  1  0
 14 15  2  0
 16 17  1  0
 17 18  2  0
 18 19  1  0
M  END
