
     RDKit          3D

 16 17  0  0  0  0  0  0  0  0999 V2000
   -2.7560    0.1030    2.9570 N   0  0  0  0  0  0  0  0  0  0  0  0
   -2.6010   -0.0220    1.5190 C   0  0  0  0  0  0  0  0  0  0  0  0
   -3.5100   -0.3520    0.6830 N   0  0  0  0  0  0  0  0  0  0  0  0
   -2.9770   -0.3670   -0.6520 C   0  0  1  0  0  0  0  0  0  0  0  0
   -3.3420    0.9530   -1.2810 C   0  0  0  0  0  0  0  0  0  0  0  0
   -1.7610    1.7650   -1.6640 S   0  0  0  0  0  0  0  0  0  0  0  0
   -0.7650    0.2280   -1.5230 C   0  0  1  0  0  0  0  0  0  0  0  0
    0.6500    0.5140   -1.1600 C   0  0  0  0  0  0  0  0  0  0  0  0
    1.3670   -0.8160   -1.0730 C   0  0  0  0  0  0  0  0  0  0  0  0
    2.8150   -0.6850   -0.7140 C   0  0  0  0  0  0  0  0  0  0  0  0
    3.0510   -0.0280    0.6050 C   0  0  0  0  0  0  0  0  0  0  0  0
    4.5050    0.0490    0.8590 C   0  0  0  0  0  0  0  0  0  0  0  0
    5.3010   -0.4060    0.0110 O   0  0  0  0  0  0  0  0  0  0  0  0
    5.0520    0.6110    2.0110 O   0  0  0  0  0  0  0  0  0  0  0  0
   -1.5270   -0.4610   -0.4530 C   0  0  1  0  0  0  0  0  0  0  0  0
   -1.3760    0.2110    0.8340 N   0  0  0  0  0  0  0  0  0  0  0  0
  1  2  1  0
  2  3  2  0
  2 16  1  0
  3  4  1  0
  4  5  1  1
  4 15  1  0
  5  6  1  0
  6  7  1  0
  7  8  1  1
  7 15  1  0
  8  9  1  0
  9 10  1  0
 10 11  1  0
 11 12  1  0
 12 13  2  0
 12 14  1  0
 15 16  1  1
M  CHG  1   3   1
M  END
