
     RDKit          3D

 19 20  0  0  0  0  0  0  0  0999 V2000
    2.5120    2.5730   -0.1000 N   0  0  0  0  0  0  0  0  0  0  0  0
    3.1730    1.2990   -0.1030 C   0  0  0  0  0  0  0  0  0  0  0  0
    4.5390    1.1950   -0.1450 C   0  0  0  0  0  0  0  0  0  0  0  0
    5.2110   -0.0190   -0.1490 C   0  0  0  0  0  0  0  0  0  0  0  0
    6.9990   -0.1060   -0.2060 S   0  0  0  0  0  0  0  0  0  0  0  0
    4.4610   -1.1720   -0.1080 C   0  0  0  0  0  0  0  0  0  0  0  0
    5.0790   -2.4140   -0.1100 O   0  0  0  0  0  0  0  0  0  0  0  0
    3.0680   -1.0650   -0.0640 C   0  0  0  0  0  0  0  0  0  0  0  0
    2.4030    0.1330   -0.0610 C   0  0  0  0  0  0  0  0  0  0  0  0
    1.0000    0.2910   -0.0180 N   0  0  0  0  0  0  0  0  0  0  0  0
    0.0680   -0.7750    0.0280 C   0  0  0  0  0  0  0  0  0  0  0  0
    0.3870   -1.9650    0.0360 O   0  0  0  0  0  0  0  0  0  0  0  0
   -1.3550   -0.5170    0.0710 N   0  0  0  0  0  0  0  0  0  0  0  0
   -2.3030   -1.6060    0.1170 C   0  0  0  0  0  0  0  0  0  0  0  0
   -3.6930   -1.0120    0.1430 C   0  0  2  0  0  0  0  0  0  0  0  0
   -3.9910   -0.0970   -1.0080 C   0  0  0  0  0  0  0  0  0  0  0  0
   -5.1140    0.7720   -0.4460 C   0  0  0  0  0  0  0  0  0  0  0  0
   -4.9880    0.5490    1.0290 C   0  0  0  0  0  0  0  0  0  0  0  0
   -3.8440   -0.1800    1.2510 O   0  0  0  0  0  0  0  0  0  0  0  0
  1  2  1  0
  2  3  2  0
  2  9  1  0
  3  4  1  0
  4  5  1  0
  4  6  2  0
  6  7  1  0
  6  8  1  0
  8  9  2  0
  9 10  1  0
 10 11  1  0
 11 12  2  0
 11 13  1  0
 13 14  1  0
 15 14  1  6
 15 16  1  0
 15 19  1  0
 16 17  1  0
 17 18  1  0
 18 19  1  0
M  END
