
     RDKit          3D

 19 20  0  0  0  0  0  0  0  0999 V2000
    5.9140   -0.7340    1.8970 N   0  0  0  0  0  0  0  0  0  0  0  0
    6.3080   -0.9720    0.5830 C   0  0  0  0  0  0  0  0  0  0  0  0
    7.5440   -1.2270    0.4060 O   0  0  0  0  0  0  0  0  0  0  0  0
    5.3800   -0.9320   -0.5630 C   0  0  0  0  0  0  0  0  0  0  0  0
    4.0730   -0.7350   -0.1160 N   0  0  0  0  0  0  0  0  0  0  0  0
    2.8740   -0.7720   -1.0220 C   0  0  0  0  0  0  0  0  0  0  0  0
    3.0440   -1.0450   -2.1460 O   0  0  0  0  0  0  0  0  0  0  0  0
    1.7390   -0.4320   -0.2110 N   0  0  0  0  0  0  0  0  0  0  0  0
    0.5680   -0.7130   -1.4480 C   0  0  0  0  0  0  0  0  0  0  0  0
    0.9440   -1.0850   -2.4560 O   0  0  0  0  0  0  0  0  0  0  0  0
   -0.7370   -0.4130   -0.9410 C   0  0  0  0  0  0  0  0  0  0  0  0
   -1.2760    0.0880    0.2190 C   0  0  0  0  0  0  0  0  0  0  0  0
   -2.5910    0.2530    0.3200 C   0  0  0  0  0  0  0  0  0  0  0  0
   -3.3890   -0.0910   -0.7580 C   0  0  0  0  0  0  0  0  0  0  0  0
   -2.2190   -0.6580   -1.9110 S   0  0  0  0  0  0  0  0  0  0  0  0
   -4.8360    0.0160   -0.7880 C   0  0  0  0  0  0  0  0  0  0  0  0
   -5.3200    1.1920   -0.0120 C   0  0  0  0  0  0  0  0  0  0  0  0
   -4.2250    1.9490    0.7170 C   0  0  0  0  0  0  0  0  0  0  0  0
   -3.3610    0.9320    1.4690 C   0  0  0  0  0  0  0  0  0  0  0  0
  1  2  1  0
  2  3  2  0
  2  4  1  0
  4  5  1  0
  5  6  1  0
  6  7  2  0
  6  8  1  0
  8  9  1  0
  9 10  2  0
  9 11  1  0
 11 12  2  0
 11 15  1  0
 12 13  1  0
 13 14  2  0
 13 19  1  0
 14 15  1  0
 14 16  1  0
 16 17  1  0
 17 18  1  0
 18 19  1  0
M  END
