
     RDKit          3D

 23 25  0  0  0  0  0  0  0  0999 V2000
    4.8460   -0.6150    1.3500 N   0  0  0  0  0  0  0  0  0  0  0  0
    3.7970   -0.0690    1.0630 C   0  0  0  0  0  0  0  0  0  0  0  0
    2.6680   -0.6420    1.6280 N   0  0  0  0  0  0  0  0  0  0  0  0
    1.3910   -0.8300    1.0850 C   0  0  0  0  0  0  0  0  0  0  0  0
    1.3840   -0.4600   -0.1350 O   0  0  0  0  0  0  0  0  0  0  0  0
    0.2830   -1.3210    1.6700 O   0  0  0  0  0  0  0  0  0  0  0  0
   -0.8670   -1.4110    0.8420 C   0  0  0  0  0  0  0  0  0  0  0  0
   -1.1470   -2.5680    0.1610 C   0  0  0  0  0  0  0  0  0  0  0  0
   -2.2940   -2.5600   -0.6340 C   0  0  0  0  0  0  0  0  0  0  0  0
   -3.0850   -1.4480   -0.7170 C   0  0  0  0  0  0  0  0  0  0  0  0
   -2.7490   -0.3270   -0.0110 C   0  0  0  0  0  0  0  0  0  0  0  0
   -1.6270   -0.2680    0.7950 C   0  0  0  0  0  0  0  0  0  0  0  0
   -3.7250    0.6530   -0.2770 N   0  0  0  0  0  0  0  0  0  0  0  0
   -4.3580    1.8760    0.0880 C   0  0  0  0  0  0  0  0  0  0  0  0
   -3.9800    2.6270    1.0240 O   0  0  0  0  0  0  0  0  0  0  0  0
   -5.4980    2.0190   -0.8560 C   0  0  0  0  0  0  0  0  0  0  0  0
   -5.6540    0.6780   -1.2750 O   0  0  0  0  0  0  0  0  0  0  0  0
   -4.4050    0.2530   -1.4570 N   0  0  0  0  0  0  0  0  0  0  0  0
   -4.2570   -1.1060   -1.3900 O   0  0  0  0  0  0  0  0  0  0  0  0
    3.9630    1.3020    0.5540 N   0  0  0  0  0  0  0  0  0  0  0  0
    5.0900    1.6480   -0.7410 P   0  0  0  0  0  0  0  0  0  0  0  0
    5.2140    0.3590   -1.8740 O   0  0  0  0  0  0  0  0  0  0  0  0
    6.6680    2.0760   -0.1370 O   0  0  0  0  0  0  0  0  0  0  0  0
  1  2  2  0
  2  3  1  0
  2 20  1  0
  3  4  1  0
  4  5  2  0
  4  6  1  0
  6  7  1  0
  7  8  2  0
  7 12  1  0
  8  9  1  0
  9 10  2  0
 10 11  1  0
 10 19  1  0
 11 12  2  0
 11 13  1  0
 13 14  1  0
 13 18  1  0
 14 15  2  0
 14 16  1  0
 16 17  1  0
 17 18  1  0
 18 19  1  0
 20 21  1  0
 21 22  1  0
 21 23  1  0
M  END
