
     RDKit          3D

 23 25  0  0  0  0  0  0  0  0999 V2000
    2.6320    1.2440    0.7960 O   0  0  0  0  0  0  0  0  0  0  0  0
    1.8780    0.3640    0.2710 C   0  0  0  0  0  0  0  0  0  0  0  0
    2.4980   -0.7310   -0.5060 C   0  0  0  0  0  0  0  0  0  0  0  0
    3.9380   -0.5630   -0.5280 N   0  0  0  0  0  0  0  0  0  0  0  0
    4.7810   -1.0680    0.3920 C   0  0  0  0  0  0  0  0  0  0  0  0
    4.4330   -1.7460    1.3970 O   0  0  0  0  0  0  0  0  0  0  0  0
    6.0320   -0.7290    0.0600 N   0  0  0  0  0  0  0  0  0  0  0  0
    5.9970   -0.0180   -1.0540 N   0  0  0  0  0  0  0  0  0  0  0  0
    4.6880    0.0770   -1.4090 C   0  0  0  0  0  0  0  0  0  0  0  0
    4.2930    0.6940   -2.4350 O   0  0  0  0  0  0  0  0  0  0  0  0
    0.4860    0.4970    0.4720 N   0  0  0  0  0  0  0  0  0  0  0  0
   -0.1020    1.4880    1.1880 C   0  0  0  0  0  0  0  0  0  0  0  0
   -1.4260    1.2700    1.1510 N   0  0  0  0  0  0  0  0  0  0  0  0
   -1.6790    0.1640    0.4270 C   0  0  0  0  0  0  0  0  0  0  0  0
   -3.0520   -0.3880    0.1660 C   0  0  2  0  0  0  0  0  0  0  0  0
   -2.9940   -1.7720    0.3590 O   0  0  0  0  0  0  0  0  0  0  0  0
   -3.4750   -0.1500   -1.2580 C   0  0  0  0  0  0  0  0  0  0  0  0
   -4.9210   -0.5540   -1.3940 C   0  0  0  0  0  0  0  0  0  0  0  0
   -5.7670    0.4970   -1.0390 O   0  0  0  0  0  0  0  0  0  0  0  0
   -5.1370    1.1490    0.4560 P   0  0  0  0  0  0  0  0  0  0  0  0
   -4.5220    2.7320    0.1510 O   0  0  0  0  0  0  0  0  0  0  0  0
   -3.9360    0.1010    1.1110 O   0  0  0  0  0  0  0  0  0  0  0  0
   -0.4940   -0.2910    0.0230 N   0  0  0  0  0  0  0  0  0  0  0  0
  1  2  2  0
  2  3  1  0
  2 11  1  0
  3  4  1  0
  4  5  1  0
  4  9  1  0
  5  6  2  0
  5  7  1  0
  7  8  1  0
  8  9  1  0
  9 10  2  0
 11 12  1  0
 11 23  1  0
 12 13  2  0
 13 14  1  0
 14 15  1  0
 14 23  2  0
 15 16  1  6
 15 17  1  0
 15 22  1  0
 17 18  1  0
 18 19  1  0
 19 20  1  0
 20 21  1  0
 20 22  1  0
M  END
