
     RDKit          3D

 23 24  0  0  0  0  0  0  0  0999 V2000
    3.2980   -2.2130    1.0900 N   0  0  0  0  0  0  0  0  0  0  0  0
    3.2850   -0.9520    0.7350 C   0  0  0  0  0  0  0  0  0  0  0  0
    4.5590   -0.3240    0.7440 N   0  0  0  0  0  0  0  0  0  0  0  0
    4.6880    1.2400   -0.1570 P   0  0  0  0  0  0  0  0  0  0  0  0
    5.2000    0.9840   -1.7820 O   0  0  0  0  0  0  0  0  0  0  0  0
    3.0230    1.8630   -0.0940 O   0  0  0  0  0  0  0  0  0  0  0  0
    1.9230    1.0220   -0.0180 C   0  0  0  0  0  0  0  0  0  0  0  0
    0.7880    1.5530   -0.3340 N   0  0  0  0  0  0  0  0  0  0  0  0
   -0.4330    1.0160   -0.3620 O   0  0  0  0  0  0  0  0  0  0  0  0
   -1.5150    1.6270    0.2710 C   0  0  1  0  0  0  0  0  0  0  0  0
   -1.2320    3.0400    0.6440 C   0  0  0  0  0  0  0  0  0  0  0  0
   -2.0890    3.7530    1.2240 O   0  0  0  0  0  0  0  0  0  0  0  0
   -0.0030    3.6190    0.3620 O   0  0  0  0  0  0  0  0  0  0  0  0
   -2.8070    1.5050   -0.5060 C   0  0  0  0  0  0  0  0  0  0  0  0
   -3.6410    0.3250   -0.0050 C   0  0  0  0  0  0  0  0  0  0  0  0
   -3.2760   -0.8520   -0.6580 O   0  0  0  0  0  0  0  0  0  0  0  0
   -2.8230   -1.7810    0.2760 C   0  0  0  0  0  0  0  0  0  0  0  0
   -1.7610   -2.6870   -0.2830 C   0  0  0  0  0  0  0  0  0  0  0  0
   -0.8910   -1.9750   -1.2290 N   0  0  0  0  0  0  0  0  0  0  0  0
    0.3990   -1.5350   -0.9090 C   0  0  0  0  0  0  0  0  0  0  0  0
    1.2230   -1.4030   -1.8530 O   0  0  0  0  0  0  0  0  0  0  0  0
    0.8800   -1.2090    0.4580 C   0  0  0  0  0  0  0  0  0  0  0  0
    2.0630   -0.3240    0.3800 N   0  0  0  0  0  0  0  0  0  0  0  0
  1  2  2  0
  2  3  1  0
  2 23  1  0
  3  4  1  0
  4  5  1  0
  4  6  1  0
  6  7  1  0
  7  8  2  0
  7 23  1  0
  8  9  1  0
  9 10  1  0
 10 11  1  6
 10 14  1  0
 11 12  2  0
 11 13  1  0
 14 15  1  0
 15 16  1  0
 16 17  1  0
 17 18  1  0
 18 19  1  0
 19 20  1  0
 20 21  2  0
 20 22  1  0
 22 23  1  0
M  END
