
     RDKit          3D

 22 23  0  0  0  0  0  0  0  0999 V2000
   -0.2120   -3.1850    0.4730 N   0  0  0  0  0  0  0  0  0  0  0  0
    0.0140   -1.9530    0.3260 C   0  0  0  0  0  0  0  0  0  0  0  0
    1.2400   -1.6530    0.8840 N   0  0  0  0  0  0  0  0  0  0  0  0
    2.2390   -0.7610    0.6090 C   0  0  0  0  0  0  0  0  0  0  0  0
    2.0300   -0.1060   -0.4010 O   0  0  0  0  0  0  0  0  0  0  0  0
    3.3890   -0.6500    1.4450 C   0  0  0  0  0  0  0  0  0  0  0  0
    4.3030    0.2020    1.1210 C   0  0  0  0  0  0  0  0  0  0  0  0
    4.1850    1.0120   -0.0260 N   0  0  0  0  0  0  0  0  0  0  0  0
    5.0380    0.5550   -1.5360 P   0  0  0  0  0  0  0  0  0  0  0  0
    6.3880   -0.4400   -1.0960 O   0  0  0  0  0  0  0  0  0  0  0  0
    5.5890    2.0250   -2.3140 O   0  0  0  0  0  0  0  0  0  0  0  0
   -1.1440   -1.2090   -0.0380 N   0  0  0  0  0  0  0  0  0  0  0  0
   -1.3440    0.1040   -0.4910 C   0  0  0  0  0  0  0  0  0  0  0  0
   -0.6310    0.7790   -1.2760 O   0  0  0  0  0  0  0  0  0  0  0  0
   -2.6230    0.5410    0.1770 C   0  0  1  0  0  0  0  0  0  0  0  0
   -3.3120    1.6170   -0.5820 C   0  0  2  0  0  0  0  0  0  0  0  0
   -3.2050    2.8170    0.1550 O   0  0  0  0  0  0  0  0  0  0  0  0
   -4.7520    1.1550   -0.5320 C   0  0  0  0  0  0  0  0  0  0  0  0
   -4.6940   -0.3300   -0.5990 C   0  0  0  0  0  0  0  0  0  0  0  0
   -3.3970   -0.6840   -0.1250 N   0  0  0  0  0  0  0  0  0  0  0  0
   -2.4960   -1.7240    0.1930 C   0  0  0  0  0  0  0  0  0  0  0  0
   -2.8050   -2.8730    0.5990 O   0  0  0  0  0  0  0  0  0  0  0  0
  1  2  2  0
  2  3  1  0
  2 12  1  0
  3  4  1  0
  4  5  2  0
  4  6  1  0
  6  7  2  3
  7  8  1  0
  8  9  1  0
  9 10  1  0
  9 11  1  0
 12 13  1  0
 12 21  1  0
 13 14  2  0
 15 13  1  6
 15 16  1  0
 15 20  1  0
 16 17  1  1
 16 18  1  0
 18 19  1  0
 19 20  1  0
 20 21  1  0
 21 22  2  0
M  END
