
     RDKit          3D

 23 24  0  0  0  0  0  0  0  0999 V2000
    0.1480   -1.1510    1.3660 C   0  0  0  0  0  0  0  0  0  0  0  0
   -0.1970   -0.4500    0.0920 N   0  0  0  0  0  0  0  0  0  0  0  0
   -0.5520   -1.5290   -0.7990 C   0  0  0  0  0  0  0  0  0  0  0  0
   -1.4530   -2.5030   -0.1430 C   0  0  0  0  0  0  0  0  0  0  0  0
   -1.2920   -3.7480   -0.4220 O   0  0  0  0  0  0  0  0  0  0  0  0
   -2.5280   -2.1830    0.7780 C   0  0  0  0  0  0  0  0  0  0  0  0
   -2.7170   -3.1620    1.6440 O   0  0  0  0  0  0  0  0  0  0  0  0
   -3.3020   -1.1100    0.9020 O   0  0  0  0  0  0  0  0  0  0  0  0
   -3.8330   -0.1390    0.0730 C   0  0  0  0  0  0  0  0  0  0  0  0
   -3.0380    1.1350    0.0870 C   0  0  0  0  0  0  0  0  0  0  0  0
   -3.4560    2.4500    0.4480 N   0  0  0  0  0  0  0  0  0  0  0  0
   -2.3260    3.1650    0.2200 N   0  0  0  0  0  0  0  0  0  0  0  0
   -1.3730    2.4730   -0.2290 C   0  0  0  0  0  0  0  0  0  0  0  0
   -1.8130    1.2110   -0.3090 N   0  0  0  0  0  0  0  0  0  0  0  0
    0.0070    2.6970   -0.6320 N   0  0  0  0  0  0  0  0  0  0  0  0
    0.8770    1.5650   -0.9320 C   0  0  0  0  0  0  0  0  0  0  0  0
    1.6540    1.7670   -1.9090 O   0  0  0  0  0  0  0  0  0  0  0  0
    0.9060    0.3280   -0.2280 C   0  0  2  0  0  0  0  0  0  0  0  0
    2.0900   -0.5480   -0.7290 C   0  0  0  0  0  0  0  0  0  0  0  0
    3.0760    0.4460   -0.8010 O   0  0  0  0  0  0  0  0  0  0  0  0
    4.2350    0.0410    0.3680 P   0  0  0  0  0  0  0  0  0  0  0  0
    4.6730   -1.5080    0.5910 O   0  0  0  0  0  0  0  0  0  0  0  0
    5.1670    1.3660    0.8050 O   0  0  0  0  0  0  0  0  0  0  0  0
  1  2  1  0
  2  3  1  0
  2 18  1  0
  3  4  1  0
  4  5  2  0
  4  6  1  0
  6  7  2  0
  6  8  1  0
  8  9  1  0
  9 10  1  0
 10 11  2  0
 10 14  1  0
 11 12  1  0
 12 13  1  0
 13 14  2  0
 13 15  1  0
 15 16  1  0
 16 17  2  0
 16 18  1  0
 18 19  1  6
 19 20  1  0
 20 21  1  0
 21 22  1  0
 21 23  1  0
M  END
