
     RDKit          3D

  9  8  0  0  0  0  0  0  0  0999 V2000
    3.2040    1.2800   -0.3090 O   0  0  0  0  0  0  0  0  0  0  0  0
    2.3180    0.5980    0.2670 C   0  0  0  0  0  0  0  0  0  0  0  0
    2.7420   -0.1710    1.3460 O   0  0  0  0  0  0  0  0  0  0  0  0
    0.8960    0.5990   -0.1640 C   0  0  0  0  0  0  0  0  0  0  0  0
    0.1940   -0.2330    0.6540 O   0  0  0  0  0  0  0  0  0  0  0  0
   -1.3970   -0.4180    0.4020 P   0  0  0  0  0  0  0  0  0  0  0  0
   -2.0790   -1.9370    0.3850 O   0  0  0  0  0  0  0  0  0  0  0  0
   -1.3050   -0.3990   -1.1170 O   0  0  0  0  0  0  0  0  0  0  0  0
   -2.4310    0.8950    0.3820 O   0  0  0  0  0  0  0  0  0  0  0  0
  1  2  2  0
  2  3  1  0
  2  4  1  0
  4  5  1  0
  5  6  1  0
  6  7  1  0
  6  8  1  0
  6  9  1  0
M  END
