
     RDKit          3D

 23 25  0  0  0  0  0  0  0  0999 V2000
    2.3400   -0.8110    0.4170 O   0  0  0  0  0  0  0  0  0  0  0  0
    2.3950    0.3170   -0.0870 C   0  0  0  0  0  0  0  0  0  0  0  0
    3.6910    0.8220   -0.2880 O   0  0  0  0  0  0  0  0  0  0  0  0
    5.1150   -0.0740    0.1400 P   0  0  0  0  0  0  0  0  0  0  0  0
    6.3690    0.9360    0.7780 O   0  0  0  0  0  0  0  0  0  0  0  0
    4.7800   -1.3110    1.2940 O   0  0  0  0  0  0  0  0  0  0  0  0
    1.2310    1.1140   -0.4660 C   0  0  0  0  0  0  0  0  0  0  0  0
    1.3150    2.3660   -1.0240 N   0  0  0  0  0  0  0  0  0  0  0  0
    0.1000    2.8280   -1.2540 C   0  0  0  0  0  0  0  0  0  0  0  0
   -0.3080    4.0440   -1.8060 O   0  0  0  0  0  0  0  0  0  0  0  0
   -0.7550    1.8900   -0.8510 N   0  0  0  0  0  0  0  0  0  0  0  0
   -0.1060    0.8320   -0.3650 C   0  0  0  0  0  0  0  0  0  0  0  0
   -0.7250   -0.3720    0.1620 C   0  0  0  0  0  0  0  0  0  0  0  0
   -0.0680   -1.4500    0.6570 N   0  0  0  0  0  0  0  0  0  0  0  0
   -0.9130   -2.4000    1.0650 C   0  0  0  0  0  0  0  0  0  0  0  0
   -2.1650   -1.8850    0.8110 C   0  0  0  0  0  0  0  0  0  0  0  0
   -3.3950   -2.3970    1.0170 N   0  0  0  0  0  0  0  0  0  0  0  0
   -4.5110   -1.7210    0.6920 C   0  0  0  0  0  0  0  0  0  0  0  0
   -5.6280   -2.2470    0.9070 O   0  0  0  0  0  0  0  0  0  0  0  0
   -4.3740   -0.4860    0.1430 N   0  0  0  0  0  0  0  0  0  0  0  0
   -3.1640    0.0540   -0.0760 C   0  0  0  0  0  0  0  0  0  0  0  0
   -3.0960    1.1980   -0.5860 O   0  0  0  0  0  0  0  0  0  0  0  0
   -2.0410   -0.6450    0.2580 N   0  0  0  0  0  0  0  0  0  0  0  0
  1  2  2  0
  2  3  1  0
  2  7  1  0
  3  4  1  0
  4  5  1  0
  4  6  1  0
  7  8  1  0
  7 12  2  0
  8  9  1  0
  9 10  1  0
  9 11  2  0
 11 12  1  0
 12 13  1  0
 13 14  2  0
 13 23  1  0
 14 15  1  0
 15 16  2  0
 16 17  1  0
 16 23  1  0
 17 18  1  0
 18 19  2  0
 18 20  1  0
 20 21  1  0
 21 22  2  0
 21 23  1  0
M  END
