
     RDKit          3D

 29 32  0  0  0  0  0  0  0  0999 V2000
   -4.3160    2.5700    3.5930 O   0  0  0  0  0  0  0  0  0  0  0  0
   -4.5730    2.2800    2.3980 C   0  0  0  0  0  0  0  0  0  0  0  0
   -5.8140    2.5820    1.5970 C   0  0  0  0  0  0  0  0  0  0  0  0
   -5.8580    1.3980    0.6830 C   0  0  0  0  0  0  0  0  0  0  0  0
   -4.4420    1.0300    0.4440 C   0  0  0  0  0  0  0  0  0  0  0  0
   -3.8380    0.2910   -0.5830 C   0  0  0  0  0  0  0  0  0  0  0  0
   -2.4630    0.0490   -0.6230 C   0  0  0  0  0  0  0  0  0  0  0  0
   -1.8330   -0.6910   -1.6440 N   0  0  0  0  0  0  0  0  0  0  0  0
   -2.4310   -1.3000   -2.7640 C   0  0  0  0  0  0  0  0  0  0  0  0
   -3.6470   -1.2290   -2.9580 O   0  0  0  0  0  0  0  0  0  0  0  0
   -1.6240   -2.0660   -3.7830 C   0  0  1  0  0  0  0  0  0  0  0  0
   -0.6810   -1.2950   -4.3840 F   0  0  0  0  0  0  0  0  0  0  0  0
   -1.0380   -3.1400   -3.1000 F   0  0  0  0  0  0  0  0  0  0  0  0
   -2.4460   -2.6060   -4.7460 F   0  0  0  0  0  0  0  0  0  0  0  0
   -1.7300    0.5780    0.4040 C   0  0  0  0  0  0  0  0  0  0  0  0
   -0.2780    0.3850    0.4590 C   0  0  0  0  0  0  0  0  0  0  0  0
    0.6330   -0.1690   -0.1960 N   0  0  0  0  0  0  0  0  0  0  0  0
    1.8820   -0.2040    0.0630 C   0  0  0  0  0  0  0  0  0  0  0  0
    2.9240   -0.9100   -0.8030 C   0  0  0  0  0  0  0  0  0  0  0  0
    4.2190   -0.7800   -0.2000 N   0  0  0  0  0  0  0  0  0  0  0  0
    4.8060   -1.7110    0.7600 C   0  0  0  0  0  0  0  0  0  0  0  0
    6.2850   -1.4250    0.6840 C   0  0  0  0  0  0  0  0  0  0  0  0
    6.3540    0.0600    0.3960 C   0  0  0  0  0  0  0  0  0  0  0  0
    5.1400    0.2900   -0.4500 C   0  0  0  0  0  0  0  0  0  0  0  0
    5.0250    1.2630   -1.2120 O   0  0  0  0  0  0  0  0  0  0  0  0
    2.2700    0.4700    1.2370 C   0  0  0  0  0  0  0  0  0  0  0  0
    0.7150    1.0810    1.8210 S   0  0  0  0  0  0  0  0  0  0  0  0
   -2.3510    1.3180    1.4270 C   0  0  0  0  0  0  0  0  0  0  0  0
   -3.7010    1.5540    1.4650 C   0  0  0  0  0  0  0  0  0  0  0  0
  1  2  2  0
  2  3  1  0
  2 29  1  0
  3  4  1  0
  4  5  1  0
  5  6  2  0
  5 29  1  0
  6  7  1  0
  7  8  1  0
  7 15  2  0
  8  9  1  0
  9 10  2  0
  9 11  1  0
 11 12  1  6
 11 13  1  0
 11 14  1  0
 15 16  1  0
 15 28  1  0
 16 17  2  0
 16 27  1  0
 17 18  1  0
 18 19  1  0
 18 26  2  0
 19 20  1  0
 20 21  1  0
 20 24  1  0
 21 22  1  0
 22 23  1  0
 23 24  1  0
 24 25  2  0
 26 27  1  0
 28 29  2  0
M  END
