
     RDKit          3D

 31 34  0  0  0  0  0  0  0  0999 V2000
   -9.3860   -0.5650    1.5440 C   0  0  0  0  0  0  0  0  0  0  0  0
   -7.9150   -0.7070    1.2700 C   0  0  0  0  0  0  0  0  0  0  0  0
   -7.5550   -1.7970    0.5070 C   0  0  0  0  0  0  0  0  0  0  0  0
   -6.2280   -2.0140    0.2040 C   0  0  0  0  0  0  0  0  0  0  0  0
   -5.2780   -1.1090    0.6850 C   0  0  0  0  0  0  0  0  0  0  0  0
   -5.6930   -0.0430    1.4380 C   0  0  0  0  0  0  0  0  0  0  0  0
   -4.7710    0.8990    1.9240 N   0  0  0  0  0  0  0  0  0  0  0  0
   -3.3670    0.7780    1.6430 C   0  0  0  0  0  0  0  0  0  0  0  0
   -3.0850    1.2400    0.2440 C   0  0  0  0  0  0  0  0  0  0  0  0
   -1.6010    1.0660   -0.0080 C   0  0  0  0  0  0  0  0  0  0  0  0
   -0.8710    0.6110    0.9030 O   0  0  0  0  0  0  0  0  0  0  0  0
   -1.0330    1.4060   -1.2470 N   0  0  0  0  0  0  0  0  0  0  0  0
    0.3230    1.2890   -1.6110 C   0  0  0  0  0  0  0  0  0  0  0  0
    1.3070    0.7880   -0.8170 C   0  0  0  0  0  0  0  0  0  0  0  0
    2.6450    0.6820   -1.2400 C   0  0  0  0  0  0  0  0  0  0  0  0
    3.5750    0.1700   -0.4100 N   0  0  0  0  0  0  0  0  0  0  0  0
    4.8670    0.0520   -0.8010 C   0  0  0  0  0  0  0  0  0  0  0  0
    5.8330   -0.4960    0.0890 N   0  0  0  0  0  0  0  0  0  0  0  0
    6.6450    0.3850    0.9040 C   0  0  0  0  0  0  0  0  0  0  0  0
    8.0650    0.0500    0.5410 C   0  0  0  0  0  0  0  0  0  0  0  0
    8.3870   -1.2360    0.5570 C   0  0  0  0  0  0  0  0  0  0  0  0
    7.3360   -2.2190    0.9280 C   0  0  0  0  0  0  0  0  0  0  0  0
    6.0400   -1.9230    0.2200 C   0  0  0  0  0  0  0  0  0  0  0  0
    5.1740    0.4660   -2.0390 N   0  0  0  0  0  0  0  0  0  0  0  0
    4.2730    0.9850   -2.9000 C   0  0  0  0  0  0  0  0  0  0  0  0
    4.5790    1.3650   -4.0490 O   0  0  0  0  0  0  0  0  0  0  0  0
    2.9500    1.1070   -2.5080 C   0  0  0  0  0  0  0  0  0  0  0  0
    2.0030    1.6060   -3.3150 N   0  0  0  0  0  0  0  0  0  0  0  0
    0.7370    1.6980   -2.8930 C   0  0  0  0  0  0  0  0  0  0  0  0
   -0.1340    2.1600   -3.6430 O   0  0  0  0  0  0  0  0  0  0  0  0
   -7.0030    0.1490    1.7240 N   0  0  0  0  0  0  0  0  0  0  0  0
  1  2  1  0
  2  3  2  0
  2 31  1  0
  3  4  1  0
  4  5  2  0
  5  6  1  0
  6  7  1  0
  6 31  2  0
  7  8  1  0
  8  9  1  0
  9 10  1  0
 10 11  2  0
 10 12  1  0
 12 13  1  0
 13 14  2  0
 13 29  1  0
 14 15  1  0
 15 16  1  0
 15 27  2  0
 16 17  1  0
 17 18  1  0
 17 24  2  0
 18 19  1  0
 18 23  1  0
 19 20  1  0
 20 21  2  0
 21 22  1  0
 22 23  1  0
 24 25  1  0
 25 26  2  0
 25 27  1  0
 27 28  1  0
 28 29  1  0
 29 30  2  0
M  CHG  1  31   1
M  END
