
     RDKit          3D

 31 34  0  0  0  0  0  0  0  0999 V2000
    6.6170   -0.4400   -0.1790 C   0  0  0  0  0  0  0  0  0  0  0  0
    5.1870   -1.0080   -0.0450 C   0  0  0  0  0  0  0  0  0  0  0  0
    4.3190    0.0330    0.5520 C   0  0  0  0  0  0  0  0  0  0  0  0
    4.8060    1.1050    1.1260 N   0  0  0  0  0  0  0  0  0  0  0  0
    3.7620    1.9040    1.5910 O   0  0  0  0  0  0  0  0  0  0  0  0
    2.6870    1.6400    0.6590 C   0  0  1  0  0  0  0  0  0  0  0  0
    2.9400    2.2040   -0.6570 C   0  0  0  0  0  0  0  0  0  0  0  0
    4.1250    2.9140   -0.9150 N   0  0  0  0  0  0  0  0  0  0  0  0
    2.1030    2.0630   -1.5830 O   0  0  0  0  0  0  0  0  0  0  0  0
    2.8830    0.1210    0.6370 C   0  0  0  0  0  0  0  0  0  0  0  0
    1.9540   -0.7530    0.7100 C   0  0  0  0  0  0  0  0  0  0  0  0
    0.5920   -0.3150    0.7700 N   0  0  0  0  0  0  0  0  0  0  0  0
   -0.6330   -0.8830    0.1910 C   0  0  0  0  0  0  0  0  0  0  0  0
   -1.6310    0.0860    0.0500 N   0  0  0  0  0  0  0  0  0  0  0  0
   -2.1230    0.7580    1.2680 C   0  0  0  0  0  0  0  0  0  0  0  0
   -1.8830    2.2560    1.2180 C   0  0  0  0  0  0  0  0  0  0  0  0
   -2.5050    2.7840   -0.0510 C   0  0  1  0  0  0  0  0  0  0  0  0
   -2.4460    4.2910   -0.1130 C   0  0  0  0  0  0  0  0  0  0  0  0
   -1.7550    2.1530   -1.2180 C   0  0  0  0  0  0  0  0  0  0  0  0
   -2.1220    0.6520   -1.1670 C   0  0  0  0  0  0  0  0  0  0  0  0
   -0.7970   -2.1070   -0.2280 C   0  0  0  0  0  0  0  0  0  0  0  0
   -2.0340   -2.6180   -0.7810 C   0  0  0  0  0  0  0  0  0  0  0  0
   -3.3630   -2.0500   -0.9300 C   0  0  0  0  0  0  0  0  0  0  0  0
   -4.0520   -1.6690    0.2770 N   0  0  0  0  0  0  0  0  0  0  0  0
   -5.1160   -2.6540    0.6420 C   0  0  0  0  0  0  0  0  0  0  0  0
   -1.7270   -3.8900   -1.1660 C   0  0  0  0  0  0  0  0  0  0  0  0
   -0.3940   -4.1890   -0.8820 N   0  0  0  0  0  0  0  0  0  0  0  0
    0.2050   -3.2060   -0.3380 C   0  0  0  0  0  0  0  0  0  0  0  0
    1.5550   -3.2230    0.0610 N   0  0  0  0  0  0  0  0  0  0  0  0
    2.2580   -2.1760    0.7770 C   0  0  0  0  0  0  0  0  0  0  0  0
    3.1970   -2.5060    1.5160 O   0  0  0  0  0  0  0  0  0  0  0  0
  1  2  1  0
  2  3  1  0
  3  4  2  0
  3 10  1  0
  4  5  1  0
  5  6  1  0
  6  7  1  6
  6 10  1  0
  7  8  1  0
  7  9  2  0
 10 11  2  3
 11 12  1  0
 11 30  1  0
 12 13  1  0
 13 14  1  0
 13 21  2  0
 14 15  1  0
 14 20  1  0
 15 16  1  0
 16 17  1  0
 17 18  1  1
 17 19  1  0
 19 20  1  0
 21 22  1  0
 21 28  1  0
 22 23  1  0
 22 26  2  0
 23 24  1  0
 24 25  1  0
 26 27  1  0
 27 28  2  0
 28 29  1  0
 29 30  1  0
 30 31  2  0
M  CHG  1  24   1
M  END
