
     RDKit          3D

 31 34  0  0  0  0  0  0  0  0999 V2000
   -2.8390   -1.2240    0.4490 C   0  0  0  0  0  0  0  0  0  0  0  0
   -1.4490   -1.6140    0.1280 C   0  0  0  0  0  0  0  0  0  0  0  0
   -1.2100   -2.8850    0.2160 N   0  0  0  0  0  0  0  0  0  0  0  0
   -2.0830   -3.9350    0.5710 C   0  0  2  0  0  0  0  0  0  0  0  0
   -3.3530   -4.0400   -0.2100 C   0  0  0  0  0  0  0  0  0  0  0  0
   -2.3800   -4.0680    2.0310 C   0  0  0  0  0  0  0  0  0  0  0  0
   -0.3420   -0.7470   -0.2210 C   0  0  0  0  0  0  0  0  0  0  0  0
   -0.4070    0.5960   -0.4070 C   0  0  0  0  0  0  0  0  0  0  0  0
   -1.6210    1.3380   -0.4320 N   0  0  0  0  0  0  0  0  0  0  0  0
   -2.6200    1.2720   -1.4650 C   0  0  0  0  0  0  0  0  0  0  0  0
   -3.9320    1.7470   -0.9360 C   0  0  0  0  0  0  0  0  0  0  0  0
   -3.8120    3.0700   -0.5560 O   0  0  0  0  0  0  0  0  0  0  0  0
   -2.8120    3.3620    0.3200 C   0  0  1  0  0  0  0  0  0  0  0  0
   -3.3280    3.9190    1.6440 C   0  0  0  0  0  0  0  0  0  0  0  0
   -4.0770    5.1420    1.4420 N   0  0  0  0  0  0  0  0  0  0  0  0
   -1.8360    2.2940    0.6340 C   0  0  0  0  0  0  0  0  0  0  0  0
    0.7630    1.2950   -0.6590 N   0  0  0  0  0  0  0  0  0  0  0  0
    1.9600    0.7490   -0.7360 C   0  0  0  0  0  0  0  0  0  0  0  0
    3.0500    1.4100   -0.9720 N   0  0  0  0  0  0  0  0  0  0  0  0
    4.3170    0.8200   -1.0520 C   0  0  0  0  0  0  0  0  0  0  0  0
    4.7340    0.2420   -2.2300 C   0  0  0  0  0  0  0  0  0  0  0  0
    5.9720   -0.3510   -2.3560 C   0  0  0  0  0  0  0  0  0  0  0  0
    6.8230   -0.3680   -1.2680 C   0  0  0  0  0  0  0  0  0  0  0  0
    6.4190    0.2090   -0.0740 C   0  0  0  0  0  0  0  0  0  0  0  0
    5.1720    0.7950    0.0200 C   0  0  0  0  0  0  0  0  0  0  0  0
    7.4720    0.0350    0.8120 O   0  0  0  0  0  0  0  0  0  0  0  0
    8.6020   -0.4300    0.1140 C   0  0  0  0  0  0  0  0  0  0  0  0
    8.1040   -0.8910   -1.1250 O   0  0  0  0  0  0  0  0  0  0  0  0
    2.0440   -0.5760   -0.5570 N   0  0  0  0  0  0  0  0  0  0  0  0
    0.9440   -1.3070   -0.3090 C   0  0  0  0  0  0  0  0  0  0  0  0
    1.0300   -2.7160   -0.1180 N   0  0  0  0  0  0  0  0  0  0  0  0
  1  2  1  0
  2  3  2  3
  2  7  1  0
  3  4  1  0
  4  5  1  6
  4  6  1  0
  7  8  1  0
  7 30  2  0
  8  9  1  0
  8 17  2  0
  9 10  1  0
  9 16  1  0
 10 11  1  0
 11 12  1  0
 12 13  1  0
 13 14  1  1
 13 16  1  0
 14 15  1  0
 17 18  1  0
 18 19  2  3
 18 29  1  0
 19 20  1  0
 20 21  2  0
 20 25  1  0
 21 22  1  0
 22 23  2  0
 23 24  1  0
 23 28  1  0
 24 25  2  0
 24 26  1  0
 26 27  1  0
 27 28  1  0
 29 30  1  0
 30 31  1  0
M  CHG  1  15   1
M  END
