
     RDKit          3D

 29 32  0  0  0  0  0  0  0  0999 V2000
    0.4590   -2.8270   -1.3940 O   0  0  0  0  0  0  0  0  0  0  0  0
   -0.1260   -1.7980   -0.8800 C   0  0  0  0  0  0  0  0  0  0  0  0
   -1.4040   -1.3890   -1.1660 O   0  0  0  0  0  0  0  0  0  0  0  0
   -1.7380   -0.2190   -0.4340 C   0  0  0  0  0  0  0  0  0  0  0  0
   -3.0730    0.3620   -0.6290 C   0  0  0  0  0  0  0  0  0  0  0  0
   -4.1820   -0.3520   -0.2170 C   0  0  0  0  0  0  0  0  0  0  0  0
   -5.4340    0.1360   -0.4760 C   0  0  0  0  0  0  0  0  0  0  0  0
   -5.5620    1.3340   -1.1440 C   0  0  0  0  0  0  0  0  0  0  0  0
   -4.4660    2.0580   -1.5610 C   0  0  0  0  0  0  0  0  0  0  0  0
   -3.2090    1.5460   -1.2890 C   0  0  0  0  0  0  0  0  0  0  0  0
   -0.7200    0.1340    0.3100 C   0  0  0  0  0  0  0  0  0  0  0  0
   -0.6090    1.2440    1.2150 C   0  0  0  0  0  0  0  0  0  0  0  0
    0.5070    1.4050    1.8280 O   0  0  0  0  0  0  0  0  0  0  0  0
   -1.6310    2.2290    1.5290 C   0  0  2  0  0  0  0  0  0  0  0  0
   -2.8790    1.7020    1.7800 F   0  0  0  0  0  0  0  0  0  0  0  0
   -1.6930    3.2860    0.6610 F   0  0  0  0  0  0  0  0  0  0  0  0
   -1.2830    2.7870    2.8260 F   0  0  0  0  0  0  0  0  0  0  0  0
    0.3950   -0.8510    0.0830 C   0  0  0  0  0  0  0  0  0  0  0  0
    1.5740   -0.8860    0.6380 C   0  0  0  0  0  0  0  0  0  0  0  0
    2.5980   -1.9440    0.3640 C   0  0  0  0  0  0  0  0  0  0  0  0
    2.3090   -3.2490    0.5490 C   0  0  0  0  0  0  0  0  0  0  0  0
    3.2570   -4.1620    0.2570 C   0  0  0  0  0  0  0  0  0  0  0  0
    4.6610   -3.1650   -0.3180 S   0  0  0  0  0  0  0  0  0  0  0  0
    3.8020   -1.5870   -0.0980 C   0  0  0  0  0  0  0  0  0  0  0  0
    4.3960   -0.3020   -0.3920 C   0  0  0  0  0  0  0  0  0  0  0  0
    5.6360   -0.1130   -0.8590 N   0  0  0  0  0  0  0  0  0  0  0  0
    5.8570    1.2180   -1.0170 C   0  0  0  0  0  0  0  0  0  0  0  0
    4.7270    1.8260   -0.6370 N   0  0  0  0  0  0  0  0  0  0  0  0
    3.8500    0.9070   -0.2610 N   0  0  0  0  0  0  0  0  0  0  0  0
  1  2  2  0
  2  3  1  0
  2 18  1  0
  3  4  1  0
  4  5  1  0
  4 11  2  0
  5  6  2  0
  5 10  1  0
  6  7  1  0
  7  8  2  0
  8  9  1  0
  9 10  2  0
 11 12  1  0
 11 18  1  0
 12 13  2  0
 12 14  1  0
 14 15  1  1
 14 16  1  0
 14 17  1  0
 18 19  2  3
 19 20  1  0
 20 21  1  0
 20 24  2  0
 21 22  2  0
 22 23  1  0
 23 24  1  0
 24 25  1  0
 25 26  1  0
 25 29  2  0
 26 27  2  0
 27 28  1  0
 28 29  1  0
M  END
