
     RDKit          3D

 29 32  0  0  0  0  0  0  0  0999 V2000
    6.9520   -0.5510    1.9880 C   0  0  0  0  0  0  0  0  0  0  0  0
    6.6800    0.4110    0.8950 C   0  0  0  0  0  0  0  0  0  0  0  0
    7.6120    1.1030    0.4430 O   0  0  0  0  0  0  0  0  0  0  0  0
    5.3590    0.5190    0.3910 C   0  0  0  0  0  0  0  0  0  0  0  0
    4.1870   -0.0920    0.6890 C   0  0  0  0  0  0  0  0  0  0  0  0
    3.0760    0.2300    0.0210 C   0  0  0  0  0  0  0  0  0  0  0  0
    1.7620   -0.3000    0.1900 C   0  0  0  0  0  0  0  0  0  0  0  0
    1.5650   -1.1910    1.0710 O   0  0  0  0  0  0  0  0  0  0  0  0
    0.7470    0.1170   -0.5510 N   0  0  0  0  0  0  0  0  0  0  0  0
   -0.4790   -0.4430   -0.3250 C   0  0  0  0  0  0  0  0  0  0  0  0
   -1.5860   -0.0580   -1.0590 C   0  0  0  0  0  0  0  0  0  0  0  0
   -2.8500   -0.7040   -0.8550 C   0  0  0  0  0  0  0  0  0  0  0  0
   -3.5350   -0.9450   -1.9240 O   0  0  0  0  0  0  0  0  0  0  0  0
   -3.4690   -1.1210    0.3680 C   0  0  0  0  0  0  0  0  0  0  0  0
   -2.9970   -0.9630    1.5820 C   0  0  0  0  0  0  0  0  0  0  0  0
   -3.9460   -1.5410    2.5980 C   0  0  0  0  0  0  0  0  0  0  0  0
   -5.0320   -2.0510    1.7410 C   0  0  0  0  0  0  0  0  0  0  0  0
   -4.7330   -1.7980    0.4910 C   0  0  0  0  0  0  0  0  0  0  0  0
   -1.4160    0.9000   -2.0190 C   0  0  0  0  0  0  0  0  0  0  0  0
   -2.5640    1.3660   -2.8060 C   0  0  0  0  0  0  0  0  0  0  0  0
   -3.4500    2.3310   -2.0290 C   0  0  1  0  0  0  0  0  0  0  0  0
   -2.6990    3.4610   -1.6580 F   0  0  0  0  0  0  0  0  0  0  0  0
   -4.4730    2.8150   -2.8170 F   0  0  0  0  0  0  0  0  0  0  0  0
   -3.9220    1.8170   -0.8530 F   0  0  0  0  0  0  0  0  0  0  0  0
   -0.1610    1.4320   -2.2090 N   0  0  0  0  0  0  0  0  0  0  0  0
    0.8670    1.0400   -1.4890 C   0  0  0  0  0  0  0  0  0  0  0  0
    2.0900    1.5970   -1.7150 N   0  0  0  0  0  0  0  0  0  0  0  0
    3.1370    1.1870   -0.9720 C   0  0  0  0  0  0  0  0  0  0  0  0
    4.8900    1.6780   -0.9700 S   0  0  0  0  0  0  0  0  0  0  0  0
  1  2  1  0
  2  3  2  0
  2  4  1  0
  4  5  2  0
  4 29  1  0
  5  6  1  0
  6  7  1  0
  6 28  2  0
  7  8  2  0
  7  9  1  0
  9 10  1  0
  9 26  1  0
 10 11  2  0
 11 12  1  0
 11 19  1  0
 12 13  2  0
 12 14  1  0
 14 15  2  0
 14 18  1  0
 15 16  1  0
 16 17  1  0
 17 18  2  0
 19 20  1  0
 19 25  2  0
 20 21  1  0
 21 22  1  1
 21 23  1  0
 21 24  1  0
 25 26  1  0
 26 27  2  0
 27 28  1  0
 28 29  1  0
M  END
