
     RDKit          3D

 30 31  0  0  0  0  0  0  0  0999 V2000
   -3.7780    2.0040   -1.5710 N   0  0  0  0  0  0  0  0  0  0  0  0
   -4.7030    0.9520   -1.6270 C   0  0  0  0  0  0  0  0  0  0  0  0
   -5.6660    1.0570   -2.4750 O   0  0  0  0  0  0  0  0  0  0  0  0
   -4.6780   -0.2530   -0.8120 C   0  0  0  0  0  0  0  0  0  0  0  0
   -5.6920   -1.1970   -1.0340 C   0  0  0  0  0  0  0  0  0  0  0  0
   -5.7430   -2.3570   -0.3120 C   0  0  0  0  0  0  0  0  0  0  0  0
   -4.7990   -2.6040    0.6360 C   0  0  0  0  0  0  0  0  0  0  0  0
   -3.7990   -1.6820    0.8610 C   0  0  0  0  0  0  0  0  0  0  0  0
   -3.7100   -0.4830    0.1460 C   0  0  0  0  0  0  0  0  0  0  0  0
   -2.6430    0.4820    0.4040 C   0  0  0  0  0  0  0  0  0  0  0  0
   -1.7190    0.0540    1.4550 N   0  0  0  0  0  0  0  0  0  0  0  0
   -0.7180    1.0210    1.7110 C   0  0  1  0  0  0  0  0  0  0  0  0
   -0.4270    1.3610    3.1290 C   0  0  0  0  0  0  0  0  0  0  0  0
   -1.5070    1.9270    3.9540 C   0  0  1  0  0  0  0  0  0  0  0  0
   -2.6040    1.1120    4.0900 F   0  0  0  0  0  0  0  0  0  0  0  0
   -0.9980    2.0500    5.2600 F   0  0  0  0  0  0  0  0  0  0  0  0
   -1.8600    3.2200    3.6080 F   0  0  0  0  0  0  0  0  0  0  0  0
    0.5790    0.8290    1.0330 C   0  0  0  0  0  0  0  0  0  0  0  0
    1.4740    1.6920    1.3430 O   0  0  0  0  0  0  0  0  0  0  0  0
    0.9080   -0.1830    0.1100 N   0  0  0  0  0  0  0  0  0  0  0  0
    2.2200   -0.2230   -0.4530 C   0  0  0  0  0  0  0  0  0  0  0  0
    2.5880   -1.1960   -1.3650 C   0  0  0  0  0  0  0  0  0  0  0  0
    3.8730   -1.2310   -1.9120 C   0  0  0  0  0  0  0  0  0  0  0  0
    4.2650   -2.2100   -2.8390 N   0  0  0  0  0  0  0  0  0  0  0  0
    4.8030   -0.2820   -1.5440 C   0  0  0  0  0  0  0  0  0  0  0  0
    6.1680   -0.2610   -2.0780 C   0  0  0  0  0  0  0  0  0  0  0  0
    7.0540   -1.3240   -1.4610 C   0  0  0  0  0  0  0  0  0  0  0  0
    7.1850   -1.1090    0.3010 Cl  0  0  0  0  0  0  0  0  0  0  0  0
    4.4070    0.6730   -0.6340 C   0  0  0  0  0  0  0  0  0  0  0  0
    3.1600    0.6800   -0.1240 N   0  0  0  0  0  0  0  0  0  0  0  0
  1  2  1  0
  2  3  2  0
  2  4  1  0
  4  5  2  0
  4  9  1  0
  5  6  1  0
  6  7  2  0
  7  8  1  0
  8  9  2  0
  9 10  1  0
 10 11  1  0
 11 12  1  0
 12 13  1  1
 12 18  1  0
 13 14  1  0
 14 15  1  1
 14 16  1  0
 14 17  1  0
 18 19  2  0
 18 20  1  0
 20 21  1  0
 21 22  2  0
 21 30  1  0
 22 23  1  0
 23 24  1  0
 23 25  2  0
 25 26  1  0
 25 29  1  0
 26 27  1  0
 27 28  1  0
 29 30  2  0
M  CHG  1  11   1
M  END
