
     RDKit          3D

 30 31  0  0  0  0  0  0  0  0999 V2000
   -4.9410    3.2190    3.2720 N   0  0  0  0  0  0  0  0  0  0  0  0
   -3.5620    2.7160    3.3500 C   0  0  0  0  0  0  0  0  0  0  0  0
   -3.5380    1.3760    2.5740 C   0  0  0  0  0  0  0  0  0  0  0  0
   -2.1730    0.7850    2.5800 C   0  0  0  0  0  0  0  0  0  0  0  0
   -1.2750    0.9970    3.3560 O   0  0  0  0  0  0  0  0  0  0  0  0
   -1.9680   -0.1520    1.4770 N   0  0  0  0  0  0  0  0  0  0  0  0
   -0.7060   -0.8450    1.2910 C   0  0  2  0  0  0  0  0  0  0  0  0
    0.1650    0.1170    0.4910 C   0  0  0  0  0  0  0  0  0  0  0  0
   -0.0430    1.3560    0.6010 O   0  0  0  0  0  0  0  0  0  0  0  0
    1.1940   -0.3280   -0.3660 N   0  0  0  0  0  0  0  0  0  0  0  0
    2.0780    0.4860   -1.1190 C   0  0  0  0  0  0  0  0  0  0  0  0
    2.2570    1.8360   -0.8890 C   0  0  0  0  0  0  0  0  0  0  0  0
    3.1580    2.5750   -1.5530 N   0  0  0  0  0  0  0  0  0  0  0  0
    3.9420    2.0900   -2.4850 C   0  0  0  0  0  0  0  0  0  0  0  0
    4.8620    2.8700   -3.1810 C   0  0  0  0  0  0  0  0  0  0  0  0
    5.6180    2.2740   -4.1390 C   0  0  0  0  0  0  0  0  0  0  0  0
    5.5360    0.9240   -4.4750 C   0  0  0  0  0  0  0  0  0  0  0  0
    4.6090    0.1920   -3.7550 C   0  0  0  0  0  0  0  0  0  0  0  0
    3.7970    0.7170   -2.7700 C   0  0  0  0  0  0  0  0  0  0  0  0
    2.8940   -0.0500   -2.0920 C   0  0  0  0  0  0  0  0  0  0  0  0
    2.7840   -1.3700   -2.3900 F   0  0  0  0  0  0  0  0  0  0  0  0
   -0.7780   -2.1920    0.7500 C   0  0  0  0  0  0  0  0  0  0  0  0
   -1.4180   -2.6190   -0.4700 C   0  0  0  0  0  0  0  0  0  0  0  0
   -2.0800   -1.9440   -1.3460 C   0  0  0  0  0  0  0  0  0  0  0  0
   -2.6300   -2.6170   -2.4820 N   0  0  0  0  0  0  0  0  0  0  0  0
   -3.3010   -4.2010   -2.2310 Cl  0  0  0  0  0  0  0  0  0  0  0  0
   -0.1410   -3.1570    1.4600 C   0  0  0  0  0  0  0  0  0  0  0  0
   -0.1080   -4.5770    1.0490 C   0  0  1  0  0  0  0  0  0  0  0  0
    0.6080   -4.7600   -0.0940 F   0  0  0  0  0  0  0  0  0  0  0  0
    0.4940   -5.3370    2.0460 F   0  0  0  0  0  0  0  0  0  0  0  0
  1  2  1  0
  2  3  1  0
  3  4  1  0
  4  5  2  0
  4  6  1  0
  7  6  1  6
  7  8  1  0
  7 22  1  0
  8  9  2  0
  8 10  1  0
 10 11  1  0
 11 12  2  0
 11 20  1  0
 12 13  1  0
 13 14  2  0
 14 15  1  0
 14 19  1  0
 15 16  2  0
 16 17  1  0
 17 18  2  0
 18 19  1  0
 19 20  2  0
 20 21  1  0
 22 23  1  0
 22 27  2  3
 23 24  2  3
 24 25  1  0
 25 26  1  0
 27 28  1  0
 28 29  1  6
 28 30  1  0
M  CHG  1   1   1
M  END
