
     RDKit          3D

 30 33  0  0  0  0  0  0  0  0999 V2000
   -3.3440   -1.6600   -0.4760 C   0  0  0  0  0  0  0  0  0  0  0  0
   -2.2690   -0.5890   -0.3820 C   0  0  1  0  0  0  0  0  0  0  0  0
   -2.8570    0.5130    0.4600 C   0  0  0  0  0  0  0  0  0  0  0  0
   -2.3190    0.8140    1.5590 O   0  0  0  0  0  0  0  0  0  0  0  0
   -4.0000    1.2210    0.0480 N   0  0  0  0  0  0  0  0  0  0  0  0
   -4.6400    0.9080   -1.2050 C   0  0  0  0  0  0  0  0  0  0  0  0
   -5.3010    2.2170   -1.6580 C   0  0  0  0  0  0  0  0  0  0  0  0
   -6.2450    2.6430   -0.7610 O   0  0  0  0  0  0  0  0  0  0  0  0
   -6.0700    2.2460    0.5450 C   0  0  0  0  0  0  0  0  0  0  0  0
   -4.5660    2.2700    0.8570 C   0  0  0  0  0  0  0  0  0  0  0  0
   -1.0860   -1.0950    0.2870 N   0  0  0  0  0  0  0  0  0  0  0  0
   -1.0600   -1.6510    1.6110 C   0  0  0  0  0  0  0  0  0  0  0  0
    0.0930   -2.6270    1.5440 C   0  0  0  0  0  0  0  0  0  0  0  0
    1.1430   -1.6740    0.8770 C   0  0  2  0  0  0  0  0  0  0  0  0
    1.5330   -0.6820    1.8210 N   0  0  0  0  0  0  0  0  0  0  0  0
    3.1550   -0.6700    2.2600 S   0  0  1  0  0  0  0  0  0  0  0  0
    3.4640    0.3780    3.3220 O   0  0  0  0  0  0  0  0  0  0  0  0
    3.5030   -2.0370    2.8180 O   0  0  0  0  0  0  0  0  0  0  0  0
    4.2800   -0.3580    0.9530 C   0  0  0  0  0  0  0  0  0  0  0  0
    4.0810   -0.0860   -0.3420 C   0  0  0  0  0  0  0  0  0  0  0  0
    5.1450    0.1260   -1.1480 C   0  0  0  0  0  0  0  0  0  0  0  0
    5.1240    0.4240   -2.5390 C   0  0  0  0  0  0  0  0  0  0  0  0
    6.2860    0.6120   -3.2170 C   0  0  0  0  0  0  0  0  0  0  0  0
    7.5330    0.5370   -2.6590 C   0  0  0  0  0  0  0  0  0  0  0  0
    9.0150    0.7800   -3.5370 Cl  0  0  0  0  0  0  0  0  0  0  0  0
    7.5790    0.2450   -1.2920 C   0  0  0  0  0  0  0  0  0  0  0  0
    6.3820    0.0550   -0.6130 C   0  0  0  0  0  0  0  0  0  0  0  0
    6.0410   -0.3290    1.1140 S   0  0  0  0  0  0  0  0  0  0  0  0
    0.2740   -1.1540   -0.2010 C   0  0  0  0  0  0  0  0  0  0  0  0
    0.5430   -0.7960   -1.3650 O   0  0  0  0  0  0  0  0  0  0  0  0
  2  1  1  1
  2  3  1  0
  2 11  1  0
  3  4  2  0
  3  5  1  0
  5  6  1  0
  5 10  1  0
  6  7  1  0
  7  8  1  0
  8  9  1  0
  9 10  1  0
 11 12  1  0
 11 29  1  0
 12 13  1  0
 13 14  1  0
 14 15  1  1
 14 29  1  0
 16 15  1  6
 16 17  2  0
 16 18  2  0
 16 19  1  0
 19 20  2  0
 19 28  1  0
 20 21  1  0
 21 22  2  0
 21 27  1  0
 22 23  1  0
 23 24  2  0
 24 25  1  0
 24 26  1  0
 26 27  2  0
 27 28  1  0
 29 30  2  0
M  END
