
     RDKit          3D

 30 31  0  0  0  0  0  0  0  0999 V2000
    6.1200   -3.2270    1.1870 C   0  0  0  0  0  0  0  0  0  0  0  0
    4.9420   -2.6600    0.3920 C   0  0  0  0  0  0  0  0  0  0  0  0
    5.4920   -1.9320   -0.7300 N   0  0  0  0  0  0  0  0  0  0  0  0
    4.8860   -0.6860   -0.9410 C   0  0  0  0  0  0  0  0  0  0  0  0
    5.5700    0.2200   -1.4870 O   0  0  0  0  0  0  0  0  0  0  0  0
    3.4990   -0.3860   -0.5590 C   0  0  0  0  0  0  0  0  0  0  0  0
    2.9790    0.7980   -0.7780 C   0  0  0  0  0  0  0  0  0  0  0  0
    1.6210    1.1410   -0.4200 C   0  0  0  0  0  0  0  0  0  0  0  0
    1.2080    2.3860   -0.7060 C   0  0  0  0  0  0  0  0  0  0  0  0
    2.4190    3.4160   -1.4870 Cl  0  0  0  0  0  0  0  0  0  0  0  0
   -0.0800    3.0140   -0.4780 C   0  0  0  0  0  0  0  0  0  0  0  0
   -0.1250    4.3180   -0.3180 C   0  0  0  0  0  0  0  0  0  0  0  0
    0.9640    5.2060   -0.3420 N   0  0  0  0  0  0  0  0  0  0  0  0
    0.9490    6.3300   -1.2400 C   0  0  1  0  0  0  0  0  0  0  0  0
    2.1020    7.0860   -1.1490 F   0  0  0  0  0  0  0  0  0  0  0  0
    0.7340    6.0200   -2.5470 F   0  0  0  0  0  0  0  0  0  0  0  0
   -0.0890    7.2100   -0.8850 F   0  0  0  0  0  0  0  0  0  0  0  0
   -1.3460    2.3370   -0.4040 N   0  0  0  0  0  0  0  0  0  0  0  0
   -1.5460    0.9480   -0.0760 C   0  0  0  0  0  0  0  0  0  0  0  0
   -2.8640    0.5920   -0.0420 C   0  0  0  0  0  0  0  0  0  0  0  0
   -3.3110   -0.7020    0.2560 C   0  0  0  0  0  0  0  0  0  0  0  0
   -4.7000   -0.9700    0.2590 N   0  0  0  0  0  0  0  0  0  0  0  0
   -5.3500   -2.1400    0.6550 C   0  0  0  0  0  0  0  0  0  0  0  0
   -4.6690   -3.1010    1.0690 O   0  0  0  0  0  0  0  0  0  0  0  0
   -6.8550   -2.2730    0.5940 C   0  0  0  0  0  0  0  0  0  0  0  0
   -7.2010   -3.6520    1.0920 C   0  0  0  0  0  0  0  0  0  0  0  0
   -2.3170   -1.6080    0.5170 C   0  0  0  0  0  0  0  0  0  0  0  0
   -0.9600   -1.2960    0.4960 C   0  0  0  0  0  0  0  0  0  0  0  0
   -0.6010   -0.0140    0.1970 C   0  0  0  0  0  0  0  0  0  0  0  0
    0.8100    0.1480    0.2140 N   0  0  0  0  0  0  0  0  0  0  0  0
  1  2  1  0
  2  3  1  0
  3  4  1  0
  4  5  2  0
  4  6  1  0
  6  7  2  3
  7  8  1  0
  8  9  2  0
  8 30  1  0
  9 10  1  0
  9 11  1  0
 11 12  2  3
 11 18  1  0
 12 13  1  0
 13 14  1  0
 14 15  1  6
 14 16  1  0
 14 17  1  0
 18 19  1  0
 19 20  2  0
 19 29  1  0
 20 21  1  0
 21 22  1  0
 21 27  2  0
 22 23  1  0
 23 24  2  0
 23 25  1  0
 25 26  1  0
 27 28  1  0
 28 29  2  0
 29 30  1  0
M  CHG  1   3   1
M  END
