
     RDKit          3D

 30 32  0  0  0  0  0  0  0  0999 V2000
    4.4230    2.5610   -0.0640 N   0  0  0  0  0  0  0  0  0  0  0  0
    5.4300    1.5440   -0.1530 C   0  0  0  0  0  0  0  0  0  0  0  0
    5.0020    0.2190   -0.0090 C   0  0  0  0  0  0  0  0  0  0  0  0
    3.6440   -0.0650    0.2760 N   0  0  0  0  0  0  0  0  0  0  0  0
    3.1740   -1.4090    0.3740 C   0  0  0  0  0  0  0  0  0  0  0  0
    1.8800   -1.5830    1.1100 C   0  0  0  0  0  0  0  0  0  0  0  0
    0.7570   -0.8620    0.6150 N   0  0  0  0  0  0  0  0  0  0  0  0
    0.3840    0.4350    1.0590 C   0  0  0  0  0  0  0  0  0  0  0  0
    0.9370    1.0630    2.0230 O   0  0  0  0  0  0  0  0  0  0  0  0
   -0.7370    0.9400    0.2350 C   0  0  0  0  0  0  0  0  0  0  0  0
   -1.2550   -0.2610   -0.4940 C   0  0  2  0  0  0  0  0  0  0  0  0
   -2.5610   -0.6860   -0.0340 N   0  0  0  0  0  0  0  0  0  0  0  0
   -3.3210   -1.1300   -1.1910 C   0  0  0  0  0  0  0  0  0  0  0  0
   -4.7170   -1.5490   -0.8930 C   0  0  0  0  0  0  0  0  0  0  0  0
   -5.5360   -0.4620   -0.3050 C   0  0  0  0  0  0  0  0  0  0  0  0
   -5.9080   -0.4300    1.0170 C   0  0  0  0  0  0  0  0  0  0  0  0
   -6.6680    0.5610    1.5480 N   0  0  0  0  0  0  0  0  0  0  0  0
   -7.0760    1.5550    0.7430 C   0  0  0  0  0  0  0  0  0  0  0  0
   -6.7220    1.5580   -0.5970 C   0  0  0  0  0  0  0  0  0  0  0  0
   -5.9560    0.5620   -1.1330 C   0  0  0  0  0  0  0  0  0  0  0  0
   -5.5010    0.5680   -2.8480 Cl  0  0  0  0  0  0  0  0  0  0  0  0
   -0.2020   -1.2650   -0.3860 C   0  0  0  0  0  0  0  0  0  0  0  0
   -0.0860   -2.3350   -1.0300 O   0  0  0  0  0  0  0  0  0  0  0  0
    5.9810   -0.7390   -0.1150 C   0  0  0  0  0  0  0  0  0  0  0  0
    7.3130   -0.4520   -0.3460 C   0  0  0  0  0  0  0  0  0  0  0  0
    8.2350   -1.4440   -0.4370 F   0  0  0  0  0  0  0  0  0  0  0  0
    7.7140    0.8650   -0.4840 C   0  0  0  0  0  0  0  0  0  0  0  0
    9.0060    1.2190   -0.7070 F   0  0  0  0  0  0  0  0  0  0  0  0
    6.7490    1.8430   -0.3820 C   0  0  0  0  0  0  0  0  0  0  0  0
    7.1530    3.1300   -0.5200 F   0  0  0  0  0  0  0  0  0  0  0  0
  1  2  1  0
  2  3  2  0
  2 29  1  0
  3  4  1  0
  3 24  1  0
  4  5  1  0
  5  6  1  0
  6  7  1  0
  7  8  1  0
  7 22  1  0
  8  9  2  0
  8 10  1  0
 10 11  1  0
 11 12  1  1
 11 22  1  0
 12 13  1  0
 13 14  1  0
 14 15  1  0
 15 16  2  0
 15 20  1  0
 16 17  1  0
 17 18  2  0
 18 19  1  0
 19 20  2  0
 20 21  1  0
 22 23  2  0
 24 25  2  0
 25 26  1  0
 25 27  1  0
 27 28  1  0
 27 29  2  0
 29 30  1  0
M  CHG  1  17   1
M  END
