
     RDKit          3D

 30 30  0  0  0  0  0  0  0  0999 V2000
   -4.7780   -1.1270    1.7860 C   0  0  0  0  0  0  0  0  0  0  0  0
   -5.7140   -0.2050    1.6240 C   0  0  0  0  0  0  0  0  0  0  0  0
   -6.6790   -0.0240    2.5450 F   0  0  0  0  0  0  0  0  0  0  0  0
   -5.7110    0.6430    0.4190 C   0  0  0  0  0  0  0  0  0  0  0  0
   -6.6540    1.5530    0.2800 C   0  0  0  0  0  0  0  0  0  0  0  0
   -6.6520    2.4080   -0.9320 C   0  0  0  0  0  0  0  0  0  0  0  0
   -4.7240    0.4990   -0.5790 N   0  0  0  0  0  0  0  0  0  0  0  0
   -3.4270    1.1700   -0.4400 C   0  0  0  0  0  0  0  0  0  0  0  0
   -2.5900    0.8550   -1.6110 C   0  0  0  0  0  0  0  0  0  0  0  0
   -1.4410    0.2560   -1.4910 C   0  0  0  0  0  0  0  0  0  0  0  0
   -0.9200   -0.1320   -0.2140 C   0  0  0  0  0  0  0  0  0  0  0  0
   -0.1470   -1.2250   -0.1020 C   0  0  0  0  0  0  0  0  0  0  0  0
    0.4210   -1.6800    1.1920 C   0  0  0  0  0  0  0  0  0  0  0  0
    1.8540   -1.6880    1.0930 N   0  0  0  0  0  0  0  0  0  0  0  0
    2.5390   -0.4760    0.8030 C   0  0  0  0  0  0  0  0  0  0  0  0
    1.9120    0.6140    0.6310 O   0  0  0  0  0  0  0  0  0  0  0  0
    3.9440   -0.4650    0.7010 N   0  0  0  0  0  0  0  0  0  0  0  0
    4.6720    0.7460    0.4090 C   0  0  0  0  0  0  0  0  0  0  0  0
    6.1400    0.5310    0.3300 C   0  0  0  0  0  0  0  0  0  0  0  0
    6.6760   -0.3250   -0.7000 C   0  0  0  0  0  0  0  0  0  0  0  0
    6.0840   -0.9440   -1.6170 N   0  0  0  0  0  0  0  0  0  0  0  0
    4.4500   -1.0520   -2.0500 Cl  0  0  0  0  0  0  0  0  0  0  0  0
    6.9680    1.1190    1.1890 C   0  0  0  0  0  0  0  0  0  0  0  0
    6.4950    2.0130    2.2630 C   0  0  2  0  0  0  0  0  0  0  0  0
    5.6180    1.3530    3.1330 F   0  0  0  0  0  0  0  0  0  0  0  0
    5.9140    3.1600    1.7920 F   0  0  0  0  0  0  0  0  0  0  0  0
    0.1310   -1.9490   -1.3310 C   0  0  0  0  0  0  0  0  0  0  0  0
    0.8510   -2.9800   -1.2620 O   0  0  0  0  0  0  0  0  0  0  0  0
   -0.3890   -1.5200   -2.5960 N   0  0  0  0  0  0  0  0  0  0  0  0
   -0.5980   -0.0720   -2.7110 C   0  0  0  0  0  0  0  0  0  0  0  0
  1  2  2  0
  2  3  1  0
  2  4  1  0
  4  5  2  3
  4  7  1  0
  5  6  1  0
  7  8  1  0
  8  9  1  0
  9 10  2  3
 10 11  1  0
 10 30  1  0
 11 12  2  0
 12 13  1  0
 12 27  1  0
 13 14  1  0
 14 15  1  0
 15 16  2  0
 15 17  1  0
 17 18  1  0
 18 19  1  0
 19 20  1  0
 19 23  2  3
 20 21  2  3
 21 22  1  0
 23 24  1  0
 24 25  1  6
 24 26  1  0
 27 28  2  0
 27 29  1  0
 29 30  1  0
M  END
