
     RDKit          3D

 30 31  0  0  0  0  0  0  0  0999 V2000
   -4.4890   -1.0640   -0.8570 C   0  0  0  0  0  0  0  0  0  0  0  0
   -4.3380    0.1930   -0.0380 C   0  0  1  0  0  0  0  0  0  0  0  0
   -5.5560    0.3790    0.8800 C   0  0  0  0  0  0  0  0  0  0  0  0
   -6.8570    0.5240    0.2280 C   0  0  0  0  0  0  0  0  0  0  0  0
   -7.9010    0.7470    1.3570 C   0  0  1  0  0  0  0  0  0  0  0  0
   -7.4930    1.9200    2.0190 F   0  0  0  0  0  0  0  0  0  0  0  0
   -9.1150    0.9980    0.7800 F   0  0  0  0  0  0  0  0  0  0  0  0
   -3.1760    0.0610    0.8290 N   0  0  0  0  0  0  0  0  0  0  0  0
   -1.8430   -0.1870    0.3870 C   0  0  0  0  0  0  0  0  0  0  0  0
   -1.6370   -0.3160   -0.8260 O   0  0  0  0  0  0  0  0  0  0  0  0
   -0.7740   -0.2880    1.2970 N   0  0  0  0  0  0  0  0  0  0  0  0
    0.5570   -0.5640    0.9880 C   0  0  0  0  0  0  0  0  0  0  0  0
    1.4870   -0.4570    2.0330 C   0  0  0  0  0  0  0  0  0  0  0  0
    2.8110   -0.7570    1.9240 C   0  0  0  0  0  0  0  0  0  0  0  0
    3.2950   -1.2110    0.7010 C   0  0  0  0  0  0  0  0  0  0  0  0
    4.6300   -1.8230    0.6320 C   0  0  0  0  0  0  0  0  0  0  0  0
    5.5440   -1.3880   -0.3380 N   0  0  0  0  0  0  0  0  0  0  0  0
    6.4050   -0.2950   -0.3700 C   0  0  0  0  0  0  0  0  0  0  0  0
    7.2230   -0.1250   -1.5080 C   0  0  0  0  0  0  0  0  0  0  0  0
    8.1080    0.9040   -1.5980 C   0  0  0  0  0  0  0  0  0  0  0  0
    8.9150    1.0160   -2.7090 F   0  0  0  0  0  0  0  0  0  0  0  0
    8.1850    1.7770   -0.5610 C   0  0  0  0  0  0  0  0  0  0  0  0
    7.3790    1.6090    0.5580 C   0  0  0  0  0  0  0  0  0  0  0  0
    6.5240    0.5810    0.6110 N   0  0  0  0  0  0  0  0  0  0  0  0
    2.3990   -1.3130   -0.3380 C   0  0  0  0  0  0  0  0  0  0  0  0
    3.0270   -1.8510   -1.8920 Cl  0  0  0  0  0  0  0  0  0  0  0  0
    1.0670   -1.0040   -0.2180 C   0  0  0  0  0  0  0  0  0  0  0  0
   -4.2580    1.4100   -0.8550 C   0  0  0  0  0  0  0  0  0  0  0  0
   -4.9880    1.5640   -2.0470 N   0  0  0  0  0  0  0  0  0  0  0  0
   -3.5080    2.3420   -0.4820 O   0  0  0  0  0  0  0  0  0  0  0  0
  2  1  1  6
  2  3  1  0
  2  8  1  0
  2 28  1  0
  3  4  1  0
  4  5  1  0
  5  6  1  6
  5  7  1  0
  8  9  1  0
  9 10  2  0
  9 11  1  0
 11 12  1  0
 12 13  2  0
 12 27  1  0
 13 14  1  0
 14 15  2  0
 15 16  1  0
 15 25  1  0
 16 17  1  0
 17 18  1  0
 18 19  2  0
 18 24  1  0
 19 20  1  0
 20 21  1  0
 20 22  2  0
 22 23  1  0
 23 24  2  0
 25 26  1  0
 25 27  2  0
 28 29  1  0
 28 30  2  0
M  CHG  1  24   1
M  END
