
     RDKit          3D

 30 29  0  0  0  0  0  0  0  0999 V2000
    7.4920   -0.5450   -0.2530 C   0  0  0  0  0  0  0  0  0  0  0  0
    6.5200   -0.1270    0.7870 C   0  0  0  0  0  0  0  0  0  0  0  0
    5.2370    0.4810    0.2550 C   0  0  0  0  0  0  0  0  0  0  0  0
    4.5030   -0.4860   -0.6330 C   0  0  0  0  0  0  0  0  0  0  0  0
    3.2180    0.1200   -1.1150 C   0  0  0  0  0  0  0  0  0  0  0  0
    2.2090    0.3790   -0.0830 C   0  0  0  0  0  0  0  0  0  0  0  0
    2.2770   -0.1420    1.1230 N   0  0  0  0  0  0  0  0  0  0  0  0
    1.0730    1.1740   -0.4040 N   0  0  0  0  0  0  0  0  0  0  0  0
   -0.2540    0.7160   -0.0010 N   0  0  0  0  0  0  0  0  0  0  0  0
   -0.8080    0.9330    1.1610 C   0  0  0  0  0  0  0  0  0  0  0  0
   -0.4630    1.5530    2.1310 O   0  0  0  0  0  0  0  0  0  0  0  0
   -2.3820    0.1670    1.5400 C   0  0  0  0  0  0  0  0  0  0  0  0
   -2.1330   -0.8040    0.4650 C   0  0  0  0  0  0  0  0  0  0  0  0
   -0.8680   -1.4350    0.2950 N   0  0  0  0  0  0  0  0  0  0  0  0
   -3.1350   -1.2910   -0.2210 C   0  0  0  0  0  0  0  0  0  0  0  0
   -3.0610   -2.2480   -1.3160 C   0  0  0  0  0  0  0  0  0  0  0  0
   -4.1880   -2.6430   -1.9220 C   0  0  0  0  0  0  0  0  0  0  0  0
   -5.6970   -1.9920   -1.3720 Cl  0  0  0  0  0  0  0  0  0  0  0  0
   -4.1190   -3.6000   -2.9840 C   0  0  0  0  0  0  0  0  0  0  0  0
   -5.1450   -4.0860   -3.6860 C   0  0  0  0  0  0  0  0  0  0  0  0
   -6.5530   -3.7140   -3.4930 C   0  0  1  0  0  0  0  0  0  0  0  0
   -6.6960   -2.3630   -3.8370 F   0  0  0  0  0  0  0  0  0  0  0  0
   -7.3920   -4.4460   -4.3030 F   0  0  0  0  0  0  0  0  0  0  0  0
   -2.5120    0.9410    2.3940 C   0  0  0  0  0  0  0  0  0  0  0  0
   -3.8120    0.6020    3.1290 F   0  0  0  0  0  0  0  0  0  0  0  0
   -2.2460    2.2750    2.8020 C   0  0  0  0  0  0  0  0  0  0  0  0
   -2.5170    2.4840    4.0930 O   0  0  0  0  0  0  0  0  0  0  0  0
   -1.7820    3.4250    2.1730 N   0  0  0  0  0  0  0  0  0  0  0  0
   -1.4550    4.6050    3.0140 C   0  0  0  0  0  0  0  0  0  0  0  0
   -1.7120    3.6700    0.7510 C   0  0  0  0  0  0  0  0  0  0  0  0
  1  2  1  0
  2  3  1  0
  3  4  1  0
  4  5  1  0
  5  6  1  0
  6  7  2  0
  6  8  1  0
  8  9  1  0
  9 10  1  0
 10 11  2  0
 10 12  1  0
 12 13  1  0
 12 24  2  3
 13 14  1  0
 13 15  2  3
 15 16  1  0
 16 17  2  3
 17 18  1  0
 17 19  1  0
 19 20  2  3
 20 21  1  0
 21 22  1  6
 21 23  1  0
 24 25  1  0
 24 26  1  0
 26 27  2  0
 26 28  1  0
 28 29  1  0
 28 30  1  0
M  CHG  1   7   1
M  END
