
     RDKit          3D

 30 31  0  0  0  0  0  0  0  0999 V2000
   -6.2900    3.0930   -0.5260 C   0  0  0  0  0  0  0  0  0  0  0  0
   -6.6970    2.7090   -1.7150 C   0  0  0  0  0  0  0  0  0  0  0  0
   -7.5710    4.0370   -2.5870 Cl  0  0  0  0  0  0  0  0  0  0  0  0
   -6.5540    1.4460   -2.3640 C   0  0  0  0  0  0  0  0  0  0  0  0
   -7.0740    1.3700   -3.6130 C   0  0  0  0  0  0  0  0  0  0  0  0
   -5.9670    0.2450   -1.8400 C   0  0  1  0  0  0  0  0  0  0  0  0
   -4.5800    0.3280   -1.4350 N   0  0  0  0  0  0  0  0  0  0  0  0
   -3.5520   -0.5200   -1.9820 C   0  0  0  0  0  0  0  0  0  0  0  0
   -3.8890   -1.3540   -2.8290 O   0  0  0  0  0  0  0  0  0  0  0  0
   -2.1920   -0.3060   -1.4740 C   0  0  0  0  0  0  0  0  0  0  0  0
   -1.1500   -1.2100   -2.0400 C   0  0  0  0  0  0  0  0  0  0  0  0
    0.1470   -0.8360   -1.4290 C   0  0  0  0  0  0  0  0  0  0  0  0
    0.7100   -1.3000   -0.3070 N   0  0  0  0  0  0  0  0  0  0  0  0
    1.9090   -0.6820   -0.1070 C   0  0  0  0  0  0  0  0  0  0  0  0
    2.8810   -0.7960    0.8980 C   0  0  0  0  0  0  0  0  0  0  0  0
    4.0250   -0.0260    0.8470 C   0  0  0  0  0  0  0  0  0  0  0  0
    5.0540   -0.1160    1.8750 C   0  0  0  0  0  0  0  0  0  0  0  0
    6.0970    0.5770    1.7090 O   0  0  0  0  0  0  0  0  0  0  0  0
    4.9500   -0.9170    3.0230 N   0  0  0  0  0  0  0  0  0  0  0  0
    6.0270   -0.9370    3.9840 C   0  0  0  0  0  0  0  0  0  0  0  0
    7.3360   -1.4060    3.4410 C   0  0  0  0  0  0  0  0  0  0  0  0
    8.3270   -1.3810    4.4970 N   0  0  0  0  0  0  0  0  0  0  0  0
    4.1510    0.8360   -0.2200 C   0  0  0  0  0  0  0  0  0  0  0  0
    3.1990    0.9580   -1.2190 C   0  0  0  0  0  0  0  0  0  0  0  0
    2.0770    0.1880   -1.1480 C   0  0  0  0  0  0  0  0  0  0  0  0
    1.0070    0.0850   -1.9390 N   0  0  0  0  0  0  0  0  0  0  0  0
   -6.7380   -0.4510   -0.7440 C   0  0  1  0  0  0  0  0  0  0  0  0
   -6.9130    0.3300    0.3270 F   0  0  0  0  0  0  0  0  0  0  0  0
   -7.9290   -0.9790   -1.2360 F   0  0  0  0  0  0  0  0  0  0  0  0
   -5.9850   -1.5630   -0.3180 F   0  0  0  0  0  0  0  0  0  0  0  0
  1  2  2  0
  2  3  1  0
  2  4  1  0
  4  5  2  0
  4  6  1  0
  6  7  1  1
  6 27  1  0
  7  8  1  0
  8  9  2  0
  8 10  1  0
 10 11  1  0
 11 12  1  0
 12 13  2  0
 12 26  1  0
 13 14  1  0
 14 15  2  0
 14 25  1  0
 15 16  1  0
 16 17  1  0
 16 23  2  0
 17 18  2  0
 17 19  1  0
 19 20  1  0
 20 21  1  0
 21 22  1  0
 23 24  1  0
 24 25  2  0
 25 26  1  0
 27 28  1  1
 27 29  1  0
 27 30  1  0
M  CHG  1  22   1
M  END
