
     RDKit          3D

 13 14  0  0  0  0  0  0  0  0999 V2000
    3.5000    1.8180    0.9500 O   0  0  0  0  0  0  0  0  0  0  0  0
    2.7110    0.7680    0.4780 C   0  0  0  0  0  0  0  0  0  0  0  0
    3.3820   -0.3820    0.1120 C   0  0  0  0  0  0  0  0  0  0  0  0
    2.6260   -1.4310   -0.3560 C   0  0  0  0  0  0  0  0  0  0  0  0
    1.2390   -1.2990   -0.4440 C   0  0  0  0  0  0  0  0  0  0  0  0
    0.5650   -2.4060   -0.9260 O   0  0  0  0  0  0  0  0  0  0  0  0
    0.5660   -0.1530   -0.0800 C   0  0  0  0  0  0  0  0  0  0  0  0
   -0.8730   -0.0110   -0.1690 C   0  0  0  0  0  0  0  0  0  0  0  0
   -1.7650   -0.8730   -0.5810 C   0  0  0  0  0  0  0  0  0  0  0  0
   -3.1410   -0.2860   -0.4960 C   0  0  0  0  0  0  0  0  0  0  0  0
   -2.9490    0.7370    0.6040 C   0  0  0  0  0  0  0  0  0  0  0  0
   -1.5760    1.2640    0.2410 C   0  0  0  0  0  0  0  0  0  0  0  0
    1.3460    0.8920    0.3890 C   0  0  0  0  0  0  0  0  0  0  0  0
  1  2  1  0
  2  3  2  0
  2 13  1  0
  3  4  1  0
  4  5  2  0
  5  6  1  0
  5  7  1  0
  7  8  1  0
  7 13  2  0
  8  9  2  0
  8 12  1  0
  9 10  1  0
 10 11  1  0
 11 12  1  0
M  END
