
     RDKit          3D

 14 15  0  0  0  0  0  0  0  0999 V2000
    3.7850    0.8810   -0.0450 C   0  0  0  0  0  0  0  0  0  0  0  0
    2.4260    0.2610   -0.0620 C   0  0  0  0  0  0  0  0  0  0  0  0
    1.2820    0.9980   -0.3060 C   0  0  0  0  0  0  0  0  0  0  0  0
    0.0180    0.4490   -0.3270 C   0  0  0  0  0  0  0  0  0  0  0  0
   -0.1110   -0.8960   -0.0940 C   0  0  0  0  0  0  0  0  0  0  0  0
    0.9900   -1.6740    0.1530 C   0  0  0  0  0  0  0  0  0  0  0  0
    2.2320   -1.0840    0.1640 C   0  0  0  0  0  0  0  0  0  0  0  0
    3.3560   -1.8630    0.4140 O   0  0  0  0  0  0  0  0  0  0  0  0
   -1.3880   -1.6650   -0.0770 C   0  0  0  0  0  0  0  0  0  0  0  0
   -2.2900   -0.9880    0.9250 C   0  0  0  0  0  0  0  0  0  0  0  0
   -2.9780    0.2170    0.3290 C   0  0  0  0  0  0  0  0  0  0  0  0
   -2.1520    1.4520    0.3720 C   0  0  0  0  0  0  0  0  0  0  0  0
   -1.0170    1.4750   -0.6140 C   0  0  2  0  0  0  0  0  0  0  0  0
   -1.4200    1.3190   -1.9250 O   0  0  0  0  0  0  0  0  0  0  0  0
  1  2  1  0
  2  3  2  0
  2  7  1  0
  3  4  1  0
  4  5  2  0
  4 13  1  0
  5  6  1  0
  5  9  1  0
  6  7  2  0
  7  8  1  0
  9 10  1  0
 10 11  1  0
 11 12  1  0
 12 13  1  0
 13 14  1  6
M  END
