
     RDKit          3D

 18 19  0  0  0  0  0  0  0  0999 V2000
    0.5630    1.4730    0.1810 O   0  0  0  0  0  0  0  0  0  0  0  0
    0.2780    0.2650    0.0340 C   0  0  0  0  0  0  0  0  0  0  0  0
   -1.1130   -0.0450   -0.0450 N   0  0  0  0  0  0  0  0  0  0  0  0
   -2.1390    0.9660    0.0390 C   0  0  0  0  0  0  0  0  0  0  0  0
   -3.4940    0.4310   -0.0650 C   0  0  0  0  0  0  0  0  0  0  0  0
   -4.3480    0.7780   -1.0100 C   0  0  0  0  0  0  0  0  0  0  0  0
   -5.6230    0.0470   -0.8140 C   0  0  0  0  0  0  0  0  0  0  0  0
   -5.3600   -0.7450    0.3570 N   0  0  0  0  0  0  0  0  0  0  0  0
   -4.1620   -0.5290    0.7790 C   0  0  0  0  0  0  0  0  0  0  0  0
    1.3040   -0.6740   -0.0420 N   0  0  0  0  0  0  0  0  0  0  0  0
    2.6930   -0.4600    0.0260 C   0  0  0  0  0  0  0  0  0  0  0  0
    3.3060    0.7470    0.1830 C   0  0  0  0  0  0  0  0  0  0  0  0
    4.6950    0.9100    0.2450 C   0  0  0  0  0  0  0  0  0  0  0  0
    5.3750    2.5170    0.4510 Cl  0  0  0  0  0  0  0  0  0  0  0  0
    5.4990   -0.1950    0.1440 C   0  0  0  0  0  0  0  0  0  0  0  0
    4.9300   -1.4170   -0.0140 C   0  0  0  0  0  0  0  0  0  0  0  0
    5.9780   -2.8100   -0.1410 Cl  0  0  0  0  0  0  0  0  0  0  0  0
    3.5660   -1.5550   -0.0720 C   0  0  0  0  0  0  0  0  0  0  0  0
  1  2  2  0
  2  3  1  0
  2 10  1  0
  3  4  1  0
  4  5  1  0
  5  6  2  0
  5  9  1  0
  6  7  1  0
  7  8  1  0
  8  9  2  0
 10 11  1  0
 11 12  2  0
 11 18  1  0
 12 13  1  0
 13 14  1  0
 13 15  2  0
 15 16  1  0
 16 17  1  0
 16 18  2  0
M  END
