
     RDKit          3D

 18 19  0  0  0  0  0  0  0  0999 V2000
    0.8000   -2.4590   -0.8750 N   0  0  0  0  0  0  0  0  0  0  0  0
    0.1610   -1.2240   -0.5510 C   0  0  0  0  0  0  0  0  0  0  0  0
   -1.2210   -1.1480   -0.5470 C   0  0  0  0  0  0  0  0  0  0  0  0
   -1.8090    0.0800   -0.2250 C   0  0  0  0  0  0  0  0  0  0  0  0
   -3.2300    0.1710   -0.2170 N   0  0  0  0  0  0  0  0  0  0  0  0
   -3.9830    0.9890    0.5680 C   0  0  0  0  0  0  0  0  0  0  0  0
   -5.3180    0.7910    0.2870 C   0  0  0  0  0  0  0  0  0  0  0  0
   -5.3720   -0.1490   -0.6690 N   0  0  0  0  0  0  0  0  0  0  0  0
   -4.1190   -0.5110   -0.9610 C   0  0  0  0  0  0  0  0  0  0  0  0
   -0.9830    1.1420    0.0700 C   0  0  0  0  0  0  0  0  0  0  0  0
    0.3930    1.0660    0.0660 C   0  0  0  0  0  0  0  0  0  0  0  0
    1.4020    2.4450    0.4490 Cl  0  0  0  0  0  0  0  0  0  0  0  0
    0.9770   -0.1640   -0.2570 C   0  0  0  0  0  0  0  0  0  0  0  0
    2.3480   -0.2550   -0.2650 O   0  0  0  0  0  0  0  0  0  0  0  0
    3.1240   -0.5970    0.8060 C   0  0  0  0  0  0  0  0  0  0  0  0
    4.2920   -0.0260    0.9970 C   0  0  0  0  0  0  0  0  0  0  0  0
    4.7960    1.0100    0.0470 C   0  0  0  0  0  0  0  0  0  0  0  0
    5.0540    2.5420    0.9440 Cl  0  0  0  0  0  0  0  0  0  0  0  0
  1  2  1  0
  2  3  2  0
  2 13  1  0
  3  4  1  0
  4  5  1  0
  4 10  2  0
  5  6  1  0
  5  9  1  0
  6  7  2  0
  7  8  1  0
  8  9  2  0
 10 11  1  0
 11 12  1  0
 11 13  2  0
 13 14  1  0
 14 15  1  0
 15 16  2  3
 16 17  1  0
 17 18  1  0
M  END
