
     RDKit          3D

 13 12  0  0  0  0  0  0  0  0999 V2000
   -2.9320   -1.3480   -0.1330 C   0  0  0  0  0  0  0  0  0  0  0  0
   -2.7770    0.0830    0.3330 C   0  0  1  0  0  0  0  0  0  0  0  0
   -3.9290    0.4150    1.2510 C   0  0  0  0  0  0  0  0  0  0  0  0
   -5.1040    0.2280    0.5230 O   0  0  0  0  0  0  0  0  0  0  0  0
   -1.5110    0.2380    0.9680 N   0  0  0  0  0  0  0  0  0  0  0  0
   -0.4250    0.2340    0.2720 C   0  0  0  0  0  0  0  0  0  0  0  0
   -0.5440    0.0720   -1.1200 N   0  0  0  0  0  0  0  0  0  0  0  0
    0.8360    0.3900    0.9110 C   0  0  0  0  0  0  0  0  0  0  0  0
    2.0130    0.4080    0.3680 C   0  0  0  0  0  0  0  0  0  0  0  0
    2.3330    0.2740   -1.0380 C   0  0  0  0  0  0  0  0  0  0  0  0
    3.6310    0.3220   -1.3910 C   0  0  0  0  0  0  0  0  0  0  0  0
    4.6160    0.4990   -0.3980 N   0  0  0  0  0  0  0  0  0  0  0  0
    5.5780   -0.4930   -0.1350 N   0  0  0  0  0  0  0  0  0  0  0  0
  2  1  1  1
  2  3  1  0
  2  5  1  0
  3  4  1  0
  5  6  2  3
  6  7  1  0
  6  8  1  0
  8  9  2  3
  9 10  1  0
 10 11  2  3
 11 12  1  0
 12 13  1  0
M  END
