
     RDKit          3D

 13 12  0  0  0  0  0  0  0  0999 V2000
    5.3700    0.7800   -0.3960 N   0  0  0  0  0  0  0  0  0  0  0  0
    5.4470   -0.4550   -0.0940 C   0  0  0  0  0  0  0  0  0  0  0  0
    4.2240   -1.1190    0.4440 C   0  0  0  0  0  0  0  0  0  0  0  0
    3.0620   -0.4900   -0.2060 C   0  0  0  0  0  0  0  0  0  0  0  0
    2.1560    0.1140    0.5200 C   0  0  0  0  0  0  0  0  0  0  0  0
    1.0150    0.7330   -0.1040 N   0  0  0  0  0  0  0  0  0  0  0  0
   -0.2120    0.5540    0.5020 N   0  0  0  0  0  0  0  0  0  0  0  0
   -1.3750    0.0620   -0.1420 C   0  0  0  0  0  0  0  0  0  0  0  0
   -2.4980    0.7070   -0.0290 C   0  0  0  0  0  0  0  0  0  0  0  0
   -3.7750    0.2900   -0.6550 C   0  0  0  0  0  0  0  0  0  0  0  0
   -4.8350    0.0450    0.3480 C   0  0  0  0  0  0  0  0  0  0  0  0
   -6.1080   -0.3610   -0.1200 N   0  0  0  0  0  0  0  0  0  0  0  0
   -4.6790    0.1730    1.5820 O   0  0  0  0  0  0  0  0  0  0  0  0
  1  2  2  0
  2  3  1  0
  3  4  1  0
  4  5  2  3
  5  6  1  0
  6  7  1  0
  7  8  1  0
  8  9  2  3
  9 10  1  0
 10 11  1  0
 11 12  1  0
 11 13  2  0
M  END
