
     RDKit          3D

 12 11  0  0  0  0  0  0  0  0999 V2000
    4.5380    0.6160    1.9850 N   0  0  0  0  0  0  0  0  0  0  0  0
    4.0000    0.6860    0.8270 C   0  0  0  0  0  0  0  0  0  0  0  0
    3.4860   -0.5700    0.2350 C   0  0  0  0  0  0  0  0  0  0  0  0
    2.0210   -0.7020    0.3960 C   0  0  0  0  0  0  0  0  0  0  0  0
    1.2740    0.1990    0.9970 C   0  0  0  0  0  0  0  0  0  0  0  0
   -0.1270    0.0400    1.1330 N   0  0  0  0  0  0  0  0  0  0  0  0
   -0.9350    0.2850    0.1630 C   0  0  0  0  0  0  0  0  0  0  0  0
   -0.3820    0.7430   -1.1210 C   0  0  0  0  0  0  0  0  0  0  0  0
   -0.8700    2.0410   -1.5210 N   0  0  0  0  0  0  0  0  0  0  0  0
   -2.3860    0.0870    0.4070 C   0  0  0  0  0  0  0  0  0  0  0  0
   -2.9670   -0.9580   -0.5510 C   0  0  0  0  0  0  0  0  0  0  0  0
   -4.3780   -1.0810   -0.2380 N   0  0  0  0  0  0  0  0  0  0  0  0
  1  2  2  0
  2  3  1  0
  3  4  1  0
  4  5  2  3
  5  6  1  0
  6  7  2  3
  7  8  1  0
  7 10  1  0
  8  9  1  0
 10 11  1  0
 11 12  1  0
M  END
