
     RDKit          3D

 11 10  0  0  0  0  0  0  0  0999 V2000
   -3.2870   -1.0060    0.1590 N   0  0  0  0  0  0  0  0  0  0  0  0
   -2.9160    0.2770    0.6970 C   0  0  0  0  0  0  0  0  0  0  0  0
   -1.6800    0.7280    0.6040 C   0  0  0  0  0  0  0  0  0  0  0  0
   -1.3880    1.9970    1.1550 N   0  0  0  0  0  0  0  0  0  0  0  0
   -0.6450   -0.0620   -0.0500 C   0  0  0  0  0  0  0  0  0  0  0  0
    0.5410    0.3790   -0.1350 N   0  0  0  0  0  0  0  0  0  0  0  0
    1.6320   -0.2610   -0.7280 C   0  0  0  0  0  0  0  0  0  0  0  0
    1.6480   -1.5930   -0.8180 C   0  0  0  0  0  0  0  0  0  0  0  0
    2.7230   -2.2270   -1.4030 O   0  0  0  0  0  0  0  0  0  0  0  0
    2.6770    0.5120   -1.2130 O   0  0  0  0  0  0  0  0  0  0  0  0
    3.3290    1.3030   -0.2670 N   0  0  0  0  0  0  0  0  0  0  0  0
  1  2  1  0
  2  3  2  3
  3  4  1  0
  3  5  1  0
  5  6  2  3
  6  7  1  0
  7  8  2  3
  7 10  1  0
  8  9  1  0
 10 11  1  0
M  END
