
     RDKit          3D

 13 12  0  0  0  0  0  0  0  0999 V2000
   -1.6320   -1.1990   -0.2310 C   0  0  0  0  0  0  0  0  0  0  0  0
   -1.4480    0.2510   -0.4750 C   0  0  0  0  0  0  0  0  0  0  0  0
   -2.4750    1.1240   -0.9780 C   0  0  0  0  0  0  0  0  0  0  0  0
   -3.6870    0.7020   -1.2690 C   0  0  0  0  0  0  0  0  0  0  0  0
   -4.7060    1.5730   -1.7700 N   0  0  0  0  0  0  0  0  0  0  0  0
   -4.8600    1.8650   -3.0800 O   0  0  0  0  0  0  0  0  0  0  0  0
   -0.2530    0.7750   -0.2090 C   0  0  0  0  0  0  0  0  0  0  0  0
    0.8470   -0.0650    0.3110 C   0  0  0  0  0  0  0  0  0  0  0  0
    1.9620    0.5010    0.5430 N   0  0  0  0  0  0  0  0  0  0  0  0
    3.1120   -0.1240    1.0340 C   0  0  0  0  0  0  0  0  0  0  0  0
    4.1060    0.6380    1.6890 N   0  0  0  0  0  0  0  0  0  0  0  0
    3.2900   -1.4160    0.8980 C   0  0  0  0  0  0  0  0  0  0  0  0
    4.4710   -2.0770    1.3990 N   0  0  0  0  0  0  0  0  0  0  0  0
  1  2  1  0
  2  3  1  0
  2  7  2  3
  3  4  2  3
  4  5  1  0
  5  6  1  0
  7  8  1  0
  8  9  2  3
  9 10  1  0
 10 11  1  0
 10 12  2  3
 12 13  1  0
M  END
