
     RDKit          3D

 13 12  0  0  0  0  0  0  0  0999 V2000
   -4.4140    1.7850   -0.0340 C   0  0  0  0  0  0  0  0  0  0  0  0
   -4.3010    0.4220    0.6560 C   0  0  0  0  0  0  0  0  0  0  0  0
   -3.3510   -0.3940   -0.0740 N   0  0  0  0  0  0  0  0  0  0  0  0
   -1.9880    0.0240   -0.0260 C   0  0  0  0  0  0  0  0  0  0  0  0
   -1.0330   -0.8770   -0.0960 C   0  0  0  0  0  0  0  0  0  0  0  0
    0.3810   -0.4600   -0.0470 C   0  0  0  0  0  0  0  0  0  0  0  0
    1.3120   -1.3750   -0.1180 C   0  0  0  0  0  0  0  0  0  0  0  0
    0.8970   -2.7420   -0.2410 N   0  0  0  0  0  0  0  0  0  0  0  0
    2.7280   -1.0720   -0.0790 C   0  0  0  0  0  0  0  0  0  0  0  0
    3.1030    0.3090    0.0450 N   0  0  0  0  0  0  0  0  0  0  0  0
    4.5070    0.6570    0.0900 C   0  0  0  0  0  0  0  0  0  0  0  0
    4.9180    2.0130    0.2110 N   0  0  0  0  0  0  0  0  0  0  0  0
    5.3130   -0.2900    0.0150 O   0  0  0  0  0  0  0  0  0  0  0  0
  1  2  1  0
  2  3  1  0
  3  4  1  0
  4  5  2  3
  5  6  1  0
  6  7  2  3
  7  8  1  0
  7  9  1  0
  9 10  1  0
 10 11  1  0
 11 12  1  0
 11 13  2  0
M  END
