
     RDKit          3D

 22 22  0  0  0  0  0  0  0  0999 V2000
    6.4750    2.5520    0.1130 C   0  0  0  0  0  0  0  0  0  0  0  0
    5.6810    1.4060    0.3490 O   0  0  0  0  0  0  0  0  0  0  0  0
    4.3190    1.4130    0.0770 C   0  0  0  0  0  0  0  0  0  0  0  0
    3.8430    2.4830   -0.3850 O   0  0  0  0  0  0  0  0  0  0  0  0
    3.4970    0.2000    0.3310 C   0  0  0  0  0  0  0  0  0  0  0  0
    2.1290    0.4350   -0.0210 N   0  0  0  0  0  0  0  0  0  0  0  0
    1.1500   -0.5740    0.1320 C   0  0  0  0  0  0  0  0  0  0  0  0
    1.4150   -1.7040    0.5730 O   0  0  0  0  0  0  0  0  0  0  0  0
   -0.1440   -0.3120   -0.2150 O   0  0  0  0  0  0  0  0  0  0  0  0
   -1.2350   -1.1710   -0.1350 C   0  0  2  0  0  0  0  0  0  0  0  0
   -2.4470   -0.3940   -0.6420 C   0  0  0  0  0  0  0  0  0  0  0  0
   -2.6810    0.7840    0.1670 N   0  0  0  0  0  0  0  0  0  0  0  0
   -3.7830    1.6030   -0.1950 C   0  0  0  0  0  0  0  0  0  0  0  0
   -4.5210    1.3210   -1.1700 O   0  0  0  0  0  0  0  0  0  0  0  0
   -4.0860    2.7530    0.5220 O   0  0  0  0  0  0  0  0  0  0  0  0
   -5.1290    3.5210    0.1740 O   0  0  0  0  0  0  0  0  0  0  0  0
   -5.6330    3.1130   -0.9780 O   0  0  0  0  0  0  0  0  0  0  0  0
   -1.5240   -1.7390    1.2010 C   0  0  0  0  0  0  0  0  0  0  0  0
   -0.7920   -2.8710    1.5200 O   0  0  0  0  0  0  0  0  0  0  0  0
   -1.0370   -3.8310    0.5140 C   0  0  0  0  0  0  0  0  0  0  0  0
   -0.3040   -3.3640   -0.5970 O   0  0  0  0  0  0  0  0  0  0  0  0
   -1.0330   -2.3050   -1.1200 C   0  0  0  0  0  0  0  0  0  0  0  0
  1  2  1  0
  2  3  1  0
  3  4  2  0
  3  5  1  0
  5  6  1  0
  6  7  1  0
  7  8  2  0
  7  9  1  0
  9 10  1  0
 10 11  1  6
 10 18  1  0
 10 22  1  0
 11 12  1  0
 12 13  1  0
 13 14  2  0
 13 15  1  0
 15 16  1  0
 16 17  1  0
 18 19  1  0
 19 20  1  0
 20 21  1  0
 21 22  1  0
M  END
