
     RDKit          3D

 22 22  0  0  0  0  0  0  0  0999 V2000
    1.8360   -0.1170   -1.8190 O   0  0  0  0  0  0  0  0  0  0  0  0
    2.0750   -0.8420   -0.8340 C   0  0  0  0  0  0  0  0  0  0  0  0
    1.2090   -0.8680    0.2710 N   0  0  0  0  0  0  0  0  0  0  0  0
    0.1090   -0.2190    0.4890 O   0  0  0  0  0  0  0  0  0  0  0  0
   -0.3490    0.8230   -0.1920 C   0  0  2  0  0  0  0  0  0  0  0  0
   -0.1540    2.1530    0.5670 C   0  0  0  0  0  0  0  0  0  0  0  0
   -0.6000    3.2360   -0.1600 O   0  0  0  0  0  0  0  0  0  0  0  0
   -0.3350    4.7150    0.7360 P   0  0  0  0  0  0  0  0  0  0  0  0
    1.0800    5.5460    0.2110 O   0  0  0  0  0  0  0  0  0  0  0  0
   -1.7000    5.7500    0.5840 O   0  0  0  0  0  0  0  0  0  0  0  0
   -1.8350    0.6390   -0.4240 C   0  0  0  0  0  0  0  0  0  0  0  0
   -2.5290    1.4760   -1.0440 O   0  0  0  0  0  0  0  0  0  0  0  0
   -2.4660   -0.5280    0.0810 N   0  0  0  0  0  0  0  0  0  0  0  0
   -3.8750   -0.7610   -0.0980 C   0  0  0  0  0  0  0  0  0  0  0  0
   -4.2080   -2.0910    0.5590 C   0  0  0  0  0  0  0  0  0  0  0  0
   -5.5480   -2.4230    0.4510 O   0  0  0  0  0  0  0  0  0  0  0  0
   -5.6840   -3.5930    1.0670 O   0  0  0  0  0  0  0  0  0  0  0  0
    3.2960   -1.7110   -0.7870 C   0  0  2  0  0  0  0  0  0  0  0  0
    4.2000   -1.1130    0.2780 C   0  0  0  0  0  0  0  0  0  0  0  0
    5.4560   -1.4410   -0.1670 O   0  0  0  0  0  0  0  0  0  0  0  0
    5.3350   -1.8930   -1.4690 C   0  0  0  0  0  0  0  0  0  0  0  0
    4.0630   -1.5630   -1.9260 O   0  0  0  0  0  0  0  0  0  0  0  0
  1  2  2  0
  2  3  1  0
 18  2  1  6
  3  4  1  0
  4  5  1  0
  5  6  1  1
  5 11  1  0
  6  7  1  0
  7  8  1  0
  8  9  1  0
  8 10  1  0
 11 12  2  0
 11 13  1  0
 13 14  1  0
 14 15  1  0
 15 16  1  0
 16 17  1  0
 18 19  1  0
 18 22  1  0
 19 20  1  0
 20 21  1  0
 21 22  1  0
M  END
