
     RDKit          3D

 22 22  0  0  0  0  0  0  0  0999 V2000
    0.0270    2.5430   -1.9720 O   0  0  0  0  0  0  0  0  0  0  0  0
   -0.9460    2.3210   -1.1700 C   0  0  0  0  0  0  0  0  0  0  0  0
   -0.6230    2.3570    0.2730 C   0  0  0  0  0  0  0  0  0  0  0  0
    0.2600    1.1770    0.7040 C   0  0  1  0  0  0  0  0  0  0  0  0
    1.5620    1.6180    0.9110 O   0  0  0  0  0  0  0  0  0  0  0  0
    2.5050    1.1020    0.0720 C   0  0  0  0  0  0  0  0  0  0  0  0
    2.5960   -0.4030    0.1950 C   0  0  0  0  0  0  0  0  0  0  0  0
    3.5970   -0.8410   -0.7080 O   0  0  0  0  0  0  0  0  0  0  0  0
    3.7550   -2.1310   -0.6820 O   0  0  0  0  0  0  0  0  0  0  0  0
    3.6530   -2.6680    0.5050 O   0  0  0  0  0  0  0  0  0  0  0  0
    4.8170   -3.1070    0.9260 O   0  0  0  0  0  0  0  0  0  0  0  0
   -0.3020    0.5570    1.9590 C   0  0  0  0  0  0  0  0  0  0  0  0
   -1.0430   -0.5800    1.8190 O   0  0  0  0  0  0  0  0  0  0  0  0
   -0.8780   -1.7730    1.2140 C   0  0  0  0  0  0  0  0  0  0  0  0
   -0.6650   -2.8740    1.8480 O   0  0  0  0  0  0  0  0  0  0  0  0
   -0.9240   -1.9340   -0.1980 N   0  0  0  0  0  0  0  0  0  0  0  0
   -1.8790   -1.2810   -1.0710 C   0  0  0  0  0  0  0  0  0  0  0  0
   -3.1190   -0.8510   -0.3820 C   0  0  0  0  0  0  0  0  0  0  0  0
   -3.3320    0.4970   -0.2080 O   0  0  0  0  0  0  0  0  0  0  0  0
   -3.3520    1.5560   -1.0560 C   0  0  0  0  0  0  0  0  0  0  0  0
   -4.4480    2.1890   -1.3110 O   0  0  0  0  0  0  0  0  0  0  0  0
   -2.2080    2.0680   -1.7350 N   0  0  0  0  0  0  0  0  0  0  0  0
  1  2  2  0
  2  3  1  0
  2 22  1  0
  3  4  1  0
  4  5  1  1
  4 12  1  0
  5  6  1  0
  6  7  1  0
  7  8  1  0
  8  9  1  0
  9 10  1  0
 10 11  1  0
 12 13  1  0
 13 14  1  0
 14 15  2  0
 14 16  1  0
 16 17  1  0
 17 18  1  0
 18 19  1  0
 19 20  1  0
 20 21  2  0
 20 22  1  0
M  END
