
     RDKit          3D

 22 22  0  0  0  0  0  0  0  0999 V2000
    4.6550    0.6050   -1.9680 O   0  0  0  0  0  0  0  0  0  0  0  0
    3.4990    0.9490   -1.6350 C   0  0  0  0  0  0  0  0  0  0  0  0
    3.0000    2.1290   -2.1250 O   0  0  0  0  0  0  0  0  0  0  0  0
    2.7800    0.1330   -0.7950 O   0  0  0  0  0  0  0  0  0  0  0  0
    3.2720   -1.0560   -0.2960 C   0  0  0  0  0  0  0  0  0  0  0  0
    4.4220   -1.4300   -0.6080 O   0  0  0  0  0  0  0  0  0  0  0  0
    2.4270   -1.8760    0.6060 C   0  0  0  0  0  0  0  0  0  0  0  0
    1.1360   -1.2210    0.8110 N   0  0  0  0  0  0  0  0  0  0  0  0
    0.0460   -1.5250   -0.0940 C   0  0  0  0  0  0  0  0  0  0  0  0
   -1.1600   -1.9840    0.6140 C   0  0  0  0  0  0  0  0  0  0  0  0
   -1.0590   -2.8760    1.4730 O   0  0  0  0  0  0  0  0  0  0  0  0
   -2.3790   -1.4330    0.3280 O   0  0  0  0  0  0  0  0  0  0  0  0
   -2.6210   -0.8920   -0.9510 C   0  0  0  0  0  0  0  0  0  0  0  0
   -2.6890    0.5930   -0.8480 C   0  0  0  0  0  0  0  0  0  0  0  0
   -2.9510    0.9700    0.5950 C   0  0  0  0  0  0  0  0  0  0  0  0
   -2.3660    2.2870    0.8960 N   0  0  0  0  0  0  0  0  0  0  0  0
   -0.9820    2.5370    0.6940 C   0  0  0  0  0  0  0  0  0  0  0  0
   -0.6720    3.6930    0.2950 O   0  0  0  0  0  0  0  0  0  0  0  0
    0.0390    1.6590    0.8870 O   0  0  0  0  0  0  0  0  0  0  0  0
    0.1250    0.7070    1.8410 O   0  0  0  0  0  0  0  0  0  0  0  0
    1.0210   -0.3130    1.8980 C   0  0  0  0  0  0  0  0  0  0  0  0
    1.8040   -0.5370    2.8880 O   0  0  0  0  0  0  0  0  0  0  0  0
  1  2  2  0
  2  3  1  0
  2  4  1  0
  4  5  1  0
  5  6  2  0
  5  7  1  0
  7  8  1  0
  8  9  1  0
  8 21  1  0
  9 10  1  0
 10 11  2  0
 10 12  1  0
 12 13  1  0
 13 14  1  0
 14 15  1  0
 15 16  1  0
 16 17  1  0
 17 18  2  0
 17 19  1  0
 19 20  1  0
 20 21  1  0
 21 22  2  0
M  END
