
     RDKit          3D

 22 22  0  0  0  0  0  0  0  0999 V2000
   -2.3490   -3.2730    0.4990 C   0  0  0  0  0  0  0  0  0  0  0  0
   -1.8010   -1.9510    0.1880 N   0  0  0  0  0  0  0  0  0  0  0  0
   -2.4420   -1.1950   -0.8190 C   0  0  0  0  0  0  0  0  0  0  0  0
   -2.9060   -1.8560   -1.8110 O   0  0  0  0  0  0  0  0  0  0  0  0
   -2.5800    0.1950   -0.7670 O   0  0  0  0  0  0  0  0  0  0  0  0
   -2.9960    0.8950    0.3740 C   0  0  0  0  0  0  0  0  0  0  0  0
   -2.2210    2.2130    0.4690 C   0  0  0  0  0  0  0  0  0  0  0  0
   -1.0250    1.9680    1.1000 O   0  0  0  0  0  0  0  0  0  0  0  0
   -0.0450    2.8060    0.7410 O   0  0  0  0  0  0  0  0  0  0  0  0
    0.5110    2.8800   -0.5280 C   0  0  0  0  0  0  0  0  0  0  0  0
    0.6740    4.0610   -1.0060 O   0  0  0  0  0  0  0  0  0  0  0  0
    0.8990    1.7840   -1.3130 N   0  0  0  0  0  0  0  0  0  0  0  0
    1.6850    0.6490   -0.8730 C   0  0  1  0  0  0  0  0  0  0  0  0
    2.3360    0.8850    0.4550 C   0  0  0  0  0  0  0  0  0  0  0  0
    3.1030   -0.2010    0.9100 O   0  0  0  0  0  0  0  0  0  0  0  0
    4.1920   -0.6890    0.2240 C   0  0  0  0  0  0  0  0  0  0  0  0
    4.5470   -0.1740   -0.8470 O   0  0  0  0  0  0  0  0  0  0  0  0
    4.9490   -1.7700    0.6800 O   0  0  0  0  0  0  0  0  0  0  0  0
    0.7680   -0.5710   -0.8390 C   0  0  0  0  0  0  0  0  0  0  0  0
    0.3420   -0.7390    0.4770 O   0  0  0  0  0  0  0  0  0  0  0  0
   -0.6710   -1.5340    0.9220 C   0  0  0  0  0  0  0  0  0  0  0  0
   -0.5960   -1.9470    2.1300 O   0  0  0  0  0  0  0  0  0  0  0  0
  1  2  1  0
  2  3  1  0
  2 21  1  0
  3  4  2  0
  3  5  1  0
  5  6  1  0
  6  7  1  0
  7  8  1  0
  8  9  1  0
  9 10  1  0
 10 11  2  0
 10 12  1  0
 12 13  1  0
 13 14  1  1
 13 19  1  0
 14 15  1  0
 15 16  1  0
 16 17  2  0
 16 18  1  0
 19 20  1  0
 20 21  1  0
 21 22  2  0
M  END
