
     RDKit          3D

 21 22  0  0  0  0  0  0  0  0999 V2000
    6.3230    0.1120    0.2910 O   0  0  0  0  0  0  0  0  0  0  0  0
    5.0560    0.0240    0.2460 C   0  0  0  0  0  0  0  0  0  0  0  0
    4.4770   -1.2320    0.2730 C   0  0  0  0  0  0  0  0  0  0  0  0
    3.0990   -1.3190    0.1920 C   0  0  0  0  0  0  0  0  0  0  0  0
    2.3120   -0.2370    0.0960 N   0  0  0  0  0  0  0  0  0  0  0  0
    0.9530   -0.3980   -0.1590 C   0  0  2  0  0  0  0  0  0  0  0  0
    0.2740    0.8530   -0.3090 O   0  0  0  0  0  0  0  0  0  0  0  0
   -1.0100    0.5510   -0.3000 C   0  0  2  0  0  0  0  0  0  0  0  0
   -2.0570    1.5120    0.1960 C   0  0  0  0  0  0  0  0  0  0  0  0
   -3.1520    0.6250    0.3900 O   0  0  0  0  0  0  0  0  0  0  0  0
   -4.4190    0.9150   -0.6620 P   0  0  2  0  0  0  0  0  0  0  0  0
   -3.8660    0.6080   -2.1070 O   0  0  0  0  0  0  0  0  0  0  0  0
   -5.0530    2.4320   -0.6630 O   0  0  0  0  0  0  0  0  0  0  0  0
   -5.6160   -0.2540   -0.3800 O   0  0  0  0  0  0  0  0  0  0  0  0
   -1.2750   -0.8730    0.1150 C   0  0  1  0  0  0  0  0  0  0  0  0
   -1.3180   -1.6710   -1.0270 O   0  0  0  0  0  0  0  0  0  0  0  0
    0.0870   -1.1170    0.8260 C   0  0  1  0  0  0  0  0  0  0  0  0
    0.3080   -2.4980    0.8690 O   0  0  0  0  0  0  0  0  0  0  0  0
    2.9190    0.9840    0.0880 C   0  0  0  0  0  0  0  0  0  0  0  0
    2.2140    2.0140    0.0060 O   0  0  0  0  0  0  0  0  0  0  0  0
    4.2490    1.0800    0.1580 N   0  0  0  0  0  0  0  0  0  0  0  0
  1  2  2  0
  2  3  1  0
  2 21  1  0
  3  4  2  0
  4  5  1  0
  6  5  1  1
  5 19  1  0
  6  7  1  0
  6 17  1  0
  7  8  1  0
  8  9  1  1
  8 15  1  0
  9 10  1  0
 10 11  1  0
 11 12  2  0
 11 13  1  6
 11 14  1  0
 15 16  1  6
 15 17  1  0
 17 18  1  6
 19 20  2  0
 19 21  1  0
M  END
