
     RDKit          3D

 27 29  0  0  0  0  0  0  0  0999 V2000
   -6.4870    2.3360    0.5610 C   0  0  0  0  0  0  0  0  0  0  0  0
   -5.2980    1.4250    0.8470 C   0  0  1  0  0  0  0  0  0  0  0  0
   -5.5020    0.1050    0.1540 C   0  0  0  0  0  0  0  0  0  0  0  0
   -4.2820   -0.7490    0.4900 C   0  0  0  0  0  0  0  0  0  0  0  0
   -2.9950   -0.0400    0.0360 C   0  0  1  0  0  0  0  0  0  0  0  0
   -2.0410   -0.1200    1.1670 C   0  0  0  0  0  0  0  0  0  0  0  0
   -0.5790   -0.2560    0.7820 C   0  0  0  0  0  0  0  0  0  0  0  0
   -0.3150   -1.2300   -0.2130 N   0  0  0  0  0  0  0  0  0  0  0  0
    0.9670   -1.6150   -0.5980 C   0  0  0  0  0  0  0  0  0  0  0  0
    1.0050   -2.5410   -1.5240 O   0  0  0  0  0  0  0  0  0  0  0  0
    2.2290   -1.1350   -0.1170 C   0  0  0  0  0  0  0  0  0  0  0  0
    3.4540   -1.6500   -0.5990 C   0  0  0  0  0  0  0  0  0  0  0  0
    4.4570   -0.9900    0.0610 C   0  0  0  0  0  0  0  0  0  0  0  0
    5.8800   -1.2780   -0.1440 C   0  0  0  0  0  0  0  0  0  0  0  0
    6.2710   -2.1620   -1.2000 N   0  0  0  0  0  0  0  0  0  0  0  0
    6.8090   -0.8050    0.5450 O   0  0  0  0  0  0  0  0  0  0  0  0
    3.8610   -0.1060    0.9090 C   0  0  0  0  0  0  0  0  0  0  0  0
    4.4750    0.9040    1.7900 C   0  0  0  0  0  0  0  0  0  0  0  0
    4.6750    2.1830    1.0480 C   0  0  0  0  0  0  0  0  0  0  0  0
    5.5600    2.0830   -0.1360 C   0  0  0  0  0  0  0  0  0  0  0  0
    5.6300    3.3620   -0.7590 O   0  0  0  0  0  0  0  0  0  0  0  0
    2.5090   -0.2080    0.7900 N   0  0  0  0  0  0  0  0  0  0  0  0
   -1.4910   -1.8390   -0.8600 C   0  0  1  0  0  0  0  0  0  0  0  0
   -1.9650   -3.0780   -0.1730 C   0  0  0  0  0  0  0  0  0  0  0  0
   -2.5300   -0.8320   -1.1810 C   0  0  0  0  0  0  0  0  0  0  0  0
   -3.2400    1.2350   -0.4170 O   0  0  0  0  0  0  0  0  0  0  0  0
   -3.9950    2.0330    0.3860 C   0  0  0  0  0  0  0  0  0  0  0  0
  2  1  1  6
  2  3  1  0
  2 27  1  0
  3  4  1  0
  5  4  1  1
  5  6  1  0
  5 25  1  0
  5 26  1  0
  6  7  1  0
  7  8  1  0
  8  9  1  0
  8 23  1  0
  9 10  2  0
  9 11  1  0
 11 12  2  0
 11 22  1  0
 12 13  1  0
 13 14  1  0
 13 17  2  0
 14 15  1  0
 14 16  2  0
 17 18  1  0
 17 22  1  0
 18 19  1  0
 19 20  1  0
 20 21  1  0
 23 24  1  1
 23 25  1  0
 26 27  1  0
M  END
