
     RDKit          3D

 27 28  0  0  0  0  0  0  0  0999 V2000
    0.7970   -3.1700   -0.6200 C   0  0  0  0  0  0  0  0  0  0  0  0
    0.2280   -1.9960   -0.3120 C   0  0  0  0  0  0  0  0  0  0  0  0
   -1.2140   -1.8820   -0.4010 C   0  0  0  0  0  0  0  0  0  0  0  0
   -1.9990   -0.8830   -0.1800 C   0  0  0  0  0  0  0  0  0  0  0  0
   -1.7210    0.5300    0.2360 C   0  0  0  0  0  0  0  0  0  0  0  0
   -0.5970    1.1830   -0.2940 N   0  0  0  0  0  0  0  0  0  0  0  0
   -0.1830    2.5160   -0.2400 C   0  0  0  0  0  0  0  0  0  0  0  0
   -0.8400    3.3790    0.3290 O   0  0  0  0  0  0  0  0  0  0  0  0
    1.1060    2.9690   -0.8930 C   0  0  0  0  0  0  0  0  0  0  0  0
    1.8340    1.8860   -1.4980 N   0  0  0  0  0  0  0  0  0  0  0  0
    1.5880    1.4580   -2.8590 C   0  0  0  0  0  0  0  0  0  0  0  0
    2.8520    1.1690   -0.7720 C   0  0  0  0  0  0  0  0  0  0  0  0
    3.0590    1.5620    0.4180 O   0  0  0  0  0  0  0  0  0  0  0  0
    3.5780    0.1310   -1.2750 O   0  0  0  0  0  0  0  0  0  0  0  0
    4.5780   -0.5380   -0.5590 C   0  0  1  0  0  0  0  0  0  0  0  0
    5.6990    0.4050   -0.1650 C   0  0  0  0  0  0  0  0  0  0  0  0
    3.9600   -1.1930    0.6510 C   0  0  0  0  0  0  0  0  0  0  0  0
    5.1810   -1.6290   -1.4170 C   0  0  0  0  0  0  0  0  0  0  0  0
   -2.7300    0.9560    0.9650 C   0  0  0  0  0  0  0  0  0  0  0  0
   -2.9890    2.2390    1.6490 C   0  0  1  0  0  0  0  0  0  0  0  0
   -3.9070    3.1680    0.9380 C   0  0  0  0  0  0  0  0  0  0  0  0
   -3.7800    1.8840    2.8440 O   0  0  0  0  0  0  0  0  0  0  0  0
   -3.8400   -0.0650    0.9050 C   0  0  2  0  0  0  0  0  0  0  0  0
   -3.9210   -0.9450    2.1090 C   0  0  0  0  0  0  0  0  0  0  0  0
   -4.5740   -2.1900    1.4950 C   0  0  0  0  0  0  0  0  0  0  0  0
   -4.0160   -2.2560    0.1510 N   0  0  0  0  0  0  0  0  0  0  0  0
   -3.5130   -0.9850   -0.2340 C   0  0  2  0  0  0  0  0  0  0  0  0
  1  2  2  0
  2  3  1  0
  3  4  2  3
  4  5  1  0
  4 27  1  0
  5  6  1  0
  5 19  2  0
  6  7  1  0
  7  8  2  0
  7  9  1  0
  9 10  1  0
 10 11  1  0
 10 12  1  0
 12 13  2  0
 12 14  1  0
 14 15  1  0
 15 16  1  1
 15 17  1  0
 15 18  1  0
 19 20  1  0
 19 23  1  0
 20 21  1  6
 20 22  1  0
 23 24  1  1
 23 27  1  0
 24 25  1  0
 25 26  1  0
 27 26  1  1
M  END
