
     RDKit          3D

 27 28  0  0  0  0  0  0  0  0999 V2000
    1.2470   -3.4170    3.5380 C   0  0  0  0  0  0  0  0  0  0  0  0
   -0.0510   -3.5450    2.8300 C   0  0  0  0  0  0  0  0  0  0  0  0
   -0.4760   -2.4420    1.9840 C   0  0  0  0  0  0  0  0  0  0  0  0
    0.1060   -1.3130    1.6820 C   0  0  0  0  0  0  0  0  0  0  0  0
    1.4220   -0.8310    2.1440 C   0  0  0  0  0  0  0  0  0  0  0  0
    1.8270    0.3380    1.2190 C   0  0  0  0  0  0  0  0  0  0  0  0
    1.6800   -0.1720   -0.2220 C   0  0  2  0  0  0  0  0  0  0  0  0
    2.4200    0.6900   -1.1070 N   0  0  0  0  0  0  0  0  0  0  0  0
    1.9300    0.9720   -2.4010 C   0  0  0  0  0  0  0  0  0  0  0  0
    2.6810    1.0910   -3.4370 N   0  0  0  0  0  0  0  0  0  0  0  0
    4.0850    0.9470   -3.3750 C   0  0  0  0  0  0  0  0  0  0  0  0
    4.6870    0.2590   -4.2700 O   0  0  0  0  0  0  0  0  0  0  0  0
    4.8950    1.4980   -2.4090 O   0  0  0  0  0  0  0  0  0  0  0  0
    6.2930    1.2920   -2.4480 C   0  0  0  0  0  0  0  0  0  0  0  0
    6.9720    1.9850   -1.2620 C   0  0  0  0  0  0  0  0  0  0  0  0
    0.4950    1.1370   -2.5270 N   0  0  0  0  0  0  0  0  0  0  0  0
   -0.2370    1.0450   -1.2580 C   0  0  1  0  0  0  0  0  0  0  0  0
   -1.6780    1.0710   -1.4960 C   0  0  0  0  0  0  0  0  0  0  0  0
   -2.1090    1.1390   -2.6850 O   0  0  0  0  0  0  0  0  0  0  0  0
   -2.6160    1.0250   -0.4980 O   0  0  0  0  0  0  0  0  0  0  0  0
   -3.9940    1.0530   -0.7780 C   0  0  2  0  0  0  0  0  0  0  0  0
   -4.6470    2.3280   -0.2720 C   0  0  0  0  0  0  0  0  0  0  0  0
   -4.7230   -0.1750   -0.3110 C   0  0  1  0  0  0  0  0  0  0  0  0
   -4.6500   -0.4250    1.1540 C   0  0  0  0  0  0  0  0  0  0  0  0
   -6.1850   -0.1220   -0.7030 C   0  0  0  0  0  0  0  0  0  0  0  0
    0.1910   -0.2030   -0.5110 C   0  0  2  0  0  0  0  0  0  0  0  0
   -0.6100   -0.3270    0.7500 C   0  0  0  0  0  0  0  0  0  0  0  0
  1  2  1  0
  2  3  1  0
  3  4  2  3
  4  5  1  0
  4 27  1  0
  5  6  1  0
  7  6  1  1
  7  8  1  0
  7 26  1  0
  8  9  1  0
  9 10  2  3
  9 16  1  0
 10 11  1  0
 11 12  2  0
 11 13  1  0
 13 14  1  0
 14 15  1  0
 16 17  1  0
 17 18  1  6
 17 26  1  0
 18 19  2  0
 18 20  1  0
 20 21  1  0
 21 22  1  1
 21 23  1  0
 23 24  1  1
 23 25  1  0
 26 27  1  1
M  END
