
     RDKit          3D

 27 28  0  0  0  0  0  0  0  0999 V2000
   -3.4970    3.3770   -0.8820 C   0  0  0  0  0  0  0  0  0  0  0  0
   -3.0480    1.9830   -0.7670 C   0  0  0  0  0  0  0  0  0  0  0  0
   -3.6370    1.1690    0.0470 C   0  0  0  0  0  0  0  0  0  0  0  0
   -4.7850    1.6810    0.8490 C   0  0  0  0  0  0  0  0  0  0  0  0
   -5.9570    1.0140    0.8580 C   0  0  0  0  0  0  0  0  0  0  0  0
   -6.4000   -0.2110    0.1910 C   0  0  0  0  0  0  0  0  0  0  0  0
   -5.4920   -1.3380    0.0470 C   0  0  0  0  0  0  0  0  0  0  0  0
   -4.0390   -1.2280    0.1080 C   0  0  0  0  0  0  0  0  0  0  0  0
   -3.3440   -2.5490    0.1940 C   0  0  0  0  0  0  0  0  0  0  0  0
   -3.1650   -0.2010    0.1160 C   0  0  0  0  0  0  0  0  0  0  0  0
   -1.8070   -0.4740    0.1210 N   0  0  0  0  0  0  0  0  0  0  0  0
   -0.6760    0.3600    0.2080 C   0  0  0  0  0  0  0  0  0  0  0  0
   -0.8260    1.5820    0.3530 O   0  0  0  0  0  0  0  0  0  0  0  0
    0.7270   -0.2140    0.1290 C   0  0  1  0  0  0  0  0  0  0  0  0
    1.5940    0.2870    1.2550 C   0  0  0  0  0  0  0  0  0  0  0  0
    2.9360   -0.1610    0.9700 N   0  0  0  0  0  0  0  0  0  0  0  0
    3.8920    0.5980    0.1890 C   0  0  0  0  0  0  0  0  0  0  0  0
    5.1700   -0.1490    0.2940 C   0  0  2  0  0  0  0  0  0  0  0  0
    6.0990   -0.0110   -0.8630 C   0  0  0  0  0  0  0  0  0  0  0  0
    6.4830    1.3910   -1.0410 C   0  0  0  0  0  0  0  0  0  0  0  0
    6.0830    2.3650   -0.0920 N   0  0  0  0  0  0  0  0  0  0  0  0
    7.1660    1.7230   -2.0380 O   0  0  0  0  0  0  0  0  0  0  0  0
    4.7100   -1.5980    0.4690 C   0  0  0  0  0  0  0  0  0  0  0  0
    3.5550   -1.3850    1.3750 C   0  0  0  0  0  0  0  0  0  0  0  0
    3.1410   -2.0850    2.3230 O   0  0  0  0  0  0  0  0  0  0  0  0
    0.7060   -1.5730   -0.0160 O   0  0  0  0  0  0  0  0  0  0  0  0
    1.1590   -2.1330   -1.1260 C   0  0  0  0  0  0  0  0  0  0  0  0
  1  2  1  0
  2  3  2  3
  3  4  1  0
  3 10  1  0
  4  5  2  0
  5  6  1  0
  6  7  1  0
  7  8  1  0
  8  9  1  0
  8 10  2  0
 10 11  1  0
 11 12  1  0
 12 13  2  0
 12 14  1  0
 14 15  1  1
 14 26  1  0
 15 16  1  0
 16 17  1  0
 16 24  1  0
 17 18  1  0
 18 19  1  6
 18 23  1  0
 19 20  1  0
 20 21  1  0
 20 22  2  0
 23 24  1  0
 24 25  2  0
 26 27  1  0
M  END
