
     RDKit          3D

 27 29  0  0  0  0  0  0  0  0999 V2000
   -2.2740    0.5870    2.6900 C   0  0  0  0  0  0  0  0  0  0  0  0
   -1.1170    0.6430    1.7130 C   0  0  1  0  0  0  0  0  0  0  0  0
   -0.3550   -0.6180    1.7790 C   0  0  2  0  0  0  0  0  0  0  0  0
    0.0940   -0.7930    3.1200 O   0  0  0  0  0  0  0  0  0  0  0  0
    0.8150   -0.7340    0.9240 C   0  0  0  0  0  0  0  0  0  0  0  0
    2.0180   -0.0800    1.1720 C   0  0  0  0  0  0  0  0  0  0  0  0
    3.1110   -0.2170    0.3400 C   0  0  0  0  0  0  0  0  0  0  0  0
    3.0510   -1.0160   -0.7800 C   0  0  0  0  0  0  0  0  0  0  0  0
    4.1600   -1.1570   -1.6250 O   0  0  0  0  0  0  0  0  0  0  0  0
    5.3510   -0.5330   -1.4130 C   0  0  0  0  0  0  0  0  0  0  0  0
    6.4430   -1.2420   -1.2640 C   0  0  0  0  0  0  0  0  0  0  0  0
    7.7510   -0.6240   -1.0340 C   0  0  0  0  0  0  0  0  0  0  0  0
    7.7030    0.7720   -0.9920 O   0  0  0  0  0  0  0  0  0  0  0  0
    6.5630    1.5220   -1.1490 C   0  0  0  0  0  0  0  0  0  0  0  0
    5.4070    0.9120   -1.3540 C   0  0  0  0  0  0  0  0  0  0  0  0
    1.8630   -1.6680   -1.0340 C   0  0  0  0  0  0  0  0  0  0  0  0
    0.7680   -1.5300   -0.2000 C   0  0  0  0  0  0  0  0  0  0  0  0
   -1.6640    0.9930    0.4180 N   0  0  0  0  0  0  0  0  0  0  0  0
   -2.2350    2.2870    0.4740 C   0  0  0  0  0  0  0  0  0  0  0  0
   -3.6780    2.4590    0.2720 C   0  0  0  0  0  0  0  0  0  0  0  0
   -4.4780    1.2140    0.0660 C   0  0  0  0  0  0  0  0  0  0  0  0
   -3.6900    0.3310   -0.8650 C   0  0  2  0  0  0  0  0  0  0  0  0
   -4.4660   -0.9110   -1.0070 N   0  0  0  0  0  0  0  0  0  0  0  0
   -4.9980   -1.3540   -2.2250 C   0  0  0  0  0  0  0  0  0  0  0  0
   -5.7410   -2.5840   -2.2560 N   0  0  0  0  0  0  0  0  0  0  0  0
   -4.8200   -0.6780   -3.2640 O   0  0  0  0  0  0  0  0  0  0  0  0
   -2.3920   -0.0270   -0.2250 C   0  0  0  0  0  0  0  0  0  0  0  0
  2  1  1  1
  2  3  1  0
  2 18  1  0
  3  4  1  1
  3  5  1  0
  5  6  2  0
  5 17  1  0
  6  7  1  0
  7  8  2  0
  8  9  1  0
  8 16  1  0
  9 10  1  0
 10 11  2  0
 10 15  1  0
 11 12  1  0
 12 13  1  0
 13 14  1  0
 14 15  2  0
 16 17  2  0
 18 19  1  0
 18 27  1  0
 19 20  1  0
 20 21  1  0
 21 22  1  0
 22 23  1  1
 22 27  1  0
 23 24  1  0
 24 25  1  0
 24 26  2  0
M  END
