
     RDKit          3D

 27 28  0  0  0  0  0  0  0  0999 V2000
   -4.5240   -0.9800    2.6010 C   0  0  0  0  0  0  0  0  0  0  0  0
   -4.3080   -1.7330    1.3120 C   0  0  1  0  0  0  0  0  0  0  0  0
   -3.9570   -3.1630    1.6850 C   0  0  0  0  0  0  0  0  0  0  0  0
   -5.5750   -1.6840    0.5140 C   0  0  0  0  0  0  0  0  0  0  0  0
   -3.1900   -1.1600    0.5150 C   0  0  0  0  0  0  0  0  0  0  0  0
   -3.4140   -0.7240   -0.6400 O   0  0  0  0  0  0  0  0  0  0  0  0
   -1.8690   -1.0810    1.0030 N   0  0  0  0  0  0  0  0  0  0  0  0
   -0.8150   -0.4980    0.1410 C   0  0  2  0  0  0  0  0  0  0  0  0
   -0.6080   -1.2520   -1.1270 C   0  0  0  0  0  0  0  0  0  0  0  0
    0.4340   -0.5560    0.9280 C   0  0  0  0  0  0  0  0  0  0  0  0
    1.6530   -0.1130    0.3040 N   0  0  0  0  0  0  0  0  0  0  0  0
    2.0170    1.1550   -0.1470 C   0  0  0  0  0  0  0  0  0  0  0  0
    1.1180    2.0830    0.0430 O   0  0  0  0  0  0  0  0  0  0  0  0
    3.2450    1.5230   -0.7800 C   0  0  0  0  0  0  0  0  0  0  0  0
    4.3210    0.9030   -1.1300 C   0  0  0  0  0  0  0  0  0  0  0  0
    4.5380   -0.5460   -0.9130 C   0  0  0  0  0  0  0  0  0  0  0  0
    5.9090   -0.9150   -1.5330 C   0  0  0  0  0  0  0  0  0  0  0  0
    6.8960    0.0310   -0.8840 C   0  0  0  0  0  0  0  0  0  0  0  0
    6.7240    1.3570   -1.5890 C   0  0  0  0  0  0  0  0  0  0  0  0
    5.3630    1.6410   -1.7560 O   0  0  0  0  0  0  0  0  0  0  0  0
   -1.3730    0.8440   -0.1680 C   0  0  0  0  0  0  0  0  0  0  0  0
   -1.5240    1.2130   -1.4000 C   0  0  0  0  0  0  0  0  0  0  0  0
   -2.0680    2.5240   -1.8070 C   0  0  2  0  0  0  0  0  0  0  0  0
   -1.1560    3.2110   -2.7180 N   0  0  0  0  0  0  0  0  0  0  0  0
   -2.4590    3.2940   -0.7430 O   0  0  0  0  0  0  0  0  0  0  0  0
   -2.3000    2.9070    0.5720 C   0  0  0  0  0  0  0  0  0  0  0  0
   -1.7870    1.7470    0.9160 C   0  0  0  0  0  0  0  0  0  0  0  0
  2  1  1  1
  2  3  1  0
  2  4  1  0
  2  5  1  0
  5  6  2  0
  5  7  1  0
  7  8  1  0
  8  9  1  6
  8 10  1  0
  8 21  1  0
 10 11  1  0
 11 12  1  0
 12 13  2  0
 12 14  1  0
 14 15  2  3
 15 16  1  0
 15 20  1  0
 16 17  1  0
 17 18  1  0
 18 19  1  0
 19 20  1  0
 21 22  2  0
 21 27  1  0
 22 23  1  0
 23 24  1  1
 23 25  1  0
 25 26  1  0
 26 27  2  0
M  END
