
     RDKit          3D

 26 25  0  0  0  0  0  0  0  0999 V2000
    7.5350   -0.3830   -0.1330 C   0  0  0  0  0  0  0  0  0  0  0  0
    6.2030   -0.3050    0.5750 C   0  0  0  0  0  0  0  0  0  0  0  0
    5.2440    0.1310   -0.3390 O   0  0  0  0  0  0  0  0  0  0  0  0
    3.9810    0.2180    0.2840 C   0  0  2  0  0  0  0  0  0  0  0  0
    2.9800   -0.5650   -0.4480 C   0  0  0  0  0  0  0  0  0  0  0  0
    2.1730   -1.4590    0.0710 C   0  0  0  0  0  0  0  0  0  0  0  0
    2.2060   -1.7400    1.4140 O   0  0  0  0  0  0  0  0  0  0  0  0
    1.6660   -0.9220    2.3810 C   0  0  0  0  0  0  0  0  0  0  0  0
    0.1660   -0.7040    2.1650 C   0  0  0  0  0  0  0  0  0  0  0  0
   -0.1080   -0.1180    0.9500 O   0  0  0  0  0  0  0  0  0  0  0  0
   -1.4370    0.1590    0.7980 C   0  0  0  0  0  0  0  0  0  0  0  0
   -2.3780   -1.0130    0.8550 C   0  0  0  0  0  0  0  0  0  0  0  0
   -3.8170   -0.4710    0.6700 C   0  0  0  0  0  0  0  0  0  0  0  0
   -3.8320    0.1350   -0.5460 O   0  0  0  0  0  0  0  0  0  0  0  0
   -4.9900    0.7030   -0.9770 C   0  0  1  0  0  0  0  0  0  0  0  0
   -4.7100    1.2770   -2.3740 C   0  0  0  0  0  0  0  0  0  0  0  0
   -6.0090   -0.4240   -1.1920 C   0  0  0  0  0  0  0  0  0  0  0  0
   -5.6170    1.6960   -0.1100 C   0  0  0  0  0  0  0  0  0  0  0  0
   -5.1230    2.1430    1.1410 N   0  0  0  0  0  0  0  0  0  0  0  0
   -6.7010    2.2110   -0.5010 O   0  0  0  0  0  0  0  0  0  0  0  0
    1.2160   -2.1750   -0.8030 C   0  0  0  0  0  0  0  0  0  0  0  0
    1.1930   -1.8520   -2.1690 N   0  0  0  0  0  0  0  0  0  0  0  0
    0.2750   -3.3110   -0.1430 S   0  0  0  0  0  0  0  0  0  0  0  0
    3.5970    1.6510    0.2850 C   0  0  0  0  0  0  0  0  0  0  0  0
    4.5130    2.5990   -0.2790 N   0  0  0  0  0  0  0  0  0  0  0  0
    2.5080    2.0870    0.7530 O   0  0  0  0  0  0  0  0  0  0  0  0
  1  2  1  0
  2  3  1  0
  4  3  1  6
  4  5  1  0
  4 24  1  0
  5  6  2  3
  6  7  1  0
  6 21  1  0
  7  8  1  0
  8  9  1  0
  9 10  1  0
 10 11  1  0
 11 12  1  0
 12 13  1  0
 13 14  1  0
 14 15  1  0
 15 16  1  6
 15 17  1  0
 15 18  1  0
 18 19  1  0
 18 20  2  0
 21 22  1  0
 21 23  2  0
 24 25  1  0
 24 26  2  0
M  END
