
     RDKit          3D

 26 25  0  0  0  0  0  0  0  0999 V2000
   -4.9000   -2.0600    0.7290 C   0  0  0  0  0  0  0  0  0  0  0  0
   -4.9710   -1.4940   -0.6720 C   0  0  0  0  0  0  0  0  0  0  0  0
   -5.6090   -0.1470   -0.6210 C   0  0  0  0  0  0  0  0  0  0  0  0
   -4.9310    0.8780    0.2120 C   0  0  1  0  0  0  0  0  0  0  0  0
   -3.5610    1.1540   -0.2180 N   0  0  0  0  0  0  0  0  0  0  0  0
   -2.5630    1.5280    0.7010 C   0  0  0  0  0  0  0  0  0  0  0  0
   -2.9380    1.6160    1.9100 O   0  0  0  0  0  0  0  0  0  0  0  0
   -1.1640    1.8140    0.2980 C   0  0  0  0  0  0  0  0  0  0  0  0
   -0.9310    1.3220   -0.9560 O   0  0  0  0  0  0  0  0  0  0  0  0
   -0.9590   -0.0410   -1.0580 C   0  0  0  0  0  0  0  0  0  0  0  0
    0.1970   -0.6260   -0.2070 C   0  0  0  0  0  0  0  0  0  0  0  0
    1.3830   -0.0870   -0.7550 N   0  0  0  0  0  0  0  0  0  0  0  0
    2.5900   -0.1940    0.0260 C   0  0  1  0  0  0  0  0  0  0  0  0
    3.4230    0.9990   -0.3280 C   0  0  0  0  0  0  0  0  0  0  0  0
    2.2140   -0.1960    1.5020 C   0  0  0  0  0  0  0  0  0  0  0  0
    3.3090   -1.4530   -0.2060 C   0  0  0  0  0  0  0  0  0  0  0  0
    2.6790   -2.2830   -0.9350 O   0  0  0  0  0  0  0  0  0  0  0  0
    4.8480   -2.0250    0.3220 S   0  0  0  0  0  0  0  0  0  0  0  0
    6.1510   -0.9660    0.7820 C   0  0  0  0  0  0  0  0  0  0  0  0
    6.8470   -0.3960   -0.3890 C   0  0  0  0  0  0  0  0  0  0  0  0
    6.4140    0.5120   -1.0250 O   0  0  0  0  0  0  0  0  0  0  0  0
    8.1550   -0.9990   -0.7820 C   0  0  0  0  0  0  0  0  0  0  0  0
    8.4980   -0.4810   -2.0350 O   0  0  0  0  0  0  0  0  0  0  0  0
   -5.6900    2.1710   -0.0330 C   0  0  0  0  0  0  0  0  0  0  0  0
   -7.0680    2.2640    0.2550 N   0  0  0  0  0  0  0  0  0  0  0  0
   -5.0750    3.1500   -0.4930 O   0  0  0  0  0  0  0  0  0  0  0  0
  1  2  1  0
  2  3  1  0
  4  3  1  6
  4  5  1  0
  4 24  1  0
  5  6  1  0
  6  7  2  0
  6  8  1  0
  8  9  1  0
  9 10  1  0
 10 11  1  0
 11 12  1  0
 12 13  1  0
 13 14  1  1
 13 15  1  0
 13 16  1  0
 16 17  2  0
 16 18  1  0
 18 19  1  0
 19 20  1  0
 20 21  2  0
 20 22  1  0
 22 23  1  0
 24 25  1  0
 24 26  2  0
M  CHG  1  12   1
M  END
