
     RDKit          3D

 26 25  0  0  0  0  0  0  0  0999 V2000
   -0.0840    0.8620   -1.0730 C   0  0  0  0  0  0  0  0  0  0  0  0
    0.1060   -0.5350   -0.5350 C   0  0  2  0  0  0  0  0  0  0  0  0
    0.0360   -1.4800   -1.7030 C   0  0  0  0  0  0  0  0  0  0  0  0
   -0.7250   -0.8080    0.5990 C   0  0  0  0  0  0  0  0  0  0  0  0
   -2.2190   -0.7850    0.6390 C   0  0  2  0  0  0  0  0  0  0  0  0
   -2.7930   -1.7870   -0.3380 C   0  0  0  0  0  0  0  0  0  0  0  0
   -4.2800   -1.9330   -0.3510 C   0  0  0  0  0  0  0  0  0  0  0  0
   -4.8370   -2.4470    0.9490 C   0  0  0  0  0  0  0  0  0  0  0  0
   -6.2250   -2.5250    0.8670 O   0  0  0  0  0  0  0  0  0  0  0  0
   -2.7680    0.6020    0.4970 C   0  0  0  0  0  0  0  0  0  0  0  0
   -4.2030    0.7450    0.5850 N   0  0  0  0  0  0  0  0  0  0  0  0
   -4.6720    2.4040    0.3820 S   0  0  2  0  0  0  0  0  0  0  0  0
   -4.0080    3.4480    1.6210 C   0  0  0  0  0  0  0  0  0  0  0  0
   -6.1740    2.4300    0.3310 O   0  0  0  0  0  0  0  0  0  0  0  0
   -4.1770    2.8350   -0.9600 O   0  0  0  0  0  0  0  0  0  0  0  0
    1.5080   -0.5200   -0.0010 N   0  0  0  0  0  0  0  0  0  0  0  0
    2.5060   -0.5480   -0.9650 C   0  0  0  0  0  0  0  0  0  0  0  0
    3.7720    0.2040   -0.4400 C   0  0  1  0  0  0  0  0  0  0  0  0
    4.1510   -0.5390    0.8140 C   0  0  0  0  0  0  0  0  0  0  0  0
    5.2240   -0.0640    1.4990 O   0  0  0  0  0  0  0  0  0  0  0  0
    4.8110   -0.0820   -1.5040 C   0  0  0  0  0  0  0  0  0  0  0  0
    6.1520    0.4820   -1.3620 C   0  0  0  0  0  0  0  0  0  0  0  0
    6.9130    0.1260   -0.2790 O   0  0  0  0  0  0  0  0  0  0  0  0
    3.5300    1.6250   -0.2590 C   0  0  0  0  0  0  0  0  0  0  0  0
    2.6850    2.1550    0.7430 N   0  0  0  0  0  0  0  0  0  0  0  0
    4.1140    2.4280   -1.0490 O   0  0  0  0  0  0  0  0  0  0  0  0
  2  1  1  6
  2  3  1  0
  2  4  1  0
  2 16  1  0
  5  4  1  6
  5  6  1  0
  5 10  1  0
  6  7  1  0
  7  8  1  0
  8  9  1  0
 10 11  1  0
 11 12  1  0
 12 13  1  1
 12 14  2  0
 12 15  2  0
 16 17  1  0
 18 17  1  6
 18 19  1  0
 18 21  1  0
 18 24  1  0
 19 20  1  0
 21 22  1  0
 22 23  1  0
 24 25  1  0
 24 26  2  0
M  CHG  1  16   1
M  END
