
     RDKit          3D

 23 25  0  0  0  0  0  0  0  0999 V2000
   -2.2270    3.8310   -0.1760 C   0  0  0  0  0  0  0  0  0  0  0  0
   -2.2650    2.3580    0.0040 C   0  0  0  0  0  0  0  0  0  0  0  0
   -1.6280    1.6090   -0.8740 C   0  0  0  0  0  0  0  0  0  0  0  0
   -1.5690    0.1680   -0.8410 N   0  0  0  0  0  0  0  0  0  0  0  0
   -0.4050   -0.4520   -1.4490 C   0  0  0  0  0  0  0  0  0  0  0  0
    0.7900    0.0020   -0.5510 C   0  0  0  0  0  0  0  0  0  0  0  0
    1.9890   -0.5420   -1.0540 O   0  0  0  0  0  0  0  0  0  0  0  0
    3.2230   -0.3220   -0.4790 C   0  0  0  0  0  0  0  0  0  0  0  0
    3.3480    0.4640    0.6480 C   0  0  0  0  0  0  0  0  0  0  0  0
    4.5810    0.6840    1.2220 C   0  0  0  0  0  0  0  0  0  0  0  0
    5.7190    0.1220    0.6820 C   0  0  0  0  0  0  0  0  0  0  0  0
    7.0630    0.3360    1.2680 C   0  0  0  0  0  0  0  0  0  0  0  0
    5.5960   -0.6650   -0.4480 C   0  0  0  0  0  0  0  0  0  0  0  0
    4.3720   -0.8840   -1.0170 C   0  0  0  0  0  0  0  0  0  0  0  0
    4.1550   -1.8820   -2.4610 Cl  0  0  0  0  0  0  0  0  0  0  0  0
   -2.5060   -0.7520   -0.3010 C   0  0  0  0  0  0  0  0  0  0  0  0
   -2.6260   -1.8460   -1.0060 C   0  0  0  0  0  0  0  0  0  0  0  0
   -3.5480   -2.8990   -0.5850 C   0  0  0  0  0  0  0  0  0  0  0  0
   -4.6290   -2.3240    0.2890 C   0  0  0  0  0  0  0  0  0  0  0  0
   -3.9690   -1.6220    1.4870 C   0  0  0  0  0  0  0  0  0  0  0  0
   -3.2740   -0.4870    0.8880 N   0  0  0  0  0  0  0  0  0  0  0  0
   -3.4730    0.7460    1.5770 C   0  0  0  0  0  0  0  0  0  0  0  0
   -3.0410    1.9410    1.1920 C   0  0  0  0  0  0  0  0  0  0  0  0
  1  2  1  0
  2  3  2  0
  2 23  1  0
  3  4  1  0
  4  5  1  0
  4 16  1  0
  5  6  1  0
  6  7  1  0
  7  8  1  0
  8  9  2  0
  8 14  1  0
  9 10  1  0
 10 11  2  0
 11 12  1  0
 11 13  1  0
 13 14  2  0
 14 15  1  0
 16 17  2  0
 16 21  1  0
 17 18  1  0
 18 19  1  0
 19 20  1  0
 20 21  1  0
 21 22  1  0
 22 23  2  0
M  END
