
     RDKit          3D

 23 25  0  0  0  0  0  0  0  0999 V2000
   -2.0780    3.0770    1.0890 C   0  0  0  0  0  0  0  0  0  0  0  0
   -1.9210    1.6860    1.6850 C   0  0  0  0  0  0  0  0  0  0  0  0
   -2.2050    0.6460    0.6750 C   0  0  0  0  0  0  0  0  0  0  0  0
   -3.4540    0.3010    0.1740 C   0  0  0  0  0  0  0  0  0  0  0  0
   -4.7160    0.9630    0.5960 C   0  0  0  0  0  0  0  0  0  0  0  0
   -3.2710   -0.6880   -0.7120 N   0  0  0  0  0  0  0  0  0  0  0  0
   -4.3240   -1.3350   -1.4670 C   0  0  0  0  0  0  0  0  0  0  0  0
   -1.9600   -1.0130   -0.8190 C   0  0  0  0  0  0  0  0  0  0  0  0
   -1.2860   -1.9560   -1.5820 C   0  0  0  0  0  0  0  0  0  0  0  0
   -2.2270   -2.9850   -2.6780 Cl  0  0  0  0  0  0  0  0  0  0  0  0
    0.0760   -2.0940   -1.4970 C   0  0  0  0  0  0  0  0  0  0  0  0
    0.7670   -1.2540   -0.6180 C   0  0  0  0  0  0  0  0  0  0  0  0
    2.1660   -1.4450   -0.5760 N   0  0  0  0  0  0  0  0  0  0  0  0
    2.6990   -2.5570    0.1750 C   0  0  0  0  0  0  0  0  0  0  0  0
    3.0470   -0.5570   -1.2650 C   0  0  0  0  0  0  0  0  0  0  0  0
    3.8940    0.2370   -0.3170 C   0  0  0  0  0  0  0  0  0  0  0  0
    3.9010    0.1980    1.0010 C   0  0  0  0  0  0  0  0  0  0  0  0
    4.8940    1.1470    1.5400 C   0  0  0  0  0  0  0  0  0  0  0  0
    5.4970    1.7680    0.5190 C   0  0  0  0  0  0  0  0  0  0  0  0
    4.8960    1.2250   -0.6870 C   0  0  0  0  0  0  0  0  0  0  0  0
    5.1780    1.5380   -1.8670 O   0  0  0  0  0  0  0  0  0  0  0  0
    0.0900   -0.3190    0.1360 C   0  0  0  0  0  0  0  0  0  0  0  0
   -1.2900   -0.1750    0.0530 C   0  0  0  0  0  0  0  0  0  0  0  0
  1  2  1  0
  2  3  1  0
  3  4  2  0
  3 23  1  0
  4  5  1  0
  4  6  1  0
  6  7  1  0
  6  8  1  0
  8  9  2  0
  8 23  1  0
  9 10  1  0
  9 11  1  0
 11 12  2  0
 12 13  1  0
 12 22  1  0
 13 14  1  0
 13 15  1  0
 15 16  1  0
 16 17  2  0
 16 20  1  0
 17 18  1  0
 18 19  2  0
 19 20  1  0
 20 21  2  0
 22 23  2  0
M  END
