
     RDKit          3D

 26 25  0  0  0  0  0  0  0  0999 V2000
    5.7790   -0.9510    1.8060 C   0  0  0  0  0  0  0  0  0  0  0  0
    4.9340    0.0460    1.3210 O   0  0  0  0  0  0  0  0  0  0  0  0
    5.6640    0.8400    0.4740 C   0  0  0  0  0  0  0  0  0  0  0  0
    4.8900    1.9720   -0.1370 C   0  0  1  0  0  0  0  0  0  0  0  0
    4.3970    2.8030    0.8660 O   0  0  0  0  0  0  0  0  0  0  0  0
    5.8690    2.7970   -0.9590 C   0  0  0  0  0  0  0  0  0  0  0  0
    6.9220    3.2750   -0.2160 O   0  0  0  0  0  0  0  0  0  0  0  0
    3.7940    1.5270   -1.0530 C   0  0  0  0  0  0  0  0  0  0  0  0
    2.7510    0.7970   -0.4230 N   0  0  0  0  0  0  0  0  0  0  0  0
    1.6450    0.3090   -1.1590 C   0  0  0  0  0  0  0  0  0  0  0  0
    1.6430    0.5630   -2.4110 O   0  0  0  0  0  0  0  0  0  0  0  0
    0.6040   -0.4000   -0.6250 O   0  0  0  0  0  0  0  0  0  0  0  0
   -0.4500   -0.8370   -1.4650 C   0  0  0  0  0  0  0  0  0  0  0  0
   -1.4780   -1.5930   -0.6600 C   0  0  0  0  0  0  0  0  0  0  0  0
   -1.7060   -2.8270   -0.9910 C   0  0  0  0  0  0  0  0  0  0  0  0
   -2.5910   -3.8640   -0.4760 C   0  0  1  0  0  0  0  0  0  0  0  0
   -3.1230   -3.7700    0.9000 C   0  0  0  0  0  0  0  0  0  0  0  0
   -3.6210   -4.3150   -1.5140 C   0  0  0  0  0  0  0  0  0  0  0  0
   -4.6980   -5.5980   -0.8420 S   0  0  0  0  0  0  0  0  0  0  0  0
   -2.1410   -0.8310    0.3920 C   0  0  0  0  0  0  0  0  0  0  0  0
   -2.8000    0.3780   -0.1710 N   0  0  0  0  0  0  0  0  0  0  0  0
   -3.5110    1.2960    0.6020 C   0  0  0  0  0  0  0  0  0  0  0  0
   -3.5890    1.0680    1.8550 O   0  0  0  0  0  0  0  0  0  0  0  0
   -4.1680    2.4990    0.0520 C   0  0  0  0  0  0  0  0  0  0  0  0
   -4.8510    3.2790    1.1530 C   0  0  0  0  0  0  0  0  0  0  0  0
   -5.8570    2.5190    1.8290 N   0  0  0  0  0  0  0  0  0  0  0  0
  1  2  1  0
  2  3  1  0
  3  4  1  0
  4  5  1  1
  4  6  1  0
  4  8  1  0
  6  7  1  0
  8  9  1  0
  9 10  1  0
 10 11  2  0
 10 12  1  0
 12 13  1  0
 13 14  1  0
 14 15  2  3
 14 20  1  0
 15 16  1  0
 16 17  1  1
 16 18  1  0
 18 19  1  0
 20 21  1  0
 21 22  1  0
 22 23  2  0
 22 24  1  0
 24 25  1  0
 25 26  1  0
M  CHG  1  26   1
M  END
