
     RDKit          3D

 26 25  0  0  0  0  0  0  0  0999 V2000
   -1.5300   -2.0250    0.8070 C   0  0  0  0  0  0  0  0  0  0  0  0
   -2.7120   -1.3760    1.4080 C   0  0  0  0  0  0  0  0  0  0  0  0
   -3.4380   -0.3740    0.5600 C   0  0  2  0  0  0  0  0  0  0  0  0
   -4.6010    0.1130    1.4410 C   0  0  0  0  0  0  0  0  0  0  0  0
   -4.0390   -0.9650   -0.6130 N   0  0  0  0  0  0  0  0  0  0  0  0
   -5.0280   -1.9450   -0.2990 C   0  0  0  0  0  0  0  0  0  0  0  0
   -2.6190    0.8370    0.2320 C   0  0  2  0  0  0  0  0  0  0  0  0
   -3.3560    1.8360   -0.6190 C   0  0  0  0  0  0  0  0  0  0  0  0
   -4.5560    2.1660   -0.0150 O   0  0  0  0  0  0  0  0  0  0  0  0
   -1.3810    0.5480   -0.4590 N   0  0  0  0  0  0  0  0  0  0  0  0
   -0.0910    0.8870    0.0250 C   0  0  0  0  0  0  0  0  0  0  0  0
   -0.0140    1.4740    1.1230 O   0  0  0  0  0  0  0  0  0  0  0  0
    1.1050    0.5730   -0.7090 N   0  0  0  0  0  0  0  0  0  0  0  0
    2.4180    0.9200   -0.2130 C   0  0  2  0  0  0  0  0  0  0  0  0
    3.1170    1.9110   -1.1350 C   0  0  0  0  0  0  0  0  0  0  0  0
    2.3550    3.0530   -1.2140 O   0  0  0  0  0  0  0  0  0  0  0  0
    2.9260    4.0120   -2.0420 C   0  0  0  0  0  0  0  0  0  0  0  0
    4.2910    4.4510   -1.5790 C   0  0  0  0  0  0  0  0  0  0  0  0
    4.7480    5.4160   -2.5030 O   0  0  0  0  0  0  0  0  0  0  0  0
    3.2320   -0.3500   -0.0850 C   0  0  0  0  0  0  0  0  0  0  0  0
    2.3810   -1.4510    1.0760 S   0  0  0  0  0  0  0  0  0  0  0  0
    3.3400   -2.9680    1.2390 C   0  0  2  0  0  0  0  0  0  0  0  0
    3.2930   -3.6720   -0.1190 C   0  0  0  0  0  0  0  0  0  0  0  0
    2.7410   -3.8080    2.2840 C   0  0  0  0  0  0  0  0  0  0  0  0
    1.7200   -3.4430    2.9110 O   0  0  0  0  0  0  0  0  0  0  0  0
    3.3070   -5.0290    2.5900 O   0  0  0  0  0  0  0  0  0  0  0  0
  1  2  1  0
  2  3  1  0
  3  4  1  1
  3  5  1  0
  3  7  1  0
  5  6  1  0
  7  8  1  6
  7 10  1  0
  8  9  1  0
 10 11  1  0
 11 12  2  0
 11 13  1  0
 13 14  1  0
 14 15  1  6
 14 20  1  0
 15 16  1  0
 16 17  1  0
 17 18  1  0
 18 19  1  0
 20 21  1  0
 21 22  1  0
 22 23  1  6
 22 24  1  0
 24 25  2  0
 24 26  1  0
M  CHG  1   5   1
M  END
