
     RDKit          3D

 25 24  0  0  0  0  0  0  0  0999 V2000
   -7.5140   -2.4860   -0.9060 C   0  0  0  0  0  0  0  0  0  0  0  0
   -6.3850   -2.3170   -0.0220 N   0  0  0  0  0  0  0  0  0  0  0  0
   -5.5430   -1.1290   -0.1820 C   0  0  0  0  0  0  0  0  0  0  0  0
   -5.8980   -0.3600   -1.0960 O   0  0  0  0  0  0  0  0  0  0  0  0
   -4.4250   -1.0080    0.7300 C   0  0  0  0  0  0  0  0  0  0  0  0
   -3.7090    0.2720    0.9080 C   0  0  1  0  0  0  0  0  0  0  0  0
   -4.4310    1.3990    1.4500 C   0  0  0  0  0  0  0  0  0  0  0  0
   -5.5990    2.0000    0.7600 C   0  0  0  0  0  0  0  0  0  0  0  0
   -5.3040    2.5910   -0.5720 C   0  0  0  0  0  0  0  0  0  0  0  0
   -6.3620    3.1270   -1.3300 N   0  0  0  0  0  0  0  0  0  0  0  0
   -4.1200    2.5910   -0.9710 O   0  0  0  0  0  0  0  0  0  0  0  0
   -2.5050   -0.0380    1.5250 O   0  0  0  0  0  0  0  0  0  0  0  0
   -1.3930    0.1000    0.7380 C   0  0  0  0  0  0  0  0  0  0  0  0
   -0.1870   -0.2750    1.5600 C   0  0  0  0  0  0  0  0  0  0  0  0
    1.1190   -0.1530    0.7690 C   0  0  1  0  0  0  0  0  0  0  0  0
    1.1580   -0.9490   -0.3420 O   0  0  0  0  0  0  0  0  0  0  0  0
    1.4110    1.2870    0.5720 C   0  0  0  0  0  0  0  0  0  0  0  0
    2.8530    1.7370   -0.3310 S   0  0  0  0  0  0  0  0  0  0  0  0
    4.4440    1.4000    0.3420 C   0  0  0  0  0  0  0  0  0  0  0  0
    4.8210   -0.0520    0.4170 C   0  0  0  0  0  0  0  0  0  0  0  0
    4.8160   -0.6660   -0.8300 O   0  0  0  0  0  0  0  0  0  0  0  0
    5.6810   -0.1180   -1.7430 C   0  0  0  0  0  0  0  0  0  0  0  0
    7.1290   -0.1620   -1.3070 C   0  0  0  0  0  0  0  0  0  0  0  0
    7.5530   -1.6160   -1.0910 C   0  0  0  0  0  0  0  0  0  0  0  0
    8.9260   -1.6240   -0.6790 N   0  0  0  0  0  0  0  0  0  0  0  0
  1  2  1  0
  2  3  1  0
  3  4  2  0
  3  5  1  0
  6  5  1  1
  6  7  1  0
  6 12  1  0
  7  8  1  0
  8  9  1  0
  9 10  1  0
  9 11  2  0
 12 13  1  0
 13 14  1  0
 14 15  1  0
 15 16  1  6
 15 17  1  0
 17 18  1  0
 18 19  1  0
 19 20  1  0
 20 21  1  0
 21 22  1  0
 22 23  1  0
 23 24  1  0
 24 25  1  0
M  CHG  1  25   1
M  END
