
     RDKit          3D

 11 11  0  0  0  0  0  0  0  0999 V2000
    2.3730   -0.0640   -1.2760 O   0  0  0  0  0  0  0  0  0  0  0  0
    2.4230   -0.2220    0.1010 C   0  0  0  0  0  0  0  0  0  0  0  0
    1.0260   -0.0550    0.6550 C   0  0  1  0  0  0  0  0  0  0  0  0
    0.4560    1.2190    0.3800 N   0  0  0  0  0  0  0  0  0  0  0  0
   -0.5330    1.2220   -0.6640 C   0  0  0  0  0  0  0  0  0  0  0  0
   -1.7160    0.3580   -0.3880 C   0  0  2  0  0  0  0  0  0  0  0  0
   -2.8520    1.0420   -0.0120 O   0  0  0  0  0  0  0  0  0  0  0  0
   -1.3000   -0.6830    0.6370 C   0  0  1  0  0  0  0  0  0  0  0  0
   -2.1780   -1.7240    0.7400 O   0  0  0  0  0  0  0  0  0  0  0  0
    0.0920   -1.1310    0.1720 C   0  0  2  0  0  0  0  0  0  0  0  0
    0.4140   -2.3850    0.6290 O   0  0  0  0  0  0  0  0  0  0  0  0
  1  2  1  0
  3  2  1  6
  3  4  1  0
  3 10  1  0
  4  5  1  0
  5  6  1  0
  6  7  1  1
  6  8  1  0
  8  9  1  6
  8 10  1  0
 10 11  1  1
M  CHG  1   4   1
M  END
