
     RDKit          3D

 11 11  0  0  0  0  0  0  0  0999 V2000
    3.0330   -0.8980   -0.6350 N   0  0  0  0  0  0  0  0  0  0  0  0
    2.8260    0.1940    0.2940 C   0  0  0  0  0  0  0  0  0  0  0  0
    1.4960    0.8930    0.0210 C   0  0  0  0  0  0  0  0  0  0  0  0
    0.4450   -0.0110    0.1600 O   0  0  0  0  0  0  0  0  0  0  0  0
   -0.7360    0.6980   -0.1040 C   0  0  2  0  0  0  0  0  0  0  0  0
   -1.7160    0.5340    1.0560 C   0  0  0  0  0  0  0  0  0  0  0  0
   -2.0520   -0.8240    0.9100 O   0  0  0  0  0  0  0  0  0  0  0  0
   -2.4020   -0.9480   -0.4180 C   0  0  2  0  0  0  0  0  0  0  0  0
   -2.2150   -2.2220   -0.9270 O   0  0  0  0  0  0  0  0  0  0  0  0
   -1.5370   -0.0020   -1.2110 C   0  0  1  0  0  0  0  0  0  0  0  0
   -2.3080    0.9720   -1.8140 O   0  0  0  0  0  0  0  0  0  0  0  0
  1  2  1  0
  2  3  1  0
  3  4  1  0
  5  4  1  1
  5  6  1  0
  5 10  1  0
  6  7  1  0
  7  8  1  0
  8  9  1  6
  8 10  1  0
 10 11  1  1
M  CHG  1   1   1
M  END
