
     RDKit          3D

 11 11  0  0  0  0  0  0  0  0999 V2000
    0.7560   -1.1770   -1.1850 N   0  0  0  0  0  0  0  0  0  0  0  0
    0.4330   -0.1920   -0.1840 C   0  0  2  0  0  0  0  0  0  0  0  0
    1.6910    0.5960    0.1270 C   0  0  1  0  0  0  0  0  0  0  0  0
    1.3740    1.5490    1.0970 O   0  0  0  0  0  0  0  0  0  0  0  0
    2.6880   -0.2650    0.5150 O   0  0  0  0  0  0  0  0  0  0  0  0
   -0.0440   -0.8480    1.0710 C   0  0  0  0  0  0  0  0  0  0  0  0
   -1.5490   -1.0650    1.0560 C   0  0  0  0  0  0  0  0  0  0  0  0
   -1.9530   -1.0670   -0.2910 O   0  0  0  0  0  0  0  0  0  0  0  0
   -1.9720    0.2730   -0.7000 C   0  0  0  0  0  0  0  0  0  0  0  0
   -0.5640    0.7800   -0.7720 C   0  0  1  0  0  0  0  0  0  0  0  0
   -0.3850    2.0020   -0.1280 O   0  0  0  0  0  0  0  0  0  0  0  0
  2  1  1  6
  2  3  1  0
  2  6  1  0
  2 10  1  0
  3  4  1  1
  3  5  1  0
  6  7  1  0
  7  8  1  0
  8  9  1  0
  9 10  1  0
 10 11  1  1
M  CHG  1   1   1
M  END
