
     RDKit          3D

 11 11  0  0  0  0  0  0  0  0999 V2000
   -2.1730    1.4180    0.0670 N   0  0  0  0  0  0  0  0  0  0  0  0
   -1.0710    0.5360    0.3570 C   0  0  1  0  0  0  0  0  0  0  0  0
   -1.6090   -0.6060    1.1890 C   0  0  0  0  0  0  0  0  0  0  0  0
   -0.9700   -1.7980    0.8280 O   0  0  0  0  0  0  0  0  0  0  0  0
    0.4180   -1.5900    0.7720 C   0  0  0  0  0  0  0  0  0  0  0  0
    0.7180   -0.8920   -0.5210 C   0  0  2  0  0  0  0  0  0  0  0  0
    1.9780   -0.0760   -0.4930 C   0  0  0  0  0  0  0  0  0  0  0  0
    1.9810    0.9120    0.4690 O   0  0  0  0  0  0  0  0  0  0  0  0
    3.2290    1.2180    0.7300 O   0  0  0  0  0  0  0  0  0  0  0  0
   -0.4740   -0.0550   -0.8920 C   0  0  2  0  0  0  0  0  0  0  0  0
   -0.1670    0.8760   -1.8620 O   0  0  0  0  0  0  0  0  0  0  0  0
  2  1  1  6
  2  3  1  0
  2 10  1  0
  3  4  1  0
  4  5  1  0
  5  6  1  0
  6  7  1  1
  6 10  1  0
  7  8  1  0
  8  9  1  0
 10 11  1  6
M  CHG  1   1   1
M  END
