
     RDKit          3D

 11 11  0  0  0  0  0  0  0  0999 V2000
   -0.7620   -1.5960   -1.2710 C   0  0  0  0  0  0  0  0  0  0  0  0
   -0.1550   -0.2400   -1.3670 C   0  0  1  0  0  0  0  0  0  0  0  0
   -1.0780    0.5620   -2.0890 O   0  0  0  0  0  0  0  0  0  0  0  0
   -2.0750    0.5900   -1.2090 O   0  0  0  0  0  0  0  0  0  0  0  0
   -1.4450    1.2500   -0.1270 C   0  0  1  0  0  0  0  0  0  0  0  0
   -2.1820    1.1420    1.0310 O   0  0  0  0  0  0  0  0  0  0  0  0
   -0.1300    0.5290   -0.0750 C   0  0  2  0  0  0  0  0  0  0  0  0
    0.9260    1.5390   -0.1820 N   0  0  0  0  0  0  0  0  0  0  0  0
    0.1160   -0.2680    1.1370 C   0  0  0  0  0  0  0  0  0  0  0  0
    1.4550   -0.9490    1.0250 C   0  0  0  0  0  0  0  0  0  0  0  0
    1.7400   -1.7250    2.1580 O   0  0  0  0  0  0  0  0  0  0  0  0
  2  1  1  1
  2  3  1  0
  2  7  1  0
  3  4  1  0
  4  5  1  0
  5  6  1  1
  5  7  1  0
  7  8  1  6
  7  9  1  0
  9 10  1  0
 10 11  1  0
M  CHG  1   8   1
M  END
