
     RDKit          3D

 11 11  0  0  0  0  0  0  0  0999 V2000
   -1.1660   -1.6990    0.0180 N   0  0  0  0  0  0  0  0  0  0  0  0
   -0.8900   -0.3190   -0.3920 C   0  0  1  0  0  0  0  0  0  0  0  0
   -1.7860    0.5830    0.3790 C   0  0  0  0  0  0  0  0  0  0  0  0
   -1.5420    1.9120    0.0280 O   0  0  0  0  0  0  0  0  0  0  0  0
    0.5530   -0.0680   -0.2070 C   0  0  1  0  0  0  0  0  0  0  0  0
    1.0920   -0.2190    1.1690 C   0  0  0  0  0  0  0  0  0  0  0  0
    0.4940    0.6460    2.0500 O   0  0  0  0  0  0  0  0  0  0  0  0
    1.3670   -0.8930   -1.2210 C   0  0  0  0  0  0  0  0  0  0  0  0
    2.5220   -0.1640   -1.2580 O   0  0  0  0  0  0  0  0  0  0  0  0
    2.3010    1.0710   -1.0340 O   0  0  0  0  0  0  0  0  0  0  0  0
    0.9940    1.3020   -0.7210 C   0  0  0  0  0  0  0  0  0  0  0  0
  2  1  1  1
  2  3  1  0
  2  5  1  0
  3  4  1  0
  5  6  1  1
  5  8  1  0
  5 11  1  0
  6  7  1  0
  8  9  1  0
  9 10  1  0
 10 11  1  0
M  CHG  1   1   1
M  END
