
     RDKit          3D

 23 23  0  0  0  0  0  0  0  0999 V2000
    1.4570   -0.0520    2.0690 C   0  0  0  0  0  0  0  0  0  0  0  0
    1.6590    0.1200    0.5530 C   0  0  2  0  0  0  0  0  0  0  0  0
    2.9430    0.9010    0.3950 C   0  0  1  0  0  0  0  0  0  0  0  0
    4.0220    0.1010    0.9340 N   0  0  0  0  0  0  0  0  0  0  0  0
    3.1900    1.3960   -0.9840 C   0  0  0  0  0  0  0  0  0  0  0  0
    4.4720    2.1850   -1.1230 C   0  0  0  0  0  0  0  0  0  0  0  0
    5.6110    1.4890   -0.8000 O   0  0  0  0  0  0  0  0  0  0  0  0
    0.5670    0.8170    0.0180 O   0  0  0  0  0  0  0  0  0  0  0  0
   -0.4420   -0.1270    0.1070 C   0  0  1  0  0  0  0  0  0  0  0  0
   -1.6030    0.1600   -0.5170 O   0  0  0  0  0  0  0  0  0  0  0  0
   -2.7460    0.0930    0.2620 C   0  0  2  0  0  0  0  0  0  0  0  0
   -3.7130   -0.8680   -0.3910 C   0  0  0  0  0  0  0  0  0  0  0  0
   -3.1960   -2.2520   -0.5400 C   0  0  0  0  0  0  0  0  0  0  0  0
   -2.9000   -2.7490    0.7340 O   0  0  0  0  0  0  0  0  0  0  0  0
   -3.4070    1.4570    0.2040 C   0  0  1  0  0  0  0  0  0  0  0  0
   -3.7330    1.7590   -1.1200 O   0  0  0  0  0  0  0  0  0  0  0  0
   -4.7100    1.4810    0.9770 C   0  0  0  0  0  0  0  0  0  0  0  0
   -4.5180    1.1920    2.3220 O   0  0  0  0  0  0  0  0  0  0  0  0
    0.1970   -1.3500   -0.5670 C   0  0  1  0  0  0  0  0  0  0  0  0
    0.1150   -1.0950   -2.0560 C   0  0  0  0  0  0  0  0  0  0  0  0
    0.6550   -2.1200   -2.8100 O   0  0  0  0  0  0  0  0  0  0  0  0
    1.6480   -1.1660   -0.1800 C   0  0  2  0  0  0  0  0  0  0  0  0
    2.0600   -2.2570    0.5760 O   0  0  0  0  0  0  0  0  0  0  0  0
  2  1  1  1
  2  3  1  0
  2  8  1  0
  2 22  1  0
  3  4  1  6
  3  5  1  0
  5  6  1  0
  6  7  1  0
  8  9  1  0
  9 10  1  6
  9 19  1  0
 10 11  1  0
 11 12  1  6
 11 15  1  0
 12 13  1  0
 13 14  1  0
 15 16  1  6
 15 17  1  0
 17 18  1  0
 19 20  1  6
 19 22  1  0
 20 21  1  0
 22 23  1  1
M  CHG  1   4   1
M  END
