
     RDKit          3D

 22 22  0  0  0  0  0  0  0  0999 V2000
    2.9500   -0.2000    2.9370 C   0  0  0  0  0  0  0  0  0  0  0  0
    2.7600    0.1890    1.6170 O   0  0  0  0  0  0  0  0  0  0  0  0
    3.2980   -0.7200    0.7250 C   0  0  0  0  0  0  0  0  0  0  0  0
    3.1130   -0.3370   -0.6940 C   0  0  0  0  0  0  0  0  0  0  0  0
    1.6680   -0.1940   -1.1470 C   0  0  2  0  0  0  0  0  0  0  0  0
    1.7850    0.2040   -2.6340 C   0  0  0  0  0  0  0  0  0  0  0  0
    0.5600    0.3530   -3.2420 O   0  0  0  0  0  0  0  0  0  0  0  0
    0.9880    0.8790   -0.3770 C   0  0  0  0  0  0  0  0  0  0  0  0
   -0.2930    1.4030   -1.0080 C   0  0  2  0  0  0  0  0  0  0  0  0
   -0.0200    2.4900   -1.8620 O   0  0  0  0  0  0  0  0  0  0  0  0
   -1.1970    2.0000    0.0850 C   0  0  1  0  0  0  0  0  0  0  0  0
   -1.1660    3.3870    0.0830 O   0  0  0  0  0  0  0  0  0  0  0  0
   -2.6200    1.5650   -0.0590 C   0  0  2  0  0  0  0  0  0  0  0  0
   -3.4390    2.5860   -0.5470 O   0  0  0  0  0  0  0  0  0  0  0  0
   -3.1470    1.1270    1.2710 C   0  0  0  0  0  0  0  0  0  0  0  0
   -3.6980   -0.2790    1.2020 C   0  0  0  0  0  0  0  0  0  0  0  0
   -3.0030   -1.0780    0.3230 O   0  0  0  0  0  0  0  0  0  0  0  0
   -1.8160   -1.5340    0.9160 C   0  0  0  0  0  0  0  0  0  0  0  0
   -0.9750   -2.3110   -0.0730 C   0  0  2  0  0  0  0  0  0  0  0  0
   -1.1910   -3.6740    0.0090 O   0  0  0  0  0  0  0  0  0  0  0  0
    0.5160   -1.9670    0.0710 C   0  0  0  0  0  0  0  0  0  0  0  0
    0.9550   -1.4230   -1.1530 N   0  0  0  0  0  0  0  0  0  0  0  0
  1  2  1  0
  2  3  1  0
  3  4  1  0
  5  4  1  1
  5  6  1  0
  5  8  1  0
  5 22  1  0
  6  7  1  0
  8  9  1  0
  9 10  1  6
  9 11  1  0
 11 12  1  6
 11 13  1  0
 13 14  1  1
 13 15  1  0
 15 16  1  0
 16 17  1  0
 17 18  1  0
 18 19  1  0
 19 20  1  1
 19 21  1  0
 21 22  1  0
M  CHG  1  22   1
M  END
