
     RDKit          3D

 22 23  0  0  0  0  0  0  0  0999 V2000
   -2.0500    1.4330   -1.4990 N   0  0  0  0  0  0  0  0  0  0  0  0
   -1.7250    1.6010   -0.1180 C   0  0  2  0  0  0  0  0  0  0  0  0
   -0.9090    2.8710   -0.1480 C   0  0  0  0  0  0  0  0  0  0  0  0
    0.2210    2.4610   -0.8240 O   0  0  0  0  0  0  0  0  0  0  0  0
    0.2660    1.0030   -0.8170 C   0  0  1  0  0  0  0  0  0  0  0  0
    1.7450    0.7450   -0.8380 C   0  0  0  0  0  0  0  0  0  0  0  0
    2.1470   -0.6990   -0.9260 C   0  0  0  0  0  0  0  0  0  0  0  0
    3.4960   -0.9420   -0.9410 O   0  0  0  0  0  0  0  0  0  0  0  0
    4.1350   -0.4940    0.1950 C   0  0  0  0  0  0  0  0  0  0  0  0
    5.6230   -0.8210    0.1520 C   0  0  0  0  0  0  0  0  0  0  0  0
    6.2670   -0.3700    1.2970 O   0  0  0  0  0  0  0  0  0  0  0  0
   -0.5320    0.7500    0.3610 C   0  0  2  0  0  0  0  0  0  0  0  0
   -0.9350   -0.4480    1.0260 C   0  0  2  0  0  0  0  0  0  0  0  0
   -0.1030   -1.1230    2.0400 C   0  0  0  0  0  0  0  0  0  0  0  0
   -0.8580   -2.2640    2.4570 O   0  0  0  0  0  0  0  0  0  0  0  0
   -1.8580   -1.3990    0.2840 C   0  0  2  0  0  0  0  0  0  0  0  0
   -1.2250   -2.2050   -0.7850 C   0  0  0  0  0  0  0  0  0  0  0  0
   -2.1260   -3.1870   -1.2720 O   0  0  0  0  0  0  0  0  0  0  0  0
   -3.0030   -0.7360   -0.1390 O   0  0  0  0  0  0  0  0  0  0  0  0
   -3.5060    0.1910    0.7450 C   0  0  0  0  0  0  0  0  0  0  0  0
   -2.8360    1.5170    0.8080 C   0  0  2  0  0  0  0  0  0  0  0  0
   -3.7460    2.5660    0.4970 O   0  0  0  0  0  0  0  0  0  0  0  0
  2  1  1  6
  2  3  1  0
  2 12  1  0
  2 21  1  0
  3  4  1  0
  4  5  1  0
  5  6  1  1
 12  5  1  6
  6  7  1  0
  7  8  1  0
  8  9  1  0
  9 10  1  0
 10 11  1  0
 12 13  1  0
 13 14  1  6
 13 16  1  0
 14 15  1  0
 16 17  1  6
 16 19  1  0
 17 18  1  0
 19 20  1  0
 20 21  1  0
 21 22  1  6
M  CHG  1   1   1
M  END
