
     RDKit          3D

 13 13  0  0  0  0  0  0  0  0999 V2000
    3.3420    0.8980    0.5340 O   0  0  0  0  0  0  0  0  0  0  0  0
    2.5300    0.6240   -0.5710 C   0  0  0  0  0  0  0  0  0  0  0  0
    1.2800   -0.0510   -0.0250 C   0  0  1  0  0  0  0  0  0  0  0  0
    0.6620    0.8880    0.8900 N   0  0  0  0  0  0  0  0  0  0  0  0
   -0.7690    0.8840    0.9630 C   0  0  0  0  0  0  0  0  0  0  0  0
   -1.4420    1.9520    1.2380 N   0  0  0  0  0  0  0  0  0  0  0  0
   -2.8090    1.8470    1.2850 O   0  0  0  0  0  0  0  0  0  0  0  0
   -1.4470   -0.4130    0.7070 C   0  0  2  0  0  0  0  0  0  0  0  0
   -1.1440   -1.2310    1.8200 O   0  0  0  0  0  0  0  0  0  0  0  0
   -0.9040   -1.0190   -0.5620 C   0  0  1  0  0  0  0  0  0  0  0  0
   -1.9430   -1.0900   -1.5010 O   0  0  0  0  0  0  0  0  0  0  0  0
    0.2440   -0.2310   -1.1450 C   0  0  2  0  0  0  0  0  0  0  0  0
    0.7680   -0.8990   -2.2200 O   0  0  0  0  0  0  0  0  0  0  0  0
  1  2  1  0
  3  2  1  6
  3  4  1  0
  3 12  1  0
  4  5  1  0
  5  6  2  3
  5  8  1  0
  6  7  1  0
  8  9  1  1
  8 10  1  0
 10 11  1  6
 10 12  1  0
 12 13  1  6
M  END
