
     RDKit          3D

 22 22  0  0  0  0  0  0  0  0999 V2000
   -3.6110    1.2980    0.7290 N   0  0  0  0  0  0  0  0  0  0  0  0
   -2.5460    0.6580   -0.0740 C   0  0  1  0  0  0  0  0  0  0  0  0
   -1.5120    1.6340   -0.3890 C   0  0  2  0  0  0  0  0  0  0  0  0
   -1.2410    1.6530   -1.7840 O   0  0  0  0  0  0  0  0  0  0  0  0
   -0.2040    1.6440    0.3050 C   0  0  2  0  0  0  0  0  0  0  0  0
    0.0300    2.9520    1.0900 C   0  0  0  0  0  0  0  0  0  0  0  0
    0.0190    4.0390    0.2010 O   0  0  0  0  0  0  0  0  0  0  0  0
    0.8900    1.6290   -0.5980 O   0  0  0  0  0  0  0  0  0  0  0  0
    1.9440    0.8390   -0.1380 C   0  0  0  0  0  0  0  0  0  0  0  0
    2.6760    0.0910   -1.1820 C   0  0  1  0  0  0  0  0  0  0  0  0
    4.1500   -0.0490   -0.7760 C   0  0  0  0  0  0  0  0  0  0  0  0
    4.3260   -0.7770    0.5120 C   0  0  0  0  0  0  0  0  0  0  0  0
    3.7120   -0.1820    1.6010 O   0  0  0  0  0  0  0  0  0  0  0  0
    2.1140   -1.1620   -1.7140 C   0  0  0  0  0  0  0  0  0  0  0  0
    1.7010   -2.2310   -0.7790 C   0  0  0  0  0  0  0  0  0  0  0  0
    0.3670   -2.6910   -0.9970 O   0  0  0  0  0  0  0  0  0  0  0  0
   -0.3760   -1.6260   -0.5350 C   0  0  0  0  0  0  0  0  0  0  0  0
   -1.8300   -1.7540   -0.3830 C   0  0  1  0  0  0  0  0  0  0  0  0
   -2.2810   -2.9740    0.0510 O   0  0  0  0  0  0  0  0  0  0  0  0
   -2.2330   -0.6150    0.5780 C   0  0  2  0  0  0  0  0  0  0  0  0
   -3.4640   -1.1830    1.3030 C   0  0  0  0  0  0  0  0  0  0  0  0
   -4.5130   -1.4160    0.4450 O   0  0  0  0  0  0  0  0  0  0  0  0
  2  1  1  1
  2  3  1  0
  2 20  1  0
  3  4  1  6
  3  5  1  0
  5  6  1  6
  5  8  1  0
  6  7  1  0
  8  9  1  0
  9 10  1  0
 10 11  1  1
 10 14  1  0
 11 12  1  0
 12 13  1  0
 14 15  1  0
 15 16  1  0
 16 17  1  0
 17 18  1  0
 18 19  1  1
 18 20  1  0
 20 21  1  6
 21 22  1  0
M  CHG  1   1   1
M  END
