
     RDKit          3D

 23 24  0  0  0  0  0  0  0  0999 V2000
    3.1730   -2.4720    0.4210 N   0  0  0  0  0  0  0  0  0  0  0  0
    2.0830   -1.8590   -0.3080 C   0  0  1  0  0  0  0  0  0  0  0  0
    0.7730   -2.5600   -0.0690 C   0  0  0  0  0  0  0  0  0  0  0  0
   -0.2790   -1.7660   -0.7980 C   0  0  1  0  0  0  0  0  0  0  0  0
    0.0490   -1.6140   -2.1190 O   0  0  0  0  0  0  0  0  0  0  0  0
   -1.5240   -2.5950   -0.7360 C   0  0  0  0  0  0  0  0  0  0  0  0
   -1.9970   -2.8520    0.5330 O   0  0  0  0  0  0  0  0  0  0  0  0
   -0.4760   -0.3720   -0.1090 C   0  0  2  0  0  0  0  0  0  0  0  0
   -1.7890    0.0700   -0.5590 C   0  0  0  0  0  0  0  0  0  0  0  0
   -2.5100    1.2540   -0.1360 C   0  0  2  0  0  0  0  0  0  0  0  0
   -3.7170    1.2300   -0.9370 O   0  0  0  0  0  0  0  0  0  0  0  0
   -2.0890    2.4970   -0.1220 O   0  0  0  0  0  0  0  0  0  0  0  0
   -3.1780    1.0400    1.2690 C   0  0  0  0  0  0  0  0  0  0  0  0
   -2.2030    1.0010    2.2450 O   0  0  0  0  0  0  0  0  0  0  0  0
    0.7740    0.3010   -0.5610 C   0  0  2  0  0  0  0  0  0  0  0  0
    1.0500    0.1410   -1.9240 O   0  0  0  0  0  0  0  0  0  0  0  0
    1.9010   -0.4930    0.1900 C   0  0  1  0  0  0  0  0  0  0  0  0
    1.5210   -0.3820    1.5190 O   0  0  0  0  0  0  0  0  0  0  0  0
    1.6560    0.8710    2.0530 C   0  0  0  0  0  0  0  0  0  0  0  0
    1.0740    2.0090    1.2710 C   0  0  0  0  0  0  0  0  0  0  0  0
    1.1480    1.6680   -0.2030 C   0  0  2  0  0  0  0  0  0  0  0  0
    0.9480    2.7850   -1.1550 C   0  0  0  0  0  0  0  0  0  0  0  0
    1.3920    3.9610   -0.5120 O   0  0  0  0  0  0  0  0  0  0  0  0
  2  1  1  1
  2  3  1  0
  2 17  1  0
  3  4  1  0
  4  5  1  6
  4  6  1  0
  4  8  1  0
  6  7  1  0
  8  9  1  6
  8 15  1  0
  9 10  1  0
 10 11  1  6
 10 12  1  0
 10 13  1  0
 13 14  1  0
 15 16  1  6
 15 17  1  0
 15 21  1  0
 17 18  1  1
 18 19  1  0
 19 20  1  0
 20 21  1  0
 21 22  1  6
 22 23  1  0
M  CHG  1   1   1
M  END
