
     RDKit          3D

 22 23  0  0  0  0  0  0  0  0999 V2000
   -0.9610   -2.4660    1.0950 N   0  0  0  0  0  0  0  0  0  0  0  0
    0.1000   -1.8560    0.3410 C   0  0  2  0  0  0  0  0  0  0  0  0
    1.3520   -1.6620    1.1570 C   0  0  1  0  0  0  0  0  0  0  0  0
    1.7290   -2.8290    1.8060 O   0  0  0  0  0  0  0  0  0  0  0  0
    2.4750   -1.1930    0.2810 C   0  0  0  0  0  0  0  0  0  0  0  0
    2.1540   -0.1400   -0.6880 C   0  0  2  0  0  0  0  0  0  0  0  0
    3.0410   -0.3880   -1.9220 C   0  0  0  0  0  0  0  0  0  0  0  0
    2.8120   -1.6770   -2.4170 O   0  0  0  0  0  0  0  0  0  0  0  0
    2.4050    1.1390   -0.2580 O   0  0  0  0  0  0  0  0  0  0  0  0
    3.7060    1.4490    0.0510 C   0  0  0  0  0  0  0  0  0  0  0  0
    3.8170    2.9100    0.5210 C   0  0  0  0  0  0  0  0  0  0  0  0
    5.1190    3.2310    0.8330 O   0  0  0  0  0  0  0  0  0  0  0  0
    0.7460   -0.1480   -1.2210 C   0  0  0  0  0  0  0  0  0  0  0  0
   -0.2760   -0.4740   -0.1590 C   0  0  1  0  0  0  0  0  0  0  0  0
   -1.5320   -0.5240   -0.6680 O   0  0  0  0  0  0  0  0  0  0  0  0
   -2.4520    0.3170   -0.0980 C   0  0  1  0  0  0  0  0  0  0  0  0
   -2.9280    1.2710   -1.1800 C   0  0  0  0  0  0  0  0  0  0  0  0
   -3.8710    2.1650   -0.7370 O   0  0  0  0  0  0  0  0  0  0  0  0
   -5.0260    1.5520   -0.2660 C   0  0  0  0  0  0  0  0  0  0  0  0
   -4.6080    0.7290    0.9540 C   0  0  1  0  0  0  0  0  0  0  0  0
   -5.6900    0.2150    1.6320 O   0  0  0  0  0  0  0  0  0  0  0  0
   -3.6690   -0.3750    0.4470 C   0  0  0  0  0  0  0  0  0  0  0  0
  2  1  1  1
  2  3  1  0
  2 14  1  0
  3  4  1  6
  3  5  1  0
  5  6  1  0
  6  7  1  6
  6  9  1  0
  6 13  1  0
  7  8  1  0
  9 10  1  0
 10 11  1  0
 11 12  1  0
 13 14  1  0
 14 15  1  6
 16 15  1  6
 16 17  1  0
 16 22  1  0
 17 18  1  0
 18 19  1  0
 19 20  1  0
 20 21  1  6
 20 22  1  0
M  CHG  1   1   1
M  END
