
     RDKit          3D

 23 24  0  0  0  0  0  0  0  0999 V2000
   -2.0440    3.7720    0.2780 N   0  0  0  0  0  0  0  0  0  0  0  0
   -2.3150    2.3370    0.4550 C   0  0  0  0  0  0  0  0  0  0  0  0
   -1.1150    1.6210   -0.1140 C   0  0  2  0  0  0  0  0  0  0  0  0
   -0.9360    1.9170   -1.4640 O   0  0  0  0  0  0  0  0  0  0  0  0
   -1.1350    0.1280    0.1350 C   0  0  2  0  0  0  0  0  0  0  0  0
   -2.3580   -0.4490   -0.4980 C   0  0  0  0  0  0  0  0  0  0  0  0
   -2.5260   -1.9230   -0.3390 C   0  0  0  0  0  0  0  0  0  0  0  0
   -3.8250   -2.3470   -1.0390 C   0  0  0  0  0  0  0  0  0  0  0  0
   -4.0310   -3.7130   -0.9220 O   0  0  0  0  0  0  0  0  0  0  0  0
   -1.0300   -0.1110    1.6130 C   0  0  0  0  0  0  0  0  0  0  0  0
    0.3040   -0.8240    1.8620 C   0  0  0  0  0  0  0  0  0  0  0  0
    1.3000    0.0410    1.4160 O   0  0  0  0  0  0  0  0  0  0  0  0
    1.3630   -0.0070    0.0460 C   0  0  1  0  0  0  0  0  0  0  0  0
    2.4850   -0.9450   -0.3380 C   0  0  0  0  0  0  0  0  0  0  0  0
    3.8010   -0.4480    0.2160 C   0  0  2  0  0  0  0  0  0  0  0  0
    3.8160   -0.3480    1.5880 O   0  0  0  0  0  0  0  0  0  0  0  0
    4.1850    0.8890   -0.3760 C   0  0  0  0  0  0  0  0  0  0  0  0
    5.5440    0.8110   -0.6470 O   0  0  0  0  0  0  0  0  0  0  0  0
    5.8510   -0.4750   -0.7990 O   0  0  0  0  0  0  0  0  0  0  0  0
    4.9310   -1.3040   -0.2250 C   0  0  0  0  0  0  0  0  0  0  0  0
    4.9820   -2.5330   -0.0770 O   0  0  0  0  0  0  0  0  0  0  0  0
    0.0750   -0.4600   -0.6060 C   0  0  2  0  0  0  0  0  0  0  0  0
   -0.0030   -0.0010   -1.9210 O   0  0  0  0  0  0  0  0  0  0  0  0
  1  2  1  0
  2  3  1  0
  3  4  1  6
  3  5  1  0
  5  6  1  6
  5 10  1  0
  5 22  1  0
  6  7  1  0
  7  8  1  0
  8  9  1  0
 10 11  1  0
 11 12  1  0
 12 13  1  0
 13 14  1  1
 13 22  1  0
 14 15  1  0
 15 16  1  1
 15 17  1  0
 15 20  1  0
 17 18  1  0
 18 19  1  0
 19 20  1  0
 20 21  2  0
 22 23  1  6
M  CHG  1   1   1
M  END
