
     RDKit          3D

 28 31  0  0  0  0  0  0  0  0999 V2000
   -6.5070   -2.5490   -1.1070 C   0  0  0  0  0  0  0  0  0  0  0  0
   -5.7120   -1.4220   -0.5030 C   0  0  0  0  0  0  0  0  0  0  0  0
   -4.4250   -1.1420   -0.7730 N   0  0  0  0  0  0  0  0  0  0  0  0
   -3.9970   -0.0780   -0.0780 C   0  0  0  0  0  0  0  0  0  0  0  0
   -2.6500    0.5370   -0.1000 C   0  0  0  0  0  0  0  0  0  0  0  0
   -2.3970    1.5240    0.6010 O   0  0  0  0  0  0  0  0  0  0  0  0
   -1.6700   -0.0210   -0.9300 N   0  0  0  0  0  0  0  0  0  0  0  0
   -0.3300    0.4160   -1.0910 C   0  0  0  0  0  0  0  0  0  0  0  0
    0.2780    1.4060   -0.3670 C   0  0  0  0  0  0  0  0  0  0  0  0
    1.6070    1.7650   -0.6150 C   0  0  0  0  0  0  0  0  0  0  0  0
    2.3730    1.1600   -1.5820 C   0  0  0  0  0  0  0  0  0  0  0  0
    3.7070    1.5850   -1.7650 N   0  0  0  0  0  0  0  0  0  0  0  0
    4.6620    0.8220   -1.0290 C   0  0  2  0  0  0  0  0  0  0  0  0
    4.8630   -0.5720   -1.6190 C   0  0  0  0  0  0  0  0  0  0  0  0
    6.0880   -1.0860   -0.9530 C   0  0  0  0  0  0  0  0  0  0  0  0
    6.8240   -1.9700   -1.4590 O   0  0  0  0  0  0  0  0  0  0  0  0
    6.4100   -0.5270    0.3140 N   0  0  0  0  0  0  0  0  0  0  0  0
    8.1040   -0.4340    0.8630 S   0  0  0  0  0  0  0  0  0  0  0  0
    5.3740   -0.0570    1.1170 N   0  0  2  0  0  0  0  0  0  0  0  0
    4.8030   -1.2470    1.7670 C   0  0  0  0  0  0  0  0  0  0  0  0
    4.3580    0.6830    0.4210 C   0  0  0  0  0  0  0  0  0  0  0  0
    1.7520    0.1640   -2.3050 C   0  0  0  0  0  0  0  0  0  0  0  0
    0.4460   -0.2060   -2.0790 C   0  0  0  0  0  0  0  0  0  0  0  0
   -5.0740    0.3460    0.6810 C   0  0  0  0  0  0  0  0  0  0  0  0
   -6.1360   -0.4950    0.4110 C   0  0  0  0  0  0  0  0  0  0  0  0
   -7.3230   -0.0630    1.2180 C   0  0  0  0  0  0  0  0  0  0  0  0
   -6.7720    0.8710    2.2460 C   0  0  0  0  0  0  0  0  0  0  0  0
   -5.4850    1.3810    1.6760 C   0  0  0  0  0  0  0  0  0  0  0  0
  1  2  1  0
  2  3  1  0
  2 25  2  0
  3  4  1  0
  4  5  1  0
  4 24  2  0
  5  6  2  0
  5  7  1  0
  7  8  1  0
  8  9  2  0
  8 23  1  0
  9 10  1  0
 10 11  2  0
 11 12  1  0
 11 22  1  0
 13 12  1  6
 13 14  1  0
 13 21  1  0
 14 15  1  0
 15 16  2  0
 15 17  1  0
 17 18  1  0
 17 19  1  0
 19 20  1  6
 19 21  1  0
 22 23  2  0
 24 25  1  0
 24 28  1  0
 25 26  1  0
 26 27  1  0
 27 28  1  0
M  CHG  2  12   1  19   1
M  END
