
     RDKit          3D

 27 30  0  0  0  0  0  0  0  0999 V2000
    6.0470   -0.1850   -3.0710 C   0  0  0  0  0  0  0  0  0  0  0  0
    4.7570    0.3350   -2.6800 N   0  0  0  0  0  0  0  0  0  0  0  0
    4.2510    0.1430   -1.3680 C   0  0  0  0  0  0  0  0  0  0  0  0
    4.9860    0.1090   -0.2980 C   0  0  0  0  0  0  0  0  0  0  0  0
    4.4950   -0.1060    1.0580 C   0  0  0  0  0  0  0  0  0  0  0  0
    5.4320   -0.0190    1.9720 N   0  0  0  0  0  0  0  0  0  0  0  0
    5.1630   -0.1640    3.3490 C   0  0  0  0  0  0  0  0  0  0  0  0
    6.0630   -0.0940    4.2340 O   0  0  0  0  0  0  0  0  0  0  0  0
    3.7860   -0.4020    3.7300 C   0  0  0  0  0  0  0  0  0  0  0  0
    3.4640   -0.5370    4.9440 O   0  0  0  0  0  0  0  0  0  0  0  0
    2.7760   -0.4800    2.6420 C   0  0  0  0  0  0  0  0  0  0  0  0
    3.1070   -0.3470    1.3890 C   0  0  0  0  0  0  0  0  0  0  0  0
    2.0860   -0.6000    0.3580 C   0  0  2  0  0  0  0  0  0  0  0  0
    2.4470    0.1790   -1.1660 S   0  0  0  0  0  0  0  0  0  0  0  0
    0.7220   -0.7400    0.8220 C   0  0  0  0  0  0  0  0  0  0  0  0
   -0.4000   -0.8230   -0.1380 C   0  0  0  0  0  0  0  0  0  0  0  0
   -0.5030    0.3440   -0.9780 N   0  0  0  0  0  0  0  0  0  0  0  0
   -1.8300    0.7710   -1.2450 C   0  0  0  0  0  0  0  0  0  0  0  0
   -2.7930    0.5730   -0.1080 C   0  0  1  0  0  0  0  0  0  0  0  0
   -4.2140    0.9670   -0.2310 C   0  0  2  0  0  0  0  0  0  0  0  0
   -4.8170    1.3800   -1.5370 C   0  0  0  0  0  0  0  0  0  0  0  0
   -4.9210    1.6040    0.9720 C   0  0  0  0  0  0  0  0  0  0  0  0
   -3.8260   -0.4830   -0.1360 C   0  0  1  0  0  0  0  0  0  0  0  0
   -3.8970   -1.3470   -1.3840 C   0  0  0  0  0  0  0  0  0  0  0  0
   -4.2520   -1.2050    1.1160 C   0  0  0  0  0  0  0  0  0  0  0  0
    0.4330   -0.7980    2.1020 N   0  0  0  0  0  0  0  0  0  0  0  0
    1.4290   -0.6970    3.0660 N   0  0  0  0  0  0  0  0  0  0  0  0
  1  2  1  0
  2  3  1  0
  3  4  2  0
  3 14  1  0
  4  5  1  0
  5  6  2  0
  5 12  1  0
  6  7  1  0
  7  8  2  0
  7  9  1  0
  9 10  2  0
  9 11  1  0
 11 12  2  0
 11 27  1  0
 12 13  1  0
 13 14  1  6
 13 15  1  0
 15 16  1  0
 15 26  2  0
 16 17  1  0
 17 18  1  0
 19 18  1  6
 19 20  1  0
 19 23  1  0
 20 21  1  6
 20 22  1  0
 20 23  1  0
 23 24  1  6
 23 25  1  0
 26 27  1  0
M  CHG  1  17   1
M  END
