
     RDKit          3D

 13 13  0  0  0  0  0  0  0  0999 V2000
    2.2680   -0.0970   -1.1490 O   0  0  0  0  0  0  0  0  0  0  0  0
    2.2300   -0.4920    0.1660 C   0  0  0  0  0  0  0  0  0  0  0  0
    0.8280   -0.3590    0.7710 C   0  0  1  0  0  0  0  0  0  0  0  0
    0.4400    1.0160    0.6900 N   0  0  0  0  0  0  0  0  0  0  0  0
   -0.6660    1.4540   -0.0550 C   0  0  0  0  0  0  0  0  0  0  0  0
   -0.6910    2.6720   -0.5210 N   0  0  0  0  0  0  0  0  0  0  0  0
    0.3190    3.5520   -0.3170 O   0  0  0  0  0  0  0  0  0  0  0  0
   -1.7730    0.5050   -0.2850 C   0  0  2  0  0  0  0  0  0  0  0  0
   -2.4700    0.3160    0.8900 O   0  0  0  0  0  0  0  0  0  0  0  0
   -1.1630   -0.8130   -0.7020 C   0  0  1  0  0  0  0  0  0  0  0  0
   -0.6860   -0.6900   -2.0270 O   0  0  0  0  0  0  0  0  0  0  0  0
   -0.1360   -1.3280    0.2260 C   0  0  1  0  0  0  0  0  0  0  0  0
    0.5930   -2.3310   -0.4560 O   0  0  0  0  0  0  0  0  0  0  0  0
  1  2  1  0
  3  2  1  6
  3  4  1  0
  3 12  1  0
  4  5  1  0
  5  6  2  3
  5  8  1  0
  6  7  1  0
  8  9  1  1
  8 10  1  0
 10 11  1  6
 10 12  1  0
 12 13  1  6
M  END
