
     RDKit          3D

 28 31  0  0  0  0  0  0  0  0999 V2000
   -1.2940    2.2540    2.6600 C   0  0  0  0  0  0  0  0  0  0  0  0
   -2.7160    2.4470    1.6050 S   0  0  0  0  0  0  0  0  0  0  0  0
   -2.3890    2.5660   -0.1440 C   0  0  0  0  0  0  0  0  0  0  0  0
   -1.8280    1.3100   -0.7720 C   0  0  2  0  0  0  0  0  0  0  0  0
   -2.7800    0.2510   -0.5410 N   0  0  0  0  0  0  0  0  0  0  0  0
   -3.0910   -0.5190   -1.6930 C   0  0  1  0  0  0  0  0  0  0  0  0
   -3.3250   -1.9570   -1.2820 C   0  0  0  0  0  0  0  0  0  0  0  0
   -4.6860   -1.8200   -0.6500 C   0  0  0  0  0  0  0  0  0  0  0  0
   -5.1670   -2.5240    0.2710 O   0  0  0  0  0  0  0  0  0  0  0  0
   -5.3690   -0.7350   -1.2730 N   0  0  0  0  0  0  0  0  0  0  0  0
   -6.7590   -0.3250   -1.0230 C   0  0  0  0  0  0  0  0  0  0  0  0
   -4.4470   -0.1370   -2.1760 C   0  0  0  0  0  0  0  0  0  0  0  0
   -4.7630    0.5720   -3.1770 O   0  0  0  0  0  0  0  0  0  0  0  0
   -0.4440    1.0140   -0.4790 C   0  0  0  0  0  0  0  0  0  0  0  0
    0.4140    1.9480    0.0360 C   0  0  0  0  0  0  0  0  0  0  0  0
    1.7500    1.6490    0.3250 C   0  0  0  0  0  0  0  0  0  0  0  0
    2.2500    0.3860    0.0970 C   0  0  0  0  0  0  0  0  0  0  0  0
    1.3750   -0.5650   -0.4280 C   0  0  0  0  0  0  0  0  0  0  0  0
    0.0580   -0.2660   -0.7120 C   0  0  0  0  0  0  0  0  0  0  0  0
    1.9120   -1.8450   -0.6570 N   0  0  0  0  0  0  0  0  0  0  0  0
    3.2530   -2.2690   -0.3710 C   0  0  0  0  0  0  0  0  0  0  0  0
    4.1030   -1.1960    0.1720 C   0  0  0  0  0  0  0  0  0  0  0  0
    5.4520   -1.5110    0.4630 C   0  0  0  0  0  0  0  0  0  0  0  0
    6.2580   -0.5250    0.9740 C   0  0  0  0  0  0  0  0  0  0  0  0
    7.7050   -0.8010    1.3040 C   0  0  0  0  0  0  0  0  0  0  0  0
    5.7470    0.6940    1.1790 N   0  0  0  0  0  0  0  0  0  0  0  0
    4.4750    0.9900    0.9040 N   0  0  0  0  0  0  0  0  0  0  0  0
    3.6320    0.0690    0.4010 C   0  0  0  0  0  0  0  0  0  0  0  0
  1  2  1  0
  2  3  1  0
  4  3  1  1
  4  5  1  0
  4 14  1  0
  6  5  1  1
  6  7  1  0
  6 12  1  0
  7  8  1  0
  8  9  2  0
  8 10  1  0
 10 11  1  0
 10 12  1  0
 12 13  2  0
 14 15  2  0
 14 19  1  0
 15 16  1  0
 16 17  2  0
 17 18  1  0
 17 28  1  0
 18 19  2  0
 18 20  1  0
 20 21  1  0
 21 22  1  0
 22 23  2  0
 22 28  1  0
 23 24  1  0
 24 25  1  0
 24 26  2  0
 26 27  1  0
 27 28  2  0
M  CHG  2   5   1  26   1
M  END
