
     RDKit          3D

 28 30  0  0  0  0  0  0  0  0999 V2000
   -1.9320    1.7950    0.5640 C   0  0  0  0  0  0  0  0  0  0  0  0
   -1.5420    0.4080    1.0640 C   0  0  2  0  0  0  0  0  0  0  0  0
   -0.1100    0.1820    0.7470 N   0  0  0  0  0  0  0  0  0  0  0  0
    0.6210    1.1580    1.5090 C   0  0  0  0  0  0  0  0  0  0  0  0
    2.0840    1.0800    1.2900 C   0  0  0  0  0  0  0  0  0  0  0  0
    2.9310    1.8020    2.1220 C   0  0  0  0  0  0  0  0  0  0  0  0
    4.2980    1.7510    1.9390 C   0  0  0  0  0  0  0  0  0  0  0  0
    4.8330    0.9980    0.9470 N   0  0  0  0  0  0  0  0  0  0  0  0
    4.0740    0.2810    0.1130 C   0  0  0  0  0  0  0  0  0  0  0  0
    4.6090   -0.5380   -0.9110 N   0  0  0  0  0  0  0  0  0  0  0  0
    5.9850   -0.6300   -1.1560 C   0  0  0  0  0  0  0  0  0  0  0  0
    6.5110   -1.9190   -1.2560 C   0  0  0  0  0  0  0  0  0  0  0  0
    7.8410   -2.0640   -1.5280 C   0  0  0  0  0  0  0  0  0  0  0  0
    8.6050   -0.9710   -1.6930 N   0  0  0  0  0  0  0  0  0  0  0  0
    8.1160    0.2650   -1.6020 C   0  0  0  0  0  0  0  0  0  0  0  0
    6.7670    0.4750   -1.3260 C   0  0  0  0  0  0  0  0  0  0  0  0
    2.6770    0.3340    0.3030 C   0  0  0  0  0  0  0  0  0  0  0  0
   -2.3810   -0.5710    0.3440 C   0  0  0  0  0  0  0  0  0  0  0  0
   -1.8830   -1.3560   -0.5100 O   0  0  0  0  0  0  0  0  0  0  0  0
   -3.7650   -0.6500    0.6010 N   0  0  0  0  0  0  0  0  0  0  0  0
   -4.3830    0.2020    1.5800 C   0  0  0  0  0  0  0  0  0  0  0  0
   -5.5150    1.0490    1.0570 C   0  0  0  0  0  0  0  0  0  0  0  0
   -6.6980   -0.1010    0.2820 S   0  0  0  0  0  0  0  0  0  0  0  0
   -7.1060   -1.0800    1.3740 O   0  0  0  0  0  0  0  0  0  0  0  0
   -5.6970   -1.0160   -0.9060 C   0  0  2  0  0  0  0  0  0  0  0  0
   -5.1720   -0.0710   -1.9620 C   0  0  0  0  0  0  0  0  0  0  0  0
   -6.5110   -2.1250   -1.5260 C   0  0  0  0  0  0  0  0  0  0  0  0
   -4.5540   -1.6240   -0.1300 C   0  0  0  0  0  0  0  0  0  0  0  0
  2  1  1  6
  2  3  1  0
  2 18  1  0
  3  4  1  0
  4  5  1  0
  5  6  2  0
  5 17  1  0
  6  7  1  0
  7  8  2  0
  8  9  1  0
  9 10  1  0
  9 17  2  0
 10 11  1  0
 11 12  2  0
 11 16  1  0
 12 13  1  0
 13 14  2  0
 14 15  1  0
 15 16  2  0
 18 19  2  0
 18 20  1  0
 20 21  1  0
 20 28  1  0
 21 22  1  0
 23 22  1  1
 23 24  2  0
 23 25  1  0
 25 26  1  6
 25 27  1  0
 25 28  1  0
M  CHG  2   8   1  14   1
M  END
