
     RDKit          3D

 28 31  0  0  0  0  0  0  0  0999 V2000
    6.9250   -0.5070   -0.4660 N   0  0  0  0  0  0  0  0  0  0  0  0
    5.6890   -1.0510    0.0190 C   0  0  2  0  0  0  0  0  0  0  0  0
    4.6860   -1.1790   -1.1240 C   0  0  0  0  0  0  0  0  0  0  0  0
    4.2760    0.1990   -1.5030 C   0  0  0  0  0  0  0  0  0  0  0  0
    3.1450    0.8060   -0.7990 C   0  0  0  0  0  0  0  0  0  0  0  0
    2.6930    0.2800    0.4310 N   0  0  1  0  0  0  0  0  0  0  0  0
    1.5210   -0.5430    0.2440 C   0  0  0  0  0  0  0  0  0  0  0  0
    0.2510    0.2580    0.1560 C   0  0  0  0  0  0  0  0  0  0  0  0
    0.2190    1.6190    0.0700 C   0  0  0  0  0  0  0  0  0  0  0  0
   -0.9810    2.3020   -0.0040 C   0  0  0  0  0  0  0  0  0  0  0  0
   -2.1920    1.6720    0.0040 C   0  0  0  0  0  0  0  0  0  0  0  0
   -3.4550    2.2640   -0.0660 N   0  0  0  0  0  0  0  0  0  0  0  0
   -3.6110    3.6810   -0.1590 C   0  0  0  0  0  0  0  0  0  0  0  0
   -2.7630    4.7110   -0.2020 N   0  0  0  0  0  0  0  0  0  0  0  0
   -3.2240    5.8830   -0.2890 N   0  0  0  0  0  0  0  0  0  0  0  0
   -4.3890    6.2350   -0.3410 C   0  0  0  0  0  0  0  0  0  0  0  0
   -5.1720    4.5100   -0.2520 S   0  0  0  0  0  0  0  0  0  0  0  0
   -2.2010    0.2520    0.0930 C   0  0  0  0  0  0  0  0  0  0  0  0
   -3.3120   -0.4350    0.1080 O   0  0  0  0  0  0  0  0  0  0  0  0
   -4.4170   -1.0860    0.1200 C   0  0  1  0  0  0  0  0  0  0  0  0
   -4.5150   -2.0970   -1.0290 C   0  0  0  0  0  0  0  0  0  0  0  0
   -4.1200   -3.4730   -0.5640 C   0  0  0  0  0  0  0  0  0  0  0  0
   -5.0410   -4.0120    0.3300 O   0  0  0  0  0  0  0  0  0  0  0  0
   -5.5690   -3.0420    1.1790 C   0  0  0  0  0  0  0  0  0  0  0  0
   -4.5220   -1.9730    1.3860 C   0  0  0  0  0  0  0  0  0  0  0  0
   -0.9580   -0.3910    0.1660 C   0  0  0  0  0  0  0  0  0  0  0  0
    3.6540   -0.4750    1.1930 C   0  0  0  0  0  0  0  0  0  0  0  0
    5.0780   -0.0370    0.9770 C   0  0  0  0  0  0  0  0  0  0  0  0
  2  1  1  6
  2  3  1  0
  2 28  1  0
  3  4  1  0
  4  5  1  0
  5  6  1  0
  6  7  1  6
  6 27  1  0
  7  8  1  0
  8  9  2  0
  8 26  1  0
  9 10  1  0
 10 11  2  0
 11 12  1  0
 11 18  1  0
 12 13  1  0
 13 14  2  0
 13 17  1  0
 14 15  1  0
 15 16  2  0
 16 17  1  0
 18 19  1  0
 18 26  2  0
 20 19  1  1
 20 21  1  0
 20 25  1  0
 21 22  1  0
 22 23  1  0
 23 24  1  0
 24 25  1  0
 27 28  1  0
M  CHG  2   1   1   6   1
M  END
