
     RDKit          3D

 28 30  0  0  0  0  0  0  0  0999 V2000
    3.1780   -3.1840    2.5220 C   0  0  0  0  0  0  0  0  0  0  0  0
    2.8970   -1.9150    1.8660 N   0  0  1  0  0  0  0  0  0  0  0  0
    3.8950   -1.6110    0.8590 C   0  0  0  0  0  0  0  0  0  0  0  0
    4.8470   -0.5170    1.2910 C   0  0  0  0  0  0  0  0  0  0  0  0
    5.4240    0.1340    0.2240 O   0  0  0  0  0  0  0  0  0  0  0  0
    4.7510    1.3320   -0.1090 C   0  0  0  0  0  0  0  0  0  0  0  0
    4.3990    1.3080   -1.5460 C   0  0  0  0  0  0  0  0  0  0  0  0
    5.2970    1.7140   -2.4210 C   0  0  0  0  0  0  0  0  0  0  0  0
    6.9210    2.2890   -1.8970 S   0  0  0  0  0  0  0  0  0  0  0  0
    3.1580    0.8680   -1.9310 O   0  0  0  0  0  0  0  0  0  0  0  0
    1.9350    1.1660   -1.2840 C   0  0  0  0  0  0  0  0  0  0  0  0
    1.0460   -0.0290   -1.3760 C   0  0  0  0  0  0  0  0  0  0  0  0
    0.2800   -0.3630   -0.1410 C   0  0  2  0  0  0  0  0  0  0  0  0
   -0.9010    0.5040    0.0040 N   0  0  0  0  0  0  0  0  0  0  0  0
   -1.6590    0.1500    1.1600 C   0  0  0  0  0  0  0  0  0  0  0  0
   -3.1250    0.1760    0.9470 C   0  0  0  0  0  0  0  0  0  0  0  0
   -3.8390    0.4930   -0.1970 C   0  0  0  0  0  0  0  0  0  0  0  0
   -5.1870    0.3820    0.0630 C   0  0  0  0  0  0  0  0  0  0  0  0
   -6.3370    0.6060   -0.8020 C   0  0  0  0  0  0  0  0  0  0  0  0
   -7.6330    0.4410   -0.3590 C   0  0  0  0  0  0  0  0  0  0  0  0
   -8.7130    0.6550   -1.1890 C   0  0  0  0  0  0  0  0  0  0  0  0
   -8.5270    1.0450   -2.5020 C   0  0  0  0  0  0  0  0  0  0  0  0
   -7.2500    1.1980   -2.9070 N   0  0  0  0  0  0  0  0  0  0  0  0
   -6.1870    0.9960   -2.1210 C   0  0  0  0  0  0  0  0  0  0  0  0
   -5.2640    0.0040    1.3460 N   0  0  0  0  0  0  0  0  0  0  0  0
   -4.0570   -0.1180    1.8680 N   0  0  0  0  0  0  0  0  0  0  0  0
    1.0880   -0.4600    1.1100 C   0  0  0  0  0  0  0  0  0  0  0  0
    1.5690   -1.9030    1.2850 C   0  0  0  0  0  0  0  0  0  0  0  0
  2  1  1  6
  2  3  1  0
  2 28  1  0
  3  4  1  0
  4  5  1  0
  5  6  1  0
  6  7  1  0
  7  8  2  3
  7 10  1  0
  8  9  1  0
 10 11  1  0
 11 12  1  0
 12 13  1  0
 13 14  1  1
 13 27  1  0
 14 15  1  0
 15 16  1  0
 16 17  2  0
 16 26  1  0
 17 18  1  0
 18 19  1  0
 18 25  2  0
 19 20  2  0
 19 24  1  0
 20 21  1  0
 21 22  2  0
 22 23  1  0
 23 24  2  0
 25 26  1  0
 27 28  1  0
M  CHG  2   2   1  14   1
M  END
