
     RDKit          3D

 18 19  0  0  0  0  0  0  0  0999 V2000
    2.8300    1.3070    0.4950 C   0  0  0  0  0  0  0  0  0  0  0  0
    2.8560   -0.1850    0.5620 C   0  0  2  0  0  0  0  0  0  0  0  0
    4.3090   -0.6230    0.3270 C   0  0  0  0  0  0  0  0  0  0  0  0
    4.4300   -0.4430   -1.0740 O   0  0  0  0  0  0  0  0  0  0  0  0
    3.1950   -0.5820   -1.6870 C   0  0  0  0  0  0  0  0  0  0  0  0
    2.9820   -0.5070   -2.9090 O   0  0  0  0  0  0  0  0  0  0  0  0
    2.2010   -0.8300   -0.6460 C   0  0  2  0  0  0  0  0  0  0  0  0
    0.8880   -0.3450   -0.9290 N   0  0  0  0  0  0  0  0  0  0  0  0
    0.0270   -0.6460    0.1690 C   0  0  0  0  0  0  0  0  0  0  0  0
   -1.3800   -0.1620   -0.0680 C   0  0  0  0  0  0  0  0  0  0  0  0
   -1.8770    0.7130    0.7820 C   0  0  0  0  0  0  0  0  0  0  0  0
   -1.0240    1.1170    1.8520 N   0  0  0  0  0  0  0  0  0  0  0  0
   -3.1830    1.3540    0.8070 C   0  0  0  0  0  0  0  0  0  0  0  0
   -4.1560    0.8840   -0.0100 O   0  0  0  0  0  0  0  0  0  0  0  0
   -4.2570   -0.4560   -0.2180 C   0  0  0  0  0  0  0  0  0  0  0  0
   -3.5430   -0.8570   -1.5190 C   0  0  0  0  0  0  0  0  0  0  0  0
   -2.0730   -0.7080   -1.2210 C   0  0  0  0  0  0  0  0  0  0  0  0
   -1.3240   -1.1400   -2.1530 O   0  0  0  0  0  0  0  0  0  0  0  0
  2  1  1  6
  2  3  1  0
  2  7  1  0
  3  4  1  0
  4  5  1  0
  5  6  2  0
  5  7  1  0
  7  8  1  6
  8  9  1  0
  9 10  1  0
 10 11  2  0
 10 17  1  0
 11 12  1  0
 11 13  1  0
 13 14  1  0
 14 15  1  0
 15 16  1  0
 16 17  1  0
 17 18  2  0
M  END
