
     RDKit          3D

 18 19  0  0  0  0  0  0  0  0999 V2000
    2.7120   -2.2890   -0.5910 C   0  0  0  0  0  0  0  0  0  0  0  0
    2.0690   -1.1290   -0.9140 O   0  0  0  0  0  0  0  0  0  0  0  0
    2.0220   -0.1890    0.0920 C   0  0  1  0  0  0  0  0  0  0  0  0
    2.9250    1.0000   -0.0740 C   0  0  0  0  0  0  0  0  0  0  0  0
    2.7360    1.8170   -1.2140 N   0  0  0  0  0  0  0  0  0  0  0  0
    0.6920    0.0610    0.6710 C   0  0  2  0  0  0  0  0  0  0  0  0
    0.2710   -1.1240    1.3470 O   0  0  0  0  0  0  0  0  0  0  0  0
   -0.2200   -0.8190    2.6090 C   0  0  0  0  0  0  0  0  0  0  0  0
   -1.3510    0.1320    2.6260 C   0  0  0  0  0  0  0  0  0  0  0  0
   -1.6870    0.5230    3.7690 O   0  0  0  0  0  0  0  0  0  0  0  0
   -2.0950    0.6540    1.5390 N   0  0  0  0  0  0  0  0  0  0  0  0
   -1.6760    0.5300    0.1660 C   0  0  0  0  0  0  0  0  0  0  0  0
   -0.4340    0.2610   -0.2990 C   0  0  0  0  0  0  0  0  0  0  0  0
   -0.4440    0.1610   -1.7200 C   0  0  0  0  0  0  0  0  0  0  0  0
    0.5200    0.2530   -2.4920 O   0  0  0  0  0  0  0  0  0  0  0  0
   -1.8730   -0.0820   -2.0760 C   0  0  0  0  0  0  0  0  0  0  0  0
   -2.5600    0.7160   -0.9970 C   0  0  1  0  0  0  0  0  0  0  0  0
   -3.9680    0.2420   -0.7400 C   0  0  0  0  0  0  0  0  0  0  0  0
  1  2  1  0
  2  3  1  0
  3  4  1  6
  3  6  1  0
  4  5  1  0
  6  7  1  1
  6 13  1  0
  7  8  1  0
  8  9  1  0
  9 10  2  0
  9 11  1  0
 11 12  1  0
 12 13  2  0
 12 17  1  0
 13 14  1  0
 14 15  2  0
 14 16  1  0
 16 17  1  0
 17 18  1  1
M  END
