
     RDKit          3D

 18 19  0  0  0  0  0  0  0  0999 V2000
   -2.6760    1.2540    1.5940 C   0  0  0  0  0  0  0  0  0  0  0  0
   -3.2900    0.5830    0.3930 C   0  0  2  0  0  0  0  0  0  0  0  0
   -4.3630    1.3300   -0.1790 N   0  0  0  0  0  0  0  0  0  0  0  0
   -3.8330   -0.8030    0.7540 C   0  0  0  0  0  0  0  0  0  0  0  0
   -3.8870   -1.4220   -0.5970 C   0  0  0  0  0  0  0  0  0  0  0  0
   -3.0130   -0.8480   -1.4140 C   0  0  0  0  0  0  0  0  0  0  0  0
   -2.2840    0.2260   -0.6590 C   0  0  2  0  0  0  0  0  0  0  0  0
   -1.1090   -0.4190   -0.0710 N   0  0  0  0  0  0  0  0  0  0  0  0
    0.2160    0.0290   -0.3430 C   0  0  0  0  0  0  0  0  0  0  0  0
    0.2970    1.0300   -1.1340 O   0  0  0  0  0  0  0  0  0  0  0  0
    1.3350   -0.5640    0.1990 O   0  0  0  0  0  0  0  0  0  0  0  0
    2.6140   -0.0820   -0.1030 C   0  0  2  0  0  0  0  0  0  0  0  0
    3.4900   -1.1370   -0.7500 C   0  0  0  0  0  0  0  0  0  0  0  0
    4.9630   -0.8430   -0.5730 C   0  0  0  0  0  0  0  0  0  0  0  0
    5.1650    0.6450   -0.3720 C   0  0  0  0  0  0  0  0  0  0  0  0
    4.5930    0.9450    0.9110 O   0  0  0  0  0  0  0  0  0  0  0  0
    3.3110    0.4230    1.1150 C   0  0  0  0  0  0  0  0  0  0  0  0
    2.8340    0.4060    2.2570 O   0  0  0  0  0  0  0  0  0  0  0  0
  2  1  1  1
  2  3  1  0
  2  4  1  0
  2  7  1  0
  4  5  1  0
  5  6  2  0
  6  7  1  0
  7  8  1  1
  8  9  1  0
  9 10  2  0
  9 11  1  0
 12 11  1  1
 12 13  1  0
 12 17  1  0
 13 14  1  0
 14 15  1  0
 15 16  1  0
 16 17  1  0
 17 18  2  0
M  END
