
     RDKit          3D

 18 20  0  0  0  0  0  0  0  0999 V2000
   -2.0880    2.3340   -0.4280 O   0  0  0  0  0  0  0  0  0  0  0  0
   -2.3030    1.1860   -0.0100 C   0  0  0  0  0  0  0  0  0  0  0  0
   -3.6040    0.8100    0.3790 N   0  0  0  0  0  0  0  0  0  0  0  0
   -4.0990   -0.4890    0.2510 N   0  0  0  0  0  0  0  0  0  0  0  0
   -3.0170   -1.4580    0.0700 C   0  0  0  0  0  0  0  0  0  0  0  0
   -1.8460   -0.9890    0.8670 C   0  0  0  0  0  0  0  0  0  0  0  0
   -1.2270    0.1860    0.0960 C   0  0  2  0  0  0  0  0  0  0  0  0
   -0.0070    0.7110    0.7990 C   0  0  0  0  0  0  0  0  0  0  0  0
    1.2320    0.4100   -0.0100 C   0  0  1  0  0  0  0  0  0  0  0  0
    1.2570    1.1110   -1.3100 C   0  0  0  0  0  0  0  0  0  0  0  0
    1.3120    0.5080   -2.4130 O   0  0  0  0  0  0  0  0  0  0  0  0
    1.2180    2.5150   -1.3960 O   0  0  0  0  0  0  0  0  0  0  0  0
    2.4810    0.7970    0.7470 C   0  0  2  0  0  0  0  0  0  0  0  0
    3.7630    0.5200   -0.0110 C   0  0  0  0  0  0  0  0  0  0  0  0
    3.4110   -0.2000    1.2850 C   0  0  0  0  0  0  0  0  0  0  0  0
    1.2050   -1.0830   -0.3100 C   0  0  0  0  0  0  0  0  0  0  0  0
   -0.0460   -1.3470   -1.1210 C   0  0  0  0  0  0  0  0  0  0  0  0
   -0.8870   -0.2670   -1.1900 O   0  0  0  0  0  0  0  0  0  0  0  0
  1  2  2  0
  2  3  1  0
  2  7  1  0
  3  4  1  0
  4  5  1  0
  5  6  1  0
  7  6  1  1
  7  8  1  0
  7 18  1  0
  8  9  1  0
  9 10  1  6
  9 13  1  0
  9 16  1  0
 10 11  2  0
 10 12  1  0
 13 14  1  6
 13 15  1  0
 14 15  1  0
 16 17  1  0
 17 18  1  0
M  END
