
     RDKit          3D

 18 19  0  0  0  0  0  0  0  0999 V2000
    5.4140    0.6800    0.2860 C   0  0  0  0  0  0  0  0  0  0  0  0
    4.1850    0.2130    0.3790 C   0  0  0  0  0  0  0  0  0  0  0  0
    3.7840   -0.2940    1.6420 N   0  0  0  0  0  0  0  0  0  0  0  0
    2.5480   -0.9180    1.9850 C   0  0  0  0  0  0  0  0  0  0  0  0
    2.2880   -1.0450    3.2120 O   0  0  0  0  0  0  0  0  0  0  0  0
    1.5390   -1.4330    1.0290 C   0  0  0  0  0  0  0  0  0  0  0  0
    0.9910   -0.3190    0.1370 C   0  0  2  0  0  0  0  0  0  0  0  0
   -0.1160   -0.7640   -0.4580 O   0  0  0  0  0  0  0  0  0  0  0  0
   -1.2980   -0.1860   -0.3240 C   0  0  2  0  0  0  0  0  0  0  0  0
   -2.2630   -1.1370    0.3850 C   0  0  0  0  0  0  0  0  0  0  0  0
   -3.2770   -0.2490    1.0730 C   0  0  0  0  0  0  0  0  0  0  0  0
   -3.7840    0.8240    0.1800 C   0  0  0  0  0  0  0  0  0  0  0  0
   -3.4280    0.6780   -1.2600 C   0  0  1  0  0  0  0  0  0  0  0  0
   -3.6610    1.9320   -1.8730 O   0  0  0  0  0  0  0  0  0  0  0  0
   -2.0050    0.3200   -1.5340 C   0  0  0  0  0  0  0  0  0  0  0  0
    1.9970    0.0240   -0.9150 C   0  0  0  0  0  0  0  0  0  0  0  0
    1.5660    0.1150   -2.0930 O   0  0  0  0  0  0  0  0  0  0  0  0
    3.3920    0.2730   -0.8190 N   0  0  0  0  0  0  0  0  0  0  0  0
  1  2  2  0
  2  3  1  0
  2 18  1  0
  3  4  1  0
  4  5  2  0
  4  6  1  0
  6  7  1  0
  7  8  1  6
  7 16  1  0
  9  8  1  6
  9 10  1  0
  9 15  1  0
 10 11  1  0
 11 12  1  0
 12 13  1  0
 13 14  1  6
 13 15  1  0
 16 17  2  0
 16 18  1  0
M  END
