
     RDKit          3D

 18 19  0  0  0  0  0  0  0  0999 V2000
   -3.9640    2.1010    1.2750 N   0  0  0  0  0  0  0  0  0  0  0  0
   -3.7100    0.9330    1.0520 C   0  0  0  0  0  0  0  0  0  0  0  0
   -4.6650   -0.1910    0.8860 C   0  0  0  0  0  0  0  0  0  0  0  0
   -4.5980   -0.4050   -0.6570 C   0  0  0  0  0  0  0  0  0  0  0  0
   -3.1940   -0.5770   -1.0930 C   0  0  0  0  0  0  0  0  0  0  0  0
   -2.1850   -0.7350    0.0960 C   0  0  1  0  0  0  0  0  0  0  0  0
   -0.8640   -0.7710   -0.5930 C   0  0  0  0  0  0  0  0  0  0  0  0
   -0.7490   -0.8500   -1.7970 O   0  0  0  0  0  0  0  0  0  0  0  0
    0.2810   -0.7100    0.2470 O   0  0  0  0  0  0  0  0  0  0  0  0
    1.5270   -0.7740   -0.4210 C   0  0  0  0  0  0  0  0  0  0  0  0
    2.6710   -0.4400    0.4970 C   0  0  2  0  0  0  0  0  0  0  0  0
    2.5740    0.9990    0.9900 C   0  0  0  0  0  0  0  0  0  0  0  0
    3.1760    1.8870   -0.0930 C   0  0  0  0  0  0  0  0  0  0  0  0
    4.4740    1.5020   -0.3760 O   0  0  0  0  0  0  0  0  0  0  0  0
    4.5520    0.2570   -0.9860 C   0  0  0  0  0  0  0  0  0  0  0  0
    3.9820   -0.8040   -0.0810 C   0  0  2  0  0  0  0  0  0  0  0  0
    3.8210   -1.9750   -0.8380 O   0  0  0  0  0  0  0  0  0  0  0  0
   -2.3370    0.5400    0.7580 N   0  0  0  0  0  0  0  0  0  0  0  0
  1  2  2  0
  2  3  1  0
  2 18  1  0
  3  4  1  0
  4  5  1  0
  5  6  1  0
  6  7  1  6
  6 18  1  0
  7  8  2  0
  7  9  1  0
  9 10  1  0
 11 10  1  6
 11 12  1  0
 11 16  1  0
 12 13  1  0
 13 14  1  0
 14 15  1  0
 15 16  1  0
 16 17  1  6
M  END
