
     RDKit          3D

 14 15  0  0  0  0  0  0  0  0999 V2000
    2.5970   -1.0950    0.7920 O   0  0  0  0  0  0  0  0  0  0  0  0
    2.4130   -0.1530   -0.1880 C   0  0  0  0  0  0  0  0  0  0  0  0
    0.9710    0.1760   -0.4660 C   0  0  2  0  0  0  0  0  0  0  0  0
    0.2460    0.7190    0.7300 C   0  0  1  0  0  0  0  0  0  0  0  0
    0.8230    1.8350    1.2790 O   0  0  0  0  0  0  0  0  0  0  0  0
   -1.1860    1.0170    0.2630 C   0  0  2  0  0  0  0  0  0  0  0  0
   -1.7990    1.9440    1.0670 O   0  0  0  0  0  0  0  0  0  0  0  0
   -1.8940   -0.2930    0.1790 C   0  0  1  0  0  0  0  0  0  0  0  0
   -3.1530   -0.1840   -0.4200 O   0  0  0  0  0  0  0  0  0  0  0  0
   -1.0390   -1.2250   -0.6320 C   0  0  0  0  0  0  0  0  0  0  0  0
   -1.3830   -2.3960   -1.1980 N   0  0  0  0  0  0  0  0  0  0  0  0
   -0.3190   -2.8770   -1.8150 N   0  0  0  0  0  0  0  0  0  0  0  0
    0.6660   -2.0200   -1.6350 N   0  0  0  0  0  0  0  0  0  0  0  0
    0.2350   -1.0100   -0.9150 N   0  0  0  0  0  0  0  0  0  0  0  0
  1  2  1  0
  3  2  1  1
  3  4  1  0
  3 14  1  0
  4  5  1  6
  4  6  1  0
  6  7  1  1
  6  8  1  0
  8  9  1  6
  8 10  1  0
 10 11  2  0
 10 14  1  0
 11 12  1  0
 12 13  2  0
 13 14  1  0
M  END
