
     RDKit          3D

 17 18  0  0  0  0  0  0  0  0999 V2000
    1.0280    1.0120    1.0770 O   0  0  0  0  0  0  0  0  0  0  0  0
    1.6450   -0.0300    1.3340 C   0  0  0  0  0  0  0  0  0  0  0  0
    3.0150    0.0360    1.7210 N   0  0  0  0  0  0  0  0  0  0  0  0
    3.7390    1.2790    1.8310 C   0  0  0  0  0  0  0  0  0  0  0  0
    5.0470    1.0940    2.2190 O   0  0  0  0  0  0  0  0  0  0  0  0
    0.9730   -1.2940    1.2410 N   0  0  0  0  0  0  0  0  0  0  0  0
   -0.3320   -1.5400    0.8150 C   0  0  0  0  0  0  0  0  0  0  0  0
   -0.6020   -1.3750   -0.6630 C   0  0  2  0  0  0  0  0  0  0  0  0
   -0.2710   -0.0400   -1.1290 C   0  0  0  0  0  0  0  0  0  0  0  0
   -1.0570    0.8960   -1.5700 C   0  0  0  0  0  0  0  0  0  0  0  0
   -0.9210    2.2040   -2.0300 O   0  0  0  0  0  0  0  0  0  0  0  0
   -2.1360    2.6350   -2.6140 C   0  0  0  0  0  0  0  0  0  0  0  0
   -3.1270    1.7290   -2.1350 O   0  0  0  0  0  0  0  0  0  0  0  0
   -2.4690    0.5820   -1.6640 C   0  0  0  0  0  0  0  0  0  0  0  0
   -2.8810   -0.6190   -1.3260 C   0  0  0  0  0  0  0  0  0  0  0  0
   -2.0660   -1.7310   -0.8560 C   0  0  2  0  0  0  0  0  0  0  0  0
   -2.5790   -2.2490    0.3590 O   0  0  0  0  0  0  0  0  0  0  0  0
  1  2  2  0
  2  3  1  0
  2  6  1  0
  3  4  1  0
  4  5  1  0
  6  7  1  0
  8  7  1  1
  8  9  1  0
  8 16  1  0
  9 10  2  0
 10 11  1  0
 10 14  1  0
 11 12  1  0
 12 13  1  0
 13 14  1  0
 14 15  2  0
 15 16  1  0
 16 17  1  1
M  END
