
     RDKit          3D

 18 19  0  0  0  0  0  0  0  0999 V2000
    4.8490    0.6360    0.8140 N   0  0  0  0  0  0  0  0  0  0  0  0
    3.4920    1.0120    0.8330 C   0  0  0  0  0  0  0  0  0  0  0  0
    3.0190    1.8160    1.7000 O   0  0  0  0  0  0  0  0  0  0  0  0
    2.6000    0.4950   -0.1300 N   0  0  0  0  0  0  0  0  0  0  0  0
    1.1980    0.8340   -0.1740 C   0  0  1  0  0  0  0  0  0  0  0  0
    0.7960    1.5740   -1.3970 C   0  0  0  0  0  0  0  0  0  0  0  0
   -0.5440    2.0300   -1.1810 O   0  0  0  0  0  0  0  0  0  0  0  0
   -1.4910    0.9670   -0.9780 C   0  0  0  0  0  0  0  0  0  0  0  0
   -2.7180    1.1020   -1.3680 C   0  0  0  0  0  0  0  0  0  0  0  0
   -3.8660    0.2710   -1.3190 C   0  0  0  0  0  0  0  0  0  0  0  0
   -4.9970    0.7000   -1.8100 O   0  0  0  0  0  0  0  0  0  0  0  0
   -3.9740   -0.9950   -0.8020 O   0  0  0  0  0  0  0  0  0  0  0  0
   -0.9670   -0.2180   -0.3210 C   0  0  0  0  0  0  0  0  0  0  0  0
    0.3100   -0.2960    0.0660 C   0  0  0  0  0  0  0  0  0  0  0  0
    0.6940   -1.4840    0.6820 O   0  0  0  0  0  0  0  0  0  0  0  0
   -0.1780   -2.1540    1.5790 C   0  0  0  0  0  0  0  0  0  0  0  0
   -1.6110   -2.0340    1.1870 C   0  0  0  0  0  0  0  0  0  0  0  0
   -1.7620   -1.3320   -0.0590 O   0  0  0  0  0  0  0  0  0  0  0  0
  1  2  1  0
  2  3  2  0
  2  4  1  0
  5  4  1  6
  5  6  1  0
  5 14  1  0
  6  7  1  0
  7  8  1  0
  8  9  2  3
  8 13  1  0
  9 10  1  0
 10 11  2  0
 10 12  1  0
 13 14  2  0
 13 18  1  0
 14 15  1  0
 15 16  1  0
 16 17  1  0
 17 18  1  0
M  END
