
     RDKit          3D

 18 19  0  0  0  0  0  0  0  0999 V2000
    4.7640    0.6980   -1.1550 C   0  0  0  0  0  0  0  0  0  0  0  0
    3.9130   -0.1960   -0.5050 O   0  0  0  0  0  0  0  0  0  0  0  0
    3.3590    0.4640    0.5690 C   0  0  2  0  0  0  0  0  0  0  0  0
    3.8030   -0.1940    1.7310 O   0  0  0  0  0  0  0  0  0  0  0  0
    1.8540    0.4510    0.5060 C   0  0  0  0  0  0  0  0  0  0  0  0
    1.0500   -0.6290    0.2080 C   0  0  0  0  0  0  0  0  0  0  0  0
   -0.2450   -0.2710    0.2450 N   0  0  0  0  0  0  0  0  0  0  0  0
   -0.2670    1.0350    0.5660 C   0  0  0  0  0  0  0  0  0  0  0  0
    1.0090    1.4760    0.7250 N   0  0  0  0  0  0  0  0  0  0  0  0
   -1.5770    1.7320    0.6850 C   0  0  2  0  0  0  0  0  0  0  0  0
   -2.1530    1.5230    1.9420 O   0  0  0  0  0  0  0  0  0  0  0  0
   -2.5490    1.2970   -0.3530 C   0  0  1  0  0  0  0  0  0  0  0  0
   -2.4770    2.1150   -1.5050 O   0  0  0  0  0  0  0  0  0  0  0  0
   -2.4750   -0.1370   -0.7400 C   0  0  2  0  0  0  0  0  0  0  0  0
   -3.7360   -0.7640   -0.6010 O   0  0  0  0  0  0  0  0  0  0  0  0
   -1.4980   -0.9580    0.0250 C   0  0  1  0  0  0  0  0  0  0  0  0
   -1.2210   -2.2230   -0.7720 C   0  0  0  0  0  0  0  0  0  0  0  0
   -2.4080   -2.8840   -0.9860 O   0  0  0  0  0  0  0  0  0  0  0  0
  1  2  1  0
  2  3  1  0
  3  4  1  1
  3  5  1  0
  5  6  2  0
  5  9  1  0
  6  7  1  0
  7  8  1  0
  7 16  1  0
  8  9  2  0
  8 10  1  0
 10 11  1  1
 10 12  1  0
 12 13  1  6
 12 14  1  0
 14 15  1  1
 14 16  1  0
 16 17  1  6
 17 18  1  0
M  END
