
     RDKit          3D

 18 18  0  0  0  0  0  0  0  0999 V2000
    3.9180    2.4270   -0.4380 C   0  0  0  0  0  0  0  0  0  0  0  0
    2.7280    1.6680   -0.2690 O   0  0  0  0  0  0  0  0  0  0  0  0
    2.7670    0.2900   -0.2220 C   0  0  0  0  0  0  0  0  0  0  0  0
    3.8760   -0.2980   -0.3300 O   0  0  0  0  0  0  0  0  0  0  0  0
    1.5180   -0.4490   -0.0470 C   0  0  0  0  0  0  0  0  0  0  0  0
    0.3850    0.2470    0.0600 C   0  0  0  0  0  0  0  0  0  0  0  0
   -0.8570   -0.4780    0.2330 C   0  0  0  0  0  0  0  0  0  0  0  0
   -2.1070    0.1820    0.3550 N   0  0  0  0  0  0  0  0  0  0  0  0
   -2.3480    1.5680    0.3310 C   0  0  0  0  0  0  0  0  0  0  0  0
   -1.4250    2.3640    0.1920 O   0  0  0  0  0  0  0  0  0  0  0  0
   -3.7290    2.1330    0.4720 C   0  0  0  0  0  0  0  0  0  0  0  0
   -3.6940    3.5050    0.4160 O   0  0  0  0  0  0  0  0  0  0  0  0
   -0.8630   -1.8190    0.2840 C   0  0  0  0  0  0  0  0  0  0  0  0
   -2.1340   -2.4380    0.4570 O   0  0  0  0  0  0  0  0  0  0  0  0
    0.3110   -2.6890    0.1790 C   0  0  1  0  0  0  0  0  0  0  0  0
    0.1100   -3.6280   -0.9220 N   0  0  0  0  0  0  0  0  0  0  0  0
    1.5340   -1.8960    0.0060 C   0  0  0  0  0  0  0  0  0  0  0  0
    2.6650   -2.4540   -0.1060 O   0  0  0  0  0  0  0  0  0  0  0  0
  1  2  1  0
  2  3  1  0
  3  4  2  0
  3  5  1  0
  5  6  2  0
  5 17  1  0
  6  7  1  0
  7  8  1  0
  7 13  2  0
  8  9  1  0
  9 10  2  0
  9 11  1  0
 11 12  1  0
 13 14  1  0
 13 15  1  0
 15 16  1  6
 15 17  1  0
 17 18  2  0
M  END
