
     RDKit          3D

 18 18  0  0  0  0  0  0  0  0999 V2000
    5.1940    1.1930   -0.5830 C   0  0  0  0  0  0  0  0  0  0  0  0
    5.1230    0.0340    0.3750 C   0  0  0  0  0  0  0  0  0  0  0  0
    4.3080   -0.9700   -0.1070 O   0  0  0  0  0  0  0  0  0  0  0  0
    3.0060   -0.6040   -0.3350 C   0  0  0  0  0  0  0  0  0  0  0  0
    2.3220   -0.1130    0.9220 C   0  0  0  0  0  0  0  0  0  0  0  0
    0.9670    0.2670    0.6820 N   0  0  0  0  0  0  0  0  0  0  0  0
   -0.0390   -0.5960    0.1910 C   0  0  0  0  0  0  0  0  0  0  0  0
    0.2770   -1.7890   -0.0530 O   0  0  0  0  0  0  0  0  0  0  0  0
   -1.4330   -0.1800   -0.0500 C   0  0  2  0  0  0  0  0  0  0  0  0
   -1.5520    1.1670    0.2860 O   0  0  0  0  0  0  0  0  0  0  0  0
   -2.3110   -0.9510    0.9130 C   0  0  0  0  0  0  0  0  0  0  0  0
   -3.6450   -0.3510    1.1270 C   0  0  0  0  0  0  0  0  0  0  0  0
   -4.2620    0.2960   -0.0690 C   0  0  2  0  0  0  0  0  0  0  0  0
   -5.6270    0.4980    0.2400 O   0  0  0  0  0  0  0  0  0  0  0  0
   -4.2140   -0.4310   -1.2170 O   0  0  0  0  0  0  0  0  0  0  0  0
   -3.1170   -1.1050   -1.4600 N   0  0  0  0  0  0  0  0  0  0  0  0
   -1.8940   -0.4030   -1.4560 C   0  0  1  0  0  0  0  0  0  0  0  0
   -2.0760    0.8290   -2.0960 O   0  0  0  0  0  0  0  0  0  0  0  0
  1  2  1  0
  2  3  1  0
  3  4  1  0
  4  5  1  0
  5  6  1  0
  6  7  1  0
  7  8  2  0
  7  9  1  0
  9 10  1  1
  9 11  1  0
  9 17  1  0
 11 12  1  0
 12 13  1  0
 13 14  1  1
 13 15  1  0
 15 16  1  0
 16 17  1  0
 17 18  1  1
M  END
