
     RDKit          3D

 27 30  0  0  0  0  0  0  0  0999 V2000
    8.1320    0.5650    0.0500 C   0  0  0  0  0  0  0  0  0  0  0  0
    7.4560   -0.2710   -0.8420 O   0  0  0  0  0  0  0  0  0  0  0  0
    6.0830   -0.4080   -0.8150 C   0  0  0  0  0  0  0  0  0  0  0  0
    5.3860   -1.2230   -1.6790 C   0  0  0  0  0  0  0  0  0  0  0  0
    4.0100   -1.3190   -1.6040 C   0  0  0  0  0  0  0  0  0  0  0  0
    3.2880   -0.5950   -0.6520 C   0  0  0  0  0  0  0  0  0  0  0  0
    1.8810   -0.6760   -0.5540 N   0  0  0  0  0  0  0  0  0  0  0  0
    1.1870    0.0780    0.4300 C   0  0  0  0  0  0  0  0  0  0  0  0
   -0.2730   -0.1060    0.4150 C   0  0  0  0  0  0  0  0  0  0  0  0
   -0.9230    1.0170    0.1920 N   0  0  0  0  0  0  0  0  0  0  0  0
   -2.3470    1.2290    0.1060 C   0  0  0  0  0  0  0  0  0  0  0  0
   -2.7770    2.1760   -0.6720 C   0  0  0  0  0  0  0  0  0  0  0  0
   -4.0960    2.6160   -0.9680 C   0  0  0  0  0  0  0  0  0  0  0  0
   -4.4230    3.6410   -1.7870 C   0  0  0  0  0  0  0  0  0  0  0  0
   -5.8880    3.7580   -1.8090 C   0  0  0  0  0  0  0  0  0  0  0  0
   -6.2350    3.0520   -0.7340 C   0  0  0  0  0  0  0  0  0  0  0  0
   -5.3600    2.0580   -0.5410 C   0  0  0  0  0  0  0  0  0  0  0  0
   -3.2690    0.4680    0.8700 N   0  0  0  0  0  0  0  0  0  0  0  0
   -3.2340   -0.9640    1.0940 C   0  0  0  0  0  0  0  0  0  0  0  0
   -4.4320   -1.4540    1.4390 N   0  0  0  0  0  0  0  0  0  0  0  0
   -4.6140   -2.7700    1.6960 C   0  0  0  0  0  0  0  0  0  0  0  0
   -3.5220   -3.6230    1.5940 C   0  0  0  0  0  0  0  0  0  0  0  0
   -2.2550   -3.1530    1.2360 C   0  0  0  0  0  0  0  0  0  0  0  0
   -2.1440   -1.8050    0.9900 C   0  0  0  0  0  0  0  0  0  0  0  0
   -0.8180   -1.3890    0.6290 N   0  0  0  0  0  0  0  0  0  0  0  0
    4.0400    0.2040    0.1860 C   0  0  0  0  0  0  0  0  0  0  0  0
    5.3900    0.2850    0.0960 N   0  0  0  0  0  0  0  0  0  0  0  0
  1  2  1  0
  2  3  1  0
  3  4  2  0
  3 27  1  0
  4  5  1  0
  5  6  2  0
  6  7  1  0
  6 26  1  0
  7  8  1  0
  8  9  1  0
  9 10  2  0
  9 25  1  0
 10 11  1  0
 11 12  2  3
 11 18  1  0
 12 13  1  0
 13 14  2  0
 13 17  1  0
 14 15  1  0
 15 16  2  0
 16 17  2  0
 18 19  1  0
 19 20  2  0
 19 24  1  0
 20 21  1  0
 21 22  2  0
 22 23  1  0
 23 24  2  0
 24 25  1  0
 26 27  2  0
M  END
