
     RDKit          3D

 17 17  0  0  0  0  0  0  0  0999 V2000
    5.3870   -1.2380    0.3350 C   0  0  0  0  0  0  0  0  0  0  0  0
    4.3510   -0.3600    0.0110 O   0  0  0  0  0  0  0  0  0  0  0  0
    3.0550   -0.6160    0.3810 C   0  0  0  0  0  0  0  0  0  0  0  0
    2.7230   -1.6310    1.0200 O   0  0  0  0  0  0  0  0  0  0  0  0
    1.9900    0.3610    0.0060 C   0  0  1  0  0  0  0  0  0  0  0  0
    2.0560    0.4830   -1.5130 C   0  0  0  0  0  0  0  0  0  0  0  0
    0.7490   -0.0300    0.4440 O   0  0  0  0  0  0  0  0  0  0  0  0
    0.1950    0.9520    1.2310 C   0  0  0  0  0  0  0  0  0  0  0  0
   -1.0890    0.6030    1.7120 O   0  0  0  0  0  0  0  0  0  0  0  0
   -2.1420    0.3290    0.8470 C   0  0  0  0  0  0  0  0  0  0  0  0
   -2.6370   -0.8750    0.8220 C   0  0  0  0  0  0  0  0  0  0  0  0
   -3.7580   -1.2230   -0.0790 C   0  0  2  0  0  0  0  0  0  0  0  0
   -3.3600   -2.3070   -0.9770 N   0  0  0  0  0  0  0  0  0  0  0  0
   -4.2070   -0.1690   -0.8640 O   0  0  0  0  0  0  0  0  0  0  0  0
   -3.6830    1.0910   -0.8330 C   0  0  0  0  0  0  0  0  0  0  0  0
   -2.6800    1.3720   -0.0160 C   0  0  0  0  0  0  0  0  0  0  0  0
   -2.0920    2.6620    0.0630 N   0  0  0  0  0  0  0  0  0  0  0  0
  1  2  1  0
  2  3  1  0
  3  4  2  0
  3  5  1  0
  5  6  1  6
  5  7  1  0
  7  8  1  0
  8  9  1  0
  9 10  1  0
 10 11  2  0
 10 16  1  0
 11 12  1  0
 12 13  1  6
 12 14  1  0
 14 15  1  0
 15 16  2  0
 16 17  1  0
M  END
