
     RDKit          3D

 19 20  0  0  0  0  0  0  0  0999 V2000
   -2.8860   -3.0400   -1.1870 O   0  0  0  0  0  0  0  0  0  0  0  0
   -2.7510   -1.9900   -0.5260 C   0  0  0  0  0  0  0  0  0  0  0  0
   -1.5510   -1.3320   -0.3240 O   0  0  0  0  0  0  0  0  0  0  0  0
   -1.7880   -0.1100    0.3760 C   0  0  2  0  0  0  0  0  0  0  0  0
   -2.0300    1.0240   -0.5800 C   0  0  0  0  0  0  0  0  0  0  0  0
   -1.0030    2.1320   -0.3940 C   0  0  0  0  0  0  0  0  0  0  0  0
    0.4050    1.5770   -0.4230 C   0  0  0  0  0  0  0  0  0  0  0  0
    0.5140    0.5370    0.5610 N   0  0  0  0  0  0  0  0  0  0  0  0
    1.7010   -0.1870    0.8200 C   0  0  0  0  0  0  0  0  0  0  0  0
    1.7310   -1.0870    1.6960 O   0  0  0  0  0  0  0  0  0  0  0  0
    2.8890    0.0950    0.0880 N   0  0  0  0  0  0  0  0  0  0  0  0
    4.1290   -0.6050    0.3040 C   0  0  0  0  0  0  0  0  0  0  0  0
    5.1600   -0.0420   -0.6450 C   0  0  0  0  0  0  0  0  0  0  0  0
    4.6940   -0.2420   -1.9610 O   0  0  0  0  0  0  0  0  0  0  0  0
   -0.6860    0.2240    1.3280 C   0  0  0  0  0  0  0  0  0  0  0  0
   -3.0220   -0.4410    1.1760 C   0  0  2  0  0  0  0  0  0  0  0  0
   -2.6620   -1.3030    2.2010 O   0  0  0  0  0  0  0  0  0  0  0  0
   -3.8260   -1.2570    0.1580 C   0  0  1  0  0  0  0  0  0  0  0  0
   -4.4920   -0.3850   -0.7160 O   0  0  0  0  0  0  0  0  0  0  0  0
  1  2  2  0
  2  3  1  0
  2 18  1  0
  3  4  1  0
  4  5  1  6
  4 15  1  0
  4 16  1  0
  5  6  1  0
  6  7  1  0
  7  8  1  0
  8  9  1  0
  8 15  1  0
  9 10  2  0
  9 11  1  0
 11 12  1  0
 12 13  1  0
 13 14  1  0
 16 17  1  1
 16 18  1  0
 18 19  1  6
M  END
