
     RDKit          3D

 19 19  0  0  0  0  0  0  0  0999 V2000
    2.2550    3.1580   -1.2360 O   0  0  0  0  0  0  0  0  0  0  0  0
    1.5030    2.2910   -0.7050 C   0  0  0  0  0  0  0  0  0  0  0  0
    1.9350    1.7820    0.6360 C   0  0  0  0  0  0  0  0  0  0  0  0
    3.0590    1.0240    0.4950 O   0  0  0  0  0  0  0  0  0  0  0  0
    3.3550   -0.2790    0.4450 C   0  0  0  0  0  0  0  0  0  0  0  0
    4.1980   -0.6630   -0.4170 O   0  0  0  0  0  0  0  0  0  0  0  0
    2.7960   -1.2780    1.2880 N   0  0  0  0  0  0  0  0  0  0  0  0
    1.4420   -1.4100    1.6700 C   0  0  0  0  0  0  0  0  0  0  0  0
    0.3820   -1.4740    0.8880 C   0  0  0  0  0  0  0  0  0  0  0  0
    0.4120   -1.4190   -0.6100 C   0  0  1  0  0  0  0  0  0  0  0  0
    0.2440   -2.8330   -1.0910 C   0  0  0  0  0  0  0  0  0  0  0  0
    1.2460   -3.6630   -0.5840 O   0  0  0  0  0  0  0  0  0  0  0  0
   -0.4120   -0.5000   -0.9670 O   0  0  0  0  0  0  0  0  0  0  0  0
   -1.2540    0.2930   -0.4160 C   0  0  2  0  0  0  0  0  0  0  0  0
   -2.7280    0.0640   -0.5270 C   0  0  0  0  0  0  0  0  0  0  0  0
   -3.4570    1.1640    0.2250 C   0  0  0  0  0  0  0  0  0  0  0  0
   -3.1140    1.1890    1.5750 O   0  0  0  0  0  0  0  0  0  0  0  0
   -0.9810    1.7310   -0.8610 C   0  0  0  0  0  0  0  0  0  0  0  0
    0.3590    1.8860   -1.3930 N   0  0  0  0  0  0  0  0  0  0  0  0
  1  2  2  0
  2  3  1  0
  2 19  1  0
  3  4  1  0
  4  5  1  0
  5  6  2  0
  5  7  1  0
  7  8  1  0
  8  9  2  0
  9 10  1  0
 10 11  1  6
 10 13  1  0
 11 12  1  0
 13 14  1  0
 14 15  1  6
 14 18  1  0
 15 16  1  0
 16 17  1  0
 18 19  1  0
M  END
