
     RDKit          3D

 19 20  0  0  0  0  0  0  0  0999 V2000
    0.3080    1.0890    0.3400 O   0  0  0  0  0  0  0  0  0  0  0  0
   -0.0190   -0.1020    0.4230 C   0  0  0  0  0  0  0  0  0  0  0  0
   -1.3620   -0.4320    0.7380 N   0  0  0  0  0  0  0  0  0  0  0  0
   -2.4280    0.4850    0.9740 C   0  0  0  0  0  0  0  0  0  0  0  0
   -2.7880    1.3960   -0.1450 C   0  0  2  0  0  0  0  0  0  0  0  0
   -1.8100    2.2390   -0.5910 O   0  0  0  0  0  0  0  0  0  0  0  0
   -4.0460    2.1590    0.2890 C   0  0  0  0  0  0  0  0  0  0  0  0
   -5.1590    1.2110   -0.0280 C   0  0  0  0  0  0  0  0  0  0  0  0
   -4.7380    0.5130   -1.1720 O   0  0  0  0  0  0  0  0  0  0  0  0
   -3.3610    0.6130   -1.2940 C   0  0  0  0  0  0  0  0  0  0  0  0
   -2.7170    0.1060   -2.2460 O   0  0  0  0  0  0  0  0  0  0  0  0
    0.9860   -1.0780    0.1940 N   0  0  0  0  0  0  0  0  0  0  0  0
    2.3450   -0.7770   -0.1240 C   0  0  1  0  0  0  0  0  0  0  0  0
    3.3210   -1.2560    0.9150 C   0  0  0  0  0  0  0  0  0  0  0  0
    4.7210   -0.8740    0.5120 C   0  0  0  0  0  0  0  0  0  0  0  0
    5.1150   -1.4480   -0.8230 C   0  0  0  0  0  0  0  0  0  0  0  0
    3.9670   -1.9390   -1.5320 O   0  0  0  0  0  0  0  0  0  0  0  0
    2.7640   -1.2610   -1.4590 C   0  0  0  0  0  0  0  0  0  0  0  0
    2.0210   -1.0360   -2.4420 O   0  0  0  0  0  0  0  0  0  0  0  0
  1  2  2  0
  2  3  1  0
  2 12  1  0
  3  4  1  0
  4  5  1  0
  5  6  1  6
  5  7  1  0
  5 10  1  0
  7  8  1  0
  8  9  1  0
  9 10  1  0
 10 11  2  0
 13 12  1  1
 13 14  1  0
 13 18  1  0
 14 15  1  0
 15 16  1  0
 16 17  1  0
 17 18  1  0
 18 19  2  0
M  END
