
     RDKit          3D

 19 19  0  0  0  0  0  0  0  0999 V2000
   -5.2970    1.0890    0.6780 C   0  0  0  0  0  0  0  0  0  0  0  0
   -4.3780    0.1280    0.2040 O   0  0  0  0  0  0  0  0  0  0  0  0
   -3.0090    0.3460    0.1480 C   0  0  0  0  0  0  0  0  0  0  0  0
   -2.6200    1.4740    0.5500 O   0  0  0  0  0  0  0  0  0  0  0  0
   -2.0940   -0.7070   -0.3620 C   0  0  1  0  0  0  0  0  0  0  0  0
   -2.6170   -1.2130   -1.6830 C   0  0  0  0  0  0  0  0  0  0  0  0
   -2.5080   -0.3070   -2.7080 O   0  0  0  0  0  0  0  0  0  0  0  0
   -0.7630   -0.3580   -0.3640 O   0  0  0  0  0  0  0  0  0  0  0  0
    0.2570   -0.9150    0.3400 C   0  0  0  0  0  0  0  0  0  0  0  0
   -0.0220   -1.8760    1.1010 O   0  0  0  0  0  0  0  0  0  0  0  0
    1.6160   -0.4020    0.2040 C   0  0  0  0  0  0  0  0  0  0  0  0
    1.8640    0.6170   -0.6130 C   0  0  0  0  0  0  0  0  0  0  0  0
    0.8280    1.2790   -1.4110 C   0  0  0  0  0  0  0  0  0  0  0  0
    3.2120    1.0480   -0.6840 N   0  0  0  0  0  0  0  0  0  0  0  0
    4.3450    0.1740   -0.4390 C   0  0  0  0  0  0  0  0  0  0  0  0
    3.9220   -1.0890    0.0990 N   0  0  0  0  0  0  0  0  0  0  0  0
    2.7620   -0.9760    0.9540 C   0  0  1  0  0  0  0  0  0  0  0  0
    3.1110   -0.1500    2.1330 C   0  0  0  0  0  0  0  0  0  0  0  0
    4.2130    0.3230    2.2950 O   0  0  0  0  0  0  0  0  0  0  0  0
  1  2  1  0
  2  3  1  0
  3  4  2  0
  3  5  1  0
  5  6  1  6
  5  8  1  0
  6  7  1  0
  8  9  1  0
  9 10  2  0
  9 11  1  0
 11 12  2  0
 11 17  1  0
 12 13  1  0
 12 14  1  0
 14 15  1  0
 15 16  1  0
 16 17  1  0
 17 18  1  1
 18 19  2  0
M  END
