
     RDKit          3D

 19 20  0  0  0  0  0  0  0  0999 V2000
   -5.1910   -2.3530   -0.0690 O   0  0  0  0  0  0  0  0  0  0  0  0
   -4.6230   -1.2220    0.0540 C   0  0  0  0  0  0  0  0  0  0  0  0
   -3.2960   -1.1410    0.7200 C   0  0  0  0  0  0  0  0  0  0  0  0
   -2.4380   -0.2330   -0.1350 C   0  0  2  0  0  0  0  0  0  0  0  0
   -1.1090   -0.0800    0.3750 N   0  0  0  0  0  0  0  0  0  0  0  0
   -0.0110   -0.2850   -0.4930 C   0  0  0  0  0  0  0  0  0  0  0  0
   -0.2100   -0.5970   -1.6920 O   0  0  0  0  0  0  0  0  0  0  0  0
    1.3380   -0.1330    0.0130 C   0  0  0  0  0  0  0  0  0  0  0  0
    1.5380    0.1820    1.2240 O   0  0  0  0  0  0  0  0  0  0  0  0
    2.4200   -0.3450   -0.8820 N   0  0  0  0  0  0  0  0  0  0  0  0
    3.7290   -0.1940   -0.3790 C   0  0  0  0  0  0  0  0  0  0  0  0
    4.6470    0.6550   -0.7960 C   0  0  0  0  0  0  0  0  0  0  0  0
    5.8390    0.3950    0.0750 C   0  0  0  0  0  0  0  0  0  0  0  0
    5.6580   -0.9390    0.4830 O   0  0  0  0  0  0  0  0  0  0  0  0
    4.2990   -1.0020    0.7470 C   0  0  0  0  0  0  0  0  0  0  0  0
   -3.0990    1.1510   -0.0630 C   0  0  2  0  0  0  0  0  0  0  0  0
   -3.2340    1.5690    1.2580 O   0  0  0  0  0  0  0  0  0  0  0  0
   -4.4660    1.1180   -0.7110 C   0  0  0  0  0  0  0  0  0  0  0  0
   -5.1800   -0.0460   -0.4040 O   0  0  0  0  0  0  0  0  0  0  0  0
  1  2  2  0
  2  3  1  0
  2 19  1  0
  3  4  1  0
  4  5  1  1
  4 16  1  0
  5  6  1  0
  6  7  2  0
  6  8  1  0
  8  9  2  0
  8 10  1  0
 10 11  1  0
 11 12  2  0
 11 15  1  0
 12 13  1  0
 13 14  1  0
 14 15  1  0
 16 17  1  1
 16 18  1  0
 18 19  1  0
M  END
