
     RDKit          3D

 21 22  0  0  0  0  0  0  0  0999 V2000
   -2.6130    0.5540    1.7630 C   0  0  0  0  0  0  0  0  0  0  0  0
   -3.4390   -0.4350    1.0090 C   0  0  0  0  0  0  0  0  0  0  0  0
   -3.1970   -0.5230   -0.4570 C   0  0  1  0  0  0  0  0  0  0  0  0
   -1.7950   -0.9090   -0.7390 C   0  0  0  0  0  0  0  0  0  0  0  0
   -1.5390   -2.0500   -1.2690 O   0  0  0  0  0  0  0  0  0  0  0  0
   -0.6560   -0.1160   -0.4760 N   0  0  0  0  0  0  0  0  0  0  0  0
    0.6430   -0.5530   -0.7690 N   0  0  0  0  0  0  0  0  0  0  0  0
    1.7830    0.0740   -0.2020 C   0  0  0  0  0  0  0  0  0  0  0  0
    1.6240    1.0240    0.5690 O   0  0  0  0  0  0  0  0  0  0  0  0
    3.1180   -0.3780   -0.5070 N   0  0  0  0  0  0  0  0  0  0  0  0
    4.2410    0.2640    0.0730 C   0  0  0  0  0  0  0  0  0  0  0  0
    5.2140    0.8680   -0.5920 C   0  0  0  0  0  0  0  0  0  0  0  0
    6.2260    1.4300    0.3540 C   0  0  0  0  0  0  0  0  0  0  0  0
    5.6860    1.0580    1.6610 C   0  0  0  0  0  0  0  0  0  0  0  0
    4.5500    0.3900    1.4920 C   0  0  0  0  0  0  0  0  0  0  0  0
   -4.1030   -1.5890   -0.9370 N   0  0  0  0  0  0  0  0  0  0  0  0
   -5.2410   -0.9950   -1.5270 C   0  0  0  0  0  0  0  0  0  0  0  0
   -6.3230   -1.5700   -1.8470 O   0  0  0  0  0  0  0  0  0  0  0  0
   -4.9480    0.3990   -1.7030 N   0  0  0  0  0  0  0  0  0  0  0  0
   -3.6370    0.6540   -1.2210 C   0  0  0  0  0  0  0  0  0  0  0  0
   -3.0020    1.7390   -1.4460 O   0  0  0  0  0  0  0  0  0  0  0  0
  1  2  1  0
  3  2  1  1
  3  4  1  0
  3 16  1  0
  3 20  1  0
  4  5  2  0
  4  6  1  0
  6  7  1  0
  7  8  1  0
  8  9  2  0
  8 10  1  0
 10 11  1  0
 11 12  2  0
 11 15  1  0
 12 13  1  0
 13 14  1  0
 14 15  2  0
 16 17  1  0
 17 18  2  0
 17 19  1  0
 19 20  1  0
 20 21  2  0
M  END
