
     RDKit          3D

 21 22  0  0  0  0  0  0  0  0999 V2000
   -2.6510    1.2320    1.2170 C   0  0  0  0  0  0  0  0  0  0  0  0
   -3.6190    0.3400    0.5180 C   0  0  0  0  0  0  0  0  0  0  0  0
   -4.8820    0.6800    0.4470 C   0  0  0  0  0  0  0  0  0  0  0  0
   -5.7860   -0.1420   -0.2000 O   0  0  0  0  0  0  0  0  0  0  0  0
   -5.4930   -1.3610   -0.8100 C   0  0  0  0  0  0  0  0  0  0  0  0
   -4.0680   -1.7010   -0.7070 C   0  0  0  0  0  0  0  0  0  0  0  0
   -3.2100   -0.9010   -0.0880 C   0  0  0  0  0  0  0  0  0  0  0  0
   -1.8300   -1.2710   -0.0070 N   0  0  0  0  0  0  0  0  0  0  0  0
   -0.7670   -0.5170   -0.5520 C   0  0  0  0  0  0  0  0  0  0  0  0
   -1.0560    0.5500   -1.1490 O   0  0  0  0  0  0  0  0  0  0  0  0
    0.6360   -0.9500   -0.4350 C   0  0  0  0  0  0  0  0  0  0  0  0
    0.9030   -2.0130    0.1610 O   0  0  0  0  0  0  0  0  0  0  0  0
    1.6990   -0.1950   -0.9810 N   0  0  0  0  0  0  0  0  0  0  0  0
    3.0970   -0.6150   -0.8710 C   0  0  1  0  0  0  0  0  0  0  0  0
    3.6070   -0.8170   -2.2830 C   0  0  0  0  0  0  0  0  0  0  0  0
    3.9030    0.4310   -0.2080 C   0  0  0  0  0  0  0  0  0  0  0  0
    4.8060    0.2000    0.7580 N   0  0  0  0  0  0  0  0  0  0  0  0
    5.3530    1.3340    1.1410 N   0  0  0  0  0  0  0  0  0  0  0  0
    4.8150    2.3390    0.4300 C   0  0  0  0  0  0  0  0  0  0  0  0
    5.1220    3.5510    0.5540 O   0  0  0  0  0  0  0  0  0  0  0  0
    3.9160    1.7670   -0.4050 N   0  0  0  0  0  0  0  0  0  0  0  0
  1  2  1  0
  2  3  2  0
  2  7  1  0
  3  4  1  0
  4  5  1  0
  5  6  1  0
  6  7  2  0
  7  8  1  0
  8  9  1  0
  9 10  2  0
  9 11  1  0
 11 12  2  0
 11 13  1  0
 13 14  1  0
 14 15  1  6
 14 16  1  0
 16 17  2  0
 16 21  1  0
 17 18  1  0
 18 19  1  0
 19 20  2  0
 19 21  1  0
M  END
