
     RDKit          3D

 21 22  0  0  0  0  0  0  0  0999 V2000
   -2.3190   -0.4610    1.6180 C   0  0  0  0  0  0  0  0  0  0  0  0
   -1.4420    0.1200    0.5200 C   0  0  2  0  0  0  0  0  0  0  0  0
   -2.1900    1.2160   -0.0920 N   0  0  0  0  0  0  0  0  0  0  0  0
   -1.7480    2.4900   -0.4290 C   0  0  0  0  0  0  0  0  0  0  0  0
   -2.5280    3.1240   -1.2600 O   0  0  0  0  0  0  0  0  0  0  0  0
   -0.5920    3.1870   -0.0050 N   0  0  0  0  0  0  0  0  0  0  0  0
    0.7610    2.7870   -0.0680 C   0  0  0  0  0  0  0  0  0  0  0  0
    1.5360    2.9540    0.9170 O   0  0  0  0  0  0  0  0  0  0  0  0
    1.4220    2.1520   -1.2380 C   0  0  0  0  0  0  0  0  0  0  0  0
    2.7400    1.6710   -0.8970 N   0  0  0  0  0  0  0  0  0  0  0  0
    3.1960    0.3580   -1.1360 C   0  0  0  0  0  0  0  0  0  0  0  0
    4.3660    0.2540   -1.6570 O   0  0  0  0  0  0  0  0  0  0  0  0
    2.3880   -0.8620   -0.8120 C   0  0  0  0  0  0  0  0  0  0  0  0
    1.8010   -0.7490    0.4980 N   0  0  0  0  0  0  0  0  0  0  0  0
    1.3560   -1.7870    1.3230 C   0  0  0  0  0  0  0  0  0  0  0  0
    1.6010   -1.5910    2.5930 O   0  0  0  0  0  0  0  0  0  0  0  0
    0.6950   -2.9900    0.9890 N   0  0  0  0  0  0  0  0  0  0  0  0
   -0.5470   -3.1860    0.3540 C   0  0  0  0  0  0  0  0  0  0  0  0
   -1.2790   -2.2780   -0.2550 C   0  0  0  0  0  0  0  0  0  0  0  0
   -2.3990   -1.5940   -1.0250 C   0  0  0  0  0  0  0  0  0  0  0  0
   -1.1170   -0.9010   -0.5320 C   0  0  1  0  0  0  0  0  0  0  0  0
  2  1  1  1
  2  3  1  0
  2 21  1  0
  3  4  1  0
  4  5  2  0
  4  6  1  0
  6  7  1  0
  7  8  2  0
  7  9  1  0
  9 10  1  0
 10 11  1  0
 11 12  2  0
 11 13  1  0
 13 14  1  0
 14 15  1  0
 15 16  2  0
 15 17  1  0
 17 18  1  0
 18 19  2  0
 19 20  1  0
 19 21  1  0
 21 20  1  6
M  END
