
     RDKit          3D

 21 23  0  0  0  0  0  0  0  0999 V2000
    2.2010   -4.0010   -0.5170 O   0  0  0  0  0  0  0  0  0  0  0  0
    1.6470   -2.8630   -0.2370 C   0  0  0  0  0  0  0  0  0  0  0  0
    0.4110   -2.6570   -0.9010 N   0  0  0  0  0  0  0  0  0  0  0  0
   -0.8440   -2.3070   -0.2630 C   0  0  0  0  0  0  0  0  0  0  0  0
   -0.9850   -0.8120   -0.2660 C   0  0  1  0  0  0  0  0  0  0  0  0
   -2.4540   -0.4390   -0.3170 C   0  0  2  0  0  0  0  0  0  0  0  0
   -2.9120    0.9500   -0.3210 C   0  0  0  0  0  0  0  0  0  0  0  0
   -3.0880    0.0880    0.8900 C   0  0  0  0  0  0  0  0  0  0  0  0
   -0.2840   -0.1920    0.7770 O   0  0  0  0  0  0  0  0  0  0  0  0
    0.0140    1.1890    0.8060 C   0  0  0  0  0  0  0  0  0  0  0  0
   -0.2290    2.0240    1.8220 C   0  0  0  0  0  0  0  0  0  0  0  0
    0.2450    3.3660    1.4110 C   0  0  0  0  0  0  0  0  0  0  0  0
    0.7530    3.1430    0.0940 N   0  0  0  0  0  0  0  0  0  0  0  0
    0.6360    1.8920   -0.2900 C   0  0  0  0  0  0  0  0  0  0  0  0
    1.0700    1.2940   -1.5730 C   0  0  0  0  0  0  0  0  0  0  0  0
    0.4660    1.7370   -2.6130 O   0  0  0  0  0  0  0  0  0  0  0  0
    2.0650    0.3060   -1.7630 N   0  0  0  0  0  0  0  0  0  0  0  0
    3.0370   -0.0930   -0.8390 N   0  0  0  0  0  0  0  0  0  0  0  0
    2.8870   -0.7230    0.4290 C   0  0  0  0  0  0  0  0  0  0  0  0
    3.2950   -0.0880    1.4900 O   0  0  0  0  0  0  0  0  0  0  0  0
    2.3200   -2.0170    0.6540 N   0  0  0  0  0  0  0  0  0  0  0  0
  1  2  2  0
  2  3  1  0
  2 21  1  0
  3  4  1  0
  5  4  1  1
  5  6  1  0
  5  9  1  0
  6  7  1  6
  6  8  1  0
  7  8  1  0
  9 10  1  0
 10 11  2  0
 10 14  1  0
 11 12  1  0
 12 13  1  0
 13 14  2  0
 14 15  1  0
 15 16  2  0
 15 17  1  0
 17 18  1  0
 18 19  1  0
 19 20  2  0
 19 21  1  0
M  END
