
     RDKit          3D

 21 22  0  0  0  0  0  0  0  0999 V2000
   -1.4330   -1.7190   -1.0440 C   0  0  0  0  0  0  0  0  0  0  0  0
   -1.4980   -0.2710   -0.7170 C   0  0  0  0  0  0  0  0  0  0  0  0
   -2.4870    0.0270    0.1000 C   0  0  0  0  0  0  0  0  0  0  0  0
   -3.4120   -0.9330    0.6260 C   0  0  0  0  0  0  0  0  0  0  0  0
   -3.5020   -2.3270    0.4300 N   0  0  0  0  0  0  0  0  0  0  0  0
   -4.3350   -0.4590    1.4250 O   0  0  0  0  0  0  0  0  0  0  0  0
   -2.7340    1.3550    0.5640 N   0  0  0  0  0  0  0  0  0  0  0  0
   -2.3300    2.5890    0.0130 C   0  0  0  0  0  0  0  0  0  0  0  0
   -2.6340    3.6530    0.6170 O   0  0  0  0  0  0  0  0  0  0  0  0
   -1.5700    2.8160   -1.2260 C   0  0  0  0  0  0  0  0  0  0  0  0
   -1.6330    3.9310   -1.7910 O   0  0  0  0  0  0  0  0  0  0  0  0
   -0.7470    1.7860   -1.8150 N   0  0  0  0  0  0  0  0  0  0  0  0
   -0.4240    0.4790   -1.3990 C   0  0  1  0  0  0  0  0  0  0  0  0
    0.7550    0.6080   -0.5340 C   0  0  0  0  0  0  0  0  0  0  0  0
    1.0950    1.5980    0.1810 O   0  0  0  0  0  0  0  0  0  0  0  0
    1.6950   -0.3890   -0.3870 N   0  0  0  0  0  0  0  0  0  0  0  0
    2.8870   -0.2620    0.3840 C   0  0  0  0  0  0  0  0  0  0  0  0
    3.3480   -1.3700    0.7570 N   0  0  0  0  0  0  0  0  0  0  0  0
    4.5460   -1.2530    1.5180 C   0  0  0  0  0  0  0  0  0  0  0  0
    4.8670    0.1930    1.4480 C   0  0  0  0  0  0  0  0  0  0  0  0
    3.8550    0.7120    0.7910 C   0  0  0  0  0  0  0  0  0  0  0  0
  1  2  1  0
  2  3  2  0
  2 13  1  0
  3  4  1  0
  3  7  1  0
  4  5  1  0
  4  6  2  0
  7  8  1  0
  8  9  2  0
  8 10  1  0
 10 11  2  0
 10 12  1  0
 12 13  1  0
 13 14  1  1
 14 15  2  0
 14 16  1  0
 16 17  1  0
 17 18  2  0
 17 21  1  0
 18 19  1  0
 19 20  1  0
 20 21  2  0
M  END
