
     RDKit          3D

 17 18  0  0  0  0  0  0  0  0999 V2000
    4.7780   -0.6770   -0.4480 O   0  0  0  0  0  0  0  0  0  0  0  0
    3.9780    0.2870   -0.4890 C   0  0  0  0  0  0  0  0  0  0  0  0
    4.5100    1.5530   -0.6780 O   0  0  0  0  0  0  0  0  0  0  0  0
    2.5560    0.0220   -0.3370 C   0  0  0  0  0  0  0  0  0  0  0  0
    1.5270    0.9350   -0.3520 C   0  0  0  0  0  0  0  0  0  0  0  0
    0.3640    0.2750   -0.1780 N   0  0  0  0  0  0  0  0  0  0  0  0
    0.6680   -1.0030   -0.0590 C   0  0  0  0  0  0  0  0  0  0  0  0
    2.0000   -1.1710   -0.1540 N   0  0  0  0  0  0  0  0  0  0  0  0
   -0.3650   -2.0320    0.1460 C   0  0  2  0  0  0  0  0  0  0  0  0
   -0.3630   -2.8180   -1.0330 O   0  0  0  0  0  0  0  0  0  0  0  0
   -1.7150   -1.5170    0.4270 C   0  0  1  0  0  0  0  0  0  0  0  0
   -1.9280   -1.6390    1.8210 O   0  0  0  0  0  0  0  0  0  0  0  0
   -2.0490   -0.1490   -0.0380 C   0  0  2  0  0  0  0  0  0  0  0  0
   -2.7720   -0.2220   -1.2480 O   0  0  0  0  0  0  0  0  0  0  0  0
   -0.9650    0.8390   -0.1280 C   0  0  1  0  0  0  0  0  0  0  0  0
   -1.0580    1.9280    0.9430 C   0  0  0  0  0  0  0  0  0  0  0  0
   -2.3790    2.4080    0.9090 O   0  0  0  0  0  0  0  0  0  0  0  0
  1  2  2  0
  2  3  1  0
  2  4  1  0
  4  5  2  0
  4  8  1  0
  5  6  1  0
  6  7  1  0
  6 15  1  0
  7  8  2  0
  7  9  1  0
  9 10  1  6
  9 11  1  0
 11 12  1  1
 11 13  1  0
 13 14  1  6
 13 15  1  0
 15 16  1  1
 16 17  1  0
M  END
