
     RDKit          3D

 21 22  0  0  0  0  0  0  0  0999 V2000
   -0.7060    2.1080    0.9750 N   0  0  0  0  0  0  0  0  0  0  0  0
   -1.5130    1.4310    0.2910 C   0  0  0  0  0  0  0  0  0  0  0  0
   -2.6150    2.1100   -0.4410 C   0  0  0  0  0  0  0  0  0  0  0  0
   -3.9050    1.3370   -0.2780 C   0  0  0  0  0  0  0  0  0  0  0  0
   -3.7540    0.1730    0.6560 C   0  0  0  0  0  0  0  0  0  0  0  0
   -2.5390   -0.6740    0.3620 C   0  0  0  0  0  0  0  0  0  0  0  0
   -2.8220   -1.9770   -0.0340 N   0  0  0  0  0  0  0  0  0  0  0  0
   -2.0890   -2.9290   -0.7530 C   0  0  0  0  0  0  0  0  0  0  0  0
   -0.9770   -2.7280   -1.2440 O   0  0  0  0  0  0  0  0  0  0  0  0
   -1.4220   -0.0430    0.2020 C   0  0  0  0  0  0  0  0  0  0  0  0
   -0.1170   -0.6420    0.3110 C   0  0  0  0  0  0  0  0  0  0  0  0
    0.0680   -1.7980    0.7340 O   0  0  0  0  0  0  0  0  0  0  0  0
    1.0250    0.0760   -0.0730 N   0  0  0  0  0  0  0  0  0  0  0  0
    2.3600   -0.5180    0.0340 C   0  0  1  0  0  0  0  0  0  0  0  0
    3.0090   -0.5870   -1.3230 C   0  0  0  0  0  0  0  0  0  0  0  0
    4.4370   -0.6160   -1.2650 N   0  0  0  0  0  0  0  0  0  0  0  0
    5.1140    0.3400   -0.4580 C   0  0  0  0  0  0  0  0  0  0  0  0
    6.2770    0.7500   -0.7460 O   0  0  0  0  0  0  0  0  0  0  0  0
    4.4400    0.8270    0.6940 N   0  0  0  0  0  0  0  0  0  0  0  0
    3.1370    0.3250    0.9590 C   0  0  0  0  0  0  0  0  0  0  0  0
    2.5810    0.6100    2.0680 O   0  0  0  0  0  0  0  0  0  0  0  0
  1  2  2  0
  2  3  1  0
  2 10  1  0
  3  4  1  0
  4  5  1  0
  5  6  1  0
  6  7  1  0
  6 10  2  0
  7  8  1  0
  8  9  2  0
 10 11  1  0
 11 12  2  0
 11 13  1  0
 14 13  1  6
 14 15  1  0
 14 20  1  0
 15 16  1  0
 16 17  1  0
 17 18  2  0
 17 19  1  0
 19 20  1  0
 20 21  2  0
M  END
