
     RDKit          3D

 16 16  0  0  0  0  0  0  0  0999 V2000
    2.4840    2.5860   -1.3000 C   0  0  0  0  0  0  0  0  0  0  0  0
    1.6580    1.5680   -0.8040 O   0  0  0  0  0  0  0  0  0  0  0  0
    2.1050    0.4150   -0.2610 C   0  0  0  0  0  0  0  0  0  0  0  0
    3.4240    0.3780   -0.2620 O   0  0  0  0  0  0  0  0  0  0  0  0
    1.4680   -0.7060    0.2820 C   0  0  0  0  0  0  0  0  0  0  0  0
    0.2620   -1.0510    0.4630 C   0  0  0  0  0  0  0  0  0  0  0  0
   -1.0780   -0.5530    0.2450 C   0  0  0  0  0  0  0  0  0  0  0  0
   -2.2040   -1.2470    0.5910 C   0  0  0  0  0  0  0  0  0  0  0  0
   -3.3960   -0.5030    0.2530 C   0  0  0  0  0  0  0  0  0  0  0  0
   -3.0700    0.6190   -0.2850 C   0  0  0  0  0  0  0  0  0  0  0  0
   -3.9330    1.6530   -0.7660 N   0  0  0  0  0  0  0  0  0  0  0  0
   -1.5880    0.6750   -0.3330 C   0  0  0  0  0  0  0  0  0  0  0  0
   -0.9610    1.6450   -0.8040 O   0  0  0  0  0  0  0  0  0  0  0  0
    2.4590   -1.7580    0.7690 C   0  0  0  0  0  0  0  0  0  0  0  0
    1.9300   -2.9170    1.3280 N   0  0  0  0  0  0  0  0  0  0  0  0
    3.6730   -1.5800    0.6670 O   0  0  0  0  0  0  0  0  0  0  0  0
  1  2  1  0
  2  3  1  0
  3  4  2  0
  3  5  1  0
  5  6  2  3
  5 14  1  0
  6  7  1  0
  7  8  2  0
  7 12  1  0
  8  9  1  0
  9 10  2  0
 10 11  1  0
 10 12  1  0
 12 13  2  0
 14 15  1  0
 14 16  2  0
M  END
