
     RDKit          3D

 16 16  0  0  0  0  0  0  0  0999 V2000
   -3.1840    1.6970    0.0520 C   0  0  0  0  0  0  0  0  0  0  0  0
   -3.1520    0.2390    0.1920 C   0  0  0  0  0  0  0  0  0  0  0  0
   -4.4540   -0.3690    0.1720 O   0  0  0  0  0  0  0  0  0  0  0  0
   -2.1320   -0.5410    0.3270 C   0  0  0  0  0  0  0  0  0  0  0  0
   -2.4460   -2.0000    0.4460 C   0  0  0  0  0  0  0  0  0  0  0  0
   -3.7800   -2.4140    0.4060 N   0  0  0  0  0  0  0  0  0  0  0  0
   -1.5260   -2.8510    0.5820 O   0  0  0  0  0  0  0  0  0  0  0  0
   -0.7400   -0.2090    0.3780 C   0  0  0  0  0  0  0  0  0  0  0  0
    0.1100   -1.1840    0.5210 O   0  0  0  0  0  0  0  0  0  0  0  0
   -0.0980    1.0390    0.2990 N   0  0  0  0  0  0  0  0  0  0  0  0
    1.3070    1.2290    0.3540 C   0  0  0  0  0  0  0  0  0  0  0  0
    2.1540    0.6350   -0.7020 C   0  0  1  0  0  0  0  0  0  0  0  0
    3.6020    1.0400   -0.3660 C   0  0  0  0  0  0  0  0  0  0  0  0
    4.1260   -0.2210    0.2880 C   0  0  0  0  0  0  0  0  0  0  0  0
    3.2450   -1.2910   -0.2780 C   0  0  0  0  0  0  0  0  0  0  0  0
    2.1550   -0.7100   -0.8650 O   0  0  0  0  0  0  0  0  0  0  0  0
  1  2  1  0
  2  3  1  0
  2  4  2  3
  4  5  1  0
  4  8  1  0
  5  6  1  0
  5  7  2  0
  8  9  2  0
  8 10  1  0
 10 11  1  0
 12 11  1  1
 12 13  1  0
 12 16  1  0
 13 14  1  0
 14 15  1  0
 15 16  1  0
M  END
