
     RDKit          3D

 16 16  0  0  0  0  0  0  0  0999 V2000
    4.6990   -0.6740    1.3180 N   0  0  0  0  0  0  0  0  0  0  0  0
    4.9360    0.0210    0.1020 C   0  0  0  0  0  0  0  0  0  0  0  0
    6.2410    0.3360   -0.2290 O   0  0  0  0  0  0  0  0  0  0  0  0
    3.9310    0.3510   -0.6840 C   0  0  0  0  0  0  0  0  0  0  0  0
    2.5600    0.0110   -0.3200 C   0  0  0  0  0  0  0  0  0  0  0  0
    1.5860    0.3510   -1.1170 C   0  0  0  0  0  0  0  0  0  0  0  0
    1.8590    1.0450   -2.3250 O   0  0  0  0  0  0  0  0  0  0  0  0
    0.1920    0.0540   -0.8350 C   0  0  0  0  0  0  0  0  0  0  0  0
   -0.7030    0.4250   -1.6730 O   0  0  0  0  0  0  0  0  0  0  0  0
   -0.2010   -0.6320    0.3360 N   0  0  0  0  0  0  0  0  0  0  0  0
   -1.5620   -0.9390    0.6680 C   0  0  0  0  0  0  0  0  0  0  0  0
   -2.4500    0.2460    0.8950 C   0  0  2  0  0  0  0  0  0  0  0  0
   -3.8380   -0.2760    1.2440 C   0  0  0  0  0  0  0  0  0  0  0  0
   -4.4690   -0.2460   -0.1540 C   0  0  0  0  0  0  0  0  0  0  0  0
   -3.8480    1.0350   -0.6690 C   0  0  0  0  0  0  0  0  0  0  0  0
   -2.5690    1.0520   -0.1820 O   0  0  0  0  0  0  0  0  0  0  0  0
  1  2  1  0
  2  3  1  0
  2  4  2  3
  4  5  1  0
  5  6  2  3
  6  7  1  0
  6  8  1  0
  8  9  2  0
  8 10  1  0
 10 11  1  0
 12 11  1  6
 12 13  1  0
 12 16  1  0
 13 14  1  0
 14 15  1  0
 15 16  1  0
M  END
