
     RDKit          3D

 16 16  0  0  0  0  0  0  0  0999 V2000
   -5.9040    0.2010    0.3680 C   0  0  0  0  0  0  0  0  0  0  0  0
   -5.3030   -0.0120   -0.9900 C   0  0  0  0  0  0  0  0  0  0  0  0
   -4.0070   -0.6200   -0.9640 N   0  0  0  0  0  0  0  0  0  0  0  0
   -2.9320    0.0130   -0.2910 C   0  0  0  0  0  0  0  0  0  0  0  0
   -3.1410    1.1010    0.2710 O   0  0  0  0  0  0  0  0  0  0  0  0
   -1.6170   -0.5700   -0.2450 N   0  0  0  0  0  0  0  0  0  0  0  0
   -0.5300    0.0860    0.4440 C   0  0  0  0  0  0  0  0  0  0  0  0
    0.7040   -0.7750    0.3080 C   0  0  2  0  0  0  0  0  0  0  0  0
    0.4030   -2.0170    0.8930 O   0  0  0  0  0  0  0  0  0  0  0  0
    1.7990   -0.1100    1.0560 C   0  0  0  0  0  0  0  0  0  0  0  0
    2.9310    0.1610    0.4350 C   0  0  0  0  0  0  0  0  0  0  0  0
    4.0140    0.8260    1.2000 C   0  0  0  0  0  0  0  0  0  0  0  0
    5.1990    0.2250    0.8670 O   0  0  0  0  0  0  0  0  0  0  0  0
    5.5050    0.1740   -0.4630 C   0  0  0  0  0  0  0  0  0  0  0  0
    4.3970    0.4790   -1.4100 C   0  0  0  0  0  0  0  0  0  0  0  0
    3.2010   -0.1270   -0.8910 O   0  0  0  0  0  0  0  0  0  0  0  0
  1  2  1  0
  2  3  1  0
  3  4  1  0
  4  5  2  0
  4  6  1  0
  6  7  1  0
  7  8  1  0
  8  9  1  1
  8 10  1  0
 10 11  2  3
 11 12  1  0
 11 16  1  0
 12 13  1  0
 13 14  1  0
 14 15  1  0
 15 16  1  0
M  END
