
     RDKit          3D

 16 16  0  0  0  0  0  0  0  0999 V2000
   -0.7760    1.5520   -0.9150 N   0  0  0  0  0  0  0  0  0  0  0  0
   -1.4870    0.7200   -0.2150 C   0  0  0  0  0  0  0  0  0  0  0  0
   -2.7770    1.1290    0.3910 C   0  0  0  0  0  0  0  0  0  0  0  0
   -3.7330    0.0080    0.5950 C   0  0  0  0  0  0  0  0  0  0  0  0
   -3.3690   -1.2690   -0.0920 C   0  0  0  0  0  0  0  0  0  0  0  0
   -1.9280   -1.6000    0.0530 C   0  0  0  0  0  0  0  0  0  0  0  0
   -1.0280   -0.6450   -0.0070 C   0  0  0  0  0  0  0  0  0  0  0  0
    0.4100   -0.9070    0.1240 C   0  0  0  0  0  0  0  0  0  0  0  0
    0.7940   -2.0940    0.3010 O   0  0  0  0  0  0  0  0  0  0  0  0
    1.3600    0.0740    0.0650 O   0  0  0  0  0  0  0  0  0  0  0  0
    2.7370   -0.2210    0.1960 C   0  0  2  0  0  0  0  0  0  0  0  0
    3.2310    0.4760    1.4400 C   0  0  0  0  0  0  0  0  0  0  0  0
    2.5080   -0.0100    2.5260 O   0  0  0  0  0  0  0  0  0  0  0  0
    3.4780    0.1980   -1.0070 C   0  0  0  0  0  0  0  0  0  0  0  0
    2.7750    0.8040   -2.0760 N   0  0  0  0  0  0  0  0  0  0  0  0
    4.7140    0.0310   -1.1070 O   0  0  0  0  0  0  0  0  0  0  0  0
  1  2  2  0
  2  3  1  0
  2  7  1  0
  3  4  1  0
  4  5  1  0
  5  6  1  0
  6  7  2  0
  7  8  1  0
  8  9  2  0
  8 10  1  0
 10 11  1  0
 11 12  1  1
 11 14  1  0
 12 13  1  0
 14 15  1  0
 14 16  2  0
M  END
