
     RDKit          3D

 18 19  0  0  0  0  0  0  0  0999 V2000
    3.6050   -0.0020   -1.7070 O   0  0  0  0  0  0  0  0  0  0  0  0
    4.1830   -0.1600   -0.6130 C   0  0  0  0  0  0  0  0  0  0  0  0
    5.5640   -0.3090   -0.5960 O   0  0  0  0  0  0  0  0  0  0  0  0
    3.4870   -0.2020    0.6980 C   0  0  0  0  0  0  0  0  0  0  0  0
    2.0340   -0.0370    0.5840 C   0  0  0  0  0  0  0  0  0  0  0  0
    1.0410   -0.9710    0.4240 C   0  0  0  0  0  0  0  0  0  0  0  0
   -0.1530   -0.3400    0.3690 N   0  0  0  0  0  0  0  0  0  0  0  0
    0.0760    0.9870    0.4940 C   0  0  0  0  0  0  0  0  0  0  0  0
    1.3980    1.1480    0.6230 N   0  0  0  0  0  0  0  0  0  0  0  0
   -1.0930    1.9340    0.4660 C   0  0  2  0  0  0  0  0  0  0  0  0
   -1.8460    1.8240    1.6160 O   0  0  0  0  0  0  0  0  0  0  0  0
   -1.8800    1.5310   -0.7800 C   0  0  1  0  0  0  0  0  0  0  0  0
   -0.9870    1.6510   -1.8510 O   0  0  0  0  0  0  0  0  0  0  0  0
   -2.3520    0.1220   -0.6610 C   0  0  2  0  0  0  0  0  0  0  0  0
   -3.6970    0.1480   -0.2830 O   0  0  0  0  0  0  0  0  0  0  0  0
   -1.5280   -0.7590    0.2170 C   0  0  1  0  0  0  0  0  0  0  0  0
   -1.6180   -2.1960   -0.2520 C   0  0  0  0  0  0  0  0  0  0  0  0
   -1.0150   -3.0690    0.6500 O   0  0  0  0  0  0  0  0  0  0  0  0
  1  2  2  0
  2  3  1  0
  2  4  1  0
  4  5  1  0
  5  6  2  0
  5  9  1  0
  6  7  1  0
  7  8  1  0
  7 16  1  0
  8  9  2  0
  8 10  1  0
 10 11  1  1
 10 12  1  0
 12 13  1  6
 12 14  1  0
 14 15  1  1
 14 16  1  0
 16 17  1  6
 17 18  1  0
M  END
