
     RDKit          3D

 16 16  0  0  0  0  0  0  0  0999 V2000
   -1.4980   -2.3180   -0.1570 C   0  0  0  0  0  0  0  0  0  0  0  0
   -2.3660   -1.3340   -0.1640 C   0  0  0  0  0  0  0  0  0  0  0  0
   -3.6430   -1.5000   -0.8970 C   0  0  0  0  0  0  0  0  0  0  0  0
   -4.4390   -0.3540   -0.7840 O   0  0  0  0  0  0  0  0  0  0  0  0
   -4.4780    0.1450    0.4880 C   0  0  0  0  0  0  0  0  0  0  0  0
   -3.1390    0.6560    0.8600 C   0  0  0  0  0  0  0  0  0  0  0  0
   -2.0910   -0.0770    0.5370 C   0  0  0  0  0  0  0  0  0  0  0  0
   -0.7800    0.3370    0.8570 N   0  0  0  0  0  0  0  0  0  0  0  0
    0.2040    0.5560   -0.1300 C   0  0  0  0  0  0  0  0  0  0  0  0
   -0.1200    0.3710   -1.3280 O   0  0  0  0  0  0  0  0  0  0  0  0
    1.6010    0.9980    0.2260 C   0  0  0  0  0  0  0  0  0  0  0  0
    2.3060    1.1230   -0.9340 O   0  0  0  0  0  0  0  0  0  0  0  0
    3.6040    1.5210   -0.8480 C   0  0  0  0  0  0  0  0  0  0  0  0
    4.4990    0.6180   -0.0950 C   0  0  0  0  0  0  0  0  0  0  0  0
    5.8710    0.9610    0.0780 N   0  0  0  0  0  0  0  0  0  0  0  0
    4.0560   -0.4450    0.3890 O   0  0  0  0  0  0  0  0  0  0  0  0
  1  2  2  0
  2  3  1  0
  2  7  1  0
  3  4  1  0
  4  5  1  0
  5  6  1  0
  6  7  2  0
  7  8  1  0
  8  9  1  0
  9 10  2  0
  9 11  1  0
 11 12  1  0
 12 13  1  0
 13 14  1  0
 14 15  1  0
 14 16  2  0
M  END
