
     RDKit          3D

 16 16  0  0  0  0  0  0  0  0999 V2000
    5.0660    1.1790    0.2560 C   0  0  0  0  0  0  0  0  0  0  0  0
    4.5650   -0.2530    0.3210 C   0  0  0  0  0  0  0  0  0  0  0  0
    3.1630   -0.2250    0.2970 O   0  0  0  0  0  0  0  0  0  0  0  0
    2.4630   -1.4180    0.3460 C   0  0  0  0  0  0  0  0  0  0  0  0
    3.0550   -2.5330    0.4120 O   0  0  0  0  0  0  0  0  0  0  0  0
    0.9910   -1.4170    0.3210 C   0  0  0  0  0  0  0  0  0  0  0  0
    0.5400   -0.0810    0.2460 O   0  0  0  0  0  0  0  0  0  0  0  0
   -0.7970    0.2810    0.2060 C   0  0  0  0  0  0  0  0  0  0  0  0
   -1.2820    1.1020    1.0790 C   0  0  0  0  0  0  0  0  0  0  0  0
   -2.6730    1.5390    1.1150 C   0  0  2  0  0  0  0  0  0  0  0  0
   -3.2190    1.2220    2.3990 O   0  0  0  0  0  0  0  0  0  0  0  0
   -3.5800    1.0020    0.0820 C   0  0  0  0  0  0  0  0  0  0  0  0
   -2.9670    0.0770   -0.8770 C   0  0  0  0  0  0  0  0  0  0  0  0
   -3.7830   -0.5050   -1.9340 N   0  0  0  0  0  0  0  0  0  0  0  0
   -1.6990   -0.2460   -0.8130 C   0  0  0  0  0  0  0  0  0  0  0  0
   -1.1940   -1.1640   -1.8030 N   0  0  0  0  0  0  0  0  0  0  0  0
  1  2  1  0
  2  3  1  0
  3  4  1  0
  4  5  2  0
  4  6  1  0
  6  7  1  0
  7  8  1  0
  8  9  2  0
  8 15  1  0
  9 10  1  0
 10 11  1  1
 10 12  1  0
 12 13  1  0
 13 14  1  0
 13 15  2  0
 15 16  1  0
M  END
