
     RDKit          3D

 10 10  0  0  0  0  0  0  0  0999 V2000
    2.5500    0.0800    0.4190 N   0  0  0  0  0  0  0  0  0  0  0  0
    1.3690   -0.7430    0.1280 C   0  0  0  0  0  0  0  0  0  0  0  0
    0.5570   -0.0360   -0.9090 C   0  0  2  0  0  0  0  0  0  0  0  0
    0.2990    1.3630   -0.4310 C   0  0  0  0  0  0  0  0  0  0  0  0
   -0.9180    1.7230   -0.0570 C   0  0  0  0  0  0  0  0  0  0  0  0
   -1.9770    0.7790   -0.1100 N   0  0  0  0  0  0  0  0  0  0  0  0
   -1.6500   -0.5930   -0.4170 C   0  0  1  0  0  0  0  0  0  0  0  0
   -1.4340   -1.3120    0.7800 O   0  0  0  0  0  0  0  0  0  0  0  0
   -2.7340   -1.2480   -1.0340 O   0  0  0  0  0  0  0  0  0  0  0  0
   -0.5860   -0.6940   -1.2840 O   0  0  0  0  0  0  0  0  0  0  0  0
  1  2  1  0
  3  2  1  1
  3  4  1  0
  3 10  1  0
  4  5  2  0
  5  6  1  0
  6  7  1  0
  7  8  1  1
  7  9  1  0
  7 10  1  0
M  CHG  1   1   1
M  END
