
     RDKit          3D

 10 10  0  0  0  0  0  0  0  0999 V2000
    2.4110   -0.9500    0.2630 N   0  0  0  0  0  0  0  0  0  0  0  0
    1.4010   -0.3290   -0.5250 C   0  0  1  0  0  0  0  0  0  0  0  0
    0.5120   -1.3510   -1.1610 C   0  0  0  0  0  0  0  0  0  0  0  0
   -0.8610   -0.9510   -0.9090 N   0  0  0  0  0  0  0  0  0  0  0  0
   -0.7450   -0.4030    0.4410 C   0  0  2  0  0  0  0  0  0  0  0  0
   -2.0140    0.3800    0.7160 C   0  0  0  0  0  0  0  0  0  0  0  0
   -2.1110    1.3940   -0.2370 O   0  0  0  0  0  0  0  0  0  0  0  0
    0.4460    0.5290    0.2610 C   0  0  1  0  0  0  0  0  0  0  0  0
    0.9590    0.9790    1.4480 O   0  0  0  0  0  0  0  0  0  0  0  0
    0.8670    2.2850    1.4850 O   0  0  0  0  0  0  0  0  0  0  0  0
  2  1  1  1
  2  3  1  0
  2  8  1  0
  3  4  1  0
  4  5  1  0
  5  6  1  6
  5  8  1  0
  6  7  1  0
  8  9  1  1
  9 10  1  0
M  CHG  1   4   1
M  END
