
     RDKit          3D

 10 10  0  0  0  0  0  0  0  0999 V2000
   -1.5910    1.7810    0.5330 N   0  0  0  0  0  0  0  0  0  0  0  0
   -1.4030    0.4070    0.1650 C   0  0  2  0  0  0  0  0  0  0  0  0
   -1.9550   -0.5450    1.1600 C   0  0  0  0  0  0  0  0  0  0  0  0
   -2.9820   -0.3840    1.8530 O   0  0  0  0  0  0  0  0  0  0  0  0
   -1.1360   -1.6620    1.2010 O   0  0  0  0  0  0  0  0  0  0  0  0
   -0.0700   -1.5140    0.2700 C   0  0  0  0  0  0  0  0  0  0  0  0
    0.0510   -0.0110    0.1420 C   0  0  2  0  0  0  0  0  0  0  0  0
    0.6670    0.4970    1.2590 O   0  0  0  0  0  0  0  0  0  0  0  0
    0.7380    0.3870   -1.1400 C   0  0  0  0  0  0  0  0  0  0  0  0
    2.1040   -0.1350   -1.0590 N   0  0  0  0  0  0  0  0  0  0  0  0
  2  1  1  1
  2  3  1  0
  2  7  1  0
  3  4  2  0
  3  5  1  0
  5  6  1  0
  6  7  1  0
  7  8  1  1
  7  9  1  0
  9 10  1  0
M  CHG  1  10   1
M  END
