
     RDKit          3D

  9  9  0  0  0  0  0  0  0  0999 V2000
    2.7620   -0.2480   -0.1940 N   0  0  0  0  0  0  0  0  0  0  0  0
    1.9820    0.6200    0.6680 C   0  0  0  0  0  0  0  0  0  0  0  0
    0.6110    0.0180    0.8410 C   0  0  1  0  0  0  0  0  0  0  0  0
   -0.2170    0.7580    1.6420 O   0  0  0  0  0  0  0  0  0  0  0  0
   -1.5230    0.5380    1.2760 C   0  0  0  0  0  0  0  0  0  0  0  0
   -1.5130   -0.4150    0.0980 C   0  0  1  0  0  0  0  0  0  0  0  0
   -2.5720   -0.1580   -0.8380 N   0  0  0  0  0  0  0  0  0  0  0  0
   -0.1430   -0.0530   -0.4720 C   0  0  2  0  0  0  0  0  0  0  0  0
    0.3400   -1.0460   -1.3060 O   0  0  0  0  0  0  0  0  0  0  0  0
  1  2  1  0
  3  2  1  6
  3  4  1  0
  3  8  1  0
  4  5  1  0
  5  6  1  0
  6  7  1  6
  6  8  1  0
  8  9  1  6
M  CHG  2   1   1   7   1
M  END
