
     RDKit          3D

  9  8  0  0  0  0  0  0  0  0999 V2000
   -2.6820    1.0790    0.6470 C   0  0  0  0  0  0  0  0  0  0  0  0
   -1.7820    0.3660   -0.2650 N   0  0  0  0  0  0  0  0  0  0  0  0
   -1.1860   -0.7150    0.4500 C   0  0  0  0  0  0  0  0  0  0  0  0
    0.2330   -1.0280    0.0190 C   0  0  1  0  0  0  0  0  0  0  0  0
    0.3340   -1.3890   -1.3550 N   0  0  0  0  0  0  0  0  0  0  0  0
    1.0960    0.1190    0.4420 C   0  0  1  0  0  0  0  0  0  0  0  0
    0.8550    0.3210    1.8180 O   0  0  0  0  0  0  0  0  0  0  0  0
    2.4400   -0.1040    0.3170 O   0  0  0  0  0  0  0  0  0  0  0  0
    2.9770    0.8940   -0.4880 C   0  0  0  0  0  0  0  0  0  0  0  0
  1  2  1  0
  2  3  1  0
  3  4  1  0
  4  5  1  6
  4  6  1  0
  6  7  1  1
  6  8  1  0
  8  9  1  0
M  CHG  2   2   1   5   1
M  END
