
     RDKit          3D

 10 10  0  0  0  0  0  0  0  0999 V2000
   -1.3720    0.8890    1.1760 N   0  0  0  0  0  0  0  0  0  0  0  0
   -0.5210   -0.2470    0.9170 C   0  0  1  0  0  0  0  0  0  0  0  0
   -1.3840   -1.3630    0.4650 C   0  0  0  0  0  0  0  0  0  0  0  0
   -1.8030   -2.2740    1.2170 O   0  0  0  0  0  0  0  0  0  0  0  0
   -1.6040   -1.1750   -0.8890 O   0  0  0  0  0  0  0  0  0  0  0  0
   -0.8280   -0.0590   -1.3560 C   0  0  0  0  0  0  0  0  0  0  0  0
    0.2840   -0.0340   -0.3700 C   0  0  2  0  0  0  0  0  0  0  0  0
    1.1420   -1.1640   -0.5780 N   0  0  0  0  0  0  0  0  0  0  0  0
    1.0720    1.2200   -0.3110 C   0  0  0  0  0  0  0  0  0  0  0  0
    1.9740    1.0880    0.7700 O   0  0  0  0  0  0  0  0  0  0  0  0
  2  1  1  6
  2  3  1  0
  2  7  1  0
  3  4  2  0
  3  5  1  0
  5  6  1  0
  6  7  1  0
  7  8  1  6
  7  9  1  0
  9 10  1  0
M  CHG  1   8   1
M  END
