
     RDKit          3D

  9  9  0  0  0  0  0  0  0  0999 V2000
    2.5370    0.4300    0.1570 N   0  0  0  0  0  0  0  0  0  0  0  0
    2.1060   -0.6740   -0.6740 C   0  0  0  0  0  0  0  0  0  0  0  0
    0.7890   -0.6010   -1.0540 O   0  0  0  0  0  0  0  0  0  0  0  0
   -0.1160   -0.5880   -0.0280 C   0  0  2  0  0  0  0  0  0  0  0  0
   -1.1170   -1.7160   -0.1430 C   0  0  0  0  0  0  0  0  0  0  0  0
   -2.2300   -1.2120   -0.7830 O   0  0  0  0  0  0  0  0  0  0  0  0
   -2.3590    0.1210   -0.4110 C   0  0  0  0  0  0  0  0  0  0  0  0
   -0.9780    0.6600   -0.1760 C   0  0  1  0  0  0  0  0  0  0  0  0
   -0.8760    1.5190    0.9670 N   0  0  0  0  0  0  0  0  0  0  0  0
  1  2  1  0
  2  3  1  0
  4  3  1  6
  4  5  1  0
  4  8  1  0
  5  6  1  0
  6  7  1  0
  7  8  1  0
  8  9  1  1
M  CHG  2   1   1   9   1
M  END
