
     RDKit          3D

  9  9  0  0  0  0  0  0  0  0999 V2000
    2.2210    0.5940    0.4520 N   0  0  0  0  0  0  0  0  0  0  0  0
    0.9720    0.2590   -0.1330 C   0  0  2  0  0  0  0  0  0  0  0  0
    1.1120   -0.0510   -1.4890 O   0  0  0  0  0  0  0  0  0  0  0  0
   -0.0310    1.3760   -0.0100 C   0  0  0  0  0  0  0  0  0  0  0  0
   -1.4130    1.0030   -0.3910 C   0  0  0  0  0  0  0  0  0  0  0  0
   -1.8530   -0.2780    0.0570 N   0  0  0  0  0  0  0  0  0  0  0  0
   -0.8600   -1.2900   -0.2930 C   0  0  0  0  0  0  0  0  0  0  0  0
    0.3510   -0.9510    0.5820 C   0  0  1  0  0  0  0  0  0  0  0  0
    1.2280   -1.9960    0.6950 O   0  0  0  0  0  0  0  0  0  0  0  0
  2  1  1  1
  2  3  1  0
  2  4  1  0
  2  8  1  0
  4  5  1  0
  5  6  1  0
  6  7  1  0
  7  8  1  0
  8  9  1  6
M  CHG  1   6   1
M  END
