
     RDKit          3D

 29 32  0  0  0  0  0  0  0  0999 V2000
   -5.2990   -2.9370   -0.6480 C   0  0  0  0  0  0  0  0  0  0  0  0
   -4.4860   -2.7420    0.5880 C   0  0  0  0  0  0  0  0  0  0  0  0
   -3.6180   -1.5660    0.5110 N   0  0  0  0  0  0  0  0  0  0  0  0
   -4.1620   -0.2650    0.3710 C   0  0  0  0  0  0  0  0  0  0  0  0
   -5.5100   -0.0980    0.3110 N   0  0  0  0  0  0  0  0  0  0  0  0
   -6.0110    1.1570    0.1770 C   0  0  0  0  0  0  0  0  0  0  0  0
   -5.1800    2.2430    0.1020 C   0  0  0  0  0  0  0  0  0  0  0  0
   -5.7730    3.6070   -0.0480 C   0  0  0  0  0  0  0  0  0  0  0  0
   -3.7930    2.0670    0.1650 C   0  0  0  0  0  0  0  0  0  0  0  0
   -3.2910    0.7930    0.3010 C   0  0  0  0  0  0  0  0  0  0  0  0
   -1.8920    0.5600    0.3700 N   0  0  0  0  0  0  0  0  0  0  0  0
   -1.1140    0.7400   -0.8420 C   0  0  0  0  0  0  0  0  0  0  0  0
    0.0410   -0.2530   -0.7770 C   0  0  0  0  0  0  0  0  0  0  0  0
    1.0670    0.1840    0.1120 N   0  0  0  0  0  0  0  0  0  0  0  0
    2.3610    0.3120   -0.4500 C   0  0  1  0  0  0  0  0  0  0  0  0
    2.3810    1.3790   -1.5210 C   0  0  0  0  0  0  0  0  0  0  0  0
    3.7330    1.6480   -2.0880 C   0  0  0  0  0  0  0  0  0  0  0  0
    4.8360    1.7200   -1.0540 C   0  0  0  0  0  0  0  0  0  0  0  0
    4.7130    0.5030   -0.2500 N   0  0  0  0  0  0  0  0  0  0  0  0
    5.7010   -0.5170   -0.2330 C   0  0  0  0  0  0  0  0  0  0  0  0
    5.9340   -1.4620   -1.1270 C   0  0  0  0  0  0  0  0  0  0  0  0
    7.0820   -2.2950   -0.6590 C   0  0  0  0  0  0  0  0  0  0  0  0
    7.4270   -1.6470    0.6260 C   0  0  0  0  0  0  0  0  0  0  0  0
    6.6410   -0.6730    0.8200 N   0  0  0  0  0  0  0  0  0  0  0  0
    3.4740    0.4230    0.5380 C   0  0  0  0  0  0  0  0  0  0  0  0
    1.0460   -0.3370    1.4290 C   0  0  0  0  0  0  0  0  0  0  0  0
   -0.2860   -0.7370    1.9600 C   0  0  0  0  0  0  0  0  0  0  0  0
   -1.3990    0.1710    1.6520 C   0  0  0  0  0  0  0  0  0  0  0  0
   -2.0140    0.6850    2.6520 O   0  0  0  0  0  0  0  0  0  0  0  0
  1  2  1  0
  2  3  1  0
  3  4  1  0
  4  5  2  0
  4 10  1  0
  5  6  1  0
  6  7  2  0
  7  8  1  0
  7  9  1  0
  9 10  2  0
 10 11  1  0
 11 12  1  0
 11 28  1  0
 12 13  1  0
 13 14  1  0
 15 14  1  1
 14 26  1  0
 15 16  1  0
 15 25  1  0
 16 17  1  0
 17 18  1  0
 18 19  1  0
 19 20  1  0
 19 25  1  0
 20 21  2  0
 20 24  1  0
 21 22  1  0
 22 23  1  0
 23 24  2  0
 26 27  1  0
 27 28  1  0
 28 29  2  0
M  CHG  1   5   1
M  END
