
     RDKit          3D

 29 33  0  0  0  0  0  0  0  0999 V2000
    0.7630    1.4930   -0.7340 O   0  0  0  0  0  0  0  0  0  0  0  0
    0.4400    0.4090   -0.1950 C   0  0  0  0  0  0  0  0  0  0  0  0
    1.4160   -0.2620    0.5830 N   0  0  0  0  0  0  0  0  0  0  0  0
    2.7280    0.3240    0.7190 C   0  0  0  0  0  0  0  0  0  0  0  0
    3.4690    0.4900   -0.5750 C   0  0  0  0  0  0  0  0  0  0  0  0
    4.7710    1.0750   -0.4010 N   0  0  0  0  0  0  0  0  0  0  0  0
    5.1320    2.3700   -0.4120 C   0  0  0  0  0  0  0  0  0  0  0  0
    6.4690    2.5210   -0.2110 C   0  0  0  0  0  0  0  0  0  0  0  0
    6.9750    1.2380   -0.0640 C   0  0  0  0  0  0  0  0  0  0  0  0
    8.2490    0.7640    0.1600 C   0  0  0  0  0  0  0  0  0  0  0  0
    8.4600   -0.5750    0.2630 C   0  0  0  0  0  0  0  0  0  0  0  0
    7.3840   -1.4280    0.1390 C   0  0  0  0  0  0  0  0  0  0  0  0
    6.1500   -0.9530   -0.0790 N   0  0  0  0  0  0  0  0  0  0  0  0
    5.9020    0.3800   -0.1880 C   0  0  0  0  0  0  0  0  0  0  0  0
   -0.8800   -0.0840   -0.3940 N   0  0  0  0  0  0  0  0  0  0  0  0
   -1.7840    0.6990   -1.2200 C   0  0  0  0  0  0  0  0  0  0  0  0
   -3.0630   -0.0680   -1.4680 C   0  0  0  0  0  0  0  0  0  0  0  0
   -3.6540   -0.4220   -0.2150 N   0  0  0  0  0  0  0  0  0  0  0  0
   -4.2310    0.6940    0.4610 C   0  0  0  0  0  0  0  0  0  0  0  0
   -5.2870    1.3460   -0.2820 N   0  0  0  0  0  0  0  0  0  0  0  0
   -5.1180    2.3630   -1.1430 C   0  0  0  0  0  0  0  0  0  0  0  0
   -6.3420    2.7270   -1.6620 C   0  0  0  0  0  0  0  0  0  0  0  0
   -7.2660    1.8870   -1.0810 C   0  0  0  0  0  0  0  0  0  0  0  0
   -6.6020    1.0370   -0.2290 C   0  0  0  0  0  0  0  0  0  0  0  0
   -2.8210   -1.2400    0.6080 C   0  0  1  0  0  0  0  0  0  0  0  0
   -3.3690   -2.6430    0.6920 C   0  0  1  0  0  0  0  0  0  0  0  0
   -2.7100   -3.6970    1.4740 C   0  0  0  0  0  0  0  0  0  0  0  0
   -4.0250   -3.0860    1.9590 C   0  0  0  0  0  0  0  0  0  0  0  0
   -1.3880   -1.3130    0.1680 C   0  0  0  0  0  0  0  0  0  0  0  0
  1  2  2  0
  2  3  1  0
  2 15  1  0
  3  4  1  0
  4  5  1  0
  5  6  1  0
  6  7  1  0
  6 14  1  0
  7  8  2  0
  8  9  1  0
  9 10  2  0
  9 14  1  0
 10 11  1  0
 11 12  2  0
 12 13  1  0
 13 14  2  0
 15 16  1  0
 15 29  1  0
 16 17  1  0
 17 18  1  0
 18 19  1  0
 18 25  1  0
 19 20  1  0
 20 21  1  0
 20 24  1  0
 21 22  2  0
 22 23  1  0
 23 24  2  0
 25 26  1  0
 25 29  1  6
 26 27  1  1
 26 28  1  0
 27 28  1  0
M  CHG  1  13   1
M  END
