
     RDKit          3D

 30 34  0  0  0  0  0  0  0  0999 V2000
    9.4920    1.9240    1.5200 F   0  0  0  0  0  0  0  0  0  0  0  0
    8.8560    2.2860    0.3390 C   0  0  1  0  0  0  0  0  0  0  0  0
    9.7300    2.0400   -0.6850 F   0  0  0  0  0  0  0  0  0  0  0  0
    7.5840    1.5050    0.2020 C   0  0  0  0  0  0  0  0  0  0  0  0
    7.5840    0.1310    0.1450 C   0  0  0  0  0  0  0  0  0  0  0  0
    6.3950   -0.5730    0.0180 C   0  0  0  0  0  0  0  0  0  0  0  0
    5.1910    0.0920   -0.0540 C   0  0  0  0  0  0  0  0  0  0  0  0
    3.9310   -0.6350   -0.1880 C   0  0  0  0  0  0  0  0  0  0  0  0
    2.7360   -0.1460   -0.2660 N   0  0  0  0  0  0  0  0  0  0  0  0
    1.7670   -1.1170   -0.3860 N   0  0  0  0  0  0  0  0  0  0  0  0
    0.3570   -0.9340   -0.2490 C   0  0  0  0  0  0  0  0  0  0  0  0
   -0.1710    0.3050    0.0310 C   0  0  0  0  0  0  0  0  0  0  0  0
   -1.4990    0.4510    0.1550 N   0  0  0  0  0  0  0  0  0  0  0  0
   -2.3550   -0.5690    0.0170 C   0  0  0  0  0  0  0  0  0  0  0  0
   -3.7710   -0.3790    0.1560 C   0  0  0  0  0  0  0  0  0  0  0  0
   -4.2800    0.7760   -0.1660 N   0  0  0  0  0  0  0  0  0  0  0  0
   -5.6180    1.2510   -0.1360 C   0  0  0  0  0  0  0  0  0  0  0  0
   -6.0290    2.4380   -0.5410 C   0  0  0  0  0  0  0  0  0  0  0  0
   -7.4830    2.5340   -0.3410 C   0  0  0  0  0  0  0  0  0  0  0  0
   -7.8750    1.2290    0.2430 C   0  0  0  0  0  0  0  0  0  0  0  0
   -6.7740    0.4730    0.3630 C   0  0  0  0  0  0  0  0  0  0  0  0
   -6.8650   -0.8200    0.8930 N   0  0  0  0  0  0  0  0  0  0  0  0
   -5.9220   -1.7550    0.3230 C   0  0  0  0  0  0  0  0  0  0  0  0
   -4.5560   -1.4840    0.6480 N   0  0  0  0  0  0  0  0  0  0  0  0
   -1.8300   -1.8040   -0.2610 C   0  0  0  0  0  0  0  0  0  0  0  0
   -0.4830   -1.9740   -0.3920 N   0  0  0  0  0  0  0  0  0  0  0  0
    2.3940   -2.3870   -0.6790 C   0  0  0  0  0  0  0  0  0  0  0  0
    3.8340   -2.1150   -0.2570 C   0  0  0  0  0  0  0  0  0  0  0  0
    5.1860    1.4700    0.0020 C   0  0  0  0  0  0  0  0  0  0  0  0
    6.3820    2.1850    0.1300 C   0  0  0  0  0  0  0  0  0  0  0  0
  2  1  1  1
  2  3  1  0
  2  4  1  0
  4  5  2  0
  4 30  1  0
  5  6  1  0
  6  7  2  0
  7  8  1  0
  7 29  1  0
  8  9  2  0
  8 28  1  0
  9 10  1  0
 10 11  1  0
 10 27  1  0
 11 12  2  0
 11 26  1  0
 12 13  1  0
 13 14  2  0
 14 15  1  0
 14 25  1  0
 15 16  2  0
 15 24  1  0
 16 17  1  0
 17 18  2  0
 17 21  1  0
 18 19  1  0
 19 20  1  0
 20 21  2  0
 21 22  1  0
 22 23  1  0
 23 24  1  0
 25 26  2  0
 27 28  1  0
 29 30  2  0
M  CHG  1  22   1
M  END
