
     RDKit          3D

 29 33  0  0  0  0  0  0  0  0999 V2000
    9.6470    1.5580    0.1040 C   0  0  0  0  0  0  0  0  0  0  0  0
    8.5680    0.6590   -0.3370 C   0  0  0  0  0  0  0  0  0  0  0  0
    7.5960    0.2150    0.4940 N   0  0  0  0  0  0  0  0  0  0  0  0
    6.7900   -0.5740   -0.2300 C   0  0  0  0  0  0  0  0  0  0  0  0
    5.5710   -1.3240    0.1600 C   0  0  0  0  0  0  0  0  0  0  0  0
    4.4190   -0.4890   -0.0610 N   0  0  1  0  0  0  0  0  0  0  0  0
    3.1770   -1.2000    0.1660 C   0  0  0  0  0  0  0  0  0  0  0  0
    2.0610   -0.3580   -0.4150 C   0  0  0  0  0  0  0  0  0  0  0  0
    2.0560    0.9400    0.2930 C   0  0  0  0  0  0  0  0  0  0  0  0
    0.9480    1.4940    0.5870 N   0  0  0  0  0  0  0  0  0  0  0  0
   -0.3300    0.9510    0.2800 C   0  0  0  0  0  0  0  0  0  0  0  0
   -1.3200    0.7650    1.1570 N   0  0  0  0  0  0  0  0  0  0  0  0
   -2.3600    0.2400    0.5150 C   0  0  0  0  0  0  0  0  0  0  0  0
   -2.0120    0.0920   -0.8050 C   0  0  0  0  0  0  0  0  0  0  0  0
   -0.7510    0.5420   -0.9090 N   0  0  0  0  0  0  0  0  0  0  0  0
   -2.7550   -0.4290   -1.9540 C   0  0  0  0  0  0  0  0  0  0  0  0
   -3.4170   -1.7540   -1.6990 C   0  0  0  0  0  0  0  0  0  0  0  0
   -3.8690   -1.9650   -0.3020 C   0  0  0  0  0  0  0  0  0  0  0  0
   -4.4770   -0.8850    0.3580 N   0  0  0  0  0  0  0  0  0  0  0  0
   -5.8600   -0.8810    0.5120 C   0  0  0  0  0  0  0  0  0  0  0  0
   -6.4790    0.2650    1.2230 C   0  0  2  0  0  0  0  0  0  0  0  0
   -8.0080    0.1470    1.3200 C   0  0  0  0  0  0  0  0  0  0  0  0
   -8.1840    1.4620    0.6010 C   0  0  0  0  0  0  0  0  0  0  0  0
   -6.7010    1.5230    0.4120 C   0  0  0  0  0  0  0  0  0  0  0  0
   -3.6490   -0.0990    1.1790 C   0  0  0  0  0  0  0  0  0  0  0  0
    3.3170    1.5880    0.6570 C   0  0  0  0  0  0  0  0  0  0  0  0
    4.4970    0.6850    0.7510 C   0  0  0  0  0  0  0  0  0  0  0  0
    7.3150   -0.5800   -1.5040 C   0  0  0  0  0  0  0  0  0  0  0  0
    8.3870    0.1720   -1.5370 O   0  0  0  0  0  0  0  0  0  0  0  0
  1  2  1  0
  2  3  2  0
  2 29  1  0
  3  4  1  0
  4  5  1  0
  4 28  2  0
  6  5  1  1
  6  7  1  0
  6 27  1  0
  7  8  1  0
  8  9  1  0
  9 10  2  3
  9 26  1  0
 10 11  1  0
 11 12  2  0
 11 15  1  0
 12 13  1  0
 13 14  2  0
 13 25  1  0
 14 15  1  0
 14 16  1  0
 16 17  1  0
 17 18  1  0
 18 19  1  0
 19 20  1  0
 19 25  1  0
 21 20  1  6
 21 22  1  0
 21 24  1  0
 22 23  1  0
 23 24  1  0
 26 27  1  0
 28 29  1  0
M  CHG  1   6   1
M  END
