
     RDKit          3D

 31 34  0  0  0  0  0  0  0  0999 V2000
   -2.9250   -1.1820   -0.8800 C   0  0  0  0  0  0  0  0  0  0  0  0
   -2.1850   -0.1510   -0.0620 C   0  0  1  0  0  0  0  0  0  0  0  0
   -3.1220    0.6800    0.7540 C   0  0  0  0  0  0  0  0  0  0  0  0
   -2.9580    0.7540    2.0050 O   0  0  0  0  0  0  0  0  0  0  0  0
   -4.1920    1.3930    0.1720 N   0  0  0  0  0  0  0  0  0  0  0  0
   -5.0660    2.1780    1.0020 C   0  0  0  0  0  0  0  0  0  0  0  0
   -6.4070    2.4410    0.4210 C   0  0  0  0  0  0  0  0  0  0  0  0
   -6.4690    2.4990   -0.9420 O   0  0  0  0  0  0  0  0  0  0  0  0
   -5.2620    2.5960   -1.5860 C   0  0  0  0  0  0  0  0  0  0  0  0
   -4.4410    1.3590   -1.2500 C   0  0  0  0  0  0  0  0  0  0  0  0
   -1.1770   -0.7720    0.7640 N   0  0  0  0  0  0  0  0  0  0  0  0
   -1.3570   -1.7480    1.8290 C   0  0  0  0  0  0  0  0  0  0  0  0
   -0.2610   -1.3630    2.7970 C   0  0  0  0  0  0  0  0  0  0  0  0
    0.9120   -1.1260    1.8830 C   0  0  2  0  0  0  0  0  0  0  0  0
    1.8460   -0.1590    2.3750 N   0  0  0  0  0  0  0  0  0  0  0  0
    3.4580   -0.7660    2.4000 S   0  0  2  0  0  0  0  0  0  0  0  0
    3.5100   -1.9790    3.2820 O   0  0  0  0  0  0  0  0  0  0  0  0
    4.3780    0.3120    2.8990 O   0  0  0  0  0  0  0  0  0  0  0  0
    3.9340   -1.1630    0.7540 C   0  0  0  0  0  0  0  0  0  0  0  0
    3.3430   -2.0510   -0.0640 N   0  0  0  0  0  0  0  0  0  0  0  0
    3.9990   -2.0650   -1.2280 N   0  0  0  0  0  0  0  0  0  0  0  0
    5.0120   -1.1900   -1.1690 C   0  0  0  0  0  0  0  0  0  0  0  0
    5.9890   -0.8990   -2.2610 C   0  0  0  0  0  0  0  0  0  0  0  0
    7.0140   -0.0570   -2.2940 C   0  0  0  0  0  0  0  0  0  0  0  0
    7.7660    0.0320   -3.4120 C   0  0  0  0  0  0  0  0  0  0  0  0
    7.4420   -0.7350   -4.4400 C   0  0  0  0  0  0  0  0  0  0  0  0
    8.1550   -0.9410   -6.1020 Cl  0  0  0  0  0  0  0  0  0  0  0  0
    5.9870   -1.6630   -3.8400 S   0  0  0  0  0  0  0  0  0  0  0  0
    4.9570   -0.6470    0.0510 N   0  0  0  0  0  0  0  0  0  0  0  0
    0.2260   -0.5410    0.6900 C   0  0  0  0  0  0  0  0  0  0  0  0
    0.7980    0.0660   -0.2430 O   0  0  0  0  0  0  0  0  0  0  0  0
  2  1  1  1
  2  3  1  0
  2 11  1  0
  3  4  2  0
  3  5  1  0
  5  6  1  0
  5 10  1  0
  6  7  1  0
  7  8  1  0
  8  9  1  0
  9 10  1  0
 11 12  1  0
 11 30  1  0
 12 13  1  0
 13 14  1  0
 14 15  1  1
 14 30  1  0
 16 15  1  6
 16 17  2  0
 16 18  2  0
 16 19  1  0
 19 20  2  0
 19 29  1  0
 20 21  1  0
 21 22  2  0
 22 23  1  0
 22 29  1  0
 23 24  2  0
 23 28  1  0
 24 25  1  0
 25 26  2  0
 26 27  1  0
 26 28  1  0
 30 31  2  0
M  END
