
     RDKit          3D

 29 33  0  0  0  0  0  0  0  0999 V2000
    5.8140   -0.7830   -0.7210 C   0  0  0  0  0  0  0  0  0  0  0  0
    5.0020   -2.0000   -0.3800 C   0  0  0  0  0  0  0  0  0  0  0  0
    3.5970   -1.8520   -0.7060 N   0  0  0  0  0  0  0  0  0  0  0  0
    2.9410   -3.0960   -0.3250 C   0  0  0  0  0  0  0  0  0  0  0  0
    2.5930   -2.9700    1.1480 C   0  0  0  0  0  0  0  0  0  0  0  0
    1.3580   -2.0980    1.2510 C   0  0  0  0  0  0  0  0  0  0  0  0
    1.4900   -0.9960    0.2280 C   0  0  1  0  0  0  0  0  0  0  0  0
    0.9590    0.2950    0.7050 C   0  0  0  0  0  0  0  0  0  0  0  0
    1.2510    0.9740    1.8620 C   0  0  0  0  0  0  0  0  0  0  0  0
    0.5290    2.1050    1.8730 N   0  0  0  0  0  0  0  0  0  0  0  0
   -0.2360    2.1830    0.7420 C   0  0  0  0  0  0  0  0  0  0  0  0
   -1.1110    3.2890    0.4520 N   0  0  0  0  0  0  0  0  0  0  0  0
   -1.9990    3.5210   -0.6230 C   0  0  0  0  0  0  0  0  0  0  0  0
   -2.7620    4.8000   -0.3570 C   0  0  0  0  0  0  0  0  0  0  0  0
   -1.8670    5.5450    0.6100 C   0  0  0  0  0  0  0  0  0  0  0  0
   -1.1820    4.4460    1.3440 C   0  0  0  0  0  0  0  0  0  0  0  0
    0.0390    1.0880    0.0590 N   0  0  0  0  0  0  0  0  0  0  0  0
   -0.5100    0.6790   -1.2140 C   0  0  0  0  0  0  0  0  0  0  0  0
   -1.7020   -0.1860   -1.1150 C   0  0  0  0  0  0  0  0  0  0  0  0
   -1.6720   -1.3560   -0.4530 N   0  0  0  0  0  0  0  0  0  0  0  0
   -2.7440   -2.1890   -0.3730 C   0  0  0  0  0  0  0  0  0  0  0  0
   -3.9150   -1.8400   -0.9870 C   0  0  0  0  0  0  0  0  0  0  0  0
   -3.9510   -0.6340   -1.6720 C   0  0  0  0  0  0  0  0  0  0  0  0
   -5.0280   -0.3070   -2.2400 O   0  0  0  0  0  0  0  0  0  0  0  0
   -2.8510    0.1340   -1.7050 N   0  0  0  0  0  0  0  0  0  0  0  0
   -4.8670   -2.7610   -0.8150 C   0  0  0  0  0  0  0  0  0  0  0  0
   -4.2840   -3.8500   -0.0000 C   0  0  0  0  0  0  0  0  0  0  0  0
   -2.9170   -3.3710    0.2220 C   0  0  0  0  0  0  0  0  0  0  0  0
    2.9980   -0.7860    0.0290 C   0  0  0  0  0  0  0  0  0  0  0  0
  1  2  1  0
  2  3  1  0
  3  4  1  0
  3 29  1  0
  4  5  1  0
  5  6  1  0
  6  7  1  0
  7  8  1  1
  7 29  1  0
  8  9  2  0
  8 17  1  0
  9 10  1  0
 10 11  2  0
 11 12  1  0
 11 17  1  0
 12 13  1  0
 12 16  1  0
 13 14  1  0
 14 15  1  0
 15 16  1  0
 17 18  1  0
 18 19  1  0
 19 20  2  0
 19 25  1  0
 20 21  1  0
 21 22  1  0
 21 28  2  0
 22 23  1  0
 22 26  2  0
 23 24  2  0
 23 25  1  0
 26 27  1  0
 27 28  1  0
M  CHG  1  10   1
M  END
