
     RDKit          3D

 30 32  0  0  0  0  0  0  0  0999 V2000
    4.8810    1.8990   -0.1670 C   0  0  0  0  0  0  0  0  0  0  0  0
    6.1000    1.7840    0.2940 C   0  0  0  0  0  0  0  0  0  0  0  0
    6.5050    0.6850    1.1290 C   0  0  0  0  0  0  0  0  0  0  0  0
    7.7800    0.6790    1.5190 C   0  0  0  0  0  0  0  0  0  0  0  0
    5.6260   -0.4270    1.5550 C   0  0  0  0  0  0  0  0  0  0  0  0
    5.7210   -1.5890    1.7680 N   0  0  0  0  0  0  0  0  0  0  0  0
    4.7600   -2.3440    2.1940 N   0  0  0  0  0  0  0  0  0  0  0  0
    3.6470   -1.9910    2.4340 C   0  0  0  0  0  0  0  0  0  0  0  0
    2.0700   -2.6330    3.0020 S   0  0  0  0  0  0  0  0  0  0  0  0
    0.7970   -1.3660    3.1240 C   0  0  0  0  0  0  0  0  0  0  0  0
    0.4710   -0.8880    1.6910 C   0  0  1  0  0  0  0  0  0  0  0  0
   -0.0170   -2.0820    0.9580 C   0  0  0  0  0  0  0  0  0  0  0  0
   -0.4510   -1.9390   -0.3830 N   0  0  0  0  0  0  0  0  0  0  0  0
   -1.5980   -1.2460   -0.7860 C   0  0  0  0  0  0  0  0  0  0  0  0
   -2.3560   -0.7160    0.0620 O   0  0  0  0  0  0  0  0  0  0  0  0
   -1.9670   -1.1040   -2.1600 N   0  0  0  0  0  0  0  0  0  0  0  0
   -3.1580   -0.3720   -2.4750 C   0  0  0  0  0  0  0  0  0  0  0  0
   -3.5330   -0.2050   -3.7620 N   0  0  0  0  0  0  0  0  0  0  0  0
   -4.6530    0.4850   -4.0280 C   0  0  0  0  0  0  0  0  0  0  0  0
   -5.0570    0.6750   -5.2180 O   0  0  0  0  0  0  0  0  0  0  0  0
   -5.4380    1.0320   -3.0340 C   0  0  0  0  0  0  0  0  0  0  0  0
   -5.0080    0.8300   -1.7380 C   0  0  0  0  0  0  0  0  0  0  0  0
   -3.8910    0.1380   -1.5450 O   0  0  0  0  0  0  0  0  0  0  0  0
   -5.8440    1.4010   -0.8880 C   0  0  0  0  0  0  0  0  0  0  0  0
   -6.9230    2.0380   -1.6620 C   0  0  0  0  0  0  0  0  0  0  0  0
   -6.5620    1.7360   -3.0740 C   0  0  0  0  0  0  0  0  0  0  0  0
   -0.2450    0.3170    1.6580 N   0  0  0  0  0  0  0  0  0  0  0  0
   -0.9230    0.7090    2.6250 O   0  0  0  0  0  0  0  0  0  0  0  0
   -0.2200    1.1240    0.5350 O   0  0  0  0  0  0  0  0  0  0  0  0
    3.8350   -0.1500    2.0030 S   0  0  0  0  0  0  0  0  0  0  0  0
  1  2  2  0
  2  3  1  0
  3  4  2  0
  3  5  1  0
  5  6  2  0
  5 30  1  0
  6  7  1  0
  7  8  2  0
  8  9  1  0
  8 30  1  0
  9 10  1  0
 11 10  1  1
 11 12  1  0
 11 27  1  0
 12 13  1  0
 13 14  1  0
 14 15  2  0
 14 16  1  0
 16 17  1  0
 17 18  2  0
 17 23  1  0
 18 19  1  0
 19 20  2  0
 19 21  1  0
 21 22  1  0
 21 26  2  0
 22 23  1  0
 22 24  2  0
 24 25  1  0
 25 26  1  0
 27 28  2  0
 27 29  1  0
M  CHG  2  27   1  29  -1
M  END
