
     RDKit          3D

 29 31  0  0  0  0  0  0  0  0999 V2000
   -0.2660   -2.9370    0.7010 C   0  0  0  0  0  0  0  0  0  0  0  0
    0.0770   -1.5010    0.9340 C   0  0  0  0  0  0  0  0  0  0  0  0
    0.4580   -1.0990    1.9960 O   0  0  0  0  0  0  0  0  0  0  0  0
   -0.0790   -0.5730   -0.2250 C   0  0  2  0  0  0  0  0  0  0  0  0
   -1.5840   -0.5820   -0.6100 C   0  0  0  0  0  0  0  0  0  0  0  0
   -2.3440   -0.1130    0.5470 C   0  0  0  0  0  0  0  0  0  0  0  0
   -1.7440    0.2150    1.5980 O   0  0  0  0  0  0  0  0  0  0  0  0
   -3.7810   -0.0090    0.5310 N   0  0  0  0  0  0  0  0  0  0  0  0
   -4.4630    0.4630    1.7110 C   0  0  0  0  0  0  0  0  0  0  0  0
   -5.4710    1.5510    1.3660 C   0  0  0  0  0  0  0  0  0  0  0  0
   -6.0420    1.3330    0.0680 N   0  0  0  0  0  0  0  0  0  0  0  0
   -6.6470    2.3780   -0.6380 C   0  0  0  0  0  0  0  0  0  0  0  0
   -7.1470    2.1890   -1.7700 O   0  0  0  0  0  0  0  0  0  0  0  0
   -5.9730    0.0080   -0.4880 C   0  0  0  0  0  0  0  0  0  0  0  0
   -4.5220   -0.3690   -0.6440 C   0  0  0  0  0  0  0  0  0  0  0  0
    0.9070   -1.1730   -1.5630 S   0  0  0  0  0  0  0  0  0  0  0  0
    2.6290   -1.0720   -1.4160 C   0  0  0  0  0  0  0  0  0  0  0  0
    3.2930   -1.9340   -2.1520 O   0  0  0  0  0  0  0  0  0  0  0  0
    3.4700   -0.2440   -0.6470 N   0  0  0  0  0  0  0  0  0  0  0  0
    2.9020    0.8200    0.1140 C   0  0  0  0  0  0  0  0  0  0  0  0
    3.8660    1.8170    0.6960 C   0  0  1  0  0  0  0  0  0  0  0  0
    4.0280    1.6050    2.0670 O   0  0  0  0  0  0  0  0  0  0  0  0
    5.2020    1.8600   -0.0150 C   0  0  0  0  0  0  0  0  0  0  0  0
    5.7110    0.4290    0.0000 C   0  0  0  0  0  0  0  0  0  0  0  0
    6.8190    0.0160    0.5600 C   0  0  0  0  0  0  0  0  0  0  0  0
    8.0340    0.9390    1.4390 Cl  0  0  0  0  0  0  0  0  0  0  0  0
    6.8780   -1.7690    0.2940 S   0  0  0  0  0  0  0  0  0  0  0  0
    5.0610   -1.9190   -0.0460 C   0  0  0  0  0  0  0  0  0  0  0  0
    4.8960   -0.5480   -0.6780 C   0  0  1  0  0  0  0  0  0  0  0  0
  1  2  1  0
  2  3  2  0
  2  4  1  0
  4  5  1  6
  4 16  1  0
  5  6  1  0
  6  7  2  0
  6  8  1  0
  8  9  1  0
  8 15  1  0
  9 10  1  0
 10 11  1  0
 11 12  1  0
 11 14  1  0
 12 13  2  0
 14 15  1  0
 16 17  1  0
 17 18  2  0
 17 19  1  0
 19 20  1  0
 19 29  1  0
 20 21  1  0
 21 22  1  1
 21 23  1  0
 23 24  1  0
 24 25  2  0
 24 29  1  0
 25 26  1  0
 25 27  1  0
 27 28  1  0
 29 28  1  1
M  END
