
     RDKit          3D

 29 31  0  0  0  0  0  0  0  0999 V2000
    7.2680    2.3580   -1.6670 C   0  0  0  0  0  0  0  0  0  0  0  0
    7.2670    0.9290   -1.3460 C   0  0  0  0  0  0  0  0  0  0  0  0
    8.3460    0.3010   -1.5410 O   0  0  0  0  0  0  0  0  0  0  0  0
    6.0870    0.2350   -0.8220 C   0  0  0  0  0  0  0  0  0  0  0  0
    4.8540    0.6280   -0.5260 C   0  0  0  0  0  0  0  0  0  0  0  0
    3.9500   -0.2600   -0.0450 C   0  0  0  0  0  0  0  0  0  0  0  0
    2.6000   -0.0370    0.3260 C   0  0  0  0  0  0  0  0  0  0  0  0
    2.0600    1.0900    0.2410 O   0  0  0  0  0  0  0  0  0  0  0  0
    1.8620   -1.0500    0.7830 N   0  0  0  0  0  0  0  0  0  0  0  0
    0.4770   -0.8010    1.1600 C   0  0  0  0  0  0  0  0  0  0  0  0
   -0.4700   -0.9900    0.0150 C   0  0  0  0  0  0  0  0  0  0  0  0
   -1.7970   -0.7340    0.4460 N   0  0  0  0  0  0  0  0  0  0  0  0
   -2.3650   -1.6570    1.3600 C   0  0  0  0  0  0  0  0  0  0  0  0
   -2.5790   -2.9680    0.6430 C   0  0  0  0  0  0  0  0  0  0  0  0
   -3.1730   -2.8110   -0.7170 C   0  0  0  0  0  0  0  0  0  0  0  0
   -3.6070   -1.4310   -1.0700 C   0  0  0  0  0  0  0  0  0  0  0  0
   -2.7100   -0.3350   -0.5860 C   0  0  1  0  0  0  0  0  0  0  0  0
   -3.5720    0.7810    0.0170 C   0  0  2  0  0  0  0  0  0  0  0  0
   -4.7060    1.2870   -1.2500 Cl  0  0  0  0  0  0  0  0  0  0  0  0
   -2.7150    1.9120    0.4920 C   0  0  0  0  0  0  0  0  0  0  0  0
   -3.6190    3.2320    1.1990 S   0  0  1  0  0  0  0  0  0  0  0  0
   -4.7700    3.9620    0.0690 C   0  0  0  0  0  0  0  0  0  0  0  0
   -4.3150    2.7880    2.4510 O   0  0  0  0  0  0  0  0  0  0  0  0
   -2.6280    4.3070    1.6010 O   0  0  0  0  0  0  0  0  0  0  0  0
    2.3030   -2.3080    0.9280 C   0  0  0  0  0  0  0  0  0  0  0  0
    1.5650   -3.2380    1.3670 O   0  0  0  0  0  0  0  0  0  0  0  0
    3.5700   -2.5510    0.5880 N   0  0  0  0  0  0  0  0  0  0  0  0
    4.3670   -1.5490    0.1150 C   0  0  0  0  0  0  0  0  0  0  0  0
    6.0440   -1.5460   -0.4090 S   0  0  0  0  0  0  0  0  0  0  0  0
  1  2  1  0
  2  3  2  0
  2  4  1  0
  4  5  2  0
  4 29  1  0
  5  6  1  0
  6  7  1  0
  6 28  2  0
  7  8  2  0
  7  9  1  0
  9 10  1  0
  9 25  1  0
 10 11  1  0
 11 12  1  0
 12 13  1  0
 12 17  1  0
 13 14  1  0
 14 15  1  0
 15 16  1  0
 17 16  1  1
 17 18  1  0
 18 19  1  6
 18 20  1  0
 20 21  1  0
 21 22  1  6
 21 23  2  0
 21 24  2  0
 25 26  2  0
 25 27  1  0
 27 28  1  0
 28 29  1  0
M  END
