
     RDKit          3D

 30 33  0  0  0  0  0  0  0  0999 V2000
   11.1840   -0.2690   -1.1490 O   0  0  0  0  0  0  0  0  0  0  0  0
   10.6470    0.8250   -1.4700 C   0  0  0  0  0  0  0  0  0  0  0  0
   11.4290    1.8210   -2.0260 O   0  0  0  0  0  0  0  0  0  0  0  0
    9.2380    1.0540   -1.2670 C   0  0  0  0  0  0  0  0  0  0  0  0
    8.7110    2.1420   -1.5910 O   0  0  0  0  0  0  0  0  0  0  0  0
    8.4410    0.0410   -0.6970 N   0  0  0  0  0  0  0  0  0  0  0  0
    7.0490    0.2510   -0.4920 C   0  0  0  0  0  0  0  0  0  0  0  0
    6.2020    1.2260   -0.7100 N   0  0  0  0  0  0  0  0  0  0  0  0
    4.9880    1.1520   -0.4250 N   0  0  0  0  0  0  0  0  0  0  0  0
    4.4600    0.0610    0.1280 C   0  0  0  0  0  0  0  0  0  0  0  0
    3.1320   -0.2530    0.5370 C   0  0  0  0  0  0  0  0  0  0  0  0
    2.8360   -1.4680    1.0990 C   0  0  0  0  0  0  0  0  0  0  0  0
    1.5730   -1.8200    1.5100 C   0  0  0  0  0  0  0  0  0  0  0  0
    0.5490   -0.8740    1.3360 C   0  0  0  0  0  0  0  0  0  0  0  0
   -0.7580   -0.9020    1.6230 N   0  0  0  0  0  0  0  0  0  0  0  0
   -1.3200    0.2580    1.2640 C   0  0  0  0  0  0  0  0  0  0  0  0
   -3.0300    0.7470    1.4230 S   0  0  0  0  0  0  0  0  0  0  0  0
   -3.9860    0.2860   -0.0460 C   0  0  1  0  0  0  0  0  0  0  0  0
   -4.0760   -1.2400   -0.1720 C   0  0  0  0  0  0  0  0  0  0  0  0
   -5.2840   -1.7280    0.6080 C   0  0  0  0  0  0  0  0  0  0  0  0
   -6.5320   -1.2460   -0.0970 C   0  0  0  0  0  0  0  0  0  0  0  0
   -6.2320   -0.0120   -0.8060 N   0  0  0  0  0  0  0  0  0  0  0  0
   -5.3960    0.7890    0.0490 C   0  0  2  0  0  0  0  0  0  0  0  0
   -5.5280    2.2380   -0.2260 C   0  0  0  0  0  0  0  0  0  0  0  0
   -4.9100    3.1270    0.3730 O   0  0  0  0  0  0  0  0  0  0  0  0
   -6.4210    2.6120   -1.2410 O   0  0  0  0  0  0  0  0  0  0  0  0
   -0.3450    1.0220    0.7440 N   0  0  0  0  0  0  0  0  0  0  0  0
    0.8090    0.3560    0.7750 C   0  0  0  0  0  0  0  0  0  0  0  0
    2.1170    0.6520    0.3770 C   0  0  0  0  0  0  0  0  0  0  0  0
    5.9060   -0.9700    0.2430 S   0  0  0  0  0  0  0  0  0  0  0  0
  1  2  2  0
  2  3  1  0
  2  4  1  0
  4  5  2  0
  4  6  1  0
  6  7  1  0
  7  8  2  0
  7 30  1  0
  8  9  1  0
  9 10  2  0
 10 11  1  0
 10 30  1  0
 11 12  2  0
 11 29  1  0
 12 13  1  0
 13 14  2  0
 14 15  1  0
 14 28  1  0
 15 16  2  0
 16 17  1  0
 16 27  1  0
 18 17  1  1
 18 19  1  0
 18 23  1  0
 19 20  1  0
 20 21  1  0
 21 22  1  0
 22 23  1  0
 23 24  1  6
 24 25  2  0
 24 26  1  0
 27 28  1  0
 28 29  2  0
M  CHG  2   3  -1  22   1
M  END
