
     RDKit          3D

 29 31  0  0  0  0  0  0  0  0999 V2000
    1.3820    5.7230    0.8560 C   0  0  0  0  0  0  0  0  0  0  0  0
    1.6110    4.2840    0.5400 N   0  0  0  0  0  0  0  0  0  0  0  0
    0.4900    3.4720    0.3440 C   0  0  0  0  0  0  0  0  0  0  0  0
   -0.6520    4.1180    0.4690 O   0  0  0  0  0  0  0  0  0  0  0  0
    0.3890    2.0960    0.0410 C   0  0  0  0  0  0  0  0  0  0  0  0
    1.2170    1.1250   -0.1500 C   0  0  0  0  0  0  0  0  0  0  0  0
    2.6550    1.4450   -0.0410 C   0  0  0  0  0  0  0  0  0  0  0  0
    3.6060    0.4190   -0.0770 N   0  0  0  0  0  0  0  0  0  0  0  0
    3.7000   -0.8050   -0.1470 C   0  0  0  0  0  0  0  0  0  0  0  0
    5.3770   -1.3970   -0.1380 S   0  0  0  0  0  0  0  0  0  0  0  0
    5.2680   -3.1790   -0.2250 C   0  0  0  0  0  0  0  0  0  0  0  0
    6.4930   -4.0150   -0.2240 C   0  0  0  0  0  0  0  0  0  0  0  0
    4.0760   -3.7360   -0.2900 C   0  0  0  0  0  0  0  0  0  0  0  0
    4.0990   -5.5160   -0.3730 Cl  0  0  0  0  0  0  0  0  0  0  0  0
    2.8090   -3.0670   -0.2950 C   0  0  0  0  0  0  0  0  0  0  0  0
    2.6250   -1.7800   -0.2330 C   0  0  0  0  0  0  0  0  0  0  0  0
    1.1790   -1.4540   -0.2720 C   0  0  0  0  0  0  0  0  0  0  0  0
    0.3600   -2.4030   -0.1190 O   0  0  0  0  0  0  0  0  0  0  0  0
    0.6130   -0.1570   -0.4680 N   0  0  0  0  0  0  0  0  0  0  0  0
   -0.6900   -0.1410   -1.0750 C   0  0  0  0  0  0  0  0  0  0  0  0
   -1.8150   -0.2700   -0.1130 C   0  0  0  0  0  0  0  0  0  0  0  0
   -1.6760   -0.4560    1.1200 O   0  0  0  0  0  0  0  0  0  0  0  0
   -3.1040   -0.1820   -0.5940 O   0  0  0  0  0  0  0  0  0  0  0  0
   -4.2340   -0.2930    0.2490 C   0  0  2  0  0  0  0  0  0  0  0  0
   -5.0890   -1.4100   -0.2840 C   0  0  0  0  0  0  0  0  0  0  0  0
   -6.3740   -1.4110    0.4970 C   0  0  0  0  0  0  0  0  0  0  0  0
   -6.6400    0.3670    0.7860 S   0  0  0  0  0  0  0  0  0  0  0  0
   -7.7630    0.9070   -0.0490 O   0  0  0  0  0  0  0  0  0  0  0  0
   -5.0500    0.9740    0.1420 C   0  0  0  0  0  0  0  0  0  0  0  0
  1  2  1  0
  2  3  1  0
  3  4  2  0
  3  5  1  0
  5  6  2  3
  6  7  1  0
  6 19  1  0
  7  8  1  0
  8  9  2  0
  9 10  1  0
  9 16  1  0
 10 11  1  0
 11 12  1  0
 11 13  2  0
 13 14  1  0
 13 15  1  0
 15 16  2  0
 16 17  1  0
 17 18  2  0
 17 19  1  0
 19 20  1  0
 20 21  1  0
 21 22  2  0
 21 23  1  0
 24 23  1  6
 24 25  1  0
 24 29  1  0
 25 26  1  0
 27 26  1  6
 27 28  2  0
 27 29  1  0
M  END
