
     RDKit          3D

 28 30  0  0  0  0  0  0  0  0999 V2000
   -5.6470   -2.0550    0.0480 C   0  0  0  0  0  0  0  0  0  0  0  0
   -4.9280   -1.2570   -0.8790 O   0  0  0  0  0  0  0  0  0  0  0  0
   -3.5510   -1.3920   -0.9820 C   0  0  0  0  0  0  0  0  0  0  0  0
   -3.0250   -2.2550   -0.2040 O   0  0  0  0  0  0  0  0  0  0  0  0
   -2.7010   -0.6320   -1.8970 C   0  0  0  0  0  0  0  0  0  0  0  0
   -2.4200    0.7660   -1.5180 C   0  0  0  0  0  0  0  0  0  0  0  0
   -1.7200    0.8850   -0.2090 C   0  0  1  0  0  0  0  0  0  0  0  0
   -0.4710    0.2320   -0.1060 N   0  0  0  0  0  0  0  0  0  0  0  0
    0.6440    0.6420   -0.9400 C   0  0  0  0  0  0  0  0  0  0  0  0
    0.8850    1.7530   -1.4510 O   0  0  0  0  0  0  0  0  0  0  0  0
    1.4970   -0.5660   -1.0860 C   0  0  0  0  0  0  0  0  0  0  0  0
    1.4850   -1.1060    0.2930 C   0  0  1  0  0  0  0  0  0  0  0  0
    2.2800   -0.3230    1.2710 C   0  0  0  0  0  0  0  0  0  0  0  0
    3.6900   -0.2100    0.9410 C   0  0  0  0  0  0  0  0  0  0  0  0
    4.5420   -1.0280    1.6110 C   0  0  0  0  0  0  0  0  0  0  0  0
    5.9210   -0.9720    1.3400 N   0  0  0  0  0  0  0  0  0  0  0  0
    6.4770   -0.5110    0.0780 C   0  0  0  0  0  0  0  0  0  0  0  0
    5.3300   -0.0410   -0.8040 C   0  0  0  0  0  0  0  0  0  0  0  0
    4.3340    0.7370    0.0290 C   0  0  0  0  0  0  0  0  0  0  0  0
    0.0310   -0.8390    0.6610 C   0  0  0  0  0  0  0  0  0  0  0  0
   -0.5740   -1.4880    1.5080 O   0  0  0  0  0  0  0  0  0  0  0  0
   -1.2710    2.7170   -0.0100 S   0  0  0  0  0  0  0  0  0  0  0  0
   -2.9190    3.1710    0.5660 C   0  0  0  0  0  0  0  0  0  0  0  0
   -3.4760    4.7010    0.6490 S   0  0  0  0  0  0  0  0  0  0  0  0
   -3.5490    1.9430    0.8980 N   0  0  0  0  0  0  0  0  0  0  0  0
   -4.9930    1.9240    1.1890 C   0  0  0  0  0  0  0  0  0  0  0  0
   -2.6430    0.8390    0.9090 C   0  0  0  0  0  0  0  0  0  0  0  0
   -2.6810   -0.0330    1.7970 O   0  0  0  0  0  0  0  0  0  0  0  0
  1  2  1  0
  2  3  1  0
  3  4  2  0
  3  5  1  0
  5  6  1  0
  7  6  1  6
  7  8  1  0
  7 22  1  0
  7 27  1  0
  8  9  1  0
  8 20  1  0
  9 10  2  0
  9 11  1  0
 11 12  1  0
 12 13  1  1
 12 20  1  0
 13 14  1  0
 14 15  2  0
 14 19  1  0
 15 16  1  0
 16 17  1  0
 17 18  1  0
 18 19  1  0
 20 21  2  0
 22 23  1  0
 23 24  2  0
 23 25  1  0
 25 26  1  0
 25 27  1  0
 27 28  2  0
M  END
