
     RDKit          3D

 29 31  0  0  0  0  0  0  0  0999 V2000
    3.6390    3.8480    0.8350 C   0  0  0  0  0  0  0  0  0  0  0  0
    3.1490    2.8190   -0.2130 C   0  0  2  0  0  0  0  0  0  0  0  0
    1.9560    2.2840    0.2770 O   0  0  0  0  0  0  0  0  0  0  0  0
    0.7570    2.5340   -0.4040 C   0  0  0  0  0  0  0  0  0  0  0  0
    0.7490    3.2400   -1.4580 O   0  0  0  0  0  0  0  0  0  0  0  0
   -0.4450    1.9350    0.1770 C   0  0  0  0  0  0  0  0  0  0  0  0
   -1.8790    2.2620   -0.9410 S   0  0  0  0  0  0  0  0  0  0  0  0
   -3.1630    1.2710   -0.2360 C   0  0  0  0  0  0  0  0  0  0  0  0
   -3.1970    0.8820    0.9300 O   0  0  0  0  0  0  0  0  0  0  0  0
   -4.2540    0.8560   -1.0350 N   0  0  0  0  0  0  0  0  0  0  0  0
   -5.2730    0.1110   -0.4190 C   0  0  0  0  0  0  0  0  0  0  0  0
   -5.9620   -0.6600   -1.0340 N   0  0  0  0  0  0  0  0  0  0  0  0
   -6.9440   -1.3860   -0.3260 C   0  0  0  0  0  0  0  0  0  0  0  0
   -7.0830   -2.6870   -0.2170 C   0  0  0  0  0  0  0  0  0  0  0  0
   -8.1710   -3.3170    0.5680 C   0  0  0  0  0  0  0  0  0  0  0  0
   -9.0970   -4.3370   -0.5900 Cl  0  0  0  0  0  0  0  0  0  0  0  0
   -7.8220   -0.3880    0.3860 C   0  0  0  0  0  0  0  0  0  0  0  0
   -6.3030    0.4260    1.1050 S   0  0  0  0  0  0  0  0  0  0  0  0
    4.2070    1.7990   -0.3770 C   0  0  0  0  0  0  0  0  0  0  0  0
    5.3440    2.2070   -0.7870 O   0  0  0  0  0  0  0  0  0  0  0  0
    3.9870    0.4380   -0.0970 N   0  0  0  0  0  0  0  0  0  0  0  0
    2.7600   -0.1590    0.3360 C   0  0  0  0  0  0  0  0  0  0  0  0
    3.0160   -1.6420    0.5390 C   0  0  0  0  0  0  0  0  0  0  0  0
    4.4220   -1.8690    0.1850 C   0  0  0  0  0  0  0  0  0  0  0  0
    5.1470   -2.9720    0.1750 C   0  0  0  0  0  0  0  0  0  0  0  0
    6.4780   -2.9670   -0.1990 O   0  0  0  0  0  0  0  0  0  0  0  0
    7.1330   -1.7780   -0.5630 C   0  0  0  0  0  0  0  0  0  0  0  0
    6.2670   -0.5770   -0.5400 C   0  0  0  0  0  0  0  0  0  0  0  0
    4.9990   -0.5910   -0.1910 C   0  0  0  0  0  0  0  0  0  0  0  0
  2  1  1  1
  2  3  1  0
  2 19  1  0
  3  4  1  0
  4  5  2  0
  4  6  1  0
  6  7  1  0
  7  8  1  0
  8  9  2  0
  8 10  1  0
 10 11  1  0
 11 12  2  0
 11 18  1  0
 12 13  1  0
 13 14  2  3
 13 17  1  0
 14 15  1  0
 15 16  1  0
 17 18  1  0
 19 20  2  0
 19 21  1  0
 21 22  1  0
 21 29  1  0
 22 23  1  0
 23 24  1  0
 24 25  2  0
 24 29  1  0
 25 26  1  0
 26 27  1  0
 27 28  1  0
 28 29  2  0
M  END
