
     RDKit          3D

 31 33  0  0  0  0  0  0  0  0999 V2000
   -2.3990    4.0060    1.9630 O   0  0  0  0  0  0  0  0  0  0  0  0
   -2.6520    2.9800    1.3050 C   0  0  0  0  0  0  0  0  0  0  0  0
   -1.6610    2.0940    0.8560 O   0  0  0  0  0  0  0  0  0  0  0  0
   -2.1100    1.1450   -0.1050 C   0  0  1  0  0  0  0  0  0  0  0  0
   -2.3910    1.7770   -1.4040 C   0  0  0  0  0  0  0  0  0  0  0  0
   -2.8700    1.1140   -2.3370 O   0  0  0  0  0  0  0  0  0  0  0  0
   -2.1120    3.1150   -1.5830 O   0  0  0  0  0  0  0  0  0  0  0  0
   -1.1790    0.0150   -0.2650 C   0  0  0  0  0  0  0  0  0  0  0  0
    0.0710    0.0290   -0.3820 N   0  0  0  0  0  0  0  0  0  0  0  0
    0.9370    1.0580   -0.3980 O   0  0  0  0  0  0  0  0  0  0  0  0
    2.6040    0.6360    0.1060 P   0  0  0  0  0  0  0  0  0  0  0  0
    2.3910   -0.0560    1.7120 O   0  0  0  0  0  0  0  0  0  0  0  0
    3.1890   -0.6240   -0.9700 O   0  0  0  0  0  0  0  0  0  0  0  0
    4.3670   -1.6170   -0.1700 P   0  0  0  0  0  0  0  0  0  0  0  0
    3.7880   -2.3810    1.2410 O   0  0  0  0  0  0  0  0  0  0  0  0
    5.9110   -0.7700    0.0510 N   0  0  0  0  0  0  0  0  0  0  0  0
    7.2220   -1.3500   -0.2090 C   0  0  0  0  0  0  0  0  0  0  0  0
    7.9760   -0.1170   -0.7210 C   0  0  0  0  0  0  0  0  0  0  0  0
    7.5150    0.8770    0.1930 O   0  0  0  0  0  0  0  0  0  0  0  0
    6.1840    0.5580    0.4980 C   0  0  0  0  0  0  0  0  0  0  0  0
    5.3520    1.2900    1.0670 O   0  0  0  0  0  0  0  0  0  0  0  0
   -1.9680   -1.1700   -0.2620 N   0  0  0  0  0  0  0  0  0  0  0  0
   -3.1520   -0.9230    0.1720 C   0  0  0  0  0  0  0  0  0  0  0  0
   -4.1580   -1.9260    0.2830 N   0  0  0  0  0  0  0  0  0  0  0  0
   -4.3010   -3.2480   -0.9220 P   0  0  0  0  0  0  0  0  0  0  0  0
   -5.7860   -2.9820   -1.7790 O   0  0  0  0  0  0  0  0  0  0  0  0
   -4.2260   -4.8150   -0.1990 O   0  0  0  0  0  0  0  0  0  0  0  0
   -3.2450    0.4780    0.5000 N   0  0  0  0  0  0  0  0  0  0  0  0
   -4.2330    1.1580    1.2710 C   0  0  0  0  0  0  0  0  0  0  0  0
   -4.0610    2.6550    0.9680 C   0  0  1  0  0  0  0  0  0  0  0  0
   -4.9580    3.4050    1.7520 O   0  0  0  0  0  0  0  0  0  0  0  0
  1  2  2  0
  2  3  1  0
  2 30  1  0
  3  4  1  0
  4  5  1  6
  4  8  1  0
  4 28  1  0
  5  6  2  0
  5  7  1  0
  8  9  2  3
  8 22  1  0
  9 10  1  0
 10 11  1  0
 11 12  1  0
 11 13  1  0
 13 14  1  0
 14 15  1  0
 14 16  1  0
 16 17  1  0
 16 20  1  0
 17 18  1  0
 18 19  1  0
 19 20  1  0
 20 21  2  0
 22 23  2  0
 23 24  1  0
 23 28  1  0
 24 25  1  0
 25 26  1  0
 25 27  1  0
 28 29  1  0
 29 30  1  0
 30 31  1  1
M  END
