
     RDKit          3D

 31 32  0  0  0  0  0  0  0  0999 V2000
   -1.2640   -0.0640    1.4370 N   0  0  0  0  0  0  0  0  0  0  0  0
   -1.8220    0.0290    0.2780 C   0  0  0  0  0  0  0  0  0  0  0  0
   -1.2930   -0.7460   -0.7780 N   0  0  0  0  0  0  0  0  0  0  0  0
   -0.2760   -0.1650   -1.6250 C   0  0  0  0  0  0  0  0  0  0  0  0
    0.9690    0.0100   -0.8540 C   0  0  0  0  0  0  0  0  0  0  0  0
    1.8360   -0.9460   -0.7360 N   0  0  0  0  0  0  0  0  0  0  0  0
    2.9270   -0.5530    0.0370 N   0  0  0  0  0  0  0  0  0  0  0  0
    4.0530   -1.3910    0.3500 C   0  0  1  0  0  0  0  0  0  0  0  0
    5.4050   -0.8090    0.1470 C   0  0  0  0  0  0  0  0  0  0  0  0
    5.7830   -1.4730    1.3520 O   0  0  0  0  0  0  0  0  0  0  0  0
    4.4620   -1.4310    1.7520 C   0  0  0  0  0  0  0  0  0  0  0  0
    3.8950   -1.4300    2.8640 O   0  0  0  0  0  0  0  0  0  0  0  0
    2.7180    0.7880    0.4450 C   0  0  0  0  0  0  0  0  0  0  0  0
    3.5100    1.4360    1.1560 O   0  0  0  0  0  0  0  0  0  0  0  0
    1.3950    1.2270   -0.1420 C   0  0  1  0  0  0  0  0  0  0  0  0
    1.6870    2.1780   -1.1310 O   0  0  0  0  0  0  0  0  0  0  0  0
    1.1510    3.3420   -0.8930 O   0  0  0  0  0  0  0  0  0  0  0  0
    1.1810    4.3400   -2.3030 P   0  0  0  0  0  0  0  0  0  0  0  0
    1.7820    5.7750   -2.3190 O   0  0  0  0  0  0  0  0  0  0  0  0
   -1.7490   -2.1120   -1.0230 C   0  0  0  0  0  0  0  0  0  0  0  0
   -1.4230   -3.2410    0.3910 P   0  0  0  0  0  0  0  0  0  0  0  0
   -1.8800   -2.6230    1.9150 O   0  0  0  0  0  0  0  0  0  0  0  0
    0.1940   -3.8650    0.3720 O   0  0  0  0  0  0  0  0  0  0  0  0
   -2.9380    0.8950    0.1420 N   0  0  0  0  0  0  0  0  0  0  0  0
   -4.0750    0.6070    0.9800 C   0  0  0  0  0  0  0  0  0  0  0  0
   -5.1210    1.3260    0.9320 O   0  0  0  0  0  0  0  0  0  0  0  0
   -4.0880   -0.4510    1.8710 O   0  0  0  0  0  0  0  0  0  0  0  0
   -5.1620   -0.6600    2.6110 O   0  0  0  0  0  0  0  0  0  0  0  0
   -3.0640    2.2740   -0.9580 P   0  0  0  0  0  0  0  0  0  0  0  0
   -1.9150    3.5110   -0.7170 O   0  0  0  0  0  0  0  0  0  0  0  0
   -3.3210    1.8360   -2.5910 O   0  0  0  0  0  0  0  0  0  0  0  0
  1  2  2  0
  2  3  1  0
  2 24  1  0
  3  4  1  0
  3 20  1  0
  4  5  1  0
  5  6  2  0
  5 15  1  0
  6  7  1  0
  8  7  1  1
  7 13  1  0
  8  9  1  0
  8 11  1  0
  9 10  1  0
 10 11  1  0
 11 12  2  0
 13 14  2  0
 13 15  1  0
 15 16  1  6
 16 17  1  0
 17 18  1  0
 18 19  2  0
 20 21  1  0
 21 22  1  0
 21 23  1  0
 24 25  1  0
 24 29  1  0
 25 26  2  0
 25 27  1  0
 27 28  1  0
 29 30  1  0
 29 31  1  0
M  END
