
     RDKit          3D

 30 31  0  0  0  0  0  0  0  0999 V2000
    3.7100   -2.6450    4.3900 O   0  0  0  0  0  0  0  0  0  0  0  0
    4.3580   -2.3540    3.0200 P   0  0  0  0  0  0  0  0  0  0  0  0
    3.5660   -1.2590    1.8190 N   0  0  0  0  0  0  0  0  0  0  0  0
    2.1600   -0.9580    1.9170 C   0  0  0  0  0  0  0  0  0  0  0  0
    1.5590   -1.4750    2.8740 O   0  0  0  0  0  0  0  0  0  0  0  0
    1.4250   -0.1000    0.9560 C   0  0  1  0  0  0  0  0  0  0  0  0
    2.0440    1.2060    0.6290 C   0  0  0  0  0  0  0  0  0  0  0  0
    3.3640    0.9290    0.1570 O   0  0  0  0  0  0  0  0  0  0  0  0
    4.0210    2.3550   -0.5560 P   0  0  0  0  0  0  0  0  0  0  0  0
    3.2770    2.5680   -2.1380 O   0  0  0  0  0  0  0  0  0  0  0  0
    5.7230    2.3270   -0.7430 O   0  0  0  0  0  0  0  0  0  0  0  0
    1.3700   -0.8000   -0.3590 N   0  0  0  0  0  0  0  0  0  0  0  0
    0.3200   -0.0380   -0.9830 C   0  0  0  0  0  0  0  0  0  0  0  0
    0.2800    0.4820   -2.1240 O   0  0  0  0  0  0  0  0  0  0  0  0
   -0.7040   -0.0540    0.0900 C   0  0  1  0  0  0  0  0  0  0  0  0
   -1.5140    1.1500    0.3310 C   0  0  0  0  0  0  0  0  0  0  0  0
   -2.5990    1.4460   -0.4670 O   0  0  0  0  0  0  0  0  0  0  0  0
   -3.4620    2.5330   -0.0630 C   0  0  0  0  0  0  0  0  0  0  0  0
   -3.1890    3.1790    0.9220 O   0  0  0  0  0  0  0  0  0  0  0  0
   -4.6200    2.7300   -0.8750 O   0  0  0  0  0  0  0  0  0  0  0  0
   -5.7390    3.9870   -0.2850 P   0  0  0  0  0  0  0  0  0  0  0  0
   -5.3870    4.8780    0.9500 O   0  0  0  0  0  0  0  0  0  0  0  0
   -1.5230   -1.2760   -0.1240 C   0  0  0  0  0  0  0  0  0  0  0  0
   -2.0320   -2.0120    0.7870 N   0  0  0  0  0  0  0  0  0  0  0  0
   -2.8250   -3.1640    0.4910 C   0  0  0  0  0  0  0  0  0  0  0  0
   -3.2770   -3.8470    1.4840 O   0  0  0  0  0  0  0  0  0  0  0  0
   -3.0930   -3.5280   -0.8400 N   0  0  0  0  0  0  0  0  0  0  0  0
   -2.2990   -2.9380   -1.8970 C   0  0  0  0  0  0  0  0  0  0  0  0
   -1.7890   -1.6170   -1.5050 N   0  0  0  0  0  0  0  0  0  0  0  0
    0.0920   -0.1280    1.2490 O   0  0  0  0  0  0  0  0  0  0  0  0
  1  2  2  0
  2  3  1  0
  3  4  1  0
  4  5  2  0
  4  6  1  0
  6  7  1  6
  6 12  1  0
  6 30  1  0
  7  8  1  0
  8  9  1  0
  9 10  1  0
  9 11  1  0
 12 13  1  0
 13 14  2  0
 13 15  1  0
 15 16  1  1
 15 23  1  0
 15 30  1  0
 16 17  1  0
 17 18  1  0
 18 19  2  0
 18 20  1  0
 20 21  1  0
 21 22  2  0
 23 24  2  0
 23 29  1  0
 24 25  1  0
 25 26  2  0
 25 27  1  0
 27 28  1  0
 28 29  1  0
M  END
