
     RDKit          3D

 30 31  0  0  0  0  0  0  0  0999 V2000
    4.5360   -1.1890    0.6430 N   0  0  0  0  0  0  0  0  0  0  0  0
    4.8270   -0.0030    1.1030 C   0  0  0  0  0  0  0  0  0  0  0  0
    3.6490    0.7100    1.5980 N   0  0  0  0  0  0  0  0  0  0  0  0
    2.5530    0.2560    0.8990 O   0  0  0  0  0  0  0  0  0  0  0  0
    2.0450    1.0340   -0.0740 C   0  0  0  0  0  0  0  0  0  0  0  0
    2.4560    2.1710   -0.2300 O   0  0  0  0  0  0  0  0  0  0  0  0
    0.9870    0.5430   -1.0280 C   0  0  1  0  0  0  0  0  0  0  0  0
    1.9040    0.4840   -2.3220 C   0  0  0  0  0  0  0  0  0  0  0  0
    1.1130    0.1710   -3.3690 O   0  0  0  0  0  0  0  0  0  0  0  0
    0.3370   -0.9420   -3.0140 C   0  0  0  0  0  0  0  0  0  0  0  0
    1.0800   -1.5840   -1.9890 O   0  0  0  0  0  0  0  0  0  0  0  0
    0.6960   -0.9470   -0.8160 C   0  0  2  0  0  0  0  0  0  0  0  0
   -0.7770   -1.1240   -0.6910 C   0  0  0  0  0  0  0  0  0  0  0  0
   -1.4800   -2.1740   -1.0410 N   0  0  0  0  0  0  0  0  0  0  0  0
   -2.7590   -2.0130   -0.7870 O   0  0  0  0  0  0  0  0  0  0  0  0
   -2.9100   -0.8350   -0.2680 C   0  0  0  0  0  0  0  0  0  0  0  0
   -4.0730   -0.1550    0.1690 C   0  0  1  0  0  0  0  0  0  0  0  0
   -4.2020   -0.0340    1.6910 C   0  0  0  0  0  0  0  0  0  0  0  0
   -4.3980   -1.4120    2.0970 O   0  0  0  0  0  0  0  0  0  0  0  0
   -5.6660   -1.3970    2.6060 O   0  0  0  0  0  0  0  0  0  0  0  0
   -4.6960    1.3610   -0.5790 P   0  0  0  0  0  0  0  0  0  0  0  0
   -4.9650    1.1980   -2.3210 O   0  0  0  0  0  0  0  0  0  0  0  0
   -6.7490    1.7800    0.2810 P   0  0  0  0  0  0  0  0  0  0  0  0
   -7.6270    0.3090    0.0430 O   0  0  0  0  0  0  0  0  0  0  0  0
   -6.5770    1.9760    2.0070 O   0  0  0  0  0  0  0  0  0  0  0  0
   -1.6520   -0.2380   -0.1940 N   0  0  0  0  0  0  0  0  0  0  0  0
    6.1100    0.5050    1.1130 N   0  0  0  0  0  0  0  0  0  0  0  0
    7.4800   -0.6340    1.3610 P   0  0  0  0  0  0  0  0  0  0  0  0
    8.4260   -0.8630   -0.0310 O   0  0  0  0  0  0  0  0  0  0  0  0
    8.4240   -0.1140    2.7300 O   0  0  0  0  0  0  0  0  0  0  0  0
  1  2  2  0
  2  3  1  0
  2 27  1  0
  3  4  1  0
  4  5  1  0
  5  6  2  0
  7  5  1  1
  7  8  1  0
  7 12  1  0
  8  9  1  0
  9 10  1  0
 10 11  1  0
 11 12  1  0
 12 13  1  6
 13 14  2  0
 13 26  1  0
 14 15  1  0
 15 16  1  0
 16 17  1  0
 16 26  2  0
 17 18  1  1
 17 21  1  0
 18 19  1  0
 19 20  1  0
 21 22  1  0
 21 23  1  0
 23 24  1  0
 23 25  1  0
 27 28  1  0
 28 29  1  0
 28 30  1  0
M  END
