
     RDKit          3D

 30 31  0  0  0  0  0  0  0  0999 V2000
    8.2940    3.0110   -2.6640 O   0  0  0  0  0  0  0  0  0  0  0  0
    7.4690    1.7170   -2.6690 P   0  0  0  0  0  0  0  0  0  0  0  0
    6.5080    1.3110   -1.1990 N   0  0  0  0  0  0  0  0  0  0  0  0
    5.4140    0.4320   -1.3540 C   0  0  0  0  0  0  0  0  0  0  0  0
    5.1370   -0.0380   -2.4760 O   0  0  0  0  0  0  0  0  0  0  0  0
    4.5590    0.0380   -0.1880 C   0  0  1  0  0  0  0  0  0  0  0  0
    3.5710   -0.8290   -0.6430 O   0  0  0  0  0  0  0  0  0  0  0  0
    2.2490   -0.5840   -0.7970 N   0  0  0  0  0  0  0  0  0  0  0  0
    1.4190   -0.6050    0.1550 C   0  0  0  0  0  0  0  0  0  0  0  0
    1.6970   -0.8670    1.4440 N   0  0  0  0  0  0  0  0  0  0  0  0
    0.7370   -0.8710    2.4150 C   0  0  0  0  0  0  0  0  0  0  0  0
    1.0380   -1.1210    3.6090 O   0  0  0  0  0  0  0  0  0  0  0  0
   -0.5280   -0.6000    2.0490 N   0  0  0  0  0  0  0  0  0  0  0  0
   -0.8790   -0.3300    0.7850 C   0  0  0  0  0  0  0  0  0  0  0  0
    0.0930   -0.3280   -0.1900 C   0  0  0  0  0  0  0  0  0  0  0  0
   -0.5530   -0.0260   -1.3570 O   0  0  0  0  0  0  0  0  0  0  0  0
   -1.8780    0.0240   -1.1870 O   0  0  0  0  0  0  0  0  0  0  0  0
   -2.1170   -0.0150    0.1250 N   0  0  0  0  0  0  0  0  0  0  0  0
   -3.3630    0.2130    0.7660 C   0  0  0  0  0  0  0  0  0  0  0  0
   -3.4460    0.1460    2.0170 O   0  0  0  0  0  0  0  0  0  0  0  0
   -4.5960    0.5340    0.0100 C   0  0  1  0  0  0  0  0  0  0  0  0
   -4.9340   -0.5860   -0.9460 C   0  0  0  0  0  0  0  0  0  0  0  0
   -6.4770   -0.1240   -1.8550 P   0  0  0  0  0  0  0  0  0  0  0  0
   -7.9070   -0.5770   -1.0210 O   0  0  0  0  0  0  0  0  0  0  0  0
   -6.5060    1.5330   -2.3220 O   0  0  0  0  0  0  0  0  0  0  0  0
   -5.9980    0.8600    1.1500 P   0  0  0  0  0  0  0  0  0  0  0  0
   -7.0570    1.9300    0.7760 O   0  0  0  0  0  0  0  0  0  0  0  0
    5.3890   -0.6530    0.8260 C   0  0  0  0  0  0  0  0  0  0  0  0
    6.3510   -0.0350    1.3980 O   0  0  0  0  0  0  0  0  0  0  0  0
    5.2090   -1.9660    1.2290 O   0  0  0  0  0  0  0  0  0  0  0  0
  1  2  2  0
  2  3  1  0
  3  4  1  0
  4  5  2  0
  4  6  1  0
  6  7  1  6
  6 28  1  0
  7  8  1  0
  8  9  2  3
  9 10  1  0
  9 15  1  0
 10 11  1  0
 11 12  2  0
 11 13  1  0
 13 14  1  0
 14 15  2  0
 14 18  1  0
 15 16  1  0
 16 17  1  0
 17 18  1  0
 18 19  1  0
 19 20  2  0
 19 21  1  0
 21 22  1  6
 21 26  1  0
 22 23  1  0
 23 24  1  0
 23 25  1  0
 26 27  2  0
 28 29  2  0
 28 30  1  0
M  END
