
     RDKit          3D

 30 31  0  0  0  0  0  0  0  0999 V2000
    4.3540   -1.4390   -0.6990 N   0  0  0  0  0  0  0  0  0  0  0  0
    3.0770   -1.3340   -0.5520 C   0  0  0  0  0  0  0  0  0  0  0  0
    2.2610   -1.8390   -1.5950 N   0  0  0  0  0  0  0  0  0  0  0  0
    2.9710   -2.0100   -3.2340 P   0  0  0  0  0  0  0  0  0  0  0  0
    3.6420   -0.4740   -3.6840 O   0  0  0  0  0  0  0  0  0  0  0  0
    4.2500   -3.1710   -3.2130 O   0  0  0  0  0  0  0  0  0  0  0  0
    2.4480   -0.7480    0.5780 N   0  0  0  0  0  0  0  0  0  0  0  0
    1.0340   -0.8360    0.7350 C   0  0  0  0  0  0  0  0  0  0  0  0
    0.2980   -0.0320   -0.2920 C   0  0  0  0  0  0  0  0  0  0  0  0
    0.9980    0.5960   -1.1260 O   0  0  0  0  0  0  0  0  0  0  0  0
   -1.1210   -0.0000   -0.2970 N   0  0  0  0  0  0  0  0  0  0  0  0
   -1.9260    0.7450   -1.2450 C   0  0  0  0  0  0  0  0  0  0  0  0
   -3.3770    0.4820   -0.8160 C   0  0  1  0  0  0  0  0  0  0  0  0
   -3.7870    1.4540    0.0600 O   0  0  0  0  0  0  0  0  0  0  0  0
   -4.2740    0.4080   -2.0350 C   0  0  0  0  0  0  0  0  0  0  0  0
   -4.3070    1.6290   -2.7760 N   0  0  0  0  0  0  0  0  0  0  0  0
   -3.2530   -0.8530   -0.1530 C   0  0  2  0  0  0  0  0  0  0  0  0
   -4.3330   -1.2680    0.5370 O   0  0  0  0  0  0  0  0  0  0  0  0
   -4.5380   -0.8450    1.8010 C   0  0  0  0  0  0  0  0  0  0  0  0
   -3.5770    0.0410    2.3180 O   0  0  0  0  0  0  0  0  0  0  0  0
   -2.3050    0.1770    1.7850 C   0  0  0  0  0  0  0  0  0  0  0  0
   -1.5040    1.0060    2.2700 O   0  0  0  0  0  0  0  0  0  0  0  0
   -1.9780   -0.7040    0.6360 C   0  0  2  0  0  0  0  0  0  0  0  0
    3.3880    0.1190    1.8440 P   0  0  0  0  0  0  0  0  0  0  0  0
    4.7960   -0.7620    2.3040 O   0  0  0  0  0  0  0  0  0  0  0  0
    5.7980    0.1020    2.3690 O   0  0  0  0  0  0  0  0  0  0  0  0
    3.7690    1.7000    1.2950 O   0  0  0  0  0  0  0  0  0  0  0  0
    3.9170    2.8260    2.6080 P   0  0  0  0  0  0  0  0  0  0  0  0
    2.5550    3.8930    2.6640 O   0  0  0  0  0  0  0  0  0  0  0  0
    4.0590    1.9060    4.0740 O   0  0  0  0  0  0  0  0  0  0  0  0
  1  2  2  0
  2  3  1  0
  2  7  1  0
  3  4  1  0
  4  5  1  0
  4  6  1  0
  7  8  1  0
  7 24  1  0
  8  9  1  0
  9 10  2  0
  9 11  1  0
 11 12  1  0
 23 11  1  6
 12 13  1  0
 13 14  1  1
 13 15  1  0
 13 17  1  0
 15 16  1  0
 17 18  1  1
 17 23  1  0
 18 19  1  0
 19 20  1  0
 20 21  1  0
 21 22  2  0
 21 23  1  0
 24 25  1  0
 24 27  1  0
 25 26  1  0
 27 28  1  0
 28 29  1  0
 28 30  1  0
M  END
