
     RDKit          3D

 31 33  0  0  0  0  0  0  0  0999 V2000
   -7.2510    2.3220   -1.1450 N   0  0  0  0  0  0  0  0  0  0  0  0
   -6.5780    1.2480   -0.5840 C   0  0  0  0  0  0  0  0  0  0  0  0
   -7.2070    0.1620   -0.0720 N   0  0  0  0  0  0  0  0  0  0  0  0
   -6.5640   -0.8640    0.4580 C   0  0  0  0  0  0  0  0  0  0  0  0
   -5.2000   -0.8800    0.5000 N   0  0  0  0  0  0  0  0  0  0  0  0
   -4.5040    0.1460    0.0100 C   0  0  0  0  0  0  0  0  0  0  0  0
   -5.1870    1.2020   -0.5290 C   0  0  0  0  0  0  0  0  0  0  0  0
   -4.2730    2.0990   -0.9600 N   0  0  0  0  0  0  0  0  0  0  0  0
   -3.0650    1.6140   -0.6890 C   0  0  0  0  0  0  0  0  0  0  0  0
   -3.1720    0.4170   -0.0900 N   0  0  0  0  0  0  0  0  0  0  0  0
   -2.1960   -0.5000    0.3800 C   0  0  2  0  0  0  0  0  0  0  0  0
   -0.9110    0.0750    0.2000 O   0  0  0  0  0  0  0  0  0  0  0  0
   -0.0580   -0.9490    0.6690 C   0  0  2  0  0  0  0  0  0  0  0  0
    1.3090   -0.6930   -0.0200 C   0  0  0  0  0  0  0  0  0  0  0  0
    1.3810    0.7130    0.0990 O   0  0  0  0  0  0  0  0  0  0  0  0
    2.6050    1.2760    1.0460 P   0  0  1  0  0  0  0  0  0  0  0  0
    1.8130    2.3020    1.9990 O   0  0  0  0  0  0  0  0  0  0  0  0
    3.1170    0.1020    2.1760 O   0  0  0  0  0  0  0  0  0  0  0  0
    3.7910    2.1900    0.3760 O   0  0  0  0  0  0  0  0  0  0  0  0
    5.0000    1.3140   -0.3790 P   0  0  2  0  0  0  0  0  0  0  0  0
    4.9930    1.6400   -1.8530 O   0  0  0  0  0  0  0  0  0  0  0  0
    4.8000   -0.3450   -0.1480 O   0  0  0  0  0  0  0  0  0  0  0  0
    6.4730    1.7460    0.3110 O   0  0  0  0  0  0  0  0  0  0  0  0
    7.7070    0.7010   -0.2440 P   0  0  2  0  0  0  0  0  0  0  0  0
    7.3910    0.3440   -1.6890 O   0  0  0  0  0  0  0  0  0  0  0  0
    7.7850   -0.6720    0.7400 O   0  0  0  0  0  0  0  0  0  0  0  0
    9.2000    1.4980   -0.2170 O   0  0  0  0  0  0  0  0  0  0  0  0
   -0.6360   -2.2270    0.2250 C   0  0  1  0  0  0  0  0  0  0  0  0
   -1.0460   -2.9220    1.3810 O   0  0  0  0  0  0  0  0  0  0  0  0
   -1.9590   -1.7620   -0.4510 C   0  0  1  0  0  0  0  0  0  0  0  0
   -2.9590   -2.6640   -0.3560 O   0  0  0  0  0  0  0  0  0  0  0  0
  1  2  1  0
  2  3  2  0
  2  7  1  0
  3  4  1  0
  4  5  2  0
  5  6  1  0
  6  7  2  0
  6 10  1  0
  7  8  1  0
  8  9  2  0
  9 10  1  0
 11 10  1  6
 11 12  1  0
 11 30  1  0
 12 13  1  0
 13 14  1  6
 13 28  1  0
 14 15  1  0
 15 16  1  0
 16 17  2  0
 16 18  1  1
 16 19  1  0
 19 20  1  0
 20 21  2  0
 20 22  1  6
 20 23  1  0
 23 24  1  0
 24 25  2  0
 24 26  1  1
 24 27  1  0
 28 29  1  1
 28 30  1  0
 30 31  1  1
M  END
