
     RDKit          3D

 30 31  0  0  0  0  0  0  0  0999 V2000
   -4.2640   -3.3360   -1.5390 O   0  0  0  0  0  0  0  0  0  0  0  0
   -3.2650   -2.4080   -2.2950 P   0  0  0  0  0  0  0  0  0  0  0  0
   -3.2580   -0.6910   -2.1210 O   0  0  0  0  0  0  0  0  0  0  0  0
   -2.6100   -0.3590   -0.9300 C   0  0  1  0  0  0  0  0  0  0  0  0
   -2.5760    1.0800   -0.7320 N   0  0  0  0  0  0  0  0  0  0  0  0
   -3.7380    1.8730   -0.6010 C   0  0  0  0  0  0  0  0  0  0  0  0
   -4.8740    1.3330   -0.6530 O   0  0  0  0  0  0  0  0  0  0  0  0
   -3.6990    3.2850   -0.4090 N   0  0  0  0  0  0  0  0  0  0  0  0
   -5.1820    4.2800   -0.2460 P   0  0  0  0  0  0  0  0  0  0  0  0
   -4.7280    5.8390    0.3590 O   0  0  0  0  0  0  0  0  0  0  0  0
   -6.3300    3.5870    0.8330 O   0  0  0  0  0  0  0  0  0  0  0  0
   -3.3000   -1.0120    0.2480 C   0  0  0  0  0  0  0  0  0  0  0  0
   -2.6470   -0.6140    1.3880 O   0  0  0  0  0  0  0  0  0  0  0  0
   -1.3120   -0.9860    1.4240 C   0  0  0  0  0  0  0  0  0  0  0  0
   -0.5750   -0.6760    0.1540 C   0  0  1  0  0  0  0  0  0  0  0  0
    0.5660   -1.6660    0.0670 C   0  0  0  0  0  0  0  0  0  0  0  0
    1.7630   -1.2570    0.0690 N   0  0  0  0  0  0  0  0  0  0  0  0
    2.9620   -2.0190   -0.0050 C   0  0  1  0  0  0  0  0  0  0  0  0
    3.7870   -1.7150    1.0690 O   0  0  0  0  0  0  0  0  0  0  0  0
    4.8990   -1.0350    0.7120 C   0  0  0  0  0  0  0  0  0  0  0  0
    4.7380    0.3580    0.1960 C   0  0  0  0  0  0  0  0  0  0  0  0
    3.9720    0.4100   -0.9280 O   0  0  0  0  0  0  0  0  0  0  0  0
    3.8570    2.0830   -1.4250 P   0  0  0  0  0  0  0  0  0  0  0  0
    3.3570    2.9900   -0.0120 O   0  0  0  0  0  0  0  0  0  0  0  0
    5.4150    2.6200   -1.9610 O   0  0  0  0  0  0  0  0  0  0  0  0
    2.6770   -3.4650   -0.0830 C   0  0  0  0  0  0  0  0  0  0  0  0
    3.6290   -4.3190   -0.1490 O   0  0  0  0  0  0  0  0  0  0  0  0
    1.3530   -3.9480   -0.0880 N   0  0  0  0  0  0  0  0  0  0  0  0
    0.2900   -3.0560   -0.0130 N   0  0  0  0  0  0  0  0  0  0  0  0
   -1.3290   -0.8530   -0.9840 O   0  0  0  0  0  0  0  0  0  0  0  0
  1  2  2  0
  2  3  1  0
  3  4  1  0
  4  5  1  1
  4 12  1  0
  4 30  1  0
  5  6  1  0
  6  7  2  0
  6  8  1  0
  8  9  1  0
  9 10  1  0
  9 11  1  0
 12 13  1  0
 13 14  1  0
 14 15  1  0
 15 16  1  6
 15 30  1  0
 16 17  2  0
 16 29  1  0
 17 18  1  0
 18 19  1  1
 18 26  1  0
 19 20  1  0
 20 21  1  0
 21 22  1  0
 22 23  1  0
 23 24  1  0
 23 25  1  0
 26 27  2  0
 26 28  1  0
 28 29  1  0
M  END
