
     RDKit          3D

 30 32  0  0  0  0  0  0  0  0999 V2000
   -0.7640   -2.8050    1.0960 C   0  0  0  0  0  0  0  0  0  0  0  0
   -1.3300   -1.9250    0.0100 C   0  0  1  0  0  0  0  0  0  0  0  0
   -0.3540   -1.3100   -0.7750 O   0  0  0  0  0  0  0  0  0  0  0  0
    0.6260   -0.4520   -0.3450 C   0  0  0  0  0  0  0  0  0  0  0  0
    0.6450   -0.1940    0.8860 O   0  0  0  0  0  0  0  0  0  0  0  0
    1.6280    0.1520   -1.2930 C   0  0  0  0  0  0  0  0  0  0  0  0
    2.5470    1.0120   -0.6060 N   0  0  0  0  0  0  0  0  0  0  0  0
    2.4410    2.4050   -0.3490 C   0  0  0  0  0  0  0  0  0  0  0  0
    1.4390    3.0880   -0.7330 O   0  0  0  0  0  0  0  0  0  0  0  0
    3.5790    2.8530    0.3630 N   0  0  0  0  0  0  0  0  0  0  0  0
    4.4030    1.7830    0.5630 N   0  0  0  0  0  0  0  0  0  0  0  0
    3.8050    0.6340   -0.0170 C   0  0  0  0  0  0  0  0  0  0  0  0
    4.3380   -0.5340    0.0060 N   0  0  0  0  0  0  0  0  0  0  0  0
    5.5560   -0.8770    0.5820 C   0  0  0  0  0  0  0  0  0  0  0  0
    5.8970   -2.1080    0.4870 O   0  0  0  0  0  0  0  0  0  0  0  0
    6.4470   -0.0750    1.2410 O   0  0  0  0  0  0  0  0  0  0  0  0
    6.0120    1.6200    1.3900 P   0  0  0  0  0  0  0  0  0  0  0  0
    7.1580    2.5460    0.4390 O   0  0  0  0  0  0  0  0  0  0  0  0
   -2.1090   -2.8180   -0.9050 C   0  0  0  0  0  0  0  0  0  0  0  0
   -1.8710   -4.0180   -1.1170 O   0  0  0  0  0  0  0  0  0  0  0  0
   -3.1360   -1.9940   -1.4430 N   0  0  0  0  0  0  0  0  0  0  0  0
   -3.1850   -0.7180   -0.7660 C   0  0  0  0  0  0  0  0  0  0  0  0
   -2.3990   -1.0080    0.5130 C   0  0  1  0  0  0  0  0  0  0  0  0
   -3.2330   -1.7730    1.3540 O   0  0  0  0  0  0  0  0  0  0  0  0
   -1.9550    0.1300    1.1320 O   0  0  0  0  0  0  0  0  0  0  0  0
   -3.3320    1.0520    1.6390 P   0  0  0  0  0  0  0  0  0  0  0  0
   -4.6700    0.0700    2.0700 O   0  0  0  0  0  0  0  0  0  0  0  0
   -3.9020    2.5590    0.1650 P   0  0  0  0  0  0  0  0  0  0  0  0
   -5.3820    2.1680   -0.6270 O   0  0  0  0  0  0  0  0  0  0  0  0
   -2.6410    2.8030   -0.9980 O   0  0  0  0  0  0  0  0  0  0  0  0
  2  1  1  1
  2  3  1  0
  2 19  1  0
  2 23  1  0
  3  4  1  0
  4  5  2  0
  4  6  1  0
  6  7  1  0
  7  8  1  0
  7 12  1  0
  8  9  2  0
  8 10  1  0
 10 11  1  0
 11 12  1  0
 11 17  1  0
 12 13  2  0
 13 14  1  0
 14 15  2  0
 14 16  1  0
 16 17  1  0
 17 18  1  0
 19 20  2  0
 19 21  1  0
 21 22  1  0
 22 23  1  0
 23 24  1  1
 23 25  1  0
 25 26  1  0
 26 27  1  0
 26 28  1  0
 28 29  1  0
 28 30  1  0
M  END
