
     RDKit          3D

 12 12  0  0  0  0  0  0  0  0999 V2000
    3.3180    0.7790    0.2060 C   0  0  0  0  0  0  0  0  0  0  0  0
    2.3000    0.1320    0.8960 O   0  0  0  0  0  0  0  0  0  0  0  0
    1.0650    0.2680    0.2490 C   0  0  2  0  0  0  0  0  0  0  0  0
    0.2400    0.9320    1.1080 O   0  0  0  0  0  0  0  0  0  0  0  0
   -1.0910    0.9390    0.7800 C   0  0  1  0  0  0  0  0  0  0  0  0
   -1.4250    1.7510   -0.4390 C   0  0  0  0  0  0  0  0  0  0  0  0
   -1.6200   -0.4760    0.7040 C   0  0  1  0  0  0  0  0  0  0  0  0
   -2.9710   -0.5160    0.4170 O   0  0  0  0  0  0  0  0  0  0  0  0
   -0.8460   -1.2670   -0.3050 C   0  0  1  0  0  0  0  0  0  0  0  0
   -1.1760   -0.8780   -1.6040 O   0  0  0  0  0  0  0  0  0  0  0  0
    0.6180   -1.1190   -0.1110 C   0  0  2  0  0  0  0  0  0  0  0  0
    1.0870   -2.0520    0.8170 O   0  0  0  0  0  0  0  0  0  0  0  0
  1  2  1  0
  3  2  1  1
  3  4  1  0
  3 11  1  0
  4  5  1  0
  5  6  1  6
  5  7  1  0
  7  8  1  6
  7  9  1  0
  9 10  1  6
  9 11  1  0
 11 12  1  1
M  END
