
     RDKit          3D

 12 12  0  0  0  0  0  0  0  0999 V2000
   -0.4810   -0.5050    1.5500 C   0  0  0  0  0  0  0  0  0  0  0  0
   -0.2060    0.0260    0.1650 C   0  0  1  0  0  0  0  0  0  0  0  0
   -1.4440    0.5150   -0.5330 C   0  0  1  0  0  0  0  0  0  0  0  0
   -1.0460    1.0100   -1.7780 O   0  0  0  0  0  0  0  0  0  0  0  0
   -2.4770   -0.5550   -0.7270 C   0  0  0  0  0  0  0  0  0  0  0  0
   -3.5610    0.0480   -1.3970 O   0  0  0  0  0  0  0  0  0  0  0  0
    0.7400    1.2230    0.2520 C   0  0  0  0  0  0  0  0  0  0  0  0
    1.7480    1.0750   -0.7300 O   0  0  0  0  0  0  0  0  0  0  0  0
    2.5890    0.0690   -0.1990 C   0  0  2  0  0  0  0  0  0  0  0  0
    3.7090   -0.1350   -0.9620 O   0  0  0  0  0  0  0  0  0  0  0  0
    1.7240   -1.1600   -0.0430 C   0  0  0  0  0  0  0  0  0  0  0  0
    0.4400   -0.9810   -0.5430 O   0  0  0  0  0  0  0  0  0  0  0  0
  2  1  1  1
  2  3  1  0
  2  7  1  0
  2 12  1  0
  3  4  1  6
  3  5  1  0
  5  6  1  0
  7  8  1  0
  8  9  1  0
  9 10  1  6
  9 11  1  0
 11 12  1  0
M  END
