
     RDKit          3D

 12 12  0  0  0  0  0  0  0  0999 V2000
    2.8290   -0.9530    0.0360 C   0  0  0  0  0  0  0  0  0  0  0  0
    2.2090    0.1100    0.6530 O   0  0  0  0  0  0  0  0  0  0  0  0
    1.2140    0.7030   -0.0830 C   0  0  2  0  0  0  0  0  0  0  0  0
    1.5420    2.0040   -0.4660 O   0  0  0  0  0  0  0  0  0  0  0  0
   -0.0850    0.6150    0.6300 C   0  0  2  0  0  0  0  0  0  0  0  0
   -0.4620   -0.8290    0.8660 C   0  0  0  0  0  0  0  0  0  0  0  0
   -0.9250   -1.5250   -0.3660 C   0  0  1  0  0  0  0  0  0  0  0  0
   -2.1580   -2.1590   -0.1010 O   0  0  0  0  0  0  0  0  0  0  0  0
   -0.9800   -0.7420   -1.4910 O   0  0  0  0  0  0  0  0  0  0  0  0
   -1.5660    0.4720   -1.3660 C   0  0  0  0  0  0  0  0  0  0  0  0
   -1.2380    1.2350   -0.1220 C   0  0  2  0  0  0  0  0  0  0  0  0
   -1.0680    2.5770   -0.3770 O   0  0  0  0  0  0  0  0  0  0  0  0
  1  2  1  0
  2  3  1  0
  3  4  1  1
  3  5  1  0
  5  6  1  6
  5 11  1  0
  6  7  1  0
  7  8  1  1
  7  9  1  0
  9 10  1  0
 10 11  1  0
 11 12  1  6
M  END
