
     RDKit          3D

 12 12  0  0  0  0  0  0  0  0999 V2000
    2.5290    1.0540    1.1670 C   0  0  0  0  0  0  0  0  0  0  0  0
    2.1230   -0.0560    0.4430 O   0  0  0  0  0  0  0  0  0  0  0  0
    1.4340    0.2630   -0.6960 C   0  0  1  0  0  0  0  0  0  0  0  0
    2.1910   -0.1640   -1.8160 O   0  0  0  0  0  0  0  0  0  0  0  0
    0.1000   -0.3870   -0.8410 C   0  0  1  0  0  0  0  0  0  0  0  0
    0.1530   -1.8850   -0.8560 C   0  0  0  0  0  0  0  0  0  0  0  0
   -1.1270   -2.3290   -0.5500 O   0  0  0  0  0  0  0  0  0  0  0  0
   -1.8500   -1.2720   -0.0710 C   0  0  1  0  0  0  0  0  0  0  0  0
   -2.7140   -1.5670    0.9450 O   0  0  0  0  0  0  0  0  0  0  0  0
   -0.8440   -0.1750    0.3150 C   0  0  2  0  0  0  0  0  0  0  0  0
   -1.5360    1.1580    0.2650 C   0  0  0  0  0  0  0  0  0  0  0  0
   -0.6510    2.1970    0.2940 O   0  0  0  0  0  0  0  0  0  0  0  0
  1  2  1  0
  2  3  1  0
  3  4  1  6
  3  5  1  0
  5  6  1  1
  5 10  1  0
  6  7  1  0
  7  8  1  0
  8  9  1  1
  8 10  1  0
 10 11  1  6
 11 12  1  0
M  END
