
     RDKit          3D

 12 13  0  0  0  0  0  0  0  0999 V2000
    2.8100   -0.6830   -0.8960 O   0  0  0  0  0  0  0  0  0  0  0  0
    2.2590   -0.6010    0.3660 C   0  0  0  0  0  0  0  0  0  0  0  0
    0.9290    0.1350    0.3310 C   0  0  1  0  0  0  0  0  0  0  0  0
    0.3680    0.2240    1.5850 O   0  0  0  0  0  0  0  0  0  0  0  0
    1.0430    1.3650   -0.2700 O   0  0  0  0  0  0  0  0  0  0  0  0
   -0.1790    1.7310   -0.7770 C   0  0  0  0  0  0  0  0  0  0  0  0
   -1.0410    0.5120   -0.8750 C   0  0  2  0  0  0  0  0  0  0  0  0
   -1.6400    0.3470   -2.1030 O   0  0  0  0  0  0  0  0  0  0  0  0
   -2.0230    0.3680    0.2360 C   0  0  0  0  0  0  0  0  0  0  0  0
   -1.9360   -0.8850    0.7650 O   0  0  0  0  0  0  0  0  0  0  0  0
   -0.9030   -1.5690    0.1900 C   0  0  0  0  0  0  0  0  0  0  0  0
   -0.0440   -0.6010   -0.5680 C   0  0  2  0  0  0  0  0  0  0  0  0
  1  2  1  0
  2  3  1  0
  3  4  1  1
  3  5  1  0
  3 12  1  0
  5  6  1  0
  6  7  1  0
  7  8  1  6
  7  9  1  0
  7 12  1  0
  9 10  1  0
 10 11  1  0
 12 11  1  1
M  END
