
     RDKit          3D

 12 12  0  0  0  0  0  0  0  0999 V2000
    1.4600   -2.0310    0.2060 C   0  0  0  0  0  0  0  0  0  0  0  0
    0.5480   -0.9410   -0.2670 C   0  0  1  0  0  0  0  0  0  0  0  0
   -0.7260   -1.2100    0.2890 O   0  0  0  0  0  0  0  0  0  0  0  0
   -1.6660   -0.4260   -0.3580 C   0  0  1  0  0  0  0  0  0  0  0  0
   -2.9610   -0.3790    0.4030 C   0  0  0  0  0  0  0  0  0  0  0  0
   -3.8370    0.4350   -0.3340 O   0  0  0  0  0  0  0  0  0  0  0  0
   -1.1870    0.8570   -0.5070 O   0  0  0  0  0  0  0  0  0  0  0  0
   -0.2780    1.2100    0.5090 C   0  0  0  0  0  0  0  0  0  0  0  0
    0.9780    0.4090    0.2520 C   0  0  1  0  0  0  0  0  0  0  0  0
    1.7390    0.2270    1.4040 O   0  0  0  0  0  0  0  0  0  0  0  0
    1.8590    1.1250   -0.7680 C   0  0  0  0  0  0  0  0  0  0  0  0
    2.2750    2.3520   -0.2730 O   0  0  0  0  0  0  0  0  0  0  0  0
  2  1  1  1
  2  3  1  0
  2  9  1  0
  3  4  1  0
  4  5  1  1
  4  7  1  0
  5  6  1  0
  7  8  1  0
  8  9  1  0
  9 10  1  1
  9 11  1  0
 11 12  1  0
M  END
