
     RDKit          3D

 12 12  0  0  0  0  0  0  0  0999 V2000
   -1.8810   -1.6360    0.0220 C   0  0  0  0  0  0  0  0  0  0  0  0
   -1.3280   -0.3230    0.4540 C   0  0  2  0  0  0  0  0  0  0  0  0
   -1.8460   -0.0260    1.7290 O   0  0  0  0  0  0  0  0  0  0  0  0
   -1.8150    0.7660   -0.4860 C   0  0  0  0  0  0  0  0  0  0  0  0
   -3.2050    0.7930   -0.5270 O   0  0  0  0  0  0  0  0  0  0  0  0
    0.1730   -0.3000    0.5890 C   0  0  1  0  0  0  0  0  0  0  0  0
    0.9040   -0.5840   -0.6730 C   0  0  0  0  0  0  0  0  0  0  0  0
    1.5670    0.5320   -1.1840 O   0  0  0  0  0  0  0  0  0  0  0  0
    2.4590    1.0540   -0.2730 C   0  0  2  0  0  0  0  0  0  0  0  0
    3.6630    0.3680   -0.2120 O   0  0  0  0  0  0  0  0  0  0  0  0
    1.8780    1.0450    1.1360 C   0  0  0  0  0  0  0  0  0  0  0  0
    0.5060    1.0060    1.0180 O   0  0  0  0  0  0  0  0  0  0  0  0
  2  1  1  6
  2  3  1  0
  2  4  1  0
  2  6  1  0
  4  5  1  0
  6  7  1  6
  6 12  1  0
  7  8  1  0
  8  9  1  0
  9 10  1  1
  9 11  1  0
 11 12  1  0
M  END
