
     RDKit          3D

 12 12  0  0  0  0  0  0  0  0999 V2000
    3.4160    0.5370   -0.4170 C   0  0  0  0  0  0  0  0  0  0  0  0
    2.6770   -0.1920    0.5000 O   0  0  0  0  0  0  0  0  0  0  0  0
    1.3630   -0.3470    0.1710 C   0  0  1  0  0  0  0  0  0  0  0  0
    0.9550   -1.6490   -0.0220 O   0  0  0  0  0  0  0  0  0  0  0  0
   -0.1650   -1.6280   -0.8360 C   0  0  0  0  0  0  0  0  0  0  0  0
   -1.3070   -0.8480   -0.2950 C   0  0  1  0  0  0  0  0  0  0  0  0
   -2.1310   -1.6880    0.4870 O   0  0  0  0  0  0  0  0  0  0  0  0
   -0.9340    0.3930    0.4440 C   0  0  1  0  0  0  0  0  0  0  0  0
   -2.0410    0.7140    1.4340 C   0  0  0  0  0  0  0  0  0  0  0  0
   -3.2240    0.9060    0.7260 O   0  0  0  0  0  0  0  0  0  0  0  0
    0.4020    0.2950    1.1430 C   0  0  2  0  0  0  0  0  0  0  0  0
    0.8310    1.5760    1.4880 O   0  0  0  0  0  0  0  0  0  0  0  0
  1  2  1  0
  3  2  1  1
  3  4  1  0
  3 11  1  0
  4  5  1  0
  5  6  1  0
  6  7  1  1
  6  8  1  0
  8  9  1  1
  8 11  1  0
  9 10  1  0
 11 12  1  6
M  END
