
     RDKit          3D

 26 28  0  0  0  0  0  0  0  0999 V2000
   -2.7210   -1.0530   -4.1530 C   0  0  0  0  0  0  0  0  0  0  0  0
   -2.4160   -1.3300   -2.7300 C   0  0  0  0  0  0  0  0  0  0  0  0
   -2.4530   -2.4920   -2.2490 O   0  0  0  0  0  0  0  0  0  0  0  0
   -2.0610   -0.1770   -1.8870 C   0  0  0  0  0  0  0  0  0  0  0  0
   -2.9580    0.5840   -1.1700 C   0  0  0  0  0  0  0  0  0  0  0  0
   -4.4080    0.3920   -1.1100 C   0  0  0  0  0  0  0  0  0  0  0  0
   -4.9300   -0.5400   -1.7700 O   0  0  0  0  0  0  0  0  0  0  0  0
   -5.2990    1.2570   -0.2990 C   0  0  2  0  0  0  0  0  0  0  0  0
   -5.0490    0.8970    1.1670 C   0  0  0  0  0  0  0  0  0  0  0  0
   -6.3700    1.0160    1.8680 C   0  0  0  0  0  0  0  0  0  0  0  0
   -7.3660    1.0940    0.7550 C   0  0  0  0  0  0  0  0  0  0  0  0
   -6.6740    0.8430   -0.4710 N   0  0  0  0  0  0  0  0  0  0  0  0
   -2.2090    1.5520   -0.5320 C   0  0  0  0  0  0  0  0  0  0  0  0
   -0.9060    1.3610   -0.8680 N   0  0  0  0  0  0  0  0  0  0  0  0
   -0.7680    0.3210   -1.6900 C   0  0  0  0  0  0  0  0  0  0  0  0
    0.3980   -0.2300   -2.2840 N   0  0  0  0  0  0  0  0  0  0  0  0
    1.3980   -0.5660   -1.5650 C   0  0  0  0  0  0  0  0  0  0  0  0
    1.3540   -0.3880   -0.1100 C   0  0  0  0  0  0  0  0  0  0  0  0
    2.1270   -1.3710    0.6200 N   0  0  0  0  0  0  0  0  0  0  0  0
    3.5300   -1.2830    0.4050 C   0  0  1  0  0  0  0  0  0  0  0  0
    4.0220    0.1360    0.2240 C   0  0  0  0  0  0  0  0  0  0  0  0
    5.5490    0.1680    0.2040 C   0  0  0  0  0  0  0  0  0  0  0  0
    6.1080   -0.3030    1.5310 C   0  0  1  0  0  0  0  0  0  0  0  0
    6.8970    0.7730    2.2070 C   0  0  0  0  0  0  0  0  0  0  0  0
    5.0010   -0.8610    2.4050 C   0  0  0  0  0  0  0  0  0  0  0  0
    4.2540   -1.9010    1.5740 C   0  0  0  0  0  0  0  0  0  0  0  0
  1  2  1  0
  2  3  2  0
  2  4  1  0
  4  5  1  0
  4 15  2  0
  5  6  1  0
  5 13  2  0
  6  7  2  0
  8  6  1  6
  8  9  1  0
  8 12  1  0
  9 10  1  0
 10 11  1  0
 11 12  1  0
 13 14  1  0
 14 15  1  0
 15 16  1  0
 16 17  2  3
 17 18  1  0
 18 19  1  0
 20 19  1  1
 20 21  1  0
 20 26  1  0
 21 22  1  0
 22 23  1  0
 23 24  1  1
 23 25  1  0
 25 26  1  0
M  CHG  1  19   1
M  END
