
     RDKit          3D

 12 12  0  0  0  0  0  0  0  0999 V2000
   -0.0060   -0.9300   -1.1570 C   0  0  0  0  0  0  0  0  0  0  0  0
    0.0880   -0.0420    0.0630 C   0  0  1  0  0  0  0  0  0  0  0  0
    1.5170   -0.0070    0.5060 C   0  0  1  0  0  0  0  0  0  0  0  0
    1.8830   -1.3030    0.8640 O   0  0  0  0  0  0  0  0  0  0  0  0
    2.4720    0.4540   -0.5590 C   0  0  0  0  0  0  0  0  0  0  0  0
    3.7590    0.4160   -0.0010 O   0  0  0  0  0  0  0  0  0  0  0  0
   -0.4360    1.3180   -0.3360 C   0  0  0  0  0  0  0  0  0  0  0  0
   -1.7520    1.1080   -0.8040 O   0  0  0  0  0  0  0  0  0  0  0  0
   -2.5510    0.5540    0.1960 C   0  0  2  0  0  0  0  0  0  0  0  0
   -3.6290    1.3880    0.3820 O   0  0  0  0  0  0  0  0  0  0  0  0
   -1.7350    0.3250    1.4410 C   0  0  0  0  0  0  0  0  0  0  0  0
   -0.6820   -0.5000    1.1200 O   0  0  0  0  0  0  0  0  0  0  0  0
  2  1  1  6
  2  3  1  0
  2  7  1  0
  2 12  1  0
  3  4  1  6
  3  5  1  0
  5  6  1  0
  7  8  1  0
  8  9  1  0
  9 10  1  1
  9 11  1  0
 11 12  1  0
M  END
