
     RDKit          3D

 12 12  0  0  0  0  0  0  0  0999 V2000
   -1.4590    1.5680   -1.1640 C   0  0  0  0  0  0  0  0  0  0  0  0
   -0.5660    0.5830   -0.4240 C   0  0  2  0  0  0  0  0  0  0  0  0
    0.4410    0.2190   -1.3180 O   0  0  0  0  0  0  0  0  0  0  0  0
    1.4460   -0.4330   -0.6080 C   0  0  1  0  0  0  0  0  0  0  0  0
    2.1570   -1.1960   -1.5390 O   0  0  0  0  0  0  0  0  0  0  0  0
    2.3470    0.6520   -0.0410 C   0  0  0  0  0  0  0  0  0  0  0  0
    3.3890    0.0460    0.6920 O   0  0  0  0  0  0  0  0  0  0  0  0
    0.8500   -1.2910    0.4570 C   0  0  0  0  0  0  0  0  0  0  0  0
   -0.4250   -1.7340    0.1090 O   0  0  0  0  0  0  0  0  0  0  0  0
   -1.3120   -0.6730   -0.0600 C   0  0  1  0  0  0  0  0  0  0  0  0
   -2.1180   -0.5290    1.2040 C   0  0  0  0  0  0  0  0  0  0  0  0
   -3.0350    0.5060    1.1380 O   0  0  0  0  0  0  0  0  0  0  0  0
  2  1  1  6
  2  3  1  0
  2 10  1  0
  3  4  1  0
  4  5  1  6
  4  6  1  0
  4  8  1  0
  6  7  1  0
  8  9  1  0
  9 10  1  0
 10 11  1  1
 11 12  1  0
M  END
