
     RDKit          3D

 12 12  0  0  0  0  0  0  0  0999 V2000
    3.4520    0.3460    0.8490 C   0  0  0  0  0  0  0  0  0  0  0  0
    2.4310   -0.5940    0.7080 O   0  0  0  0  0  0  0  0  0  0  0  0
    1.3310   -0.0520    0.0450 C   0  0  1  0  0  0  0  0  0  0  0  0
    1.0910   -0.8270   -1.0680 O   0  0  0  0  0  0  0  0  0  0  0  0
   -0.0770   -0.5520   -1.7250 C   0  0  0  0  0  0  0  0  0  0  0  0
   -0.8750    0.5720   -1.1100 C   0  0  1  0  0  0  0  0  0  0  0  0
   -2.0300    0.7640   -1.8430 O   0  0  0  0  0  0  0  0  0  0  0  0
   -1.1290    0.3360    0.3510 C   0  0  1  0  0  0  0  0  0  0  0  0
   -2.2200   -0.6980    0.5650 C   0  0  0  0  0  0  0  0  0  0  0  0
   -3.3740   -0.2370   -0.0220 O   0  0  0  0  0  0  0  0  0  0  0  0
    0.1520   -0.1660    0.9870 C   0  0  2  0  0  0  0  0  0  0  0  0
    0.4040    0.4930    2.1800 O   0  0  0  0  0  0  0  0  0  0  0  0
  1  2  1  0
  3  2  1  1
  3  4  1  0
  3 11  1  0
  4  5  1  0
  5  6  1  0
  6  7  1  6
  6  8  1  0
  8  9  1  6
  8 11  1  0
  9 10  1  0
 11 12  1  1
M  END
