
     RDKit          3D

 30 33  0  0  0  0  0  0  0  0999 V2000
    3.9200   -2.3850   -3.3520 C   0  0  0  0  0  0  0  0  0  0  0  0
    3.1080   -2.3040   -2.0930 C   0  0  0  0  0  0  0  0  0  0  0  0
    2.5150   -3.4230   -1.6750 F   0  0  0  0  0  0  0  0  0  0  0  0
    3.0410   -1.1180   -1.4920 C   0  0  0  0  0  0  0  0  0  0  0  0
    3.6400   -0.0060   -1.9300 N   0  0  0  0  0  0  0  0  0  0  0  0
    3.4200    1.0570   -1.1710 C   0  0  0  0  0  0  0  0  0  0  0  0
    2.5930    0.6320   -0.1210 C   0  0  0  0  0  0  0  0  0  0  0  0
    2.3540   -0.7330   -0.3160 C   0  0  0  0  0  0  0  0  0  0  0  0
    1.7080   -1.5610    0.5110 C   0  0  0  0  0  0  0  0  0  0  0  0
    0.9660   -1.3240    1.7200 C   0  0  0  0  0  0  0  0  0  0  0  0
   -0.3290   -1.3260    1.9990 C   0  0  0  0  0  0  0  0  0  0  0  0
   -1.4190   -1.5910    1.0970 N   0  0  0  0  0  0  0  0  0  0  0  0
   -2.4270   -2.5520    1.5120 C   0  0  0  0  0  0  0  0  0  0  0  0
   -1.5460   -0.9700   -0.1920 C   0  0  1  0  0  0  0  0  0  0  0  0
   -2.7660   -1.4230   -0.9520 C   0  0  2  0  0  0  0  0  0  0  0  0
   -2.7720   -0.7230   -2.3340 C   0  0  0  0  0  0  0  0  0  0  0  0
   -4.0790   -1.0070   -0.3400 C   0  0  0  0  0  0  0  0  0  0  0  0
   -1.6800    0.5110   -0.0820 C   0  0  0  0  0  0  0  0  0  0  0  0
   -2.6880    0.9270    0.4550 O   0  0  0  0  0  0  0  0  0  0  0  0
   -0.6140    1.3790   -0.6150 C   0  0  0  0  0  0  0  0  0  0  0  0
   -0.2280    2.2360    0.4690 N   0  0  0  0  0  0  0  0  0  0  0  0
   -1.2030    3.3210    0.7450 C   0  0  0  0  0  0  0  0  0  0  0  0
   -1.1940    3.6830    2.1580 C   0  0  0  0  0  0  0  0  0  0  0  0
   -2.2330    4.0890    2.7090 O   0  0  0  0  0  0  0  0  0  0  0  0
    0.0100    3.5750    2.9260 N   0  0  0  0  0  0  0  0  0  0  0  0
    1.0670    2.7790    2.4170 C   0  0  0  0  0  0  0  0  0  0  0  0
    2.2930    2.5520    2.9120 N   0  0  0  0  0  0  0  0  0  0  0  0
    2.9580    1.7850    2.0880 N   0  0  0  0  0  0  0  0  0  0  0  0
    2.1300    1.4850    0.9870 C   0  0  0  0  0  0  0  0  0  0  0  0
    0.9470    2.1110    1.1950 C   0  0  0  0  0  0  0  0  0  0  0  0
  1  2  1  0
  2  3  1  0
  2  4  2  3
  4  5  1  0
  4  8  1  0
  5  6  1  0
  6  7  2  0
  7  8  1  0
  7 29  1  0
  8  9  2  0
  9 10  1  0
 10 11  2  0
 11 12  1  0
 12 13  1  0
 14 12  1  1
 14 15  1  0
 14 18  1  0
 15 16  1  6
 15 17  1  0
 18 19  2  0
 18 20  1  0
 20 21  1  0
 21 22  1  0
 21 30  1  0
 22 23  1  0
 23 24  2  0
 23 25  1  0
 25 26  1  0
 26 27  1  0
 26 30  2  0
 27 28  1  0
 28 29  2  0
 29 30  1  0
M  END
