
     RDKit          3D

 30 33  0  0  0  0  0  0  0  0999 V2000
    1.6960   -1.7200   -1.7210 C   0  0  0  0  0  0  0  0  0  0  0  0
    1.2910   -0.7420   -0.5990 C   0  0  2  0  0  0  0  0  0  0  0  0
    2.3900   -0.6720    0.4290 C   0  0  0  0  0  0  0  0  0  0  0  0
    3.3840    0.4070    0.3120 C   0  0  0  0  0  0  0  0  0  0  0  0
    4.5340    0.0750   -0.2510 C   0  0  0  0  0  0  0  0  0  0  0  0
    4.9460   -1.1990   -0.7670 C   0  0  0  0  0  0  0  0  0  0  0  0
    6.1340   -1.3440   -1.2980 C   0  0  0  0  0  0  0  0  0  0  0  0
    6.9660   -0.2850   -1.3550 F   0  0  0  0  0  0  0  0  0  0  0  0
    3.2420    1.7640    0.8110 C   0  0  0  0  0  0  0  0  0  0  0  0
    2.5120    2.7840    0.4460 C   0  0  0  0  0  0  0  0  0  0  0  0
    1.5440    2.9580   -0.6320 C   0  0  0  0  0  0  0  0  0  0  0  0
    0.1220    2.7540   -0.3580 C   0  0  0  0  0  0  0  0  0  0  0  0
   -0.2110    1.9500    0.8650 C   0  0  0  0  0  0  0  0  0  0  0  0
   -1.5580    1.2970    0.6800 C   0  0  0  0  0  0  0  0  0  0  0  0
   -2.7060    2.0490    0.6330 N   0  0  0  0  0  0  0  0  0  0  0  0
   -3.7370    1.2510    0.4690 C   0  0  0  0  0  0  0  0  0  0  0  0
   -3.2000   -0.0260    0.4140 C   0  0  0  0  0  0  0  0  0  0  0  0
   -1.8330    0.0310    0.5470 N   0  0  0  0  0  0  0  0  0  0  0  0
   -0.9660   -1.0370    0.5320 C   0  0  0  0  0  0  0  0  0  0  0  0
    0.1390   -1.1500    0.0700 N   0  0  0  0  0  0  0  0  0  0  0  0
   -1.3350   -2.2370    1.1230 N   0  0  0  0  0  0  0  0  0  0  0  0
   -2.4870   -2.9350    1.0930 C   0  0  0  0  0  0  0  0  0  0  0  0
   -2.5050   -4.0980    1.5990 O   0  0  0  0  0  0  0  0  0  0  0  0
   -3.7100   -2.5360    0.5600 C   0  0  0  0  0  0  0  0  0  0  0  0
   -4.0380   -1.2290    0.2540 C   0  0  0  0  0  0  0  0  0  0  0  0
   -5.3340   -1.3660   -0.2210 C   0  0  0  0  0  0  0  0  0  0  0  0
   -5.7270   -2.5350   -0.4300 O   0  0  0  0  0  0  0  0  0  0  0  0
   -6.1940   -0.3380   -0.4730 N   0  0  0  0  0  0  0  0  0  0  0  0
   -6.0750    0.9520   -0.0640 C   0  0  0  0  0  0  0  0  0  0  0  0
   -5.0350    1.6660    0.3760 N   0  0  0  0  0  0  0  0  0  0  0  0
  2  1  1  6
  2  3  1  0
  2 20  1  0
  3  4  1  0
  4  5  2  3
  4  9  1  0
  5  6  1  0
  6  7  2  3
  7  8  1  0
  9 10  2  0
 10 11  1  0
 11 12  1  0
 12 13  1  0
 13 14  1  0
 14 15  2  0
 14 18  1  0
 15 16  1  0
 16 17  2  0
 16 30  1  0
 17 18  1  0
 17 25  1  0
 18 19  1  0
 19 20  2  0
 19 21  1  0
 21 22  1  0
 22 23  2  0
 22 24  1  0
 24 25  2  0
 25 26  1  0
 26 27  2  0
 26 28  1  0
 28 29  1  0
 29 30  2  0
M  END
