
     RDKit          3D

 30 33  0  0  0  0  0  0  0  0999 V2000
    6.7400   -1.5220   -1.3520 C   0  0  0  0  0  0  0  0  0  0  0  0
    6.1960   -0.5590   -0.3690 C   0  0  0  0  0  0  0  0  0  0  0  0
    7.1080    0.1260    0.3970 F   0  0  0  0  0  0  0  0  0  0  0  0
    4.9090   -0.3430   -0.2060 C   0  0  0  0  0  0  0  0  0  0  0  0
    3.9400   -1.0520   -0.9970 C   0  0  0  0  0  0  0  0  0  0  0  0
    2.6050   -0.8940   -0.8970 C   0  0  0  0  0  0  0  0  0  0  0  0
    1.6840   -1.6760   -1.7580 C   0  0  0  0  0  0  0  0  0  0  0  0
    0.7090   -2.2860   -1.3360 N   0  0  0  0  0  0  0  0  0  0  0  0
   -0.3640   -3.0500   -1.4270 N   0  0  0  0  0  0  0  0  0  0  0  0
   -1.5410   -2.6210   -2.2030 C   0  0  0  0  0  0  0  0  0  0  0  0
   -2.7510   -2.6180   -1.3710 C   0  0  0  0  0  0  0  0  0  0  0  0
   -3.6590   -3.4380   -1.6430 O   0  0  0  0  0  0  0  0  0  0  0  0
   -2.9620   -1.7440   -0.2770 N   0  0  0  0  0  0  0  0  0  0  0  0
   -3.7710   -1.7890    0.9430 C   0  0  0  0  0  0  0  0  0  0  0  0
   -4.4940   -0.4350    0.8740 C   0  0  0  0  0  0  0  0  0  0  0  0
   -3.4970    0.4720    0.1810 C   0  0  0  0  0  0  0  0  0  0  0  0
   -2.3140   -0.4310   -0.1680 C   0  0  1  0  0  0  0  0  0  0  0  0
   -1.3350   -0.5110    0.9670 C   0  0  0  0  0  0  0  0  0  0  0  0
   -0.8170   -1.6220    1.3230 O   0  0  0  0  0  0  0  0  0  0  0  0
   -0.9350    0.6340    1.7020 N   0  0  0  0  0  0  0  0  0  0  0  0
   -0.5060    1.8900    1.1310 C   0  0  0  0  0  0  0  0  0  0  0  0
   -1.0590    3.0940    1.4090 C   0  0  0  0  0  0  0  0  0  0  0  0
   -2.0860    3.8200    2.1740 C   0  0  0  0  0  0  0  0  0  0  0  0
   -1.9540    5.0890    1.8470 C   0  0  0  0  0  0  0  0  0  0  0  0
   -0.8740    5.2360    0.8890 C   0  0  0  0  0  0  0  0  0  0  0  0
   -0.3260    4.0470    0.6150 C   0  0  0  0  0  0  0  0  0  0  0  0
    0.6360    3.3360   -0.0920 N   0  0  0  0  0  0  0  0  0  0  0  0
    0.5640    2.0460    0.1870 C   0  0  0  0  0  0  0  0  0  0  0  0
    1.3190    0.9510   -0.2250 N   0  0  0  0  0  0  0  0  0  0  0  0
    2.1230    0.0980    0.1100 C   0  0  0  0  0  0  0  0  0  0  0  0
  1  2  1  0
  2  3  1  0
  2  4  2  3
  4  5  1  0
  5  6  2  3
  6  7  1  0
  6 30  1  0
  7  8  2  0
  8  9  1  0
  9 10  1  0
 10 11  1  0
 11 12  2  0
 11 13  1  0
 13 14  1  0
 13 17  1  0
 14 15  1  0
 15 16  1  0
 17 16  1  1
 17 18  1  0
 18 19  2  0
 18 20  1  0
 20 21  1  0
 21 22  2  0
 21 28  1  0
 22 23  1  0
 22 26  1  0
 23 24  2  0
 24 25  1  0
 25 26  2  0
 26 27  1  0
 27 28  2  0
 28 29  1  0
 29 30  2  0
M  END
