
     RDKit          3D

 30 34  0  0  0  0  0  0  0  0999 V2000
   -6.5610    2.0670    1.0620 C   0  0  0  0  0  0  0  0  0  0  0  0
   -6.9710    0.8490    0.3380 C   0  0  0  0  0  0  0  0  0  0  0  0
   -8.2270    0.3680    0.1930 N   0  0  0  0  0  0  0  0  0  0  0  0
   -8.2070   -0.7430   -0.5190 N   0  0  0  0  0  0  0  0  0  0  0  0
   -6.9400   -1.0260   -0.8640 C   0  0  0  0  0  0  0  0  0  0  0  0
   -6.3230   -2.0360   -1.5870 C   0  0  0  0  0  0  0  0  0  0  0  0
   -4.9640   -2.0600   -1.7770 C   0  0  0  0  0  0  0  0  0  0  0  0
   -4.1610   -1.0740   -1.2520 C   0  0  0  0  0  0  0  0  0  0  0  0
   -2.7140   -1.0710   -1.4310 C   0  0  0  0  0  0  0  0  0  0  0  0
   -2.1160   -1.5850   -2.5660 C   0  0  0  0  0  0  0  0  0  0  0  0
   -0.7550   -1.5490   -2.6700 N   0  0  0  0  0  0  0  0  0  0  0  0
    0.0310   -1.0370   -1.7190 C   0  0  0  0  0  0  0  0  0  0  0  0
   -0.4960   -0.5190   -0.5840 C   0  0  0  0  0  0  0  0  0  0  0  0
    0.1460    0.0250    0.4550 O   0  0  0  0  0  0  0  0  0  0  0  0
    1.3470    0.3210    0.9460 C   0  0  0  0  0  0  0  0  0  0  0  0
    2.3390   -0.7430    1.2760 C   0  0  1  0  0  0  0  0  0  0  0  0
    2.7630   -1.6120    0.2370 N   0  0  0  0  0  0  0  0  0  0  0  0
    3.4570   -0.2310    2.1410 C   0  0  0  0  0  0  0  0  0  0  0  0
    4.2660    0.8480    1.6250 C   0  0  0  0  0  0  0  0  0  0  0  0
    4.1580    2.1940    1.9290 C   0  0  0  0  0  0  0  0  0  0  0  0
    5.0710    2.8920    1.2330 N   0  0  0  0  0  0  0  0  0  0  0  0
    5.7740    2.0260    0.4810 C   0  0  0  0  0  0  0  0  0  0  0  0
    6.8100    2.2930   -0.3840 C   0  0  0  0  0  0  0  0  0  0  0  0
    7.3730    1.2290   -1.0380 C   0  0  0  0  0  0  0  0  0  0  0  0
    6.9470   -0.0690   -0.8620 C   0  0  0  0  0  0  0  0  0  0  0  0
    5.9010   -0.2980    0.0180 C   0  0  0  0  0  0  0  0  0  0  0  0
    5.2860    0.7280    0.7090 C   0  0  0  0  0  0  0  0  0  0  0  0
   -1.9010   -0.5480   -0.4610 C   0  0  0  0  0  0  0  0  0  0  0  0
   -4.7770   -0.0680   -0.5310 C   0  0  0  0  0  0  0  0  0  0  0  0
   -6.1430   -0.0400   -0.3370 C   0  0  0  0  0  0  0  0  0  0  0  0
  1  2  1  0
  2  3  2  0
  2 30  1  0
  3  4  1  0
  4  5  1  0
  5  6  2  0
  5 30  1  0
  6  7  1  0
  7  8  2  0
  8  9  1  0
  8 29  1  0
  9 10  2  0
  9 28  1  0
 10 11  1  0
 11 12  2  0
 12 13  1  0
 13 14  1  0
 13 28  2  0
 14 15  1  0
 15 16  1  0
 16 17  1  6
 16 18  1  0
 18 19  1  0
 19 20  2  0
 19 27  1  0
 20 21  1  0
 21 22  1  0
 22 23  2  0
 22 27  1  0
 23 24  1  0
 24 25  2  0
 25 26  1  0
 26 27  2  0
 29 30  2  0
M  CHG  1  17   1
M  END
