
     RDKit          3D

 30 33  0  0  0  0  0  0  0  0999 V2000
   -2.1440   -1.5890    2.2880 C   0  0  0  0  0  0  0  0  0  0  0  0
   -1.4410   -1.1890    1.2390 C   0  0  0  0  0  0  0  0  0  0  0  0
   -1.7670   -0.6880    0.0440 O   0  0  0  0  0  0  0  0  0  0  0  0
   -2.7260   -0.1970   -0.7830 C   0  0  0  0  0  0  0  0  0  0  0  0
   -2.8980   -0.6900   -2.0050 C   0  0  0  0  0  0  0  0  0  0  0  0
   -2.0810   -1.7970   -2.5820 C   0  0  0  0  0  0  0  0  0  0  0  0
   -3.8710   -0.2190   -2.8060 F   0  0  0  0  0  0  0  0  0  0  0  0
   -3.6250    0.9080   -0.3660 C   0  0  0  0  0  0  0  0  0  0  0  0
   -3.2490    2.1450   -0.0840 C   0  0  0  0  0  0  0  0  0  0  0  0
   -1.8960    2.7040   -0.1260 C   0  0  0  0  0  0  0  0  0  0  0  0
   -1.1420    2.5990    1.1060 N   0  0  0  0  0  0  0  0  0  0  0  0
   -1.8970    2.4100    2.3330 C   0  0  0  0  0  0  0  0  0  0  0  0
    0.2800    2.7050    1.1390 C   0  0  0  0  0  0  0  0  0  0  0  0
    0.9780    3.7450    1.7060 N   0  0  0  0  0  0  0  0  0  0  0  0
    2.2570    3.5940    1.5110 N   0  0  0  0  0  0  0  0  0  0  0  0
    2.4210    2.4440    0.8080 C   0  0  0  0  0  0  0  0  0  0  0  0
    1.2020    1.9260    0.6060 N   0  0  0  0  0  0  0  0  0  0  0  0
    1.0010    0.6320    0.0250 C   0  0  2  0  0  0  0  0  0  0  0  0
    0.9830   -0.3080    1.1960 N   0  0  0  0  0  0  0  0  0  0  0  0
    0.0540   -1.3350    1.4470 C   0  0  0  0  0  0  0  0  0  0  0  0
    0.5740   -2.4800    1.8580 C   0  0  0  0  0  0  0  0  0  0  0  0
   -0.2160   -3.6830    2.1410 C   0  0  0  0  0  0  0  0  0  0  0  0
    2.1580    0.2180   -0.8000 C   0  0  0  0  0  0  0  0  0  0  0  0
    1.9880   -0.8280   -1.7240 C   0  0  0  0  0  0  0  0  0  0  0  0
    3.0750   -1.3150   -2.4130 C   0  0  0  0  0  0  0  0  0  0  0  0
    2.8630   -2.3630   -3.3290 O   0  0  0  0  0  0  0  0  0  0  0  0
    4.3370   -0.8010   -2.2220 C   0  0  0  0  0  0  0  0  0  0  0  0
    4.5090    0.2230   -1.3230 C   0  0  0  0  0  0  0  0  0  0  0  0
    3.4000    0.7300   -0.6130 C   0  0  0  0  0  0  0  0  0  0  0  0
    3.5700    1.8680    0.2110 N   0  0  0  0  0  0  0  0  0  0  0  0
  1  2  2  0
  2  3  1  0
  2 20  1  0
  3  4  1  0
  4  5  2  3
  4  8  1  0
  5  6  1  0
  5  7  1  0
  8  9  2  0
  9 10  1  0
 10 11  1  0
 11 12  1  0
 11 13  1  0
 13 14  2  0
 13 17  1  0
 14 15  1  0
 15 16  2  0
 16 17  1  0
 16 30  1  0
 17 18  1  0
 18 19  1  1
 18 23  1  0
 19 20  1  0
 20 21  2  3
 21 22  1  0
 23 24  2  0
 23 29  1  0
 24 25  1  0
 25 26  1  0
 25 27  2  0
 27 28  1  0
 28 29  2  0
 29 30  1  0
M  END
