
     RDKit          3D

 30 32  0  0  0  0  0  0  0  0999 V2000
   -3.4410    0.4940   -2.4170 C   0  0  0  0  0  0  0  0  0  0  0  0
   -3.1060    0.3490   -0.9070 C   0  0  0  0  0  0  0  0  0  0  0  0
   -2.1760    1.2090   -0.5610 C   0  0  0  0  0  0  0  0  0  0  0  0
   -1.5320    1.4540    0.7560 C   0  0  0  0  0  0  0  0  0  0  0  0
   -1.3820    2.9480    0.9790 C   0  0  0  0  0  0  0  0  0  0  0  0
   -0.2160    3.5700    1.0050 C   0  0  0  0  0  0  0  0  0  0  0  0
    1.1090    3.0110    0.8380 C   0  0  0  0  0  0  0  0  0  0  0  0
    1.6290    2.2890   -0.1230 C   0  0  0  0  0  0  0  0  0  0  0  0
    3.0580    1.9570    0.1980 N   0  0  0  0  0  0  0  0  0  0  0  0
    3.5680    0.7330    0.0910 C   0  0  0  0  0  0  0  0  0  0  0  0
    4.9870    0.6050    0.2820 C   0  0  0  0  0  0  0  0  0  0  0  0
    5.6540   -0.5100    0.2150 C   0  0  0  0  0  0  0  0  0  0  0  0
    7.0890   -0.5170    0.4260 C   0  0  0  0  0  0  0  0  0  0  0  0
    7.7690   -1.5770    0.3690 O   0  0  0  0  0  0  0  0  0  0  0  0
    2.8380   -0.5000   -0.1790 N   0  0  0  0  0  0  0  0  0  0  0  0
    1.5040   -0.6610   -0.4140 C   0  0  0  0  0  0  0  0  0  0  0  0
    0.9710    0.2440   -1.4330 N   0  0  0  0  0  0  0  0  0  0  0  0
    1.0870    1.7370   -1.3620 C   0  0  0  0  0  0  0  0  0  0  0  0
    0.7180    2.3370   -2.4320 N   0  0  0  0  0  0  0  0  0  0  0  0
    0.7830   -1.6270    0.3060 N   0  0  0  0  0  0  0  0  0  0  0  0
    0.3000   -2.9270   -0.2750 C   0  0  0  0  0  0  0  0  0  0  0  0
   -1.1340   -2.5510   -0.6100 C   0  0  0  0  0  0  0  0  0  0  0  0
   -1.9160   -2.2200    0.6120 N   0  0  0  0  0  0  0  0  0  0  0  0
   -1.0920   -2.3090    1.7970 C   0  0  0  0  0  0  0  0  0  0  0  0
    0.2670   -1.6570    1.6810 C   0  0  0  0  0  0  0  0  0  0  0  0
   -3.2850   -1.8870    0.5000 C   0  0  0  0  0  0  0  0  0  0  0  0
   -4.2920   -2.6350    0.9310 O   0  0  0  0  0  0  0  0  0  0  0  0
   -3.8130   -0.6380   -0.1300 C   0  0  0  0  0  0  0  0  0  0  0  0
   -5.1520   -0.4400    0.0200 C   0  0  0  0  0  0  0  0  0  0  0  0
   -5.8310    0.5840   -0.4950 F   0  0  0  0  0  0  0  0  0  0  0  0
  1  2  1  0
  2  3  2  0
  2 28  1  0
  3  4  1  0
  4  5  1  0
  5  6  2  0
  6  7  1  0
  7  8  2  0
  8  9  1  0
  8 18  1  0
  9 10  2  0
 10 11  1  0
 10 15  1  0
 11 12  2  3
 12 13  1  0
 13 14  2  0
 15 16  2  0
 16 17  1  0
 16 20  1  0
 17 18  1  0
 18 19  2  0
 20 21  1  0
 20 25  1  0
 21 22  1  0
 22 23  1  0
 23 24  1  0
 23 26  1  0
 24 25  1  0
 26 27  2  0
 26 28  1  0
 28 29  2  3
 29 30  1  0
M  END
