
     RDKit          3D

 12 12  0  0  0  0  0  0  0  0999 V2000
   -0.0440   -1.6720   -0.8880 C   0  0  0  0  0  0  0  0  0  0  0  0
   -0.4250   -0.8950    0.3440 C   0  0  1  0  0  0  0  0  0  0  0  0
    0.6290   -0.5590    1.1470 O   0  0  0  0  0  0  0  0  0  0  0  0
    1.5230    0.3220    0.6010 C   0  0  1  0  0  0  0  0  0  0  0  0
    2.8290   -0.4010    0.3540 C   0  0  0  0  0  0  0  0  0  0  0  0
    3.7860    0.4600   -0.2080 O   0  0  0  0  0  0  0  0  0  0  0  0
    1.0950    0.9240   -0.5710 O   0  0  0  0  0  0  0  0  0  0  0  0
   -0.2070    1.3720   -0.5090 C   0  0  0  0  0  0  0  0  0  0  0  0
   -1.1860    0.3390   -0.0630 C   0  0  1  0  0  0  0  0  0  0  0  0
   -2.0750    0.0040   -1.0970 O   0  0  0  0  0  0  0  0  0  0  0  0
   -2.0200    0.7790    1.1150 C   0  0  0  0  0  0  0  0  0  0  0  0
   -2.8620   -0.2570    1.5130 O   0  0  0  0  0  0  0  0  0  0  0  0
  2  1  1  6
  2  3  1  0
  2  9  1  0
  3  4  1  0
  4  5  1  6
  4  7  1  0
  5  6  1  0
  7  8  1  0
  8  9  1  0
  9 10  1  6
  9 11  1  0
 11 12  1  0
M  END
