
     RDKit          3D

 12 12  0  0  0  0  0  0  0  0999 V2000
   -0.9340    1.3630   -0.9760 C   0  0  0  0  0  0  0  0  0  0  0  0
   -0.2260    0.3390   -0.0830 C   0  0  1  0  0  0  0  0  0  0  0  0
   -1.1920   -0.2480    0.8670 C   0  0  1  0  0  0  0  0  0  0  0  0
   -1.8020    0.7960    1.5670 O   0  0  0  0  0  0  0  0  0  0  0  0
   -2.2540   -1.1150    0.2990 C   0  0  0  0  0  0  0  0  0  0  0  0
   -3.0210   -1.6120    1.3600 O   0  0  0  0  0  0  0  0  0  0  0  0
    0.5010   -0.6040   -0.9680 C   0  0  0  0  0  0  0  0  0  0  0  0
    1.5020   -1.2320   -0.2060 O   0  0  0  0  0  0  0  0  0  0  0  0
    2.5460   -0.3130   -0.1080 C   0  0  2  0  0  0  0  0  0  0  0  0
    3.3340   -0.6550    0.9880 O   0  0  0  0  0  0  0  0  0  0  0  0
    1.9460    1.0550    0.0190 C   0  0  0  0  0  0  0  0  0  0  0  0
    0.7170    1.0630    0.6500 O   0  0  0  0  0  0  0  0  0  0  0  0
  2  1  1  6
  2  3  1  0
  2  7  1  0
  2 12  1  0
  3  4  1  6
  3  5  1  0
  5  6  1  0
  7  8  1  0
  8  9  1  0
  9 10  1  1
  9 11  1  0
 11 12  1  0
M  END
