
     RDKit          3D

 12 12  0  0  0  0  0  0  0  0999 V2000
    2.8870    0.4670   -0.1540 C   0  0  0  0  0  0  0  0  0  0  0  0
    1.8820    0.9290    0.8720 C   0  0  0  0  0  0  0  0  0  0  0  0
    0.8860   -0.0140    1.0390 O   0  0  0  0  0  0  0  0  0  0  0  0
    0.2500   -0.2060   -0.1570 C   0  0  1  0  0  0  0  0  0  0  0  0
    0.2250   -1.6560   -0.5990 C   0  0  1  0  0  0  0  0  0  0  0  0
    0.2870   -2.4620    0.5250 O   0  0  0  0  0  0  0  0  0  0  0  0
   -0.9330   -1.8570   -1.3020 O   0  0  0  0  0  0  0  0  0  0  0  0
   -1.8140   -0.8470   -1.0360 C   0  0  0  0  0  0  0  0  0  0  0  0
   -1.2460    0.0430    0.0170 C   0  0  1  0  0  0  0  0  0  0  0  0
   -1.6920   -0.3220    1.2670 O   0  0  0  0  0  0  0  0  0  0  0  0
   -1.4850    1.5060   -0.2280 C   0  0  0  0  0  0  0  0  0  0  0  0
   -2.8210    1.8490   -0.1570 O   0  0  0  0  0  0  0  0  0  0  0  0
  1  2  1  0
  2  3  1  0
  4  3  1  1
  4  5  1  0
  4  9  1  0
  5  6  1  1
  5  7  1  0
  7  8  1  0
  8  9  1  0
  9 10  1  1
  9 11  1  0
 11 12  1  0
M  END
