
     RDKit          3D

 12 12  0  0  0  0  0  0  0  0999 V2000
    3.3070   -0.3890   -0.9370 C   0  0  0  0  0  0  0  0  0  0  0  0
    2.2250   -1.0240   -0.3370 O   0  0  0  0  0  0  0  0  0  0  0  0
    1.5040   -0.1040    0.3720 C   0  0  2  0  0  0  0  0  0  0  0  0
    1.4750   -0.4480    1.7400 O   0  0  0  0  0  0  0  0  0  0  0  0
    0.0800    0.0500   -0.1080 C   0  0  2  0  0  0  0  0  0  0  0  0
   -0.5700    1.0990    0.7790 C   0  0  0  0  0  0  0  0  0  0  0  0
   -2.0230    1.2950    0.4650 C   0  0  1  0  0  0  0  0  0  0  0  0
   -2.1510    1.9180   -0.7700 O   0  0  0  0  0  0  0  0  0  0  0  0
   -2.6840    0.0910    0.5400 O   0  0  0  0  0  0  0  0  0  0  0  0
   -2.1620   -0.8830   -0.2880 C   0  0  0  0  0  0  0  0  0  0  0  0
   -0.7180   -1.2100    0.0290 C   0  0  2  0  0  0  0  0  0  0  0  0
   -0.6210   -1.7510    1.3000 O   0  0  0  0  0  0  0  0  0  0  0  0
  1  2  1  0
  2  3  1  0
  3  4  1  1
  3  5  1  0
  5  6  1  1
  5 11  1  0
  6  7  1  0
  7  8  1  6
  7  9  1  0
  9 10  1  0
 10 11  1  0
 11 12  1  1
M  END
