
     RDKit          3D

 12 13  0  0  0  0  0  0  0  0999 V2000
    2.5420    0.4700   -1.0920 O   0  0  0  0  0  0  0  0  0  0  0  0
    2.3200   -0.1260    0.1390 C   0  0  0  0  0  0  0  0  0  0  0  0
    0.8940    0.1340    0.5620 C   0  0  1  0  0  0  0  0  0  0  0  0
    0.5920   -0.4270    1.7800 O   0  0  0  0  0  0  0  0  0  0  0  0
    0.6150    1.5070    0.6180 O   0  0  0  0  0  0  0  0  0  0  0  0
   -0.7890    1.4650    0.7760 C   0  0  0  0  0  0  0  0  0  0  0  0
   -1.2040    0.6130   -0.3730 C   0  0  2  0  0  0  0  0  0  0  0  0
   -1.4320    1.3980   -1.4830 O   0  0  0  0  0  0  0  0  0  0  0  0
   -2.3260   -0.3260   -0.0810 C   0  0  0  0  0  0  0  0  0  0  0  0
   -1.9450   -1.5610   -0.5950 O   0  0  0  0  0  0  0  0  0  0  0  0
   -0.5750   -1.6860   -0.3560 C   0  0  0  0  0  0  0  0  0  0  0  0
   -0.0210   -0.3150   -0.5470 C   0  0  2  0  0  0  0  0  0  0  0  0
  1  2  1  0
  2  3  1  0
  3  4  1  1
  3  5  1  0
  3 12  1  0
  5  6  1  0
  6  7  1  0
  7  8  1  6
  7  9  1  0
  7 12  1  0
  9 10  1  0
 10 11  1  0
 12 11  1  1
M  END
