
     RDKit          3D

 26 28  0  0  0  0  0  0  0  0999 V2000
   -2.4690   -3.0590   -0.8870 C   0  0  0  0  0  0  0  0  0  0  0  0
   -2.6960   -2.0120   -1.9060 C   0  0  0  0  0  0  0  0  0  0  0  0
   -3.1610   -2.3310   -3.0130 O   0  0  0  0  0  0  0  0  0  0  0  0
   -2.3850   -0.6220   -1.6280 C   0  0  0  0  0  0  0  0  0  0  0  0
   -3.2770    0.3000   -1.0750 C   0  0  0  0  0  0  0  0  0  0  0  0
   -4.6520    0.0300   -0.6880 C   0  0  0  0  0  0  0  0  0  0  0  0
   -5.1170   -1.1390   -0.8530 O   0  0  0  0  0  0  0  0  0  0  0  0
   -5.4580    1.1280   -0.1150 C   0  0  2  0  0  0  0  0  0  0  0  0
   -4.9060    1.6820    1.1590 C   0  0  0  0  0  0  0  0  0  0  0  0
   -6.0020    1.4690    2.1900 C   0  0  0  0  0  0  0  0  0  0  0  0
   -6.7860    0.3360    1.6090 C   0  0  0  0  0  0  0  0  0  0  0  0
   -6.7760    0.5990    0.1820 N   0  0  0  0  0  0  0  0  0  0  0  0
   -2.6160    1.5040   -0.9660 C   0  0  0  0  0  0  0  0  0  0  0  0
   -1.3630    1.3680   -1.4250 N   0  0  0  0  0  0  0  0  0  0  0  0
   -1.2190    0.0780   -1.8280 C   0  0  0  0  0  0  0  0  0  0  0  0
   -0.0550   -0.4820   -2.3730 N   0  0  0  0  0  0  0  0  0  0  0  0
    1.0710   -0.4770   -1.7420 C   0  0  0  0  0  0  0  0  0  0  0  0
    1.1200    0.1400   -0.4060 C   0  0  0  0  0  0  0  0  0  0  0  0
    2.0100   -0.6590    0.4140 N   0  0  0  0  0  0  0  0  0  0  0  0
    3.3660   -0.2520    0.0940 C   0  0  1  0  0  0  0  0  0  0  0  0
    3.7610    0.8370    1.0510 C   0  0  0  0  0  0  0  0  0  0  0  0
    5.2350    0.7970    1.2840 C   0  0  0  0  0  0  0  0  0  0  0  0
    5.9200    0.3850    0.0070 C   0  0  1  0  0  0  0  0  0  0  0  0
    7.3950    0.6890    0.1540 C   0  0  0  0  0  0  0  0  0  0  0  0
    5.6740   -1.0980   -0.1770 C   0  0  0  0  0  0  0  0  0  0  0  0
    4.2600   -1.4680    0.2050 C   0  0  0  0  0  0  0  0  0  0  0  0
  1  2  1  0
  2  3  2  0
  2  4  1  0
  4  5  1  0
  4 15  2  0
  5  6  1  0
  5 13  2  0
  6  7  2  0
  8  6  1  1
  8  9  1  0
  8 12  1  0
  9 10  1  0
 10 11  1  0
 11 12  1  0
 13 14  1  0
 14 15  1  0
 15 16  1  0
 16 17  2  3
 17 18  1  0
 18 19  1  0
 20 19  1  1
 20 21  1  0
 20 26  1  0
 21 22  1  0
 22 23  1  0
 23 24  1  1
 23 25  1  0
 25 26  1  0
M  CHG  1  19   1
M  END
