
     RDKit          3D

 12 12  0  0  0  0  0  0  0  0999 V2000
   -2.0670   -1.3490   -0.6080 C   0  0  0  0  0  0  0  0  0  0  0  0
   -1.3480   -0.2180    0.1000 C   0  0  2  0  0  0  0  0  0  0  0  0
   -1.9660   -0.0690    1.3310 O   0  0  0  0  0  0  0  0  0  0  0  0
   -1.4740    1.0400   -0.7140 C   0  0  0  0  0  0  0  0  0  0  0  0
   -2.8310    1.2970   -0.9000 O   0  0  0  0  0  0  0  0  0  0  0  0
    0.1120   -0.5370    0.3450 C   0  0  1  0  0  0  0  0  0  0  0  0
    0.8500   -0.8170   -0.9480 C   0  0  0  0  0  0  0  0  0  0  0  0
    2.1680   -1.1260   -0.6140 O   0  0  0  0  0  0  0  0  0  0  0  0
    2.7790   -0.1080    0.0890 C   0  0  2  0  0  0  0  0  0  0  0  0
    3.3780   -0.5830    1.2690 O   0  0  0  0  0  0  0  0  0  0  0  0
    1.8270    1.0000    0.4280 C   0  0  0  0  0  0  0  0  0  0  0  0
    0.6810    0.4970    1.0450 O   0  0  0  0  0  0  0  0  0  0  0  0
  2  1  1  6
  2  3  1  0
  2  4  1  0
  2  6  1  0
  4  5  1  0
  6  7  1  6
  6 12  1  0
  7  8  1  0
  8  9  1  0
  9 10  1  1
  9 11  1  0
 11 12  1  0
M  END
