
     RDKit          3D

 12 12  0  0  0  0  0  0  0  0999 V2000
    3.3820   -0.5990    0.2280 C   0  0  0  0  0  0  0  0  0  0  0  0
    2.0210   -0.8670    0.2970 O   0  0  0  0  0  0  0  0  0  0  0  0
    1.3400   -0.1210   -0.6390 C   0  0  1  0  0  0  0  0  0  0  0  0
    0.7020   -0.9320   -1.5740 O   0  0  0  0  0  0  0  0  0  0  0  0
   -0.2800   -1.7330   -1.0180 C   0  0  0  0  0  0  0  0  0  0  0  0
   -1.2750   -0.9290   -0.2100 C   0  0  1  0  0  0  0  0  0  0  0  0
   -1.0780   -1.1730    1.1530 O   0  0  0  0  0  0  0  0  0  0  0  0
   -0.9960    0.5320   -0.4970 C   0  0  1  0  0  0  0  0  0  0  0  0
   -2.0800    1.3730    0.1260 C   0  0  0  0  0  0  0  0  0  0  0  0
   -3.3000    0.9980   -0.4320 O   0  0  0  0  0  0  0  0  0  0  0  0
    0.3690    0.8500    0.0200 C   0  0  2  0  0  0  0  0  0  0  0  0
    0.6970    2.1740   -0.2460 O   0  0  0  0  0  0  0  0  0  0  0  0
  1  2  1  0
  3  2  1  1
  3  4  1  0
  3 11  1  0
  4  5  1  0
  5  6  1  0
  6  7  1  1
  6  8  1  0
  8  9  1  1
  8 11  1  0
  9 10  1  0
 11 12  1  6
M  END
