
     RDKit          3D

 12 12  0  0  0  0  0  0  0  0999 V2000
    2.9340   -0.8690    1.1540 C   0  0  0  0  0  0  0  0  0  0  0  0
    1.5890   -1.0070    0.7960 O   0  0  0  0  0  0  0  0  0  0  0  0
    1.3600   -0.5450   -0.4980 C   0  0  1  0  0  0  0  0  0  0  0  0
    0.9230   -1.6400   -1.2420 O   0  0  0  0  0  0  0  0  0  0  0  0
    0.3210    0.5280   -0.4190 C   0  0  1  0  0  0  0  0  0  0  0  0
   -0.0120    1.1180   -1.7770 C   0  0  0  0  0  0  0  0  0  0  0  0
   -1.3660    1.3930   -1.7930 O   0  0  0  0  0  0  0  0  0  0  0  0
   -1.8610    1.2170   -0.5260 C   0  0  1  0  0  0  0  0  0  0  0  0
   -3.2160    0.9550   -0.4940 O   0  0  0  0  0  0  0  0  0  0  0  0
   -1.0470    0.0080   -0.0430 C   0  0  2  0  0  0  0  0  0  0  0  0
   -1.2120   -0.2050    1.4340 C   0  0  0  0  0  0  0  0  0  0  0  0
   -2.5070   -0.6800    1.6470 O   0  0  0  0  0  0  0  0  0  0  0  0
  1  2  1  0
  2  3  1  0
  3  4  1  6
  3  5  1  0
  5  6  1  6
  5 10  1  0
  6  7  1  0
  7  8  1  0
  8  9  1  6
  8 10  1  0
 10 11  1  1
 11 12  1  0
M  END
