
     RDKit          3D

 26 28  0  0  0  0  0  0  0  0999 V2000
   -6.2750   -0.4640    0.2430 N   0  0  0  0  0  0  0  0  0  0  0  0
   -5.2610   -0.4900    1.0390 C   0  0  0  0  0  0  0  0  0  0  0  0
   -4.1400   -1.2920    0.7000 N   0  0  0  0  0  0  0  0  0  0  0  0
   -3.8230   -1.6150   -0.6680 C   0  0  1  0  0  0  0  0  0  0  0  0
   -3.4510   -0.0320   -1.5250 S   0  0  0  0  0  0  0  0  0  0  0  0
   -1.7170    0.2820   -1.1720 C   0  0  0  0  0  0  0  0  0  0  0  0
   -0.9220   -0.6640   -0.7610 C   0  0  0  0  0  0  0  0  0  0  0  0
   -1.3280   -1.9980   -0.5540 O   0  0  0  0  0  0  0  0  0  0  0  0
   -2.5970   -2.4650   -0.7600 C   0  0  0  0  0  0  0  0  0  0  0  0
   -2.8300   -3.6890   -1.0520 O   0  0  0  0  0  0  0  0  0  0  0  0
    0.4160   -0.0490   -0.5730 C   0  0  0  0  0  0  0  0  0  0  0  0
    1.5770   -0.8370   -0.1540 C   0  0  0  0  0  0  0  0  0  0  0  0
    1.4310   -2.0760    0.1280 O   0  0  0  0  0  0  0  0  0  0  0  0
    2.8930   -0.3500   -0.0270 N   0  0  0  0  0  0  0  0  0  0  0  0
    3.9930   -1.1480    0.3890 C   0  0  0  0  0  0  0  0  0  0  0  0
    4.1890   -2.4170    0.7520 C   0  0  0  0  0  0  0  0  0  0  0  0
    5.4000   -2.8630    1.0980 C   0  0  0  0  0  0  0  0  0  0  0  0
    6.4650   -2.0010    1.0800 C   0  0  0  0  0  0  0  0  0  0  0  0
    5.6780   -0.4260    0.5260 S   0  0  0  0  0  0  0  0  0  0  0  0
    0.3700    1.2310   -0.8760 C   0  0  0  0  0  0  0  0  0  0  0  0
    1.4250    2.1510   -0.8250 O   0  0  0  0  0  0  0  0  0  0  0  0
    1.6880    2.9970    0.2440 C   0  0  0  0  0  0  0  0  0  0  0  0
    0.5820    3.9500    0.4980 C   0  0  0  0  0  0  0  0  0  0  0  0
    0.3900    4.7560   -0.6360 O   0  0  0  0  0  0  0  0  0  0  0  0
   -0.9850    1.5420   -1.2810 C   0  0  0  0  0  0  0  0  0  0  0  0
   -1.4770    2.6590   -1.6600 O   0  0  0  0  0  0  0  0  0  0  0  0
  1  2  2  0
  2  3  1  0
  4  3  1  1
  4  5  1  0
  4  9  1  0
  5  6  1  0
  6  7  2  0
  6 25  1  0
  7  8  1  0
  7 11  1  0
  8  9  1  0
  9 10  2  0
 11 12  1  0
 11 20  2  0
 12 13  2  0
 12 14  1  0
 14 15  1  0
 15 16  2  0
 15 19  1  0
 16 17  1  0
 17 18  2  0
 18 19  1  0
 20 21  1  0
 20 25  1  0
 21 22  1  0
 22 23  1  0
 23 24  1  0
 25 26  2  0
M  CHG  1   1   1
M  END
