
     RDKit          3D

 26 28  0  0  0  0  0  0  0  0999 V2000
   -7.6220   -0.6340   -0.4590 C   0  0  0  0  0  0  0  0  0  0  0  0
   -6.8780   -0.4830    0.7560 O   0  0  0  0  0  0  0  0  0  0  0  0
   -5.5720   -1.0110    0.7230 C   0  0  0  0  0  0  0  0  0  0  0  0
   -4.9490   -1.9240    0.9770 N   0  0  0  0  0  0  0  0  0  0  0  0
   -3.6620   -2.1550    0.8270 C   0  0  0  0  0  0  0  0  0  0  0  0
   -2.9520   -1.1300    0.2730 C   0  0  0  0  0  0  0  0  0  0  0  0
   -1.5140   -1.0350   -0.0390 C   0  0  0  0  0  0  0  0  0  0  0  0
   -0.8460   -0.5140    1.1310 N   0  0  0  0  0  0  0  0  0  0  0  0
    0.2390    0.3710    0.8520 C   0  0  1  0  0  0  0  0  0  0  0  0
    1.3390   -0.3340    0.1310 C   0  0  0  0  0  0  0  0  0  0  0  0
    1.1690   -1.5330   -0.1340 O   0  0  0  0  0  0  0  0  0  0  0  0
    2.5310    0.3150   -0.2420 N   0  0  0  0  0  0  0  0  0  0  0  0
    3.6410   -0.2770   -0.9430 C   0  0  0  0  0  0  0  0  0  0  0  0
    3.5430   -1.5420   -1.4560 C   0  0  0  0  0  0  0  0  0  0  0  0
    4.9290   -2.1220   -2.2990 S   0  0  0  0  0  0  0  0  0  0  0  0
    6.1870   -0.9890   -2.3380 C   0  0  0  0  0  0  0  0  0  0  0  0
    7.3210   -1.1820   -2.9050 O   0  0  0  0  0  0  0  0  0  0  0  0
    5.9310    0.2000   -1.7080 C   0  0  0  0  0  0  0  0  0  0  0  0
    6.9890    1.1430   -1.7460 O   0  0  0  0  0  0  0  0  0  0  0  0
    4.7610    0.5480   -1.0580 C   0  0  0  0  0  0  0  0  0  0  0  0
    4.7840    1.8170   -0.5090 O   0  0  0  0  0  0  0  0  0  0  0  0
   -0.2000    1.6380    0.1630 C   0  0  0  0  0  0  0  0  0  0  0  0
   -0.6670    2.4720    1.3320 C   0  0  0  0  0  0  0  0  0  0  0  0
   -0.1450    1.9510    2.4800 O   0  0  0  0  0  0  0  0  0  0  0  0
    0.7230    0.9330    2.1790 C   0  0  0  0  0  0  0  0  0  0  0  0
   -4.2020    0.1180    0.0010 S   0  0  0  0  0  0  0  0  0  0  0  0
  1  2  1  0
  2  3  1  0
  3  4  2  0
  3 26  1  0
  4  5  1  0
  5  6  2  0
  6  7  1  0
  6 26  1  0
  7  8  1  0
  9  8  1  1
  9 10  1  0
  9 22  1  0
  9 25  1  0
 10 11  2  0
 10 12  1  0
 12 13  1  0
 13 14  2  0
 13 20  1  0
 14 15  1  0
 15 16  1  0
 16 17  2  0
 16 18  1  0
 18 19  1  0
 18 20  2  0
 20 21  1  0
 22 23  1  0
 23 24  1  0
 24 25  1  0
M  CHG  1   8   1
M  END
