
     RDKit          3D

 21 23  0  0  0  0  0  0  0  0999 V2000
    5.7350   -1.4010    0.1170 C   0  0  0  0  0  0  0  0  0  0  0  0
    4.5000   -0.5620    0.0080 C   0  0  0  0  0  0  0  0  0  0  0  0
    3.7300   -0.5480   -1.1240 C   0  0  0  0  0  0  0  0  0  0  0  0
    2.5840    0.2240   -1.2420 C   0  0  0  0  0  0  0  0  0  0  0  0
    2.2080    1.0060   -0.1760 C   0  0  0  0  0  0  0  0  0  0  0  0
    0.9930    1.8400   -0.2680 C   0  0  1  0  0  0  0  0  0  0  0  0
    0.9490    2.5050   -1.4870 O   0  0  0  0  0  0  0  0  0  0  0  0
   -0.2560    1.0510   -0.0750 C   0  0  0  0  0  0  0  0  0  0  0  0
   -0.2450   -0.2320    0.3780 C   0  0  0  0  0  0  0  0  0  0  0  0
   -1.4210   -0.9210    0.5400 C   0  0  0  0  0  0  0  0  0  0  0  0
   -1.4520   -2.3350    1.0370 C   0  0  0  0  0  0  0  0  0  0  0  0
   -2.6010   -0.3010    0.2400 C   0  0  0  0  0  0  0  0  0  0  0  0
   -2.6520    1.0060   -0.2240 C   0  0  0  0  0  0  0  0  0  0  0  0
   -1.4520    1.6670   -0.3750 C   0  0  0  0  0  0  0  0  0  0  0  0
   -4.0440    1.3410   -0.4380 C   0  0  0  0  0  0  0  0  0  0  0  0
   -4.8390    0.3430   -0.1410 C   0  0  0  0  0  0  0  0  0  0  0  0
   -6.2930    0.2810   -0.2190 C   0  0  0  0  0  0  0  0  0  0  0  0
   -6.9330   -0.7480    0.1000 O   0  0  0  0  0  0  0  0  0  0  0  0
   -3.9860   -0.7740    0.3120 C   0  0  0  0  0  0  0  0  0  0  0  0
    2.9700    1.0050    0.9700 C   0  0  0  0  0  0  0  0  0  0  0  0
    4.1240    0.2200    1.0720 C   0  0  0  0  0  0  0  0  0  0  0  0
  1  2  1  0
  2  3  2  0
  2 21  1  0
  3  4  1  0
  4  5  2  0
  5  6  1  0
  5 20  1  0
  6  7  1  6
  6  8  1  0
  8  9  2  0
  8 14  1  0
  9 10  1  0
 10 11  1  0
 10 12  2  0
 12 13  1  0
 12 19  1  0
 13 14  2  0
 13 15  1  0
 15 16  2  0
 16 17  1  0
 16 19  1  0
 17 18  2  0
 20 21  2  0
M  END
