
     RDKit          3D

 26 27  0  0  0  0  0  0  0  0999 V2000
   -5.0660    2.1830    2.2540 C   0  0  0  0  0  0  0  0  0  0  0  0
   -3.6690    1.0970    1.9320 S   0  0  0  0  0  0  0  0  0  0  0  0
   -3.5270    0.6370    0.2480 C   0  0  0  0  0  0  0  0  0  0  0  0
   -4.5380    1.1890   -0.6350 N   0  0  0  0  0  0  0  0  0  0  0  0
   -2.6550   -0.1210   -0.3170 C   0  0  0  0  0  0  0  0  0  0  0  0
   -1.5050   -0.8400    0.2360 C   0  0  0  0  0  0  0  0  0  0  0  0
   -0.6840   -1.6150   -0.3940 C   0  0  0  0  0  0  0  0  0  0  0  0
   -0.6030   -2.0190   -1.7840 C   0  0  0  0  0  0  0  0  0  0  0  0
    0.3870   -2.8260   -2.0570 O   0  0  0  0  0  0  0  0  0  0  0  0
   -1.3670   -1.7280   -2.9090 N   0  0  0  0  0  0  0  0  0  0  0  0
   -1.0410   -2.2900   -4.2200 C   0  0  0  0  0  0  0  0  0  0  0  0
   -0.0640   -3.0380   -4.3190 O   0  0  0  0  0  0  0  0  0  0  0  0
    0.3590   -2.2960    0.4950 C   0  0  1  0  0  0  0  0  0  0  0  0
    1.6760   -1.6020    0.4040 C   0  0  0  0  0  0  0  0  0  0  0  0
    2.6650   -2.2880    0.0840 O   0  0  0  0  0  0  0  0  0  0  0  0
    1.8590   -0.2520    0.6540 N   0  0  0  0  0  0  0  0  0  0  0  0
    3.0050    0.5850    0.6260 C   0  0  0  0  0  0  0  0  0  0  0  0
    4.2240    0.2320    0.3370 C   0  0  0  0  0  0  0  0  0  0  0  0
    4.4790   -1.1250    0.0090 O   0  0  0  0  0  0  0  0  0  0  0  0
    5.3730    1.1450    0.3250 C   0  0  0  0  0  0  0  0  0  0  0  0
    5.0780    2.4460    0.6490 O   0  0  0  0  0  0  0  0  0  0  0  0
    3.8060    2.8340    0.9540 C   0  0  0  0  0  0  0  0  0  0  0  0
    2.7820    2.0250    0.9660 C   0  0  0  0  0  0  0  0  0  0  0  0
   -0.4110   -2.1820    2.1190 S   0  0  0  0  0  0  0  0  0  0  0  0
   -1.1870   -0.5810    1.6630 C   0  0  0  0  0  0  0  0  0  0  0  0
   -1.3390    0.3700    2.4200 O   0  0  0  0  0  0  0  0  0  0  0  0
  1  2  1  0
  2  3  1  0
  3  4  1  0
  3  5  2  3
  5  6  1  0
  6  7  2  0
  6 25  1  0
  7  8  1  0
  7 13  1  0
  8  9  2  0
  8 10  1  0
 10 11  1  0
 11 12  2  0
 13 14  1  1
 13 24  1  0
 14 15  2  0
 14 16  1  0
 16 17  1  0
 17 18  2  0
 17 23  1  0
 18 19  1  0
 18 20  1  0
 20 21  1  0
 21 22  1  0
 22 23  2  0
 24 25  1  0
 25 26  2  0
M  END
