
     RDKit          3D

 26 27  0  0  0  0  0  0  0  0999 V2000
    0.6380   -2.7530    5.8140 C   0  0  0  0  0  0  0  0  0  0  0  0
    0.6990   -2.5710    4.3510 C   0  0  0  0  0  0  0  0  0  0  0  0
    1.0610   -3.4460    3.5350 O   0  0  0  0  0  0  0  0  0  0  0  0
    0.3190   -1.3040    3.7970 N   0  0  0  0  0  0  0  0  0  0  0  0
    0.3470   -1.0440    2.4240 C   0  0  0  0  0  0  0  0  0  0  0  0
    0.0400    0.0320    1.7670 C   0  0  0  0  0  0  0  0  0  0  0  0
   -0.4400    1.2830    2.4740 C   0  0  0  0  0  0  0  0  0  0  0  0
   -2.0640    1.7450    1.9850 S   0  0  1  0  0  0  0  0  0  0  0  0
   -2.5220    3.2240    2.8860 C   0  0  0  0  0  0  0  0  0  0  0  0
   -2.1930    2.0930    0.5370 O   0  0  0  0  0  0  0  0  0  0  0  0
   -3.0570    0.6350    2.2540 O   0  0  0  0  0  0  0  0  0  0  0  0
    0.1620    0.0150    0.4320 O   0  0  0  0  0  0  0  0  0  0  0  0
    0.5940   -1.0940   -0.2090 C   0  0  0  0  0  0  0  0  0  0  0  0
    0.8300   -1.4180   -1.4690 C   0  0  0  0  0  0  0  0  0  0  0  0
    0.6610   -0.5550   -2.5870 N   0  0  0  0  0  0  0  0  0  0  0  0
    0.2300    0.7720   -2.5920 C   0  0  0  0  0  0  0  0  0  0  0  0
   -0.0560    1.3260   -1.5180 O   0  0  0  0  0  0  0  0  0  0  0  0
    0.1120    1.5190   -3.8770 C   0  0  0  0  0  0  0  0  0  0  0  0
    0.3700    1.0940   -5.0980 C   0  0  0  0  0  0  0  0  0  0  0  0
    0.1180    2.1660   -6.0930 C   0  0  0  0  0  0  0  0  0  0  0  0
   -0.3320    3.2900   -5.2360 C   0  0  0  0  0  0  0  0  0  0  0  0
   -0.3270    2.8940   -3.9680 C   0  0  0  0  0  0  0  0  0  0  0  0
    1.3100   -2.7560   -1.8270 C   0  0  0  0  0  0  0  0  0  0  0  0
    1.5520   -3.7660   -0.8990 N   0  0  0  0  0  0  0  0  0  0  0  0
    1.5140   -3.0010   -3.0380 O   0  0  0  0  0  0  0  0  0  0  0  0
    0.8270   -2.2280    1.1890 S   0  0  0  0  0  0  0  0  0  0  0  0
  1  2  1  0
  2  3  2  0
  2  4  1  0
  4  5  1  0
  5  6  2  0
  5 26  1  0
  6  7  1  0
  6 12  1  0
  7  8  1  0
  8  9  1  1
  8 10  2  0
  8 11  2  0
 12 13  1  0
 13 14  2  3
 13 26  1  0
 14 15  1  0
 14 23  1  0
 15 16  1  0
 16 17  2  0
 16 18  1  0
 18 19  2  0
 18 22  1  0
 19 20  1  0
 20 21  1  0
 21 22  2  0
 23 24  1  0
 23 25  2  0
M  CHG  1  24   1
M  END
