
     RDKit          3D

 23 24  0  0  0  0  0  0  0  0999 V2000
   -5.2430   -0.4870    2.1420 O   0  0  0  0  0  0  0  0  0  0  0  0
   -4.3800   -1.3150    1.4470 C   0  0  0  0  0  0  0  0  0  0  0  0
   -3.5200   -0.5600    0.4890 C   0  0  0  0  0  0  0  0  0  0  0  0
   -2.2200   -0.6080    0.6270 C   0  0  0  0  0  0  0  0  0  0  0  0
   -1.2400    0.0910   -0.2490 C   0  0  2  0  0  0  0  0  0  0  0  0
   -0.1410    0.5200    0.5350 N   0  0  0  0  0  0  0  0  0  0  0  0
    1.1550    0.3410   -0.1420 C   0  0  1  0  0  0  0  0  0  0  0  0
    2.1400    1.1870    0.5620 C   0  0  0  0  0  0  0  0  0  0  0  0
    3.5490    0.7630    0.5580 C   0  0  2  0  0  0  0  0  0  0  0  0
    4.4540    1.7880   -0.1440 C   0  0  0  0  0  0  0  0  0  0  0  0
    5.7530    1.2350   -0.0600 O   0  0  0  0  0  0  0  0  0  0  0  0
    3.8290   -0.5550   -0.1000 C   0  0  1  0  0  0  0  0  0  0  0  0
    5.0470   -1.0500    0.3410 O   0  0  0  0  0  0  0  0  0  0  0  0
    2.7510   -1.5140    0.4210 C   0  0  2  0  0  0  0  0  0  0  0  0
    3.0340   -2.8090    0.0480 O   0  0  0  0  0  0  0  0  0  0  0  0
    1.4870   -1.0890   -0.3110 C   0  0  1  0  0  0  0  0  0  0  0  0
    0.4870   -1.9660    0.1130 O   0  0  0  0  0  0  0  0  0  0  0  0
   -1.9790    1.2530   -0.9220 C   0  0  2  0  0  0  0  0  0  0  0  0
   -2.3670    2.2070   -0.0100 O   0  0  0  0  0  0  0  0  0  0  0  0
   -3.1850    0.5980   -1.6080 C   0  0  1  0  0  0  0  0  0  0  0  0
   -2.6940   -0.5790   -2.1830 O   0  0  0  0  0  0  0  0  0  0  0  0
   -4.2160    0.2210   -0.5920 C   0  0  2  0  0  0  0  0  0  0  0  0
   -4.9260    1.2800   -0.0850 O   0  0  0  0  0  0  0  0  0  0  0  0
  1  2  1  0
  2  3  1  0
  3  4  2  0
  3 22  1  0
  4  5  1  0
  5  6  1  1
  5 18  1  0
  7  6  1  1
  7  8  1  0
  7 16  1  0
  8  9  1  0
  9 10  1  6
  9 12  1  0
 10 11  1  0
 12 13  1  1
 12 14  1  0
 14 15  1  6
 14 16  1  0
 16 17  1  1
 18 19  1  1
 18 20  1  0
 20 21  1  1
 20 22  1  0
 22 23  1  1
M  CHG  1   6   1
M  END
