
     RDKit          3D

 17 18  0  0  0  0  0  0  0  0999 V2000
    2.9220    1.1140   -0.5660 C   0  0  0  0  0  0  0  0  0  0  0  0
    2.5600   -0.1890   -0.0770 N   0  0  0  0  0  0  0  0  0  0  0  0
    3.4900   -1.1300    0.1490 N   0  0  0  0  0  0  0  0  0  0  0  0
    2.9180   -2.2560    0.5990 C   0  0  0  0  0  0  0  0  0  0  0  0
    1.6190   -1.9770    0.6420 N   0  0  0  0  0  0  0  0  0  0  0  0
    1.3800   -0.7100    0.2300 C   0  0  0  0  0  0  0  0  0  0  0  0
    0.0590   -0.1110    0.1650 C   0  0  0  0  0  0  0  0  0  0  0  0
   -0.9740   -0.8640    0.5350 C   0  0  0  0  0  0  0  0  0  0  0  0
   -2.3330   -0.3810    0.5140 C   0  0  0  0  0  0  0  0  0  0  0  0
   -3.3220   -1.1700    0.8910 C   0  0  0  0  0  0  0  0  0  0  0  0
   -2.9570   -2.9340    1.4580 Br  0  0  0  0  0  0  0  0  0  0  0  0
   -2.6620    0.9840    0.0800 C   0  0  2  0  0  0  0  0  0  0  0  0
   -3.5860    1.8550    1.5570 Br  0  0  0  0  0  0  0  0  0  0  0  0
   -3.9390    0.9390   -1.4000 Br  0  0  0  0  0  0  0  0  0  0  0  0
   -1.4490    1.7230   -0.3050 C   0  0  0  0  0  0  0  0  0  0  0  0
   -1.6500    3.5510   -0.9120 Br  0  0  0  0  0  0  0  0  0  0  0  0
   -0.2120    1.2390   -0.2700 C   0  0  0  0  0  0  0  0  0  0  0  0
  1  2  1  0
  2  3  1  0
  2  6  1  0
  3  4  2  0
  4  5  1  0
  5  6  2  0
  6  7  1  0
  7  8  2  0
  7 17  1  0
  8  9  1  0
  9 10  2  3
  9 12  1  0
 10 11  1  0
 12 13  1  1
 12 14  1  0
 12 15  1  0
 15 16  1  0
 15 17  2  0
M  END
