
     RDKit          3D

 17 18  0  0  0  0  0  0  0  0999 V2000
   -1.5750   -1.2190   -0.8340 C   0  0  0  0  0  0  0  0  0  0  0  0
   -1.3220   -0.3320    0.3960 C   0  0  1  0  0  0  0  0  0  0  0  0
   -2.4110   -0.7120    1.3810 C   0  0  0  0  0  0  0  0  0  0  0  0
   -0.0400   -0.8620    0.9960 C   0  0  0  0  0  0  0  0  0  0  0  0
    1.1300   -0.4250    0.3190 N   0  0  0  0  0  0  0  0  0  0  0  0
    2.3530   -1.0570   -0.0440 C   0  0  0  0  0  0  0  0  0  0  0  0
    3.2270    0.1160   -0.3560 C   0  0  0  0  0  0  0  0  0  0  0  0
    4.5340    0.1530   -0.4680 C   0  0  0  0  0  0  0  0  0  0  0  0
    5.5440   -1.4370   -0.2180 Br  0  0  0  0  0  0  0  0  0  0  0  0
    2.3680    1.2240   -0.5180 N   0  0  0  0  0  0  0  0  0  0  0  0
    1.1930    0.8970   -0.1310 C   0  0  0  0  0  0  0  0  0  0  0  0
   -0.0390    1.6950   -0.1000 C   0  0  0  0  0  0  0  0  0  0  0  0
   -1.2410    1.0250    0.1030 N   0  0  0  0  0  0  0  0  0  0  0  0
   -2.3210    1.6700   -0.5370 C   0  0  1  0  0  0  0  0  0  0  0  0
   -2.4260    3.4750    0.2260 Br  0  0  0  0  0  0  0  0  0  0  0  0
   -2.0130    1.9610   -2.4370 Br  0  0  0  0  0  0  0  0  0  0  0  0
   -4.0430    0.8800   -0.3110 Br  0  0  0  0  0  0  0  0  0  0  0  0
  2  1  1  6
  2  3  1  0
  2  4  1  0
  2 13  1  0
  4  5  1  0
  5  6  1  0
  5 11  1  0
  6  7  1  0
  7  8  2  3
  7 10  1  0
  8  9  1  0
 10 11  2  0
 11 12  1  0
 12 13  1  0
 13 14  1  0
 14 15  1  1
 14 16  1  0
 14 17  1  0
M  END
