
     RDKit          3D

 17 18  0  0  0  0  0  0  0  0999 V2000
   -3.7920    1.3520    2.2110 Br  0  0  0  0  0  0  0  0  0  0  0  0
   -3.3090    0.9870    0.3400 C   0  0  0  0  0  0  0  0  0  0  0  0
   -2.5170   -0.2340    0.3370 C   0  0  0  0  0  0  0  0  0  0  0  0
   -1.3020   -0.4760   -0.0640 C   0  0  0  0  0  0  0  0  0  0  0  0
   -0.8130   -1.8670    0.0930 C   0  0  0  0  0  0  0  0  0  0  0  0
   -2.1770   -3.1710    0.0570 Br  0  0  0  0  0  0  0  0  0  0  0  0
    0.4600   -2.2640    0.2640 C   0  0  0  0  0  0  0  0  0  0  0  0
    1.6930   -1.4770    0.3430 C   0  0  0  0  0  0  0  0  0  0  0  0
    1.8420   -0.2210   -0.0340 C   0  0  0  0  0  0  0  0  0  0  0  0
    3.1960    0.3410    0.1530 C   0  0  2  0  0  0  0  0  0  0  0  0
    4.3490   -0.9980    0.9230 Br  0  0  0  0  0  0  0  0  0  0  0  0
    3.1090    1.8350    1.4110 Br  0  0  0  0  0  0  0  0  0  0  0  0
    0.8510    0.6700   -0.6080 C   0  0  0  0  0  0  0  0  0  0  0  0
    1.1800    1.8270   -1.2700 C   0  0  0  0  0  0  0  0  0  0  0  0
    0.0080    2.3540   -1.6500 N   0  0  0  0  0  0  0  0  0  0  0  0
   -1.0020    1.6010   -1.2660 N   0  0  0  0  0  0  0  0  0  0  0  0
   -0.5150    0.5630   -0.6250 N   0  0  0  0  0  0  0  0  0  0  0  0
  1  2  1  0
  2  3  1  0
  3  4  2  3
  4  5  1  0
  4 17  1  0
  5  6  1  0
  5  7  2  0
  7  8  1  0
  8  9  2  0
  9 10  1  0
  9 13  1  0
 10 11  1  1
 10 12  1  0
 13 14  2  0
 13 17  1  0
 14 15  1  0
 15 16  2  0
 16 17  1  0
M  END
