
     RDKit          3D

 33 37  0  0  0  0  0  0  0  0999 V2000
   -5.1260    3.5160   -0.9200 C   0  0  0  0  0  0  0  0  0  0  0  0
   -4.6580    2.3160   -0.7170 C   0  0  0  0  0  0  0  0  0  0  0  0
   -3.3040    1.9260   -0.5690 C   0  0  0  0  0  0  0  0  0  0  0  0
   -2.3250    2.6500   -0.6030 O   0  0  0  0  0  0  0  0  0  0  0  0
   -3.2760    0.5560   -0.3730 C   0  0  0  0  0  0  0  0  0  0  0  0
   -2.6550   -0.6550   -0.1530 C   0  0  0  0  0  0  0  0  0  0  0  0
   -1.2370   -0.8760   -0.0200 C   0  0  0  0  0  0  0  0  0  0  0  0
   -0.2630    0.0390   -0.2800 C   0  0  0  0  0  0  0  0  0  0  0  0
    1.1060   -0.2490   -0.0750 C   0  0  0  0  0  0  0  0  0  0  0  0
    1.5310   -1.4510    0.3910 C   0  0  0  0  0  0  0  0  0  0  0  0
    2.8730   -1.8240    0.6250 N   0  0  0  0  0  0  0  0  0  0  0  0
    4.0190   -1.0320    0.4240 C   0  0  0  0  0  0  0  0  0  0  0  0
    3.9270    0.1390   -0.0060 O   0  0  0  0  0  0  0  0  0  0  0  0
    5.3750   -1.5030    0.6940 C   0  0  0  0  0  0  0  0  0  0  0  0
    6.4760   -0.5280    0.4230 C   0  0  1  0  0  0  0  0  0  0  0  0
    6.5510   -0.0750   -0.9620 C   0  0  0  0  0  0  0  0  0  0  0  0
    6.7480    1.1900   -1.2480 C   0  0  0  0  0  0  0  0  0  0  0  0
    6.8300    1.6740   -2.9280 Cl  0  0  0  0  0  0  0  0  0  0  0  0
    6.8970    2.2180   -0.2390 C   0  0  0  0  0  0  0  0  0  0  0  0
    7.1610    3.9070   -0.6810 Cl  0  0  0  0  0  0  0  0  0  0  0  0
    6.8330    1.8690    1.0220 C   0  0  0  0  0  0  0  0  0  0  0  0
    6.6190    0.5050    1.4910 C   0  0  1  0  0  0  0  0  0  0  0  0
    5.3150    0.4150    2.7060 Cl  0  0  0  0  0  0  0  0  0  0  0  0
    0.5360   -2.3930    0.6590 C   0  0  0  0  0  0  0  0  0  0  0  0
   -0.7740   -2.1080    0.4590 C   0  0  0  0  0  0  0  0  0  0  0  0
   -3.5820   -1.6360   -0.0720 O   0  0  0  0  0  0  0  0  0  0  0  0
   -4.7790   -1.1360   -0.2270 C   0  0  0  0  0  0  0  0  0  0  0  0
   -6.1310   -1.4950   -0.2660 C   0  0  0  0  0  0  0  0  0  0  0  0
   -7.1180   -0.5050   -0.4770 C   0  0  0  0  0  0  0  0  0  0  0  0
   -8.5370   -0.9380   -0.5100 C   0  0  0  0  0  0  0  0  0  0  0  0
   -6.8140    0.8370   -0.6510 C   0  0  0  0  0  0  0  0  0  0  0  0
   -5.4700    1.1890   -0.6120 C   0  0  0  0  0  0  0  0  0  0  0  0
   -4.5840    0.1940   -0.4100 C   0  0  0  0  0  0  0  0  0  0  0  0
  1  2  2  0
  2  3  1  0
  2 32  1  0
  3  4  2  0
  3  5  1  0
  5  6  2  0
  5 33  1  0
  6  7  1  0
  6 26  1  0
  7  8  2  0
  7 25  1  0
  8  9  1  0
  9 10  2  0
 10 11  1  0
 10 24  1  0
 11 12  1  0
 12 13  2  0
 12 14  1  0
 15 14  1  6
 15 16  1  0
 15 22  1  0
 16 17  2  0
 17 18  1  0
 17 19  1  0
 19 20  1  0
 19 21  2  0
 21 22  1  0
 22 23  1  6
 24 25  2  0
 26 27  1  0
 27 28  1  0
 27 33  2  0
 28 29  2  0
 29 30  1  0
 29 31  1  0
 31 32  2  0
 32 33  1  0
M  END
