
     RDKit          3D

 33 37  0  0  0  0  0  0  0  0999 V2000
    3.3950   -3.7470    0.9980 C   0  0  0  0  0  0  0  0  0  0  0  0
    2.8690   -2.3300    1.2610 C   0  0  2  0  0  0  0  0  0  0  0  0
    1.3730   -2.4670    1.4130 C   0  0  0  0  0  0  0  0  0  0  0  0
    3.2670   -1.5010    0.0840 C   0  0  0  0  0  0  0  0  0  0  0  0
    2.8710   -0.1310    0.1260 N   0  0  0  0  0  0  0  0  0  0  0  0
    3.6470    0.8050    0.6810 C   0  0  0  0  0  0  0  0  0  0  0  0
    4.7730    0.5000    1.2030 O   0  0  0  0  0  0  0  0  0  0  0  0
    3.3140    2.0940    0.7310 N   0  0  0  0  0  0  0  0  0  0  0  0
    4.2000    3.0870    1.3500 C   0  0  0  0  0  0  0  0  0  0  0  0
    2.1550    2.5430    0.2180 C   0  0  0  0  0  0  0  0  0  0  0  0
    1.8790    3.7890    0.2800 O   0  0  0  0  0  0  0  0  0  0  0  0
    1.3060    1.6310   -0.3670 C   0  0  0  0  0  0  0  0  0  0  0  0
    0.0670    1.7570   -1.0100 C   0  0  0  0  0  0  0  0  0  0  0  0
   -0.7280    2.9650   -1.0410 C   0  0  0  0  0  0  0  0  0  0  0  0
   -1.4150    3.3290   -2.1590 C   0  0  0  0  0  0  0  0  0  0  0  0
   -2.2690    4.4030   -2.1390 C   0  0  0  0  0  0  0  0  0  0  0  0
   -2.4250    5.0990   -1.0130 N   0  0  0  0  0  0  0  0  0  0  0  0
   -1.7690    4.7770    0.1090 C   0  0  0  0  0  0  0  0  0  0  0  0
   -0.9000    3.6920    0.1170 C   0  0  0  0  0  0  0  0  0  0  0  0
   -0.2540    0.4910   -1.4160 N   0  0  0  0  0  0  0  0  0  0  0  0
   -1.4490    0.0360   -2.0990 C   0  0  0  0  0  0  0  0  0  0  0  0
   -2.5000   -0.3710   -1.1530 C   0  0  0  0  0  0  0  0  0  0  0  0
   -3.4880    0.5590   -0.8110 C   0  0  0  0  0  0  0  0  0  0  0  0
   -4.4870    0.2830    0.0970 C   0  0  0  0  0  0  0  0  0  0  0  0
   -4.5310   -0.9480    0.7010 C   0  0  0  0  0  0  0  0  0  0  0  0
   -3.5760   -1.8840    0.3860 C   0  0  0  0  0  0  0  0  0  0  0  0
   -3.6630   -3.1070    0.9970 C   0  0  0  0  0  0  0  0  0  0  0  0
   -2.7390   -4.0830    0.7000 C   0  0  0  0  0  0  0  0  0  0  0  0
   -1.7550   -3.7930   -0.2060 C   0  0  0  0  0  0  0  0  0  0  0  0
   -1.6350   -2.5650   -0.8440 C   0  0  0  0  0  0  0  0  0  0  0  0
   -2.5630   -1.5950   -0.5400 C   0  0  0  0  0  0  0  0  0  0  0  0
    0.7150   -0.3250   -1.0420 N   0  0  0  0  0  0  0  0  0  0  0  0
    1.7030    0.2860   -0.3970 C   0  0  0  0  0  0  0  0  0  0  0  0
  2  1  1  6
  2  3  1  0
  2  4  1  0
  4  5  1  0
  5  6  1  0
  5 33  1  0
  6  7  2  0
  6  8  1  0
  8  9  1  0
  8 10  1  0
 10 11  2  0
 10 12  1  0
 12 13  2  0
 12 33  1  0
 13 14  1  0
 13 20  1  0
 14 15  2  0
 14 19  1  0
 15 16  1  0
 16 17  2  0
 17 18  1  0
 18 19  2  0
 20 21  1  0
 20 32  1  0
 21 22  1  0
 22 23  2  0
 22 31  1  0
 23 24  1  0
 24 25  2  0
 25 26  1  0
 26 27  2  0
 26 31  1  0
 27 28  1  0
 28 29  2  0
 29 30  1  0
 30 31  2  0
 32 33  2  0
M  END
