
     RDKit          3D

 33 37  0  0  0  0  0  0  0  0999 V2000
    2.2390    1.9270   -1.9230 O   0  0  0  0  0  0  0  0  0  0  0  0
    2.4670    0.9570   -1.0530 C   0  0  0  0  0  0  0  0  0  0  0  0
    3.8110    0.7500   -0.6760 C   0  0  0  0  0  0  0  0  0  0  0  0
    4.3260   -0.1500    0.0830 C   0  0  0  0  0  0  0  0  0  0  0  0
    5.7830   -0.1900    0.3620 C   0  0  0  0  0  0  0  0  0  0  0  0
    6.2470   -1.2060    1.2000 C   0  0  0  0  0  0  0  0  0  0  0  0
    7.5820   -1.3220    1.5150 C   0  0  0  0  0  0  0  0  0  0  0  0
    8.4710   -0.4120    0.9860 C   0  0  0  0  0  0  0  0  0  0  0  0
    8.0720    0.6050    0.1570 C   0  0  0  0  0  0  0  0  0  0  0  0
    9.0170    1.6040   -0.4290 C   0  0  0  0  0  0  0  0  0  0  0  0
    9.2040    3.0170    0.6270 Cl  0  0  0  0  0  0  0  0  0  0  0  0
    6.7000    0.6830   -0.1360 C   0  0  0  0  0  0  0  0  0  0  0  0
    1.2740    0.2720   -0.6400 C   0  0  0  0  0  0  0  0  0  0  0  0
    1.1250   -0.5180    0.4680 C   0  0  0  0  0  0  0  0  0  0  0  0
   -0.0610   -1.2150    0.7450 C   0  0  0  0  0  0  0  0  0  0  0  0
   -1.1380   -1.1360   -0.0890 C   0  0  0  0  0  0  0  0  0  0  0  0
   -1.0370   -0.3520   -1.2150 C   0  0  0  0  0  0  0  0  0  0  0  0
    0.1280    0.3200   -1.4710 C   0  0  0  0  0  0  0  0  0  0  0  0
   -2.3290   -0.4310   -1.9470 C   0  0  0  0  0  0  0  0  0  0  0  0
   -3.1360   -1.4420   -1.2080 C   0  0  2  0  0  0  0  0  0  0  0  0
   -3.3920   -2.8690   -2.2320 Cl  0  0  0  0  0  0  0  0  0  0  0  0
   -4.4550   -0.8470   -0.8420 C   0  0  0  0  0  0  0  0  0  0  0  0
   -4.8220   -0.6620    0.4640 C   0  0  0  0  0  0  0  0  0  0  0  0
   -6.0540   -0.1050    0.8270 C   0  0  0  0  0  0  0  0  0  0  0  0
   -6.9260    0.2680   -0.1740 C   0  0  0  0  0  0  0  0  0  0  0  0
   -6.5480    0.0780   -1.4910 C   0  0  0  0  0  0  0  0  0  0  0  0
   -5.3300   -0.4720   -1.8350 C   0  0  0  0  0  0  0  0  0  0  0  0
   -4.8740   -0.7030   -3.4990 Cl  0  0  0  0  0  0  0  0  0  0  0  0
   -8.1310    0.8120    0.2040 O   0  0  0  0  0  0  0  0  0  0  0  0
   -8.3950    1.3910    1.4650 C   0  0  0  0  0  0  0  0  0  0  0  0
   -7.4650    0.9530    2.5450 C   0  0  0  0  0  0  0  0  0  0  0  0
   -6.4430    0.0900    2.1250 O   0  0  0  0  0  0  0  0  0  0  0  0
   -2.4160   -1.7450   -0.0110 N   0  0  0  0  0  0  0  0  0  0  0  0
  1  2  2  0
  2  3  1  0
  2 13  1  0
  3  4  2  3
  4  5  1  0
  5  6  2  0
  5 12  1  0
  6  7  1  0
  7  8  2  0
  8  9  1  0
  9 10  1  0
  9 12  2  0
 10 11  1  0
 13 14  2  0
 13 18  1  0
 14 15  1  0
 15 16  2  0
 16 17  1  0
 16 33  1  0
 17 18  2  0
 17 19  1  0
 19 20  1  0
 20 21  1  6
 20 22  1  0
 20 33  1  0
 22 23  2  0
 22 27  1  0
 23 24  1  0
 24 25  2  0
 24 32  1  0
 25 26  1  0
 25 29  1  0
 26 27  2  0
 27 28  1  0
 29 30  1  0
 30 31  1  0
 31 32  1  0
M  END
