
     RDKit          3D

 32 36  0  0  0  0  0  0  0  0999 V2000
    3.7860   -2.2070    1.7270 C   0  0  0  0  0  0  0  0  0  0  0  0
    4.0990   -0.8710    1.1900 C   0  0  0  0  0  0  0  0  0  0  0  0
    3.2980   -0.0180    0.6130 C   0  0  0  0  0  0  0  0  0  0  0  0
    1.8820   -0.1860    0.3600 N   0  0  0  0  0  0  0  0  0  0  0  0
    1.4120   -0.5450   -0.8990 C   0  0  0  0  0  0  0  0  0  0  0  0
    2.3590   -0.8540   -1.8740 C   0  0  0  0  0  0  0  0  0  0  0  0
    1.9490   -1.2420   -3.0870 N   0  0  0  0  0  0  0  0  0  0  0  0
    0.6850   -1.3470   -3.4030 N   0  0  0  0  0  0  0  0  0  0  0  0
   -0.2810   -1.0650   -2.5160 C   0  0  0  0  0  0  0  0  0  0  0  0
    0.0550   -0.6510   -1.2230 C   0  0  0  0  0  0  0  0  0  0  0  0
   -0.9440   -0.2810   -0.2640 C   0  0  0  0  0  0  0  0  0  0  0  0
   -0.5610    0.2330    0.8570 O   0  0  0  0  0  0  0  0  0  0  0  0
   -2.3290   -0.3940   -0.3500 N   0  0  0  0  0  0  0  0  0  0  0  0
   -3.1560   -0.9180   -1.3840 C   0  0  0  0  0  0  0  0  0  0  0  0
   -3.1490    0.1160    0.8220 C   0  0  2  0  0  0  0  0  0  0  0  0
   -4.0250   -0.9490    1.3130 C   0  0  0  0  0  0  0  0  0  0  0  0
   -3.6800   -2.0440    1.8620 O   0  0  0  0  0  0  0  0  0  0  0  0
   -5.3630   -0.5560    1.0750 N   0  0  0  0  0  0  0  0  0  0  0  0
   -6.5210   -1.3550    1.4320 C   0  0  0  0  0  0  0  0  0  0  0  0
   -5.3740    0.7280    0.4400 C   0  0  0  0  0  0  0  0  0  0  0  0
   -6.4440    1.5110    0.0150 C   0  0  0  0  0  0  0  0  0  0  0  0
   -6.2280    2.7260   -0.5800 C   0  0  0  0  0  0  0  0  0  0  0  0
   -4.9250    3.1340   -0.7380 C   0  0  0  0  0  0  0  0  0  0  0  0
   -3.8800    2.3710   -0.3240 C   0  0  0  0  0  0  0  0  0  0  0  0
   -4.0700    1.1320    0.2840 C   0  0  0  0  0  0  0  0  0  0  0  0
    4.0400    1.1960    0.2340 C   0  0  0  0  0  0  0  0  0  0  0  0
    5.4480    0.9530    0.6690 C   0  0  0  0  0  0  0  0  0  0  0  0
    6.5910    1.6800    0.6000 C   0  0  0  0  0  0  0  0  0  0  0  0
    7.7920    1.1960    1.0990 C   0  0  0  0  0  0  0  0  0  0  0  0
    7.8200   -0.0550    1.6770 C   0  0  0  0  0  0  0  0  0  0  0  0
    6.6470   -0.7770    1.7370 C   0  0  0  0  0  0  0  0  0  0  0  0
    5.4630   -0.2950    1.2430 C   0  0  0  0  0  0  0  0  0  0  0  0
  1  2  1  0
  2  3  2  0
  2 32  1  0
  3  4  1  0
  3 26  1  0
  4  5  1  0
  5  6  2  0
  5 10  1  0
  6  7  1  0
  7  8  2  0
  8  9  1  0
  9 10  2  0
 10 11  1  0
 11 12  2  0
 11 13  1  0
 13 14  1  0
 15 13  1  6
 15 16  1  0
 15 25  1  0
 16 17  2  0
 16 18  1  0
 18 19  1  0
 18 20  1  0
 20 21  2  0
 20 25  1  0
 21 22  1  0
 22 23  2  0
 23 24  1  0
 24 25  2  0
 26 27  1  0
 27 28  2  0
 27 32  1  0
 28 29  1  0
 29 30  2  0
 30 31  1  0
 31 32  2  0
M  END
