
     RDKit          3D

 32 36  0  0  0  0  0  0  0  0999 V2000
   -7.2270    0.8720    0.4660 C   0  0  0  0  0  0  0  0  0  0  0  0
   -5.9380    1.5750    0.1870 C   0  0  0  0  0  0  0  0  0  0  0  0
   -5.2140    1.0880   -1.0260 C   0  0  1  0  0  0  0  0  0  0  0  0
   -3.9410    1.9040   -1.1550 C   0  0  0  0  0  0  0  0  0  0  0  0
   -2.9350    1.0390   -0.4760 C   0  0  0  0  0  0  0  0  0  0  0  0
   -1.6690    1.2750    0.0120 C   0  0  0  0  0  0  0  0  0  0  0  0
   -0.9310    0.3020    0.6050 C   0  0  0  0  0  0  0  0  0  0  0  0
    0.4140    0.5090    1.1350 C   0  0  0  0  0  0  0  0  0  0  0  0
    0.9560    1.7370    1.0320 N   0  0  0  0  0  0  0  0  0  0  0  0
    2.2080    2.0130    1.5020 C   0  0  0  0  0  0  0  0  0  0  0  0
    2.9360    0.9920    2.1030 C   0  0  0  0  0  0  0  0  0  0  0  0
    2.3730   -0.2600    2.2040 C   0  0  0  0  0  0  0  0  0  0  0  0
    3.1500   -1.3520    2.8420 C   0  0  0  0  0  0  0  0  0  0  0  0
    3.7910   -2.2370    1.9230 N   0  0  0  0  0  0  0  0  0  0  0  0
    4.7650   -1.7680    0.9560 C   0  0  0  0  0  0  0  0  0  0  0  0
    4.5830   -0.6070    0.4770 N   0  0  0  0  0  0  0  0  0  0  0  0
    5.4580   -0.0330   -0.4710 C   0  0  0  0  0  0  0  0  0  0  0  0
    5.2460    1.2440   -0.9890 C   0  0  0  0  0  0  0  0  0  0  0  0
    6.1370    1.7310   -1.9050 C   0  0  0  0  0  0  0  0  0  0  0  0
    7.2310    1.0040   -2.3290 C   0  0  0  0  0  0  0  0  0  0  0  0
    7.4500   -0.2520   -1.8280 C   0  0  0  0  0  0  0  0  0  0  0  0
    6.5440   -0.7690   -0.8850 C   0  0  0  0  0  0  0  0  0  0  0  0
    6.7200   -2.0160   -0.3580 O   0  0  0  0  0  0  0  0  0  0  0  0
    5.8990   -2.6350    0.5750 C   0  0  0  0  0  0  0  0  0  0  0  0
    1.1350   -0.4380    1.7120 N   0  0  0  0  0  0  0  0  0  0  0  0
   -1.4720   -0.9620    0.7180 C   0  0  0  0  0  0  0  0  0  0  0  0
   -2.7160   -1.2700    0.2590 C   0  0  0  0  0  0  0  0  0  0  0  0
   -3.4500   -0.2460   -0.3450 C   0  0  0  0  0  0  0  0  0  0  0  0
   -4.7400   -0.2770   -0.9010 N   0  0  0  0  0  0  0  0  0  0  0  0
   -5.4810   -1.4190   -1.2860 C   0  0  0  0  0  0  0  0  0  0  0  0
   -6.8440   -1.3650   -1.8690 C   0  0  0  0  0  0  0  0  0  0  0  0
   -4.9580   -2.5470   -1.1260 O   0  0  0  0  0  0  0  0  0  0  0  0
  1  2  1  0
  3  2  1  1
  3  4  1  0
  3 29  1  0
  4  5  1  0
  5  6  2  0
  5 28  1  0
  6  7  1  0
  7  8  1  0
  7 26  2  0
  8  9  2  0
  8 25  1  0
  9 10  1  0
 10 11  2  0
 11 12  1  0
 12 13  1  0
 12 25  2  0
 13 14  1  0
 14 15  1  0
 15 16  2  0
 15 24  1  0
 16 17  1  0
 17 18  2  0
 17 22  1  0
 18 19  1  0
 19 20  2  0
 20 21  1  0
 21 22  2  0
 22 23  1  0
 23 24  1  0
 26 27  1  0
 27 28  2  0
 28 29  1  0
 29 30  1  0
 30 31  1  0
 30 32  2  0
M  END
