
     RDKit          3D

 33 37  0  0  0  0  0  0  0  0999 V2000
    7.2230    1.5520   -1.3980 C   0  0  0  0  0  0  0  0  0  0  0  0
    6.2890    0.6810   -0.6250 C   0  0  0  0  0  0  0  0  0  0  0  0
    6.6060   -0.6170   -0.2900 C   0  0  0  0  0  0  0  0  0  0  0  0
    5.7370   -1.4180    0.4290 C   0  0  0  0  0  0  0  0  0  0  0  0
    4.5080   -0.9500    0.8430 C   0  0  0  0  0  0  0  0  0  0  0  0
    4.1820    0.3430    0.5130 C   0  0  0  0  0  0  0  0  0  0  0  0
    5.0600    1.1380   -0.2070 C   0  0  0  0  0  0  0  0  0  0  0  0
    4.6520    2.5490   -0.5390 C   0  0  0  0  0  0  0  0  0  0  0  0
    3.8320   -2.0130    1.5660 C   0  0  0  0  0  0  0  0  0  0  0  0
    2.6100   -2.2520    1.8580 C   0  0  0  0  0  0  0  0  0  0  0  0
    1.3930   -1.5640    1.5930 C   0  0  0  0  0  0  0  0  0  0  0  0
    0.9270   -0.2910    1.8190 C   0  0  0  0  0  0  0  0  0  0  0  0
   -0.2720   -0.1710    1.3560 O   0  0  0  0  0  0  0  0  0  0  0  0
   -0.6930   -1.3070    0.8040 C   0  0  0  0  0  0  0  0  0  0  0  0
   -2.0100   -1.4910    0.1910 C   0  0  0  0  0  0  0  0  0  0  0  0
   -2.8670   -0.4090    0.1200 C   0  0  0  0  0  0  0  0  0  0  0  0
   -4.1280   -0.5150   -0.4330 C   0  0  0  0  0  0  0  0  0  0  0  0
   -4.9950    0.6940   -0.4820 C   0  0  1  0  0  0  0  0  0  0  0  0
   -6.3020    0.4350   -1.1660 C   0  0  1  0  0  0  0  0  0  0  0  0
   -7.2880    1.9410   -1.1510 Cl  0  0  0  0  0  0  0  0  0  0  0  0
   -6.0970    0.0430   -2.9020 Cl  0  0  0  0  0  0  0  0  0  0  0  0
   -5.2530    1.1080    0.9440 C   0  0  0  0  0  0  0  0  0  0  0  0
   -5.2840    2.6140    0.9520 C   0  0  0  0  0  0  0  0  0  0  0  0
   -4.7270    3.0730   -0.3550 C   0  0  0  0  0  0  0  0  0  0  0  0
   -4.2850    1.8650   -1.0680 C   0  0  2  0  0  0  0  0  0  0  0  0
   -4.4910    1.9730   -2.8330 Cl  0  0  0  0  0  0  0  0  0  0  0  0
   -4.5750   -1.7100   -0.9330 C   0  0  0  0  0  0  0  0  0  0  0  0
   -3.7340   -2.8030   -0.8730 C   0  0  0  0  0  0  0  0  0  0  0  0
   -2.4470   -2.6900   -0.3080 C   0  0  0  0  0  0  0  0  0  0  0  0
   -1.6450   -3.7950   -0.2670 O   0  0  0  0  0  0  0  0  0  0  0  0
    0.3130   -2.1510    0.9460 N   0  0  0  0  0  0  0  0  0  0  0  0
    5.0120   -2.9210    1.9760 C   0  0  0  0  0  0  0  0  0  0  0  0
    5.8470   -2.7380    0.8730 O   0  0  0  0  0  0  0  0  0  0  0  0
  1  2  1  0
  2  3  2  0
  2  7  1  0
  3  4  1  0
  4  5  2  0
  4 33  1  0
  5  6  1  0
  5  9  1  0
  6  7  2  0
  7  8  1  0
  9 10  2  3
  9 32  1  0
 10 11  1  0
 11 12  2  0
 11 31  1  0
 12 13  1  0
 13 14  1  0
 14 15  1  0
 14 31  2  0
 15 16  2  0
 15 29  1  0
 16 17  1  0
 18 17  1  1
 17 27  2  0
 18 19  1  0
 18 22  1  0
 18 25  1  0
 19 20  1  6
 19 21  1  0
 22 23  1  0
 23 24  1  0
 24 25  1  0
 25 26  1  6
 27 28  1  0
 28 29  2  0
 29 30  1  0
 32 33  1  0
M  END
