
     RDKit          3D

 25 27  0  0  0  0  0  0  0  0999 V2000
   -2.9890    0.2580   -2.1070 O   0  0  0  0  0  0  0  0  0  0  0  0
   -3.6390    0.1850   -0.8710 C   0  0  0  0  0  0  0  0  0  0  0  0
   -3.2730   -1.1180   -0.1500 C   0  0  1  0  0  0  0  0  0  0  0  0
   -1.9410   -1.1440    0.0420 O   0  0  0  0  0  0  0  0  0  0  0  0
   -1.4430   -0.7760    1.2450 C   0  0  2  0  0  0  0  0  0  0  0  0
   -0.0410   -1.2210    1.3040 N   0  0  0  0  0  0  0  0  0  0  0  0
    0.9120   -0.8190    0.3440 C   0  0  0  0  0  0  0  0  0  0  0  0
    0.8030    0.0940   -0.4990 N   0  0  0  0  0  0  0  0  0  0  0  0
    1.8320    0.3770   -1.3830 C   0  0  2  0  0  0  0  0  0  0  0  0
    2.8770   -0.6920   -1.4600 C   0  0  2  0  0  0  0  0  0  0  0  0
    2.5290   -1.5620    0.1280 S   0  0  0  0  0  0  0  0  0  0  0  0
    4.2230   -0.0130   -1.4250 C   0  0  1  0  0  0  0  0  0  0  0  0
    5.1010   -0.6510   -2.3140 O   0  0  0  0  0  0  0  0  0  0  0  0
    3.8770    1.3810   -1.9150 C   0  0  2  0  0  0  0  0  0  0  0  0
    4.8610    2.3070   -1.6330 O   0  0  0  0  0  0  0  0  0  0  0  0
    2.5980    1.6440   -1.1470 C   0  0  1  0  0  0  0  0  0  0  0  0
    1.9810    2.7380   -1.7480 O   0  0  0  0  0  0  0  0  0  0  0  0
    2.8850    1.8990    0.3100 C   0  0  0  0  0  0  0  0  0  0  0  0
    3.7290    2.9990    0.4470 O   0  0  0  0  0  0  0  0  0  0  0  0
   -2.1700   -1.3950    2.4200 C   0  0  2  0  0  0  0  0  0  0  0  0
   -2.1770   -2.7620    2.2620 O   0  0  0  0  0  0  0  0  0  0  0  0
   -3.5970   -0.8860    2.3340 C   0  0  1  0  0  0  0  0  0  0  0  0
   -3.6190    0.4940    2.4890 O   0  0  0  0  0  0  0  0  0  0  0  0
   -4.1560   -1.3080    1.0150 C   0  0  2  0  0  0  0  0  0  0  0  0
   -4.5700   -2.6500    1.1250 O   0  0  0  0  0  0  0  0  0  0  0  0
  1  2  1  0
  3  2  1  1
  3  4  1  0
  3 24  1  0
  4  5  1  0
  5  6  1  6
  5 20  1  0
  6  7  1  0
  7  8  2  0
  7 11  1  0
  9  8  1  1
  9 10  1  0
  9 16  1  0
 10 11  1  1
 10 12  1  0
 12 13  1  6
 12 14  1  0
 14 15  1  1
 14 16  1  0
 16 17  1  6
 16 18  1  0
 18 19  1  0
 20 21  1  6
 20 22  1  0
 22 23  1  6
 22 24  1  0
 24 25  1  1
M  END
