
     RDKit          3D

  7  6  0  0  0  0  0  0  0  0999 V2000
   -1.4430   -0.8030   -0.8230 C   0  0  0  0  0  0  0  0  0  0  0  0
   -0.8140   -0.1950    0.4100 C   0  0  2  0  0  0  0  0  0  0  0  0
   -1.4950    1.0810    0.7590 C   0  0  0  0  0  0  0  0  0  0  0  0
    0.5720   -0.1760    0.2690 N   0  0  0  0  0  0  0  0  0  0  0  0
    1.2480   -1.4140    0.1630 C   0  0  0  0  0  0  0  0  0  0  0  0
    1.2250    0.9750   -0.1980 C   0  0  0  0  0  0  0  0  0  0  0  0
    2.5980    0.7220   -0.2490 O   0  0  0  0  0  0  0  0  0  0  0  0
  2  1  1  6
  2  3  1  0
  2  4  1  0
  4  5  1  0
  4  6  1  0
  6  7  1  0
M  END
