
     RDKit          3D

 17 18  0  0  0  0  0  0  0  0999 V2000
    4.7040    1.1280    0.7650 O   0  0  0  0  0  0  0  0  0  0  0  0
    4.0100    0.0020    0.3130 C   0  0  0  0  0  0  0  0  0  0  0  0
    2.7450    0.3770   -0.3590 C   0  0  0  0  0  0  0  0  0  0  0  0
    1.6090   -0.0710    0.1250 C   0  0  0  0  0  0  0  0  0  0  0  0
    1.5850   -0.8970    1.2670 O   0  0  0  0  0  0  0  0  0  0  0  0
    0.3940   -0.8870    2.0300 C   0  0  0  0  0  0  0  0  0  0  0  0
   -0.6950   -0.9950    1.1160 O   0  0  0  0  0  0  0  0  0  0  0  0
   -0.7740   -0.1700   -0.0310 C   0  0  0  0  0  0  0  0  0  0  0  0
   -2.0570    0.1430   -0.6190 C   0  0  0  0  0  0  0  0  0  0  0  0
   -3.1470   -0.3650   -0.0540 C   0  0  0  0  0  0  0  0  0  0  0  0
   -4.4860   -0.1720   -0.4830 N   0  0  0  0  0  0  0  0  0  0  0  0
   -5.2710   -0.8940    0.4120 N   0  0  0  0  0  0  0  0  0  0  0  0
   -4.5280   -1.4670    1.2910 C   0  0  0  0  0  0  0  0  0  0  0  0
   -3.1960   -1.1800    1.0600 O   0  0  0  0  0  0  0  0  0  0  0  0
    0.3480    0.3040   -0.5480 C   0  0  0  0  0  0  0  0  0  0  0  0
    0.4200    1.1560   -1.7370 C   0  0  0  0  0  0  0  0  0  0  0  0
    0.9980    2.4190   -1.4920 O   0  0  0  0  0  0  0  0  0  0  0  0
  1  2  1  0
  2  3  1  0
  3  4  2  3
  4  5  1  0
  4 15  1  0
  5  6  1  0
  6  7  1  0
  7  8  1  0
  8  9  1  0
  8 15  2  0
  9 10  2  3
 10 11  1  0
 10 14  1  0
 11 12  1  0
 12 13  2  0
 13 14  1  0
 15 16  1  0
 16 17  1  0
M  END
