
     RDKit          3D

 17 18  0  0  0  0  0  0  0  0999 V2000
   -3.4360    1.0230   -1.0920 C   0  0  0  0  0  0  0  0  0  0  0  0
   -2.6380   -0.1440   -1.2950 N   0  0  0  0  0  0  0  0  0  0  0  0
   -1.2580    0.0060   -0.8550 C   0  0  0  0  0  0  0  0  0  0  0  0
   -1.2490    0.1160    0.6310 C   0  0  1  0  0  0  0  0  0  0  0  0
   -1.8340   -1.0430    1.3110 C   0  0  0  0  0  0  0  0  0  0  0  0
   -2.9670   -1.5650    1.1790 O   0  0  0  0  0  0  0  0  0  0  0  0
   -0.8510   -1.5150    2.2040 N   0  0  0  0  0  0  0  0  0  0  0  0
    0.3160   -0.6950    2.0840 C   0  0  0  0  0  0  0  0  0  0  0  0
    0.1420    0.2390    1.1990 C   0  0  0  0  0  0  0  0  0  0  0  0
    1.4030    1.0180    1.1050 C   0  0  2  0  0  0  0  0  0  0  0  0
    2.0970    0.6940   -0.1800 C   0  0  0  0  0  0  0  0  0  0  0  0
    1.6710    1.0300   -1.3060 O   0  0  0  0  0  0  0  0  0  0  0  0
    3.2970   -0.0230   -0.1920 O   0  0  0  0  0  0  0  0  0  0  0  0
    3.9890   -0.3540   -1.3770 C   0  0  0  0  0  0  0  0  0  0  0  0
    2.2210    0.5270    2.1140 O   0  0  0  0  0  0  0  0  0  0  0  0
    1.6560   -0.5580    2.7080 C   0  0  0  0  0  0  0  0  0  0  0  0
    2.1240   -1.3260    3.6090 O   0  0  0  0  0  0  0  0  0  0  0  0
  1  2  1  0
  2  3  1  0
  4  3  1  6
  4  5  1  0
  4  9  1  0
  5  6  2  0
  5  7  1  0
  7  8  1  0
  8  9  2  0
  8 16  1  0
  9 10  1  0
 10 11  1  6
 10 15  1  0
 11 12  2  0
 11 13  1  0
 13 14  1  0
 15 16  1  0
 16 17  2  0
M  END
