
     RDKit          3D

 17 18  0  0  0  0  0  0  0  0999 V2000
   -4.4080    0.8970    0.3390 C   0  0  0  0  0  0  0  0  0  0  0  0
   -3.2990   -0.0620    0.1360 C   0  0  0  0  0  0  0  0  0  0  0  0
   -3.5340   -1.3220    0.0520 N   0  0  0  0  0  0  0  0  0  0  0  0
   -1.8980    0.3940    0.0250 C   0  0  0  0  0  0  0  0  0  0  0  0
   -0.8280   -0.3780   -0.1570 C   0  0  0  0  0  0  0  0  0  0  0  0
   -0.8970   -1.7980   -0.2730 N   0  0  0  0  0  0  0  0  0  0  0  0
    0.3430    0.4510   -0.2100 C   0  0  0  0  0  0  0  0  0  0  0  0
    1.6240    0.1050   -0.3780 C   0  0  0  0  0  0  0  0  0  0  0  0
    2.6980    1.0020   -0.4150 O   0  0  0  0  0  0  0  0  0  0  0  0
    3.8730    0.2780   -0.0890 C   0  0  1  0  0  0  0  0  0  0  0  0
    3.8890    0.1610    1.4320 C   0  0  0  0  0  0  0  0  0  0  0  0
    3.6240   -0.9600   -0.6850 O   0  0  0  0  0  0  0  0  0  0  0  0
    2.2390   -1.1950   -0.5570 C   0  0  0  0  0  0  0  0  0  0  0  0
    1.6590   -2.3060   -0.5910 O   0  0  0  0  0  0  0  0  0  0  0  0
   -0.1520    1.8270   -0.0370 C   0  0  0  0  0  0  0  0  0  0  0  0
    0.5910    2.8380   -0.0290 O   0  0  0  0  0  0  0  0  0  0  0  0
   -1.5200    1.7200    0.1000 O   0  0  0  0  0  0  0  0  0  0  0  0
  1  2  1  0
  2  3  2  0
  2  4  1  0
  4  5  2  0
  4 17  1  0
  5  6  1  0
  5  7  1  0
  7  8  2  3
  7 15  1  0
  8  9  1  0
  8 13  1  0
  9 10  1  0
 10 11  1  1
 10 12  1  0
 12 13  1  0
 13 14  2  0
 15 16  2  0
 15 17  1  0
M  END
