
     RDKit          3D

 17 18  0  0  0  0  0  0  0  0999 V2000
   -4.4330   -0.2460   -0.5850 N   0  0  0  0  0  0  0  0  0  0  0  0
   -3.8690   -0.3590    0.6990 C   0  0  0  0  0  0  0  0  0  0  0  0
   -4.5480   -0.8160    1.6510 O   0  0  0  0  0  0  0  0  0  0  0  0
   -2.4460    0.0640    0.9500 C   0  0  0  0  0  0  0  0  0  0  0  0
   -1.8570    0.5770   -0.3650 C   0  0  2  0  0  0  0  0  0  0  0  0
   -1.9140   -0.5380   -1.3460 C   0  0  0  0  0  0  0  0  0  0  0  0
   -0.6970   -0.8600   -1.9500 O   0  0  0  0  0  0  0  0  0  0  0  0
    0.5510   -0.5720   -1.4370 C   0  0  0  0  0  0  0  0  0  0  0  0
    1.5010   -1.2570   -1.8430 O   0  0  0  0  0  0  0  0  0  0  0  0
    0.6840    0.4950   -0.4690 C   0  0  0  0  0  0  0  0  0  0  0  0
    1.7950    0.8850    0.1090 C   0  0  0  0  0  0  0  0  0  0  0  0
    3.1330    0.3820   -0.0510 C   0  0  0  0  0  0  0  0  0  0  0  0
    4.1940    0.8740    0.6070 C   0  0  0  0  0  0  0  0  0  0  0  0
    5.3240    0.1740    0.2300 O   0  0  0  0  0  0  0  0  0  0  0  0
    4.9040   -1.0190   -0.4140 C   0  0  0  0  0  0  0  0  0  0  0  0
    3.6340   -0.6390   -0.8440 O   0  0  0  0  0  0  0  0  0  0  0  0
   -0.5700    1.1470   -0.1560 N   0  0  0  0  0  0  0  0  0  0  0  0
  1  2  1  0
  2  3  2  0
  2  4  1  0
  5  4  1  1
  5  6  1  0
  5 17  1  0
  6  7  1  0
  7  8  1  0
  8  9  2  0
  8 10  1  0
 10 11  2  3
 10 17  1  0
 11 12  1  0
 12 13  2  0
 12 16  1  0
 13 14  1  0
 14 15  1  0
 15 16  1  0
M  END
