
     RDKit          3D

 17 18  0  0  0  0  0  0  0  0999 V2000
    4.6340   -0.6040    0.6640 N   0  0  0  0  0  0  0  0  0  0  0  0
    3.8920    0.5960    0.5390 C   0  0  0  0  0  0  0  0  0  0  0  0
    3.9290    1.4350    1.4570 O   0  0  0  0  0  0  0  0  0  0  0  0
    3.0930    0.8170   -0.6810 C   0  0  0  0  0  0  0  0  0  0  0  0
    1.6420    1.0900   -0.3670 C   0  0  1  0  0  0  0  0  0  0  0  0
    0.9070    1.3010   -1.5590 O   0  0  0  0  0  0  0  0  0  0  0  0
   -0.4710    1.1790   -1.5960 C   0  0  0  0  0  0  0  0  0  0  0  0
   -1.1550    1.4030   -2.6380 O   0  0  0  0  0  0  0  0  0  0  0  0
   -1.1940    0.7720   -0.3720 C   0  0  1  0  0  0  0  0  0  0  0  0
   -2.5900    0.2760   -0.6660 C   0  0  0  0  0  0  0  0  0  0  0  0
   -3.2650   -0.2660    0.5540 C   0  0  1  0  0  0  0  0  0  0  0  0
   -4.4010   -0.9900    0.1560 O   0  0  0  0  0  0  0  0  0  0  0  0
   -2.3620   -1.0920    1.4330 C   0  0  0  0  0  0  0  0  0  0  0  0
   -1.0440   -1.4250    0.7750 C   0  0  0  0  0  0  0  0  0  0  0  0
   -0.3810   -0.2460    0.2600 N   0  0  0  0  0  0  0  0  0  0  0  0
    1.0150   -0.0500    0.3470 C   0  0  0  0  0  0  0  0  0  0  0  0
    1.6590   -0.8720    1.0400 O   0  0  0  0  0  0  0  0  0  0  0  0
  1  2  1  0
  2  3  2  0
  2  4  1  0
  5  4  1  6
  5  6  1  0
  5 16  1  0
  6  7  1  0
  7  8  2  0
  7  9  1  0
  9 10  1  6
  9 15  1  0
 10 11  1  0
 11 12  1  6
 11 13  1  0
 13 14  1  0
 14 15  1  0
 15 16  1  0
 16 17  2  0
M  END
