
     RDKit          3D

 17 18  0  0  0  0  0  0  0  0999 V2000
    1.0220   -1.0190    0.2880 O   0  0  0  0  0  0  0  0  0  0  0  0
    0.8100   -0.0040   -0.4150 C   0  0  0  0  0  0  0  0  0  0  0  0
   -0.4960    0.3380   -1.0140 C   0  0  0  0  0  0  0  0  0  0  0  0
   -1.5630   -0.6770   -0.6870 C   0  0  2  0  0  0  0  0  0  0  0  0
   -1.2600   -1.9400   -1.1350 O   0  0  0  0  0  0  0  0  0  0  0  0
   -2.8610   -0.1620   -1.3130 C   0  0  0  0  0  0  0  0  0  0  0  0
   -3.2290    0.9750   -0.4100 C   0  0  0  0  0  0  0  0  0  0  0  0
   -2.6710    0.6370    0.9490 C   0  0  0  0  0  0  0  0  0  0  0  0
   -1.9100   -0.6500    0.7850 C   0  0  1  0  0  0  0  0  0  0  0  0
   -2.7470   -1.7460    1.0300 O   0  0  0  0  0  0  0  0  0  0  0  0
    1.8690    0.8560   -0.6460 O   0  0  0  0  0  0  0  0  0  0  0  0
    3.1430    0.6300   -0.1300 C   0  0  0  0  0  0  0  0  0  0  0  0
    3.3000   -0.4150    0.5750 N   0  0  0  0  0  0  0  0  0  0  0  0
    4.5490   -0.7690    1.1650 C   0  0  0  0  0  0  0  0  0  0  0  0
    5.5570    0.1400    0.8880 O   0  0  0  0  0  0  0  0  0  0  0  0
    5.3880    1.2490    0.1390 N   0  0  0  0  0  0  0  0  0  0  0  0
    4.2520    1.5510   -0.3850 C   0  0  0  0  0  0  0  0  0  0  0  0
  1  2  2  0
  2  3  1  0
  2 11  1  0
  3  4  1  0
  4  5  1  6
  4  6  1  0
  4  9  1  0
  6  7  1  0
  7  8  1  0
  8  9  1  0
  9 10  1  6
 11 12  1  0
 12 13  2  0
 12 17  1  0
 13 14  1  0
 14 15  1  0
 15 16  1  0
 16 17  2  0
M  END
