
     RDKit          3D

 17 18  0  0  0  0  0  0  0  0999 V2000
    5.2880    1.4140    1.0960 O   0  0  0  0  0  0  0  0  0  0  0  0
    4.2420    0.9600    0.5620 C   0  0  0  0  0  0  0  0  0  0  0  0
    4.1580    0.6610   -0.8270 N   0  0  0  0  0  0  0  0  0  0  0  0
    2.7450    0.3880   -1.0660 C   0  0  0  0  0  0  0  0  0  0  0  0
    2.3240   -0.1590    0.2770 C   0  0  2  0  0  0  0  0  0  0  0  0
    0.8620   -0.1150    0.4760 C   0  0  0  0  0  0  0  0  0  0  0  0
    0.4290    0.6300    1.3910 O   0  0  0  0  0  0  0  0  0  0  0  0
   -0.0650   -0.8480   -0.2850 N   0  0  0  0  0  0  0  0  0  0  0  0
   -1.4790   -0.8250   -0.1240 C   0  0  0  0  0  0  0  0  0  0  0  0
   -2.0990   -1.9340    0.2310 C   0  0  0  0  0  0  0  0  0  0  0  0
   -3.5380   -1.9870    0.4140 C   0  0  0  0  0  0  0  0  0  0  0  0
   -4.2720   -0.8990    0.2230 C   0  0  0  0  0  0  0  0  0  0  0  0
   -3.6590    0.2660   -0.1470 O   0  0  0  0  0  0  0  0  0  0  0  0
   -2.2770    0.3710   -0.3360 C   0  0  0  0  0  0  0  0  0  0  0  0
   -1.7150    1.5130   -0.6980 C   0  0  0  0  0  0  0  0  0  0  0  0
   -2.5610    2.6200   -0.8800 O   0  0  0  0  0  0  0  0  0  0  0  0
    3.0180    0.6700    1.1750 O   0  0  0  0  0  0  0  0  0  0  0  0
  1  2  2  0
  2  3  1  0
  2 17  1  0
  3  4  1  0
  4  5  1  0
  5  6  1  1
  5 17  1  0
  6  7  2  0
  6  8  1  0
  8  9  1  0
  9 10  2  0
  9 14  1  0
 10 11  1  0
 11 12  2  0
 12 13  1  0
 13 14  1  0
 14 15  2  3
 15 16  1  0
M  END
