
     RDKit          3D

 38 41  0  0  0  0  0  0  0  0999 V2000
   -2.4220   -4.0380   -2.0070 N   0  0  0  0  0  0  0  0  0  0  0  0
   -1.2910   -3.3890   -1.3810 C   0  0  0  0  0  0  0  0  0  0  0  0
   -1.6850   -2.6060   -0.1490 C   0  0  1  0  0  0  0  0  0  0  0  0
   -2.2710   -3.5230    0.7900 N   0  0  0  0  0  0  0  0  0  0  0  0
   -1.7070   -3.9360    1.7490 O   0  0  0  0  0  0  0  0  0  0  0  0
   -0.5130   -2.0250    0.3940 N   0  0  0  0  0  0  0  0  0  0  0  0
    0.7360   -1.3760   -0.3590 P   0  0  0  0  0  0  0  0  0  0  0  0
    2.0880   -0.7170    0.7470 C   0  0  2  0  0  0  0  0  0  0  0  0
    2.7810   -1.8920    1.4060 C   0  0  0  0  0  0  0  0  0  0  0  0
    3.3390   -2.7360    0.3940 N   0  0  0  0  0  0  0  0  0  0  0  0
    3.9420   -3.8000    1.0310 O   0  0  0  0  0  0  0  0  0  0  0  0
    1.6190    0.2220    1.7010 N   0  0  0  0  0  0  0  0  0  0  0  0
    2.2410    1.3570    1.5600 C   0  0  0  0  0  0  0  0  0  0  0  0
    2.6760    1.4570    0.1620 C   0  0  1  0  0  0  0  0  0  0  0  0
    3.9730    1.9880   -0.0200 O   0  0  0  0  0  0  0  0  0  0  0  0
    4.5250    1.2540   -1.0920 C   0  0  0  0  0  0  0  0  0  0  0  0
    5.5940    1.7120   -1.9610 C   0  0  0  0  0  0  0  0  0  0  0  0
    6.0180    0.9840   -2.8910 O   0  0  0  0  0  0  0  0  0  0  0  0
    6.1910    2.9820   -1.7980 N   0  0  0  0  0  0  0  0  0  0  0  0
    6.6100    3.4180   -0.7290 O   0  0  0  0  0  0  0  0  0  0  0  0
    3.9150    0.0800   -1.1800 C   0  0  0  0  0  0  0  0  0  0  0  0
    2.9310    0.0340   -0.1360 N   0  0  0  0  0  0  0  0  0  0  0  0
    1.7410    1.9010   -0.7290 O   0  0  0  0  0  0  0  0  0  0  0  0
    0.7250    3.1560   -0.1250 P   0  0  0  0  0  0  0  0  0  0  0  0
    1.6260    4.6100    0.1300 O   0  0  0  0  0  0  0  0  0  0  0  0
   -0.0720    2.7000    1.3710 O   0  0  0  0  0  0  0  0  0  0  0  0
   -1.4170    2.9120    1.6340 C   0  0  0  0  0  0  0  0  0  0  0  0
   -1.8450    3.4680    2.6940 O   0  0  0  0  0  0  0  0  0  0  0  0
   -2.3780    2.4880    0.6740 N   0  0  0  0  0  0  0  0  0  0  0  0
   -3.6250    3.2610    0.6050 C   0  0  0  0  0  0  0  0  0  0  0  0
   -4.7970    2.4090    0.3260 C   0  0  0  0  0  0  0  0  0  0  0  0
   -4.6130    0.7910    0.6700 P   0  0  0  0  0  0  0  0  0  0  0  0
   -2.8610    0.1680    0.4770 C   0  0  2  0  0  0  0  0  0  0  0  0
   -2.1600    1.3480   -0.2090 C   0  0  0  0  0  0  0  0  0  0  0  0
   -2.9290   -1.3220   -0.5520 P   0  0  0  0  0  0  0  0  0  0  0  0
   -4.5810   -1.9650   -0.8650 C   0  0  0  0  0  0  0  0  0  0  0  0
   -5.0940   -2.7480    0.0040 O   0  0  0  0  0  0  0  0  0  0  0  0
   -5.3480   -1.6870   -1.9670 O   0  0  0  0  0  0  0  0  0  0  0  0
  1  2  1  0
  3  2  1  6
  3  4  1  0
  3  6  1  0
  3 35  1  0
  4  5  2  0
  6  7  2  0
  7  8  1  0
  8  9  1  1
  8 12  1  0
  8 22  1  0
  9 10  1  0
 10 11  1  0
 12 13  2  0
 13 14  1  0
 14 15  1  1
 14 22  1  0
 14 23  1  0
 15 16  1  0
 16 17  1  0
 16 21  2  0
 17 18  2  0
 17 19  1  0
 19 20  2  0
 21 22  1  0
 23 24  1  0
 24 25  1  0
 24 26  1  0
 26 27  1  0
 27 28  2  0
 27 29  1  0
 29 30  1  0
 29 34  1  0
 30 31  1  0
 31 32  2  0
 32 33  1  0
 33 34  1  0
 33 35  1  6
 35 36  1  0
 36 37  2  0
 36 38  1  0
M  END
