
     RDKit          3D

 38 40  0  0  0  0  0  0  0  0999 V2000
    4.9420   -3.3650    0.0830 C   0  0  0  0  0  0  0  0  0  0  0  0
    5.0300   -2.4860    1.3080 C   0  0  0  0  0  0  0  0  0  0  0  0
    4.2120   -1.3650    1.1990 O   0  0  0  0  0  0  0  0  0  0  0  0
    4.0880   -0.3840    2.1610 C   0  0  0  0  0  0  0  0  0  0  0  0
    4.8660   -0.5930    3.3100 C   0  0  0  0  0  0  0  0  0  0  0  0
    4.8490    0.3040    4.3580 C   0  0  0  0  0  0  0  0  0  0  0  0
    4.0400    1.4280    4.2480 C   0  0  0  0  0  0  0  0  0  0  0  0
    3.2740    1.6190    3.0980 C   0  0  0  0  0  0  0  0  0  0  0  0
    3.2940    0.7120    2.0510 C   0  0  0  0  0  0  0  0  0  0  0  0
    2.4420    0.9420    0.9100 C   0  0  0  0  0  0  0  0  0  0  0  0
    1.7950    2.0520    0.8690 O   0  0  0  0  0  0  0  0  0  0  0  0
    2.2520    0.0840   -0.1730 N   0  0  0  0  0  0  0  0  0  0  0  0
    1.3950    0.4270   -1.3020 C   0  0  1  0  0  0  0  0  0  0  0  0
    2.3220    0.1150   -2.5000 C   0  0  0  0  0  0  0  0  0  0  0  0
    3.5390    0.9700   -2.4530 C   0  0  0  0  0  0  0  0  0  0  0  0
    4.3920    0.8630   -3.3490 O   0  0  0  0  0  0  0  0  0  0  0  0
    3.7760    1.9010   -1.4280 O   0  0  0  0  0  0  0  0  0  0  0  0
    4.9660    2.6940   -1.4370 C   0  0  0  0  0  0  0  0  0  0  0  0
    0.1950   -0.4070   -1.4440 C   0  0  0  0  0  0  0  0  0  0  0  0
    0.2920   -1.6410   -2.0050 C   0  0  0  0  0  0  0  0  0  0  0  0
   -0.8120   -2.4640   -2.1040 C   0  0  0  0  0  0  0  0  0  0  0  0
   -2.0270   -2.0280   -1.6270 C   0  0  0  0  0  0  0  0  0  0  0  0
   -2.1900   -0.7790   -1.0450 C   0  0  0  0  0  0  0  0  0  0  0  0
   -3.4570   -0.5100   -0.4700 N   0  0  0  0  0  0  0  0  0  0  0  0
   -4.6430   -1.0710   -0.9340 C   0  0  0  0  0  0  0  0  0  0  0  0
   -4.7350   -1.8670   -1.8920 O   0  0  0  0  0  0  0  0  0  0  0  0
   -5.9110   -0.7270   -0.2870 C   0  0  0  0  0  0  0  0  0  0  0  0
   -7.0060   -1.5660   -0.3760 C   0  0  0  0  0  0  0  0  0  0  0  0
   -8.2160   -1.2410    0.2100 C   0  0  0  0  0  0  0  0  0  0  0  0
   -8.3930   -0.0650    0.9130 C   0  0  0  0  0  0  0  0  0  0  0  0
   -9.9850    0.3990    1.7040 P   0  0  0  0  0  0  0  0  0  0  0  0
  -10.0180    1.6580    2.6040 O   0  0  0  0  0  0  0  0  0  0  0  0
   -7.2890    0.7530    0.9890 C   0  0  0  0  0  0  0  0  0  0  0  0
   -6.0680    0.4560    0.4130 C   0  0  0  0  0  0  0  0  0  0  0  0
   -1.0700    0.0210   -0.9620 C   0  0  0  0  0  0  0  0  0  0  0  0
   -1.1340    1.3480   -0.3510 C   0  0  0  0  0  0  0  0  0  0  0  0
   -2.4320    1.7670   -0.1360 O   0  0  0  0  0  0  0  0  0  0  0  0
   -2.9500    2.1410   -1.4010 C   0  0  0  0  0  0  0  0  0  0  0  0
  1  2  1  0
  2  3  1  0
  3  4  1  0
  4  5  2  0
  4  9  1  0
  5  6  1  0
  6  7  2  0
  7  8  1  0
  8  9  2  0
  9 10  1  0
 10 11  2  0
 10 12  1  0
 12 13  1  0
 13 14  1  6
 13 19  1  0
 14 15  1  0
 15 16  2  0
 15 17  1  0
 17 18  1  0
 19 20  2  0
 19 35  1  0
 20 21  1  0
 21 22  2  0
 22 23  1  0
 23 24  1  0
 23 35  2  0
 24 25  1  0
 25 26  2  0
 25 27  1  0
 27 28  2  0
 27 34  1  0
 28 29  1  0
 29 30  2  0
 30 31  1  0
 30 33  1  0
 31 32  2  0
 33 34  2  0
 35 36  1  0
 36 37  1  0
 37 38  1  0
M  END
