
     RDKit          3D

 38 41  0  0  0  0  0  0  0  0999 V2000
   -4.3400    2.0180   -4.5210 O   0  0  0  0  0  0  0  0  0  0  0  0
   -3.6490    3.0410   -3.5550 P   0  0  0  0  0  0  0  0  0  0  0  0
   -4.2670    3.0790   -1.8120 C   0  0  0  0  0  0  0  0  0  0  0  0
   -5.3110    3.8800   -1.4470 C   0  0  0  0  0  0  0  0  0  0  0  0
   -5.7620    3.9010   -0.1480 C   0  0  0  0  0  0  0  0  0  0  0  0
   -5.1480    3.1000    0.7930 C   0  0  0  0  0  0  0  0  0  0  0  0
   -4.0900    2.2800    0.4480 C   0  0  0  0  0  0  0  0  0  0  0  0
   -3.6450    2.2690   -0.8670 C   0  0  0  0  0  0  0  0  0  0  0  0
   -2.5280    1.4230   -1.2830 C   0  0  2  0  0  0  0  0  0  0  0  0
   -2.8950    0.1030   -1.5160 O   0  0  0  0  0  0  0  0  0  0  0  0
   -1.3410    1.5020   -0.3950 C   0  0  0  0  0  0  0  0  0  0  0  0
   -0.8050    2.6820   -0.0430 N   0  0  0  0  0  0  0  0  0  0  0  0
    0.2690    2.7640    0.7570 C   0  0  0  0  0  0  0  0  0  0  0  0
    0.8460    1.6020    1.2370 C   0  0  0  0  0  0  0  0  0  0  0  0
    0.3460    0.3630    0.9130 C   0  0  0  0  0  0  0  0  0  0  0  0
    0.8890   -0.9200    1.4060 C   0  0  0  0  0  0  0  0  0  0  0  0
    2.0200   -0.8510    2.1880 O   0  0  0  0  0  0  0  0  0  0  0  0
    3.2190   -0.3810    1.7070 C   0  0  0  0  0  0  0  0  0  0  0  0
    3.4840    0.0540    0.4340 C   0  0  0  0  0  0  0  0  0  0  0  0
    4.7370    0.5130    0.0560 C   0  0  0  0  0  0  0  0  0  0  0  0
    5.7920    0.5600    0.9320 C   0  0  0  0  0  0  0  0  0  0  0  0
    7.0590    0.9960    0.6370 O   0  0  0  0  0  0  0  0  0  0  0  0
    7.6380    1.4550   -0.5060 C   0  0  0  0  0  0  0  0  0  0  0  0
    7.7360    0.4950   -1.6500 C   0  0  0  0  0  0  0  0  0  0  0  0
    8.4990   -0.6380   -1.2770 O   0  0  0  0  0  0  0  0  0  0  0  0
    5.5200    0.1110    2.2450 C   0  0  0  0  0  0  0  0  0  0  0  0
    4.2760   -0.3370    2.5960 C   0  0  0  0  0  0  0  0  0  0  0  0
   -0.7700    0.3640    0.0800 C   0  0  0  0  0  0  0  0  0  0  0  0
   -1.3040   -0.9180   -0.2550 N   0  0  0  0  0  0  0  0  0  0  0  0
   -2.2800   -1.5330    0.5920 C   0  0  0  0  0  0  0  0  0  0  0  0
   -2.6260   -0.8830    1.6330 O   0  0  0  0  0  0  0  0  0  0  0  0
   -2.8510   -2.8150    0.3020 C   0  0  0  0  0  0  0  0  0  0  0  0
   -3.7800   -3.3480    1.2010 C   0  0  0  0  0  0  0  0  0  0  0  0
   -4.3530   -4.5890    0.9450 C   0  0  0  0  0  0  0  0  0  0  0  0
   -4.0270   -5.3130   -0.1790 C   0  0  0  0  0  0  0  0  0  0  0  0
   -4.5930   -6.5630   -0.4530 O   0  0  0  0  0  0  0  0  0  0  0  0
   -3.1130   -4.7850   -1.0620 C   0  0  0  0  0  0  0  0  0  0  0  0
   -2.5260   -3.5350   -0.8190 C   0  0  0  0  0  0  0  0  0  0  0  0
  1  2  2  0
  2  3  1  0
  3  4  2  0
  3  8  1  0
  4  5  1  0
  5  6  2  0
  6  7  1  0
  7  8  2  0
  8  9  1  0
  9 10  1  1
  9 11  1  0
 11 12  2  0
 11 28  1  0
 12 13  1  0
 13 14  2  0
 14 15  1  0
 15 16  1  0
 15 28  2  0
 16 17  1  0
 17 18  1  0
 18 19  2  0
 18 27  1  0
 19 20  1  0
 20 21  2  0
 21 22  1  0
 21 26  1  0
 22 23  1  0
 23 24  1  0
 24 25  1  0
 26 27  2  0
 28 29  1  0
 29 30  1  0
 30 31  2  0
 30 32  1  0
 32 33  2  0
 32 38  1  0
 33 34  1  0
 34 35  2  0
 35 36  1  0
 35 37  1  0
 37 38  2  0
M  END
