
     RDKit          3D

 38 40  0  0  0  0  0  0  0  0999 V2000
   -7.8930   -1.7130    2.1800 C   0  0  0  0  0  0  0  0  0  0  0  0
   -6.6800   -1.6090    3.0980 C   0  0  0  0  0  0  0  0  0  0  0  0
   -5.5460   -0.9960    2.2980 C   0  0  0  0  0  0  0  0  0  0  0  0
   -5.2900   -1.9210    1.1290 C   0  0  0  0  0  0  0  0  0  0  0  0
   -4.2050   -1.4070    0.2910 N   0  0  0  0  0  0  0  0  0  0  0  0
   -2.8420   -1.6940    0.4290 C   0  0  0  0  0  0  0  0  0  0  0  0
   -2.3770   -2.4440    1.3070 O   0  0  0  0  0  0  0  0  0  0  0  0
   -2.0560   -0.9450   -0.6530 C   0  0  0  0  0  0  0  0  0  0  0  0
   -0.6460   -0.8930   -0.5200 C   0  0  0  0  0  0  0  0  0  0  0  0
    0.0460   -1.8880    0.1540 C   0  0  0  0  0  0  0  0  0  0  0  0
    1.4920   -1.8420    0.2630 C   0  0  0  0  0  0  0  0  0  0  0  0
    2.2370   -0.8980   -0.2710 C   0  0  0  0  0  0  0  0  0  0  0  0
    3.5780   -0.9680   -0.0830 O   0  0  0  0  0  0  0  0  0  0  0  0
    4.5850   -0.1760   -0.5250 C   0  0  0  0  0  0  0  0  0  0  0  0
    4.2800    0.8060   -1.2410 O   0  0  0  0  0  0  0  0  0  0  0  0
    6.0240   -0.3970   -0.2150 C   0  0  2  0  0  0  0  0  0  0  0  0
    6.4150   -1.7540   -0.7390 C   0  0  0  0  0  0  0  0  0  0  0  0
    5.7670   -3.0030   -0.2740 C   0  0  0  0  0  0  0  0  0  0  0  0
    7.2930   -1.8270   -1.5720 O   0  0  0  0  0  0  0  0  0  0  0  0
    6.3110   -0.3090    1.6180 P   0  0  0  0  0  0  0  0  0  0  0  0
    6.7400   -1.8680    2.2280 O   0  0  0  0  0  0  0  0  0  0  0  0
    6.8150   -1.7590    3.6290 C   0  0  0  0  0  0  0  0  0  0  0  0
    7.5990    0.8080    1.9140 O   0  0  0  0  0  0  0  0  0  0  0  0
    8.4660    0.8670    0.8100 C   0  0  0  0  0  0  0  0  0  0  0  0
    1.5800    0.1550   -1.0420 C   0  0  0  0  0  0  0  0  0  0  0  0
    0.1630    0.2680   -0.6270 N   0  0  0  0  0  0  0  0  0  0  0  0
   -0.2030    1.5530   -0.1250 C   0  0  0  0  0  0  0  0  0  0  0  0
   -0.0380    2.6510   -1.0900 C   0  0  0  0  0  0  0  0  0  0  0  0
   -0.3020    4.0220   -0.5090 C   0  0  1  0  0  0  0  0  0  0  0  0
   -1.5760    4.4320    0.1220 C   0  0  0  0  0  0  0  0  0  0  0  0
   -0.2390    4.3450    0.9090 C   0  0  0  0  0  0  0  0  0  0  0  0
   -2.9560   -0.3020   -1.3260 C   0  0  0  0  0  0  0  0  0  0  0  0
   -2.7910    0.5670   -2.4910 C   0  0  1  0  0  0  0  0  0  0  0  0
   -3.2020    1.9980   -2.2450 C   0  0  0  0  0  0  0  0  0  0  0  0
   -1.6120    0.3800   -3.3610 C   0  0  0  0  0  0  0  0  0  0  0  0
   -3.9680    0.0820   -3.4680 C   0  0  0  0  0  0  0  0  0  0  0  0
   -4.3290   -0.5390   -0.7920 C   0  0  0  0  0  0  0  0  0  0  0  0
   -5.3850   -0.0510   -1.2340 O   0  0  0  0  0  0  0  0  0  0  0  0
  1  2  1  0
  2  3  1  0
  3  4  1  0
  4  5  1  0
  5  6  1  0
  5 37  1  0
  6  7  2  0
  6  8  1  0
  8  9  1  0
  8 32  2  0
  9 10  2  0
  9 26  1  0
 10 11  1  0
 11 12  2  0
 12 13  1  0
 12 25  1  0
 13 14  1  0
 14 15  2  0
 14 16  1  0
 16 17  1  0
 16 20  1  1
 17 18  1  0
 17 19  2  0
 20 21  1  0
 20 23  1  0
 21 22  1  0
 23 24  1  0
 25 26  1  0
 26 27  1  0
 27 28  1  0
 29 28  1  1
 29 30  1  0
 29 31  1  0
 30 31  1  0
 32 33  1  0
 32 37  1  0
 33 34  1  1
 33 35  1  0
 33 36  1  0
 37 38  2  0
M  END
