
     RDKit          3D

 38 42  0  0  0  0  0  0  0  0999 V2000
    2.6970   -4.5280   -0.4400 C   0  0  0  0  0  0  0  0  0  0  0  0
    1.6420   -3.4680   -0.5330 C   0  0  0  0  0  0  0  0  0  0  0  0
    2.1870   -2.1780   -0.3780 O   0  0  0  0  0  0  0  0  0  0  0  0
    1.2410   -1.2510   -0.4630 N   0  0  0  0  0  0  0  0  0  0  0  0
    1.3100   -0.0300    0.2460 C   0  0  0  0  0  0  0  0  0  0  0  0
    0.2440    0.6340    0.6560 C   0  0  0  0  0  0  0  0  0  0  0  0
    0.6770    1.8340    1.3450 N   0  0  0  0  0  0  0  0  0  0  0  0
    1.9440    1.8940    1.3530 C   0  0  0  0  0  0  0  0  0  0  0  0
    3.2780    3.0020    1.9720 P   0  0  0  0  0  0  0  0  0  0  0  0
    4.0910    3.7650    0.4840 C   0  0  0  0  0  0  0  0  0  0  0  0
    4.5250    1.7540    2.6750 C   0  0  0  0  0  0  0  0  0  0  0  0
    3.7180    0.5930    2.8050 O   0  0  0  0  0  0  0  0  0  0  0  0
    3.3760    0.0690    1.6040 N   0  0  0  0  0  0  0  0  0  0  0  0
    3.9190   -1.1890    1.3260 N   0  0  0  0  0  0  0  0  0  0  0  0
    4.1880   -2.0220    2.2270 O   0  0  0  0  0  0  0  0  0  0  0  0
    2.5400    0.7000    0.6440 C   0  0  1  0  0  0  0  0  0  0  0  0
    3.3320    1.1120   -0.4160 O   0  0  0  0  0  0  0  0  0  0  0  0
   -1.1730    0.2350    0.4720 C   0  0  1  0  0  0  0  0  0  0  0  0
   -1.5630   -0.7230    1.5310 N   0  0  0  0  0  0  0  0  0  0  0  0
   -3.2630   -1.1910    1.2960 P   0  0  0  0  0  0  0  0  0  0  0  0
   -3.8240   -2.7170    1.2260 O   0  0  0  0  0  0  0  0  0  0  0  0
   -3.9130   -2.3240    2.6390 C   0  0  2  0  0  0  0  0  0  0  0  0
   -5.2520   -2.1170    3.1170 N   0  0  0  0  0  0  0  0  0  0  0  0
   -3.0050   -3.0430    3.3820 O   0  0  0  0  0  0  0  0  0  0  0  0
   -2.0670    1.4000    0.6000 C   0  0  0  0  0  0  0  0  0  0  0  0
   -2.9120    1.4050    1.4700 O   0  0  0  0  0  0  0  0  0  0  0  0
   -1.9760    2.8620   -0.4960 P   0  0  0  0  0  0  0  0  0  0  0  0
   -2.7580    4.3190    0.1520 N   0  0  0  0  0  0  0  0  0  0  0  0
   -3.1830    4.6870   -1.2010 C   0  0  0  0  0  0  0  0  0  0  0  0
   -3.5110    3.2270   -1.4340 C   0  0  2  0  0  0  0  0  0  0  0  0
   -4.7010    2.8940   -0.8190 O   0  0  0  0  0  0  0  0  0  0  0  0
   -1.4190   -0.3500   -0.8590 C   0  0  0  0  0  0  0  0  0  0  0  0
   -2.3800   -0.0750   -1.5160 O   0  0  0  0  0  0  0  0  0  0  0  0
   -0.1870   -1.5420   -1.5110 P   0  0  0  0  0  0  0  0  0  0  0  0
    0.2520   -1.0060   -3.1700 N   0  0  0  0  0  0  0  0  0  0  0  0
    0.5550   -2.1540   -4.0190 C   0  0  0  0  0  0  0  0  0  0  0  0
   -0.8250   -0.3760   -3.6920 O   0  0  0  0  0  0  0  0  0  0  0  0
   -1.8110   -1.2240   -3.8200 O   0  0  0  0  0  0  0  0  0  0  0  0
  1  2  1  0
  2  3  1  0
  3  4  1  0
  4  5  1  0
  4 34  1  0
  5  6  2  0
  5 16  1  0
  6  7  1  0
  6 18  1  0
  7  8  2  0
  8  9  1  0
  8 16  1  0
  9 10  1  0
  9 11  1  0
 11 12  1  0
 12 13  1  0
 13 14  1  0
 13 16  1  0
 14 15  2  0
 16 17  1  6
 18 19  1  1
 18 25  1  0
 18 32  1  0
 19 20  1  0
 20 21  1  0
 20 22  1  0
 21 22  1  0
 22 23  1  1
 22 24  1  0
 25 26  2  0
 25 27  1  0
 27 28  1  0
 27 30  1  0
 28 29  1  0
 29 30  1  0
 30 31  1  1
 32 33  2  0
 32 34  1  0
 34 35  1  0
 35 36  1  0
 35 37  1  0
 37 38  1  0
M  END
