
     RDKit          3D

 27 29  0  0  0  0  0  0  0  0999 V2000
   -5.2810    2.2920   -0.5300 C   0  0  0  0  0  0  0  0  0  0  0  0
   -5.2510    0.9970   -0.3240 C   0  0  0  0  0  0  0  0  0  0  0  0
   -6.0490    0.1070   -1.1260 N   0  0  0  0  0  0  0  0  0  0  0  0
   -6.0210   -1.2940   -0.8750 C   0  0  0  0  0  0  0  0  0  0  0  0
   -5.2760   -1.8180    0.0850 C   0  0  0  0  0  0  0  0  0  0  0  0
   -5.2870   -3.1930    0.2860 O   0  0  0  0  0  0  0  0  0  0  0  0
   -4.4730   -0.9270    0.8930 C   0  0  0  0  0  0  0  0  0  0  0  0
   -4.4360    0.4110    0.7270 C   0  0  0  0  0  0  0  0  0  0  0  0
   -3.6440    1.1870    1.5330 O   0  0  0  0  0  0  0  0  0  0  0  0
   -2.4790    1.8650    1.2620 C   0  0  0  0  0  0  0  0  0  0  0  0
   -1.4150    0.9330    0.8020 C   0  0  0  0  0  0  0  0  0  0  0  0
   -1.6670   -0.2780    0.7000 O   0  0  0  0  0  0  0  0  0  0  0  0
   -0.1190    1.3580    0.4710 N   0  0  0  0  0  0  0  0  0  0  0  0
    0.8940    0.3820    0.0200 C   0  0  0  0  0  0  0  0  0  0  0  0
    1.9390    0.3430    0.7890 C   0  0  0  0  0  0  0  0  0  0  0  0
    3.1180   -0.5040    0.6330 C   0  0  0  0  0  0  0  0  0  0  0  0
    3.3700   -1.3710   -0.2760 N   0  0  0  0  0  0  0  0  0  0  0  0
    4.6360   -1.9770   -0.0610 C   0  0  0  0  0  0  0  0  0  0  0  0
    5.0050   -3.0720   -0.5270 O   0  0  0  0  0  0  0  0  0  0  0  0
    5.3290   -0.9940    0.8160 C   0  0  1  0  0  0  0  0  0  0  0  0
    5.8370    0.1100   -0.0790 C   0  0  2  0  0  0  0  0  0  0  0  0
    6.8100   -0.3650   -1.1420 C   0  0  0  0  0  0  0  0  0  0  0  0
    7.2460    0.5440   -0.0610 C   0  0  0  0  0  0  0  0  0  0  0  0
    4.2270   -0.4840    1.5300 O   0  0  0  0  0  0  0  0  0  0  0  0
    0.5980   -0.3630   -1.1660 C   0  0  0  0  0  0  0  0  0  0  0  0
   -0.6450   -0.1280   -1.8400 N   0  0  0  0  0  0  0  0  0  0  0  0
    1.3520   -1.2090   -1.6550 O   0  0  0  0  0  0  0  0  0  0  0  0
  1  2  2  0
  2  3  1  0
  2  8  1  0
  3  4  1  0
  4  5  2  0
  5  6  1  0
  5  7  1  0
  7  8  2  0
  8  9  1  0
  9 10  1  0
 10 11  1  0
 11 12  2  0
 11 13  1  0
 13 14  1  0
 14 15  2  3
 14 25  1  0
 15 16  1  0
 16 17  2  0
 16 24  1  0
 17 18  1  0
 18 19  2  0
 18 20  1  0
 20 21  1  0
 20 24  1  1
 21 22  1  6
 21 23  1  0
 22 23  1  0
 25 26  1  0
 25 27  2  0
M  END
