
     RDKit          3D

 27 29  0  0  0  0  0  0  0  0999 V2000
    6.1450    1.0420    1.1480 C   0  0  0  0  0  0  0  0  0  0  0  0
    5.0380    0.6860    0.1790 C   0  0  0  0  0  0  0  0  0  0  0  0
    3.8920    0.1130    0.9460 C   0  0  0  0  0  0  0  0  0  0  0  0
    2.7320   -0.2760    0.0650 C   0  0  2  0  0  0  0  0  0  0  0  0
    3.0600   -1.3030   -0.9650 C   0  0  0  0  0  0  0  0  0  0  0  0
    2.1350    0.8700   -0.5880 N   0  0  0  0  0  0  0  0  0  0  0  0
    0.7870    0.4340   -0.8900 C   0  0  0  0  0  0  0  0  0  0  0  0
    0.1570    0.9650   -1.8690 O   0  0  0  0  0  0  0  0  0  0  0  0
    0.3960   -0.5720    0.0020 N   0  0  0  0  0  0  0  0  0  0  0  0
   -0.8550   -1.1970    0.2160 C   0  0  0  0  0  0  0  0  0  0  0  0
   -1.9970   -0.5700    0.1230 C   0  0  0  0  0  0  0  0  0  0  0  0
   -1.9430    0.8220   -0.1430 N   0  0  0  0  0  0  0  0  0  0  0  0
   -2.9010    1.7650   -0.6090 C   0  0  0  0  0  0  0  0  0  0  0  0
   -2.4880    2.9690   -1.2550 C   0  0  0  0  0  0  0  0  0  0  0  0
   -1.3300    3.3630   -1.4850 O   0  0  0  0  0  0  0  0  0  0  0  0
   -3.5470    3.8190   -1.6840 O   0  0  0  0  0  0  0  0  0  0  0  0
   -4.2330    1.6160   -0.3930 C   0  0  0  0  0  0  0  0  0  0  0  0
   -4.8940    0.4800    0.3460 C   0  0  0  0  0  0  0  0  0  0  0  0
   -4.5020   -0.8150   -0.2610 C   0  0  0  0  0  0  0  0  0  0  0  0
   -3.2230   -1.4320    0.0790 C   0  0  2  0  0  0  0  0  0  0  0  0
   -3.1910   -2.4330    1.1280 C   0  0  0  0  0  0  0  0  0  0  0  0
   -4.0990   -2.7070    1.9480 O   0  0  0  0  0  0  0  0  0  0  0  0
   -1.9710   -3.1890    1.2280 N   0  0  0  0  0  0  0  0  0  0  0  0
   -0.7900   -2.5930    0.7830 C   0  0  0  0  0  0  0  0  0  0  0  0
    0.3110   -3.1720    0.8360 O   0  0  0  0  0  0  0  0  0  0  0  0
    1.5710   -0.7580    0.8650 C   0  0  0  0  0  0  0  0  0  0  0  0
    1.4860   -1.2260    2.0020 O   0  0  0  0  0  0  0  0  0  0  0  0
  1  2  1  0
  2  3  1  0
  3  4  1  0
  4  5  1  6
  4  6  1  0
  4 26  1  0
  6  7  1  0
  7  8  2  0
  7  9  1  0
  9 10  1  0
  9 26  1  0
 10 11  2  0
 10 24  1  0
 11 12  1  0
 11 20  1  0
 12 13  1  0
 13 14  1  0
 13 17  2  0
 14 15  2  0
 14 16  1  0
 17 18  1  0
 18 19  1  0
 20 19  1  1
 20 21  1  0
 21 22  2  0
 21 23  1  0
 23 24  1  0
 24 25  2  0
 26 27  2  0
M  END
