
     RDKit          3D

 27 29  0  0  0  0  0  0  0  0999 V2000
   -5.0140   -0.7370    2.8990 C   0  0  0  0  0  0  0  0  0  0  0  0
   -5.2210    0.1660    1.7410 C   0  0  0  0  0  0  0  0  0  0  0  0
   -4.2660    0.1740    0.8000 C   0  0  0  0  0  0  0  0  0  0  0  0
   -3.1240   -0.6480    0.9510 O   0  0  0  0  0  0  0  0  0  0  0  0
   -1.9620   -0.3110    0.2210 C   0  0  1  0  0  0  0  0  0  0  0  0
   -0.7810   -0.9780    0.7610 C   0  0  0  0  0  0  0  0  0  0  0  0
    0.3650   -0.9320   -0.0970 N   0  0  0  0  0  0  0  0  0  0  0  0
    1.6440   -1.2300    0.4020 C   0  0  0  0  0  0  0  0  0  0  0  0
    1.8710   -1.4710    1.6130 O   0  0  0  0  0  0  0  0  0  0  0  0
    2.8330   -1.2580   -0.5390 C   0  0  1  0  0  0  0  0  0  0  0  0
    2.5030   -2.0930   -1.7110 C   0  0  0  0  0  0  0  0  0  0  0  0
    3.1970    0.1120   -0.7630 N   0  0  0  0  0  0  0  0  0  0  0  0
    3.8490    0.8700    0.2130 C   0  0  0  0  0  0  0  0  0  0  0  0
    3.5940    2.0390    0.5440 O   0  0  0  0  0  0  0  0  0  0  0  0
    4.9760    0.1950    0.9310 C   0  0  2  0  0  0  0  0  0  0  0  0
    6.1990    1.0240    0.5080 C   0  0  0  0  0  0  0  0  0  0  0  0
    5.9210    2.3450    0.8500 O   0  0  0  0  0  0  0  0  0  0  0  0
    5.1470   -1.1700    0.5820 N   0  0  0  0  0  0  0  0  0  0  0  0
    3.9990   -1.9360    0.1870 C   0  0  0  0  0  0  0  0  0  0  0  0
    3.9350   -3.1530    0.4200 O   0  0  0  0  0  0  0  0  0  0  0  0
   -2.2230   -0.1770   -1.2100 C   0  0  0  0  0  0  0  0  0  0  0  0
   -3.2420    0.8930   -1.3450 N   0  0  0  0  0  0  0  0  0  0  0  0
   -3.4690    1.8710   -2.3500 C   0  0  0  0  0  0  0  0  0  0  0  0
   -2.7090    2.1950   -3.3000 O   0  0  0  0  0  0  0  0  0  0  0  0
   -4.7820    2.4580   -2.1030 C   0  0  0  0  0  0  0  0  0  0  0  0
   -5.1650    1.9320   -0.7700 C   0  0  0  0  0  0  0  0  0  0  0  0
   -4.3180    0.9940   -0.4080 C   0  0  0  0  0  0  0  0  0  0  0  0
  1  2  1  0
  2  3  2  3
  3  4  1  0
  3 27  1  0
  4  5  1  0
  5  6  1  6
  5 21  1  0
  6  7  1  0
  7  8  1  0
  8  9  2  0
  8 10  1  0
 10 11  1  6
 10 12  1  0
 10 19  1  0
 12 13  1  0
 13 14  2  0
 13 15  1  0
 15 16  1  6
 15 18  1  0
 16 17  1  0
 18 19  1  0
 19 20  2  0
 21 22  1  0
 22 23  1  0
 22 27  1  0
 23 24  2  0
 23 25  1  0
 25 26  1  0
 26 27  2  0
M  END
