
     RDKit          3D

 16 17  0  0  0  0  0  0  0  0999 V2000
    4.6620    0.6710    1.9270 O   0  0  0  0  0  0  0  0  0  0  0  0
    4.8800    0.7220    0.6900 C   0  0  0  0  0  0  0  0  0  0  0  0
    6.1810    1.0760    0.3130 O   0  0  0  0  0  0  0  0  0  0  0  0
    3.8380    0.4300   -0.3190 C   0  0  0  0  0  0  0  0  0  0  0  0
    2.5740    0.0880    0.3950 C   0  0  0  0  0  0  0  0  0  0  0  0
    1.4360   -0.2300   -0.5520 C   0  0  0  0  0  0  0  0  0  0  0  0
    0.1850   -0.5670    0.2320 C   0  0  0  0  0  0  0  0  0  0  0  0
   -0.9720   -0.8910   -0.6820 C   0  0  2  0  0  0  0  0  0  0  0  0
   -1.2680    0.5980   -1.7140 S   0  0  0  0  0  0  0  0  0  0  0  0
   -3.0380    0.8360   -1.2780 C   0  0  0  0  0  0  0  0  0  0  0  0
   -3.3820   -0.5620   -0.8480 C   0  0  2  0  0  0  0  0  0  0  0  0
   -4.4820   -0.5170    0.1250 N   0  0  0  0  0  0  0  0  0  0  0  0
   -3.8360   -0.1490    1.3580 C   0  0  0  0  0  0  0  0  0  0  0  0
   -4.4900    0.3190    2.3290 O   0  0  0  0  0  0  0  0  0  0  0  0
   -2.4410   -0.4090    1.2390 N   0  0  0  0  0  0  0  0  0  0  0  0
   -2.2590   -1.0820    0.0020 C   0  0  2  0  0  0  0  0  0  0  0  0
  1  2  2  0
  2  3  1  0
  2  4  1  0
  4  5  1  0
  5  6  1  0
  6  7  1  0
  8  7  1  1
  8  9  1  0
  8 16  1  0
  9 10  1  0
 11 10  1  1
 11 12  1  0
 11 16  1  0
 12 13  1  0
 13 14  2  0
 13 15  1  0
 16 15  1  1
M  END
