
     RDKit          3D

 27 28  0  0  0  0  0  0  0  0999 V2000
    4.6560    2.2860    0.3680 C   0  0  0  0  0  0  0  0  0  0  0  0
    3.9880    1.2060    1.0280 O   0  0  0  0  0  0  0  0  0  0  0  0
    2.6140    1.0670    0.5050 C   0  0  0  0  0  0  0  0  0  0  0  0
    1.8040    1.9040    1.0870 C   0  0  0  0  0  0  0  0  0  0  0  0
    0.3930    2.2580    1.0250 C   0  0  0  0  0  0  0  0  0  0  0  0
   -0.4120    1.9820   -0.1710 C   0  0  1  0  0  0  0  0  0  0  0  0
    0.1610    1.2480   -1.2380 N   0  0  0  0  0  0  0  0  0  0  0  0
   -1.6950    1.4980    0.2250 O   0  0  0  0  0  0  0  0  0  0  0  0
   -2.2200    0.2320    0.0150 C   0  0  0  0  0  0  0  0  0  0  0  0
   -3.3340    0.1020   -0.6650 C   0  0  0  0  0  0  0  0  0  0  0  0
   -4.0800    1.2690   -1.2300 C   0  0  0  0  0  0  0  0  0  0  0  0
   -3.6360    2.4290   -1.0550 O   0  0  0  0  0  0  0  0  0  0  0  0
   -3.9030   -1.2600   -0.9320 C   0  0  0  0  0  0  0  0  0  0  0  0
   -3.7830   -2.0790    0.3050 C   0  0  0  0  0  0  0  0  0  0  0  0
   -2.3780   -2.1520    0.8190 C   0  0  0  0  0  0  0  0  0  0  0  0
   -1.5160   -0.9770    0.5680 C   0  0  2  0  0  0  0  0  0  0  0  0
   -0.9490   -0.6060    1.8680 N   0  0  0  0  0  0  0  0  0  0  0  0
    0.3160   -0.8130    2.3780 C   0  0  0  0  0  0  0  0  0  0  0  0
    0.6150   -0.1540    3.4560 O   0  0  0  0  0  0  0  0  0  0  0  0
    1.3880   -1.6690    1.8870 C   0  0  0  0  0  0  0  0  0  0  0  0
    2.1300   -2.1580    2.8450 O   0  0  0  0  0  0  0  0  0  0  0  0
    1.6860   -2.0050    0.5490 N   0  0  0  0  0  0  0  0  0  0  0  0
    2.0960   -1.2050   -0.5570 C   0  0  0  0  0  0  0  0  0  0  0  0
    2.0550   -1.9160   -1.8880 C   0  0  0  0  0  0  0  0  0  0  0  0
    2.4510   -1.1810   -3.0210 N   0  0  0  0  0  0  0  0  0  0  0  0
    1.6870   -3.0990   -1.9780 O   0  0  0  0  0  0  0  0  0  0  0  0
    2.4710    0.0610   -0.5120 C   0  0  0  0  0  0  0  0  0  0  0  0
  1  2  1  0
  2  3  1  0
  3  4  2  0
  3 27  1  0
  4  5  1  0
  5  6  1  0
  6  7  1  6
  6  8  1  0
  8  9  1  0
  9 10  2  0
  9 16  1  0
 10 11  1  0
 10 13  1  0
 11 12  2  0
 13 14  1  0
 14 15  1  0
 16 15  1  1
 16 17  1  0
 17 18  1  0
 18 19  2  0
 18 20  1  0
 20 21  2  0
 20 22  1  0
 22 23  1  0
 23 24  1  0
 23 27  2  0
 24 25  1  0
 24 26  2  0
M  END
