
     RDKit          3D

 27 29  0  0  0  0  0  0  0  0999 V2000
    6.7040   -2.9930    0.2460 C   0  0  0  0  0  0  0  0  0  0  0  0
    6.1440   -1.8130   -0.2980 O   0  0  0  0  0  0  0  0  0  0  0  0
    4.7960   -1.6070   -0.2610 C   0  0  0  0  0  0  0  0  0  0  0  0
    4.0100   -2.6680   -0.4530 C   0  0  0  0  0  0  0  0  0  0  0  0
    2.5710   -2.5340   -0.4290 C   0  0  0  0  0  0  0  0  0  0  0  0
    1.9730   -1.3370   -0.2140 C   0  0  0  0  0  0  0  0  0  0  0  0
    0.5450   -1.3920   -0.2240 C   0  0  0  0  0  0  0  0  0  0  0  0
   -0.2150   -2.2520   -0.3700 O   0  0  0  0  0  0  0  0  0  0  0  0
   -0.1800    0.1560    0.0430 N   0  0  0  0  0  0  0  0  0  0  0  0
   -1.5060   -0.2870    0.1070 C   0  0  0  0  0  0  0  0  0  0  0  0
   -2.0720   -1.3220    0.0110 O   0  0  0  0  0  0  0  0  0  0  0  0
   -2.3870    0.9100    0.3680 N   0  0  0  0  0  0  0  0  0  0  0  0
   -3.7630    0.8290    0.5320 C   0  0  2  0  0  0  0  0  0  0  0  0
   -4.4410   -0.4280    1.0280 C   0  0  0  0  0  0  0  0  0  0  0  0
   -4.7100    0.1820   -0.3560 C   0  0  1  0  0  0  0  0  0  0  0  0
   -6.0870    0.6830   -0.6010 C   0  0  1  0  0  0  0  0  0  0  0  0
   -6.9080    0.7210    0.7080 C   0  0  0  0  0  0  0  0  0  0  0  0
   -8.0640    1.5670    0.2020 C   0  0  0  0  0  0  0  0  0  0  0  0
   -7.5100    2.5130   -0.6570 O   0  0  0  0  0  0  0  0  0  0  0  0
   -6.2220    2.1210   -0.9860 C   0  0  0  0  0  0  0  0  0  0  0  0
    2.7780   -0.2450   -0.0170 O   0  0  0  0  0  0  0  0  0  0  0  0
    4.1920   -0.3190   -0.0290 C   0  0  0  0  0  0  0  0  0  0  0  0
    4.8910    0.7630    0.1700 C   0  0  0  0  0  0  0  0  0  0  0  0
    6.2770    0.8510    0.1900 N   0  0  0  0  0  0  0  0  0  0  0  0
    6.8360    2.1680    0.4380 C   0  0  0  0  0  0  0  0  0  0  0  0
    8.2450    2.2930    0.4700 N   0  0  0  0  0  0  0  0  0  0  0  0
    6.1070    3.1430    0.6110 O   0  0  0  0  0  0  0  0  0  0  0  0
  1  2  1  0
  2  3  1  0
  3  4  2  0
  3 22  1  0
  4  5  1  0
  5  6  2  0
  6  7  1  0
  6 21  1  0
  7  8  2  0
  7  9  1  0
  9 10  1  0
 10 11  2  0
 10 12  1  0
 13 12  1  6
 13 14  1  0
 13 15  1  0
 15 14  1  1
 15 16  1  0
 16 17  1  1
 16 20  1  0
 17 18  1  0
 18 19  1  0
 19 20  1  0
 21 22  1  0
 22 23  2  3
 23 24  1  0
 24 25  1  0
 25 26  1  0
 25 27  2  0
M  END
