
     RDKit          3D

 27 28  0  0  0  0  0  0  0  0999 V2000
   -3.9010   -1.0120    3.5370 C   0  0  0  0  0  0  0  0  0  0  0  0
   -3.7080   -1.9980    2.4270 C   0  0  0  0  0  0  0  0  0  0  0  0
   -2.9500   -1.4500    1.2940 C   0  0  0  0  0  0  0  0  0  0  0  0
   -2.5210   -0.2250    1.3200 C   0  0  0  0  0  0  0  0  0  0  0  0
   -1.7500    0.4430    0.2470 C   0  0  0  0  0  0  0  0  0  0  0  0
   -1.3620    1.7210    0.3800 C   0  0  0  0  0  0  0  0  0  0  0  0
   -1.7610    2.3390    1.6330 N   0  0  0  0  0  0  0  0  0  0  0  0
   -0.6880    2.5330   -0.5380 N   0  0  0  0  0  0  0  0  0  0  0  0
    0.4760    2.3460   -1.3180 C   0  0  0  0  0  0  0  0  0  0  0  0
    0.5640    2.6050   -2.6180 C   0  0  0  0  0  0  0  0  0  0  0  0
    1.9210    2.2900   -3.0710 C   0  0  0  0  0  0  0  0  0  0  0  0
    2.6110    1.8260   -1.8700 C   0  0  0  0  0  0  0  0  0  0  0  0
    1.7680    1.8570   -0.8510 C   0  0  0  0  0  0  0  0  0  0  0  0
    2.0990    1.4700    0.5270 C   0  0  0  0  0  0  0  0  0  0  0  0
    3.2770    1.8340    0.9680 O   0  0  0  0  0  0  0  0  0  0  0  0
    1.3090    0.7550    1.4440 N   0  0  0  0  0  0  0  0  0  0  0  0
    0.8180   -0.5390    1.4190 N   0  0  0  0  0  0  0  0  0  0  0  0
    1.1220   -1.5060    0.4480 C   0  0  0  0  0  0  0  0  0  0  0  0
    1.8430   -2.5270    0.8350 O   0  0  0  0  0  0  0  0  0  0  0  0
    0.7440   -1.5600   -0.9760 C   0  0  2  0  0  0  0  0  0  0  0  0
    1.9660   -1.6400   -1.8450 C   0  0  0  0  0  0  0  0  0  0  0  0
    2.0870   -1.0840   -2.9510 O   0  0  0  0  0  0  0  0  0  0  0  0
    3.0100   -2.3980   -1.3430 O   0  0  0  0  0  0  0  0  0  0  0  0
    4.2270   -2.6000   -1.9880 C   0  0  0  0  0  0  0  0  0  0  0  0
   -0.2230   -0.7150   -1.4400 O   0  0  0  0  0  0  0  0  0  0  0  0
   -1.4490   -0.3590   -0.9480 C   0  0  0  0  0  0  0  0  0  0  0  0
   -2.5040   -0.7570   -1.5880 O   0  0  0  0  0  0  0  0  0  0  0  0
  1  2  1  0
  2  3  1  0
  3  4  2  3
  4  5  1  0
  5  6  2  0
  5 26  1  0
  6  7  1  0
  6  8  1  0
  8  9  1  0
  9 10  2  0
  9 13  1  0
 10 11  1  0
 11 12  1  0
 12 13  2  0
 13 14  1  0
 14 15  2  0
 14 16  1  0
 16 17  1  0
 17 18  1  0
 18 19  2  0
 18 20  1  0
 20 21  1  6
 20 25  1  0
 21 22  2  0
 21 23  1  0
 23 24  1  0
 25 26  1  0
 26 27  2  0
M  END
