
     RDKit          3D

 27 29  0  0  0  0  0  0  0  0999 V2000
    7.6100    1.4900    0.5470 C   0  0  0  0  0  0  0  0  0  0  0  0
    6.1640    1.6780    0.2800 C   0  0  0  0  0  0  0  0  0  0  0  0
    5.6870    2.8300    0.0270 O   0  0  0  0  0  0  0  0  0  0  0  0
    5.2370    0.6080    0.2900 N   0  0  0  0  0  0  0  0  0  0  0  0
    3.8310    0.8230    0.0260 C   0  0  0  0  0  0  0  0  0  0  0  0
    3.0640   -0.4470    0.0920 C   0  0  0  0  0  0  0  0  0  0  0  0
    3.7000   -1.4980    0.3560 O   0  0  0  0  0  0  0  0  0  0  0  0
    1.7180   -0.5420   -0.1150 O   0  0  0  0  0  0  0  0  0  0  0  0
    0.9510   -1.6940   -0.0670 C   0  0  2  0  0  0  0  0  0  0  0  0
    1.1070   -2.2610    1.3500 C   0  0  0  0  0  0  0  0  0  0  0  0
    1.3830   -2.7740   -1.0260 C   0  0  0  0  0  0  0  0  0  0  0  0
   -0.4760   -1.3630   -0.3250 C   0  0  0  0  0  0  0  0  0  0  0  0
   -0.9600   -0.1790   -0.5880 C   0  0  0  0  0  0  0  0  0  0  0  0
   -0.3680    1.1260   -0.7130 N   0  0  0  0  0  0  0  0  0  0  0  0
   -1.1680    2.2890   -0.4520 C   0  0  0  0  0  0  0  0  0  0  0  0
   -0.6940    3.4000   -0.1180 O   0  0  0  0  0  0  0  0  0  0  0  0
   -2.6360    2.1580   -0.5880 C   0  0  0  0  0  0  0  0  0  0  0  0
   -3.0310    0.8150    0.0420 C   0  0  1  0  0  0  0  0  0  0  0  0
   -4.5090    0.7210    0.1340 C   0  0  0  0  0  0  0  0  0  0  0  0
   -5.2540    0.5350    1.2090 C   0  0  0  0  0  0  0  0  0  0  0  0
   -6.6690    0.5120    0.7970 C   0  0  0  0  0  0  0  0  0  0  0  0
   -6.6190    0.2380   -0.5540 O   0  0  0  0  0  0  0  0  0  0  0  0
   -5.4360    0.8120   -0.9390 N   0  0  0  0  0  0  0  0  0  0  0  0
   -2.4510   -0.2410   -0.8330 C   0  0  2  0  0  0  0  0  0  0  0  0
   -2.7740   -1.5910   -0.5280 N   0  0  0  0  0  0  0  0  0  0  0  0
   -1.5880   -2.3170   -0.2750 C   0  0  0  0  0  0  0  0  0  0  0  0
   -1.4300   -3.5480   -0.0420 O   0  0  0  0  0  0  0  0  0  0  0  0
  1  2  1  0
  2  3  2  0
  2  4  1  0
  4  5  1  0
  5  6  1  0
  6  7  2  0
  6  8  1  0
  8  9  1  0
  9 10  1  1
  9 11  1  0
  9 12  1  0
 12 13  2  0
 12 26  1  0
 13 14  1  0
 13 24  1  0
 14 15  1  0
 15 16  2  0
 15 17  1  0
 17 18  1  0
 18 19  1  6
 18 24  1  0
 19 20  2  0
 19 23  1  0
 20 21  1  0
 21 22  1  0
 22 23  1  0
 24 25  1  1
 25 26  1  0
 26 27  2  0
M  END
