
     RDKit          3D

 27 29  0  0  0  0  0  0  0  0999 V2000
   -5.6190   -2.2430    1.1640 C   0  0  0  0  0  0  0  0  0  0  0  0
   -4.5820   -2.0550    0.1420 N   0  0  0  0  0  0  0  0  0  0  0  0
   -4.2480   -0.7860   -0.3670 C   0  0  0  0  0  0  0  0  0  0  0  0
   -4.8440    0.2200    0.0550 O   0  0  0  0  0  0  0  0  0  0  0  0
   -3.1940   -0.6200   -1.4010 C   0  0  2  0  0  0  0  0  0  0  0  0
   -2.7430   -1.8810   -1.7360 O   0  0  0  0  0  0  0  0  0  0  0  0
   -1.3880   -1.9920   -1.4790 C   0  0  0  0  0  0  0  0  0  0  0  0
   -0.7430   -3.0860   -1.7210 O   0  0  0  0  0  0  0  0  0  0  0  0
   -0.9070   -0.7460   -0.9400 C   0  0  0  0  0  0  0  0  0  0  0  0
    0.4110   -0.3380   -0.5350 C   0  0  0  0  0  0  0  0  0  0  0  0
    1.5620   -0.9230   -0.4830 C   0  0  0  0  0  0  0  0  0  0  0  0
    1.9840   -2.2200   -0.8100 N   0  0  0  0  0  0  0  0  0  0  0  0
    3.4050   -2.3140   -0.5500 C   0  0  0  0  0  0  0  0  0  0  0  0
    4.1050   -3.3400   -0.7330 O   0  0  0  0  0  0  0  0  0  0  0  0
    3.8250   -1.0230   -0.0520 C   0  0  0  0  0  0  0  0  0  0  0  0
    4.9320   -0.2970    0.4050 C   0  0  0  0  0  0  0  0  0  0  0  0
    6.3000   -0.8230    0.5170 C   0  0  0  0  0  0  0  0  0  0  0  0
    4.5150    0.9340    0.7120 N   0  0  0  0  0  0  0  0  0  0  0  0
    3.2040    1.0600    0.4840 C   0  0  0  0  0  0  0  0  0  0  0  0
    2.3830    2.2620    0.6990 C   0  0  0  0  0  0  0  0  0  0  0  0
    2.7680   -0.1520    0.0090 C   0  0  0  0  0  0  0  0  0  0  0  0
   -2.0010    0.0820   -0.8910 C   0  0  0  0  0  0  0  0  0  0  0  0
   -1.9670    1.3820   -0.4260 O   0  0  0  0  0  0  0  0  0  0  0  0
   -1.9270    1.7820    0.9130 C   0  0  0  0  0  0  0  0  0  0  0  0
   -1.8930    3.2820    0.9640 C   0  0  0  0  0  0  0  0  0  0  0  0
   -1.9020    4.0700   -0.2140 N   0  0  0  0  0  0  0  0  0  0  0  0
   -1.8540    3.8650    2.0730 O   0  0  0  0  0  0  0  0  0  0  0  0
  1  2  1  0
  2  3  1  0
  3  4  2  0
  5  3  1  1
  5  6  1  0
  5 22  1  0
  6  7  1  0
  7  8  2  0
  7  9  1  0
  9 10  1  0
  9 22  2  0
 10 11  2  3
 11 12  1  0
 11 21  1  0
 12 13  1  0
 13 14  2  0
 13 15  1  0
 15 16  2  0
 15 21  1  0
 16 17  1  0
 16 18  1  0
 18 19  1  0
 19 20  1  0
 19 21  2  0
 22 23  1  0
 23 24  1  0
 24 25  1  0
 25 26  1  0
 25 27  2  0
M  END
