
     RDKit          3D

 27 29  0  0  0  0  0  0  0  0999 V2000
    9.3110    0.3650    0.5930 C   0  0  0  0  0  0  0  0  0  0  0  0
    7.9540    0.3980    0.9940 O   0  0  0  0  0  0  0  0  0  0  0  0
    6.9210    0.1700    0.0750 C   0  0  0  0  0  0  0  0  0  0  0  0
    7.2700   -0.0600   -1.1010 O   0  0  0  0  0  0  0  0  0  0  0  0
    5.5380    0.1950    0.4440 C   0  0  0  0  0  0  0  0  0  0  0  0
    4.5560   -0.0210   -0.4250 C   0  0  0  0  0  0  0  0  0  0  0  0
    4.8340   -0.3000   -1.8310 C   0  0  0  0  0  0  0  0  0  0  0  0
    3.6910   -0.4780   -2.5840 O   0  0  0  0  0  0  0  0  0  0  0  0
    2.3860   -0.4400   -2.1620 C   0  0  0  0  0  0  0  0  0  0  0  0
    1.4220   -0.6320   -2.9630 O   0  0  0  0  0  0  0  0  0  0  0  0
    2.1110   -0.1730   -0.7620 C   0  0  0  0  0  0  0  0  0  0  0  0
    3.1620    0.0280    0.0660 C   0  0  0  0  0  0  0  0  0  0  0  0
    2.6800    0.2550    1.2970 N   0  0  0  0  0  0  0  0  0  0  0  0
    1.3180    0.2050    1.2810 C   0  0  0  0  0  0  0  0  0  0  0  0
    0.4760    0.4140    2.4960 C   0  0  0  0  0  0  0  0  0  0  0  0
    0.9280   -0.0610    0.0110 C   0  0  0  0  0  0  0  0  0  0  0  0
   -0.3670   -0.2320   -0.6260 C   0  0  0  0  0  0  0  0  0  0  0  0
   -1.5400   -0.1130    0.1630 N   0  0  0  0  0  0  0  0  0  0  0  0
   -2.8070   -0.2960   -0.5120 C   0  0  0  0  0  0  0  0  0  0  0  0
   -2.7940   -0.5460   -1.7380 O   0  0  0  0  0  0  0  0  0  0  0  0
   -4.0270   -0.1970    0.1890 N   0  0  0  0  0  0  0  0  0  0  0  0
   -5.2810   -0.3760   -0.4710 C   0  0  1  0  0  0  0  0  0  0  0  0
   -6.1390   -1.4180    0.1730 C   0  0  0  0  0  0  0  0  0  0  0  0
   -7.4470   -1.0350    0.0960 O   0  0  0  0  0  0  0  0  0  0  0  0
   -7.5370    0.2170   -0.4400 C   0  0  1  0  0  0  0  0  0  0  0  0
   -8.5630    1.0360    0.1790 N   0  0  0  0  0  0  0  0  0  0  0  0
   -6.1720    0.8650   -0.3400 C   0  0  0  0  0  0  0  0  0  0  0  0
  1  2  1  0
  2  3  1  0
  3  4  2  0
  3  5  1  0
  5  6  2  3
  6  7  1  0
  6 12  1  0
  7  8  1  0
  8  9  1  0
  9 10  2  0
  9 11  1  0
 11 12  2  0
 11 16  1  0
 12 13  1  0
 13 14  1  0
 14 15  1  0
 14 16  2  0
 16 17  1  0
 17 18  1  0
 18 19  1  0
 19 20  2  0
 19 21  1  0
 22 21  1  1
 22 23  1  0
 22 27  1  0
 23 24  1  0
 24 25  1  0
 25 26  1  1
 25 27  1  0
M  END
