
     RDKit          3D

 29 30  0  0  0  0  0  0  0  0999 V2000
   -2.6530    4.4720   -2.5870 C   0  0  0  0  0  0  0  0  0  0  0  0
   -3.7760    4.1560   -1.6350 C   0  0  0  0  0  0  0  0  0  0  0  0
   -3.9960    2.6760   -1.5030 C   0  0  1  0  0  0  0  0  0  0  0  0
   -4.3150    2.0950   -2.7070 O   0  0  0  0  0  0  0  0  0  0  0  0
   -2.7880    2.0150   -0.8820 C   0  0  0  0  0  0  0  0  0  0  0  0
   -3.0120    0.6420   -0.6420 O   0  0  0  0  0  0  0  0  0  0  0  0
   -2.0530   -0.1850   -0.0790 C   0  0  0  0  0  0  0  0  0  0  0  0
   -0.8000    0.2280    0.3020 C   0  0  0  0  0  0  0  0  0  0  0  0
    0.1010   -0.6650    0.8590 C   0  0  0  0  0  0  0  0  0  0  0  0
    1.4280   -0.1780    1.2530 C   0  0  0  0  0  0  0  0  0  0  0  0
    2.4620   -0.2850    0.1890 C   0  0  2  0  0  0  0  0  0  0  0  0
    2.0410    0.5180   -0.9890 C   0  0  0  0  0  0  0  0  0  0  0  0
    2.7060   -1.6300   -0.1340 O   0  0  0  0  0  0  0  0  0  0  0  0
    3.8360    0.2320    0.6600 C   0  0  1  0  0  0  0  0  0  0  0  0
    3.7370    1.5340    1.3460 C   0  0  0  0  0  0  0  0  0  0  0  0
    3.3610    2.6440    0.7400 O   0  0  0  0  0  0  0  0  0  0  0  0
    3.9420    3.2460   -0.2960 C   0  0  0  0  0  0  0  0  0  0  0  0
    4.2790   -0.8000    1.7230 C   0  0  0  0  0  0  0  0  0  0  0  0
    5.6460   -1.2720    1.3100 C   0  0  0  0  0  0  0  0  0  0  0  0
    6.0300   -0.3780    0.1940 C   0  0  0  0  0  0  0  0  0  0  0  0
    4.7740    0.0870   -0.3910 N   0  0  0  0  0  0  0  0  0  0  0  0
   -0.2220   -1.9940    1.0510 C   0  0  0  0  0  0  0  0  0  0  0  0
   -1.4640   -2.3750    0.6650 N   0  0  0  0  0  0  0  0  0  0  0  0
   -2.3650   -1.5380    0.1230 C   0  0  0  0  0  0  0  0  0  0  0  0
   -3.6400   -1.9930   -0.2850 N   0  0  0  0  0  0  0  0  0  0  0  0
   -4.0460   -3.3440   -0.0740 C   0  0  0  0  0  0  0  0  0  0  0  0
   -4.3730   -3.7170    1.3330 C   0  0  2  0  0  0  0  0  0  0  0  0
   -4.9030   -5.1580    1.3000 C   0  0  0  0  0  0  0  0  0  0  0  0
   -5.4430   -2.9150    1.8130 O   0  0  0  0  0  0  0  0  0  0  0  0
  1  2  1  0
  2  3  1  0
  3  4  1  6
  3  5  1  0
  5  6  1  0
  6  7  1  0
  7  8  2  0
  7 24  1  0
  8  9  1  0
  9 10  1  0
  9 22  2  0
 10 11  1  0
 11 12  1  6
 11 13  1  0
 11 14  1  0
 14 15  1  1
 14 18  1  0
 14 21  1  0
 15 16  1  0
 16 17  1  0
 18 19  1  0
 19 20  1  0
 20 21  1  0
 22 23  1  0
 23 24  2  0
 24 25  1  0
 25 26  1  0
 26 27  1  0
 27 28  1  6
 27 29  1  0
M  CHG  2  21   1  23   1
M  END
