
     RDKit          3D

 31 34  0  0  0  0  0  0  0  0999 V2000
   -1.7790   -2.5560    2.0840 C   0  0  0  0  0  0  0  0  0  0  0  0
   -2.9110   -1.7390    1.5140 C   0  0  0  0  0  0  0  0  0  0  0  0
   -2.6390   -1.0070    0.2600 C   0  0  2  0  0  0  0  0  0  0  0  0
   -1.5800    0.0290    0.2510 C   0  0  0  0  0  0  0  0  0  0  0  0
   -0.2480   -0.3570    0.5420 N   0  0  2  0  0  0  0  0  0  0  0  0
    0.2180    0.3860    1.7000 C   0  0  0  0  0  0  0  0  0  0  0  0
    0.7360    1.7020    1.2040 C   0  0  0  0  0  0  0  0  0  0  0  0
    1.1320    1.4290   -0.2040 C   0  0  1  0  0  0  0  0  0  0  0  0
    2.5910    1.6790   -0.4810 C   0  0  0  0  0  0  0  0  0  0  0  0
    3.4710    0.8740    0.3170 N   0  0  2  0  0  0  0  0  0  0  0  0
    4.3350    1.6450    1.1650 C   0  0  0  0  0  0  0  0  0  0  0  0
    5.7150    1.6120    0.5350 C   0  0  0  0  0  0  0  0  0  0  0  0
    5.7190    0.2340   -0.0950 C   0  0  2  0  0  0  0  0  0  0  0  0
    6.6810    0.2050   -1.2420 C   0  0  0  0  0  0  0  0  0  0  0  0
    6.7610   -1.0120   -1.8920 O   0  0  0  0  0  0  0  0  0  0  0  0
    7.1630   -2.0650   -1.1060 C   0  0  0  0  0  0  0  0  0  0  0  0
    4.3000    0.0090   -0.4920 C   0  0  0  0  0  0  0  0  0  0  0  0
    0.6840    0.0470   -0.5390 C   0  0  0  0  0  0  0  0  0  0  0  0
   -3.8820   -0.4840   -0.2580 N   0  0  0  0  0  0  0  0  0  0  0  0
   -4.4760   -0.9480   -1.4620 C   0  0  0  0  0  0  0  0  0  0  0  0
   -3.9710   -1.9280   -2.3250 C   0  0  0  0  0  0  0  0  0  0  0  0
   -4.8370   -2.1030   -3.3800 C   0  0  0  0  0  0  0  0  0  0  0  0
   -5.8620   -1.2160   -3.1350 C   0  0  0  0  0  0  0  0  0  0  0  0
   -5.6180   -0.5330   -1.9720 N   0  0  0  0  0  0  0  0  0  0  0  0
   -6.4490    0.4630   -1.4060 C   0  0  0  0  0  0  0  0  0  0  0  0
   -6.1620    1.0880   -0.2980 C   0  0  0  0  0  0  0  0  0  0  0  0
   -7.0830    2.1130    0.2240 C   0  0  0  0  0  0  0  0  0  0  0  0
   -7.6680    1.6540    1.8610 Cl  0  0  0  0  0  0  0  0  0  0  0  0
   -4.7130    0.7580    0.5960 S   0  0  2  0  0  0  0  0  0  0  0  0
   -3.8830    1.9990    0.7830 O   0  0  0  0  0  0  0  0  0  0  0  0
   -5.1680    0.2960    1.9720 O   0  0  0  0  0  0  0  0  0  0  0  0
  1  2  1  0
  3  2  1  1
  3  4  1  0
  3 19  1  0
  5  4  1  6
  5  6  1  0
  5 18  1  0
  6  7  1  0
  7  8  1  0
  8  9  1  1
  8 18  1  0
 10  9  1  6
 10 11  1  0
 10 17  1  0
 11 12  1  0
 12 13  1  0
 13 14  1  6
 13 17  1  0
 14 15  1  0
 15 16  1  0
 19 20  1  0
 29 19  1  6
 20 21  2  0
 20 24  1  0
 21 22  1  0
 22 23  2  0
 23 24  1  0
 24 25  1  0
 25 26  2  0
 26 27  1  0
 26 29  1  0
 27 28  1  0
 29 30  2  0
 29 31  2  0
M  CHG  2   5   1  10   1
M  END
