
     RDKit          3D

 29 31  0  0  0  0  0  0  0  0999 V2000
    4.5260   -1.3640    2.1780 C   0  0  0  0  0  0  0  0  0  0  0  0
    4.5630   -0.2710    1.1950 C   0  0  0  0  0  0  0  0  0  0  0  0
    3.9230    0.8450    1.4340 C   0  0  0  0  0  0  0  0  0  0  0  0
    3.0140    1.0800    2.9020 S   0  0  2  0  0  0  0  0  0  0  0  0
    3.4880    2.3890    3.5220 O   0  0  0  0  0  0  0  0  0  0  0  0
    3.2880    0.0240    3.9010 O   0  0  0  0  0  0  0  0  0  0  0  0
    1.3320    1.2820    2.5920 N   0  0  0  0  0  0  0  0  0  0  0  0
    0.7440    0.1460    1.9660 C   0  0  1  0  0  0  0  0  0  0  0  0
   -0.5090   -0.3700    2.6790 C   0  0  0  0  0  0  0  0  0  0  0  0
   -1.1290   -1.1810    1.5640 C   0  0  0  0  0  0  0  0  0  0  0  0
   -1.0170   -0.2870    0.4280 N   0  0  0  0  0  0  0  0  0  0  0  0
   -1.8670   -0.2430   -0.7560 C   0  0  1  0  0  0  0  0  0  0  0  0
   -1.7630   -1.5800   -1.4810 C   0  0  0  0  0  0  0  0  0  0  0  0
   -3.2750   -0.0090   -0.4130 C   0  0  0  0  0  0  0  0  0  0  0  0
   -3.6120    0.0450    0.7930 O   0  0  0  0  0  0  0  0  0  0  0  0
   -4.2410    0.1540   -1.4200 N   0  0  0  0  0  0  0  0  0  0  0  0
   -5.6480    0.3780   -1.1410 C   0  0  0  0  0  0  0  0  0  0  0  0
   -5.9830    1.7570   -1.6730 C   0  0  0  0  0  0  0  0  0  0  0  0
   -5.0620    2.1620   -2.6230 O   0  0  0  0  0  0  0  0  0  0  0  0
   -4.7130    1.1660   -3.5080 C   0  0  0  0  0  0  0  0  0  0  0  0
   -3.8510    0.1090   -2.8080 C   0  0  0  0  0  0  0  0  0  0  0  0
    0.1000    0.5670    0.6670 C   0  0  0  0  0  0  0  0  0  0  0  0
    0.5160    1.5150   -0.0460 O   0  0  0  0  0  0  0  0  0  0  0  0
    5.3020   -0.4360   -0.0230 C   0  0  0  0  0  0  0  0  0  0  0  0
    5.4860    0.4060   -1.0740 C   0  0  0  0  0  0  0  0  0  0  0  0
    6.2280    0.0300   -2.1190 C   0  0  0  0  0  0  0  0  0  0  0  0
    6.7940   -1.2550   -2.0760 C   0  0  0  0  0  0  0  0  0  0  0  0
    7.8190   -2.1170   -3.2320 Cl  0  0  0  0  0  0  0  0  0  0  0  0
    6.1930   -1.8460   -0.4720 S   0  0  0  0  0  0  0  0  0  0  0  0
  1  2  1  0
  2  3  2  3
  2 24  1  0
  3  4  1  0
  4  5  2  0
  4  6  2  0
  4  7  1  6
  8  7  1  1
  8  9  1  0
  8 22  1  0
  9 10  1  0
 10 11  1  0
 11 12  1  0
 11 22  1  0
 12 13  1  1
 12 14  1  0
 14 15  2  0
 14 16  1  0
 16 17  1  0
 16 21  1  0
 17 18  1  0
 18 19  1  0
 19 20  1  0
 20 21  1  0
 22 23  2  0
 24 25  2  0
 24 29  1  0
 25 26  1  0
 26 27  2  0
 27 28  1  0
 27 29  1  0
M  END
