
     RDKit          3D

 29 30  0  0  0  0  0  0  0  0999 V2000
    7.9460    2.0730   -0.6080 C   0  0  0  0  0  0  0  0  0  0  0  0
    7.2700    1.1000   -1.5710 C   0  0  0  0  0  0  0  0  0  0  0  0
    5.8360    0.9330   -1.1820 C   0  0  0  0  0  0  0  0  0  0  0  0
    4.8070    1.7220   -1.6630 C   0  0  0  0  0  0  0  0  0  0  0  0
    3.6560    1.2580   -1.0740 C   0  0  0  0  0  0  0  0  0  0  0  0
    4.0220    0.2040   -0.2550 C   0  0  0  0  0  0  0  0  0  0  0  0
    3.1130   -0.6340    0.6050 C   0  0  1  0  0  0  0  0  0  0  0  0
    3.2830   -0.1760    2.0140 C   0  0  0  0  0  0  0  0  0  0  0  0
    1.8040   -0.4470    0.1030 O   0  0  0  0  0  0  0  0  0  0  0  0
    0.6940   -1.0340    0.6070 C   0  0  0  0  0  0  0  0  0  0  0  0
    0.7200   -1.7950    1.5640 O   0  0  0  0  0  0  0  0  0  0  0  0
   -0.6520   -0.6790   -0.1140 C   0  0  2  0  0  0  0  0  0  0  0  0
   -0.4560   -1.0810   -1.5170 C   0  0  0  0  0  0  0  0  0  0  0  0
   -0.5420    0.8530   -0.0240 C   0  0  0  0  0  0  0  0  0  0  0  0
   -0.4940    1.1810    1.3910 N   0  0  0  0  0  0  0  0  0  0  0  0
   -1.7190   -1.2840    0.6740 C   0  0  0  0  0  0  0  0  0  0  0  0
   -3.1290   -1.3570    0.4450 C   0  0  0  0  0  0  0  0  0  0  0  0
   -4.0920   -0.2770    0.2440 C   0  0  2  0  0  0  0  0  0  0  0  0
   -5.4910   -0.9490    0.1370 C   0  0  0  0  0  0  0  0  0  0  0  0
   -5.8640   -1.7280    1.3570 C   0  0  0  0  0  0  0  0  0  0  0  0
   -5.8760   -0.9980    2.5340 O   0  0  0  0  0  0  0  0  0  0  0  0
   -3.9110    0.5160   -0.9700 N   0  0  1  0  0  0  0  0  0  0  0  0
   -4.9390    0.5560   -1.9390 C   0  0  0  0  0  0  0  0  0  0  0  0
   -5.3350    1.9760   -1.5890 C   0  0  0  0  0  0  0  0  0  0  0  0
   -4.0830    1.9380   -0.7790 C   0  0  0  0  0  0  0  0  0  0  0  0
    3.4740   -2.0510    0.4310 C   0  0  0  0  0  0  0  0  0  0  0  0
    4.7480   -2.5180    0.8560 N   0  0  0  0  0  0  0  0  0  0  0  0
    2.6970   -2.8830   -0.0830 O   0  0  0  0  0  0  0  0  0  0  0  0
    5.3230    0.0600   -0.3610 O   0  0  0  0  0  0  0  0  0  0  0  0
  1  2  1  0
  2  3  1  0
  3  4  2  0
  3 29  1  0
  4  5  1  0
  5  6  2  0
  6  7  1  0
  6 29  1  0
  7  8  1  1
  7  9  1  0
  7 26  1  0
  9 10  1  0
 10 11  2  0
 10 12  1  0
 12 13  1  6
 12 14  1  0
 12 16  1  0
 14 15  1  0
 16 17  1  0
 18 17  1  6
 18 19  1  0
 18 22  1  0
 19 20  1  0
 20 21  1  0
 22 23  1  6
 22 25  1  0
 23 24  1  0
 24 25  1  0
 26 27  1  0
 26 28  2  0
M  CHG  2  15   1  22   1
M  END
