
     RDKit          3D

 15 14  0  0  0  0  0  0  0  0999 V2000
   -3.4660   -0.6720   -0.4730 C   0  0  0  0  0  0  0  0  0  0  0  0
   -1.9960   -0.8480   -0.2580 C   0  0  0  0  0  0  0  0  0  0  0  0
   -1.4050    0.2760    0.5050 C   0  0  1  0  0  0  0  0  0  0  0  0
   -2.1270    0.3420    1.8660 C   0  0  0  0  0  0  0  0  0  0  0  0
    0.0050    0.0300    0.8050 N   0  0  0  0  0  0  0  0  0  0  0  0
    0.9710   -0.2180   -0.1870 C   0  0  0  0  0  0  0  0  0  0  0  0
    0.6500   -0.2410   -1.3810 O   0  0  0  0  0  0  0  0  0  0  0  0
    2.3490   -0.4530    0.1220 N   0  0  0  0  0  0  0  0  0  0  0  0
    3.3430   -0.7070   -0.9090 C   0  0  0  0  0  0  0  0  0  0  0  0
    4.6520   -0.9170   -0.2620 C   0  0  0  0  0  0  0  0  0  0  0  0
    5.7840   -1.1820   -1.0640 N   0  0  0  0  0  0  0  0  0  0  0  0
    4.7730   -0.8640    0.9770 O   0  0  0  0  0  0  0  0  0  0  0  0
   -1.4900    1.5470   -0.2050 C   0  0  0  0  0  0  0  0  0  0  0  0
   -2.6360    2.3930   -0.0890 N   0  0  0  0  0  0  0  0  0  0  0  0
   -0.6040    1.9480   -0.9180 O   0  0  0  0  0  0  0  0  0  0  0  0
  1  2  1  0
  2  3  1  0
  3  4  1  1
  3  5  1  0
  3 13  1  0
  5  6  1  0
  6  7  2  0
  6  8  1  0
  8  9  1  0
  9 10  1  0
 10 11  1  0
 10 12  2  0
 13 14  1  0
 13 15  2  0
M  CHG  1  14   1
M  END
