
     RDKit          3D

 14 13  0  0  0  0  0  0  0  0999 V2000
   -2.2050   -1.4140   -1.4210 C   0  0  0  0  0  0  0  0  0  0  0  0
   -0.9230   -0.9090   -1.1000 N   0  0  0  0  0  0  0  0  0  0  0  0
   -0.6710   -0.6030    0.2600 C   0  0  2  0  0  0  0  0  0  0  0  0
   -1.0240   -1.7100    1.2280 C   0  0  0  0  0  0  0  0  0  0  0  0
   -1.4920    0.5840    0.6980 C   0  0  0  0  0  0  0  0  0  0  0  0
   -1.3690    0.9190    1.9080 O   0  0  0  0  0  0  0  0  0  0  0  0
   -2.3490    1.3050   -0.1370 N   0  0  0  0  0  0  0  0  0  0  0  0
   -3.0560    2.3960    0.4130 N   0  0  0  0  0  0  0  0  0  0  0  0
    0.7690   -0.2870    0.5020 C   0  0  0  0  0  0  0  0  0  0  0  0
    1.1770   -0.0310    1.6870 O   0  0  0  0  0  0  0  0  0  0  0  0
    1.7520   -0.2480   -0.5210 N   0  0  0  0  0  0  0  0  0  0  0  0
    3.1480    0.0600   -0.2760 C   0  0  0  0  0  0  0  0  0  0  0  0
    3.3400    1.4400    0.3230 C   0  0  0  0  0  0  0  0  0  0  0  0
    4.7090    1.6620    0.5290 O   0  0  0  0  0  0  0  0  0  0  0  0
  1  2  1  0
  2  3  1  0
  3  4  1  1
  3  5  1  0
  3  9  1  0
  5  6  2  0
  5  7  1  0
  7  8  1  0
  9 10  2  0
  9 11  1  0
 11 12  1  0
 12 13  1  0
 13 14  1  0
M  CHG  1   2   1
M  END
