
     RDKit          3D

 15 14  0  0  0  0  0  0  0  0999 V2000
    5.7930    1.8120   -0.0930 N   0  0  0  0  0  0  0  0  0  0  0  0
    4.7010    1.0380   -0.5650 C   0  0  0  0  0  0  0  0  0  0  0  0
    4.3890    1.0470   -1.7930 O   0  0  0  0  0  0  0  0  0  0  0  0
    3.9190    0.2310    0.3010 N   0  0  0  0  0  0  0  0  0  0  0  0
    2.8240   -0.5300   -0.2650 C   0  0  0  0  0  0  0  0  0  0  0  0
    2.0740   -1.3220    0.7340 C   0  0  0  0  0  0  0  0  0  0  0  0
    2.4100   -1.2920    1.8920 O   0  0  0  0  0  0  0  0  0  0  0  0
    0.9180   -2.1430    0.3280 C   0  0  0  0  0  0  0  0  0  0  0  0
   -0.2430   -1.2970   -0.0420 C   0  0  0  0  0  0  0  0  0  0  0  0
   -0.0650   -0.0500   -0.0390 O   0  0  0  0  0  0  0  0  0  0  0  0
   -1.5230   -1.7760   -0.3950 N   0  0  0  0  0  0  0  0  0  0  0  0
   -2.6000   -0.8680   -0.7510 C   0  0  0  0  0  0  0  0  0  0  0  0
   -2.9340    0.0930    0.3710 C   0  0  0  0  0  0  0  0  0  0  0  0
   -4.0440    1.0110   -0.1040 C   0  0  0  0  0  0  0  0  0  0  0  0
   -4.3970    1.9620    0.9200 N   0  0  0  0  0  0  0  0  0  0  0  0
  1  2  1  0
  2  3  2  0
  2  4  1  0
  4  5  1  0
  5  6  1  0
  6  7  2  0
  6  8  1  0
  8  9  1  0
  9 10  2  0
  9 11  1  0
 11 12  1  0
 12 13  1  0
 13 14  1  0
 14 15  1  0
M  CHG  1  15   1
M  END
