
     RDKit          3D

 15 14  0  0  0  0  0  0  0  0999 V2000
   -1.7030   -1.0610    2.4600 C   0  0  0  0  0  0  0  0  0  0  0  0
   -1.7010   -0.6350    1.2160 C   0  0  0  0  0  0  0  0  0  0  0  0
   -0.5200   -0.3680    0.4840 N   0  0  0  0  0  0  0  0  0  0  0  0
    0.8070   -0.5020    0.9300 C   0  0  0  0  0  0  0  0  0  0  0  0
    1.0420   -0.8950    2.0860 O   0  0  0  0  0  0  0  0  0  0  0  0
    1.9080   -0.1660   -0.0060 C   0  0  0  0  0  0  0  0  0  0  0  0
    1.6720    0.2290   -1.1690 O   0  0  0  0  0  0  0  0  0  0  0  0
    3.2610   -0.2860    0.3990 N   0  0  0  0  0  0  0  0  0  0  0  0
    4.4230    0.0050   -0.3790 C   0  0  0  0  0  0  0  0  0  0  0  0
    4.6070    1.4020   -0.8360 C   0  0  0  0  0  0  0  0  0  0  0  0
    3.5620    1.8150   -1.6360 O   0  0  0  0  0  0  0  0  0  0  0  0
   -3.0000   -0.4420    0.6010 C   0  0  0  0  0  0  0  0  0  0  0  0
   -4.1660   -0.7140    1.3460 N   0  0  0  0  0  0  0  0  0  0  0  0
   -3.1270   -0.0230   -0.6290 C   0  0  0  0  0  0  0  0  0  0  0  0
   -4.4460    0.1600   -1.2160 N   0  0  0  0  0  0  0  0  0  0  0  0
  1  2  2  0
  2  3  1  0
  2 12  1  0
  3  4  1  0
  4  5  2  0
  4  6  1  0
  6  7  2  0
  6  8  1  0
  8  9  1  0
  9 10  1  0
 10 11  1  0
 12 13  1  0
 12 14  2  3
 14 15  1  0
M  CHG  1  15   1
M  END
