
     RDKit          3D

 15 14  0  0  0  0  0  0  0  0999 V2000
    3.2570   -2.1210   -0.3840 C   0  0  0  0  0  0  0  0  0  0  0  0
    2.7390   -1.0700    0.5700 C   0  0  1  0  0  0  0  0  0  0  0  0
    3.8060   -0.0460    0.9300 C   0  0  0  0  0  0  0  0  0  0  0  0
    4.3240    0.6680   -0.1860 N   0  0  0  0  0  0  0  0  0  0  0  0
    1.6500   -0.3640    0.0280 N   0  0  0  0  0  0  0  0  0  0  0  0
    0.3130   -0.3330    0.7170 C   0  0  0  0  0  0  0  0  0  0  0  0
    0.2770   -0.9500    1.7310 O   0  0  0  0  0  0  0  0  0  0  0  0
   -0.5590    0.4350   -0.0350 N   0  0  0  0  0  0  0  0  0  0  0  0
   -1.9400    0.2780    1.0280 C   0  0  0  0  0  0  0  0  0  0  0  0
   -1.7030   -0.3130    1.9850 O   0  0  0  0  0  0  0  0  0  0  0  0
   -3.0870    0.9290    0.4590 C   0  0  1  0  0  0  0  0  0  0  0  0
   -3.0020    1.3920   -0.8830 N   0  0  0  0  0  0  0  0  0  0  0  0
   -4.3180    0.0160    0.5350 C   0  0  0  0  0  0  0  0  0  0  0  0
   -5.4720    0.7220   -0.0640 C   0  0  0  0  0  0  0  0  0  0  0  0
   -6.5820    0.1720   -0.1200 O   0  0  0  0  0  0  0  0  0  0  0  0
  2  1  1  6
  2  3  1  0
  2  5  1  0
  3  4  1  0
  5  6  1  0
  6  7  2  0
  6  8  1  0
  8  9  1  0
  9 10  2  0
  9 11  1  0
 11 12  1  6
 11 13  1  0
 13 14  1  0
 14 15  2  0
M  CHG  1   4   1
M  END
