
     RDKit          3D

 15 14  0  0  0  0  0  0  0  0999 V2000
   -4.3510   -0.1620    0.0980 C   0  0  0  0  0  0  0  0  0  0  0  0
   -2.9120    0.0740    0.3220 C   0  0  0  0  0  0  0  0  0  0  0  0
   -2.0620    0.3950   -0.8530 C   0  0  2  0  0  0  0  0  0  0  0  0
   -0.7120    0.5640   -0.3120 N   0  0  0  0  0  0  0  0  0  0  0  0
    0.3650   -0.2930   -0.6160 C   0  0  0  0  0  0  0  0  0  0  0  0
    0.1520   -1.2540   -1.3920 O   0  0  0  0  0  0  0  0  0  0  0  0
    1.7110   -0.0750   -0.0400 C   0  0  0  0  0  0  0  0  0  0  0  0
    1.9440    0.8720    0.7330 O   0  0  0  0  0  0  0  0  0  0  0  0
    2.7660   -0.9600   -0.3720 N   0  0  0  0  0  0  0  0  0  0  0  0
    4.1220   -0.8500    0.1280 C   0  0  0  0  0  0  0  0  0  0  0  0
    4.1950   -0.9460    1.6330 C   0  0  0  0  0  0  0  0  0  0  0  0
    5.5600   -0.8340    2.1040 N   0  0  0  0  0  0  0  0  0  0  0  0
   -2.4560    1.5290   -1.6770 C   0  0  0  0  0  0  0  0  0  0  0  0
   -3.7090    1.5510   -2.3320 N   0  0  0  0  0  0  0  0  0  0  0  0
   -1.7210    2.4830   -1.8230 O   0  0  0  0  0  0  0  0  0  0  0  0
  1  2  1  0
  3  2  1  1
  3  4  1  0
  3 13  1  0
  4  5  1  0
  5  6  2  0
  5  7  1  0
  7  8  2  0
  7  9  1  0
  9 10  1  0
 10 11  1  0
 11 12  1  0
 13 14  1  0
 13 15  2  0
M  CHG  1  14   1
M  END
