
     RDKit          3D

 15 14  0  0  0  0  0  0  0  0999 V2000
    5.1540    1.1040    0.9980 C   0  0  0  0  0  0  0  0  0  0  0  0
    3.9470    0.7150    0.3110 N   0  0  0  0  0  0  0  0  0  0  0  0
    4.0500    0.0130   -0.7500 C   0  0  0  0  0  0  0  0  0  0  0  0
    2.8690   -0.3770   -1.4330 N   0  0  0  0  0  0  0  0  0  0  0  0
    1.6150    0.2090   -1.2520 N   0  0  0  0  0  0  0  0  0  0  0  0
    0.5550   -0.5140   -0.6580 C   0  0  0  0  0  0  0  0  0  0  0  0
    0.7770   -1.6880   -0.2880 O   0  0  0  0  0  0  0  0  0  0  0  0
   -0.7930    0.0240   -0.4500 C   0  0  0  0  0  0  0  0  0  0  0  0
   -1.7820   -0.7790    0.2620 C   0  0  2  0  0  0  0  0  0  0  0  0
   -2.0830   -2.1360   -0.3470 C   0  0  0  0  0  0  0  0  0  0  0  0
   -3.1370   -0.0480    0.0780 C   0  0  1  0  0  0  0  0  0  0  0  0
   -4.1630   -0.8260    0.7760 N   0  0  0  0  0  0  0  0  0  0  0  0
   -3.1060    1.3500    0.4510 C   0  0  0  0  0  0  0  0  0  0  0  0
   -2.4430    2.1890   -0.1910 O   0  0  0  0  0  0  0  0  0  0  0  0
   -3.8120    1.8180    1.5390 O   0  0  0  0  0  0  0  0  0  0  0  0
  1  2  1  0
  2  3  2  3
  3  4  1  0
  4  5  1  0
  5  6  1  0
  6  7  2  0
  6  8  1  0
  8  9  1  0
  9 10  1  6
  9 11  1  0
 11 12  1  1
 11 13  1  0
 13 14  2  0
 13 15  1  0
M  CHG  1   2   1
M  END
