
     RDKit          3D

 22 24  0  0  0  0  0  0  0  0999 V2000
    5.2280    1.8260   -1.6950 C   0  0  0  0  0  0  0  0  0  0  0  0
    4.4330    1.5700   -0.6730 C   0  0  0  0  0  0  0  0  0  0  0  0
    4.8920    0.6320    0.4010 C   0  0  0  0  0  0  0  0  0  0  0  0
    3.9160   -0.5020    0.4420 C   0  0  0  0  0  0  0  0  0  0  0  0
    4.1020   -1.6240   -0.3260 C   0  0  0  0  0  0  0  0  0  0  0  0
    3.2030   -2.6580   -0.2830 C   0  0  0  0  0  0  0  0  0  0  0  0
    2.1010   -2.5790    0.5340 C   0  0  0  0  0  0  0  0  0  0  0  0
    1.9170   -1.4520    1.3030 C   0  0  0  0  0  0  0  0  0  0  0  0
    0.7220   -1.3670    2.1880 C   0  0  0  0  0  0  0  0  0  0  0  0
   -0.3300   -0.7620    1.4860 N   0  0  0  0  0  0  0  0  0  0  0  0
   -0.7900   -1.3830    0.3100 C   0  0  0  0  0  0  0  0  0  0  0  0
   -2.0950   -0.8640   -0.1800 C   0  0  0  0  0  0  0  0  0  0  0  0
   -2.5460    0.2930    0.2380 C   0  0  0  0  0  0  0  0  0  0  0  0
   -3.8310    0.8140   -0.2380 C   0  0  0  0  0  0  0  0  0  0  0  0
   -4.3950    1.9570    0.1020 C   0  0  0  0  0  0  0  0  0  0  0  0
   -5.6890    2.1350   -0.5850 C   0  0  1  0  0  0  0  0  0  0  0  0
   -5.5520    3.5980   -1.5980 Cl  0  0  0  0  0  0  0  0  0  0  0  0
   -5.7940    0.9160   -1.3830 C   0  0  0  0  0  0  0  0  0  0  0  0
   -4.7350    0.1650   -1.1830 C   0  0  0  0  0  0  0  0  0  0  0  0
   -1.7670    1.0880    1.1990 C   0  0  0  0  0  0  0  0  0  0  0  0
   -1.2190    0.0650    2.2090 C   0  0  0  0  0  0  0  0  0  0  0  0
    2.8260   -0.4640    1.2270 N   0  0  0  0  0  0  0  0  0  0  0  0
  1  2  2  0
  2  3  1  0
  3  4  1  0
  4  5  2  0
  4 22  1  0
  5  6  1  0
  6  7  2  0
  7  8  1  0
  8  9  1  0
  8 22  2  0
  9 10  1  0
 10 11  1  0
 10 21  1  0
 11 12  1  0
 12 13  2  0
 13 14  1  0
 13 20  1  0
 14 15  2  0
 14 19  1  0
 15 16  1  0
 16 17  1  6
 16 18  1  0
 18 19  2  0
 20 21  1  0
M  END
