
     RDKit          3D

 15 15  0  0  0  0  0  0  0  0999 V2000
    3.5950   -0.1950   -0.1910 C   0  0  0  0  0  0  0  0  0  0  0  0
    3.1290    0.4930    1.0940 C   0  0  0  0  0  0  0  0  0  0  0  0
    1.7780    0.1860    1.3090 O   0  0  0  0  0  0  0  0  0  0  0  0
    0.7490    0.4900    0.4420 C   0  0  0  0  0  0  0  0  0  0  0  0
    0.8290    1.6450   -0.1980 C   0  0  0  0  0  0  0  0  0  0  0  0
   -0.0180    2.3550   -1.1860 C   0  0  0  0  0  0  0  0  0  0  0  0
   -1.3310    2.3950   -1.4360 C   0  0  0  0  0  0  0  0  0  0  0  0
   -2.4430    1.7010   -0.7670 C   0  0  0  0  0  0  0  0  0  0  0  0
   -2.5310    0.5380   -0.1470 C   0  0  0  0  0  0  0  0  0  0  0  0
   -1.5910   -0.5850    0.1590 C   0  0  0  0  0  0  0  0  0  0  0  0
   -2.1940   -1.8440    0.2040 N   0  0  0  0  0  0  0  0  0  0  0  0
   -3.5480   -2.1780   -0.0150 C   0  0  0  0  0  0  0  0  0  0  0  0
   -4.3820   -1.3180   -0.2970 O   0  0  0  0  0  0  0  0  0  0  0  0
   -0.2880   -0.5770    0.3910 C   0  0  0  0  0  0  0  0  0  0  0  0
    0.2990   -1.8940    0.6760 C   0  0  0  0  0  0  0  0  0  0  0  0
  1  2  1  0
  2  3  1  0
  3  4  1  0
  4  5  2  0
  4 14  1  0
  5  6  1  0
  6  7  2  0
  7  8  1  0
  8  9  2  0
  9 10  1  0
 10 11  1  0
 10 14  2  0
 11 12  1  0
 12 13  2  0
 14 15  1  0
M  END
