
     RDKit          3D

 22 24  0  0  0  0  0  0  0  0999 V2000
    7.5060   -0.0270    2.6040 N   0  0  0  0  0  0  0  0  0  0  0  0
    6.4800   -0.3720    2.1550 C   0  0  0  0  0  0  0  0  0  0  0  0
    5.2120   -0.7820    1.6230 C   0  0  0  0  0  0  0  0  0  0  0  0
    5.0210   -1.0450    0.2830 C   0  0  0  0  0  0  0  0  0  0  0  0
    3.7990   -1.4410   -0.2250 C   0  0  0  0  0  0  0  0  0  0  0  0
    2.7030   -1.5920    0.5980 C   0  0  0  0  0  0  0  0  0  0  0  0
    1.3730   -2.0190    0.0740 C   0  0  0  0  0  0  0  0  0  0  0  0
    0.4780   -0.9540   -0.2210 N   0  0  2  0  0  0  0  0  0  0  0  0
   -0.2270   -1.2720   -1.4540 C   0  0  0  0  0  0  0  0  0  0  0  0
   -1.4660   -0.4520   -1.6130 C   0  0  0  0  0  0  0  0  0  0  0  0
   -1.1520    0.9840   -1.3170 C   0  0  1  0  0  0  0  0  0  0  0  0
   -1.9680    1.5290   -0.1620 C   0  0  0  0  0  0  0  0  0  0  0  0
   -3.4240    1.4550   -0.4540 C   0  0  0  0  0  0  0  0  0  0  0  0
   -4.3660    0.8040    0.2050 C   0  0  0  0  0  0  0  0  0  0  0  0
   -5.6920    1.0190   -0.4590 C   0  0  0  0  0  0  0  0  0  0  0  0
   -5.3520    1.8960   -1.6020 C   0  0  0  0  0  0  0  0  0  0  0  0
   -6.4670    2.5270   -2.7940 Cl  0  0  0  0  0  0  0  0  0  0  0  0
   -4.0340    2.1440   -1.5910 C   0  0  0  0  0  0  0  0  0  0  0  0
    0.3030    1.2890   -1.2050 C   0  0  0  0  0  0  0  0  0  0  0  0
    1.1030    0.3430   -0.3800 C   0  0  0  0  0  0  0  0  0  0  0  0
    2.8970   -1.3280    1.9390 C   0  0  0  0  0  0  0  0  0  0  0  0
    4.1230   -0.9290    2.4570 C   0  0  0  0  0  0  0  0  0  0  0  0
  1  2  3  0
  2  3  1  0
  3  4  2  0
  3 22  1  0
  4  5  1  0
  5  6  2  0
  6  7  1  0
  6 21  1  0
  8  7  1  6
  8  9  1  0
  8 20  1  0
  9 10  1  0
 10 11  1  0
 11 12  1  1
 11 19  1  0
 12 13  1  0
 13 14  2  0
 13 18  1  0
 14 15  1  0
 15 16  1  0
 16 17  1  0
 16 18  2  0
 19 20  1  0
 21 22  2  0
M  CHG  1   8   1
M  END
