
     RDKit          3D

 15 16  0  0  0  0  0  0  0  0999 V2000
   -0.1880   -2.2360   -1.1710 N   0  0  0  0  0  0  0  0  0  0  0  0
   -0.4320   -0.9030   -0.7500 C   0  0  0  0  0  0  0  0  0  0  0  0
    0.4590   -0.2910    0.2560 C   0  0  0  0  0  0  0  0  0  0  0  0
    1.4600   -0.9790    0.7470 C   0  0  0  0  0  0  0  0  0  0  0  0
    2.3320   -0.3610    1.7400 C   0  0  0  0  0  0  0  0  0  0  0  0
    3.4300   -0.9650    2.3490 C   0  0  0  0  0  0  0  0  0  0  0  0
    3.9480   -0.0240    3.2050 C   0  0  0  0  0  0  0  0  0  0  0  0
    3.1670    1.1030    3.0960 C   0  0  0  0  0  0  0  0  0  0  0  0
    3.4080    2.2720    3.8340 O   0  0  0  0  0  0  0  0  0  0  0  0
    2.2430    0.8520    2.2310 O   0  0  0  0  0  0  0  0  0  0  0  0
   -1.4350   -0.2370   -1.2530 C   0  0  0  0  0  0  0  0  0  0  0  0
   -1.8160    1.1520   -0.9170 C   0  0  0  0  0  0  0  0  0  0  0  0
   -2.7680    1.5880   -2.0120 C   0  0  0  0  0  0  0  0  0  0  0  0
   -3.5000    0.3090   -2.3330 C   0  0  0  0  0  0  0  0  0  0  0  0
   -2.3930   -0.7410   -2.2620 C   0  0  0  0  0  0  0  0  0  0  0  0
  1  2  1  0
  2  3  1  0
  2 11  2  3
  3  4  2  3
  4  5  1  0
  5  6  2  0
  5 10  1  0
  6  7  1  0
  7  8  2  0
  8  9  1  0
  8 10  1  0
 11 12  1  0
 11 15  1  0
 12 13  1  0
 13 14  1  0
 14 15  1  0
M  END
