
     RDKit          3D

 15 15  0  0  0  0  0  0  0  0999 V2000
   -1.9480    2.8710    0.4490 C   0  0  0  0  0  0  0  0  0  0  0  0
   -0.9890    1.7590    0.2180 C   0  0  0  0  0  0  0  0  0  0  0  0
   -1.4760    0.5310    0.2120 C   0  0  0  0  0  0  0  0  0  0  0  0
   -2.9090    0.3440    0.4300 C   0  0  0  0  0  0  0  0  0  0  0  0
   -3.5300   -0.8200    0.6030 C   0  0  0  0  0  0  0  0  0  0  0  0
   -2.9120   -2.1700    0.6140 C   0  0  0  0  0  0  0  0  0  0  0  0
   -2.0670   -2.4030   -0.6110 C   0  0  0  0  0  0  0  0  0  0  0  0
   -0.7450   -1.7630   -0.3740 C   0  0  0  0  0  0  0  0  0  0  0  0
   -0.4590   -0.5190   -0.0240 C   0  0  0  0  0  0  0  0  0  0  0  0
    0.8710   -0.0970    0.1520 N   0  0  0  0  0  0  0  0  0  0  0  0
    1.9610   -0.3650   -0.7220 C   0  0  0  0  0  0  0  0  0  0  0  0
    3.2240    0.2330   -0.2260 C   0  0  0  0  0  0  0  0  0  0  0  0
    3.2550    0.8860    0.8480 O   0  0  0  0  0  0  0  0  0  0  0  0
    4.4200    0.1010   -0.9170 O   0  0  0  0  0  0  0  0  0  0  0  0
    5.6300    0.6730   -0.4430 C   0  0  0  0  0  0  0  0  0  0  0  0
  1  2  1  0
  2  3  2  3
  3  4  1  0
  3  9  1  0
  4  5  2  0
  5  6  1  0
  6  7  1  0
  7  8  1  0
  8  9  2  0
  9 10  1  0
 10 11  1  0
 11 12  1  0
 12 13  2  0
 12 14  1  0
 14 15  1  0
M  END
