
     RDKit          3D

 28 32  0  0  0  0  0  0  0  0999 V2000
    8.3550   -0.7680    0.7430 C   0  0  0  0  0  0  0  0  0  0  0  0
    8.4070    0.4740   -0.1170 C   0  0  0  0  0  0  0  0  0  0  0  0
    7.3300    0.4810   -0.9870 O   0  0  0  0  0  0  0  0  0  0  0  0
    6.0350    0.5210   -0.5650 C   0  0  0  0  0  0  0  0  0  0  0  0
    5.6490    0.5760    0.7560 C   0  0  0  0  0  0  0  0  0  0  0  0
    4.3210    0.6110    1.1070 C   0  0  0  0  0  0  0  0  0  0  0  0
    3.3480    0.5910    0.1140 C   0  0  0  0  0  0  0  0  0  0  0  0
    2.0390    0.6240    0.4200 N   0  0  0  0  0  0  0  0  0  0  0  0
    1.0880    0.6060   -0.5220 C   0  0  0  0  0  0  0  0  0  0  0  0
    1.4220    0.5510   -1.8570 C   0  0  0  0  0  0  0  0  0  0  0  0
    2.7360    0.5160   -2.2200 C   0  0  0  0  0  0  0  0  0  0  0  0
    3.6940    0.5360   -1.2230 C   0  0  0  0  0  0  0  0  0  0  0  0
    5.0260    0.5020   -1.5400 C   0  0  0  0  0  0  0  0  0  0  0  0
    0.4620    0.5260   -2.9680 C   0  0  0  0  0  0  0  0  0  0  0  0
    0.9800    0.6970   -4.1080 O   0  0  0  0  0  0  0  0  0  0  0  0
   -0.9170    0.3350   -2.8640 O   0  0  0  0  0  0  0  0  0  0  0  0
   -1.5850   -0.3200   -1.8150 C   0  0  0  0  0  0  0  0  0  0  0  0
   -1.3740    0.2770   -0.4780 C   0  0  0  0  0  0  0  0  0  0  0  0
   -2.5610    0.4360    0.2910 N   0  0  0  0  0  0  0  0  0  0  0  0
   -3.4750    1.5500    0.1280 C   0  0  0  0  0  0  0  0  0  0  0  0
   -4.8300    0.9300    0.2380 C   0  0  0  0  0  0  0  0  0  0  0  0
   -4.6000   -0.3060    1.0410 C   0  0  2  0  0  0  0  0  0  0  0  0
   -5.1040   -1.5390    0.3100 C   0  0  0  0  0  0  0  0  0  0  0  0
   -6.6070   -1.3470    0.4250 C   0  0  0  0  0  0  0  0  0  0  0  0
   -6.8100   -0.7460    1.7880 C   0  0  0  0  0  0  0  0  0  0  0  0
   -5.4510   -0.2770    2.2660 C   0  0  0  0  0  0  0  0  0  0  0  0
   -3.1230   -0.3840    1.3370 C   0  0  0  0  0  0  0  0  0  0  0  0
   -0.2560    0.6520    0.0350 N   0  0  0  0  0  0  0  0  0  0  0  0
  1  2  1  0
  2  3  1  0
  3  4  1  0
  4  5  2  0
  4 13  1  0
  5  6  1  0
  6  7  2  0
  7  8  1  0
  7 12  1  0
  8  9  2  0
  9 10  1  0
  9 28  1  0
 10 11  2  0
 10 14  1  0
 11 12  1  0
 12 13  2  0
 14 15  2  0
 14 16  1  0
 16 17  1  0
 17 18  1  0
 18 19  1  0
 18 28  2  0
 19 20  1  0
 19 27  1  0
 20 21  1  0
 22 21  1  6
 22 23  1  0
 22 26  1  0
 22 27  1  0
 23 24  1  0
 24 25  1  0
 25 26  1  0
M  END
