
     RDKit          3D

 12 11  0  0  0  0  0  0  0  0999 V2000
    3.5300    0.7260    0.8300 C   0  0  0  0  0  0  0  0  0  0  0  0
    2.1080    0.6650    0.8030 O   0  0  0  0  0  0  0  0  0  0  0  0
    1.4420   -0.3820    0.1810 C   0  0  0  0  0  0  0  0  0  0  0  0
    2.1240   -1.2810   -0.3610 O   0  0  0  0  0  0  0  0  0  0  0  0
    0.0000   -0.4840    0.1300 C   0  0  0  0  0  0  0  0  0  0  0  0
   -0.8310    0.4820    0.7130 O   0  0  0  0  0  0  0  0  0  0  0  0
   -1.2360    1.5670   -0.0470 C   0  0  0  0  0  0  0  0  0  0  0  0
   -2.1130    2.5930    0.5600 C   0  0  0  0  0  0  0  0  0  0  0  0
   -0.8470    1.6490   -1.2280 O   0  0  0  0  0  0  0  0  0  0  0  0
   -0.5970   -1.4960   -0.4720 C   0  0  0  0  0  0  0  0  0  0  0  0
   -2.0790   -1.6210   -0.5370 C   0  0  0  0  0  0  0  0  0  0  0  0
    0.2260   -2.4890   -1.0720 N   0  0  0  0  0  0  0  0  0  0  0  0
  1  2  1  0
  2  3  1  0
  3  4  2  0
  3  5  1  0
  5  6  1  0
  5 10  2  3
  6  7  1  0
  7  8  1  0
  7  9  2  0
 10 11  1  0
 10 12  1  0
M  END
