
     RDKit          3D

 12 12  0  0  0  0  0  0  0  0999 V2000
   -1.8880   -1.3830    1.3380 C   0  0  0  0  0  0  0  0  0  0  0  0
   -1.6150   -0.8510   -0.0640 C   0  0  0  0  0  0  0  0  0  0  0  0
   -0.2340   -0.3870   -0.2160 C   0  0  0  0  0  0  0  0  0  0  0  0
    0.1830    0.8060   -0.5070 C   0  0  0  0  0  0  0  0  0  0  0  0
   -0.7010    1.9170   -0.7370 C   0  0  0  0  0  0  0  0  0  0  0  0
   -1.9400    1.8410   -0.6790 O   0  0  0  0  0  0  0  0  0  0  0  0
   -0.1970    3.2010   -1.0530 O   0  0  0  0  0  0  0  0  0  0  0  0
    1.6000    1.1080   -0.6230 N   0  0  0  0  0  0  0  0  0  0  0  0
    2.5300    0.0710   -0.4110 C   0  0  0  0  0  0  0  0  0  0  0  0
    3.7270    0.2800   -0.0480 O   0  0  0  0  0  0  0  0  0  0  0  0
    2.0340   -1.3190   -0.6380 C   0  0  0  0  0  0  0  0  0  0  0  0
    0.7700   -1.3740   -0.0170 O   0  0  0  0  0  0  0  0  0  0  0  0
  1  2  1  0
  2  3  1  0
  3  4  2  0
  3 12  1  0
  4  5  1  0
  4  8  1  0
  5  6  2  0
  5  7  1  0
  8  9  1  0
  9 10  2  0
  9 11  1  0
 11 12  1  0
M  END
