
     RDKit          3D

 12 12  0  0  0  0  0  0  0  0999 V2000
    3.3130   -1.3170    1.1250 O   0  0  0  0  0  0  0  0  0  0  0  0
    2.8670   -0.4630    0.3220 C   0  0  0  0  0  0  0  0  0  0  0  0
    3.7810    0.3050   -0.3730 O   0  0  0  0  0  0  0  0  0  0  0  0
    1.4230   -0.3440    0.1810 C   0  0  0  0  0  0  0  0  0  0  0  0
    0.5430   -1.1280    0.8920 C   0  0  0  0  0  0  0  0  0  0  0  0
   -0.8100   -0.9870    0.7320 C   0  0  0  0  0  0  0  0  0  0  0  0
   -1.3130   -0.0560   -0.1430 C   0  0  0  0  0  0  0  0  0  0  0  0
   -2.7810    0.1360   -0.3520 C   0  0  0  0  0  0  0  0  0  0  0  0
   -3.2810    1.0890    0.5370 O   0  0  0  0  0  0  0  0  0  0  0  0
   -0.4640    0.7120   -0.8390 N   0  0  0  0  0  0  0  0  0  0  0  0
    0.8490    0.5760   -0.6850 C   0  0  0  0  0  0  0  0  0  0  0  0
    1.6830    1.2930   -1.3340 O   0  0  0  0  0  0  0  0  0  0  0  0
  1  2  2  0
  2  3  1  0
  2  4  1  0
  4  5  2  0
  4 11  1  0
  5  6  1  0
  6  7  2  0
  7  8  1  0
  7 10  1  0
  8  9  1  0
 10 11  1  0
 11 12  2  0
M  END
