
     RDKit          3D

 12 11  0  0  0  0  0  0  0  0999 V2000
    4.2810   -0.2160    0.4560 C   0  0  0  0  0  0  0  0  0  0  0  0
    3.2200   -1.1290    0.3620 O   0  0  0  0  0  0  0  0  0  0  0  0
    1.9110   -0.6760    0.3060 C   0  0  0  0  0  0  0  0  0  0  0  0
    1.7120    0.5600    0.3410 O   0  0  0  0  0  0  0  0  0  0  0  0
    0.7490   -1.5950    0.2060 C   0  0  0  0  0  0  0  0  0  0  0  0
   -0.4370   -0.8710    0.1670 O   0  0  0  0  0  0  0  0  0  0  0  0
   -0.7770    0.0620   -0.7910 C   0  0  0  0  0  0  0  0  0  0  0  0
    0.0440    0.2900   -1.7150 O   0  0  0  0  0  0  0  0  0  0  0  0
   -2.0480    0.7610   -0.7330 C   0  0  0  0  0  0  0  0  0  0  0  0
   -2.3790    1.7570   -1.7790 C   0  0  0  0  0  0  0  0  0  0  0  0
   -2.9170    0.5320    0.2290 C   0  0  0  0  0  0  0  0  0  0  0  0
   -2.5840   -0.4240    1.2220 N   0  0  0  0  0  0  0  0  0  0  0  0
  1  2  1  0
  2  3  1  0
  3  4  2  0
  3  5  1  0
  5  6  1  0
  6  7  1  0
  7  8  2  0
  7  9  1  0
  9 10  1  0
  9 11  2  3
 11 12  1  0
M  END
