
     RDKit          3D

 12 12  0  0  0  0  0  0  0  0999 V2000
    2.8540   -0.3550   -0.0060 C   0  0  0  0  0  0  0  0  0  0  0  0
    1.3650   -0.2930    0.0250 C   0  0  0  0  0  0  0  0  0  0  0  0
    0.6690   -1.4400    0.2530 N   0  0  0  0  0  0  0  0  0  0  0  0
   -0.6800   -1.3610    0.2760 C   0  0  0  0  0  0  0  0  0  0  0  0
   -1.2860   -2.4470    0.4910 O   0  0  0  0  0  0  0  0  0  0  0  0
   -1.3370   -0.1670    0.0780 C   0  0  0  0  0  0  0  0  0  0  0  0
   -2.7740   -0.1420    0.1140 C   0  0  0  0  0  0  0  0  0  0  0  0
   -3.4750   -1.1840    0.3230 O   0  0  0  0  0  0  0  0  0  0  0  0
   -3.4350    1.0510   -0.0840 O   0  0  0  0  0  0  0  0  0  0  0  0
   -0.6350    0.9910   -0.1520 C   0  0  0  0  0  0  0  0  0  0  0  0
    0.7540    0.9230   -0.1790 C   0  0  0  0  0  0  0  0  0  0  0  0
    1.5580    2.0310   -0.4030 O   0  0  0  0  0  0  0  0  0  0  0  0
  1  2  1  0
  2  3  1  0
  2 11  2  0
  3  4  1  0
  4  5  2  0
  4  6  1  0
  6  7  1  0
  6 10  2  0
  7  8  2  0
  7  9  1  0
 10 11  1  0
 11 12  1  0
M  END
