
     RDKit          3D

 12 12  0  0  0  0  0  0  0  0999 V2000
    4.4120   -0.3050    0.4030 N   0  0  0  0  0  0  0  0  0  0  0  0
    2.9790   -0.3700    0.4680 C   0  0  0  0  0  0  0  0  0  0  0  0
    2.3780   -1.4360    0.2700 O   0  0  0  0  0  0  0  0  0  0  0  0
    2.2880    0.9160    0.7860 C   0  0  0  0  0  0  0  0  0  0  0  0
    0.8940    0.7690    0.8320 O   0  0  0  0  0  0  0  0  0  0  0  0
    0.1490    0.3350   -0.2630 C   0  0  0  0  0  0  0  0  0  0  0  0
    0.7830    0.0780   -1.3070 O   0  0  0  0  0  0  0  0  0  0  0  0
   -1.3010    0.1870   -0.2010 C   0  0  0  0  0  0  0  0  0  0  0  0
   -2.0580   -0.2190   -1.2060 C   0  0  0  0  0  0  0  0  0  0  0  0
   -3.4710   -0.2370   -0.7470 C   0  0  0  0  0  0  0  0  0  0  0  0
   -3.2940   -0.3350    0.7520 C   0  0  0  0  0  0  0  0  0  0  0  0
   -2.1020    0.4500    0.9180 O   0  0  0  0  0  0  0  0  0  0  0  0
  1  2  1  0
  2  3  2  0
  2  4  1  0
  4  5  1  0
  5  6  1  0
  6  7  2  0
  6  8  1  0
  8  9  2  0
  8 12  1  0
  9 10  1  0
 10 11  1  0
 11 12  1  0
M  END
