
     RDKit          3D

 15 15  0  0  0  0  0  0  0  0999 V2000
   -2.1700   -1.4300   -1.4430 C   0  0  0  0  0  0  0  0  0  0  0  0
   -1.5000   -1.0910   -0.1460 C   0  0  2  0  0  0  0  0  0  0  0  0
   -0.9580   -2.2620    0.3740 O   0  0  0  0  0  0  0  0  0  0  0  0
   -2.5570   -0.4960    0.7700 C   0  0  0  0  0  0  0  0  0  0  0  0
   -2.0550    0.8490    1.2010 C   0  0  2  0  0  0  0  0  0  0  0  0
   -2.5990    1.9390    0.4430 N   0  0  0  0  0  0  0  0  0  0  0  0
   -0.5610    0.7100    1.0320 C   0  0  0  0  0  0  0  0  0  0  0  0
   -0.4120   -0.0690   -0.2800 C   0  0  2  0  0  0  0  0  0  0  0  0
   -0.5940    0.7490   -1.3710 O   0  0  0  0  0  0  0  0  0  0  0  0
    0.9380   -0.7250   -0.2400 C   0  0  0  0  0  0  0  0  0  0  0  0
    1.9970    0.2350   -0.1960 N   0  0  0  0  0  0  0  0  0  0  0  0
    3.3500   -0.1840   -0.1550 C   0  0  0  0  0  0  0  0  0  0  0  0
    3.5600   -1.4410   -0.1590 O   0  0  0  0  0  0  0  0  0  0  0  0
    4.4810    0.7920   -0.1080 C   0  0  0  0  0  0  0  0  0  0  0  0
    5.6570    0.0740   -0.0750 O   0  0  0  0  0  0  0  0  0  0  0  0
  2  1  1  6
  2  3  1  0
  2  4  1  0
  2  8  1  0
  4  5  1  0
  5  6  1  6
  5  7  1  0
  7  8  1  0
  8  9  1  6
  8 10  1  0
 10 11  1  0
 11 12  1  0
 12 13  2  0
 12 14  1  0
 14 15  1  0
M  CHG  1   6   1
M  END
