
     RDKit          3D

 15 15  0  0  0  0  0  0  0  0999 V2000
   -0.0870   -1.6000   -1.1350 C   0  0  0  0  0  0  0  0  0  0  0  0
   -0.5250   -0.3730   -0.3560 C   0  0  1  0  0  0  0  0  0  0  0  0
   -1.7700    0.0960   -1.0370 C   0  0  0  0  0  0  0  0  0  0  0  0
   -2.8960   -0.8030   -1.0770 N   0  0  0  0  0  0  0  0  0  0  0  0
   -1.9440    1.1900   -1.5790 O   0  0  0  0  0  0  0  0  0  0  0  0
   -0.9620   -0.7320    1.0440 C   0  0  2  0  0  0  0  0  0  0  0  0
   -2.2490   -0.2080    1.3980 N   0  0  0  0  0  0  0  0  0  0  0  0
   -0.0240   -0.2200    1.9210 O   0  0  0  0  0  0  0  0  0  0  0  0
    0.4430    0.9610    1.3430 C   0  0  0  0  0  0  0  0  0  0  0  0
    0.5170    0.6330   -0.1570 C   0  0  2  0  0  0  0  0  0  0  0  0
    0.2860    1.9840   -0.8430 C   0  0  0  0  0  0  0  0  0  0  0  0
    1.3960    2.8190   -0.5420 O   0  0  0  0  0  0  0  0  0  0  0  0
    1.9240    0.2800   -0.4630 C   0  0  0  0  0  0  0  0  0  0  0  0
    2.5680   -0.8350    0.2640 C   0  0  0  0  0  0  0  0  0  0  0  0
    2.6210   -0.6500    1.6440 O   0  0  0  0  0  0  0  0  0  0  0  0
  2  1  1  6
  2  3  1  0
  2  6  1  0
  2 10  1  0
  3  4  1  0
  3  5  2  0
  6  7  1  1
  6  8  1  0
  8  9  1  0
  9 10  1  0
 10 11  1  6
 10 13  1  0
 11 12  1  0
 13 14  1  0
 14 15  1  0
M  CHG  1   7   1
M  END
