
     RDKit          3D

 15 15  0  0  0  0  0  0  0  0999 V2000
   -4.2820   -0.3210    0.6390 N   0  0  0  0  0  0  0  0  0  0  0  0
   -3.7830    0.5780   -0.3780 C   0  0  2  0  0  0  0  0  0  0  0  0
   -2.8630   -0.1200   -1.3370 C   0  0  0  0  0  0  0  0  0  0  0  0
   -1.5750   -0.0960   -1.0290 C   0  0  0  0  0  0  0  0  0  0  0  0
   -1.1850    0.6130    0.2200 C   0  0  1  0  0  0  0  0  0  0  0  0
    0.2800    0.8510    0.2510 C   0  0  0  0  0  0  0  0  0  0  0  0
    0.7180    2.0080    0.3700 O   0  0  0  0  0  0  0  0  0  0  0  0
    1.1960   -0.2310    0.1450 N   0  0  0  0  0  0  0  0  0  0  0  0
    2.6050    0.0670    0.1810 C   0  0  0  0  0  0  0  0  0  0  0  0
    3.4120   -1.1920    0.0570 C   0  0  1  0  0  0  0  0  0  0  0  0
    3.1360   -1.8380   -1.1360 O   0  0  0  0  0  0  0  0  0  0  0  0
    4.8870   -0.8470    0.1280 C   0  0  0  0  0  0  0  0  0  0  0  0
    5.1680   -0.1980    1.3250 O   0  0  0  0  0  0  0  0  0  0  0  0
   -1.8260    1.8230    0.3410 O   0  0  0  0  0  0  0  0  0  0  0  0
   -3.1880    1.7940    0.2340 C   0  0  0  0  0  0  0  0  0  0  0  0
  2  1  1  1
  2  3  1  0
  2 15  1  0
  3  4  2  0
  4  5  1  0
  5  6  1  6
  5 14  1  0
  6  7  2  0
  6  8  1  0
  8  9  1  0
  9 10  1  0
 10 11  1  6
 10 12  1  0
 12 13  1  0
 14 15  1  0
M  CHG  1   1   1
M  END
