
     RDKit          3D

 15 15  0  0  0  0  0  0  0  0999 V2000
    3.9610    0.8520    1.8650 N   0  0  0  0  0  0  0  0  0  0  0  0
    3.2650    0.7540    0.5950 C   0  0  0  0  0  0  0  0  0  0  0  0
    3.5570    1.6610   -0.2630 N   0  0  0  0  0  0  0  0  0  0  0  0
    2.3000   -0.3510    0.3800 C   0  0  0  0  0  0  0  0  0  0  0  0
    1.6260   -0.2540   -0.9450 C   0  0  2  0  0  0  0  0  0  0  0  0
    0.9360    0.9260   -1.0330 O   0  0  0  0  0  0  0  0  0  0  0  0
    0.8330   -1.4700   -1.3150 C   0  0  0  0  0  0  0  0  0  0  0  0
   -0.2770   -1.7420   -0.6090 O   0  0  0  0  0  0  0  0  0  0  0  0
   -1.3210   -0.8870   -0.5890 C   0  0  1  0  0  0  0  0  0  0  0  0
   -2.6320   -1.4750   -1.0630 C   0  0  0  0  0  0  0  0  0  0  0  0
   -3.5030   -0.4050   -1.2720 O   0  0  0  0  0  0  0  0  0  0  0  0
   -3.9000    0.1110   -0.0290 C   0  0  0  0  0  0  0  0  0  0  0  0
   -2.6780    0.7620    0.5730 C   0  0  2  0  0  0  0  0  0  0  0  0
   -2.1460    1.6400   -0.3560 O   0  0  0  0  0  0  0  0  0  0  0  0
   -1.6380   -0.3410    0.8160 C   0  0  0  0  0  0  0  0  0  0  0  0
  1  2  1  0
  2  3  2  0
  2  4  1  0
  4  5  1  0
  5  6  1  1
  5  7  1  0
  7  8  1  0
  9  8  1  1
  9 10  1  0
  9 15  1  0
 10 11  1  0
 11 12  1  0
 12 13  1  0
 13 14  1  6
 13 15  1  0
M  CHG  1   3   1
M  END
