
     RDKit          3D

 14 14  0  0  0  0  0  0  0  0999 V2000
   -1.2380   -1.7630   -0.5510 C   0  0  0  0  0  0  0  0  0  0  0  0
   -0.6340   -0.4010   -0.2430 C   0  0  1  0  0  0  0  0  0  0  0  0
    0.8430   -0.6310   -0.0010 C   0  0  2  0  0  0  0  0  0  0  0  0
    0.9590   -1.5080    1.0810 O   0  0  0  0  0  0  0  0  0  0  0  0
    1.5610    0.6240    0.3590 C   0  0  0  0  0  0  0  0  0  0  0  0
    2.9890    0.3540    0.5770 C   0  0  0  0  0  0  0  0  0  0  0  0
    3.8040    1.4600    1.0100 N   0  0  0  0  0  0  0  0  0  0  0  0
    3.5720   -0.7760    0.4070 N   0  0  0  0  0  0  0  0  0  0  0  0
   -0.8930    0.5370   -1.3850 C   0  0  0  0  0  0  0  0  0  0  0  0
   -1.3290    1.7670   -0.9020 O   0  0  0  0  0  0  0  0  0  0  0  0
   -2.6340    1.6480   -0.4450 C   0  0  0  0  0  0  0  0  0  0  0  0
   -2.7670    0.4860    0.5120 C   0  0  0  0  0  0  0  0  0  0  0  0
   -1.3470    0.1310    0.9700 C   0  0  1  0  0  0  0  0  0  0  0  0
   -1.4360   -0.8570    1.9620 O   0  0  0  0  0  0  0  0  0  0  0  0
  2  1  1  6
  2  3  1  0
  2  9  1  0
  2 13  1  0
  3  4  1  1
  3  5  1  0
  5  6  1  0
  6  7  1  0
  6  8  2  0
  9 10  1  0
 10 11  1  0
 11 12  1  0
 12 13  1  0
 13 14  1  1
M  CHG  1   8   1
M  END
