
     RDKit          3D

 14 14  0  0  0  0  0  0  0  0999 V2000
    0.6130    0.1820    1.5950 N   0  0  0  0  0  0  0  0  0  0  0  0
    0.3610   -0.7810    0.5530 C   0  0  1  0  0  0  0  0  0  0  0  0
   -1.1010   -0.9850    0.4820 C   0  0  0  0  0  0  0  0  0  0  0  0
   -1.6260   -0.2400   -0.4470 C   0  0  0  0  0  0  0  0  0  0  0  0
   -3.0600   -0.1100   -0.8800 C   0  0  0  0  0  0  0  0  0  0  0  0
   -3.9550   -1.0130   -0.0600 C   0  0  0  0  0  0  0  0  0  0  0  0
   -3.9010   -0.7110    1.2920 O   0  0  0  0  0  0  0  0  0  0  0  0
   -0.5460    0.5350   -1.1160 C   0  0  1  0  0  0  0  0  0  0  0  0
   -0.4270    1.8190   -0.6080 O   0  0  0  0  0  0  0  0  0  0  0  0
    0.6920   -0.3100   -0.8120 C   0  0  1  0  0  0  0  0  0  0  0  0
    1.9010    0.4840   -1.0370 C   0  0  0  0  0  0  0  0  0  0  0  0
    3.2100   -0.1410   -0.7060 C   0  0  0  0  0  0  0  0  0  0  0  0
    3.2920   -0.4870    0.6800 N   0  0  0  0  0  0  0  0  0  0  0  0
    4.4720   -1.0850    0.9940 O   0  0  0  0  0  0  0  0  0  0  0  0
  2  1  1  1
  2  3  1  0
  2 10  1  0
  3  4  2  0
  4  5  1  0
  4  8  1  0
  5  6  1  0
  6  7  1  0
  8  9  1  1
  8 10  1  0
 10 11  1  1
 11 12  1  0
 12 13  1  0
 13 14  1  0
M  CHG  1   1   1
M  END
