
     RDKit          3D

 14 14  0  0  0  0  0  0  0  0999 V2000
    3.7180   -1.6030    0.5780 C   0  0  0  0  0  0  0  0  0  0  0  0
    2.7750   -1.4160   -0.4550 O   0  0  0  0  0  0  0  0  0  0  0  0
    1.7400   -0.5020   -0.3750 C   0  0  0  0  0  0  0  0  0  0  0  0
    0.4610   -0.8840   -0.5080 C   0  0  0  0  0  0  0  0  0  0  0  0
   -0.6840    0.0100   -0.4320 C   0  0  1  0  0  0  0  0  0  0  0  0
   -1.6530   -0.4820    0.6400 C   0  0  1  0  0  0  0  0  0  0  0  0
   -2.7900    0.4550    0.7120 N   0  0  0  0  0  0  0  0  0  0  0  0
   -2.2760   -1.7960    0.2680 C   0  0  0  0  0  0  0  0  0  0  0  0
   -1.3910   -2.8350    0.1870 O   0  0  0  0  0  0  0  0  0  0  0  0
   -0.3400    1.4260   -0.2250 C   0  0  2  0  0  0  0  0  0  0  0  0
   -0.8240    2.2770   -1.3380 N   0  0  0  0  0  0  0  0  0  0  0  0
    1.0790    1.7450   -0.0850 C   0  0  0  0  0  0  0  0  0  0  0  0
    2.0530    0.8830   -0.1510 C   0  0  0  0  0  0  0  0  0  0  0  0
    3.3750    1.2960   -0.0070 O   0  0  0  0  0  0  0  0  0  0  0  0
  1  2  1  0
  2  3  1  0
  3  4  2  0
  3 13  1  0
  5  4  1  1
  5  6  1  0
  5 10  1  0
  6  7  1  6
  6  8  1  0
  8  9  1  0
 10 11  1  6
 10 12  1  0
 12 13  2  0
 13 14  1  0
M  CHG  2   7   1  11   1
M  END
