
     RDKit          3D

 14 14  0  0  0  0  0  0  0  0999 V2000
   -1.0520   -1.8580   -0.3830 C   0  0  0  0  0  0  0  0  0  0  0  0
   -0.5900   -0.4300   -0.4130 C   0  0  1  0  0  0  0  0  0  0  0  0
   -0.7920    0.0480   -1.7250 O   0  0  0  0  0  0  0  0  0  0  0  0
   -1.2980    0.4880    0.5200 C   0  0  0  0  0  0  0  0  0  0  0  0
   -2.7350    0.6440    0.3560 C   0  0  0  0  0  0  0  0  0  0  0  0
   -3.4280    1.4870    1.2680 N   0  0  0  0  0  0  0  0  0  0  0  0
   -3.3990    0.0710   -0.5570 N   0  0  0  0  0  0  0  0  0  0  0  0
    0.9090   -0.3350   -0.2030 C   0  0  1  0  0  0  0  0  0  0  0  0
    1.4690   -1.1480   -1.2040 O   0  0  0  0  0  0  0  0  0  0  0  0
    1.3520    1.0780   -0.3930 C   0  0  0  0  0  0  0  0  0  0  0  0
    2.8790    1.1220   -0.4840 C   0  0  0  0  0  0  0  0  0  0  0  0
    3.4330   -0.0350    0.3180 C   0  0  0  0  0  0  0  0  0  0  0  0
    2.6410   -0.3580    1.4050 O   0  0  0  0  0  0  0  0  0  0  0  0
    1.3920   -0.8530    1.1020 C   0  0  0  0  0  0  0  0  0  0  0  0
  2  1  1  6
  2  3  1  0
  2  4  1  0
  2  8  1  0
  4  5  1  0
  5  6  1  0
  5  7  2  0
  8  9  1  6
  8 10  1  0
  8 14  1  0
 10 11  1  0
 11 12  1  0
 12 13  1  0
 13 14  1  0
M  CHG  1   7   1
M  END
