
     RDKit          3D

 15 15  0  0  0  0  0  0  0  0999 V2000
   -3.3520   -0.2420    0.5300 N   0  0  0  0  0  0  0  0  0  0  0  0
   -2.2350    0.6260    0.2100 C   0  0  2  0  0  0  0  0  0  0  0  0
   -2.7780    1.9030   -0.4460 C   0  0  0  0  0  0  0  0  0  0  0  0
   -1.7380    2.7680   -0.7700 O   0  0  0  0  0  0  0  0  0  0  0  0
   -1.3650   -0.0910   -0.6790 N   0  0  0  0  0  0  0  0  0  0  0  0
   -0.3000   -0.6880    0.0690 C   0  0  1  0  0  0  0  0  0  0  0  0
   -0.8500   -1.4560    1.2460 C   0  0  0  0  0  0  0  0  0  0  0  0
   -1.6900   -2.4420    0.7270 O   0  0  0  0  0  0  0  0  0  0  0  0
    0.4780   -1.7130   -0.7600 C   0  0  0  0  0  0  0  0  0  0  0  0
    1.8480   -1.6280   -0.0860 C   0  0  0  0  0  0  0  0  0  0  0  0
    2.0580   -0.1340   -0.0550 C   0  0  2  0  0  0  0  0  0  0  0  0
    3.0830    0.2600    0.7630 O   0  0  0  0  0  0  0  0  0  0  0  0
    4.0820    0.9580    0.0540 C   0  0  0  0  0  0  0  0  0  0  0  0
    3.5600    2.1090   -0.5480 O   0  0  0  0  0  0  0  0  0  0  0  0
    0.6960    0.3490    0.4330 C   0  0  0  0  0  0  0  0  0  0  0  0
  2  1  1  6
  2  3  1  0
  2  5  1  0
  3  4  1  0
  5  6  1  0
  6  7  1  1
  6  9  1  0
  6 15  1  0
  7  8  1  0
  9 10  1  0
 10 11  1  0
 11 12  1  1
 11 15  1  0
 12 13  1  0
 13 14  1  0
M  CHG  1   5   1
M  END
