
     RDKit          3D

 25 27  0  0  0  0  0  0  0  0999 V2000
    4.1210    1.3340   -1.5270 O   0  0  0  0  0  0  0  0  0  0  0  0
    4.6380    1.2280   -0.2590 C   0  0  0  0  0  0  0  0  0  0  0  0
    3.9640    0.1720    0.5940 C   0  0  1  0  0  0  0  0  0  0  0  0
    2.6350    0.3830    0.7760 O   0  0  0  0  0  0  0  0  0  0  0  0
    1.7880   -0.1560   -0.1420 C   0  0  2  0  0  0  0  0  0  0  0  0
    0.4830   -0.0860    0.3870 O   0  0  0  0  0  0  0  0  0  0  0  0
   -0.3440    0.6250   -0.4420 C   0  0  1  0  0  0  0  0  0  0  0  0
   -1.5060   -0.1980   -0.9050 C   0  0  0  0  0  0  0  0  0  0  0  0
   -2.7170    0.5240   -0.5630 N   0  0  2  0  0  0  0  0  0  0  0  0
   -2.3430    1.2760    0.5970 C   0  0  2  0  0  0  0  0  0  0  0  0
   -0.9910    1.8080    0.2420 C   0  0  2  0  0  0  0  0  0  0  0  0
   -1.1640    2.8080   -0.7130 O   0  0  0  0  0  0  0  0  0  0  0  0
   -2.3160    0.2420    1.6900 C   0  0  1  0  0  0  0  0  0  0  0  0
   -2.5470    0.7970    2.9480 O   0  0  0  0  0  0  0  0  0  0  0  0
   -3.5550   -0.5910    1.3380 C   0  0  2  0  0  0  0  0  0  0  0  0
   -3.3280   -1.9410    1.5720 O   0  0  0  0  0  0  0  0  0  0  0  0
   -3.7740   -0.3560   -0.1290 C   0  0  1  0  0  0  0  0  0  0  0  0
   -5.1090    0.2990   -0.4120 C   0  0  0  0  0  0  0  0  0  0  0  0
   -5.2380    1.5130    0.2600 O   0  0  0  0  0  0  0  0  0  0  0  0
    2.0430   -1.6280   -0.4080 C   0  0  2  0  0  0  0  0  0  0  0  0
    1.9410   -2.2890    0.8160 O   0  0  0  0  0  0  0  0  0  0  0  0
    3.4460   -1.7840   -0.8970 C   0  0  1  0  0  0  0  0  0  0  0  0
    3.6870   -1.1880   -2.1210 O   0  0  0  0  0  0  0  0  0  0  0  0
    4.3570   -1.2190    0.1610 C   0  0  2  0  0  0  0  0  0  0  0  0
    4.2980   -2.0310    1.3150 O   0  0  0  0  0  0  0  0  0  0  0  0
  1  2  1  0
  3  2  1  6
  3  4  1  0
  3 24  1  0
  4  5  1  0
  5  6  1  1
  5 20  1  0
  7  6  1  1
  7  8  1  0
  7 11  1  0
  9  8  1  1
  9 10  1  0
  9 17  1  0
 10 11  1  6
 10 13  1  0
 11 12  1  6
 13 14  1  1
 13 15  1  0
 15 16  1  6
 15 17  1  0
 17 18  1  1
 18 19  1  0
 20 21  1  1
 20 22  1  0
 22 23  1  6
 22 24  1  0
 24 25  1  1
M  CHG  1   9   1
M  END
