
     RDKit          3D

 16 17  0  0  0  0  0  0  0  0999 V2000
   -5.2950   -0.2990   -0.3630 C   0  0  0  0  0  0  0  0  0  0  0  0
   -4.8890   -0.0210    1.0850 C   0  0  0  0  0  0  0  0  0  0  0  0
   -3.5680    0.4750    1.0630 O   0  0  0  0  0  0  0  0  0  0  0  0
   -2.5520   -0.3080    0.5360 C   0  0  0  0  0  0  0  0  0  0  0  0
   -2.8610   -1.4440    0.0940 O   0  0  0  0  0  0  0  0  0  0  0  0
   -1.1730    0.1540    0.4890 C   0  0  0  0  0  0  0  0  0  0  0  0
   -0.7600    1.3830    0.9530 C   0  0  0  0  0  0  0  0  0  0  0  0
    0.5750    1.4170    0.7260 N   0  0  0  0  0  0  0  0  0  0  0  0
    0.9840    0.3180    0.1700 N   0  0  0  0  0  0  0  0  0  0  0  0
    2.3490    0.0340   -0.2030 C   0  0  0  0  0  0  0  0  0  0  0  0
    3.2970    0.9140    0.0110 C   0  0  0  0  0  0  0  0  0  0  0  0
    4.7000    0.7390   -0.3200 C   0  0  0  0  0  0  0  0  0  0  0  0
    4.9600   -0.5320   -0.9240 N   0  0  0  0  0  0  0  0  0  0  0  0
    3.9380   -1.4680   -1.1490 C   0  0  0  0  0  0  0  0  0  0  0  0
    2.6810   -1.2410   -0.8220 C   0  0  0  0  0  0  0  0  0  0  0  0
   -0.0800   -0.4500    0.0260 N   0  0  0  0  0  0  0  0  0  0  0  0
  1  2  1  0
  2  3  1  0
  3  4  1  0
  4  5  2  0
  4  6  1  0
  6  7  1  0
  6 16  2  0
  7  8  2  0
  8  9  1  0
  9 10  1  0
  9 16  1  0
 10 11  2  0
 10 15  1  0
 11 12  1  0
 12 13  1  0
 13 14  1  0
 14 15  2  0
M  END
