
     RDKit          3D

 16 17  0  0  0  0  0  0  0  0999 V2000
    5.7900   -0.6490    0.8540 C   0  0  0  0  0  0  0  0  0  0  0  0
    4.3040   -0.4620    0.6210 C   0  0  0  0  0  0  0  0  0  0  0  0
    3.7320    0.1010   -0.4260 N   0  0  0  0  0  0  0  0  0  0  0  0
    2.3580    0.0690   -0.2420 C   0  0  0  0  0  0  0  0  0  0  0  0
    1.4180    0.6050   -1.2030 C   0  0  0  0  0  0  0  0  0  0  0  0
    0.1210    0.5950   -1.0700 C   0  0  0  0  0  0  0  0  0  0  0  0
   -0.5460    0.0460    0.0580 C   0  0  0  0  0  0  0  0  0  0  0  0
   -1.8530    0.0170    0.2330 C   0  0  0  0  0  0  0  0  0  0  0  0
   -2.4590   -0.5730    1.4320 N   0  0  0  0  0  0  0  0  0  0  0  0
   -3.7900   -0.9780    1.0470 C   0  0  0  0  0  0  0  0  0  0  0  0
   -4.1630    0.1670    0.1630 C   0  0  0  0  0  0  0  0  0  0  0  0
   -5.2720    0.7440    0.0460 O   0  0  0  0  0  0  0  0  0  0  0  0
   -2.9320    0.4770   -0.5510 N   0  0  0  0  0  0  0  0  0  0  0  0
   -2.9290    1.1440   -1.8240 C   0  0  0  0  0  0  0  0  0  0  0  0
    2.1980   -0.5280    0.9350 N   0  0  0  0  0  0  0  0  0  0  0  0
    3.3490   -0.8350    1.4310 O   0  0  0  0  0  0  0  0  0  0  0  0
  1  2  1  0
  2  3  2  0
  2 16  1  0
  3  4  1  0
  4  5  1  0
  4 15  2  0
  5  6  2  3
  6  7  1  0
  7  8  2  3
  8  9  1  0
  8 13  1  0
  9 10  1  0
 10 11  1  0
 11 12  2  0
 11 13  1  0
 13 14  1  0
 15 16  1  0
M  END
