
     RDKit          3D

 16 17  0  0  0  0  0  0  0  0999 V2000
    3.2050    0.7780    1.6340 O   0  0  0  0  0  0  0  0  0  0  0  0
    4.0100    0.8940    0.7390 C   0  0  0  0  0  0  0  0  0  0  0  0
    4.4120   -0.2980   -0.0320 C   0  0  0  0  0  0  0  0  0  0  0  0
    3.1570   -0.9290   -0.5920 C   0  0  0  0  0  0  0  0  0  0  0  0
    2.5210    0.1000   -1.4700 C   0  0  0  0  0  0  0  0  0  0  0  0
    2.9740    1.2490   -1.5900 O   0  0  0  0  0  0  0  0  0  0  0  0
    1.3600   -0.2740   -2.1800 N   0  0  0  0  0  0  0  0  0  0  0  0
    0.2130   -0.1660   -1.5520 C   0  0  0  0  0  0  0  0  0  0  0  0
   -0.9980   -0.4660   -2.0420 N   0  0  0  0  0  0  0  0  0  0  0  0
   -1.8940   -0.2120   -1.0750 C   0  0  0  0  0  0  0  0  0  0  0  0
   -1.2480    0.2360   -0.0070 N   0  0  0  0  0  0  0  0  0  0  0  0
    0.0340    0.2640   -0.2960 N   0  0  0  0  0  0  0  0  0  0  0  0
   -1.9190    0.6100    1.2410 C   0  0  0  0  0  0  0  0  0  0  0  0
   -3.1770   -0.2710    1.2700 C   0  0  0  0  0  0  0  0  0  0  0  0
   -4.0030    0.2030    0.0860 C   0  0  0  0  0  0  0  0  0  0  0  0
   -3.3680   -0.3900   -1.1590 C   0  0  0  0  0  0  0  0  0  0  0  0
  1  2  2  0
  2  3  1  0
  3  4  1  0
  4  5  1  0
  5  6  2  0
  5  7  1  0
  7  8  2  3
  8  9  1  0
  8 12  1  0
  9 10  2  0
 10 11  1  0
 10 16  1  0
 11 12  1  0
 11 13  1  0
 13 14  1  0
 14 15  1  0
 15 16  1  0
M  END
