
     RDKit          3D

 15 16  0  0  0  0  0  0  0  0999 V2000
   -5.0210    0.4480    0.2060 C   0  0  0  0  0  0  0  0  0  0  0  0
   -4.0680   -0.6300    1.3260 S   0  0  0  0  0  0  0  0  0  0  0  0
   -2.3820   -0.6370    0.7440 C   0  0  0  0  0  0  0  0  0  0  0  0
   -1.7700   -1.4610   -0.1480 C   0  0  0  0  0  0  0  0  0  0  0  0
   -0.4870   -1.2730   -0.4300 C   0  0  0  0  0  0  0  0  0  0  0  0
    0.1730   -0.2460    0.1950 C   0  0  0  0  0  0  0  0  0  0  0  0
    1.5740    0.1990    0.0860 C   0  0  0  0  0  0  0  0  0  0  0  0
    2.0340    1.2350    0.7880 N   0  0  0  0  0  0  0  0  0  0  0  0
    3.2980    1.6590    0.7090 C   0  0  0  0  0  0  0  0  0  0  0  0
    3.7670    2.6160    1.3420 O   0  0  0  0  0  0  0  0  0  0  0  0
    4.1120    0.9800   -0.1330 N   0  0  0  0  0  0  0  0  0  0  0  0
    3.6500   -0.0640   -0.8410 C   0  0  0  0  0  0  0  0  0  0  0  0
    4.4240   -0.6770   -1.6130 O   0  0  0  0  0  0  0  0  0  0  0  0
    2.3660   -0.4680   -0.7370 N   0  0  0  0  0  0  0  0  0  0  0  0
   -1.0910    0.4690    1.2200 S   0  0  0  0  0  0  0  0  0  0  0  0
  1  2  1  0
  2  3  1  0
  3  4  2  0
  3 15  1  0
  4  5  1  0
  5  6  2  0
  6  7  1  0
  6 15  1  0
  7  8  2  0
  7 14  1  0
  8  9  1  0
  9 10  2  0
  9 11  1  0
 11 12  1  0
 12 13  2  0
 12 14  1  0
M  END
