
     RDKit          3D

 16 17  0  0  0  0  0  0  0  0999 V2000
   -1.5800   -1.4250   -1.4810 C   0  0  0  0  0  0  0  0  0  0  0  0
   -2.1970   -0.6780   -0.5900 C   0  0  0  0  0  0  0  0  0  0  0  0
   -3.5800   -0.5710   -0.6210 O   0  0  0  0  0  0  0  0  0  0  0  0
   -4.2790    0.1960    0.2900 C   0  0  0  0  0  0  0  0  0  0  0  0
   -3.5910    0.8440    1.2190 C   0  0  0  0  0  0  0  0  0  0  0  0
   -2.1400    0.7750    1.3070 C   0  0  0  0  0  0  0  0  0  0  0  0
   -1.4750    0.0400    0.4320 C   0  0  0  0  0  0  0  0  0  0  0  0
   -0.0670   -0.0520    0.4940 N   0  0  0  0  0  0  0  0  0  0  0  0
    0.8190    0.4140   -0.5000 C   0  0  0  0  0  0  0  0  0  0  0  0
    0.3620    0.9610   -1.5230 O   0  0  0  0  0  0  0  0  0  0  0  0
    2.2450    0.2550   -0.3260 C   0  0  0  0  0  0  0  0  0  0  0  0
    3.1510    0.6750   -1.2310 N   0  0  0  0  0  0  0  0  0  0  0  0
    4.4720    0.5360   -1.0860 C   0  0  0  0  0  0  0  0  0  0  0  0
    4.9300   -0.0540    0.0210 N   0  0  0  0  0  0  0  0  0  0  0  0
    4.0870   -0.4920    0.9560 C   0  0  0  0  0  0  0  0  0  0  0  0
    2.7610   -0.3380    0.7830 N   0  0  0  0  0  0  0  0  0  0  0  0
  1  2  2  0
  2  3  1  0
  2  7  1  0
  3  4  1  0
  4  5  2  0
  5  6  1  0
  6  7  2  0
  7  8  1  0
  8  9  1  0
  9 10  2  0
  9 11  1  0
 11 12  2  0
 11 16  1  0
 12 13  1  0
 13 14  2  0
 14 15  1  0
 15 16  2  0
M  END
