
     RDKit          3D

 16 17  0  0  0  0  0  0  0  0999 V2000
   -2.0330    1.7920   -0.6800 O   0  0  0  0  0  0  0  0  0  0  0  0
   -1.8550    0.6900    0.3420 S   0  0  1  0  0  0  0  0  0  0  0  0
   -2.2040    1.3000    1.6740 O   0  0  0  0  0  0  0  0  0  0  0  0
   -3.0380   -0.5660   -0.0390 C   0  0  0  0  0  0  0  0  0  0  0  0
   -4.4300    0.0290   -0.0080 C   0  0  0  0  0  0  0  0  0  0  0  0
   -5.6770   -1.1510   -0.3760 Cl  0  0  0  0  0  0  0  0  0  0  0  0
   -0.2640    0.2020    0.3500 N   0  0  0  0  0  0  0  0  0  0  0  0
    0.1760   -0.7700    1.2350 C   0  0  0  0  0  0  0  0  0  0  0  0
    1.4170   -1.4970    0.7400 C   0  0  0  0  0  0  0  0  0  0  0  0
    2.4700   -0.5250    0.3350 C   0  0  0  0  0  0  0  0  0  0  0  0
    3.7860   -0.3910    0.4450 N   0  0  0  0  0  0  0  0  0  0  0  0
    4.1850    0.7560   -0.1530 C   0  0  0  0  0  0  0  0  0  0  0  0
    5.6960    1.3630   -0.2840 S   0  0  0  0  0  0  0  0  0  0  0  0
    3.0820    1.3660   -0.6570 N   0  0  0  0  0  0  0  0  0  0  0  0
    2.0230    0.5900   -0.3640 C   0  0  0  0  0  0  0  0  0  0  0  0
    0.5920    0.7060   -0.6340 C   0  0  0  0  0  0  0  0  0  0  0  0
  1  2  2  0
  2  3  2  0
  2  4  1  6
  2  7  1  0
  4  5  1  0
  5  6  1  0
  7  8  1  0
  7 16  1  0
  8  9  1  0
  9 10  1  0
 10 11  1  0
 10 15  2  0
 11 12  1  0
 12 13  2  0
 12 14  1  0
 14 15  1  0
 15 16  1  0
M  END
