
     RDKit          3D

 11 11  0  0  0  0  0  0  0  0999 V2000
    0.1360    1.1960    1.0750 N   0  0  0  0  0  0  0  0  0  0  0  0
    0.4170    0.2260    0.0420 C   0  0  2  0  0  0  0  0  0  0  0  0
    1.8910   -0.0450    0.0490 C   0  0  1  0  0  0  0  0  0  0  0  0
    2.2080   -0.5480    1.3270 O   0  0  0  0  0  0  0  0  0  0  0  0
    2.2400   -1.0550   -0.8560 O   0  0  0  0  0  0  0  0  0  0  0  0
   -0.1120    0.7410   -1.2500 C   0  0  0  0  0  0  0  0  0  0  0  0
   -1.5770    0.9590   -1.1550 C   0  0  0  0  0  0  0  0  0  0  0  0
   -2.3010    0.1820   -0.3560 O   0  0  0  0  0  0  0  0  0  0  0  0
   -1.7640   -0.6770    0.5080 C   0  0  0  0  0  0  0  0  0  0  0  0
   -0.3440   -1.0780    0.2910 C   0  0  1  0  0  0  0  0  0  0  0  0
   -0.2910   -1.8440   -0.8850 O   0  0  0  0  0  0  0  0  0  0  0  0
  2  1  1  1
  2  3  1  0
  2  6  1  0
  2 10  1  0
  3  4  1  1
  3  5  1  0
  6  7  1  0
  7  8  1  0
  8  9  1  0
  9 10  1  0
 10 11  1  6
M  CHG  1   1   1
M  END
