
     RDKit          3D

 11 11  0  0  0  0  0  0  0  0999 V2000
   -1.9100   -1.1710    0.7930 C   0  0  0  0  0  0  0  0  0  0  0  0
   -1.2780   -0.8850   -0.5250 C   0  0  1  0  0  0  0  0  0  0  0  0
   -2.1280    0.0530   -1.1690 O   0  0  0  0  0  0  0  0  0  0  0  0
   -2.0880    1.0740   -0.3570 O   0  0  0  0  0  0  0  0  0  0  0  0
   -0.7410    1.2640    0.0070 C   0  0  1  0  0  0  0  0  0  0  0  0
   -0.7470    1.3740    1.4060 O   0  0  0  0  0  0  0  0  0  0  0  0
   -0.0670    0.0180   -0.4470 C   0  0  2  0  0  0  0  0  0  0  0  0
    0.4180    0.2110   -1.7870 N   0  0  0  0  0  0  0  0  0  0  0  0
    1.0090   -0.4900    0.4430 C   0  0  0  0  0  0  0  0  0  0  0  0
    2.1780    0.4340    0.4840 C   0  0  0  0  0  0  0  0  0  0  0  0
    3.1300   -0.1470    1.3540 O   0  0  0  0  0  0  0  0  0  0  0  0
  2  1  1  1
  2  3  1  0
  2  7  1  0
  3  4  1  0
  4  5  1  0
  5  6  1  1
  5  7  1  0
  7  8  1  6
  7  9  1  0
  9 10  1  0
 10 11  1  0
M  CHG  1   8   1
M  END
