
     RDKit          3D

 11 11  0  0  0  0  0  0  0  0999 V2000
   -0.4760   -1.1850    1.1980 N   0  0  0  0  0  0  0  0  0  0  0  0
   -0.6090   -0.1160    0.2530 C   0  0  2  0  0  0  0  0  0  0  0  0
   -1.1930    1.1290    0.8760 C   0  0  0  0  0  0  0  0  0  0  0  0
   -1.3080    2.1390   -0.0530 O   0  0  0  0  0  0  0  0  0  0  0  0
   -1.4510   -0.6130   -0.9040 C   0  0  0  0  0  0  0  0  0  0  0  0
   -0.4120   -1.3660   -1.6950 C   0  0  0  0  0  0  0  0  0  0  0  0
    0.8230   -0.9240   -1.3090 O   0  0  0  0  0  0  0  0  0  0  0  0
    0.6760    0.1770   -0.4930 C   0  0  2  0  0  0  0  0  0  0  0  0
    1.8390    0.3670    0.4480 C   0  0  2  0  0  0  0  0  0  0  0  0
    1.6330    1.4850    1.2370 O   0  0  0  0  0  0  0  0  0  0  0  0
    3.0490    0.3370   -0.1980 O   0  0  0  0  0  0  0  0  0  0  0  0
  2  1  1  1
  2  3  1  0
  2  5  1  0
  2  8  1  0
  3  4  1  0
  5  6  1  0
  6  7  1  0
  8  7  1  6
  8  9  1  0
  9 10  1  6
  9 11  1  0
M  CHG  1   1   1
M  END
