
     RDKit          3D

 11 11  0  0  0  0  0  0  0  0999 V2000
   -2.3820   -0.9550   -0.4510 N   0  0  0  0  0  0  0  0  0  0  0  0
   -1.1900   -0.1380   -0.4060 C   0  0  1  0  0  0  0  0  0  0  0  0
   -1.5100    1.3410   -0.3000 C   0  0  0  0  0  0  0  0  0  0  0  0
   -0.7790    1.9460    0.7350 O   0  0  0  0  0  0  0  0  0  0  0  0
    0.5860    1.7410    0.4800 C   0  0  0  0  0  0  0  0  0  0  0  0
    0.9640    0.2780    0.6390 C   0  0  2  0  0  0  0  0  0  0  0  0
    1.7900   -0.1550   -0.5370 C   0  0  0  0  0  0  0  0  0  0  0  0
    2.1330   -1.4910   -0.4480 O   0  0  0  0  0  0  0  0  0  0  0  0
    3.4200   -1.6710   -0.1940 O   0  0  0  0  0  0  0  0  0  0  0  0
   -0.3190   -0.4930    0.7900 C   0  0  2  0  0  0  0  0  0  0  0  0
   -0.1380   -1.8540    0.9260 O   0  0  0  0  0  0  0  0  0  0  0  0
  2  1  1  1
  2  3  1  0
  2 10  1  0
  3  4  1  0
  4  5  1  0
  5  6  1  0
  6  7  1  6
  6 10  1  0
  7  8  1  0
  8  9  1  0
 10 11  1  6
M  CHG  1   1   1
M  END
