
     RDKit          3D

 31 34  0  0  0  0  0  0  0  0999 V2000
   -8.0990    0.0370    0.1210 C   0  0  0  0  0  0  0  0  0  0  0  0
   -6.7850    0.0100    0.1700 C   0  0  0  0  0  0  0  0  0  0  0  0
   -5.9700    1.0570    0.5010 C   0  0  0  0  0  0  0  0  0  0  0  0
   -4.7030    0.6290    0.4340 C   0  0  0  0  0  0  0  0  0  0  0  0
   -4.6570   -0.6850    0.0640 N   0  0  0  0  0  0  0  0  0  0  0  0
   -3.4350   -1.3860   -0.0810 C   0  0  0  0  0  0  0  0  0  0  0  0
   -3.4230   -2.5890   -0.4210 O   0  0  0  0  0  0  0  0  0  0  0  0
   -2.0880   -0.8390    0.1330 C   0  0  0  0  0  0  0  0  0  0  0  0
   -1.9420    0.4730    0.5140 O   0  0  0  0  0  0  0  0  0  0  0  0
   -0.6720    0.9890    0.7150 C   0  0  0  0  0  0  0  0  0  0  0  0
    0.4840    0.2540    0.5540 C   0  0  0  0  0  0  0  0  0  0  0  0
    1.7300    0.8050    0.7650 C   0  0  0  0  0  0  0  0  0  0  0  0
    2.9420    0.0570    0.6020 N   0  0  0  0  0  0  0  0  0  0  0  0
    3.8590    0.5420   -0.1970 C   0  0  0  0  0  0  0  0  0  0  0  0
    3.7800    2.0640   -1.1340 S   0  0  0  0  0  0  0  0  0  0  0  0
    5.4280    1.9330   -1.9100 C   0  0  0  0  0  0  0  0  0  0  0  0
    6.0420    0.8970   -1.0390 C   0  0  0  0  0  0  0  0  0  0  0  0
    7.3050    0.9200   -0.8480 O   0  0  0  0  0  0  0  0  0  0  0  0
    5.1270   -0.0210   -0.5090 N   0  0  0  0  0  0  0  0  0  0  0  0
    5.3900   -1.4460   -0.2580 C   0  0  1  0  0  0  0  0  0  0  0  0
    6.0230   -2.1900   -1.4090 C   0  0  0  0  0  0  0  0  0  0  0  0
    6.9160   -2.8830   -0.4020 C   0  0  0  0  0  0  0  0  0  0  0  0
    6.6710   -1.7110    0.5290 C   0  0  0  0  0  0  0  0  0  0  0  0
    1.8490    2.1410    1.1520 C   0  0  0  0  0  0  0  0  0  0  0  0
    0.6820    2.8600    1.3080 C   0  0  0  0  0  0  0  0  0  0  0  0
   -0.5680    2.3140    1.0990 C   0  0  0  0  0  0  0  0  0  0  0  0
   -1.7310    3.0710    1.2660 O   0  0  0  0  0  0  0  0  0  0  0  0
   -1.6530    4.4330    1.6590 C   0  0  0  0  0  0  0  0  0  0  0  0
   -5.9190   -1.0900   -0.1040 C   0  0  0  0  0  0  0  0  0  0  0  0
   -6.4240   -2.2570   -0.4560 C   0  0  0  0  0  0  0  0  0  0  0  0
   -5.8680   -3.5510   -0.7980 C   0  0  0  0  0  0  0  0  0  0  0  0
  1  2  2  0
  2  3  1  0
  2 29  1  0
  3  4  2  0
  4  5  1  0
  5  6  1  0
  5 29  1  0
  6  7  2  0
  6  8  1  0
  8  9  1  0
  9 10  1  0
 10 11  2  0
 10 26  1  0
 11 12  1  0
 12 13  1  0
 12 24  2  0
 13 14  2  3
 14 15  1  0
 14 19  1  0
 15 16  1  0
 16 17  1  0
 17 18  2  0
 17 19  1  0
 20 19  1  6
 20 21  1  0
 20 23  1  0
 21 22  1  0
 22 23  1  0
 24 25  1  0
 25 26  2  0
 26 27  1  0
 27 28  1  0
 29 30  2  3
 30 31  1  0
M  END
