
     RDKit          3D

 31 31  0  0  0  0  0  0  0  0999 V2000
   -1.9380   -2.8190   -1.0020 C   0  0  0  0  0  0  0  0  0  0  0  0
   -2.5970   -1.7850   -0.0800 C   0  0  2  0  0  0  0  0  0  0  0  0
   -3.7190   -1.1570   -0.8580 C   0  0  0  0  0  0  0  0  0  0  0  0
   -4.8740   -2.4830   -1.3140 S   0  0  0  0  0  0  0  0  0  0  0  0
   -4.1890   -3.5900   -2.4060 O   0  0  0  0  0  0  0  0  0  0  0  0
   -1.5960   -0.8900    0.2960 O   0  0  0  0  0  0  0  0  0  0  0  0
   -1.7660    0.1950    1.1210 C   0  0  0  0  0  0  0  0  0  0  0  0
   -2.9240    0.3900    1.5690 O   0  0  0  0  0  0  0  0  0  0  0  0
   -0.6930    1.1400    1.5130 C   0  0  1  0  0  0  0  0  0  0  0  0
    0.5540    0.7980    0.9360 O   0  0  0  0  0  0  0  0  0  0  0  0
    1.7010    0.6330    1.6550 C   0  0  0  0  0  0  0  0  0  0  0  0
    1.6330    0.7970    2.9140 O   0  0  0  0  0  0  0  0  0  0  0  0
    3.0200    0.2780    1.0960 C   0  0  1  0  0  0  0  0  0  0  0  0
    2.9530   -1.0620    0.3940 C   0  0  0  0  0  0  0  0  0  0  0  0
    4.2150   -1.4540   -0.2940 C   0  0  1  0  0  0  0  0  0  0  0  0
    3.9990   -1.6930   -1.6590 O   0  0  0  0  0  0  0  0  0  0  0  0
    5.2700   -0.3920   -0.1940 C   0  0  0  0  0  0  0  0  0  0  0  0
    4.8580    0.7060   -0.9820 O   0  0  0  0  0  0  0  0  0  0  0  0
    3.5780    1.4760   -0.1240 S   0  0  0  0  0  0  0  0  0  0  0  0
    4.1820    2.6810    0.5740 O   0  0  0  0  0  0  0  0  0  0  0  0
   -1.0590    2.5090    1.0310 C   0  0  0  0  0  0  0  0  0  0  0  0
   -2.1490    2.9760    1.4500 O   0  0  0  0  0  0  0  0  0  0  0  0
   -0.2660    3.2710    0.1610 N   0  0  0  0  0  0  0  0  0  0  0  0
   -0.6250    4.5810   -0.2960 C   0  0  0  0  0  0  0  0  0  0  0  0
   -1.7130    5.0490    0.1210 O   0  0  0  0  0  0  0  0  0  0  0  0
    0.2530    5.3040   -1.1990 C   0  0  0  0  0  0  0  0  0  0  0  0
    1.3390    4.8340   -1.6130 O   0  0  0  0  0  0  0  0  0  0  0  0
   -0.1120    6.5690   -1.6280 O   0  0  0  0  0  0  0  0  0  0  0  0
   -3.1900   -2.4500    1.1020 C   0  0  0  0  0  0  0  0  0  0  0  0
   -4.2360   -3.4040    1.0090 N   0  0  0  0  0  0  0  0  0  0  0  0
   -2.7370   -2.1480    2.2310 O   0  0  0  0  0  0  0  0  0  0  0  0
  2  1  1  6
  2  3  1  0
  2  6  1  0
  2 29  1  0
  3  4  1  0
  4  5  1  0
  6  7  1  0
  7  8  2  0
  7  9  1  0
  9 10  1  6
  9 21  1  0
 10 11  1  0
 11 12  2  0
 13 11  1  6
 13 14  1  0
 13 19  1  0
 14 15  1  0
 15 16  1  6
 15 17  1  0
 17 18  1  0
 19 18  1  6
 19 20  2  0
 21 22  2  0
 21 23  1  0
 23 24  1  0
 24 25  2  0
 24 26  1  0
 26 27  2  0
 26 28  1  0
 29 30  1  0
 29 31  2  0
M  END
