
     RDKit          3D

 31 34  0  0  0  0  0  0  0  0999 V2000
   -5.5170   -0.2250   -2.1570 C   0  0  0  0  0  0  0  0  0  0  0  0
   -5.6030   -0.7700   -0.9880 C   0  0  0  0  0  0  0  0  0  0  0  0
   -4.6170   -1.5700   -0.3450 N   0  0  0  0  0  0  0  0  0  0  0  0
   -4.8210   -2.9680   -0.0290 C   0  0  0  0  0  0  0  0  0  0  0  0
   -3.8820   -3.5520    0.9320 C   0  0  0  0  0  0  0  0  0  0  0  0
   -3.0290   -2.8000    1.6350 O   0  0  0  0  0  0  0  0  0  0  0  0
   -2.6810   -1.5630    1.2160 C   0  0  0  0  0  0  0  0  0  0  0  0
   -3.3610   -1.0430    0.0440 C   0  0  0  0  0  0  0  0  0  0  0  0
   -2.8380   -0.1000   -0.6570 N   0  0  0  0  0  0  0  0  0  0  0  0
   -1.5610    0.4630   -0.2980 C   0  0  0  0  0  0  0  0  0  0  0  0
   -1.5430    1.8820    0.7660 S   0  0  0  0  0  0  0  0  0  0  0  0
   -3.2240    2.4130    1.1980 C   0  0  0  0  0  0  0  0  0  0  0  0
   -3.2200    3.6210    2.0340 C   0  0  0  0  0  0  0  0  0  0  0  0
   -3.3920    4.9430    1.3780 C   0  0  0  0  0  0  0  0  0  0  0  0
   -3.0840    3.5690    3.2300 O   0  0  0  0  0  0  0  0  0  0  0  0
   -0.4350   -0.0330   -0.7470 C   0  0  0  0  0  0  0  0  0  0  0  0
   -0.3140   -1.1870   -1.6490 C   0  0  0  0  0  0  0  0  0  0  0  0
   -1.2520   -1.8730   -2.1410 O   0  0  0  0  0  0  0  0  0  0  0  0
    1.0500   -1.3370   -1.8290 O   0  0  0  0  0  0  0  0  0  0  0  0
    1.7850   -0.4030   -1.1360 C   0  0  0  0  0  0  0  0  0  0  0  0
    3.2540   -0.3370   -1.1430 C   0  0  0  0  0  0  0  0  0  0  0  0
    3.9900   -0.3860   -2.3150 C   0  0  0  0  0  0  0  0  0  0  0  0
    5.3650   -0.3770   -2.2640 C   0  0  0  0  0  0  0  0  0  0  0  0
    6.0540   -0.3190   -1.0750 C   0  0  0  0  0  0  0  0  0  0  0  0
    5.3000   -0.2700    0.0730 C   0  0  0  0  0  0  0  0  0  0  0  0
    3.9440   -0.2790    0.0230 N   0  0  0  0  0  0  0  0  0  0  0  0
    6.2410   -0.2380    1.2500 C   0  0  0  0  0  0  0  0  0  0  0  0
    7.5640   -0.7120    0.6820 C   0  0  0  0  0  0  0  0  0  0  0  0
    7.5170   -0.3060   -0.7770 C   0  0  0  0  0  0  0  0  0  0  0  0
    0.9320    0.3870   -0.4820 C   0  0  0  0  0  0  0  0  0  0  0  0
    1.3620    1.5120    0.3580 C   0  0  0  0  0  0  0  0  0  0  0  0
  1  2  2  0
  2  3  1  0
  3  4  1  0
  3  8  1  0
  4  5  1  0
  5  6  1  0
  6  7  1  0
  7  8  1  0
  8  9  2  3
  9 10  1  0
 10 11  1  0
 10 16  2  3
 11 12  1  0
 12 13  1  0
 13 14  1  0
 13 15  2  0
 16 17  1  0
 16 30  1  0
 17 18  2  0
 17 19  1  0
 19 20  1  0
 20 21  1  0
 20 30  2  0
 21 22  2  0
 21 26  1  0
 22 23  1  0
 23 24  2  0
 24 25  1  0
 24 29  1  0
 25 26  2  0
 25 27  1  0
 27 28  1  0
 28 29  1  0
 30 31  1  0
M  END
