
     RDKit          3D

 31 34  0  0  0  0  0  0  0  0999 V2000
   -5.4040   -2.4210   -0.2340 C   0  0  0  0  0  0  0  0  0  0  0  0
   -5.9910   -1.7650    0.6870 C   0  0  0  0  0  0  0  0  0  0  0  0
   -6.0540   -0.3750    0.9770 C   0  0  0  0  0  0  0  0  0  0  0  0
   -6.8810    0.0190    1.9920 C   0  0  0  0  0  0  0  0  0  0  0  0
   -7.1060    1.3670    2.4370 N   0  0  0  0  0  0  0  0  0  0  0  0
   -6.9850    2.4880    1.7690 C   0  0  0  0  0  0  0  0  0  0  0  0
   -6.5720    2.5630    0.3910 O   0  0  0  0  0  0  0  0  0  0  0  0
   -5.4150    1.8490   -0.0320 C   0  0  0  0  0  0  0  0  0  0  0  0
   -4.5550    2.5970   -0.7610 C   0  0  0  0  0  0  0  0  0  0  0  0
   -3.3760    2.0010   -1.2010 C   0  0  0  0  0  0  0  0  0  0  0  0
   -3.0960    0.6870   -0.8990 C   0  0  0  0  0  0  0  0  0  0  0  0
   -1.9030    0.0690   -1.3340 N   0  0  0  0  0  0  0  0  0  0  0  0
   -1.7010   -1.3500   -0.9920 C   0  0  0  0  0  0  0  0  0  0  0  0
   -0.3780   -1.8240   -1.5660 C   0  0  0  0  0  0  0  0  0  0  0  0
    0.7140   -0.9190   -1.2110 N   0  0  0  0  0  0  0  0  0  0  0  0
    1.8780   -1.4960   -0.6680 C   0  0  0  0  0  0  0  0  0  0  0  0
    1.8530   -2.7860   -0.5440 O   0  0  0  0  0  0  0  0  0  0  0  0
    3.0910   -0.7960   -0.2370 C   0  0  0  0  0  0  0  0  0  0  0  0
    3.5050    0.4890   -0.1950 C   0  0  0  0  0  0  0  0  0  0  0  0
    4.7390    0.7480    0.2870 C   0  0  0  0  0  0  0  0  0  0  0  0
    5.5120   -0.2440    0.7030 C   0  0  0  0  0  0  0  0  0  0  0  0
    6.8790   -0.2390    1.2650 C   0  0  0  0  0  0  0  0  0  0  0  0
    7.3700   -1.3470    1.5770 O   0  0  0  0  0  0  0  0  0  0  0  0
    7.6040    0.8950    1.4490 O   0  0  0  0  0  0  0  0  0  0  0  0
    8.9330    0.8950    1.9950 C   0  0  0  0  0  0  0  0  0  0  0  0
    9.7700    0.0440    1.0400 C   0  0  0  0  0  0  0  0  0  0  0  0
    4.5240   -1.6780    0.4400 S   0  0  0  0  0  0  0  0  0  0  0  0
    0.5260    0.4840   -1.4430 C   0  0  0  0  0  0  0  0  0  0  0  0
   -0.8540    0.6940   -2.0850 C   0  0  0  0  0  0  0  0  0  0  0  0
   -4.0070   -0.0660   -0.1410 C   0  0  0  0  0  0  0  0  0  0  0  0
   -5.1630    0.5220    0.2800 C   0  0  0  0  0  0  0  0  0  0  0  0
  1  2  2  0
  2  3  1  0
  3  4  2  0
  3 31  1  0
  4  5  1  0
  5  6  2  0
  6  7  1  0
  7  8  1  0
  8  9  2  0
  8 31  1  0
  9 10  1  0
 10 11  2  0
 11 12  1  0
 11 30  1  0
 12 13  1  0
 12 29  1  0
 13 14  1  0
 14 15  1  0
 15 16  1  0
 15 28  1  0
 16 17  2  0
 16 18  1  0
 18 19  2  0
 18 27  1  0
 19 20  1  0
 20 21  2  0
 21 22  1  0
 21 27  1  0
 22 23  2  0
 22 24  1  0
 24 25  1  0
 25 26  1  0
 28 29  1  0
 30 31  2  0
M  END
