
     RDKit          3D

 31 34  0  0  0  0  0  0  0  0999 V2000
   -8.1700    2.0980   -0.5880 C   0  0  0  0  0  0  0  0  0  0  0  0
   -7.6350    0.7900   -0.7380 C   0  0  0  0  0  0  0  0  0  0  0  0
   -8.4160    0.0120   -1.5230 O   0  0  0  0  0  0  0  0  0  0  0  0
   -6.4850    0.0040   -0.3180 C   0  0  0  0  0  0  0  0  0  0  0  0
   -6.3360    1.0210    1.0650 C   0  0  0  0  0  0  0  0  0  0  0  0
   -5.3840    0.8050    1.9250 C   0  0  0  0  0  0  0  0  0  0  0  0
   -4.4270   -0.1630    1.9000 C   0  0  0  0  0  0  0  0  0  0  0  0
   -4.5700   -1.0150    0.7240 C   0  0  0  0  0  0  0  0  0  0  0  0
   -3.4670   -2.3650    0.5760 S   0  0  0  0  0  0  0  0  0  0  0  0
   -1.8400   -1.7550    0.1440 C   0  0  0  0  0  0  0  0  0  0  0  0
   -1.6400   -0.4220   -0.1090 C   0  0  0  0  0  0  0  0  0  0  0  0
   -0.3760    0.0700   -0.3590 C   0  0  0  0  0  0  0  0  0  0  0  0
    0.7470   -0.7680   -0.3640 C   0  0  0  0  0  0  0  0  0  0  0  0
    1.9790   -0.1870   -0.6140 O   0  0  0  0  0  0  0  0  0  0  0  0
    2.3370    0.1260   -1.9380 C   0  0  0  0  0  0  0  0  0  0  0  0
    1.5120   -0.1560   -2.8290 O   0  0  0  0  0  0  0  0  0  0  0  0
    3.6650    0.7670   -2.2110 C   0  0  0  0  0  0  0  0  0  0  0  0
    4.3340    0.8810   -0.9170 N   0  0  0  0  0  0  0  0  0  0  0  0
    4.0810    1.9510   -0.1640 C   0  0  0  0  0  0  0  0  0  0  0  0
    3.2710    2.8400   -0.6090 O   0  0  0  0  0  0  0  0  0  0  0  0
    4.6940    2.0630    1.0570 C   0  0  0  0  0  0  0  0  0  0  0  0
    5.5640    1.0540    1.4690 C   0  0  0  0  0  0  0  0  0  0  0  0
    5.7990   -0.0190    0.6740 C   0  0  0  0  0  0  0  0  0  0  0  0
    6.6600   -1.0560    1.0220 C   0  0  0  0  0  0  0  0  0  0  0  0
    6.8700   -2.1190    0.1870 C   0  0  0  0  0  0  0  0  0  0  0  0
    6.2290   -2.1780   -1.0190 C   0  0  0  0  0  0  0  0  0  0  0  0
    5.3950   -1.1640   -1.3460 N   0  0  0  0  0  0  0  0  0  0  0  0
    5.1620   -0.1010   -0.5500 C   0  0  0  0  0  0  0  0  0  0  0  0
    0.5240   -2.0970   -0.1120 C   0  0  0  0  0  0  0  0  0  0  0  0
   -0.7380   -2.5920    0.1380 C   0  0  0  0  0  0  0  0  0  0  0  0
   -5.5620   -0.6270    0.0190 N   0  0  0  0  0  0  0  0  0  0  0  0
  1  2  1  0
  2  3  2  0
  2  4  1  0
  4  5  2  0
  4 31  1  0
  5  6  1  0
  6  7  2  0
  7  8  1  0
  8  9  1  0
  8 31  2  0
  9 10  1  0
 10 11  2  0
 10 30  1  0
 11 12  1  0
 12 13  2  0
 13 14  1  0
 13 29  1  0
 14 15  1  0
 15 16  2  0
 15 17  1  0
 17 18  1  0
 18 19  1  0
 18 28  1  0
 19 20  2  0
 19 21  1  0
 21 22  2  0
 22 23  1  0
 23 24  2  0
 23 28  1  0
 24 25  1  0
 25 26  2  0
 26 27  1  0
 27 28  2  0
 29 30  2  0
M  END
