
     RDKit          3D

 31 34  0  0  0  0  0  0  0  0999 V2000
   -3.1060    2.4130   -0.3100 C   0  0  0  0  0  0  0  0  0  0  0  0
   -3.7170    1.2110   -0.7680 O   0  0  0  0  0  0  0  0  0  0  0  0
   -4.9440    1.2250   -1.4080 C   0  0  0  0  0  0  0  0  0  0  0  0
   -5.4920    2.3450   -1.5660 O   0  0  0  0  0  0  0  0  0  0  0  0
   -5.5860   -0.0000   -1.8850 C   0  0  0  0  0  0  0  0  0  0  0  0
   -5.0390   -1.1850   -1.7360 C   0  0  0  0  0  0  0  0  0  0  0  0
   -3.7580   -1.3280   -1.0830 N   0  0  0  0  0  0  0  0  0  0  0  0
   -3.7850   -1.3970    0.2050 C   0  0  0  0  0  0  0  0  0  0  0  0
   -5.0280   -1.3360    0.9800 C   0  0  0  0  0  0  0  0  0  0  0  0
   -5.0230   -1.4090    2.2970 C   0  0  0  0  0  0  0  0  0  0  0  0
   -3.7550   -1.5540    2.9990 C   0  0  0  0  0  0  0  0  0  0  0  0
   -3.7210   -1.6260    4.2500 O   0  0  0  0  0  0  0  0  0  0  0  0
   -2.4910   -1.6190    2.2570 C   0  0  0  0  0  0  0  0  0  0  0  0
   -1.2830   -1.7550    2.8890 C   0  0  0  0  0  0  0  0  0  0  0  0
   -0.0900   -1.8140    2.1500 C   0  0  0  0  0  0  0  0  0  0  0  0
   -0.0490   -1.7420    0.7800 C   0  0  0  0  0  0  0  0  0  0  0  0
    1.1150   -1.7920   -0.0550 C   0  0  0  0  0  0  0  0  0  0  0  0
    0.8560   -1.7050   -1.3330 O   0  0  0  0  0  0  0  0  0  0  0  0
    2.4460   -1.9160    0.2760 N   0  0  0  0  0  0  0  0  0  0  0  0
    3.0460   -2.0310    1.5680 C   0  0  0  0  0  0  0  0  0  0  0  0
    3.4030   -1.9360   -0.8460 C   0  0  0  0  0  0  0  0  0  0  0  0
    3.7670   -0.4920   -1.0600 C   0  0  0  0  0  0  0  0  0  0  0  0
    3.6220    0.4710   -1.6580 N   0  0  0  0  0  0  0  0  0  0  0  0
    4.1850    1.6630   -1.5070 C   0  0  0  0  0  0  0  0  0  0  0  0
    5.0680    1.7980   -0.5060 C   0  0  0  0  0  0  0  0  0  0  0  0
    5.0340    0.1160    0.1960 S   0  0  0  0  0  0  0  0  0  0  0  0
    5.6450    3.1520   -0.4300 C   0  0  0  0  0  0  0  0  0  0  0  0
    5.4090    3.6530   -1.8630 C   0  0  0  0  0  0  0  0  0  0  0  0
    4.0890    3.0050   -2.1900 C   0  0  0  0  0  0  0  0  0  0  0  0
   -1.3170   -1.6030    0.1780 C   0  0  0  0  0  0  0  0  0  0  0  0
   -2.4910   -1.5430    0.8860 C   0  0  0  0  0  0  0  0  0  0  0  0
  1  2  1  0
  2  3  1  0
  3  4  2  0
  3  5  1  0
  5  6  2  3
  6  7  1  0
  7  8  2  3
  8  9  1  0
  8 31  1  0
  9 10  2  0
 10 11  1  0
 11 12  2  0
 11 13  1  0
 13 14  2  0
 13 31  1  0
 14 15  1  0
 15 16  2  0
 16 17  1  0
 16 30  1  0
 17 18  2  0
 17 19  1  0
 19 20  1  0
 19 21  1  0
 21 22  1  0
 22 23  2  0
 22 26  1  0
 23 24  1  0
 24 25  2  0
 24 29  1  0
 25 26  1  0
 25 27  1  0
 27 28  1  0
 28 29  1  0
 30 31  2  0
M  END
