
     RDKit          3D

 31 34  0  0  0  0  0  0  0  0999 V2000
    3.2900   -2.1420   -3.4960 C   0  0  0  0  0  0  0  0  0  0  0  0
    4.3800   -2.7350   -2.6960 C   0  0  0  0  0  0  0  0  0  0  0  0
    4.5700   -2.3730   -1.4240 C   0  0  0  0  0  0  0  0  0  0  0  0
    3.7110   -1.3870   -0.7930 C   0  0  0  0  0  0  0  0  0  0  0  0
    3.9000   -1.0290    0.4610 C   0  0  0  0  0  0  0  0  0  0  0  0
    4.9760   -1.6030    1.2780 C   0  0  0  0  0  0  0  0  0  0  0  0
    5.1330   -1.2170    2.5560 C   0  0  0  0  0  0  0  0  0  0  0  0
    4.2400   -0.2400    3.1120 C   0  0  0  0  0  0  0  0  0  0  0  0
    3.2600    0.3160    2.4480 C   0  0  0  0  0  0  0  0  0  0  0  0
    3.0570   -0.0700    1.0760 N   0  0  0  0  0  0  0  0  0  0  0  0
    1.9690    0.5680    0.3950 C   0  0  0  0  0  0  0  0  0  0  0  0
    0.6740    0.1020    0.9540 C   0  0  0  0  0  0  0  0  0  0  0  0
    0.6820   -0.7290    1.8860 O   0  0  0  0  0  0  0  0  0  0  0  0
   -0.5810    0.5670    0.4690 N   0  0  0  0  0  0  0  0  0  0  0  0
   -0.5410    1.5400   -0.6260 C   0  0  0  0  0  0  0  0  0  0  0  0
   -1.7940    0.1110    1.0200 C   0  0  0  0  0  0  0  0  0  0  0  0
   -1.8070   -0.7110    1.9480 O   0  0  0  0  0  0  0  0  0  0  0  0
   -3.0840    0.6290    0.4750 C   0  0  0  0  0  0  0  0  0  0  0  0
   -3.6520   -0.0630   -0.5650 C   0  0  0  0  0  0  0  0  0  0  0  0
   -3.1900   -1.2360   -1.2320 N   0  0  0  0  0  0  0  0  0  0  0  0
   -2.4840   -1.2390   -2.3690 C   0  0  0  0  0  0  0  0  0  0  0  0
   -2.2510   -2.5670   -2.6580 C   0  0  0  0  0  0  0  0  0  0  0  0
   -2.8060   -3.2880   -1.7170 O   0  0  0  0  0  0  0  0  0  0  0  0
   -3.3710   -2.4930   -0.8580 C   0  0  0  0  0  0  0  0  0  0  0  0
   -4.0080   -2.8740    0.1940 O   0  0  0  0  0  0  0  0  0  0  0  0
   -5.1280    0.8360   -0.9170 S   0  0  0  0  0  0  0  0  0  0  0  0
   -4.8990    2.0820    0.3460 C   0  0  0  0  0  0  0  0  0  0  0  0
   -3.7600    1.7270    0.9120 C   0  0  0  0  0  0  0  0  0  0  0  0
   -3.5160    2.7560    2.0090 C   0  0  0  0  0  0  0  0  0  0  0  0
   -4.2190    3.9590    1.4880 C   0  0  0  0  0  0  0  0  0  0  0  0
   -5.5030    3.3130    0.9490 C   0  0  0  0  0  0  0  0  0  0  0  0
  1  2  1  0
  2  3  2  3
  3  4  1  0
  4  5  2  3
  5  6  1  0
  5 10  1  0
  6  7  2  0
  7  8  1  0
  8  9  2  0
  9 10  1  0
 10 11  1  0
 11 12  1  0
 12 13  2  0
 12 14  1  0
 14 15  1  0
 14 16  1  0
 16 17  2  0
 16 18  1  0
 18 19  2  0
 18 28  1  0
 19 20  1  0
 19 26  1  0
 20 21  1  0
 20 24  1  0
 21 22  2  0
 22 23  1  0
 23 24  1  0
 24 25  2  0
 26 27  1  0
 27 28  2  0
 27 31  1  0
 28 29  1  0
 29 30  1  0
 30 31  1  0
M  END
