
     RDKit          3D

 31 35  0  0  0  0  0  0  0  0999 V2000
   -6.1700    1.3340   -2.1670 C   0  0  0  0  0  0  0  0  0  0  0  0
   -5.2260    0.5060   -1.4530 N   0  0  2  0  0  0  0  0  0  0  0  0
   -4.3400   -0.1110   -2.4070 C   0  0  0  0  0  0  0  0  0  0  0  0
   -5.9630   -0.5570   -0.7950 C   0  0  0  0  0  0  0  0  0  0  0  0
   -4.4450    1.2810   -0.5100 C   0  0  0  0  0  0  0  0  0  0  0  0
   -3.2030    0.5800   -0.0680 C   0  0  0  0  0  0  0  0  0  0  0  0
   -2.4810    1.4890    0.9100 C   0  0  0  0  0  0  0  0  0  0  0  0
   -1.2630    0.8860    1.3900 N   0  0  0  0  0  0  0  0  0  0  0  0
    0.0430    0.9990    0.8110 C   0  0  0  0  0  0  0  0  0  0  0  0
    0.2050    1.5090   -0.3320 O   0  0  0  0  0  0  0  0  0  0  0  0
    1.0080    0.4460    1.7620 C   0  0  1  0  0  0  0  0  0  0  0  0
    0.1420   -0.5600    2.5320 C   0  0  1  0  0  0  0  0  0  0  0  0
   -1.1820    0.0650    2.5450 C   0  0  0  0  0  0  0  0  0  0  0  0
   -2.0550   -0.1270    3.4450 O   0  0  0  0  0  0  0  0  0  0  0  0
    0.2350   -1.7860    1.6840 C   0  0  2  0  0  0  0  0  0  0  0  0
    0.8330   -2.9010    2.5020 C   0  0  0  0  0  0  0  0  0  0  0  0
    1.5740   -3.7180    1.4650 C   0  0  0  0  0  0  0  0  0  0  0  0
    1.8850   -2.7500    0.3610 C   0  0  0  0  0  0  0  0  0  0  0  0
    1.1680   -1.5340    0.6210 N   0  0  2  0  0  0  0  0  0  0  0  0
    2.0180   -0.4860    1.1460 C   0  0  1  0  0  0  0  0  0  0  0  0
    2.8620    0.1360    0.1310 C   0  0  0  0  0  0  0  0  0  0  0  0
    4.2180    0.4240    0.2920 C   0  0  0  0  0  0  0  0  0  0  0  0
    4.6680    1.0030   -0.8760 C   0  0  0  0  0  0  0  0  0  0  0  0
    6.0270    1.4770   -1.1810 C   0  0  0  0  0  0  0  0  0  0  0  0
    6.5770    2.0360   -2.2310 C   0  0  0  0  0  0  0  0  0  0  0  0
    7.8770    2.3670   -2.2160 C   0  0  0  0  0  0  0  0  0  0  0  0
    8.6240    2.1180   -1.0970 C   0  0  0  0  0  0  0  0  0  0  0  0
   10.2860    2.3780   -0.6650 Cl  0  0  0  0  0  0  0  0  0  0  0  0
    7.3840    1.3490    0.0300 S   0  0  0  0  0  0  0  0  0  0  0  0
    3.6410    1.0510   -1.6700 O   0  0  0  0  0  0  0  0  0  0  0  0
    2.5820    0.5520   -1.1030 N   0  0  0  0  0  0  0  0  0  0  0  0
  2  1  1  6
  2  3  1  0
  2  4  1  0
  2  5  1  0
  5  6  1  0
  6  7  1  0
  7  8  1  0
  8  9  1  0
  8 13  1  0
  9 10  2  0
 11  9  1  6
 11 12  1  0
 11 20  1  0
 12 13  1  6
 12 15  1  0
 13 14  2  0
 15 16  1  1
 15 19  1  0
 16 17  1  0
 17 18  1  0
 19 18  1  1
 19 20  1  0
 20 21  1  6
 21 22  1  0
 21 31  2  0
 22 23  2  0
 23 24  1  0
 23 30  1  0
 24 25  2  0
 24 29  1  0
 25 26  1  0
 26 27  2  0
 27 28  1  0
 27 29  1  0
 30 31  1  0
M  CHG  2   2   1  19   1
M  END
