
     RDKit          3D

 31 34  0  0  0  0  0  0  0  0999 V2000
    0.3730    6.4680    0.7360 C   0  0  0  0  0  0  0  0  0  0  0  0
    1.2200    5.4670    0.9230 C   0  0  0  0  0  0  0  0  0  0  0  0
    1.1370    4.2140    0.1230 C   0  0  0  0  0  0  0  0  0  0  0  0
    0.9100    3.0190    0.9930 C   0  0  0  0  0  0  0  0  0  0  0  0
    0.8330    1.7840    0.1570 N   0  0  0  0  0  0  0  0  0  0  0  0
    2.0050    1.1550   -0.0770 C   0  0  0  0  0  0  0  0  0  0  0  0
    3.2290    1.4130    0.2830 N   0  0  0  0  0  0  0  0  0  0  0  0
    4.2880    0.5790   -0.1040 C   0  0  0  0  0  0  0  0  0  0  0  0
    5.1970    1.0340   -0.8300 O   0  0  0  0  0  0  0  0  0  0  0  0
    4.3220   -0.8020    0.3360 C   0  0  0  0  0  0  0  0  0  0  0  0
    5.3680   -1.6560   -0.0360 C   0  0  0  0  0  0  0  0  0  0  0  0
    5.3720   -2.9520    0.3960 C   0  0  0  0  0  0  0  0  0  0  0  0
    6.4790   -3.8500   -0.0000 C   0  0  0  0  0  0  0  0  0  0  0  0
    4.3440   -3.3890    1.1890 C   0  0  0  0  0  0  0  0  0  0  0  0
    3.3260   -2.5010    1.5330 C   0  0  0  0  0  0  0  0  0  0  0  0
    2.3600   -2.8680    2.2630 O   0  0  0  0  0  0  0  0  0  0  0  0
    3.3730   -1.2760    1.0920 O   0  0  0  0  0  0  0  0  0  0  0  0
    1.5300   -0.2980   -1.1110 S   0  0  0  0  0  0  0  0  0  0  0  0
   -0.2500    0.1420   -1.0960 C   0  0  0  0  0  0  0  0  0  0  0  0
   -1.3040   -0.5030   -1.6860 C   0  0  0  0  0  0  0  0  0  0  0  0
   -2.5600    0.0580   -1.5100 C   0  0  0  0  0  0  0  0  0  0  0  0
   -3.7180   -0.6000   -2.1220 C   0  0  0  0  0  0  0  0  0  0  0  0
   -4.4170   -1.5030   -1.2780 N   0  0  0  0  0  0  0  0  0  0  0  0
   -3.6950   -2.6050   -0.7580 C   0  0  0  0  0  0  0  0  0  0  0  0
   -4.2490   -3.0230    0.6070 C   0  0  0  0  0  0  0  0  0  0  0  0
   -4.2640   -1.8900    1.3910 O   0  0  0  0  0  0  0  0  0  0  0  0
   -5.2250   -0.9810    0.9880 C   0  0  0  0  0  0  0  0  0  0  0  0
   -5.4640   -0.9780   -0.4900 C   0  0  0  0  0  0  0  0  0  0  0  0
   -2.6420    1.1950   -0.7700 C   0  0  0  0  0  0  0  0  0  0  0  0
   -1.5810    1.8420   -0.1780 C   0  0  0  0  0  0  0  0  0  0  0  0
   -0.2630    1.2840   -0.3440 C   0  0  0  0  0  0  0  0  0  0  0  0
  1  2  2  0
  2  3  1  0
  3  4  1  0
  4  5  1  0
  5  6  1  0
  5 31  1  0
  6  7  2  3
  6 18  1  0
  7  8  1  0
  8  9  2  0
  8 10  1  0
 10 11  2  0
 10 17  1  0
 11 12  1  0
 12 13  1  0
 12 14  2  0
 14 15  1  0
 15 16  2  0
 15 17  1  0
 18 19  1  0
 19 20  2  0
 19 31  1  0
 20 21  1  0
 21 22  1  0
 21 29  2  0
 22 23  1  0
 23 24  1  0
 23 28  1  0
 24 25  1  0
 25 26  1  0
 26 27  1  0
 27 28  1  0
 29 30  1  0
 30 31  2  0
M  END
