
     RDKit          3D

  9  9  0  0  0  0  0  0  0  0999 V2000
   -0.3170    2.5920    0.1120 C   0  0  0  0  0  0  0  0  0  0  0  0
   -0.7960    1.4130    0.1870 C   0  0  0  0  0  0  0  0  0  0  0  0
   -1.3030    0.1310    0.2730 C   0  0  1  0  0  0  0  0  0  0  0  0
   -2.3410   -0.1100   -0.6700 O   0  0  0  0  0  0  0  0  0  0  0  0
   -0.2120   -0.8660    0.0480 C   0  0  0  0  0  0  0  0  0  0  0  0
   -0.6050   -2.5980    0.1570 S   0  0  0  0  0  0  0  0  0  0  0  0
    1.0010   -0.4270   -0.2250 C   0  0  0  0  0  0  0  0  0  0  0  0
    2.4030   -0.6830   -0.5300 C   0  0  0  0  0  0  0  0  0  0  0  0
    1.9320    0.6390   -0.4440 C   0  0  0  0  0  0  0  0  0  0  0  0
  1  2  3  0
  2  3  1  0
  3  4  1  6
  3  5  1  0
  5  6  1  0
  5  7  2  3
  7  8  1  0
  7  9  1  0
  8  9  2  0
M  END
