
     RDKit          3D

  9  9  0  0  0  0  0  0  0  0999 V2000
   -1.2140    1.9300   -0.1370 C   0  0  0  0  0  0  0  0  0  0  0  0
   -0.6480    0.5870    0.3440 C   0  0  1  0  0  0  0  0  0  0  0  0
   -1.1190    0.4260    1.6470 O   0  0  0  0  0  0  0  0  0  0  0  0
   -1.1750   -0.4600   -0.5990 C   0  0  0  0  0  0  0  0  0  0  0  0
   -0.5110   -1.8040   -0.4160 C   0  0  0  0  0  0  0  0  0  0  0  0
    0.9460   -1.6860   -0.1550 C   0  0  0  0  0  0  0  0  0  0  0  0
    1.5580   -0.5570    0.1540 C   0  0  0  0  0  0  0  0  0  0  0  0
    3.3210   -0.5880    0.4380 S   0  0  0  0  0  0  0  0  0  0  0  0
    0.8460    0.7150    0.2730 C   0  0  0  0  0  0  0  0  0  0  0  0
  2  1  1  6
  2  3  1  0
  2  4  1  0
  2  9  1  0
  4  5  1  0
  5  6  1  0
  6  7  2  0
  7  8  1  0
  7  9  1  0
M  END
