
     RDKit          3D

  9  9  0  0  0  0  0  0  0  0999 V2000
    3.4960   -0.4420    0.1860 O   0  0  0  0  0  0  0  0  0  0  0  0
    2.4750   -0.1400   -0.7100 C   0  0  0  0  0  0  0  0  0  0  0  0
    1.4120    0.6900   -0.1000 C   0  0  0  0  0  0  0  0  0  0  0  0
    0.1790    0.2750   -0.0360 C   0  0  0  0  0  0  0  0  0  0  0  0
   -0.8930    1.0470    0.5480 C   0  0  0  0  0  0  0  0  0  0  0  0
   -2.1300    0.6940    0.6430 C   0  0  0  0  0  0  0  0  0  0  0  0
   -2.7030   -0.5540    0.1800 C   0  0  0  0  0  0  0  0  0  0  0  0
   -1.9890   -1.4830   -0.4020 C   0  0  0  0  0  0  0  0  0  0  0  0
   -0.2460   -1.3320   -0.6960 S   0  0  0  0  0  0  0  0  0  0  0  0
  1  2  1  0
  2  3  1  0
  3  4  2  3
  4  5  1  0
  4  9  1  0
  5  6  2  0
  6  7  1  0
  7  8  2  0
  8  9  1  0
M  END
