
     RDKit          3D

  9  9  0  0  0  0  0  0  0  0999 V2000
    3.4290    1.3100    1.5150 O   0  0  0  0  0  0  0  0  0  0  0  0
    2.7160    1.8360    0.4340 C   0  0  0  0  0  0  0  0  0  0  0  0
    1.4900    1.0990    0.1630 C   0  0  0  0  0  0  0  0  0  0  0  0
    0.4620    0.5050   -0.0600 C   0  0  0  0  0  0  0  0  0  0  0  0
   -0.8000   -0.2230   -0.3090 C   0  0  0  0  0  0  0  0  0  0  0  0
   -1.5380   -0.6090    0.7070 C   0  0  0  0  0  0  0  0  0  0  0  0
   -2.9630   -1.4500    0.0170 S   0  0  0  0  0  0  0  0  0  0  0  0
   -2.1690   -1.7650   -1.6260 C   0  0  0  0  0  0  0  0  0  0  0  0
   -1.2990   -0.5340   -1.6450 C   0  0  0  0  0  0  0  0  0  0  0  0
  1  2  1  0
  2  3  1  0
  3  4  3  0
  4  5  1  0
  5  6  2  0
  5  9  1  0
  6  7  1  0
  7  8  1  0
  8  9  1  0
M  END
