
     RDKit          3D

 13 14  0  0  0  0  0  0  0  0999 V2000
    3.3340   -0.7190   -0.0790 O   0  0  0  0  0  0  0  0  0  0  0  0
    2.0540   -0.3160   -0.3690 C   0  0  1  0  0  0  0  0  0  0  0  0
    1.0320   -1.4250   -0.1370 C   0  0  0  0  0  0  0  0  0  0  0  0
   -0.2320   -0.8910   -0.4690 N   0  0  1  0  0  0  0  0  0  0  0  0
   -1.3550   -1.7380   -0.4050 C   0  0  0  0  0  0  0  0  0  0  0  0
   -2.4750   -0.6850   -0.5040 C   0  0  0  0  0  0  0  0  0  0  0  0
   -2.0130    0.2930    0.5500 C   0  0  2  0  0  0  0  0  0  0  0  0
   -2.4220    1.5810    0.3280 O   0  0  0  0  0  0  0  0  0  0  0  0
   -0.5450    0.1250    0.5520 C   0  0  2  0  0  0  0  0  0  0  0  0
    0.2510    1.3150    0.1410 C   0  0  1  0  0  0  0  0  0  0  0  0
   -0.0900    2.4910    0.7330 O   0  0  0  0  0  0  0  0  0  0  0  0
    1.7110    0.9270    0.4150 C   0  0  2  0  0  0  0  0  0  0  0  0
    2.5620    1.9370    0.0720 O   0  0  0  0  0  0  0  0  0  0  0  0
  2  1  1  1
  2  3  1  0
  2 12  1  0
  4  3  1  1
  4  5  1  0
  4  9  1  0
  5  6  1  0
  6  7  1  0
  7  8  1  6
  9  7  1  6
  9 10  1  0
 10 11  1  1
 10 12  1  0
 12 13  1  6
M  CHG  1   4   1
M  END
