
     RDKit          3D

  9 10  0  0  0  0  0  0  0  0999 V2000
   -2.0940   -0.7090    0.5710 C   0  0  0  0  0  0  0  0  0  0  0  0
   -0.7540   -0.0350    1.2520 C   0  0  2  0  0  0  0  0  0  0  0  0
   -0.8690    0.3980    2.4240 O   0  0  0  0  0  0  0  0  0  0  0  0
   -0.1610    0.6650    0.1570 C   0  0  0  0  0  0  0  0  0  0  0  0
    0.2280    1.1020   -0.5510 C   0  0  0  0  0  0  0  0  0  0  0  0
    0.7250    1.6460   -1.4730 C   0  0  0  0  0  0  0  0  0  0  0  0
    1.7230    0.0460   -1.4450 C   0  0  0  0  0  0  0  0  0  0  0  0
    1.6400   -0.4140    0.3580 S   0  0  2  0  0  0  0  0  0  0  0  0
    0.2490   -1.3110    0.9800 C   0  0  0  0  0  0  0  0  0  0  0  0
  2  1  1  6
  2  3  1  0
  2  4  1  0
  2  9  1  0
  4  5  3  0
  5  6  1  0
  6  7  1  0
  8  7  1  6
  8  9  1  0
  8  4  1  0
M  END
