
     RDKit          3D

 32 34  0  0  0  0  0  0  0  0999 V2000
   -6.9710    0.5700   -2.7160 C   0  0  0  0  0  0  0  0  0  0  0  0
   -6.0670    1.3270   -1.7580 C   0  0  0  0  0  0  0  0  0  0  0  0
   -5.1160    0.4040   -1.1150 N   0  0  0  0  0  0  0  0  0  0  0  0
   -5.3210   -0.2400    0.0070 N   0  0  0  0  0  0  0  0  0  0  0  0
   -4.2530   -0.9860    0.2960 C   0  0  0  0  0  0  0  0  0  0  0  0
   -4.0920   -1.8760    1.5020 C   0  0  1  0  0  0  0  0  0  0  0  0
   -4.0800   -0.9420    2.7200 C   0  0  0  0  0  0  0  0  0  0  0  0
   -5.2800   -2.7870    1.6740 C   0  0  0  0  0  0  0  0  0  0  0  0
   -3.3490   -0.7960   -0.6860 N   0  0  0  0  0  0  0  0  0  0  0  0
   -2.0720   -1.4460   -0.7750 C   0  0  0  0  0  0  0  0  0  0  0  0
   -0.9500   -0.8510   -0.0320 C   0  0  0  0  0  0  0  0  0  0  0  0
   -0.5210    0.5010   -0.3340 C   0  0  0  0  0  0  0  0  0  0  0  0
   -0.9220    1.2800   -1.2140 O   0  0  0  0  0  0  0  0  0  0  0  0
    0.5330    1.0330    0.5110 N   0  0  0  0  0  0  0  0  0  0  0  0
    1.1180    0.2600    1.5880 C   0  0  0  0  0  0  0  0  0  0  0  0
    2.5020    0.7770    1.8860 C   0  0  0  0  0  0  0  0  0  0  0  0
    3.1650    1.2140    0.6450 C   0  0  0  0  0  0  0  0  0  0  0  0
    4.3370    0.7040    0.2900 C   0  0  0  0  0  0  0  0  0  0  0  0
    5.0420    1.1140   -0.9520 C   0  0  2  0  0  0  0  0  0  0  0  0
    5.3020   -0.0300   -1.7820 N   0  0  0  0  0  0  0  0  0  0  0  0
    6.4800   -0.6940   -1.2480 C   0  0  0  0  0  0  0  0  0  0  0  0
    6.7860   -1.9570   -1.4590 C   0  0  0  0  0  0  0  0  0  0  0  0
    7.8630   -2.5570   -0.9700 F   0  0  0  0  0  0  0  0  0  0  0  0
    7.1790    0.3100   -0.4860 C   0  0  0  0  0  0  0  0  0  0  0  0
    8.3020    0.2340    0.1980 C   0  0  0  0  0  0  0  0  0  0  0  0
    9.0160   -0.8860    0.2910 F   0  0  0  0  0  0  0  0  0  0  0  0
    8.7420    1.3740    0.8390 F   0  0  0  0  0  0  0  0  0  0  0  0
    6.3870    1.5160   -0.6020 N   0  0  0  0  0  0  0  0  0  0  0  0
    2.4770    2.2430   -0.1940 C   0  0  0  0  0  0  0  0  0  0  0  0
    1.0510    2.3750    0.3140 C   0  0  0  0  0  0  0  0  0  0  0  0
   -3.8950    0.0610   -1.5460 C   0  0  0  0  0  0  0  0  0  0  0  0
   -3.4360    0.5410   -2.6250 O   0  0  0  0  0  0  0  0  0  0  0  0
  1  2  1  0
  2  3  1  0
  3  4  1  0
  3 31  1  0
  4  5  2  0
  5  6  1  0
  5  9  1  0
  6  7  1  1
  6  8  1  0
  9 10  1  0
  9 31  1  0
 10 11  1  0
 11 12  1  0
 12 13  2  0
 12 14  1  0
 14 15  1  0
 14 30  1  0
 15 16  1  0
 16 17  1  0
 17 18  2  3
 17 29  1  0
 19 18  1  1
 19 20  1  0
 19 28  1  0
 20 21  1  0
 21 22  2  3
 21 24  1  0
 22 23  1  0
 24 25  2  3
 24 28  1  0
 25 26  1  0
 25 27  1  0
 29 30  1  0
 31 32  2  0
M  END
