
     RDKit          3D

 32 34  0  0  0  0  0  0  0  0999 V2000
   -8.2710    2.9180    0.1580 C   0  0  0  0  0  0  0  0  0  0  0  0
   -7.0660    2.0540    0.0240 C   0  0  0  0  0  0  0  0  0  0  0  0
   -6.0840    2.4500   -0.8100 N   0  0  0  0  0  0  0  0  0  0  0  0
   -4.9810    1.6780   -0.9470 C   0  0  0  0  0  0  0  0  0  0  0  0
   -4.0650    2.0550   -1.7310 O   0  0  0  0  0  0  0  0  0  0  0  0
   -4.8750    0.5080   -0.2380 C   0  0  0  0  0  0  0  0  0  0  0  0
   -3.7170   -0.2600   -0.4120 C   0  0  0  0  0  0  0  0  0  0  0  0
   -3.6110   -1.4320    0.2960 C   0  0  0  0  0  0  0  0  0  0  0  0
   -2.4220   -2.2850    0.1450 C   0  0  0  0  0  0  0  0  0  0  0  0
   -1.5130   -1.9180   -0.8710 N   0  0  0  0  0  0  0  0  0  0  0  0
   -1.9330   -1.8440   -2.2470 C   0  0  0  0  0  0  0  0  0  0  0  0
   -0.1570   -1.6220   -0.5580 C   0  0  0  0  0  0  0  0  0  0  0  0
    0.5220   -1.6120    0.5830 C   0  0  0  0  0  0  0  0  0  0  0  0
    1.8290   -1.2940    0.5950 C   0  0  0  0  0  0  0  0  0  0  0  0
    2.4140   -0.9840   -0.6140 C   0  0  0  0  0  0  0  0  0  0  0  0
    3.7640   -0.6060   -0.9790 C   0  0  0  0  0  0  0  0  0  0  0  0
    4.1070   -0.3540   -2.1590 O   0  0  0  0  0  0  0  0  0  0  0  0
    4.7330   -0.5170    0.0310 N   0  0  0  0  0  0  0  0  0  0  0  0
    6.1360   -0.1410   -0.2100 C   0  0  1  0  0  0  0  0  0  0  0  0
    6.5110    0.8370    0.8710 C   0  0  0  0  0  0  0  0  0  0  0  0
    5.6700    2.0680    0.8620 C   0  0  0  0  0  0  0  0  0  0  0  0
    5.8340    2.7630   -0.4300 C   0  0  0  0  0  0  0  0  0  0  0  0
    5.2600    2.4000   -1.4580 O   0  0  0  0  0  0  0  0  0  0  0  0
    6.6680    3.8700   -0.4870 O   0  0  0  0  0  0  0  0  0  0  0  0
    6.9800   -1.3670    0.0700 C   0  0  0  0  0  0  0  0  0  0  0  0
    6.5300   -2.4560    0.4280 O   0  0  0  0  0  0  0  0  0  0  0  0
    8.3610   -1.1810   -0.1090 O   0  0  0  0  0  0  0  0  0  0  0  0
    1.0670   -1.1610   -1.7300 S   0  0  0  0  0  0  0  0  0  0  0  0
   -4.6200   -1.8290    1.1470 C   0  0  0  0  0  0  0  0  0  0  0  0
   -5.7510   -1.0810    1.3180 C   0  0  0  0  0  0  0  0  0  0  0  0
   -5.8850    0.1010    0.6200 C   0  0  0  0  0  0  0  0  0  0  0  0
   -6.9460    0.9120    0.7070 N   0  0  0  0  0  0  0  0  0  0  0  0
  1  2  1  0
  2  3  2  0
  2 32  1  0
  3  4  1  0
  4  5  2  0
  4  6  1  0
  6  7  2  0
  6 31  1  0
  7  8  1  0
  8  9  1  0
  8 29  2  0
  9 10  1  0
 10 11  1  0
 10 12  1  0
 12 13  2  0
 12 28  1  0
 13 14  1  0
 14 15  2  0
 15 16  1  0
 15 28  1  0
 16 17  2  0
 16 18  1  0
 18 19  1  0
 19 20  1  1
 19 25  1  0
 20 21  1  0
 21 22  1  0
 22 23  2  0
 22 24  1  0
 25 26  2  0
 25 27  1  0
 29 30  1  0
 30 31  2  0
 31 32  1  0
M  END
