
     RDKit          3D

 32 34  0  0  0  0  0  0  0  0999 V2000
   -6.7170   -0.8990   -1.6920 C   0  0  0  0  0  0  0  0  0  0  0  0
   -6.3760    0.0810   -0.8770 C   0  0  0  0  0  0  0  0  0  0  0  0
   -6.2030   -0.1360    0.5160 N   0  0  0  0  0  0  0  0  0  0  0  0
   -4.8810   -0.0830    1.1110 C   0  0  0  0  0  0  0  0  0  0  0  0
   -3.8920    0.2260    0.0420 C   0  0  0  0  0  0  0  0  0  0  0  0
   -2.5360    0.3030    0.4950 N   0  0  0  0  0  0  0  0  0  0  0  0
   -1.5320    0.6140   -0.4660 C   0  0  0  0  0  0  0  0  0  0  0  0
   -1.8220    0.8740   -1.7800 C   0  0  0  0  0  0  0  0  0  0  0  0
   -0.8800    1.1730   -2.7180 C   0  0  0  0  0  0  0  0  0  0  0  0
   -1.2680    1.4380   -4.0990 C   0  0  0  0  0  0  0  0  0  0  0  0
   -1.5760    1.6340   -5.2220 N   0  0  0  0  0  0  0  0  0  0  0  0
    0.4420    1.2190   -2.3430 C   0  0  0  0  0  0  0  0  0  0  0  0
    0.8260    0.9620   -1.0040 C   0  0  0  0  0  0  0  0  0  0  0  0
    2.2230    1.0430   -0.7210 C   0  0  0  0  0  0  0  0  0  0  0  0
    2.9790    1.3950   -1.7440 O   0  0  0  0  0  0  0  0  0  0  0  0
    2.8930    0.8040    0.4750 N   0  0  0  0  0  0  0  0  0  0  0  0
    2.3210    0.3810    1.7080 C   0  0  0  0  0  0  0  0  0  0  0  0
    4.3300    0.9850    0.4970 N   0  0  0  0  0  0  0  0  0  0  0  0
    5.0300    2.0990    0.3120 C   0  0  0  0  0  0  0  0  0  0  0  0
    4.5050    3.2300    0.0750 O   0  0  0  0  0  0  0  0  0  0  0  0
    6.3590    1.8090    0.4190 N   0  0  0  0  0  0  0  0  0  0  0  0
    6.4890    0.4960    0.6740 C   0  0  0  0  0  0  0  0  0  0  0  0
    7.5900   -0.3210    0.8730 C   0  0  0  0  0  0  0  0  0  0  0  0
    7.3700   -1.6560    1.1190 C   0  0  0  0  0  0  0  0  0  0  0  0
    6.0960   -2.1960    1.1730 C   0  0  0  0  0  0  0  0  0  0  0  0
    5.0240   -1.3690    0.9740 C   0  0  0  0  0  0  0  0  0  0  0  0
    5.1830   -0.0160    0.7220 C   0  0  0  0  0  0  0  0  0  0  0  0
   -0.1760    0.6670   -0.1040 C   0  0  0  0  0  0  0  0  0  0  0  0
   -7.3740   -0.4120    1.3310 C   0  0  1  0  0  0  0  0  0  0  0  0
   -8.3020    0.6040    1.2940 F   0  0  0  0  0  0  0  0  0  0  0  0
   -7.9820   -1.5620    0.9130 F   0  0  0  0  0  0  0  0  0  0  0  0
   -7.0050   -0.5560    2.6620 F   0  0  0  0  0  0  0  0  0  0  0  0
  1  2  2  0
  2  3  1  0
  3  4  1  0
  3 29  1  0
  4  5  1  0
  5  6  1  0
  6  7  1  0
  7  8  2  0
  7 28  1  0
  8  9  1  0
  9 10  1  0
  9 12  2  0
 10 11  3  0
 12 13  1  0
 13 14  1  0
 13 28  2  0
 14 15  2  0
 14 16  1  0
 16 17  1  0
 16 18  1  0
 18 19  1  0
 18 27  1  0
 19 20  2  0
 19 21  1  0
 21 22  1  0
 22 23  2  0
 22 27  1  0
 23 24  1  0
 24 25  2  0
 25 26  1  0
 26 27  2  0
 29 30  1  1
 29 31  1  0
 29 32  1  0
M  END
