
     RDKit          3D

 32 34  0  0  0  0  0  0  0  0999 V2000
   -1.4930    0.3170   -4.5980 C   0  0  0  0  0  0  0  0  0  0  0  0
   -1.3920    0.4170   -3.2170 O   0  0  0  0  0  0  0  0  0  0  0  0
   -0.8360   -0.6800   -2.6170 C   0  0  2  0  0  0  0  0  0  0  0  0
   -1.8760   -1.3850   -1.7250 C   0  0  0  0  0  0  0  0  0  0  0  0
   -2.2690   -0.2940   -0.7430 C   0  0  1  0  0  0  0  0  0  0  0  0
   -3.5800   -0.4860   -0.0890 C   0  0  0  0  0  0  0  0  0  0  0  0
   -3.8110   -1.6790    0.7490 C   0  0  2  0  0  0  0  0  0  0  0  0
   -3.6880   -3.0080    0.0620 C   0  0  0  0  0  0  0  0  0  0  0  0
   -5.2770   -1.5980    1.2350 C   0  0  0  0  0  0  0  0  0  0  0  0
   -6.0600   -1.5940    0.0860 O   0  0  0  0  0  0  0  0  0  0  0  0
   -1.1700    0.0330    0.2000 C   0  0  2  0  0  0  0  0  0  0  0  0
   -1.1120   -1.0080    1.1310 O   0  0  0  0  0  0  0  0  0  0  0  0
   -1.5510    1.2430    1.0120 C   0  0  0  0  0  0  0  0  0  0  0  0
   -1.6930    2.4720    0.1690 C   0  0  0  0  0  0  0  0  0  0  0  0
   -0.3420    2.7780   -0.3980 C   0  0  1  0  0  0  0  0  0  0  0  0
   -0.4670    3.5430   -1.7250 C   0  0  0  0  0  0  0  0  0  0  0  0
   -1.1550    4.7540   -1.4680 O   0  0  0  0  0  0  0  0  0  0  0  0
    0.2160    3.8840    0.5380 C   0  0  0  0  0  0  0  0  0  0  0  0
    1.5400    4.2800    0.0980 C   0  0  0  0  0  0  0  0  0  0  0  0
    2.5840    4.6030   -0.2390 N   0  0  0  0  0  0  0  0  0  0  0  0
    0.6240    1.6810   -0.4870 C   0  0  0  0  0  0  0  0  0  0  0  0
    0.1660    0.2610   -0.4680 C   0  0  1  0  0  0  0  0  0  0  0  0
    1.1810   -0.4390    0.4720 C   0  0  0  0  0  0  0  0  0  0  0  0
    2.5560   -0.2890   -0.0970 C   0  0  0  0  0  0  0  0  0  0  0  0
    3.5050   -1.0100    0.8750 C   0  0  1  0  0  0  0  0  0  0  0  0
    3.4020   -0.3710    2.2200 C   0  0  0  0  0  0  0  0  0  0  0  0
    4.5300   -0.9360    3.0690 C   0  0  2  0  0  0  0  0  0  0  0  0
    5.7520   -0.0490    2.9490 C   0  0  0  0  0  0  0  0  0  0  0  0
    4.9030   -2.3010    2.5400 C   0  0  0  0  0  0  0  0  0  0  0  0
    3.7190   -3.0360    1.9540 C   0  0  0  0  0  0  0  0  0  0  0  0
    3.0990   -2.3200    0.9340 O   0  0  0  0  0  0  0  0  0  0  0  0
    0.3440   -0.4120   -1.7730 C   0  0  0  0  0  0  0  0  0  0  0  0
  1  2  1  0
  3  2  1  1
  3  4  1  0
  3 32  1  0
  4  5  1  0
  5  6  1  1
  5 11  1  0
  6  7  1  0
  7  8  1  6
  7  9  1  0
  9 10  1  0
 11 12  1  1
 11 13  1  0
 11 22  1  0
 13 14  1  0
 14 15  1  0
 15 16  1  6
 15 18  1  0
 15 21  1  0
 16 17  1  0
 18 19  1  0
 19 20  3  0
 21 22  1  0
 22 23  1  1
 22 32  1  0
 23 24  1  0
 25 24  1  6
 25 26  1  0
 25 31  1  0
 26 27  1  0
 27 28  1  6
 27 29  1  0
 29 30  1  0
 30 31  1  0
M  END
