
     RDKit          3D

 32 35  0  0  0  0  0  0  0  0999 V2000
   -6.8300    0.2820   -1.5680 C   0  0  0  0  0  0  0  0  0  0  0  0
   -6.2620    0.4410   -0.1790 C   0  0  1  0  0  0  0  0  0  0  0  0
   -6.3820   -0.8110    0.6520 C   0  0  0  0  0  0  0  0  0  0  0  0
   -5.0710   -1.5300    0.8370 C   0  0  0  0  0  0  0  0  0  0  0  0
   -4.2820   -1.3100   -0.4480 C   0  0  0  0  0  0  0  0  0  0  0  0
   -3.7830    0.0880   -0.5180 C   0  0  2  0  0  0  0  0  0  0  0  0
   -3.3080    0.3230   -1.9520 C   0  0  0  0  0  0  0  0  0  0  0  0
   -1.8370    0.2590   -2.1110 C   0  0  0  0  0  0  0  0  0  0  0  0
   -1.1370   -0.6860   -1.1770 C   0  0  0  0  0  0  0  0  0  0  0  0
   -1.4970   -0.5650    0.2500 C   0  0  1  0  0  0  0  0  0  0  0  0
   -0.4270   -0.4040    1.2380 C   0  0  1  0  0  0  0  0  0  0  0  0
    0.4100   -1.5190    1.1070 O   0  0  0  0  0  0  0  0  0  0  0  0
    0.3520    0.8180    1.3920 C   0  0  1  0  0  0  0  0  0  0  0  0
    1.3550    0.6320    2.5310 C   0  0  0  0  0  0  0  0  0  0  0  0
    2.5620   -0.1480    2.2120 C   0  0  0  0  0  0  0  0  0  0  0  0
    3.2570    0.4120    1.0230 C   0  0  1  0  0  0  0  0  0  0  0  0
    3.8630    1.6990    1.4180 C   0  0  0  0  0  0  0  0  0  0  0  0
    4.3360    2.7000    1.7370 N   0  0  0  0  0  0  0  0  0  0  0  0
    4.3640   -0.4960    0.5590 C   0  0  2  0  0  0  0  0  0  0  0  0
    3.8170   -1.7460    0.2180 O   0  0  0  0  0  0  0  0  0  0  0  0
    5.3870   -0.6880    1.6520 C   0  0  0  0  0  0  0  0  0  0  0  0
    6.5850   -1.4160    1.0640 C   0  0  0  0  0  0  0  0  0  0  0  0
    7.1910   -0.5210    0.1780 O   0  0  0  0  0  0  0  0  0  0  0  0
    6.3730   -0.4570   -0.9460 C   0  0  2  0  0  0  0  0  0  0  0  0
    7.0710    0.4580   -1.9400 C   0  0  0  0  0  0  0  0  0  0  0  0
    5.0200    0.1090   -0.6540 C   0  0  0  0  0  0  0  0  0  0  0  0
    2.3510    0.6840   -0.1430 C   0  0  0  0  0  0  0  0  0  0  0  0
    1.0840    1.3930    0.2500 C   0  0  0  0  0  0  0  0  0  0  0  0
   -2.6330    0.4220    0.3710 C   0  0  1  0  0  0  0  0  0  0  0  0
   -2.2630    1.7130   -0.0140 O   0  0  0  0  0  0  0  0  0  0  0  0
   -4.8910    1.0410   -0.1690 C   0  0  2  0  0  0  0  0  0  0  0  0
   -4.6910    1.6090    1.0890 O   0  0  0  0  0  0  0  0  0  0  0  0
  2  1  1  6
  2  3  1  0
  2 31  1  0
  3  4  1  0
  4  5  1  0
  6  5  1  6
  6  7  1  0
  6 29  1  0
  6 31  1  0
  7  8  1  0
  8  9  1  0
 10  9  1  6
 10 11  1  0
 10 29  1  0
 11 12  1  6
 11 13  1  0
 13 14  1  1
 13 28  1  0
 14 15  1  0
 15 16  1  0
 16 17  1  1
 16 19  1  0
 16 27  1  0
 17 18  3  0
 19 20  1  6
 19 21  1  0
 19 26  1  0
 21 22  1  0
 22 23  1  0
 23 24  1  0
 24 25  1  6
 24 26  1  0
 27 28  1  0
 29 30  1  6
 31 32  1  1
M  END
