
     RDKit          3D

 32 34  0  0  0  0  0  0  0  0999 V2000
    0.8420   -1.3450    2.4580 C   0  0  0  0  0  0  0  0  0  0  0  0
   -0.1440   -0.4850    1.8450 C   0  0  0  0  0  0  0  0  0  0  0  0
   -0.1980   -0.2180    0.3850 C   0  0  1  0  0  0  0  0  0  0  0  0
   -0.3520   -1.4840   -0.4350 C   0  0  0  0  0  0  0  0  0  0  0  0
   -1.6220   -2.2700   -0.3060 C   0  0  1  0  0  0  0  0  0  0  0  0
   -1.4810   -3.4560    0.6170 C   0  0  0  0  0  0  0  0  0  0  0  0
   -2.7200   -4.2810    0.7290 C   0  0  0  0  0  0  0  0  0  0  0  0
   -3.1890   -4.9810   -0.4860 C   0  0  0  0  0  0  0  0  0  0  0  0
   -3.5060   -4.2080   -1.5740 O   0  0  0  0  0  0  0  0  0  0  0  0
   -2.8280   -1.4350    0.0290 C   0  0  0  0  0  0  0  0  0  0  0  0
   -2.5290   -0.0860   -0.5830 C   0  0  0  0  0  0  0  0  0  0  0  0
   -1.4230    0.6570    0.1500 C   0  0  2  0  0  0  0  0  0  0  0  0
   -1.2910    1.9610   -0.5760 C   0  0  1  0  0  0  0  0  0  0  0  0
   -1.7530    1.7750   -2.0440 C   0  0  0  0  0  0  0  0  0  0  0  0
   -2.2320    2.9460    0.0680 C   0  0  0  0  0  0  0  0  0  0  0  0
   -2.3760    4.2980   -0.4110 C   0  0  2  0  0  0  0  0  0  0  0  0
   -3.4470    4.9590    0.5130 C   0  0  0  0  0  0  0  0  0  0  0  0
   -3.0330    4.2710   -1.6680 O   0  0  0  0  0  0  0  0  0  0  0  0
    0.0410    2.5610   -0.6780 C   0  0  1  0  0  0  0  0  0  0  0  0
    0.2190    3.8950   -0.6010 O   0  0  0  0  0  0  0  0  0  0  0  0
    0.8810    1.9170    0.4040 C   0  0  2  0  0  0  0  0  0  0  0  0
    2.2010    2.5370    0.6280 C   0  0  0  0  0  0  0  0  0  0  0  0
    2.8190    1.7370    1.8020 C   0  0  0  0  0  0  0  0  0  0  0  0
    3.2310    0.3770    1.2720 C   0  0  0  0  0  0  0  0  0  0  0  0
    2.3480   -0.0120    0.1540 N   0  0  0  0  0  0  0  0  0  0  0  0
    2.9770   -0.9030   -0.7620 C   0  0  0  0  0  0  0  0  0  0  0  0
    2.3280   -1.2680   -1.7740 O   0  0  0  0  0  0  0  0  0  0  0  0
    4.3600   -1.4340   -0.6080 C   0  0  1  0  0  0  0  0  0  0  0  0
    4.3620   -2.8150   -1.3000 C   0  0  0  0  0  0  0  0  0  0  0  0
    5.3890   -0.6460   -1.3860 C   0  0  0  0  0  0  0  0  0  0  0  0
    5.1040   -0.6580   -2.7590 O   0  0  0  0  0  0  0  0  0  0  0  0
    1.0450    0.4700   -0.0650 C   0  0  1  0  0  0  0  0  0  0  0  0
  1  2  1  0
  3  2  1  1
  3  4  1  0
  3 12  1  0
  3 32  1  0
  4  5  1  0
  5  6  1  1
  5 10  1  0
  6  7  1  0
  7  8  1  0
  8  9  1  0
 10 11  1  0
 12 11  1  6
 12 13  1  0
 13 14  1  6
 13 15  1  0
 13 19  1  0
 15 16  1  0
 16 17  1  1
 16 18  1  0
 19 20  1  1
 19 21  1  0
 21 22  1  6
 21 32  1  0
 22 23  1  0
 23 24  1  0
 24 25  1  0
 25 26  1  0
 32 25  1  1
 26 27  2  0
 26 28  1  0
 28 29  1  6
 28 30  1  0
 30 31  1  0
M  END
