
     RDKit          3D

 32 33  0  0  0  0  0  0  0  0999 V2000
   -4.8250   -0.0270    1.9510 C   0  0  0  0  0  0  0  0  0  0  0  0
   -3.8510   -0.8930    1.3390 N   0  0  0  0  0  0  0  0  0  0  0  0
   -3.4900   -0.7100   -0.0130 C   0  0  0  0  0  0  0  0  0  0  0  0
   -2.2450   -0.7110   -0.4620 C   0  0  0  0  0  0  0  0  0  0  0  0
   -1.0830   -0.9020    0.3770 C   0  0  0  0  0  0  0  0  0  0  0  0
   -1.1270   -1.8300    1.3730 N   0  0  0  0  0  0  0  0  0  0  0  0
   -0.0970   -2.1080    2.1310 N   0  0  0  0  0  0  0  0  0  0  0  0
   -0.1620   -3.1170    3.1990 C   0  0  0  0  0  0  0  0  0  0  0  0
    1.0630   -1.4730    1.9520 C   0  0  0  0  0  0  0  0  0  0  0  0
    2.0800   -1.7140    2.6660 O   0  0  0  0  0  0  0  0  0  0  0  0
    1.1520   -0.4940    0.9260 C   0  0  0  0  0  0  0  0  0  0  0  0
    2.4260    0.1870    0.8120 C   0  0  0  0  0  0  0  0  0  0  0  0
    2.5380    1.4230    0.6690 O   0  0  0  0  0  0  0  0  0  0  0  0
    3.6280   -0.5620    0.8590 N   0  0  0  0  0  0  0  0  0  0  0  0
    4.9190    0.0690    0.7540 C   0  0  0  0  0  0  0  0  0  0  0  0
    5.6990   -0.2860   -0.2420 C   0  0  0  0  0  0  0  0  0  0  0  0
    5.2710   -1.3050   -1.2320 C   0  0  0  0  0  0  0  0  0  0  0  0
    6.1510   -2.3720   -1.2160 F   0  0  0  0  0  0  0  0  0  0  0  0
    5.3880    1.0450    1.6640 N   0  0  0  0  0  0  0  0  0  0  0  0
    5.8180    0.7670    2.8440 C   0  0  0  0  0  0  0  0  0  0  0  0
    5.8750   -0.4830    3.3570 F   0  0  0  0  0  0  0  0  0  0  0  0
    6.2470    1.7850    3.6330 F   0  0  0  0  0  0  0  0  0  0  0  0
    0.0940   -0.1920    0.1240 C   0  0  0  0  0  0  0  0  0  0  0  0
    0.1610    0.8430   -0.8860 C   0  0  0  0  0  0  0  0  0  0  0  0
   -0.8930    1.6080   -1.1580 C   0  0  0  0  0  0  0  0  0  0  0  0
   -0.8190    2.6730   -2.2100 C   0  0  0  0  0  0  0  0  0  0  0  0
    0.4800    3.4200   -1.8940 C   0  0  0  0  0  0  0  0  0  0  0  0
    1.6420    2.4780   -2.1210 C   0  0  0  0  0  0  0  0  0  0  0  0
    1.3160    1.0600   -1.8040 C   0  0  0  0  0  0  0  0  0  0  0  0
   -4.5560   -0.5090   -0.9670 N   0  0  0  0  0  0  0  0  0  0  0  0
   -5.2190    0.7520   -1.1390 C   0  0  0  0  0  0  0  0  0  0  0  0
   -4.9190   -1.6760   -1.7490 C   0  0  0  0  0  0  0  0  0  0  0  0
  1  2  1  0
  2  3  1  0
  3  4  2  3
  3 30  1  0
  4  5  1  0
  5  6  2  0
  5 23  1  0
  6  7  1  0
  7  8  1  0
  7  9  1  0
  9 10  2  0
  9 11  1  0
 11 12  1  0
 11 23  2  0
 12 13  2  0
 12 14  1  0
 14 15  1  0
 15 16  2  3
 15 19  1  0
 16 17  1  0
 17 18  1  0
 19 20  2  3
 20 21  1  0
 20 22  1  0
 23 24  1  0
 24 25  2  0
 24 29  1  0
 25 26  1  0
 26 27  1  0
 27 28  1  0
 28 29  1  0
 30 31  1  0
 30 32  1  0
M  END
