
     RDKit          3D

 16 16  0  0  0  0  0  0  0  0999 V2000
    3.9050   -0.5330    0.4910 N   0  0  0  0  0  0  0  0  0  0  0  0
    3.2810   -0.6400   -0.7810 C   0  0  0  0  0  0  0  0  0  0  0  0
    3.8010   -0.0040   -1.7980 C   0  0  0  0  0  0  0  0  0  0  0  0
    4.9360    0.7570   -1.6320 O   0  0  0  0  0  0  0  0  0  0  0  0
    2.0670   -1.4510   -0.9670 C   0  0  0  0  0  0  0  0  0  0  0  0
    0.9440   -0.9020   -0.0580 C   0  0  0  0  0  0  0  0  0  0  0  0
    0.6500    0.5070   -0.4090 C   0  0  0  0  0  0  0  0  0  0  0  0
   -0.3750    1.2260    0.3670 C   0  0  2  0  0  0  0  0  0  0  0  0
   -0.1400    1.3600    1.7810 N   0  0  0  0  0  0  0  0  0  0  0  0
   -1.8060    0.8510    0.1460 C   0  0  2  0  0  0  0  0  0  0  0  0
   -2.5400    1.9640    0.6640 O   0  0  0  0  0  0  0  0  0  0  0  0
   -2.2790   -0.2940    1.0430 C   0  0  0  0  0  0  0  0  0  0  0  0
   -3.4320   -0.9550    0.3180 C   0  0  0  0  0  0  0  0  0  0  0  0
   -2.8840   -1.5070   -0.9750 C   0  0  0  0  0  0  0  0  0  0  0  0
   -2.2070   -0.6000   -1.7420 O   0  0  0  0  0  0  0  0  0  0  0  0
   -2.2250    0.6950   -1.2660 C   0  0  0  0  0  0  0  0  0  0  0  0
  1  2  1  0
  2  3  2  3
  2  5  1  0
  3  4  1  0
  5  6  1  0
  6  7  1  0
  7  8  1  0
  8  9  1  1
  8 10  1  0
 10 11  1  1
 10 12  1  0
 10 16  1  0
 12 13  1  0
 13 14  1  0
 14 15  1  0
 15 16  1  0
M  CHG  1   9   1
M  END
