
     RDKit          3D

  3  2  0  0  0  0  0  0  0  0999 V2000
   -0.9510    0.2710   -0.1790 C   0  0  0  0  0  0  0  0  0  0  0  0
    0.2740   -0.5880    0.1340 C   0  0  0  0  0  0  0  0  0  0  0  0
    1.7950    0.2200   -0.4050 S   0  0  0  0  0  0  0  0  0  0  0  0
  1  2  1  0
  2  3  1  0
M  END
