
     RDKit          3D

 16 16  0  0  0  0  0  0  0  0999 V2000
    5.3200    0.0530    1.0010 N   0  0  0  0  0  0  0  0  0  0  0  0
    4.3140    0.8070    1.1020 C   0  0  0  0  0  0  0  0  0  0  0  0
    3.0430    0.4530    0.4750 C   0  0  0  0  0  0  0  0  0  0  0  0
    2.9520   -0.6750   -0.2020 C   0  0  0  0  0  0  0  0  0  0  0  0
    1.7430   -1.1870   -0.8970 C   0  0  0  0  0  0  0  0  0  0  0  0
    0.5830   -1.0710   -0.1370 O   0  0  0  0  0  0  0  0  0  0  0  0
   -0.3140   -2.0340   -0.5090 C   0  0  0  0  0  0  0  0  0  0  0  0
   -1.6860   -1.4120   -0.6360 C   0  0  0  0  0  0  0  0  0  0  0  0
   -2.0320   -0.5610    0.5460 C   0  0  2  0  0  0  0  0  0  0  0  0
   -3.1840   -1.1210    1.2580 N   0  0  0  0  0  0  0  0  0  0  0  0
   -2.4620    0.8280    0.0940 C   0  0  2  0  0  0  0  0  0  0  0  0
   -3.4490    0.6430   -0.8700 O   0  0  0  0  0  0  0  0  0  0  0  0
   -1.3170    1.5690   -0.5640 C   0  0  0  0  0  0  0  0  0  0  0  0
   -0.2680    1.9910    0.4090 C   0  0  0  0  0  0  0  0  0  0  0  0
    1.0860    1.8430   -0.2590 C   0  0  0  0  0  0  0  0  0  0  0  0
    2.0200    1.3590    0.6530 O   0  0  0  0  0  0  0  0  0  0  0  0
  1  2  2  0
  2  3  1  0
  3  4  2  0
  3 16  1  0
  4  5  1  0
  5  6  1  0
  6  7  1  0
  7  8  1  0
  8  9  1  0
  9 10  1  6
  9 11  1  0
 11 12  1  6
 11 13  1  0
 13 14  1  0
 14 15  1  0
 15 16  1  0
M  CHG  1  10   1
M  END
