
     RDKit          3D

 25 26  0  0  0  0  0  0  0  0999 V2000
    0.9610   -1.8350    0.2770 C   0  0  0  0  0  0  0  0  0  0  0  0
    0.8180   -0.3180   -0.0280 C   0  0  2  0  0  0  0  0  0  0  0  0
    2.0250    0.1440   -0.6770 C   0  0  0  0  0  0  0  0  0  0  0  0
    2.3060    0.5390   -1.7200 O   0  0  0  0  0  0  0  0  0  0  0  0
    3.3730    0.0610    0.4290 N   0  0  0  0  0  0  0  0  0  0  0  0
    4.3580    0.4270   -0.4550 C   0  0  0  0  0  0  0  0  0  0  0  0
    4.3870    0.7100   -1.6240 O   0  0  0  0  0  0  0  0  0  0  0  0
    5.6710    0.4480    0.2670 N   0  0  0  0  0  0  0  0  0  0  0  0
    6.8890    0.7440   -0.3430 C   0  0  0  0  0  0  0  0  0  0  0  0
    6.9400    2.0990   -0.9040 C   0  0  0  0  0  0  0  0  0  0  0  0
    6.0020    2.9890   -0.8210 C   0  0  0  0  0  0  0  0  0  0  0  0
    6.1230    4.2490   -1.3790 O   0  0  0  0  0  0  0  0  0  0  0  0
    0.3910    0.3450    1.2240 C   0  0  0  0  0  0  0  0  0  0  0  0
   -1.1170    0.0510    1.1900 C   0  0  0  0  0  0  0  0  0  0  0  0
   -1.8860    0.0670    2.3290 O   0  0  0  0  0  0  0  0  0  0  0  0
   -1.4540   -0.1860   -0.0390 C   0  0  0  0  0  0  0  0  0  0  0  0
   -2.7950   -0.5030   -0.5530 C   0  0  0  0  0  0  0  0  0  0  0  0
   -2.9150   -0.6950   -1.8010 O   0  0  0  0  0  0  0  0  0  0  0  0
   -3.9250   -0.5860    0.2860 N   0  0  0  0  0  0  0  0  0  0  0  0
   -5.2150   -0.8470   -0.3420 C   0  0  1  0  0  0  0  0  0  0  0  0
   -5.9100   -2.0740    0.1690 C   0  0  0  0  0  0  0  0  0  0  0  0
   -7.3740   -1.6050    0.1170 C   0  0  0  0  0  0  0  0  0  0  0  0
   -7.3070   -0.2860    0.5790 O   0  0  0  0  0  0  0  0  0  0  0  0
   -6.1920    0.2650   -0.0260 C   0  0  0  0  0  0  0  0  0  0  0  0
   -0.3210   -0.1070   -0.8730 O   0  0  0  0  0  0  0  0  0  0  0  0
  2  1  1  1
  2  3  1  0
  2 13  1  0
  2 25  1  0
  3  4  2  0
  3  5  1  0
  5  6  1  0
  6  7  2  0
  6  8  1  0
  8  9  1  0
  9 10  1  0
 10 11  2  3
 11 12  1  0
 13 14  1  0
 14 15  1  0
 14 16  2  0
 16 17  1  0
 16 25  1  0
 17 18  2  0
 17 19  1  0
 20 19  1  1
 20 21  1  0
 20 24  1  0
 21 22  1  0
 22 23  1  0
 23 24  1  0
M  END
