
     RDKit          3D

  3  2  0  0  0  0  0  0  0  0999 V2000
   -0.7810    0.1090   -0.0240 C   0  0  0  0  0  0  0  0  0  0  0  0
    0.6750   -0.3000   -0.0140 C   0  0  0  0  0  0  0  0  0  0  0  0
    1.7350    1.2740   -0.3030 Br  0  0  0  0  0  0  0  0  0  0  0  0
  1  2  1  0
  2  3  1  0
M  END
