
     RDKit          3D

  3  2  0  0  0  0  0  0  0  0999 V2000
   -1.2700   -0.0390    0.1300 C   0  0  0  0  0  0  0  0  0  0  0  0
    0.0770   -0.5040   -0.3960 C   0  0  0  0  0  0  0  0  0  0  0  0
    1.2120    0.3340    0.1470 C   0  0  0  0  0  0  0  0  0  0  0  0
  1  2  1  0
  2  3  1  0
M  END
