
     RDKit          3D

 44 48  0  0  0  0  0  0  0  0999 V2000
   10.2990   -0.6000    0.0950 N   0  0  0  0  0  0  0  0  0  0  0  0
    9.6260    0.0120    1.1760 C   0  0  0  0  0  0  0  0  0  0  0  0
   10.1620    0.0830    2.3110 O   0  0  0  0  0  0  0  0  0  0  0  0
    8.2850    0.5710    0.9620 C   0  0  0  0  0  0  0  0  0  0  0  0
    7.6230    1.1750    2.0320 C   0  0  0  0  0  0  0  0  0  0  0  0
    6.3800    1.6800    1.7910 C   0  0  0  0  0  0  0  0  0  0  0  0
    5.8260    1.5840    0.5330 C   0  0  0  0  0  0  0  0  0  0  0  0
    6.4640    1.0020   -0.4970 N   0  0  0  0  0  0  0  0  0  0  0  0
    5.8260    0.9320   -1.8000 C   0  0  2  0  0  0  0  0  0  0  0  0
    4.4960    1.2210   -1.6510 O   0  0  0  0  0  0  0  0  0  0  0  0
    3.7690    0.0670   -1.5950 C   0  0  2  0  0  0  0  0  0  0  0  0
    2.7770    0.0080   -0.4760 C   0  0  0  0  0  0  0  0  0  0  0  0
    2.1050   -1.2090   -0.5270 O   0  0  0  0  0  0  0  0  0  0  0  0
    0.9760   -1.3040    0.7260 P   0  0  1  0  0  0  0  0  0  0  0  0
    1.4490   -2.3210    1.7590 O   0  0  0  0  0  0  0  0  0  0  0  0
    0.8990    0.1920    1.5040 O   0  0  0  0  0  0  0  0  0  0  0  0
   -0.5380   -1.7620    0.1180 O   0  0  0  0  0  0  0  0  0  0  0  0
   -1.5910   -0.4710   -0.0250 P   0  0  1  0  0  0  0  0  0  0  0  0
   -0.8890    0.7830   -0.5250 O   0  0  0  0  0  0  0  0  0  0  0  0
   -2.7720   -0.8610   -1.1860 O   0  0  0  0  0  0  0  0  0  0  0  0
   -2.3240   -0.0620    1.4470 O   0  0  0  0  0  0  0  0  0  0  0  0
   -3.4270    0.7500    1.1440 C   0  0  0  0  0  0  0  0  0  0  0  0
   -4.1460    1.1650    2.4110 C   0  0  1  0  0  0  0  0  0  0  0  0
   -5.2190    1.9570    2.1060 O   0  0  0  0  0  0  0  0  0  0  0  0
   -6.2870    1.1610    1.7700 C   0  0  1  0  0  0  0  0  0  0  0  0
   -6.5610    1.1450    0.3510 N   0  0  0  0  0  0  0  0  0  0  0  0
   -6.1140    1.9340   -0.6240 C   0  0  0  0  0  0  0  0  0  0  0  0
   -6.6300    1.5570   -1.7990 N   0  0  0  0  0  0  0  0  0  0  0  0
   -7.4300    0.5010   -1.5870 C   0  0  0  0  0  0  0  0  0  0  0  0
   -8.1960   -0.2640   -2.4380 C   0  0  0  0  0  0  0  0  0  0  0  0
   -8.2750   -0.0400   -3.8390 N   0  0  0  0  0  0  0  0  0  0  0  0
   -8.8940   -1.2700   -1.8890 N   0  0  0  0  0  0  0  0  0  0  0  0
   -8.8730   -1.5480   -0.5740 C   0  0  0  0  0  0  0  0  0  0  0  0
   -8.1190   -0.7860    0.2290 N   0  0  0  0  0  0  0  0  0  0  0  0
   -7.3850    0.2440   -0.2300 C   0  0  0  0  0  0  0  0  0  0  0  0
   -6.0350   -0.2160    2.3210 C   0  0  2  0  0  0  0  0  0  0  0  0
   -7.0280   -0.6450    3.1910 O   0  0  0  0  0  0  0  0  0  0  0  0
   -4.7080   -0.1060    3.0290 C   0  0  2  0  0  0  0  0  0  0  0  0
   -4.8530    0.0130    4.4040 O   0  0  0  0  0  0  0  0  0  0  0  0
    4.7160   -1.1020   -1.6190 C   0  0  1  0  0  0  0  0  0  0  0  0
    4.1900   -2.1850   -2.2760 O   0  0  0  0  0  0  0  0  0  0  0  0
    5.8970   -0.4820   -2.3780 C   0  0  1  0  0  0  0  0  0  0  0  0
    5.5790   -0.4270   -3.7200 O   0  0  0  0  0  0  0  0  0  0  0  0
    7.6890    0.5020   -0.2660 C   0  0  0  0  0  0  0  0  0  0  0  0
  1  2  1  0
  2  3  2  0
  2  4  1  0
  4  5  2  0
  4 44  1  0
  5  6  1  0
  6  7  2  0
  7  8  1  0
  9  8  1  1
  8 44  2  0
  9 10  1  0
  9 42  1  0
 10 11  1  0
 11 12  1  1
 11 40  1  0
 12 13  1  0
 13 14  1  0
 14 15  2  0
 14 16  1  1
 14 17  1  0
 17 18  1  0
 18 19  2  0
 18 20  1  6
 18 21  1  0
 21 22  1  0
 23 22  1  6
 23 24  1  0
 23 38  1  0
 24 25  1  0
 25 26  1  6
 25 36  1  0
 26 27  1  0
 26 35  1  0
 27 28  2  0
 28 29  1  0
 29 30  2  0
 29 35  1  0
 30 31  1  0
 30 32  1  0
 32 33  2  0
 33 34  1  0
 34 35  2  0
 36 37  1  1
 36 38  1  0
 38 39  1  1
 40 41  1  6
 40 42  1  0
 42 43  1  6
M  CHG  2   8   1  16  -1
M  END
