
     RDKit          3D

 43 46  0  0  0  0  0  0  0  0999 V2000
    9.2250    3.6300    1.1950 C   0  0  0  0  0  0  0  0  0  0  0  0
    9.4660    2.2350    1.7040 C   0  0  0  0  0  0  0  0  0  0  0  0
    9.3490    1.2770    0.6680 O   0  0  0  0  0  0  0  0  0  0  0  0
    8.1980    1.0790   -0.0720 C   0  0  0  0  0  0  0  0  0  0  0  0
    7.1860    1.7800    0.1730 O   0  0  0  0  0  0  0  0  0  0  0  0
    8.0950    0.1390   -1.0830 O   0  0  0  0  0  0  0  0  0  0  0  0
    6.8750   -0.0270   -1.8220 C   0  0  0  0  0  0  0  0  0  0  0  0
    5.7900   -0.4010   -0.8770 C   0  0  0  0  0  0  0  0  0  0  0  0
    5.7780   -0.5850    0.3930 O   0  0  0  0  0  0  0  0  0  0  0  0
    4.5540   -0.9160    0.8130 C   0  0  0  0  0  0  0  0  0  0  0  0
    4.3110   -1.1400    2.0330 N   0  0  0  0  0  0  0  0  0  0  0  0
    3.6980   -0.9620   -0.2080 N   0  0  0  0  0  0  0  0  0  0  0  0
    2.3750   -1.2350   -0.3300 C   0  0  0  0  0  0  0  0  0  0  0  0
    1.6520   -1.6870    0.6190 C   0  0  0  0  0  0  0  0  0  0  0  0
    1.8220   -2.0420    1.9940 C   0  0  0  0  0  0  0  0  0  0  0  0
    2.2220   -3.2860    2.5060 C   0  0  0  0  0  0  0  0  0  0  0  0
    2.2460   -3.2010    3.8200 N   0  0  0  0  0  0  0  0  0  0  0  0
    1.8790   -1.9610    4.1520 C   0  0  0  0  0  0  0  0  0  0  0  0
    1.6310   -1.2850    3.0720 O   0  0  0  0  0  0  0  0  0  0  0  0
    1.7940   -1.1630   -1.6020 C   0  0  0  0  0  0  0  0  0  0  0  0
    0.5360   -1.0610   -1.9000 C   0  0  0  0  0  0  0  0  0  0  0  0
   -0.6400   -0.9600   -1.1160 C   0  0  0  0  0  0  0  0  0  0  0  0
   -1.8730   -0.9340   -1.6480 C   0  0  0  0  0  0  0  0  0  0  0  0
   -3.0940   -0.8330   -0.8880 N   0  0  0  0  0  0  0  0  0  0  0  0
   -4.1100   -0.8340   -1.6830 C   0  0  0  0  0  0  0  0  0  0  0  0
   -5.4530   -0.7450   -1.2200 N   0  0  0  0  0  0  0  0  0  0  0  0
   -5.8150   -0.0510   -0.0190 C   0  0  2  0  0  0  0  0  0  0  0  0
   -7.3130   -0.1280    0.2240 C   0  0  0  0  0  0  0  0  0  0  0  0
   -7.6190    0.5490    1.3830 O   0  0  0  0  0  0  0  0  0  0  0  0
   -8.9520    0.5360    1.7080 C   0  0  0  0  0  0  0  0  0  0  0  0
   -9.8180    1.1630    0.6540 C   0  0  0  0  0  0  0  0  0  0  0  0
  -11.1390    1.0780    1.1250 O   0  0  0  0  0  0  0  0  0  0  0  0
  -11.9460    1.6160    0.2360 O   0  0  0  0  0  0  0  0  0  0  0  0
   -5.4300    1.3860   -0.0660 C   0  0  0  0  0  0  0  0  0  0  0  0
   -4.8620    1.7980   -1.1030 O   0  0  0  0  0  0  0  0  0  0  0  0
   -5.6770    2.2430    0.9710 O   0  0  0  0  0  0  0  0  0  0  0  0
   -3.6840   -0.9330   -3.0130 O   0  0  0  0  0  0  0  0  0  0  0  0
   -2.2740   -0.9990   -3.0300 C   0  0  0  0  0  0  0  0  0  0  0  0
   -1.6010   -1.0920   -4.0790 O   0  0  0  0  0  0  0  0  0  0  0  0
    2.6420   -0.8270   -2.6930 C   0  0  0  0  0  0  0  0  0  0  0  0
    2.2760   -0.7350   -3.9060 N   0  0  0  0  0  0  0  0  0  0  0  0
    3.9130   -0.5920   -2.4360 O   0  0  0  0  0  0  0  0  0  0  0  0
    4.4720   -0.6370   -1.2780 C   0  0  0  0  0  0  0  0  0  0  0  0
  1  2  1  0
  2  3  1  0
  3  4  1  0
  4  5  2  0
  4  6  1  0
  6  7  1  0
  7  8  1  0
  8  9  1  0
  8 43  2  0
  9 10  1  0
 10 11  2  0
 10 12  1  0
 12 13  1  0
 12 43  1  0
 13 14  2  3
 13 20  1  0
 14 15  1  0
 15 16  2  0
 15 19  1  0
 16 17  1  0
 17 18  2  0
 18 19  1  0
 20 21  2  3
 20 40  1  0
 21 22  1  0
 22 23  2  3
 23 24  1  0
 23 38  1  0
 24 25  2  0
 25 26  1  0
 25 37  1  0
 26 27  1  0
 27 28  1  6
 27 34  1  0
 28 29  1  0
 29 30  1  0
 30 31  1  0
 31 32  1  0
 32 33  1  0
 34 35  2  0
 34 36  1  0
 37 38  1  0
 38 39  2  0
 40 41  2  0
 40 42  1  0
 42 43  1  0
M  END
