
     RDKit          3D

 43 46  0  0  0  0  0  0  0  0999 V2000
    6.8780    1.9130    1.2040 C   0  0  0  0  0  0  0  0  0  0  0  0
    6.7190    1.5860   -0.1680 O   0  0  0  0  0  0  0  0  0  0  0  0
    5.7890    0.6480   -0.5370 C   0  0  0  0  0  0  0  0  0  0  0  0
    5.6510    0.3400   -1.8950 C   0  0  0  0  0  0  0  0  0  0  0  0
    4.7240   -0.5950   -2.2750 C   0  0  0  0  0  0  0  0  0  0  0  0
    3.9410   -1.2180   -1.3080 C   0  0  0  0  0  0  0  0  0  0  0  0
    4.0640   -0.9260    0.0290 C   0  0  0  0  0  0  0  0  0  0  0  0
    3.2130   -1.6240    1.0120 C   0  0  0  0  0  0  0  0  0  0  0  0
    1.8940   -0.9020    1.2280 C   0  0  2  0  0  0  0  0  0  0  0  0
    1.1610   -1.7820    2.2840 C   0  0  0  0  0  0  0  0  0  0  0  0
    0.7030   -1.2680    3.3430 N   0  0  0  0  0  0  0  0  0  0  0  0
    0.7590    0.1400    3.7480 C   0  0  0  0  0  0  0  0  0  0  0  0
    0.3400    1.0820    3.0920 N   0  0  0  0  0  0  0  0  0  0  0  0
   -0.2180    1.8370    2.1170 C   0  0  0  0  0  0  0  0  0  0  0  0
   -0.0120    3.1280    2.2610 O   0  0  0  0  0  0  0  0  0  0  0  0
   -0.9690    1.5320    0.9900 O   0  0  0  0  0  0  0  0  0  0  0  0
   -1.9670    0.6620    0.6830 C   0  0  0  0  0  0  0  0  0  0  0  0
   -2.7530    0.8540   -0.5960 C   0  0  1  0  0  0  0  0  0  0  0  0
   -3.0420   -0.3680   -1.1510 O   0  0  0  0  0  0  0  0  0  0  0  0
   -3.6610   -1.3310   -0.4710 C   0  0  0  0  0  0  0  0  0  0  0  0
   -5.0270   -1.0860    0.0940 C   0  0  0  0  0  0  0  0  0  0  0  0
   -5.4690   -2.2500    0.7530 O   0  0  0  0  0  0  0  0  0  0  0  0
   -6.6440   -2.1260    1.2750 O   0  0  0  0  0  0  0  0  0  0  0  0
   -7.0860   -0.9010    1.3200 O   0  0  0  0  0  0  0  0  0  0  0  0
   -3.9850    1.4480   -0.2350 O   0  0  0  0  0  0  0  0  0  0  0  0
   -4.1370    2.6450    0.4230 C   0  0  0  0  0  0  0  0  0  0  0  0
   -3.1130    3.2920    0.7510 O   0  0  0  0  0  0  0  0  0  0  0  0
   -5.4200    3.1540    0.7340 O   0  0  0  0  0  0  0  0  0  0  0  0
   -2.0580    1.6220   -1.6700 C   0  0  0  0  0  0  0  0  0  0  0  0
   -1.8840    2.8520   -1.4640 O   0  0  0  0  0  0  0  0  0  0  0  0
   -1.5560    1.1220   -2.9370 N   0  0  0  0  0  0  0  0  0  0  0  0
   -1.7390    1.9900   -4.0820 C   0  0  0  0  0  0  0  0  0  0  0  0
   -0.8820   -0.1490   -3.0190 C   0  0  0  0  0  0  0  0  0  0  0  0
   -0.9590   -0.6810   -4.1910 O   0  0  0  0  0  0  0  0  0  0  0  0
   -0.1470   -0.8700   -1.9290 C   0  0  0  0  0  0  0  0  0  0  0  0
    0.6570   -0.3600   -1.0210 C   0  0  0  0  0  0  0  0  0  0  0  0
    1.0970   -1.1530    0.0600 N   0  0  0  0  0  0  0  0  0  0  0  0
    0.7420   -2.5310    0.2480 C   0  0  0  0  0  0  0  0  0  0  0  0
    1.2830   -2.9360    1.4340 N   0  0  0  0  0  0  0  0  0  0  0  0
   -0.1050   -3.1450   -0.7160 N   0  0  0  0  0  0  0  0  0  0  0  0
   -0.5260   -2.2870   -1.7810 C   0  0  0  0  0  0  0  0  0  0  0  0
   -1.2970   -2.7630   -2.7000 O   0  0  0  0  0  0  0  0  0  0  0  0
    4.9910    0.0090    0.4120 C   0  0  0  0  0  0  0  0  0  0  0  0
  1  2  1  0
  2  3  1  0
  3  4  2  0
  3 43  1  0
  4  5  1  0
  5  6  2  0
  6  7  1  0
  7  8  1  0
  7 43  2  0
  9  8  1  6
  9 10  1  0
  9 37  1  0
 10 11  2  0
 10 39  1  0
 11 12  1  0
 12 13  2  0
 13 14  1  0
 14 15  2  0
 14 16  1  0
 16 17  1  0
 17 18  1  0
 18 19  1  6
 18 25  1  0
 18 29  1  0
 19 20  1  0
 20 21  1  0
 21 22  1  0
 22 23  1  0
 23 24  1  0
 25 26  1  0
 26 27  2  0
 26 28  1  0
 29 30  2  0
 29 31  1  0
 31 32  1  0
 31 33  1  0
 33 34  2  0
 33 35  1  0
 35 36  2  0
 35 41  1  0
 36 37  1  0
 37 38  1  0
 38 39  2  0
 38 40  1  0
 40 41  1  0
 41 42  2  0
M  END
