
     RDKit          3D

 44 48  0  0  0  0  0  0  0  0999 V2000
    4.1710    0.3610    1.3940 C   0  0  0  0  0  0  0  0  0  0  0  0
    3.5840   -0.1130    0.1010 C   0  0  1  0  0  0  0  0  0  0  0  0
    4.7130   -0.3940   -0.8900 C   0  0  0  0  0  0  0  0  0  0  0  0
    5.2450    0.6410   -1.5760 O   0  0  0  0  0  0  0  0  0  0  0  0
    5.9480    1.7340   -1.2150 C   0  0  0  0  0  0  0  0  0  0  0  0
    6.2490    1.9580   -0.0220 O   0  0  0  0  0  0  0  0  0  0  0  0
    6.3800    2.6790   -2.1630 O   0  0  0  0  0  0  0  0  0  0  0  0
    3.0400   -1.5870    0.3590 C   0  0  0  0  0  0  0  0  0  0  0  0
    1.9060   -1.8640   -0.5850 C   0  0  0  0  0  0  0  0  0  0  0  0
    0.8310   -2.4840    0.1510 N   0  0  0  0  0  0  0  0  0  0  0  0
    1.0290   -3.8100    0.6100 C   0  0  0  0  0  0  0  0  0  0  0  0
    2.1120   -4.4330    0.3840 O   0  0  0  0  0  0  0  0  0  0  0  0
    0.0970   -4.5440    1.3290 O   0  0  0  0  0  0  0  0  0  0  0  0
   -0.4340   -1.7610    0.4170 C   0  0  2  0  0  0  0  0  0  0  0  0
   -0.4980   -1.6890    1.9200 C   0  0  0  0  0  0  0  0  0  0  0  0
   -0.1460   -0.4060    2.5470 C   0  0  0  0  0  0  0  0  0  0  0  0
    0.9160    0.3360    2.0490 O   0  0  0  0  0  0  0  0  0  0  0  0
    0.8760    1.7620    1.8640 C   0  0  0  0  0  0  0  0  0  0  0  0
    1.7560    2.5070    2.3560 O   0  0  0  0  0  0  0  0  0  0  0  0
   -0.2040    2.3610    1.0940 C   0  0  0  0  0  0  0  0  0  0  0  0
   -0.5120    1.9790   -0.1510 C   0  0  0  0  0  0  0  0  0  0  0  0
    0.4150    1.5380   -1.1570 N   0  0  0  0  0  0  0  0  0  0  0  0
    1.8250    1.3880   -1.1040 C   0  0  0  0  0  0  0  0  0  0  0  0
    2.4260    2.2990   -1.8430 O   0  0  0  0  0  0  0  0  0  0  0  0
    2.5910    0.5290   -0.4720 O   0  0  0  0  0  0  0  0  0  0  0  0
   -1.9750    2.2120   -0.2090 C   0  0  2  0  0  0  0  0  0  0  0  0
   -2.6010    2.0670   -1.4940 C   0  0  0  0  0  0  0  0  0  0  0  0
   -2.6970    3.0470   -2.2800 O   0  0  0  0  0  0  0  0  0  0  0  0
   -3.0840    0.8120   -1.8220 O   0  0  0  0  0  0  0  0  0  0  0  0
   -4.0370    0.0120   -1.2340 C   0  0  1  0  0  0  0  0  0  0  0  0
   -5.1970    0.8550   -0.7290 C   0  0  0  0  0  0  0  0  0  0  0  0
   -4.6620   -0.8170   -2.3660 C   0  0  0  0  0  0  0  0  0  0  0  0
   -4.5360   -2.1870   -2.1610 O   0  0  0  0  0  0  0  0  0  0  0  0
   -3.3360   -2.7130   -1.7130 C   0  0  0  0  0  0  0  0  0  0  0  0
   -2.7540   -3.7040   -2.2110 O   0  0  0  0  0  0  0  0  0  0  0  0
   -2.7590   -1.9900   -0.5480 N   0  0  0  0  0  0  0  0  0  0  0  0
   -1.5360   -2.5740   -0.1220 C   0  0  0  0  0  0  0  0  0  0  0  0
   -3.5600   -0.9280   -0.1550 C   0  0  0  0  0  0  0  0  0  0  0  0
   -3.9930   -0.5860    1.0070 O   0  0  0  0  0  0  0  0  0  0  0  0
   -2.1440    3.4530    0.5290 N   0  0  0  0  0  0  0  0  0  0  0  0
   -2.9550    4.4940    0.7350 C   0  0  0  0  0  0  0  0  0  0  0  0
   -2.5600    5.0440    1.8870 N   0  0  0  0  0  0  0  0  0  0  0  0
   -1.5340    4.3640    2.3690 N   0  0  0  0  0  0  0  0  0  0  0  0
   -1.2460    3.3460    1.5080 C   0  0  0  0  0  0  0  0  0  0  0  0
  2  1  1  1
  2  3  1  0
  2  8  1  0
  2 25  1  0
  3  4  1  0
  4  5  1  0
  5  6  2  0
  5  7  1  0
  8  9  1  0
  9 10  1  0
 10 11  1  0
 10 14  1  0
 11 12  2  0
 11 13  1  0
 14 15  1  0
 14 37  1  1
 15 16  1  0
 16 17  1  0
 17 18  1  0
 18 19  2  0
 18 20  1  0
 20 21  2  0
 20 44  1  0
 21 22  1  0
 21 26  1  0
 22 23  1  0
 23 24  2  0
 23 25  1  0
 26 27  1  0
 26 40  1  6
 27 28  2  0
 27 29  1  0
 29 30  1  0
 30 31  1  1
 30 32  1  0
 30 38  1  0
 32 33  1  0
 33 34  1  0
 34 35  2  0
 34 36  1  0
 36 37  1  0
 36 38  1  0
 38 39  2  0
 40 41  1  0
 40 44  1  0
 41 42  2  0
 42 43  1  0
 43 44  2  0
M  END
