
     RDKit          3D

 43 45  0  0  0  0  0  0  0  0999 V2000
   -1.5170   -2.0100   -1.2950 C   0  0  0  0  0  0  0  0  0  0  0  0
   -0.8740   -1.7690    0.0590 C   0  0  1  0  0  0  0  0  0  0  0  0
   -1.8810   -2.1790    1.1250 C   0  0  0  0  0  0  0  0  0  0  0  0
   -3.3160   -2.1260    0.6660 C   0  0  0  0  0  0  0  0  0  0  0  0
   -3.8650   -0.7650    0.8220 N   0  0  0  0  0  0  0  0  0  0  0  0
   -5.0780   -0.6150    1.5550 C   0  0  0  0  0  0  0  0  0  0  0  0
   -6.3160   -0.6620    0.7390 C   0  0  0  0  0  0  0  0  0  0  0  0
   -6.5310   -1.9460   -0.0230 C   0  0  0  0  0  0  0  0  0  0  0  0
   -7.7340   -1.8940   -0.7560 O   0  0  0  0  0  0  0  0  0  0  0  0
   -7.8280   -3.0570   -1.3810 O   0  0  0  0  0  0  0  0  0  0  0  0
   -3.2250    0.4200    0.2850 C   0  0  0  0  0  0  0  0  0  0  0  0
   -3.9660    1.4150    0.2400 O   0  0  0  0  0  0  0  0  0  0  0  0
   -1.8380    0.5760   -0.1990 N   0  0  0  0  0  0  0  0  0  0  0  0
   -1.8790    1.6760   -1.1310 C   0  0  0  0  0  0  0  0  0  0  0  0
   -1.5070    3.0210   -0.5700 C   0  0  2  0  0  0  0  0  0  0  0  0
   -2.6320    3.8230   -0.2030 N   0  0  0  0  0  0  0  0  0  0  0  0
   -2.7900    4.3020    1.1230 C   0  0  0  0  0  0  0  0  0  0  0  0
   -1.9080    3.9980    1.9640 O   0  0  0  0  0  0  0  0  0  0  0  0
   -3.8740    5.0870    1.5180 O   0  0  0  0  0  0  0  0  0  0  0  0
   -0.6160    3.7400   -1.5920 C   0  0  0  0  0  0  0  0  0  0  0  0
    0.7910    3.9090   -1.1190 C   0  0  0  0  0  0  0  0  0  0  0  0
    1.6630    2.7580   -1.5290 C   0  0  0  0  0  0  0  0  0  0  0  0
    3.0230    3.0490   -1.4880 O   0  0  0  0  0  0  0  0  0  0  0  0
    3.7140    1.8540   -1.6720 C   0  0  0  0  0  0  0  0  0  0  0  0
    4.6720    1.6130   -0.5070 C   0  0  0  0  0  0  0  0  0  0  0  0
    5.8050    0.8730   -1.0230 N   0  0  0  0  0  0  0  0  0  0  0  0
    6.3910   -0.2440   -0.3920 C   0  0  0  0  0  0  0  0  0  0  0  0
    7.6630   -0.3350   -0.3980 O   0  0  0  0  0  0  0  0  0  0  0  0
    5.6120   -1.2870    0.2600 C   0  0  0  0  0  0  0  0  0  0  0  0
    4.3380   -1.1910    0.4450 O   0  0  0  0  0  0  0  0  0  0  0  0
    3.8640   -2.2390    1.0430 N   0  0  0  0  0  0  0  0  0  0  0  0
    4.8630   -3.1050    1.2850 C   0  0  0  0  0  0  0  0  0  0  0  0
    4.8240   -4.2300    1.8420 O   0  0  0  0  0  0  0  0  0  0  0  0
    6.0020   -2.5160    0.7890 C   0  0  0  0  0  0  0  0  0  0  0  0
    7.3340   -3.0040    0.7840 N   0  0  0  0  0  0  0  0  0  0  0  0
    8.2490   -2.7440    1.8390 C   0  0  0  0  0  0  0  0  0  0  0  0
    7.8440   -2.0510    2.8120 O   0  0  0  0  0  0  0  0  0  0  0  0
    2.4550   -2.2910    1.3230 C   0  0  0  0  0  0  0  0  0  0  0  0
    1.5970   -2.3700    0.1050 C   0  0  0  0  0  0  0  0  0  0  0  0
    2.2680   -2.3600   -0.9670 O   0  0  0  0  0  0  0  0  0  0  0  0
    0.2780   -2.4410    0.2670 O   0  0  0  0  0  0  0  0  0  0  0  0
   -0.7880   -0.2530    0.2120 C   0  0  0  0  0  0  0  0  0  0  0  0
    0.3130    0.0180    0.7320 O   0  0  0  0  0  0  0  0  0  0  0  0
  2  1  1  6
  2  3  1  0
  2 41  1  0
  2 42  1  0
  3  4  1  0
  4  5  1  0
  5  6  1  0
  5 11  1  0
  6  7  1  0
  7  8  1  0
  8  9  1  0
  9 10  1  0
 11 12  2  0
 11 13  1  0
 13 14  1  0
 13 42  1  0
 14 15  1  0
 15 16  1  6
 15 20  1  0
 16 17  1  0
 17 18  2  0
 17 19  1  0
 20 21  1  0
 21 22  1  0
 22 23  1  0
 23 24  1  0
 24 25  1  0
 25 26  1  0
 26 27  1  0
 27 28  2  0
 27 29  1  0
 29 30  1  0
 29 34  2  0
 30 31  1  0
 31 32  1  0
 31 38  1  0
 32 33  2  0
 32 34  1  0
 34 35  1  0
 35 36  1  0
 36 37  2  0
 38 39  1  0
 39 40  2  0
 39 41  1  0
 42 43  2  0
M  END
