
     RDKit          3D

 43 45  0  0  0  0  0  0  0  0999 V2000
    3.8040   -6.3010   -1.8080 C   0  0  0  0  0  0  0  0  0  0  0  0
    4.2260   -4.8630   -1.9680 C   0  0  0  0  0  0  0  0  0  0  0  0
    3.1230   -3.9530   -2.1720 N   0  0  0  0  0  0  0  0  0  0  0  0
    2.5830   -3.5800   -3.4490 C   0  0  0  0  0  0  0  0  0  0  0  0
    1.2210   -3.0580   -3.1280 C   0  0  0  0  0  0  0  0  0  0  0  0
    1.3900   -2.4430   -1.8260 N   0  0  0  0  0  0  0  0  0  0  0  0
    0.7860   -1.3420   -1.2800 O   0  0  0  0  0  0  0  0  0  0  0  0
    1.3420   -0.1340   -1.0360 C   0  0  0  0  0  0  0  0  0  0  0  0
    2.6130   -0.1100   -1.4010 O   0  0  0  0  0  0  0  0  0  0  0  0
    0.8820    1.0510   -0.5050 N   0  0  0  0  0  0  0  0  0  0  0  0
    1.8810    2.1340   -0.4660 C   0  0  0  0  0  0  0  0  0  0  0  0
    1.6910    3.0220    0.6770 C   0  0  0  0  0  0  0  0  0  0  0  0
    0.8030    2.5330    1.7030 N   0  0  0  0  0  0  0  0  0  0  0  0
   -0.2650    1.6580    1.3970 C   0  0  0  0  0  0  0  0  0  0  0  0
   -0.9820    1.2080    2.2650 O   0  0  0  0  0  0  0  0  0  0  0  0
   -0.4330    1.3410   -0.0500 C   0  0  1  0  0  0  0  0  0  0  0  0
   -0.8660    2.6930   -0.6340 C   0  0  0  0  0  0  0  0  0  0  0  0
   -0.2840    3.0880   -1.6470 O   0  0  0  0  0  0  0  0  0  0  0  0
   -1.8770    3.4620   -0.0550 N   0  0  0  0  0  0  0  0  0  0  0  0
   -2.3640    4.7160   -0.5180 C   0  0  0  0  0  0  0  0  0  0  0  0
   -2.0570    5.2750   -1.7410 C   0  0  0  0  0  0  0  0  0  0  0  0
   -2.5590    6.5220   -2.1380 C   0  0  0  0  0  0  0  0  0  0  0  0
   -3.3850    7.2280   -1.2970 C   0  0  0  0  0  0  0  0  0  0  0  0
   -3.7120    6.7100   -0.0810 C   0  0  0  0  0  0  0  0  0  0  0  0
   -3.2060    5.4930    0.2750 C   0  0  0  0  0  0  0  0  0  0  0  0
   -1.5000    0.3460   -0.2990 C   0  0  2  0  0  0  0  0  0  0  0  0
   -2.8740    0.8070    0.1530 C   0  0  0  0  0  0  0  0  0  0  0  0
   -3.6470    1.2800   -0.7070 O   0  0  0  0  0  0  0  0  0  0  0  0
   -3.2860    0.7210    1.4500 O   0  0  0  0  0  0  0  0  0  0  0  0
   -4.5850    1.1750    1.7900 C   0  0  0  0  0  0  0  0  0  0  0  0
   -1.3160   -1.0100    0.2790 C   0  0  0  0  0  0  0  0  0  0  0  0
   -1.8230   -2.0040   -0.2910 O   0  0  0  0  0  0  0  0  0  0  0  0
   -0.6020   -1.1800    1.4330 O   0  0  0  0  0  0  0  0  0  0  0  0
   -0.3890   -2.4080    2.0450 C   0  0  0  0  0  0  0  0  0  0  0  0
   -0.9070   -3.4160    1.4570 O   0  0  0  0  0  0  0  0  0  0  0  0
    0.3640   -2.5850    3.2690 C   0  0  0  0  0  0  0  0  0  0  0  0
    0.8650   -1.5980    3.8340 O   0  0  0  0  0  0  0  0  0  0  0  0
    0.5310   -3.8700    3.8220 N   0  0  0  0  0  0  0  0  0  0  0  0
    1.2560   -4.1230    5.0300 C   0  0  0  0  0  0  0  0  0  0  0  0
    1.7690   -3.1630    5.6260 O   0  0  0  0  0  0  0  0  0  0  0  0
    1.3860   -5.4140    5.5310 O   0  0  0  0  0  0  0  0  0  0  0  0
    2.3720   -3.2620   -1.1760 C   0  0  0  0  0  0  0  0  0  0  0  0
    2.5880   -3.3920    0.0640 O   0  0  0  0  0  0  0  0  0  0  0  0
  1  2  1  0
  2  3  1  0
  3  4  1  0
  3 42  1  0
  4  5  1  0
  5  6  1  0
  6  7  1  0
  6 42  1  0
  7  8  1  0
  8  9  2  0
  8 10  1  0
 10 11  1  0
 10 16  1  0
 11 12  1  0
 12 13  1  0
 13 14  1  0
 14 15  2  0
 14 16  1  0
 16 17  1  6
 16 26  1  0
 17 18  2  0
 17 19  1  0
 19 20  1  0
 20 21  2  0
 20 25  1  0
 21 22  1  0
 22 23  2  0
 23 24  1  0
 24 25  2  0
 26 27  1  1
 26 31  1  0
 27 28  2  0
 27 29  1  0
 29 30  1  0
 31 32  2  0
 31 33  1  0
 33 34  1  0
 34 35  2  0
 34 36  1  0
 36 37  2  0
 36 38  1  0
 38 39  1  0
 39 40  2  0
 39 41  1  0
 42 43  2  0
M  END
