
     RDKit          3D

 10 10  0  0  0  0  0  0  0  0999 V2000
   -4.0960    0.5610    0.1540 N   0  0  0  0  0  0  0  0  0  0  0  0
   -2.9540   -0.1960    0.5150 C   0  0  0  0  0  0  0  0  0  0  0  0
   -1.7610    0.1750    0.0670 C   0  0  0  0  0  0  0  0  0  0  0  0
   -0.5950   -0.6060    0.4420 C   0  0  0  0  0  0  0  0  0  0  0  0
    0.6190   -0.3020    0.0390 C   0  0  0  0  0  0  0  0  0  0  0  0
    1.7320   -1.1430    0.4640 C   0  0  0  0  0  0  0  0  0  0  0  0
    2.9880   -0.9180    0.1110 C   0  0  0  0  0  0  0  0  0  0  0  0
    3.2830    0.1940   -0.7240 N   0  0  0  0  0  0  0  0  0  0  0  0
    2.2240    1.0330   -1.1570 C   0  0  0  0  0  0  0  0  0  0  0  0
    0.9510    0.8280   -0.8140 C   0  0  0  0  0  0  0  0  0  0  0  0
  1  2  1  0
  2  3  2  3
  3  4  1  0
  4  5  2  3
  5  6  1  0
  5 10  1  0
  6  7  2  0
  7  8  1  0
  8  9  1  0
  9 10  2  0
M  END
