
     RDKit          3D

 22 24  0  0  0  0  0  0  0  0999 V2000
   -4.4260   -1.2410    1.3120 C   0  0  0  0  0  0  0  0  0  0  0  0
   -3.2950   -0.6060    0.5880 C   0  0  0  0  0  0  0  0  0  0  0  0
   -2.8920   -1.0830   -0.6330 C   0  0  0  0  0  0  0  0  0  0  0  0
   -1.8340   -0.4940   -1.3180 C   0  0  0  0  0  0  0  0  0  0  0  0
   -1.2240   -0.7470   -2.5240 C   0  0  0  0  0  0  0  0  0  0  0  0
   -1.5630   -1.8060   -3.4950 C   0  0  0  0  0  0  0  0  0  0  0  0
   -0.2230    0.1790   -2.6660 C   0  0  0  0  0  0  0  0  0  0  0  0
   -0.2320    0.9630   -1.5800 N   0  0  0  0  0  0  0  0  0  0  0  0
    0.6630    2.0530   -1.3490 C   0  0  0  0  0  0  0  0  0  0  0  0
    1.8990    1.6630   -0.6390 C   0  0  0  0  0  0  0  0  0  0  0  0
    2.7390    2.5610   -0.3970 O   0  0  0  0  0  0  0  0  0  0  0  0
    2.1990    0.3500   -0.2150 N   0  0  0  0  0  0  0  0  0  0  0  0
    3.3980    0.0030    0.4670 C   0  0  0  0  0  0  0  0  0  0  0  0
    4.2720   -0.8740    0.0010 C   0  0  0  0  0  0  0  0  0  0  0  0
    5.3560   -1.0000    0.9080 N   0  0  0  0  0  0  0  0  0  0  0  0
    5.2610   -0.0080    1.9470 C   0  0  0  0  0  0  0  0  0  0  0  0
    3.8790    0.5130    1.7450 C   0  0  0  0  0  0  0  0  0  0  0  0
    3.1890    1.2580    2.4870 O   0  0  0  0  0  0  0  0  0  0  0  0
   -1.2020    0.5820   -0.7350 C   0  0  0  0  0  0  0  0  0  0  0  0
   -1.6180    1.0660    0.5130 C   0  0  0  0  0  0  0  0  0  0  0  0
   -2.6680    0.4730    1.1810 C   0  0  0  0  0  0  0  0  0  0  0  0
   -3.1350    0.9510    2.4940 C   0  0  0  0  0  0  0  0  0  0  0  0
  1  2  1  0
  2  3  2  0
  2 21  1  0
  3  4  1  0
  4  5  1  0
  4 19  2  0
  5  6  1  0
  5  7  2  0
  7  8  1  0
  8  9  1  0
  8 19  1  0
  9 10  1  0
 10 11  2  0
 10 12  1  0
 12 13  1  0
 13 14  2  0
 13 17  1  0
 14 15  1  0
 15 16  1  0
 16 17  1  0
 17 18  2  0
 19 20  1  0
 20 21  2  0
 21 22  1  0
M  END
