
     RDKit          3D

 11 11  0  0  0  0  0  0  0  0999 V2000
    0.0320   -2.1400    1.0150 N   0  0  0  0  0  0  0  0  0  0  0  0
   -0.1640   -1.1550    0.2080 C   0  0  0  0  0  0  0  0  0  0  0  0
   -1.4970   -0.6320   -0.0220 C   0  0  0  0  0  0  0  0  0  0  0  0
   -1.7400    0.3640   -0.8290 C   0  0  0  0  0  0  0  0  0  0  0  0
   -3.0890    0.8870   -1.0570 C   0  0  0  0  0  0  0  0  0  0  0  0
   -3.3180    1.8910   -1.8720 C   0  0  0  0  0  0  0  0  0  0  0  0
   -2.3120    2.4910   -2.5420 F   0  0  0  0  0  0  0  0  0  0  0  0
    0.9530   -0.5650   -0.4760 N   0  0  0  0  0  0  0  0  0  0  0  0
    2.2570   -0.5600    0.1590 C   0  0  2  0  0  0  0  0  0  0  0  0
    2.3660    0.1330    1.4420 C   0  0  0  0  0  0  0  0  0  0  0  0
    2.9680    0.7890    0.2730 C   0  0  0  0  0  0  0  0  0  0  0  0
  1  2  2  0
  2  3  1  0
  2  8  1  0
  3  4  2  3
  4  5  1  0
  5  6  2  3
  6  7  1  0
  9  8  1  6
  9 10  1  0
  9 11  1  0
 10 11  1  0
M  CHG  1   1   1
M  END
