
     RDKit          3D

 22 24  0  0  0  0  0  0  0  0999 V2000
    4.4390   -0.1910    1.7690 C   0  0  0  0  0  0  0  0  0  0  0  0
    3.9830   -0.7200    0.4900 N   0  0  0  0  0  0  0  0  0  0  0  0
    4.7140   -1.5540   -0.2500 C   0  0  0  0  0  0  0  0  0  0  0  0
    3.9830   -1.8360   -1.3640 C   0  0  0  0  0  0  0  0  0  0  0  0
    2.7790   -1.1420   -1.2730 C   0  0  0  0  0  0  0  0  0  0  0  0
    2.7880   -0.4360   -0.0920 C   0  0  0  0  0  0  0  0  0  0  0  0
    1.7850    0.4270    0.4990 C   0  0  0  0  0  0  0  0  0  0  0  0
    2.0570    0.9050    1.6670 O   0  0  0  0  0  0  0  0  0  0  0  0
    0.5600    0.8100   -0.0300 N   0  0  0  0  0  0  0  0  0  0  0  0
    0.0620    0.4220   -1.3320 C   0  0  0  0  0  0  0  0  0  0  0  0
   -1.2470    1.1920   -1.5850 C   0  0  0  0  0  0  0  0  0  0  0  0
   -2.1910    0.7680   -0.4620 C   0  0  0  0  0  0  0  0  0  0  0  0
   -3.3440   -0.0200   -0.8130 C   0  0  0  0  0  0  0  0  0  0  0  0
   -3.7880   -0.1540   -2.0840 C   0  0  0  0  0  0  0  0  0  0  0  0
   -4.9690   -1.0080   -2.0660 C   0  0  0  0  0  0  0  0  0  0  0  0
   -5.3280   -0.9150   -0.7630 C   0  0  0  0  0  0  0  0  0  0  0  0
   -4.1760   -0.9600   -0.0720 C   0  0  0  0  0  0  0  0  0  0  0  0
   -1.7180    1.0350    0.7170 C   0  0  0  0  0  0  0  0  0  0  0  0
   -2.3900    0.7720    1.9310 C   0  0  0  0  0  0  0  0  0  0  0  0
   -1.6620    1.0690    3.1540 N   0  0  0  0  0  0  0  0  0  0  0  0
   -3.5240    0.3270    2.0840 O   0  0  0  0  0  0  0  0  0  0  0  0
   -0.3320    1.6610    0.7990 C   0  0  0  0  0  0  0  0  0  0  0  0
  1  2  1  0
  2  3  1  0
  2  6  1  0
  3  4  2  0
  4  5  1  0
  5  6  2  0
  6  7  1  0
  7  8  2  0
  7  9  1  0
  9 10  1  0
  9 22  1  0
 10 11  1  0
 11 12  1  0
 12 13  1  0
 12 18  2  0
 13 14  2  0
 13 17  1  0
 14 15  1  0
 15 16  2  0
 16 17  2  0
 18 19  1  0
 18 22  1  0
 19 20  1  0
 19 21  2  0
M  END
