
     RDKit          3D

 22 23  0  0  0  0  0  0  0  0999 V2000
    6.3780    1.3910    0.1710 C   0  0  0  0  0  0  0  0  0  0  0  0
    5.0180    2.0240   -0.0130 C   0  0  0  0  0  0  0  0  0  0  0  0
    3.9740    0.9310   -0.1410 C   0  0  0  0  0  0  0  0  0  0  0  0
    4.2810   -0.3170   -0.0920 C   0  0  0  0  0  0  0  0  0  0  0  0
    3.4680   -1.4700   -0.1820 N   0  0  0  0  0  0  0  0  0  0  0  0
    2.1470   -1.6720   -0.0200 C   0  0  0  0  0  0  0  0  0  0  0  0
    1.2080   -0.7950    0.6510 C   0  0  0  0  0  0  0  0  0  0  0  0
    1.7110    0.1640    1.3460 O   0  0  0  0  0  0  0  0  0  0  0  0
   -0.2060   -0.9050    0.6030 N   0  0  0  0  0  0  0  0  0  0  0  0
   -1.0340   -1.8170   -0.1050 C   0  0  0  0  0  0  0  0  0  0  0  0
   -2.3840   -1.0650   -0.2470 C   0  0  0  0  0  0  0  0  0  0  0  0
   -2.1170    0.2990    0.2790 C   0  0  1  0  0  0  0  0  0  0  0  0
   -1.3820    1.1740   -0.7230 C   0  0  0  0  0  0  0  0  0  0  0  0
   -3.3050    1.0100    0.7870 C   0  0  0  0  0  0  0  0  0  0  0  0
   -4.4130    1.2980   -0.1510 C   0  0  1  0  0  0  0  0  0  0  0  0
   -5.0960    0.1260   -0.7930 C   0  0  0  0  0  0  0  0  0  0  0  0
   -5.5160    2.1250    0.5230 C   0  0  0  0  0  0  0  0  0  0  0  0
   -1.1120   -0.0230    1.3780 C   0  0  0  0  0  0  0  0  0  0  0  0
    1.8150   -2.9730   -0.4090 C   0  0  0  0  0  0  0  0  0  0  0  0
    2.9580   -3.5500   -0.8010 N   0  0  0  0  0  0  0  0  0  0  0  0
    3.9370   -2.6800   -0.6720 C   0  0  0  0  0  0  0  0  0  0  0  0
    5.1540   -2.8860   -0.9490 O   0  0  0  0  0  0  0  0  0  0  0  0
  1  2  1  0
  2  3  1  0
  3  4  2  3
  4  5  1  0
  5  6  1  0
  5 21  1  0
  6  7  1  0
  6 19  2  0
  7  8  2  0
  7  9  1  0
  9 10  1  0
  9 18  1  0
 10 11  1  0
 11 12  1  0
 12 13  1  6
 12 14  1  0
 12 18  1  0
 14 15  1  0
 15 16  1  1
 15 17  1  0
 19 20  1  0
 20 21  1  0
 21 22  2  0
M  END
