
     RDKit          3D

 16 16  0  0  0  0  0  0  0  0999 V2000
   -5.8680   -0.1890    0.2360 C   0  0  0  0  0  0  0  0  0  0  0  0
   -4.4590    0.0060    0.6910 C   0  0  0  0  0  0  0  0  0  0  0  0
   -4.1840    0.3300    1.8770 O   0  0  0  0  0  0  0  0  0  0  0  0
   -3.3500   -0.1630   -0.1880 N   0  0  0  0  0  0  0  0  0  0  0  0
   -1.9790    0.0240    0.2440 C   0  0  0  0  0  0  0  0  0  0  0  0
   -1.0650   -0.2310   -0.9210 C   0  0  0  0  0  0  0  0  0  0  0  0
    0.3640   -0.0610   -0.5660 C   0  0  0  0  0  0  0  0  0  0  0  0
    1.0950   -1.1290   -0.1000 C   0  0  0  0  0  0  0  0  0  0  0  0
    2.4230   -0.9550    0.2270 C   0  0  0  0  0  0  0  0  0  0  0  0
    3.0630    0.2560    0.1080 C   0  0  0  0  0  0  0  0  0  0  0  0
    4.7500    0.3720    0.5490 S   0  0  1  0  0  0  0  0  0  0  0  0
    5.7880    0.0440   -0.7960 N   0  0  0  0  0  0  0  0  0  0  0  0
    4.9950    1.8070    0.9580 O   0  0  0  0  0  0  0  0  0  0  0  0
    5.0190   -0.5570    1.7000 O   0  0  0  0  0  0  0  0  0  0  0  0
    2.3190    1.3040   -0.3570 C   0  0  0  0  0  0  0  0  0  0  0  0
    0.9920    1.1530   -0.6890 C   0  0  0  0  0  0  0  0  0  0  0  0
  1  2  1  0
  2  3  2  0
  2  4  1  0
  4  5  1  0
  5  6  1  0
  6  7  1  0
  7  8  2  0
  7 16  1  0
  8  9  1  0
  9 10  2  0
 10 11  1  0
 10 15  1  0
 11 12  1  6
 11 13  2  0
 11 14  2  0
 15 16  2  0
M  END
