
     RDKit          3D

 11 11  0  0  0  0  0  0  0  0999 V2000
   -2.3010   -1.8370    0.2320 N   0  0  0  0  0  0  0  0  0  0  0  0
   -1.8850   -0.4820    0.2300 C   0  0  0  0  0  0  0  0  0  0  0  0
   -0.6100   -0.2300   -0.0290 C   0  0  0  0  0  0  0  0  0  0  0  0
    0.2680   -1.3640   -0.2920 C   0  0  0  0  0  0  0  0  0  0  0  0
    1.6010   -1.3810   -0.2900 C   0  0  0  0  0  0  0  0  0  0  0  0
    2.5200   -0.2740   -0.0260 C   0  0  0  0  0  0  0  0  0  0  0  0
    3.8460   -0.6160    0.1000 F   0  0  0  0  0  0  0  0  0  0  0  0
    2.2410    1.0180    0.1080 C   0  0  0  0  0  0  0  0  0  0  0  0
    0.9720    1.7410    0.0400 C   0  0  0  0  0  0  0  0  0  0  0  0
   -0.2360    1.1860   -0.0180 C   0  0  0  0  0  0  0  0  0  0  0  0
   -1.3490    2.0560   -0.0790 N   0  0  0  0  0  0  0  0  0  0  0  0
  1  2  1  0
  2  3  2  3
  3  4  1  0
  3 10  1  0
  4  5  2  0
  5  6  1  0
  6  7  1  0
  6  8  2  0
  8  9  1  0
  9 10  2  0
 10 11  1  0
M  END
