
     RDKit          3D

 22 24  0  0  0  0  0  0  0  0999 V2000
   -5.3540   -1.1690   -1.1690 C   0  0  0  0  0  0  0  0  0  0  0  0
   -5.2310   -0.2330   -0.2740 C   0  0  0  0  0  0  0  0  0  0  0  0
   -4.1070    0.6440   -0.1950 N   0  0  0  0  0  0  0  0  0  0  0  0
   -4.3650    2.0440   -0.0350 C   0  0  0  0  0  0  0  0  0  0  0  0
   -2.8010    0.0400   -0.2830 C   0  0  1  0  0  0  0  0  0  0  0  0
   -1.6920    1.0660   -0.1890 C   0  0  0  0  0  0  0  0  0  0  0  0
   -0.4320    0.3050   -0.6270 C   0  0  0  0  0  0  0  0  0  0  0  0
   -0.1320   -0.6930    0.4270 C   0  0  1  0  0  0  0  0  0  0  0  0
    1.1140   -0.3570    1.0850 N   0  0  0  0  0  0  0  0  0  0  0  0
    2.3610   -0.3080    0.4160 C   0  0  0  0  0  0  0  0  0  0  0  0
    2.4670   -0.6390   -0.9170 C   0  0  0  0  0  0  0  0  0  0  0  0
    3.6930   -0.5810   -1.5490 C   0  0  0  0  0  0  0  0  0  0  0  0
    4.8430   -0.2000   -0.8970 C   0  0  0  0  0  0  0  0  0  0  0  0
    4.7460    0.1330    0.4360 C   0  0  0  0  0  0  0  0  0  0  0  0
    3.5110    0.0730    1.0640 C   0  0  0  0  0  0  0  0  0  0  0  0
    6.0680    0.4990    0.9110 C   0  0  0  0  0  0  0  0  0  0  0  0
    6.3680    0.8610    2.0800 O   0  0  0  0  0  0  0  0  0  0  0  0
    6.9800    0.3790   -0.1790 N   0  0  0  0  0  0  0  0  0  0  0  0
    6.2450   -0.0490   -1.2990 C   0  0  0  0  0  0  0  0  0  0  0  0
    6.6960   -0.2650   -2.4330 O   0  0  0  0  0  0  0  0  0  0  0  0
   -1.2280   -0.9460    1.4110 C   0  0  0  0  0  0  0  0  0  0  0  0
   -2.6060   -0.9190    0.8590 C   0  0  0  0  0  0  0  0  0  0  0  0
  1  2  2  0
  2  3  1  0
  3  4  1  0
  5  3  1  1
  5  6  1  0
  5 22  1  0
  6  7  1  0
  7  8  1  0
  8  9  1  1
  8 21  1  0
  9 10  1  0
 10 11  2  0
 10 15  1  0
 11 12  1  0
 12 13  2  0
 13 14  1  0
 13 19  1  0
 14 15  2  0
 14 16  1  0
 16 17  2  0
 16 18  1  0
 18 19  1  0
 19 20  2  0
 21 22  1  0
M  END
