
     RDKit          3D

 47 51  0  0  0  0  0  0  0  0999 V2000
    8.7330   -2.5340   -0.5940 C   0  0  0  0  0  0  0  0  0  0  0  0
    7.6110   -1.5730   -0.4170 C   0  0  0  0  0  0  0  0  0  0  0  0
    6.2990   -1.9950   -0.5920 C   0  0  0  0  0  0  0  0  0  0  0  0
    5.2130   -1.1640   -0.4430 C   0  0  0  0  0  0  0  0  0  0  0  0
    5.4150    0.1500   -0.1040 C   0  0  0  0  0  0  0  0  0  0  0  0
    4.3470    1.1320    0.0840 C   0  0  0  0  0  0  0  0  0  0  0  0
    2.9990    0.6300   -0.0570 N   0  0  2  0  0  0  0  0  0  0  0  0
    2.1770    1.7820   -0.3640 C   0  0  0  0  0  0  0  0  0  0  0  0
    0.7890    1.4070   -0.8990 C   0  0  0  0  0  0  0  0  0  0  0  0
   -0.0580    0.9420    0.2570 C   0  0  2  0  0  0  0  0  0  0  0  0
    0.1440   -0.5730    0.2690 C   0  0  0  0  0  0  0  0  0  0  0  0
   -0.7300   -1.5570   -0.1000 C   0  0  0  0  0  0  0  0  0  0  0  0
   -0.3300   -2.8750    0.0280 C   0  0  0  0  0  0  0  0  0  0  0  0
    0.9560   -3.1840    0.5240 C   0  0  0  0  0  0  0  0  0  0  0  0
    1.8640   -2.2290    0.9020 C   0  0  0  0  0  0  0  0  0  0  0  0
    1.4310   -0.9410    0.7630 C   0  0  0  0  0  0  0  0  0  0  0  0
    2.5760   -0.0380    1.1880 C   0  0  0  0  0  0  0  0  0  0  0  0
   -1.0260   -4.0310   -0.2670 O   0  0  0  0  0  0  0  0  0  0  0  0
   -2.2210   -4.6270    0.0750 C   0  0  0  0  0  0  0  0  0  0  0  0
   -3.3970   -3.6780    0.1030 C   0  0  1  0  0  0  0  0  0  0  0  0
   -3.5730   -3.2540   -1.2130 O   0  0  0  0  0  0  0  0  0  0  0  0
   -4.6520   -4.2610    0.6570 C   0  0  0  0  0  0  0  0  0  0  0  0
   -5.8420   -3.7680    0.0460 N   0  0  1  0  0  0  0  0  0  0  0  0
   -7.0440   -4.1660    0.7870 C   0  0  0  0  0  0  0  0  0  0  0  0
   -5.8870   -2.3710   -0.2450 C   0  0  0  0  0  0  0  0  0  0  0  0
   -5.2410   -1.4940    0.7550 C   0  0  0  0  0  0  0  0  0  0  0  0
   -4.6350   -0.3420    0.5180 C   0  0  0  0  0  0  0  0  0  0  0  0
   -4.5540    0.1850   -0.8490 C   0  0  0  0  0  0  0  0  0  0  0  0
   -4.5160    1.5220   -1.0080 O   0  0  0  0  0  0  0  0  0  0  0  0
   -3.4620    2.2540   -0.5330 C   0  0  2  0  0  0  0  0  0  0  0  0
   -3.6450    3.6460   -1.1920 C   0  0  0  0  0  0  0  0  0  0  0  0
   -4.9320    4.2560   -0.8040 C   0  0  0  0  0  0  0  0  0  0  0  0
   -6.1070    4.0500   -1.5360 C   0  0  0  0  0  0  0  0  0  0  0  0
   -7.3060    4.6240   -1.1690 C   0  0  0  0  0  0  0  0  0  0  0  0
   -7.3890    5.4310   -0.0540 C   0  0  0  0  0  0  0  0  0  0  0  0
   -8.6060    5.9990    0.2970 O   0  0  0  0  0  0  0  0  0  0  0  0
   -6.2440    5.6490    0.6830 C   0  0  0  0  0  0  0  0  0  0  0  0
   -5.0600    5.0730    0.3080 C   0  0  0  0  0  0  0  0  0  0  0  0
   -2.0910    1.7360   -0.7630 C   0  0  0  0  0  0  0  0  0  0  0  0
   -1.3140    1.5080    0.4410 N   0  0  2  0  0  0  0  0  0  0  0  0
   -1.2910    2.6700    1.3040 C   0  0  0  0  0  0  0  0  0  0  0  0
    6.7070    0.5920    0.0760 C   0  0  0  0  0  0  0  0  0  0  0  0
    7.8010   -0.2540   -0.0770 C   0  0  0  0  0  0  0  0  0  0  0  0
    9.1920    0.2410    0.1190 C   0  0  2  0  0  0  0  0  0  0  0  0
   10.0010    0.2300   -1.1620 C   0  0  0  0  0  0  0  0  0  0  0  0
    9.9050   -0.4150    1.2600 C   0  0  0  0  0  0  0  0  0  0  0  0
    9.0720    1.6130    0.4580 O   0  0  0  0  0  0  0  0  0  0  0  0
  1  2  1  0
  2  3  2  0
  2 43  1  0
  3  4  1  0
  4  5  2  0
  5  6  1  0
  5 42  1  0
  7  6  1  1
  7  8  1  0
  7 17  1  0
  8  9  1  0
 10  9  1  6
 10 11  1  0
 10 40  1  0
 11 12  2  0
 11 16  1  0
 12 13  1  0
 13 14  2  0
 13 18  1  0
 14 15  1  0
 15 16  2  0
 16 17  1  0
 18 19  1  0
 19 20  1  0
 20 21  1  6
 20 22  1  0
 22 23  1  0
 23 24  1  1
 23 25  1  0
 25 26  1  0
 26 27  2  0
 27 28  1  0
 28 29  1  0
 29 30  1  0
 30 31  1  6
 30 39  1  0
 31 32  1  0
 32 33  2  0
 32 38  1  0
 33 34  1  0
 34 35  2  0
 35 36  1  0
 35 37  1  0
 37 38  2  0
 39 40  1  0
 40 41  1  6
 42 43  2  0
 43 44  1  0
 44 45  1  6
 44 46  1  0
 44 47  1  0
M  CHG  3   7   1  23   1  40   1
M  END
