
     RDKit          3D

 47 51  0  0  0  0  0  0  0  0999 V2000
   -5.7970    6.2510    2.3840 C   0  0  0  0  0  0  0  0  0  0  0  0
   -4.7920    5.4520    1.7440 O   0  0  0  0  0  0  0  0  0  0  0  0
   -4.3640    4.3370    2.4390 C   0  0  0  0  0  0  0  0  0  0  0  0
   -4.8190    4.0210    3.5700 O   0  0  0  0  0  0  0  0  0  0  0  0
   -3.3380    3.4770    1.8460 C   0  0  0  0  0  0  0  0  0  0  0  0
   -2.9790    2.3110    2.7400 C   0  0  0  0  0  0  0  0  0  0  0  0
   -1.9690    1.4090    2.2320 C   0  0  0  0  0  0  0  0  0  0  0  0
   -0.7860    1.9050    2.3710 O   0  0  0  0  0  0  0  0  0  0  0  0
   -2.0180    0.1060    1.6320 C   0  0  0  0  0  0  0  0  0  0  0  0
   -3.1900   -0.4810    1.4110 C   0  0  0  0  0  0  0  0  0  0  0  0
   -4.5410    0.1000    1.6940 C   0  0  0  0  0  0  0  0  0  0  0  0
   -5.5380   -0.4650    0.6100 C   0  0  2  0  0  0  0  0  0  0  0  0
   -5.6260   -1.9450    0.6700 C   0  0  0  0  0  0  0  0  0  0  0  0
   -5.1550    0.0140   -0.7490 C   0  0  0  0  0  0  0  0  0  0  0  0
   -6.8800    0.1320    0.9780 C   0  0  0  0  0  0  0  0  0  0  0  0
   -3.2580   -1.7550    0.9010 O   0  0  0  0  0  0  0  0  0  0  0  0
   -2.1250   -2.5040    0.5950 C   0  0  0  0  0  0  0  0  0  0  0  0
   -2.4230   -3.9010    0.0740 C   0  0  0  0  0  0  0  0  0  0  0  0
   -0.9520   -2.0070    0.7760 C   0  0  0  0  0  0  0  0  0  0  0  0
    0.2840   -2.7340    0.4820 C   0  0  0  0  0  0  0  0  0  0  0  0
    1.4320   -2.3200    0.9690 N   0  0  0  0  0  0  0  0  0  0  0  0
    2.5360   -3.1330    0.5860 C   0  0  0  0  0  0  0  0  0  0  0  0
    1.9840   -4.0350   -0.4480 C   0  0  0  0  0  0  0  0  0  0  0  0
    2.2130   -4.9600   -1.3680 N   0  0  0  0  0  0  0  0  0  0  0  0
    1.1140   -5.3460   -1.9360 N   0  0  0  0  0  0  0  0  0  0  0  0
    0.0910   -4.6580   -1.3820 C   0  0  0  0  0  0  0  0  0  0  0  0
    0.5950   -3.8060   -0.4240 C   0  0  0  0  0  0  0  0  0  0  0  0
   -0.8350   -0.5610    1.1090 C   0  0  1  0  0  0  0  0  0  0  0  0
    0.0830    0.2130    0.2600 C   0  0  0  0  0  0  0  0  0  0  0  0
    0.1530    0.0940   -1.0630 C   0  0  0  0  0  0  0  0  0  0  0  0
   -0.7200   -0.8320   -1.7820 C   0  0  0  0  0  0  0  0  0  0  0  0
    1.1280    0.8450   -1.8950 C   0  0  0  0  0  0  0  0  0  0  0  0
    1.8340    1.9830   -1.3020 C   0  0  2  0  0  0  0  0  0  0  0  0
    3.2640    1.5900   -0.9520 C   0  0  0  0  0  0  0  0  0  0  0  0
    3.6820    1.7390    0.2180 O   0  0  0  0  0  0  0  0  0  0  0  0
    4.1180    1.0610   -1.9350 N   0  0  0  0  0  0  0  0  0  0  0  0
    5.4610    0.6580   -1.7620 C   0  0  0  0  0  0  0  0  0  0  0  0
    6.0710   -0.1160   -2.7440 C   0  0  0  0  0  0  0  0  0  0  0  0
    7.3600   -0.5120   -2.6200 C   0  0  0  0  0  0  0  0  0  0  0  0
    8.0500   -1.3490   -3.6580 C   0  0  0  0  0  0  0  0  0  0  0  0
    8.0990   -0.1560   -1.5190 C   0  0  0  0  0  0  0  0  0  0  0  0
    7.5320    0.6100   -0.5250 C   0  0  0  0  0  0  0  0  0  0  0  0
    8.3460    0.9750    0.6400 C   0  0  0  0  0  0  0  0  0  0  0  0
    6.1990    1.0080   -0.6720 C   0  0  0  0  0  0  0  0  0  0  0  0
    1.2230    2.4520    0.0080 C   0  0  0  0  0  0  0  0  0  0  0  0
    1.0700    1.1670    0.7910 C   0  0  0  0  0  0  0  0  0  0  0  0
    1.7540    0.9630    1.8130 O   0  0  0  0  0  0  0  0  0  0  0  0
  1  2  1  0
  2  3  1  0
  3  4  2  0
  3  5  1  0
  5  6  1  0
  6  7  1  0
  7  8  2  0
  7  9  1  0
  9 10  2  0
  9 28  1  0
 10 11  1  0
 10 16  1  0
 11 12  1  0
 12 13  1  6
 12 14  1  0
 12 15  1  0
 16 17  1  0
 17 18  1  0
 17 19  2  0
 19 20  1  0
 19 28  1  0
 20 21  2  0
 20 27  1  0
 21 22  1  0
 22 23  1  0
 23 24  1  0
 23 27  2  0
 24 25  1  0
 25 26  2  0
 26 27  1  0
 28 29  1  6
 29 30  2  0
 29 46  1  0
 30 31  1  0
 30 32  1  0
 32 33  1  0
 33 34  1  1
 33 45  1  0
 34 35  2  0
 34 36  1  0
 36 37  1  0
 37 38  2  0
 37 44  1  0
 38 39  1  0
 39 40  1  0
 39 41  2  0
 41 42  1  0
 42 43  1  0
 42 44  2  0
 45 46  1  0
 46 47  2  0
M  CHG  1  21   1
M  END
