
     RDKit          3D

 48 53  0  0  0  0  0  0  0  0999 V2000
    5.8480   -1.1150    3.0630 C   0  0  0  0  0  0  0  0  0  0  0  0
    6.2020   -0.4550    1.8960 O   0  0  0  0  0  0  0  0  0  0  0  0
    5.5990    0.6540    1.3650 C   0  0  0  0  0  0  0  0  0  0  0  0
    4.5240    1.1840    2.0470 C   0  0  0  0  0  0  0  0  0  0  0  0
    3.8940    2.3000    1.5400 C   0  0  0  0  0  0  0  0  0  0  0  0
    2.8210    2.8780    2.1770 O   0  0  0  0  0  0  0  0  0  0  0  0
    1.5450    2.4650    1.8680 C   0  0  0  0  0  0  0  0  0  0  0  0
    0.8740    3.0910    0.8330 C   0  0  0  0  0  0  0  0  0  0  0  0
   -0.4160    2.7080    0.4870 C   0  0  0  0  0  0  0  0  0  0  0  0
   -1.0440    1.6880    1.1810 C   0  0  0  0  0  0  0  0  0  0  0  0
   -2.3790    1.3050    0.8130 C   0  0  0  0  0  0  0  0  0  0  0  0
   -2.8440    0.0050    0.9570 C   0  0  0  0  0  0  0  0  0  0  0  0
   -4.1210   -0.3860    0.6060 C   0  0  0  0  0  0  0  0  0  0  0  0
   -4.9880    0.5440    0.0880 C   0  0  0  0  0  0  0  0  0  0  0  0
   -6.3680    0.1840   -0.3120 C   0  0  0  0  0  0  0  0  0  0  0  0
   -6.6600   -1.0620   -0.7990 C   0  0  0  0  0  0  0  0  0  0  0  0
   -7.9670   -1.3690   -1.1720 C   0  0  0  0  0  0  0  0  0  0  0  0
   -8.9980   -0.4930   -1.0840 C   0  0  0  0  0  0  0  0  0  0  0  0
  -10.3320   -0.7030   -1.4650 N   0  0  1  0  0  0  0  0  0  0  0  0
  -10.5670   -1.9560   -2.0630 C   0  0  0  0  0  0  0  0  0  0  0  0
  -11.3650   -2.7930   -1.0740 C   0  0  0  0  0  0  0  0  0  0  0  0
  -12.2020   -1.7300   -0.3780 C   0  0  0  0  0  0  0  0  0  0  0  0
  -11.2470   -0.5620   -0.3380 C   0  0  2  0  0  0  0  0  0  0  0  0
  -12.0360    0.7040   -0.5340 C   0  0  0  0  0  0  0  0  0  0  0  0
  -10.5390   -0.4640    0.9910 C   0  0  0  0  0  0  0  0  0  0  0  0
   -8.6680    0.7780   -0.5800 C   0  0  0  0  0  0  0  0  0  0  0  0
   -7.3820    1.1070   -0.2040 C   0  0  0  0  0  0  0  0  0  0  0  0
   -4.5700    1.8430   -0.0710 C   0  0  0  0  0  0  0  0  0  0  0  0
   -3.2950    2.2190    0.2830 C   0  0  0  0  0  0  0  0  0  0  0  0
   -0.3910    1.0570    2.2090 C   0  0  0  0  0  0  0  0  0  0  0  0
    0.8980    1.4500    2.5450 C   0  0  0  0  0  0  0  0  0  0  0  0
    4.3580    2.8450    0.3720 C   0  0  0  0  0  0  0  0  0  0  0  0
    5.4590    2.2930   -0.3170 C   0  0  0  0  0  0  0  0  0  0  0  0
    6.0970    1.1860    0.1740 C   0  0  0  0  0  0  0  0  0  0  0  0
    7.2110    0.5720   -0.4070 N   0  0  0  0  0  0  0  0  0  0  0  0
    7.9100    0.9050   -1.5800 C   0  0  0  0  0  0  0  0  0  0  0  0
    7.4860    1.8930   -2.2270 O   0  0  0  0  0  0  0  0  0  0  0  0
    9.0380    0.2220   -2.0690 N   0  0  0  0  0  0  0  0  0  0  0  0
    9.6900    0.6540   -3.2760 C   0  0  0  0  0  0  0  0  0  0  0  0
   11.1390    0.7360   -2.9750 C   0  0  0  0  0  0  0  0  0  0  0  0
   11.9540    1.0730   -3.8820 O   0  0  0  0  0  0  0  0  0  0  0  0
   11.6050    0.4510   -1.7160 O   0  0  0  0  0  0  0  0  0  0  0  0
   11.0050   -0.5130   -0.8680 C   0  0  2  0  0  0  0  0  0  0  0  0
   11.9360   -1.6460   -0.5540 C   0  0  0  0  0  0  0  0  0  0  0  0
   11.3610   -2.6730    0.3210 C   0  0  0  0  0  0  0  0  0  0  0  0
   12.2600   -3.8080    0.7550 C   0  0  0  0  0  0  0  0  0  0  0  0
   10.2300   -2.7230    0.7530 O   0  0  0  0  0  0  0  0  0  0  0  0
    9.6570   -0.9360   -1.4140 C   0  0  0  0  0  0  0  0  0  0  0  0
  1  2  1  0
  2  3  1  0
  3  4  2  0
  3 34  1  0
  4  5  1  0
  5  6  1  0
  5 32  2  0
  6  7  1  0
  7  8  2  0
  7 31  1  0
  8  9  1  0
  9 10  2  0
 10 11  1  0
 10 30  1  0
 11 12  2  0
 11 29  1  0
 12 13  1  0
 13 14  2  0
 14 15  1  0
 14 28  1  0
 15 16  2  0
 15 27  1  0
 16 17  1  0
 17 18  2  0
 19 18  1  1
 18 26  1  0
 19 20  1  0
 19 23  1  0
 20 21  1  0
 21 22  1  0
 22 23  1  0
 23 24  1  6
 23 25  1  0
 26 27  2  0
 28 29  2  0
 30 31  2  0
 32 33  1  0
 33 34  2  0
 34 35  1  0
 35 36  1  0
 36 37  2  0
 36 38  1  0
 38 39  1  0
 38 48  1  0
 39 40  1  0
 40 41  2  0
 40 42  1  0
 42 43  1  0
 43 44  1  6
 43 48  1  0
 44 45  1  0
 45 46  1  0
 45 47  2  0
M  CHG  1  19   1
M  END
