
     RDKit          3D

 48 52  0  0  0  0  0  0  0  0999 V2000
   -8.3910    0.2010    5.1720 C   0  0  0  0  0  0  0  0  0  0  0  0
   -7.5840    0.3290    3.9140 C   0  0  0  0  0  0  0  0  0  0  0  0
   -6.8570   -0.6980    3.3770 C   0  0  0  0  0  0  0  0  0  0  0  0
   -6.1240   -0.5210    2.1910 C   0  0  0  0  0  0  0  0  0  0  0  0
   -6.1170    0.6810    1.5400 C   0  0  0  0  0  0  0  0  0  0  0  0
   -5.4180    0.9230    0.3310 N   0  0  0  0  0  0  0  0  0  0  0  0
   -5.4080    0.0550   -0.8330 C   0  0  0  0  0  0  0  0  0  0  0  0
   -6.0150   -1.0380   -0.8340 O   0  0  0  0  0  0  0  0  0  0  0  0
   -4.6410    0.5950   -1.9190 C   0  0  0  0  0  0  0  0  0  0  0  0
   -4.5670    0.4540   -3.2220 C   0  0  0  0  0  0  0  0  0  0  0  0
   -5.1810   -0.2640   -4.2410 C   0  0  0  0  0  0  0  0  0  0  0  0
   -4.5790   -0.0550   -5.4490 O   0  0  0  0  0  0  0  0  0  0  0  0
   -6.2390   -1.1420   -4.4240 N   0  0  0  0  0  0  0  0  0  0  0  0
   -6.4250   -1.7870   -5.7720 C   0  0  0  0  0  0  0  0  0  0  0  0
   -7.2860   -1.4850   -3.5030 C   0  0  0  0  0  0  0  0  0  0  0  0
   -3.7900    1.6750   -1.1940 C   0  0  2  0  0  0  0  0  0  0  0  0
   -2.4560    1.1090   -0.9250 C   0  0  0  0  0  0  0  0  0  0  0  0
   -1.5360    2.0910   -0.2280 C   0  0  0  0  0  0  0  0  0  0  0  0
   -0.1560    1.6150   -0.0060 C   0  0  0  0  0  0  0  0  0  0  0  0
    0.0320    0.4240    0.8180 C   0  0  0  0  0  0  0  0  0  0  0  0
   -0.8720   -0.0300    1.5420 O   0  0  0  0  0  0  0  0  0  0  0  0
    1.3020   -0.2760    0.8190 N   0  0  0  0  0  0  0  0  0  0  0  0
    1.5160   -1.4300    1.6480 C   0  0  0  0  0  0  0  0  0  0  0  0
    2.8760   -1.5850    2.2480 C   0  0  0  0  0  0  0  0  0  0  0  0
    3.7980   -0.5870    1.5270 C   0  0  0  0  0  0  0  0  0  0  0  0
    4.6010    0.0560    2.2850 C   0  0  0  0  0  0  0  0  0  0  0  0
    5.5980    1.0650    2.0220 C   0  0  0  0  0  0  0  0  0  0  0  0
    6.8960    0.8450    2.4890 C   0  0  0  0  0  0  0  0  0  0  0  0
    7.9060    1.7740    2.3470 C   0  0  0  0  0  0  0  0  0  0  0  0
    7.6320    2.9720    1.7180 C   0  0  0  0  0  0  0  0  0  0  0  0
    6.3760    3.2210    1.2500 C   0  0  0  0  0  0  0  0  0  0  0  0
    6.0950    4.4530    0.6080 N   0  0  0  0  0  0  0  0  0  0  0  0
    5.3830    2.2610    1.4110 C   0  0  0  0  0  0  0  0  0  0  0  0
    3.5910   -0.5530    0.1060 C   0  0  2  0  0  0  0  0  0  0  0  0
    3.2110   -1.8530   -0.3920 O   0  0  0  0  0  0  0  0  0  0  0  0
    4.5830   -0.0610   -0.8470 C   0  0  0  0  0  0  0  0  0  0  0  0
    5.9110   -0.7120   -0.9550 C   0  0  0  0  0  0  0  0  0  0  0  0
    5.8960   -2.1380   -1.3440 C   0  0  0  0  0  0  0  0  0  0  0  0
    5.8000   -2.4650   -2.6740 C   0  0  0  0  0  0  0  0  0  0  0  0
    5.8170   -3.7730   -3.1070 C   0  0  0  0  0  0  0  0  0  0  0  0
    5.9320   -4.7990   -2.1990 C   0  0  0  0  0  0  0  0  0  0  0  0
    6.0310   -4.4930   -0.8450 C   0  0  0  0  0  0  0  0  0  0  0  0
    6.0120   -3.1540   -0.4310 C   0  0  0  0  0  0  0  0  0  0  0  0
    2.2990    0.2790   -0.0950 C   0  0  0  0  0  0  0  0  0  0  0  0
   -4.6290    2.0210   -0.0350 C   0  0  0  0  0  0  0  0  0  0  0  0
   -4.6090    3.1550    0.5180 O   0  0  0  0  0  0  0  0  0  0  0  0
   -6.8580    1.7190    2.0910 C   0  0  0  0  0  0  0  0  0  0  0  0
   -7.5770    1.5510    3.2510 C   0  0  0  0  0  0  0  0  0  0  0  0
  1  2  1  0
  2  3  2  0
  2 48  1  0
  3  4  1  0
  4  5  2  0
  5  6  1  0
  5 47  1  0
  6  7  1  0
  6 45  1  0
  7  8  2  0
  7  9  1  0
  9 10  2  3
  9 16  1  0
 10 11  1  0
 11 12  2  0
 11 13  1  0
 13 14  1  0
 13 15  1  0
 16 17  1  1
 16 45  1  0
 17 18  1  0
 18 19  1  0
 19 20  1  0
 20 21  2  0
 20 22  1  0
 22 23  1  0
 22 44  1  0
 23 24  1  0
 24 25  1  0
 25 26  2  3
 25 34  1  0
 26 27  1  0
 27 28  2  0
 27 33  1  0
 28 29  1  0
 29 30  2  0
 30 31  1  0
 31 32  1  0
 31 33  2  0
 34 35  1  6
 34 36  1  0
 34 44  1  0
 36 37  1  0
 37 38  1  0
 38 39  2  0
 38 43  1  0
 39 40  1  0
 40 41  2  0
 41 42  1  0
 42 43  2  0
 45 46  2  0
 47 48  2  0
M  CHG  1  32   1
M  END
