
     RDKit          3D

 47 52  0  0  0  0  0  0  0  0999 V2000
    2.7060   -2.2290   -2.0400 C   0  0  0  0  0  0  0  0  0  0  0  0
    3.9270   -1.6520   -1.3410 C   0  0  2  0  0  0  0  0  0  0  0  0
    4.9120   -2.6840   -1.1030 N   0  0  0  0  0  0  0  0  0  0  0  0
    6.2410   -2.4950   -0.7190 C   0  0  0  0  0  0  0  0  0  0  0  0
    7.1620   -3.1030   -1.3860 O   0  0  0  0  0  0  0  0  0  0  0  0
    6.7120   -1.6590    0.3920 C   0  0  1  0  0  0  0  0  0  0  0  0
    8.1720   -1.7240    0.7660 C   0  0  0  0  0  0  0  0  0  0  0  0
    7.5580   -0.5170    0.1030 C   0  0  1  0  0  0  0  0  0  0  0  0
    7.9920   -0.2290   -1.2670 C   0  0  0  0  0  0  0  0  0  0  0  0
    6.9810    0.0480   -2.3080 C   0  0  0  0  0  0  0  0  0  0  0  0
    6.0760    1.0480   -2.1480 O   0  0  0  0  0  0  0  0  0  0  0  0
    5.5780    1.8790   -1.2130 C   0  0  0  0  0  0  0  0  0  0  0  0
    5.8400    3.2260   -1.3320 C   0  0  0  0  0  0  0  0  0  0  0  0
    5.3960    4.1950   -0.4420 C   0  0  0  0  0  0  0  0  0  0  0  0
    4.6470    3.8180    0.6330 C   0  0  0  0  0  0  0  0  0  0  0  0
    4.3750    2.4810    0.7670 C   0  0  0  0  0  0  0  0  0  0  0  0
    4.7970    1.4720   -0.1000 C   0  0  0  0  0  0  0  0  0  0  0  0
    4.4740    0.1980    0.1190 O   0  0  0  0  0  0  0  0  0  0  0  0
    3.6600   -0.8650   -0.1150 C   0  0  1  0  0  0  0  0  0  0  0  0
    2.2060   -0.5640    0.0100 C   0  0  0  0  0  0  0  0  0  0  0  0
    1.8590    0.6710   -0.0030 O   0  0  0  0  0  0  0  0  0  0  0  0
    1.1630   -1.4900    0.1500 N   0  0  0  0  0  0  0  0  0  0  0  0
   -0.2260   -1.1850    0.2710 C   0  0  0  0  0  0  0  0  0  0  0  0
   -0.5030   -0.3680    1.4920 C   0  0  2  0  0  0  0  0  0  0  0  0
   -0.0880   -1.0850    2.7620 C   0  0  0  0  0  0  0  0  0  0  0  0
   -0.3190   -0.2020    3.9410 C   0  0  0  0  0  0  0  0  0  0  0  0
   -1.6540    0.5000    3.8070 C   0  0  0  0  0  0  0  0  0  0  0  0
   -2.4600   -0.2500    2.7930 C   0  0  0  0  0  0  0  0  0  0  0  0
   -1.9310   -0.0670    1.4790 N   0  0  1  0  0  0  0  0  0  0  0  0
   -2.0870    1.2280    0.9260 C   0  0  0  0  0  0  0  0  0  0  0  0
   -3.3620    1.5480    0.2940 C   0  0  0  0  0  0  0  0  0  0  0  0
   -3.5340    2.7200   -0.2200 O   0  0  0  0  0  0  0  0  0  0  0  0
   -4.4340    0.6290    0.2130 N   0  0  0  0  0  0  0  0  0  0  0  0
   -5.6870    0.9980   -0.4340 C   0  0  1  0  0  0  0  0  0  0  0  0
   -5.8260    0.1560   -1.6440 C   0  0  0  0  0  0  0  0  0  0  0  0
   -6.1120    0.7370   -2.8450 C   0  0  0  0  0  0  0  0  0  0  0  0
   -6.2560   -0.0150   -3.9870 C   0  0  0  0  0  0  0  0  0  0  0  0
   -6.1040   -1.3810   -3.8930 C   0  0  0  0  0  0  0  0  0  0  0  0
   -5.8150   -2.0040   -2.7020 C   0  0  0  0  0  0  0  0  0  0  0  0
   -5.6790   -1.2160   -1.5840 C   0  0  0  0  0  0  0  0  0  0  0  0
   -6.8580    0.8740    0.4730 C   0  0  0  0  0  0  0  0  0  0  0  0
   -6.7920    0.1700    1.6700 C   0  0  0  0  0  0  0  0  0  0  0  0
   -7.8810    0.0480    2.5020 C   0  0  0  0  0  0  0  0  0  0  0  0
   -9.0750    0.6440    2.1340 C   0  0  0  0  0  0  0  0  0  0  0  0
   -9.1390    1.3430    0.9450 C   0  0  0  0  0  0  0  0  0  0  0  0
   -8.0380    1.4720    0.0940 C   0  0  0  0  0  0  0  0  0  0  0  0
   -8.1780    2.2000   -1.1020 O   0  0  0  0  0  0  0  0  0  0  0  0
  2  1  1  1
  2  3  1  0
  2 19  1  0
  3  4  1  0
  4  5  2  0
  4  6  1  0
  6  7  1  1
  6  8  1  0
  8  7  1  1
  8  9  1  0
  9 10  1  0
 10 11  1  0
 11 12  1  0
 12 13  2  0
 12 17  1  0
 13 14  1  0
 14 15  2  0
 15 16  1  0
 16 17  2  0
 17 18  1  0
 18 19  1  0
 19 20  1  6
 20 21  2  0
 20 22  1  0
 22 23  1  0
 24 23  1  6
 24 25  1  0
 24 29  1  0
 25 26  1  0
 26 27  1  0
 27 28  1  0
 28 29  1  0
 29 30  1  1
 30 31  1  0
 31 32  2  0
 31 33  1  0
 34 33  1  1
 34 35  1  0
 34 41  1  0
 35 36  2  0
 35 40  1  0
 36 37  1  0
 37 38  2  0
 38 39  1  0
 39 40  2  0
 41 42  2  0
 41 46  1  0
 42 43  1  0
 43 44  2  0
 44 45  1  0
 45 46  2  0
 46 47  1  0
M  CHG  1  29   1
M  END
