
     RDKit          3D

 47 51  0  0  0  0  0  0  0  0999 V2000
    7.4700    3.4290    0.3590 C   0  0  0  0  0  0  0  0  0  0  0  0
    7.9540    2.3060   -0.3170 O   0  0  0  0  0  0  0  0  0  0  0  0
    9.2830    1.9360   -0.3810 C   0  0  0  0  0  0  0  0  0  0  0  0
   10.3060    2.6650    0.2390 C   0  0  0  0  0  0  0  0  0  0  0  0
   11.6150    2.2700    0.1560 C   0  0  0  0  0  0  0  0  0  0  0  0
   11.9310    1.1360   -0.5500 C   0  0  0  0  0  0  0  0  0  0  0  0
   10.9190    0.3980   -1.1750 C   0  0  0  0  0  0  0  0  0  0  0  0
    9.6080    0.7990   -1.0880 C   0  0  0  0  0  0  0  0  0  0  0  0
    8.5490    0.0350   -1.7360 C   0  0  0  0  0  0  0  0  0  0  0  0
    8.6940   -0.4300   -3.0260 C   0  0  0  0  0  0  0  0  0  0  0  0
    7.7270   -1.1530   -3.6720 C   0  0  0  0  0  0  0  0  0  0  0  0
    6.5580   -1.4240   -2.9930 C   0  0  0  0  0  0  0  0  0  0  0  0
    6.3450   -0.9910   -1.7030 C   0  0  0  0  0  0  0  0  0  0  0  0
    5.0770   -1.2890   -0.9600 C   0  0  0  0  0  0  0  0  0  0  0  0
    5.2020   -2.5700   -0.1740 C   0  0  2  0  0  0  0  0  0  0  0  0
    5.4970   -3.7580   -1.1010 C   0  0  0  0  0  0  0  0  0  0  0  0
    4.0660   -2.9050    0.6170 N   0  0  1  0  0  0  0  0  0  0  0  0
    4.5270   -3.1900    1.9820 C   0  0  0  0  0  0  0  0  0  0  0  0
    4.4250   -1.8560    2.7080 C   0  0  0  0  0  0  0  0  0  0  0  0
    3.1030   -1.3500    2.1560 C   0  0  1  0  0  0  0  0  0  0  0  0
    3.0320    0.1380    2.1240 C   0  0  0  0  0  0  0  0  0  0  0  0
    1.7690    0.6330    1.6000 N   0  0  0  0  0  0  0  0  0  0  0  0
    0.5310    0.3300    2.2200 C   0  0  0  0  0  0  0  0  0  0  0  0
    0.5100   -0.3900    3.2550 O   0  0  0  0  0  0  0  0  0  0  0  0
   -0.7560    0.8250    1.7030 C   0  0  0  0  0  0  0  0  0  0  0  0
   -0.9170    1.6100    0.5720 C   0  0  0  0  0  0  0  0  0  0  0  0
   -2.2740    1.8490    0.4480 C   0  0  0  0  0  0  0  0  0  0  0  0
   -2.8680    1.2000    1.5050 C   0  0  0  0  0  0  0  0  0  0  0  0
   -4.3670    1.2290    1.7180 C   0  0  0  0  0  0  0  0  0  0  0  0
   -4.6830    0.0780    2.4090 O   0  0  0  0  0  0  0  0  0  0  0  0
   -4.4150   -1.0240    1.6150 C   0  0  0  0  0  0  0  0  0  0  0  0
   -5.3790   -1.0600    0.4980 C   0  0  0  0  0  0  0  0  0  0  0  0
   -5.1460   -1.8230   -0.4760 O   0  0  0  0  0  0  0  0  0  0  0  0
   -6.5460   -0.2790    0.4890 N   0  0  0  0  0  0  0  0  0  0  0  0
   -7.5000   -0.3080   -0.6160 C   0  0  2  0  0  0  0  0  0  0  0  0
   -7.6820    1.0170   -1.2780 C   0  0  0  0  0  0  0  0  0  0  0  0
   -8.8320    1.8260   -0.7380 C   0  0  1  0  0  0  0  0  0  0  0  0
   -8.4740    2.4810    0.5780 C   0  0  0  0  0  0  0  0  0  0  0  0
   -9.0700    2.9730   -1.7240 C   0  0  0  0  0  0  0  0  0  0  0  0
  -10.1110    1.0650   -0.6390 C   0  0  0  0  0  0  0  0  0  0  0  0
   -9.9400   -0.4180   -0.8700 C   0  0  2  0  0  0  0  0  0  0  0  0
   -9.8200   -0.7900   -2.3100 C   0  0  0  0  0  0  0  0  0  0  0  0
  -11.1900   -1.0700   -0.2640 C   0  0  0  0  0  0  0  0  0  0  0  0
   -8.7790   -0.8880   -0.0600 C   0  0  0  0  0  0  0  0  0  0  0  0
   -1.9460    0.6180    2.2090 O   0  0  0  0  0  0  0  0  0  0  0  0
    3.0630   -1.8960    0.7460 C   0  0  0  0  0  0  0  0  0  0  0  0
    7.3620   -0.2620   -1.1000 C   0  0  0  0  0  0  0  0  0  0  0  0
  1  2  1  0
  2  3  1  0
  3  4  2  0
  3  8  1  0
  4  5  1  0
  5  6  2  0
  6  7  1  0
  7  8  2  0
  8  9  1  0
  9 10  2  0
  9 47  1  0
 10 11  1  0
 11 12  2  0
 12 13  1  0
 13 14  1  0
 13 47  2  0
 14 15  1  0
 15 16  1  6
 15 17  1  0
 17 18  1  1
 17 46  1  0
 18 19  1  0
 19 20  1  0
 20 21  1  6
 20 46  1  0
 21 22  1  0
 22 23  1  0
 23 24  2  0
 23 25  1  0
 25 26  2  0
 25 45  1  0
 26 27  1  0
 27 28  2  0
 28 29  1  0
 28 45  1  0
 29 30  1  0
 30 31  1  0
 31 32  1  0
 32 33  2  0
 32 34  1  0
 35 34  1  1
 35 36  1  0
 35 44  1  0
 36 37  1  0
 37 38  1  1
 37 39  1  0
 37 40  1  0
 40 41  1  0
 41 42  1  6
 41 43  1  0
 41 44  1  0
M  CHG  1  17   1
M  END
