
     RDKit          3D

 49 53  0  0  0  0  0  0  0  0999 V2000
   -4.4200   -4.4270   -0.3270 C   0  0  0  0  0  0  0  0  0  0  0  0
   -5.5640   -3.4550   -0.0930 C   0  0  2  0  0  0  0  0  0  0  0  0
   -6.5060   -4.0520    0.9040 C   0  0  0  0  0  0  0  0  0  0  0  0
   -6.2390   -3.1980   -1.4290 C   0  0  0  0  0  0  0  0  0  0  0  0
   -5.0480   -2.1930    0.3960 N   0  0  0  0  0  0  0  0  0  0  0  0
   -4.2480   -1.4060   -0.4370 C   0  0  0  0  0  0  0  0  0  0  0  0
   -3.9940   -1.7990   -1.6420 O   0  0  0  0  0  0  0  0  0  0  0  0
   -3.6380   -0.1210   -0.0660 C   0  0  2  0  0  0  0  0  0  0  0  0
   -4.7070    0.7220    0.5910 C   0  0  0  0  0  0  0  0  0  0  0  0
   -4.0220    1.7860    1.4240 C   0  0  2  0  0  0  0  0  0  0  0  0
   -4.8360    3.0900    1.4220 C   0  0  0  0  0  0  0  0  0  0  0  0
   -4.2570    3.9530    2.5210 C   0  0  0  0  0  0  0  0  0  0  0  0
   -2.7410    3.9720    2.4590 C   0  0  0  0  0  0  0  0  0  0  0  0
   -2.1840    3.4490    1.1690 C   0  0  0  0  0  0  0  0  0  0  0  0
   -2.6400    2.0130    0.8700 C   0  0  2  0  0  0  0  0  0  0  0  0
   -2.7730    1.9670   -0.6400 C   0  0  0  0  0  0  0  0  0  0  0  0
   -3.1540    0.6790   -1.1640 N   0  0  1  0  0  0  0  0  0  0  0  0
   -2.2850    0.1140   -2.1060 C   0  0  0  0  0  0  0  0  0  0  0  0
   -1.0490   -0.5510   -1.7350 C   0  0  1  0  0  0  0  0  0  0  0  0
   -0.4740   -1.2020   -2.8760 O   0  0  0  0  0  0  0  0  0  0  0  0
    0.0860    0.2000   -1.1480 C   0  0  2  0  0  0  0  0  0  0  0  0
    0.9700    0.9810   -2.0800 C   0  0  0  0  0  0  0  0  0  0  0  0
    0.4680    2.0260   -2.9300 C   0  0  0  0  0  0  0  0  0  0  0  0
    0.1700    1.7170   -4.2860 C   0  0  0  0  0  0  0  0  0  0  0  0
   -0.2960    2.7130   -5.1080 C   0  0  0  0  0  0  0  0  0  0  0  0
   -0.5020    4.0130   -4.7100 C   0  0  0  0  0  0  0  0  0  0  0  0
   -0.2130    4.3050   -3.3910 C   0  0  0  0  0  0  0  0  0  0  0  0
    0.2610    3.3250   -2.5340 C   0  0  0  0  0  0  0  0  0  0  0  0
    1.0310   -0.8890   -0.6700 N   0  0  0  0  0  0  0  0  0  0  0  0
    1.7690   -0.6760    0.5200 C   0  0  0  0  0  0  0  0  0  0  0  0
    1.6620    0.3840    1.1900 O   0  0  0  0  0  0  0  0  0  0  0  0
    2.7190   -1.7560    0.9900 C   0  0  2  0  0  0  0  0  0  0  0  0
    2.0350   -2.6780    1.9540 C   0  0  0  0  0  0  0  0  0  0  0  0
    2.9630   -3.7690    2.4420 C   0  0  0  0  0  0  0  0  0  0  0  0
    2.4460   -5.0460    2.7650 N   0  0  0  0  0  0  0  0  0  0  0  0
    4.1950   -3.5340    2.5500 O   0  0  0  0  0  0  0  0  0  0  0  0
    3.8580   -1.0780    1.6300 N   0  0  0  0  0  0  0  0  0  0  0  0
    5.1680   -1.2730    1.1380 C   0  0  0  0  0  0  0  0  0  0  0  0
    5.2870   -2.0650    0.1330 O   0  0  0  0  0  0  0  0  0  0  0  0
    6.3850   -0.6740    1.6400 C   0  0  0  0  0  0  0  0  0  0  0  0
    6.4370    0.1470    2.7400 C   0  0  0  0  0  0  0  0  0  0  0  0
    7.5950    0.7620    3.1880 C   0  0  0  0  0  0  0  0  0  0  0  0
    8.7790    0.5480    2.4980 C   0  0  0  0  0  0  0  0  0  0  0  0
    9.9600    1.1500    2.8880 C   0  0  0  0  0  0  0  0  0  0  0  0
   11.1240    0.9340    2.1680 C   0  0  0  0  0  0  0  0  0  0  0  0
   11.0580    0.1180    1.0780 C   0  0  0  0  0  0  0  0  0  0  0  0
    9.8790   -0.4930    0.6740 C   0  0  0  0  0  0  0  0  0  0  0  0
    8.7160   -0.2830    1.3870 C   0  0  0  0  0  0  0  0  0  0  0  0
    7.5720   -0.8570    0.9920 N   0  0  0  0  0  0  0  0  0  0  0  0
  2  1  1  6
  2  3  1  0
  2  4  1  0
  2  5  1  0
  5  6  1  0
  6  7  2  0
  8  6  1  6
  8  9  1  0
  8 17  1  0
 10  9  1  6
 10 11  1  0
 10 15  1  0
 11 12  1  0
 12 13  1  0
 13 14  1  0
 15 14  1  6
 15 16  1  0
 16 17  1  0
 17 18  1  1
 18 19  1  0
 19 20  1  6
 19 21  1  0
 21 22  1  6
 21 29  1  0
 22 23  1  0
 23 24  2  0
 23 28  1  0
 24 25  1  0
 25 26  2  0
 26 27  1  0
 27 28  2  0
 29 30  1  0
 30 31  2  0
 30 32  1  0
 32 33  1  1
 32 37  1  0
 33 34  1  0
 34 35  1  0
 34 36  2  0
 37 38  1  0
 38 39  2  0
 38 40  1  0
 40 41  2  0
 40 49  1  0
 41 42  1  0
 42 43  2  0
 43 44  1  0
 43 48  1  0
 44 45  2  0
 45 46  1  0
 46 47  2  0
 47 48  1  0
 48 49  2  0
M  CHG  1  17   1
M  END
