
     RDKit          3D

 27 28  0  0  0  0  0  0  0  0999 V2000
    6.2530    1.4650   -1.0730 C   0  0  0  0  0  0  0  0  0  0  0  0
    6.2830    0.1610   -0.3650 C   0  0  0  0  0  0  0  0  0  0  0  0
    5.5020   -0.0820    0.6800 C   0  0  0  0  0  0  0  0  0  0  0  0
    4.5980    0.8110    1.2190 N   0  0  0  0  0  0  0  0  0  0  0  0
    3.3590    0.9520    1.1740 C   0  0  0  0  0  0  0  0  0  0  0  0
    2.7540    2.1100    1.9410 C   0  0  0  0  0  0  0  0  0  0  0  0
    2.4060    0.1130    0.4540 C   0  0  0  0  0  0  0  0  0  0  0  0
    2.7510   -0.9850   -0.3010 C   0  0  0  0  0  0  0  0  0  0  0  0
    1.8330   -1.7780   -0.9850 C   0  0  0  0  0  0  0  0  0  0  0  0
    2.2430   -2.8820   -1.7350 O   0  0  0  0  0  0  0  0  0  0  0  0
    3.6180   -3.1660   -1.7770 C   0  0  0  0  0  0  0  0  0  0  0  0
    0.5020   -1.4260   -0.8880 C   0  0  0  0  0  0  0  0  0  0  0  0
   -0.4490   -2.1770   -1.5450 O   0  0  0  0  0  0  0  0  0  0  0  0
   -1.0210   -3.2690   -0.8420 C   0  0  0  0  0  0  0  0  0  0  0  0
    0.0860   -0.3380   -0.1500 C   0  0  0  0  0  0  0  0  0  0  0  0
   -1.2690   -0.0390   -0.0940 O   0  0  0  0  0  0  0  0  0  0  0  0
   -1.8980    0.8010   -0.9950 C   0  0  0  0  0  0  0  0  0  0  0  0
   -1.0870    1.2690   -1.8830 O   0  0  0  0  0  0  0  0  0  0  0  0
   -3.3080    1.1780   -1.0240 C   0  0  0  0  0  0  0  0  0  0  0  0
   -4.1510    0.5870    0.0300 C   0  0  0  0  0  0  0  0  0  0  0  0
   -3.8810   -0.2280    1.0090 C   0  0  0  0  0  0  0  0  0  0  0  0
   -5.0920   -0.5490    1.8300 C   0  0  0  0  0  0  0  0  0  0  0  0
   -6.1180    0.2330    1.1440 C   0  0  0  0  0  0  0  0  0  0  0  0
   -5.6040    0.8690    0.1400 C   0  0  0  0  0  0  0  0  0  0  0  0
   -6.3090    1.6990   -0.7150 O   0  0  0  0  0  0  0  0  0  0  0  0
   -6.8010    2.9120   -0.1740 C   0  0  0  0  0  0  0  0  0  0  0  0
    1.0360    0.3960    0.4950 C   0  0  0  0  0  0  0  0  0  0  0  0
  1  2  1  0
  2  3  2  3
  3  4  1  0
  4  5  2  3
  5  6  1  0
  5  7  1  0
  7  8  2  0
  7 27  1  0
  8  9  1  0
  9 10  1  0
  9 12  2  0
 10 11  1  0
 12 13  1  0
 12 15  1  0
 13 14  1  0
 15 16  1  0
 15 27  2  0
 16 17  1  0
 17 18  2  0
 17 19  1  0
 19 20  1  0
 20 21  2  0
 20 24  1  0
 21 22  1  0
 22 23  1  0
 23 24  2  0
 24 25  1  0
 25 26  1  0
M  END
