
     RDKit          3D

 27 28  0  0  0  0  0  0  0  0999 V2000
    3.2870    5.2100    0.9600 C   0  0  0  0  0  0  0  0  0  0  0  0
    2.3940    4.0520    0.6790 C   0  0  0  0  0  0  0  0  0  0  0  0
    2.8650    2.9020    0.2280 C   0  0  0  0  0  0  0  0  0  0  0  0
    1.9800    1.7750   -0.0420 C   0  0  0  0  0  0  0  0  0  0  0  0
    0.6110    1.7460    0.1310 C   0  0  0  0  0  0  0  0  0  0  0  0
    0.1300    0.4980   -0.2370 C   0  0  0  0  0  0  0  0  0  0  0  0
   -1.2630    0.0730   -0.2070 C   0  0  0  0  0  0  0  0  0  0  0  0
   -1.9940    0.2180    0.9800 C   0  0  0  0  0  0  0  0  0  0  0  0
   -3.3130   -0.1610    1.0830 C   0  0  0  0  0  0  0  0  0  0  0  0
   -4.0450   -0.0220    2.2570 O   0  0  0  0  0  0  0  0  0  0  0  0
   -3.3550    0.5370    3.3680 C   0  0  0  0  0  0  0  0  0  0  0  0
   -3.9480   -0.7030   -0.0130 C   0  0  0  0  0  0  0  0  0  0  0  0
   -5.2750   -1.0890    0.0790 O   0  0  0  0  0  0  0  0  0  0  0  0
   -6.3420   -0.2180   -0.2140 C   0  0  0  0  0  0  0  0  0  0  0  0
   -3.2640   -0.8670   -1.2210 C   0  0  0  0  0  0  0  0  0  0  0  0
   -3.9390   -1.4120   -2.2900 O   0  0  0  0  0  0  0  0  0  0  0  0
   -3.3060   -1.6060   -3.5500 C   0  0  0  0  0  0  0  0  0  0  0  0
   -1.9480   -0.4670   -1.2530 C   0  0  0  0  0  0  0  0  0  0  0  0
    1.2690   -0.1950   -0.6290 C   0  0  0  0  0  0  0  0  0  0  0  0
    1.2480   -1.5620   -1.0990 C   0  0  0  0  0  0  0  0  0  0  0  0
    2.1820   -2.4110   -0.7010 C   0  0  0  0  0  0  0  0  0  0  0  0
    2.1610   -3.8050   -1.1840 C   0  0  0  0  0  0  0  0  0  0  0  0
    1.2870   -4.2400   -1.9640 O   0  0  0  0  0  0  0  0  0  0  0  0
    3.2210   -2.0850    0.2010 N   0  0  0  0  0  0  0  0  0  0  0  0
    4.5980   -1.8370   -0.1300 C   0  0  0  0  0  0  0  0  0  0  0  0
    5.4330   -1.6180    1.1220 C   0  0  0  0  0  0  0  0  0  0  0  0
    2.3110    0.5960   -0.4940 O   0  0  0  0  0  0  0  0  0  0  0  0
  1  2  1  0
  2  3  2  3
  3  4  1  0
  4  5  2  0
  4 27  1  0
  5  6  1  0
  6  7  1  0
  6 19  2  0
  7  8  2  0
  7 18  1  0
  8  9  1  0
  9 10  1  0
  9 12  2  0
 10 11  1  0
 12 13  1  0
 12 15  1  0
 13 14  1  0
 15 16  1  0
 15 18  2  0
 16 17  1  0
 19 20  1  0
 19 27  1  0
 20 21  2  3
 21 22  1  0
 21 24  1  0
 22 23  2  0
 24 25  1  0
 25 26  1  0
M  END
