
     RDKit          3D

 27 28  0  0  0  0  0  0  0  0999 V2000
   -6.2160   -3.2450   -1.5080 C   0  0  0  0  0  0  0  0  0  0  0  0
   -5.9470   -1.8460   -0.9960 C   0  0  0  0  0  0  0  0  0  0  0  0
   -4.6360   -1.8000   -0.5030 O   0  0  0  0  0  0  0  0  0  0  0  0
   -4.0960   -0.6250    0.0420 C   0  0  0  0  0  0  0  0  0  0  0  0
   -4.8980    0.4990    0.0800 C   0  0  0  0  0  0  0  0  0  0  0  0
   -4.4090    1.6780    0.6070 C   0  0  0  0  0  0  0  0  0  0  0  0
   -5.2310    2.9180    0.6730 C   0  0  0  0  0  0  0  0  0  0  0  0
   -3.1130    1.6690    1.0790 C   0  0  0  0  0  0  0  0  0  0  0  0
   -2.3070    0.5430    1.0420 C   0  0  0  0  0  0  0  0  0  0  0  0
   -2.8030   -0.6320    0.5130 C   0  0  0  0  0  0  0  0  0  0  0  0
   -1.9930   -1.8070    0.4690 N   0  0  0  0  0  0  0  0  0  0  0  0
   -0.6310   -1.8290    0.9360 C   0  0  0  0  0  0  0  0  0  0  0  0
    0.2520   -0.9070    0.1470 C   0  0  0  0  0  0  0  0  0  0  0  0
   -0.2000   -0.3510   -1.0380 C   0  0  0  0  0  0  0  0  0  0  0  0
    0.6180    0.4870   -1.7380 C   0  0  0  0  0  0  0  0  0  0  0  0
    1.8970    0.7710   -1.2490 C   0  0  0  0  0  0  0  0  0  0  0  0
    2.7850    1.6820   -2.0130 C   0  0  0  0  0  0  0  0  0  0  0  0
    2.3720    0.2330   -0.0750 C   0  0  0  0  0  0  0  0  0  0  0  0
    3.7040    0.5220    0.4440 C   0  0  0  0  0  0  0  0  0  0  0  0
    4.0640   -0.0130    1.5310 O   0  0  0  0  0  0  0  0  0  0  0  0
    4.6160    1.3490   -0.1720 O   0  0  0  0  0  0  0  0  0  0  0  0
    5.8980    1.6350    0.3150 C   0  0  0  0  0  0  0  0  0  0  0  0
    6.7430    0.4270    0.4570 C   0  0  0  0  0  0  0  0  0  0  0  0
    6.3030   -0.7110    0.1550 O   0  0  0  0  0  0  0  0  0  0  0  0
    8.0260    0.5500    0.9240 O   0  0  0  0  0  0  0  0  0  0  0  0
    8.9120   -0.5460    1.0940 C   0  0  0  0  0  0  0  0  0  0  0  0
    1.5120   -0.6110    0.6040 C   0  0  0  0  0  0  0  0  0  0  0  0
  1  2  1  0
  2  3  1  0
  3  4  1  0
  4  5  2  0
  4 10  1  0
  5  6  1  0
  6  7  1  0
  6  8  2  0
  8  9  1  0
  9 10  2  0
 10 11  1  0
 11 12  1  0
 12 13  1  0
 13 14  2  0
 13 27  1  0
 14 15  1  0
 15 16  2  0
 16 17  1  0
 16 18  1  0
 18 19  1  0
 18 27  2  0
 19 20  2  0
 19 21  1  0
 21 22  1  0
 22 23  1  0
 23 24  2  0
 23 25  1  0
 25 26  1  0
M  END
