
     RDKit          3D

 27 28  0  0  0  0  0  0  0  0999 V2000
    1.9660   -0.4680   -2.3210 C   0  0  0  0  0  0  0  0  0  0  0  0
    2.1660    0.6160   -1.4750 O   0  0  0  0  0  0  0  0  0  0  0  0
    2.1560    0.6190   -0.0980 C   0  0  0  0  0  0  0  0  0  0  0  0
    3.0310   -0.0990    0.5690 C   0  0  0  0  0  0  0  0  0  0  0  0
    4.0350   -0.9180    0.0160 N   0  0  0  0  0  0  0  0  0  0  0  0
    5.3790   -0.4160   -0.2340 C   0  0  0  0  0  0  0  0  0  0  0  0
    5.6690    0.1740   -1.5510 C   0  0  0  0  0  0  0  0  0  0  0  0
    6.2110   -0.5440    0.7580 C   0  0  0  0  0  0  0  0  0  0  0  0
    7.5760   -0.1330    0.7630 C   0  0  0  0  0  0  0  0  0  0  0  0
    8.3570    0.5050   -0.2810 C   0  0  0  0  0  0  0  0  0  0  0  0
    8.2190   -0.3650    1.8690 O   0  0  0  0  0  0  0  0  0  0  0  0
    1.1570    1.4330    0.6180 C   0  0  0  0  0  0  0  0  0  0  0  0
   -0.1600    1.0620    0.3120 O   0  0  0  0  0  0  0  0  0  0  0  0
   -0.6090   -0.2130    0.5650 C   0  0  0  0  0  0  0  0  0  0  0  0
    0.1570   -1.0540    1.0700 O   0  0  0  0  0  0  0  0  0  0  0  0
   -1.9980   -0.5770    0.2390 C   0  0  2  0  0  0  0  0  0  0  0  0
   -2.3090   -0.3960   -1.1970 C   0  0  0  0  0  0  0  0  0  0  0  0
   -2.8330    0.9410   -1.6090 C   0  0  0  0  0  0  0  0  0  0  0  0
   -4.2680    0.8700   -1.4890 O   0  0  0  0  0  0  0  0  0  0  0  0
   -4.8890    0.3930   -0.3290 C   0  0  0  0  0  0  0  0  0  0  0  0
   -6.2620    0.2450   -0.4500 C   0  0  0  0  0  0  0  0  0  0  0  0
   -7.0570   -0.2110    0.5780 C   0  0  0  0  0  0  0  0  0  0  0  0
   -8.5160   -0.3680    0.4460 C   0  0  0  0  0  0  0  0  0  0  0  0
   -6.4350   -0.5330    1.7860 C   0  0  0  0  0  0  0  0  0  0  0  0
   -5.0750   -0.4020    1.9530 C   0  0  0  0  0  0  0  0  0  0  0  0
   -4.3300    0.0600    0.8900 C   0  0  0  0  0  0  0  0  0  0  0  0
   -2.8850    0.1540    1.2100 C   0  0  0  0  0  0  0  0  0  0  0  0
  1  2  1  0
  2  3  1  0
  3  4  2  3
  3 12  1  0
  4  5  1  0
  5  6  1  0
  6  7  1  0
  6  8  2  3
  8  9  1  0
  9 10  1  0
  9 11  2  0
 12 13  1  0
 13 14  1  0
 14 15  2  0
 16 14  1  6
 16 17  1  0
 16 27  1  0
 17 18  1  0
 18 19  1  0
 19 20  1  0
 20 21  2  0
 20 26  1  0
 21 22  1  0
 22 23  1  0
 22 24  2  0
 24 25  1  0
 25 26  2  0
 26 27  1  0
M  END
