
     RDKit          3D

 26 27  0  0  0  0  0  0  0  0999 V2000
    2.1820   -0.4650   -4.2940 C   0  0  0  0  0  0  0  0  0  0  0  0
    3.0620   -0.3860   -3.1090 C   0  0  0  0  0  0  0  0  0  0  0  0
    3.0310    0.5780   -2.2370 C   0  0  0  0  0  0  0  0  0  0  0  0
    2.1260    1.6160   -2.3890 O   0  0  0  0  0  0  0  0  0  0  0  0
    0.7730    1.4780   -2.4470 C   0  0  0  0  0  0  0  0  0  0  0  0
    0.1420    0.8160   -1.2460 C   0  0  0  0  0  0  0  0  0  0  0  0
    0.8900    0.4570   -0.3300 O   0  0  0  0  0  0  0  0  0  0  0  0
   -1.2310    0.6030   -1.1450 N   0  0  0  0  0  0  0  0  0  0  0  0
   -1.9440    0.0040   -0.0830 C   0  0  0  0  0  0  0  0  0  0  0  0
   -1.4050   -0.3670    1.1310 C   0  0  0  0  0  0  0  0  0  0  0  0
   -2.1800   -0.9670    2.1300 C   0  0  0  0  0  0  0  0  0  0  0  0
   -3.5240   -1.2100    1.9330 C   0  0  0  0  0  0  0  0  0  0  0  0
   -4.0750   -0.8460    0.7290 C   0  0  0  0  0  0  0  0  0  0  0  0
   -3.2990   -0.2670   -0.2200 C   0  0  0  0  0  0  0  0  0  0  0  0
   -5.4980   -1.1120    0.5330 C   0  0  0  0  0  0  0  0  0  0  0  0
   -5.9200   -1.3250   -0.6190 O   0  0  0  0  0  0  0  0  0  0  0  0
   -6.4360   -1.1310    1.6720 C   0  0  0  0  0  0  0  0  0  0  0  0
   -5.7500   -1.2520    2.9940 C   0  0  0  0  0  0  0  0  0  0  0  0
   -4.3830   -1.8410    2.9540 C   0  0  0  0  0  0  0  0  0  0  0  0
    3.9480    0.6140   -1.0610 C   0  0  0  0  0  0  0  0  0  0  0  0
    3.7960    1.7010   -0.2430 C   0  0  0  0  0  0  0  0  0  0  0  0
    4.6200    1.8730    0.9420 C   0  0  0  0  0  0  0  0  0  0  0  0
    4.4290    3.0530    1.8000 C   0  0  0  0  0  0  0  0  0  0  0  0
    5.4900    1.0220    1.2340 O   0  0  0  0  0  0  0  0  0  0  0  0
    4.8690   -0.2600   -0.7250 O   0  0  0  0  0  0  0  0  0  0  0  0
    5.4150   -1.3830   -1.2000 C   0  0  0  0  0  0  0  0  0  0  0  0
  1  2  1  0
  2  3  2  3
  3  4  1  0
  3 20  1  0
  4  5  1  0
  5  6  1  0
  6  7  2  0
  6  8  1  0
  8  9  1  0
  9 10  2  0
  9 14  1  0
 10 11  1  0
 11 12  2  0
 12 13  1  0
 12 19  1  0
 13 14  2  0
 13 15  1  0
 15 16  2  0
 15 17  1  0
 17 18  1  0
 18 19  1  0
 20 21  2  3
 20 25  1  0
 21 22  1  0
 22 23  1  0
 22 24  2  0
 25 26  1  0
M  END
