
     RDKit          3D

 27 28  0  0  0  0  0  0  0  0999 V2000
   -0.1700   -3.0340   -0.1200 C   0  0  0  0  0  0  0  0  0  0  0  0
   -0.7100   -2.0740   -0.3440 C   0  0  0  0  0  0  0  0  0  0  0  0
   -1.4300   -0.7620   -0.6690 C   0  0  0  0  0  0  0  0  0  0  0  0
   -1.3380    0.2760    0.2060 N   0  0  0  0  0  0  0  0  0  0  0  0
   -0.0560    1.1450    0.0250 C   0  0  0  0  0  0  0  0  0  0  0  0
    0.9700    0.8330    1.0020 C   0  0  0  0  0  0  0  0  0  0  0  0
    1.6010   -0.3660    1.1210 O   0  0  0  0  0  0  0  0  0  0  0  0
    2.4790   -0.9650    0.2660 C   0  0  0  0  0  0  0  0  0  0  0  0
    3.0210   -2.2030    0.6320 C   0  0  0  0  0  0  0  0  0  0  0  0
    3.9140   -2.8130   -0.1970 C   0  0  0  0  0  0  0  0  0  0  0  0
    4.3280   -2.2640   -1.4150 C   0  0  0  0  0  0  0  0  0  0  0  0
    5.2280   -2.8910   -2.2340 O   0  0  0  0  0  0  0  0  0  0  0  0
    3.7980   -1.0590   -1.7790 C   0  0  0  0  0  0  0  0  0  0  0  0
    4.1400   -0.4180   -3.0060 O   0  0  0  0  0  0  0  0  0  0  0  0
    3.4970    0.7980   -3.3400 C   0  0  0  0  0  0  0  0  0  0  0  0
    4.0530    1.2740   -4.6600 C   0  0  0  0  0  0  0  0  0  0  0  0
    2.9010   -0.4370   -0.9570 C   0  0  0  0  0  0  0  0  0  0  0  0
   -2.1300    0.8370    1.1920 C   0  0  0  0  0  0  0  0  0  0  0  0
   -1.4330    1.8840    1.7510 O   0  0  0  0  0  0  0  0  0  0  0  0
   -3.4030    0.7680    1.8560 C   0  0  0  0  0  0  0  0  0  0  0  0
   -3.7670    1.7230    2.7590 C   0  0  0  0  0  0  0  0  0  0  0  0
   -3.0050    2.9290    3.2250 C   0  0  0  0  0  0  0  0  0  0  0  0
   -5.1310    1.4860    3.2750 C   0  0  0  0  0  0  0  0  0  0  0  0
   -5.5120    0.2650    2.5990 C   0  0  0  0  0  0  0  0  0  0  0  0
   -4.5210   -0.1620    1.7750 C   0  0  0  0  0  0  0  0  0  0  0  0
   -4.6830   -1.3760    1.0460 C   0  0  0  0  0  0  0  0  0  0  0  0
   -3.9770   -2.0200    0.3010 O   0  0  0  0  0  0  0  0  0  0  0  0
  1  2  3  0
  2  3  1  0
  3  4  1  0
  4  5  1  0
  4 18  1  0
  5  6  1  0
  6  7  1  0
  7  8  1  0
  8  9  2  0
  8 17  1  0
  9 10  1  0
 10 11  2  0
 11 12  1  0
 11 13  1  0
 13 14  1  0
 13 17  2  0
 14 15  1  0
 15 16  1  0
 18 19  2  0
 18 20  1  0
 20 21  2  0
 20 25  1  0
 21 22  1  0
 21 23  1  0
 23 24  1  0
 24 25  2  0
 25 26  1  0
 26 27  2  0
M  END
