
     RDKit          3D

 17 17  0  0  0  0  0  0  0  0999 V2000
    4.1160    0.2540   -2.0830 C   0  0  0  0  0  0  0  0  0  0  0  0
    4.2740   -0.8520   -1.4000 C   0  0  0  0  0  0  0  0  0  0  0  0
    4.4300   -2.0730   -0.6670 C   0  0  0  0  0  0  0  0  0  0  0  0
    3.3490   -1.7170    0.4460 N   0  0  0  0  0  0  0  0  0  0  0  0
    1.9770   -1.6640    0.1490 C   0  0  0  0  0  0  0  0  0  0  0  0
    1.5110   -2.1030   -0.9020 O   0  0  0  0  0  0  0  0  0  0  0  0
    1.0710   -0.9320    1.2060 C   0  0  0  0  0  0  0  0  0  0  0  0
    0.0330   -0.3170    0.4050 O   0  0  0  0  0  0  0  0  0  0  0  0
   -0.9770    0.3950    0.8550 C   0  0  0  0  0  0  0  0  0  0  0  0
   -1.1410    0.5940    2.1260 O   0  0  0  0  0  0  0  0  0  0  0  0
   -1.9720    0.9880   -0.1150 C   0  0  0  0  0  0  0  0  0  0  0  0
   -1.5420    1.2850   -1.4030 C   0  0  0  0  0  0  0  0  0  0  0  0
   -3.0270    1.6180   -2.3070 S   0  0  0  0  0  0  0  0  0  0  0  0
   -4.1320    1.3500   -0.9020 C   0  0  0  0  0  0  0  0  0  0  0  0
   -3.2860    1.0250    0.1520 C   0  0  0  0  0  0  0  0  0  0  0  0
   -3.8900    0.8690    1.5660 C   0  0  0  0  0  0  0  0  0  0  0  0
   -3.3910    1.9090    2.4130 O   0  0  0  0  0  0  0  0  0  0  0  0
  1  2  3  0
  2  3  1  0
  3  4  1  0
  4  5  1  0
  5  6  2  0
  5  7  1  0
  7  8  1  0
  8  9  1  0
  9 10  2  0
  9 11  1  0
 11 12  2  0
 11 15  1  0
 12 13  1  0
 13 14  1  0
 14 15  2  0
 15 16  1  0
 16 17  1  0
M  END
