
     RDKit          3D

 17 17  0  0  0  0  0  0  0  0999 V2000
    4.6810    0.9740   -0.1190 C   0  0  0  0  0  0  0  0  0  0  0  0
    4.1730   -0.5950   -0.7730 S   0  0  1  0  0  0  0  0  0  0  0  0
    4.6270   -0.6840   -2.1840 O   0  0  0  0  0  0  0  0  0  0  0  0
    4.7860   -1.7250   -0.0110 O   0  0  0  0  0  0  0  0  0  0  0  0
    2.3710   -0.7510   -0.6790 C   0  0  0  0  0  0  0  0  0  0  0  0
    1.9100   -0.6560    0.7010 C   0  0  0  0  0  0  0  0  0  0  0  0
    2.8920   -0.5800    1.5680 O   0  0  0  0  0  0  0  0  0  0  0  0
    0.5870   -0.6320    1.2480 C   0  0  0  0  0  0  0  0  0  0  0  0
   -0.5830   -0.6770    0.7670 C   0  0  0  0  0  0  0  0  0  0  0  0
   -1.6930   -0.6110    1.8790 C   0  0  0  0  0  0  0  0  0  0  0  0
   -2.7130    0.1130    1.3000 C   0  0  0  0  0  0  0  0  0  0  0  0
   -3.9120    0.7400    0.8810 C   0  0  0  0  0  0  0  0  0  0  0  0
   -3.7580    1.0190   -0.5980 C   0  0  0  0  0  0  0  0  0  0  0  0
   -4.7460    1.4800   -1.1450 O   0  0  0  0  0  0  0  0  0  0  0  0
   -2.6520    0.8370   -1.4810 N   0  0  0  0  0  0  0  0  0  0  0  0
   -1.2300    0.4970   -1.3830 C   0  0  0  0  0  0  0  0  0  0  0  0
   -0.8450   -0.7610   -0.6820 C   0  0  0  0  0  0  0  0  0  0  0  0
  2  1  1  1
  2  3  2  0
  2  4  2  0
  2  5  1  0
  5  6  1  0
  6  7  2  0
  6  8  1  0
  8  9  2  3
  9 10  1  0
  9 17  1  0
 10 11  1  0
 11 12  1  0
 12 13  1  0
 13 14  2  0
 13 15  1  0
 15 16  1  0
 16 17  1  0
M  END
