
     RDKit          3D

 17 17  0  0  0  0  0  0  0  0999 V2000
    6.0350   -0.0260   -0.5240 C   0  0  0  0  0  0  0  0  0  0  0  0
    4.6960   -0.5610   -1.0180 C   0  0  0  0  0  0  0  0  0  0  0  0
    3.6280    0.1140   -0.1720 C   0  0  0  0  0  0  0  0  0  0  0  0
    2.0070   -0.4330   -0.6560 S   0  0  2  0  0  0  0  0  0  0  0  0
    1.9530   -1.9190   -0.4040 O   0  0  0  0  0  0  0  0  0  0  0  0
    1.7550   -0.1450   -2.1020 O   0  0  0  0  0  0  0  0  0  0  0  0
    0.8270    0.3940    0.3710 C   0  0  0  0  0  0  0  0  0  0  0  0
   -0.5770   -0.0300    0.0070 C   0  0  0  0  0  0  0  0  0  0  0  0
   -0.6950   -0.8430   -0.9000 O   0  0  0  0  0  0  0  0  0  0  0  0
   -1.7000    0.4920    0.6860 N   0  0  0  0  0  0  0  0  0  0  0  0
   -3.0510    0.1770    0.4400 C   0  0  0  0  0  0  0  0  0  0  0  0
   -3.5190   -0.6980   -0.5070 C   0  0  0  0  0  0  0  0  0  0  0  0
   -4.8630   -0.9750   -0.7100 C   0  0  0  0  0  0  0  0  0  0  0  0
   -5.7950   -0.3570    0.0620 C   0  0  0  0  0  0  0  0  0  0  0  0
   -5.3950    0.5190    1.0170 C   0  0  0  0  0  0  0  0  0  0  0  0
   -4.0350    0.7910    1.2130 C   0  0  0  0  0  0  0  0  0  0  0  0
   -3.7270    1.6970    2.2090 O   0  0  0  0  0  0  0  0  0  0  0  0
  1  2  1  0
  2  3  1  0
  4  3  1  1
  4  5  2  0
  4  6  2  0
  4  7  1  0
  7  8  1  0
  8  9  2  0
  8 10  1  0
 10 11  1  0
 11 12  2  0
 11 16  1  0
 12 13  1  0
 13 14  2  0
 14 15  1  0
 15 16  2  0
 16 17  1  0
M  END
