
     RDKit          3D

 16 16  0  0  0  0  0  0  0  0999 V2000
    3.9140    1.5960   -0.2720 C   0  0  0  0  0  0  0  0  0  0  0  0
    4.0620    0.7580    0.7950 O   0  0  0  0  0  0  0  0  0  0  0  0
    3.9790   -0.5720    0.5160 C   0  0  0  0  0  0  0  0  0  0  0  0
    2.6940   -1.1060    0.0820 C   0  0  0  0  0  0  0  0  0  0  0  0
    2.7080   -2.3010   -0.3940 O   0  0  0  0  0  0  0  0  0  0  0  0
    1.4460   -0.4500    0.1350 N   0  0  0  0  0  0  0  0  0  0  0  0
    0.2850   -1.1710   -0.3640 C   0  0  0  0  0  0  0  0  0  0  0  0
   -0.9210   -0.3920   -0.2530 C   0  0  0  0  0  0  0  0  0  0  0  0
   -1.1180    1.2640    0.3930 S   0  0  0  0  0  0  0  0  0  0  0  0
   -2.8170    1.4280    0.1650 C   0  0  0  0  0  0  0  0  0  0  0  0
   -3.6540    2.6010    0.5000 C   0  0  0  0  0  0  0  0  0  0  0  0
   -3.1780    0.2240   -0.3930 C   0  0  0  0  0  0  0  0  0  0  0  0
   -2.2450   -0.7110   -0.6150 C   0  0  0  0  0  0  0  0  0  0  0  0
   -2.5370   -2.0550   -1.2180 C   0  0  0  0  0  0  0  0  0  0  0  0
   -1.6110   -2.8460   -1.3820 O   0  0  0  0  0  0  0  0  0  0  0  0
   -3.8280   -2.3650   -1.5700 O   0  0  0  0  0  0  0  0  0  0  0  0
  1  2  1  0
  2  3  1  0
  3  4  1  0
  4  5  2  0
  4  6  1  0
  6  7  1  0
  7  8  1  0
  8  9  1  0
  8 13  2  0
  9 10  1  0
 10 11  1  0
 10 12  2  0
 12 13  1  0
 13 14  1  0
 14 15  2  0
 14 16  1  0
M  END
