
     RDKit          3D

 17 17  0  0  0  0  0  0  0  0999 V2000
    5.1760   -0.6300    0.9350 C   0  0  0  0  0  0  0  0  0  0  0  0
    4.9930    0.0520   -0.2240 O   0  0  0  0  0  0  0  0  0  0  0  0
    3.9020    0.8850   -0.3130 C   0  0  0  0  0  0  0  0  0  0  0  0
    2.6600    0.0910   -0.2270 C   0  0  0  0  0  0  0  0  0  0  0  0
    2.6800   -1.1490   -0.1600 O   0  0  0  0  0  0  0  0  0  0  0  0
    1.3910    0.7690   -0.2200 N   0  0  0  0  0  0  0  0  0  0  0  0
    0.1900    0.0140   -0.1370 C   0  0  0  0  0  0  0  0  0  0  0  0
    0.2020   -1.8190   -0.0350 S   0  0  0  0  0  0  0  0  0  0  0  0
   -1.5200   -1.9960    0.0350 C   0  0  0  0  0  0  0  0  0  0  0  0
   -2.1970   -3.3050    0.1300 C   0  0  0  0  0  0  0  0  0  0  0  0
   -2.0170   -0.7050   -0.0200 C   0  0  0  0  0  0  0  0  0  0  0  0
   -3.5390   -0.5830    0.0120 C   0  0  0  0  0  0  0  0  0  0  0  0
   -1.1240    0.3090   -0.1080 C   0  0  0  0  0  0  0  0  0  0  0  0
   -1.5340    1.7440   -0.1990 C   0  0  0  0  0  0  0  0  0  0  0  0
   -0.5970    2.6110   -0.3380 O   0  0  0  0  0  0  0  0  0  0  0  0
   -2.8970    2.2440   -0.1430 C   0  0  0  0  0  0  0  0  0  0  0  0
   -2.8340    3.6480   -0.4620 O   0  0  0  0  0  0  0  0  0  0  0  0
  1  2  1  0
  2  3  1  0
  3  4  1  0
  4  5  2  0
  4  6  1  0
  6  7  1  0
  7  8  1  0
  7 13  2  0
  8  9  1  0
  9 10  1  0
  9 11  2  0
 11 12  1  0
 11 13  1  0
 13 14  1  0
 14 15  2  0
 14 16  1  0
 16 17  1  0
M  END
