
     RDKit          3D

 17 17  0  0  0  0  0  0  0  0999 V2000
    5.5670    2.5240    1.0970 C   0  0  0  0  0  0  0  0  0  0  0  0
    4.8750    2.0330   -0.0520 O   0  0  0  0  0  0  0  0  0  0  0  0
    3.7230    1.2870    0.0310 C   0  0  0  0  0  0  0  0  0  0  0  0
    3.2480    1.0180    1.1500 O   0  0  0  0  0  0  0  0  0  0  0  0
    3.0480    0.8050   -1.1860 C   0  0  0  0  0  0  0  0  0  0  0  0
    1.8370    0.0270   -0.9180 C   0  0  0  0  0  0  0  0  0  0  0  0
    0.5330    0.4020   -0.7830 C   0  0  0  0  0  0  0  0  0  0  0  0
   -0.3900   -0.5330   -0.5350 C   0  0  0  0  0  0  0  0  0  0  0  0
   -1.8340   -0.2280   -0.3720 C   0  0  0  0  0  0  0  0  0  0  0  0
   -2.2980    1.0700   -0.4730 O   0  0  0  0  0  0  0  0  0  0  0  0
   -2.6720   -1.1480   -0.1360 N   0  0  0  0  0  0  0  0  0  0  0  0
   -4.0730   -0.9280    0.0320 C   0  0  0  0  0  0  0  0  0  0  0  0
   -4.3580   -0.5080    1.4640 C   0  0  0  0  0  0  0  0  0  0  0  0
   -3.6710    0.6570    1.7320 O   0  0  0  0  0  0  0  0  0  0  0  0
    0.0330   -1.8490   -0.4280 C   0  0  0  0  0  0  0  0  0  0  0  0
   -0.7400   -3.0810   -0.1640 C   0  0  0  0  0  0  0  0  0  0  0  0
    1.7780   -1.7110   -0.6900 S   0  0  0  0  0  0  0  0  0  0  0  0
  1  2  1  0
  2  3  1  0
  3  4  2  0
  3  5  1  0
  5  6  1  0
  6  7  2  0
  6 17  1  0
  7  8  1  0
  8  9  1  0
  8 15  2  0
  9 10  1  0
  9 11  2  3
 11 12  1  0
 12 13  1  0
 13 14  1  0
 15 16  1  0
 15 17  1  0
M  END
