
     RDKit          3D

 16 16  0  0  0  0  0  0  0  0999 V2000
   -4.1320   -0.4820   -0.0600 C   0  0  0  0  0  0  0  0  0  0  0  0
   -3.2740   -0.6200    1.0570 O   0  0  0  0  0  0  0  0  0  0  0  0
   -1.9400   -0.2810    0.9310 C   0  0  0  0  0  0  0  0  0  0  0  0
   -1.4520    0.1940   -0.3010 C   0  0  0  0  0  0  0  0  0  0  0  0
   -0.1350    0.5360   -0.4490 C   0  0  0  0  0  0  0  0  0  0  0  0
    0.4280    1.0190   -1.6490 N   0  0  0  0  0  0  0  0  0  0  0  0
   -0.2150    1.2380   -2.8760 C   0  0  0  0  0  0  0  0  0  0  0  0
   -1.4270    0.9990   -2.9940 O   0  0  0  0  0  0  0  0  0  0  0  0
    0.6800    0.3840    0.6810 C   0  0  0  0  0  0  0  0  0  0  0  0
    2.4020    0.8250    0.5060 S   0  0  0  0  0  0  0  0  0  0  0  0
    3.3980   -0.5750   -0.0240 C   0  0  0  0  0  0  0  0  0  0  0  0
    4.8280   -0.1870   -0.1640 C   0  0  0  0  0  0  0  0  0  0  0  0
    5.1260    0.9690    0.0860 O   0  0  0  0  0  0  0  0  0  0  0  0
    0.2040   -0.0810    1.8870 C   0  0  0  0  0  0  0  0  0  0  0  0
   -1.1240   -0.4220    2.0240 C   0  0  0  0  0  0  0  0  0  0  0  0
   -1.6690   -0.8950    3.2060 O   0  0  0  0  0  0  0  0  0  0  0  0
  1  2  1  0
  2  3  1  0
  3  4  2  0
  3 15  1  0
  4  5  1  0
  5  6  1  0
  5  9  2  0
  6  7  1  0
  7  8  2  0
  9 10  1  0
  9 14  1  0
 10 11  1  0
 11 12  1  0
 12 13  2  0
 14 15  2  0
 15 16  1  0
M  END
