
     RDKit          3D

 17 17  0  0  0  0  0  0  0  0999 V2000
    5.5730   -0.6380    0.2500 C   0  0  0  0  0  0  0  0  0  0  0  0
    4.5800   -0.2060   -0.6410 O   0  0  0  0  0  0  0  0  0  0  0  0
    3.7990   -1.0530   -1.4170 C   0  0  0  0  0  0  0  0  0  0  0  0
    4.0130   -2.2900   -1.2970 O   0  0  0  0  0  0  0  0  0  0  0  0
    2.7610   -0.5180   -2.3420 C   0  0  0  0  0  0  0  0  0  0  0  0
    1.1560   -0.3540   -1.5370 S   0  0  0  0  0  0  0  0  0  0  0  0
    1.2420    0.9240   -0.2370 C   0  0  0  0  0  0  0  0  0  0  0  0
   -0.0730    1.0750    0.4400 C   0  0  0  0  0  0  0  0  0  0  0  0
   -0.1660    1.9100    1.3490 O   0  0  0  0  0  0  0  0  0  0  0  0
   -1.1580    0.2750    0.0310 N   0  0  0  0  0  0  0  0  0  0  0  0
   -2.4510    0.3040    0.5710 C   0  0  0  0  0  0  0  0  0  0  0  0
   -2.8440    1.1250    1.5840 C   0  0  0  0  0  0  0  0  0  0  0  0
   -4.1430    1.1250    2.0940 C   0  0  0  0  0  0  0  0  0  0  0  0
   -5.0620    0.2640    1.5570 C   0  0  0  0  0  0  0  0  0  0  0  0
   -4.7070   -0.5840    0.5320 C   0  0  0  0  0  0  0  0  0  0  0  0
   -3.4230   -0.5610    0.0500 C   0  0  0  0  0  0  0  0  0  0  0  0
   -3.0670   -1.4330   -1.0010 O   0  0  0  0  0  0  0  0  0  0  0  0
  1  2  1  0
  2  3  1  0
  3  4  2  0
  3  5  1  0
  5  6  1  0
  6  7  1  0
  7  8  1  0
  8  9  2  0
  8 10  1  0
 10 11  1  0
 11 12  2  0
 11 16  1  0
 12 13  1  0
 13 14  2  0
 14 15  1  0
 15 16  2  0
 16 17  1  0
M  END
