
     RDKit          3D

 12 13  0  0  0  0  0  0  0  0999 V2000
    3.6660   -0.1610   -0.3780 N   0  0  0  0  0  0  0  0  0  0  0  0
    2.2730   -0.1300   -0.0970 C   0  0  0  0  0  0  0  0  0  0  0  0
    1.7590   -1.3490   -0.0620 C   0  0  0  0  0  0  0  0  0  0  0  0
    0.3620   -1.6720    0.2010 C   0  0  0  0  0  0  0  0  0  0  0  0
   -0.7090   -0.9040    0.1020 C   0  0  0  0  0  0  0  0  0  0  0  0
   -1.9190   -1.5120    0.4260 O   0  0  0  0  0  0  0  0  0  0  0  0
   -3.0080   -0.6940    0.8700 C   0  0  0  0  0  0  0  0  0  0  0  0
   -3.1060    0.5070   -0.0310 C   0  0  0  0  0  0  0  0  0  0  0  0
   -1.8430    1.1160   -0.3590 N   0  0  0  0  0  0  0  0  0  0  0  0
   -0.7220    0.5030   -0.3110 C   0  0  0  0  0  0  0  0  0  0  0  0
    0.3870    1.4070   -0.7040 C   0  0  0  0  0  0  0  0  0  0  0  0
    1.6340    1.1730    0.1070 C   0  0  0  0  0  0  0  0  0  0  0  0
  1  2  1  0
  2  3  2  0
  2 12  1  0
  3  4  1  0
  4  5  2  0
  5  6  1  0
  5 10  1  0
  6  7  1  0
  7  8  1  0
  8  9  1  0
  9 10  2  0
 10 11  1  0
 11 12  1  0
M  END
