
     RDKit          3D

 12 12  0  0  0  0  0  0  0  0999 V2000
   -3.2960   -1.8600   -0.0630 C   0  0  0  0  0  0  0  0  0  0  0  0
   -1.9630   -1.4010    0.0060 O   0  0  0  0  0  0  0  0  0  0  0  0
   -1.6980   -0.0210    0.0430 C   0  0  0  0  0  0  0  0  0  0  0  0
   -2.7450    0.8140    0.0160 N   0  0  0  0  0  0  0  0  0  0  0  0
   -2.5320    2.1370    0.0500 C   0  0  0  0  0  0  0  0  0  0  0  0
   -1.2190    2.5790    0.1130 C   0  0  0  0  0  0  0  0  0  0  0  0
   -0.1790    1.7290    0.1380 N   0  0  0  0  0  0  0  0  0  0  0  0
   -0.3880    0.4110    0.1040 C   0  0  0  0  0  0  0  0  0  0  0  0
    0.6710   -0.5840    0.1250 C   0  0  0  0  0  0  0  0  0  0  0  0
    2.0410   -0.1260   -0.2280 C   0  0  1  0  0  0  0  0  0  0  0  0
    2.6130    0.9380    0.6340 C   0  0  0  0  0  0  0  0  0  0  0  0
    2.9610   -1.3440   -0.0930 C   0  0  0  0  0  0  0  0  0  0  0  0
  1  2  1  0
  2  3  1  0
  3  4  2  0
  3  8  1  0
  4  5  1  0
  5  6  2  0
  6  7  1  0
  7  8  2  0
  8  9  1  0
  9 10  1  0
 10 11  1  1
 10 12  1  0
M  END
