
     RDKit          3D

 23 23  0  0  0  0  0  0  0  0999 V2000
   -3.9530    2.0210   -1.4990 O   0  0  0  0  0  0  0  0  0  0  0  0
   -2.6480    1.6730   -1.1030 C   0  0  0  0  0  0  0  0  0  0  0  0
   -2.3390    0.2520   -1.4700 C   0  0  2  0  0  0  0  0  0  0  0  0
   -3.2980   -0.7360   -0.8630 C   0  0  0  0  0  0  0  0  0  0  0  0
   -2.8920   -1.1390    0.5370 C   0  0  1  0  0  0  0  0  0  0  0  0
   -4.1390   -1.1790    1.3930 C   0  0  0  0  0  0  0  0  0  0  0  0
   -5.0430   -2.1270    0.9860 O   0  0  0  0  0  0  0  0  0  0  0  0
   -2.1770   -2.4590    0.5080 C   0  0  1  0  0  0  0  0  0  0  0  0
   -1.7390   -2.8480    1.7710 O   0  0  0  0  0  0  0  0  0  0  0  0
   -2.9540   -3.4750   -0.0430 O   0  0  0  0  0  0  0  0  0  0  0  0
   -2.0380   -0.1550    1.0210 O   0  0  0  0  0  0  0  0  0  0  0  0
   -0.8800    0.0150    0.3090 C   0  0  2  0  0  0  0  0  0  0  0  0
   -0.3940    1.2700    0.5610 O   0  0  0  0  0  0  0  0  0  0  0  0
    0.8700    1.3650    1.0600 C   0  0  0  0  0  0  0  0  0  0  0  0
    1.9140    0.7790    0.0910 C   0  0  0  0  0  0  0  0  0  0  0  0
    3.1820    0.8940    0.6310 O   0  0  0  0  0  0  0  0  0  0  0  0
    4.1560    0.3480   -0.1710 C   0  0  2  0  0  0  0  0  0  0  0  0
    3.9260   -1.0330   -0.3890 O   0  0  0  0  0  0  0  0  0  0  0  0
    5.4690    0.4790    0.5890 C   0  0  0  0  0  0  0  0  0  0  0  0
    5.7810    1.7860    0.8680 O   0  0  0  0  0  0  0  0  0  0  0  0
    4.2180    0.9790   -1.5140 C   0  0  0  0  0  0  0  0  0  0  0  0
    4.4570    2.3450   -1.4830 O   0  0  0  0  0  0  0  0  0  0  0  0
   -1.0640   -0.0680   -1.0800 O   0  0  0  0  0  0  0  0  0  0  0  0
  1  2  1  0
  3  2  1  1
  3  4  1  0
  3 23  1  0
  4  5  1  0
  5  6  1  1
  5  8  1  0
  5 11  1  0
  6  7  1  0
  8  9  1  1
  8 10  1  0
 11 12  1  0
 12 13  1  6
 12 23  1  0
 13 14  1  0
 14 15  1  0
 15 16  1  0
 16 17  1  0
 17 18  1  6
 17 19  1  0
 17 21  1  0
 19 20  1  0
 21 22  1  0
M  END
