
     RDKit          3D

 22 22  0  0  0  0  0  0  0  0999 V2000
   -4.2510    3.3730   -1.3500 O   0  0  0  0  0  0  0  0  0  0  0  0
   -3.1620    2.6200   -0.8380 C   0  0  0  0  0  0  0  0  0  0  0  0
   -3.7240    1.5000   -0.0120 C   0  0  0  0  0  0  0  0  0  0  0  0
   -2.6720    0.6760    0.6090 C   0  0  0  0  0  0  0  0  0  0  0  0
   -1.7020   -0.0240   -0.2840 C   0  0  1  0  0  0  0  0  0  0  0  0
   -2.3570   -0.8920   -1.1650 O   0  0  0  0  0  0  0  0  0  0  0  0
   -0.9810    0.8910   -1.0180 O   0  0  0  0  0  0  0  0  0  0  0  0
   -0.7190   -0.8700    0.5810 C   0  0  1  0  0  0  0  0  0  0  0  0
   -0.0990    0.0420    1.4330 O   0  0  0  0  0  0  0  0  0  0  0  0
   -1.5620   -1.8310    1.3370 C   0  0  0  0  0  0  0  0  0  0  0  0
   -0.8950   -2.9740    1.7480 O   0  0  0  0  0  0  0  0  0  0  0  0
   -0.1000   -3.4910    0.7550 C   0  0  0  0  0  0  0  0  0  0  0  0
    0.9210   -2.3900    0.4180 C   0  0  2  0  0  0  0  0  0  0  0  0
    1.3440   -1.7410    1.5430 O   0  0  0  0  0  0  0  0  0  0  0  0
    2.6790   -1.6620    1.7760 C   0  0  0  0  0  0  0  0  0  0  0  0
    3.3680   -0.9290    0.6730 C   0  0  0  0  0  0  0  0  0  0  0  0
    2.8570    0.3740    0.5660 O   0  0  0  0  0  0  0  0  0  0  0  0
    3.5040    1.0380   -0.4570 C   0  0  2  0  0  0  0  0  0  0  0  0
    4.1270    2.1590    0.1160 O   0  0  0  0  0  0  0  0  0  0  0  0
    2.5460    1.5700   -1.4990 C   0  0  0  0  0  0  0  0  0  0  0  0
    1.6870    2.4580   -0.8290 O   0  0  0  0  0  0  0  0  0  0  0  0
    0.1570   -1.4510   -0.3220 O   0  0  0  0  0  0  0  0  0  0  0  0
  1  2  1  0
  2  3  1  0
  3  4  1  0
  4  5  1  0
  5  6  1  6
  5  7  1  0
  5  8  1  0
  8  9  1  1
  8 10  1  0
  8 22  1  0
 10 11  1  0
 11 12  1  0
 12 13  1  0
 13 14  1  1
 13 22  1  0
 14 15  1  0
 15 16  1  0
 16 17  1  0
 17 18  1  0
 18 19  1  1
 18 20  1  0
 20 21  1  0
M  END
