
     RDKit          3D

 22 22  0  0  0  0  0  0  0  0999 V2000
    4.0790   -2.5250   -0.9560 C   0  0  0  0  0  0  0  0  0  0  0  0
    3.4960   -1.6840   -0.0050 O   0  0  0  0  0  0  0  0  0  0  0  0
    3.3680   -0.3130   -0.1440 C   0  0  0  0  0  0  0  0  0  0  0  0
    3.7900    0.2370   -1.1720 O   0  0  0  0  0  0  0  0  0  0  0  0
    2.7360    0.4910    0.9180 C   0  0  2  0  0  0  0  0  0  0  0  0
    2.3610   -0.3350    1.9890 O   0  0  0  0  0  0  0  0  0  0  0  0
    1.5640    1.3160    0.4560 C   0  0  1  0  0  0  0  0  0  0  0  0
    2.0350    2.3740   -0.4920 C   0  0  0  0  0  0  0  0  0  0  0  0
    3.1350    3.0500    0.0380 O   0  0  0  0  0  0  0  0  0  0  0  0
    0.4870    0.5880    0.0130 O   0  0  0  0  0  0  0  0  0  0  0  0
   -0.6560    0.7270    0.7690 C   0  0  2  0  0  0  0  0  0  0  0  0
   -1.0290   -0.4510    1.4030 O   0  0  0  0  0  0  0  0  0  0  0  0
   -2.0290   -1.0370    0.6670 C   0  0  1  0  0  0  0  0  0  0  0  0
   -1.4060   -2.0070   -0.3030 C   0  0  0  0  0  0  0  0  0  0  0  0
   -0.6900   -3.0050    0.3130 O   0  0  0  0  0  0  0  0  0  0  0  0
   -2.9830   -1.7560    1.6110 C   0  0  0  0  0  0  0  0  0  0  0  0
   -4.0230   -2.3740    0.9390 O   0  0  0  0  0  0  0  0  0  0  0  0
   -2.7850    0.0390   -0.0380 C   0  0  0  0  0  0  0  0  0  0  0  0
   -1.8450    1.2280    0.0200 C   0  0  1  0  0  0  0  0  0  0  0  0
   -2.4300    2.3030    0.6580 O   0  0  0  0  0  0  0  0  0  0  0  0
   -1.5390    1.6260   -1.4050 C   0  0  0  0  0  0  0  0  0  0  0  0
   -2.7680    1.9700   -2.0080 O   0  0  0  0  0  0  0  0  0  0  0  0
  1  2  1  0
  2  3  1  0
  3  4  2  0
  3  5  1  0
  5  6  1  1
  5  7  1  0
  7  8  1  6
  7 10  1  0
  8  9  1  0
 11 10  1  6
 11 12  1  0
 11 19  1  0
 12 13  1  0
 13 14  1  6
 13 16  1  0
 13 18  1  0
 14 15  1  0
 16 17  1  0
 18 19  1  0
 19 20  1  1
 19 21  1  0
 21 22  1  0
M  END
