
     RDKit          3D

 25 26  0  0  0  0  0  0  0  0999 V2000
    3.4830    3.3010    0.2010 C   0  0  0  0  0  0  0  0  0  0  0  0
    3.7760    1.9320    0.2760 O   0  0  0  0  0  0  0  0  0  0  0  0
    2.8900    0.9800   -0.2130 C   0  0  0  0  0  0  0  0  0  0  0  0
    1.8280    1.4010   -0.7180 O   0  0  0  0  0  0  0  0  0  0  0  0
    3.2140   -0.4450   -0.1260 C   0  0  0  0  0  0  0  0  0  0  0  0
    4.4080   -0.8310    0.4460 C   0  0  0  0  0  0  0  0  0  0  0  0
    4.7560   -2.1720    0.5490 C   0  0  0  0  0  0  0  0  0  0  0  0
    5.9500   -2.5920    1.1190 O   0  0  0  0  0  0  0  0  0  0  0  0
    3.8800   -3.0970    0.0670 C   0  0  0  0  0  0  0  0  0  0  0  0
    2.6830   -2.7000   -0.5060 C   0  0  0  0  0  0  0  0  0  0  0  0
    1.6180   -3.9380   -1.0980 Cl  0  0  0  0  0  0  0  0  0  0  0  0
    2.3200   -1.3740   -0.6170 C   0  0  0  0  0  0  0  0  0  0  0  0
    1.0460   -0.9680   -1.2280 C   0  0  0  0  0  0  0  0  0  0  0  0
    1.0140   -0.7510   -2.4620 O   0  0  0  0  0  0  0  0  0  0  0  0
   -0.1530   -0.8080   -0.4940 N   0  0  0  0  0  0  0  0  0  0  0  0
   -0.0720   -1.0690    0.9370 C   0  0  0  0  0  0  0  0  0  0  0  0
   -1.0220   -0.2080    1.7130 C   0  0  0  0  0  0  0  0  0  0  0  0
   -2.3980   -0.3570    1.0130 C   0  0  1  0  0  0  0  0  0  0  0  0
   -3.3980    0.0190    2.0370 C   0  0  0  0  0  0  0  0  0  0  0  0
   -3.1610   -1.1700    3.3970 Cl  0  0  0  0  0  0  0  0  0  0  0  0
   -2.3140    0.3810   -0.2500 C   0  0  2  0  0  0  0  0  0  0  0  0
   -3.5390    0.6920   -1.0130 C   0  0  1  0  0  0  0  0  0  0  0  0
   -4.4900    1.5570   -0.2480 C   0  0  0  0  0  0  0  0  0  0  0  0
   -3.2360    1.4010   -2.3340 C   0  0  0  0  0  0  0  0  0  0  0  0
   -1.3420   -0.4120   -1.1630 C   0  0  0  0  0  0  0  0  0  0  0  0
  1  2  1  0
  2  3  1  0
  3  4  2  0
  3  5  1  0
  5  6  2  0
  5 12  1  0
  6  7  1  0
  7  8  1  0
  7  9  2  0
  9 10  1  0
 10 11  1  0
 10 12  2  0
 12 13  1  0
 13 14  2  0
 13 15  1  0
 15 16  1  0
 15 25  1  0
 16 17  1  0
 17 18  1  0
 18 19  1  1
 18 21  1  0
 19 20  1  0
 21 22  1  0
 21 25  1  6
 22 23  1  1
 22 24  1  0
M  END
