
     RDKit          3D

 25 27  0  0  0  0  0  0  0  0999 V2000
    3.1130    0.7430   -2.9790 O   0  0  0  0  0  0  0  0  0  0  0  0
    2.2000    0.7230   -2.1170 C   0  0  0  0  0  0  0  0  0  0  0  0
    2.3460    0.3720   -0.7690 C   0  0  0  0  0  0  0  0  0  0  0  0
    0.7150    0.4500    0.1370 Cl  0  0  0  0  0  0  0  0  0  0  0  0
    3.2590    0.0100    0.0010 C   0  0  0  0  0  0  0  0  0  0  0  0
    4.6500   -0.2880    0.1210 C   0  0  0  0  0  0  0  0  0  0  0  0
    5.1990   -0.6860    1.3300 C   0  0  0  0  0  0  0  0  0  0  0  0
    6.6310   -0.9250    1.1730 C   0  0  0  0  0  0  0  0  0  0  0  0
    6.8980   -0.6400   -0.2210 C   0  0  0  0  0  0  0  0  0  0  0  0
    5.7340   -0.2680   -0.8300 C   0  0  0  0  0  0  0  0  0  0  0  0
    5.7490    0.1410   -2.5270 Cl  0  0  0  0  0  0  0  0  0  0  0  0
    0.8660    1.1480   -2.7520 C   0  0  2  0  0  0  0  0  0  0  0  0
    0.4570    2.4070   -2.0460 C   0  0  0  0  0  0  0  0  0  0  0  0
   -1.0480    2.3260   -2.1340 C   0  0  0  0  0  0  0  0  0  0  0  0
   -1.3130    0.9420   -1.8730 N   0  0  0  0  0  0  0  0  0  0  0  0
   -2.4740    0.4550   -1.1580 C   0  0  0  0  0  0  0  0  0  0  0  0
   -3.3250    1.2790   -0.7230 O   0  0  0  0  0  0  0  0  0  0  0  0
   -2.6740   -0.8740   -0.9390 O   0  0  0  0  0  0  0  0  0  0  0  0
   -3.7270   -1.4760   -0.2650 C   0  0  0  0  0  0  0  0  0  0  0  0
   -3.7820   -1.1150    1.1710 C   0  0  2  0  0  0  0  0  0  0  0  0
   -5.0200   -1.7030    1.8640 C   0  0  0  0  0  0  0  0  0  0  0  0
   -4.9430   -0.9700    3.2080 C   0  0  0  0  0  0  0  0  0  0  0  0
   -3.9940    0.1790    2.8830 C   0  0  0  0  0  0  0  0  0  0  0  0
   -3.9520    0.2200    1.4710 O   0  0  0  0  0  0  0  0  0  0  0  0
   -0.2330    0.1820   -2.4620 C   0  0  0  0  0  0  0  0  0  0  0  0
  1  2  2  0
  2  3  1  0
 12  2  1  1
  3  4  1  0
  3  5  2  3
  5  6  1  0
  6  7  2  0
  6 10  1  0
  7  8  1  0
  8  9  1  0
  9 10  2  0
 10 11  1  0
 12 13  1  0
 12 25  1  0
 13 14  1  0
 14 15  1  0
 15 16  1  0
 15 25  1  0
 16 17  2  0
 16 18  1  0
 18 19  1  0
 20 19  1  6
 20 21  1  0
 20 24  1  0
 21 22  1  0
 22 23  1  0
 23 24  1  0
M  END
