
     RDKit          3D

 25 26  0  0  0  0  0  0  0  0999 V2000
   -3.2640   -4.9360   -0.8210 C   0  0  0  0  0  0  0  0  0  0  0  0
   -1.9950   -4.2430   -0.3590 C   0  0  0  0  0  0  0  0  0  0  0  0
   -2.0600   -2.9160   -0.2800 C   0  0  0  0  0  0  0  0  0  0  0  0
   -0.9050   -2.1540    0.1500 C   0  0  0  0  0  0  0  0  0  0  0  0
   -0.9850   -0.8410    0.2240 C   0  0  0  0  0  0  0  0  0  0  0  0
   -2.1350   -0.0230   -0.0890 C   0  0  0  0  0  0  0  0  0  0  0  0
   -3.2100   -0.4780   -0.4740 O   0  0  0  0  0  0  0  0  0  0  0  0
   -2.0620    1.3570    0.0390 O   0  0  0  0  0  0  0  0  0  0  0  0
   -3.1870    2.1450   -0.2680 C   0  0  1  0  0  0  0  0  0  0  0  0
   -3.6580    2.9510    0.9240 C   0  0  0  0  0  0  0  0  0  0  0  0
   -2.8800    3.1410   -1.3790 C   0  0  0  0  0  0  0  0  0  0  0  0
    0.2070   -0.0870    0.7210 C   0  0  0  0  0  0  0  0  0  0  0  0
    1.5350   -0.6670    0.2830 C   0  0  1  0  0  0  0  0  0  0  0  0
    2.5210    0.0900    0.8090 O   0  0  0  0  0  0  0  0  0  0  0  0
    3.5740    0.8180    0.4470 C   0  0  0  0  0  0  0  0  0  0  0  0
    4.3290    1.4510    1.4570 C   0  0  0  0  0  0  0  0  0  0  0  0
    5.4260    2.2200    1.1960 C   0  0  0  0  0  0  0  0  0  0  0  0
    5.8550    2.4180   -0.0980 C   0  0  0  0  0  0  0  0  0  0  0  0
    7.2650    3.4040   -0.4520 Cl  0  0  0  0  0  0  0  0  0  0  0  0
    5.1470    1.8190   -1.1030 C   0  0  0  0  0  0  0  0  0  0  0  0
    4.0200    1.0290   -0.8320 C   0  0  0  0  0  0  0  0  0  0  0  0
    3.1800    0.3070   -2.1720 Cl  0  0  0  0  0  0  0  0  0  0  0  0
    1.5030   -2.0770    0.8370 C   0  0  0  0  0  0  0  0  0  0  0  0
    2.3720   -2.5680    1.5480 O   0  0  0  0  0  0  0  0  0  0  0  0
    0.3470   -2.8140    0.4580 N   0  0  0  0  0  0  0  0  0  0  0  0
  1  2  1  0
  2  3  2  3
  3  4  1  0
  4  5  2  0
  4 25  1  0
  5  6  1  0
  5 12  1  0
  6  7  2  0
  6  8  1  0
  8  9  1  0
  9 10  1  1
  9 11  1  0
 12 13  1  0
 13 14  1  1
 13 23  1  0
 14 15  1  0
 15 16  2  0
 15 21  1  0
 16 17  1  0
 17 18  2  0
 18 19  1  0
 18 20  1  0
 20 21  2  0
 21 22  1  0
 23 24  2  0
 23 25  1  0
M  END
