
     RDKit          3D

 25 26  0  0  0  0  0  0  0  0999 V2000
   -1.1820   -1.9790    0.0830 C   0  0  0  0  0  0  0  0  0  0  0  0
   -2.5810   -1.3390    0.1930 C   0  0  2  0  0  0  0  0  0  0  0  0
   -3.1900   -2.0360    1.3980 C   0  0  0  0  0  0  0  0  0  0  0  0
   -4.4570   -1.6250    1.6620 O   0  0  0  0  0  0  0  0  0  0  0  0
   -3.3580   -1.7430   -1.0040 C   0  0  0  0  0  0  0  0  0  0  0  0
   -2.6020   -1.2180   -2.5140 Cl  0  0  0  0  0  0  0  0  0  0  0  0
   -2.4540    0.1100    0.4630 C   0  0  2  0  0  0  0  0  0  0  0  0
   -3.7000    0.8870    0.5660 C   0  0  0  0  0  0  0  0  0  0  0  0
   -3.3550    2.2310    1.2420 C   0  0  0  0  0  0  0  0  0  0  0  0
   -2.3530    2.9730    0.3980 C   0  0  0  0  0  0  0  0  0  0  0  0
   -1.2630    2.1050    0.0450 N   0  0  0  0  0  0  0  0  0  0  0  0
    0.0600    2.5250    0.2660 C   0  0  0  0  0  0  0  0  0  0  0  0
    0.3210    3.6580    0.7740 O   0  0  0  0  0  0  0  0  0  0  0  0
    1.1680    1.6090   -0.1080 C   0  0  0  0  0  0  0  0  0  0  0  0
    2.4660    2.2700    0.2160 C   0  0  0  0  0  0  0  0  0  0  0  0
    3.6380    1.4050   -0.1330 C   0  0  0  0  0  0  0  0  0  0  0  0
    4.7980    1.8350    0.0850 O   0  0  0  0  0  0  0  0  0  0  0  0
    3.5070    0.1600   -0.6830 O   0  0  0  0  0  0  0  0  0  0  0  0
    4.5370   -0.6950   -1.0330 C   0  0  0  0  0  0  0  0  0  0  0  0
    5.8320   -0.5920   -0.9540 C   0  0  0  0  0  0  0  0  0  0  0  0
    6.5270   -1.8020   -1.4670 C   0  0  0  0  0  0  0  0  0  0  0  0
    5.3920   -2.6440   -1.8660 C   0  0  0  0  0  0  0  0  0  0  0  0
    4.2610   -2.0130   -1.6180 C   0  0  0  0  0  0  0  0  0  0  0  0
    2.6790   -2.7090   -1.9650 Cl  0  0  0  0  0  0  0  0  0  0  0  0
   -1.5420    0.8200   -0.5300 C   0  0  0  0  0  0  0  0  0  0  0  0
  2  1  1  6
  2  3  1  0
  2  5  1  0
  2  7  1  0
  3  4  1  0
  5  6  1  0
  7  8  1  6
  7 25  1  0
  8  9  1  0
  9 10  1  0
 10 11  1  0
 11 12  1  0
 11 25  1  0
 12 13  2  0
 12 14  1  0
 14 15  1  0
 15 16  1  0
 16 17  2  0
 16 18  1  0
 18 19  1  0
 19 20  2  0
 19 23  1  0
 20 21  1  0
 21 22  1  0
 22 23  2  0
 23 24  1  0
M  END
