
     RDKit          3D

 36 39  0  0  0  0  0  0  0  0999 V2000
   -5.1920   -1.7420   -3.9490 C   0  0  0  0  0  0  0  0  0  0  0  0
   -5.3890   -0.3250   -3.5260 C   0  0  0  0  0  0  0  0  0  0  0  0
   -4.1520    0.2760   -2.9670 C   0  0  0  0  0  0  0  0  0  0  0  0
   -3.5670   -0.3300   -1.7860 C   0  0  0  0  0  0  0  0  0  0  0  0
   -3.6600    0.2530   -0.5920 C   0  0  0  0  0  0  0  0  0  0  0  0
   -4.3470    1.5220   -0.4050 C   0  0  0  0  0  0  0  0  0  0  0  0
   -4.8470    2.0800   -1.3860 O   0  0  0  0  0  0  0  0  0  0  0  0
   -4.4280    2.0990    0.9440 C   0  0  0  0  0  0  0  0  0  0  0  0
   -3.8850    1.4780    1.9780 C   0  0  0  0  0  0  0  0  0  0  0  0
   -3.9900    2.0970    3.3240 C   0  0  0  0  0  0  0  0  0  0  0  0
   -3.1910    0.2060    1.8360 C   0  0  0  0  0  0  0  0  0  0  0  0
   -2.5980   -0.3990    2.9970 C   0  0  0  0  0  0  0  0  0  0  0  0
   -3.6820   -0.7650    3.9910 C   0  0  0  0  0  0  0  0  0  0  0  0
   -3.0970   -0.3510    0.6330 C   0  0  0  0  0  0  0  0  0  0  0  0
   -2.4400   -1.5980    0.5290 N   0  0  0  0  0  0  0  0  0  0  0  0
   -1.9190   -1.9740   -0.7690 C   0  0  2  0  0  0  0  0  0  0  0  0
   -0.4650   -1.5350   -0.9630 C   0  0  1  0  0  0  0  0  0  0  0  0
    0.5030   -2.1300    0.0180 C   0  0  0  0  0  0  0  0  0  0  0  0
    1.8640   -1.7110   -0.1670 N   0  0  0  0  0  0  0  0  0  0  0  0
    2.6880   -2.4980   -1.0300 C   0  0  0  0  0  0  0  0  0  0  0  0
    2.2440   -3.5070   -1.5950 O   0  0  0  0  0  0  0  0  0  0  0  0
    4.0380   -2.1250   -1.2430 N   0  0  0  0  0  0  0  0  0  0  0  0
    4.5730   -0.9590   -0.5920 C   0  0  0  0  0  0  0  0  0  0  0  0
    5.7880   -0.6460   -0.8020 O   0  0  0  0  0  0  0  0  0  0  0  0
    3.7800   -0.1300    0.2920 C   0  0  0  0  0  0  0  0  0  0  0  0
    4.1940    0.9460    0.9280 C   0  0  0  0  0  0  0  0  0  0  0  0
    5.4990    1.5200    0.8840 C   0  0  0  0  0  0  0  0  0  0  0  0
    5.7750    2.6070    1.5780 C   0  0  0  0  0  0  0  0  0  0  0  0
    7.3880    3.3460    1.5450 S   0  0  0  0  0  0  0  0  0  0  0  0
    8.6410    2.2630    0.8530 C   0  0  0  0  0  0  0  0  0  0  0  0
    9.9610    3.0040    0.8830 C   0  0  0  0  0  0  0  0  0  0  0  0
    2.3750   -0.5610    0.4830 C   0  0  0  0  0  0  0  0  0  0  0  0
    1.6340    0.1190    1.2450 O   0  0  0  0  0  0  0  0  0  0  0  0
   -0.0360   -1.3250   -2.4000 C   0  0  0  0  0  0  0  0  0  0  0  0
   -0.1940   -0.1670   -1.4420 C   0  0  0  0  0  0  0  0  0  0  0  0
   -2.7950   -1.5510   -1.8100 N   0  0  0  0  0  0  0  0  0  0  0  0
  1  2  1  0
  2  3  1  0
  3  4  1  0
  4  5  2  0
  4 36  1  0
  5  6  1  0
  5 14  1  0
  6  7  2  0
  6  8  1  0
  8  9  2  0
  9 10  1  0
  9 11  1  0
 11 12  1  0
 11 14  2  0
 12 13  1  0
 14 15  1  0
 16 15  1  1
 16 17  1  0
 16 36  1  0
 17 18  1  1
 17 34  1  0
 17 35  1  0
 18 19  1  0
 19 20  1  0
 19 32  1  0
 20 21  2  0
 20 22  1  0
 22 23  1  0
 23 24  2  0
 23 25  1  0
 25 26  2  3
 25 32  1  0
 26 27  1  0
 27 28  2  3
 28 29  1  0
 29 30  1  0
 30 31  1  0
 32 33  2  0
 34 35  1  0
M  END
