
     RDKit          3D

 36 39  0  0  0  0  0  0  0  0999 V2000
   -6.5720    0.4630    3.0900 C   0  0  0  0  0  0  0  0  0  0  0  0
   -5.4270    0.3370    2.4420 C   0  0  0  0  0  0  0  0  0  0  0  0
   -4.2300   -0.0950    3.2030 C   0  0  0  0  0  0  0  0  0  0  0  0
   -3.2550   -0.8590    2.3380 C   0  0  0  0  0  0  0  0  0  0  0  0
   -3.8310   -1.1670    0.9790 C   0  0  0  0  0  0  0  0  0  0  0  0
   -4.2020    0.1900    0.3500 C   0  0  1  0  0  0  0  0  0  0  0  0
   -5.3640    0.6170    1.0330 N   0  0  0  0  0  0  0  0  0  0  0  0
   -3.0330    1.0880    0.6670 C   0  0  0  0  0  0  0  0  0  0  0  0
   -3.1630    2.0840    1.3810 O   0  0  0  0  0  0  0  0  0  0  0  0
   -1.7500    0.6850    0.0650 C   0  0  0  0  0  0  0  0  0  0  0  0
   -0.5180    0.8960    0.4840 N   0  0  0  0  0  0  0  0  0  0  0  0
    0.3960    0.3320   -0.4070 C   0  0  0  0  0  0  0  0  0  0  0  0
    1.8150    0.4280   -0.2100 C   0  0  0  0  0  0  0  0  0  0  0  0
    2.0760    1.1890    0.8840 O   0  0  0  0  0  0  0  0  0  0  0  0
    2.9870    0.0090   -0.7520 N   0  0  0  0  0  0  0  0  0  0  0  0
    3.1600   -0.8290   -1.8760 C   0  0  0  0  0  0  0  0  0  0  0  0
    3.2110   -2.2960   -1.5910 C   0  0  0  0  0  0  0  0  0  0  0  0
    3.4060   -3.1610   -3.1560 S   0  0  0  0  0  0  0  0  0  0  0  0
    3.4730   -4.9380   -2.8570 C   0  0  0  0  0  0  0  0  0  0  0  0
    4.5900   -2.6690   -3.9450 O   0  0  0  0  0  0  0  0  0  0  0  0
    4.2350    0.5150   -0.0740 C   0  0  1  0  0  0  0  0  0  0  0  0
    4.4540    1.9610   -0.3050 C   0  0  0  0  0  0  0  0  0  0  0  0
    5.6500    2.5390    0.3890 C   0  0  0  0  0  0  0  0  0  0  0  0
    6.1620    1.7110    1.5220 C   0  0  1  0  0  0  0  0  0  0  0  0
    6.9470    2.5800    2.4620 C   0  0  0  0  0  0  0  0  0  0  0  0
    4.9570    1.1440    2.2480 C   0  0  0  0  0  0  0  0  0  0  0  0
    4.3710    0.0960    1.3190 C   0  0  0  0  0  0  0  0  0  0  0  0
   -0.4000   -0.2260   -1.3830 C   0  0  0  0  0  0  0  0  0  0  0  0
   -0.0100   -0.9390   -2.6130 C   0  0  0  0  0  0  0  0  0  0  0  0
   -1.7550   -0.0140   -1.1010 C   0  0  0  0  0  0  0  0  0  0  0  0
   -3.0320   -0.3300   -1.7030 C   0  0  0  0  0  0  0  0  0  0  0  0
   -3.0960   -0.9780   -2.7860 O   0  0  0  0  0  0  0  0  0  0  0  0
   -4.2720    0.0890   -1.0760 N   0  0  0  0  0  0  0  0  0  0  0  0
   -5.4390    0.3570   -1.8940 C   0  0  2  0  0  0  0  0  0  0  0  0
   -5.8630    1.7920   -1.8460 C   0  0  0  0  0  0  0  0  0  0  0  0
   -6.5670   -0.6090   -1.5990 C   0  0  0  0  0  0  0  0  0  0  0  0
  1  2  2  0
  2  3  1  0
  2  7  1  0
  3  4  1  0
  4  5  1  0
  6  5  1  1
  6  7  1  0
  6  8  1  0
  6 33  1  0
  8  9  2  0
  8 10  1  0
 10 11  1  0
 10 30  2  0
 11 12  1  0
 12 13  1  0
 12 28  2  0
 13 14  2  0
 13 15  1  0
 15 16  1  0
 21 15  1  1
 16 17  1  0
 17 18  1  0
 18 19  1  1
 18 20  2  0
 21 22  1  0
 21 27  1  0
 22 23  1  0
 23 24  1  0
 24 25  1  1
 24 26  1  0
 26 27  1  0
 28 29  1  0
 28 30  1  0
 30 31  1  0
 31 32  2  0
 31 33  1  0
 33 34  1  0
 34 35  1  1
 34 36  1  0
M  END
