
     RDKit          3D

 36 39  0  0  0  0  0  0  0  0999 V2000
   -2.5070    2.8440    2.5690 C   0  0  0  0  0  0  0  0  0  0  0  0
   -2.8440    1.6280    2.2880 C   0  0  0  0  0  0  0  0  0  0  0  0
   -3.6890    0.8600    3.1550 N   0  0  0  0  0  0  0  0  0  0  0  0
   -4.0680   -0.4360    2.8210 C   0  0  0  0  0  0  0  0  0  0  0  0
   -4.2460   -1.3410    3.6060 O   0  0  0  0  0  0  0  0  0  0  0  0
   -4.2590   -0.6570    1.2850 C   0  0  1  0  0  0  0  0  0  0  0  0
   -5.2740    0.2860    0.8860 C   0  0  2  0  0  0  0  0  0  0  0  0
   -6.5190   -0.0750    1.7890 C   0  0  0  0  0  0  0  0  0  0  0  0
   -5.8230    0.3110   -0.4910 C   0  0  2  0  0  0  0  0  0  0  0  0
   -6.4700   -0.9680   -0.9390 C   0  0  0  0  0  0  0  0  0  0  0  0
   -4.9490    0.8970   -1.5480 C   0  0  0  0  0  0  0  0  0  0  0  0
   -2.8570   -0.4270    0.9300 N   0  0  0  0  0  0  0  0  0  0  0  0
   -2.0150   -1.5130    0.8050 C   0  0  0  0  0  0  0  0  0  0  0  0
   -2.5750   -2.6690    1.0310 O   0  0  0  0  0  0  0  0  0  0  0  0
   -0.5970   -1.7150    0.4950 C   0  0  0  0  0  0  0  0  0  0  0  0
    0.4450   -1.3140    1.2410 C   0  0  0  0  0  0  0  0  0  0  0  0
    1.7370   -1.4960    0.8620 C   0  0  0  0  0  0  0  0  0  0  0  0
    3.0310   -1.1580    1.4750 C   0  0  0  0  0  0  0  0  0  0  0  0
    4.0540   -0.9200    0.4980 N   0  0  0  0  0  0  0  0  0  0  0  0
    4.2540    0.4200   -0.0090 C   0  0  0  0  0  0  0  0  0  0  0  0
    5.7470    0.5100   -0.3510 C   0  0  2  0  0  0  0  0  0  0  0  0
    6.0310    1.9220   -0.8060 C   0  0  0  0  0  0  0  0  0  0  0  0
    7.2690    2.0640   -1.6310 C   0  0  0  0  0  0  0  0  0  0  0  0
    8.1120    0.8280   -1.5470 C   0  0  0  0  0  0  0  0  0  0  0  0
    7.3530   -0.3850   -2.0520 C   0  0  0  0  0  0  0  0  0  0  0  0
    6.0040   -0.5080   -1.4120 C   0  0  1  0  0  0  0  0  0  0  0  0
    5.9250   -1.8000   -0.8080 O   0  0  0  0  0  0  0  0  0  0  0  0
    4.8510   -2.0070    0.0500 C   0  0  0  0  0  0  0  0  0  0  0  0
    4.6220   -3.1870    0.4060 O   0  0  0  0  0  0  0  0  0  0  0  0
    1.5480   -2.3370   -0.7480 S   0  0  0  0  0  0  0  0  0  0  0  0
   -0.2630   -2.3440   -0.7170 C   0  0  0  0  0  0  0  0  0  0  0  0
   -1.1100   -2.9380   -1.7570 C   0  0  0  0  0  0  0  0  0  0  0  0
   -2.3950    0.9070    1.0270 C   0  0  0  0  0  0  0  0  0  0  0  0
   -1.6330    1.5070    0.2220 C   0  0  0  0  0  0  0  0  0  0  0  0
   -0.9610    1.3340   -1.0560 C   0  0  0  0  0  0  0  0  0  0  0  0
   -1.3130    0.2150   -1.8040 N   0  0  0  0  0  0  0  0  0  0  0  0
  1  2  2  0
  2  3  1  0
  2 33  1  0
  3  4  1  0
  4  5  2  0
  4  6  1  0
  6  7  1  0
  6 12  1  6
  7  8  1  1
  7  9  1  0
  9 10  1  6
  9 11  1  0
 12 13  1  0
 12 33  1  0
 13 14  2  0
 13 15  1  0
 15 16  1  0
 15 31  2  0
 16 17  2  0
 17 18  1  0
 17 30  1  0
 18 19  1  0
 19 20  1  0
 19 28  1  0
 21 20  1  6
 21 22  1  0
 21 26  1  0
 22 23  1  0
 23 24  1  0
 24 25  1  0
 26 25  1  1
 26 27  1  0
 27 28  1  0
 28 29  2  0
 30 31  1  0
 31 32  1  0
 33 34  2  3
 34 35  1  0
 35 36  1  0
M  END
