
     RDKit          3D

 35 38  0  0  0  0  0  0  0  0999 V2000
   -1.4800    3.9370   -2.1510 C   0  0  0  0  0  0  0  0  0  0  0  0
   -1.7290    2.7640   -1.3090 C   0  0  0  0  0  0  0  0  0  0  0  0
   -0.7880    2.3970   -0.3510 C   0  0  0  0  0  0  0  0  0  0  0  0
   -0.9660    1.3100    0.4660 C   0  0  0  0  0  0  0  0  0  0  0  0
   -0.0660    0.9120    1.4440 N   0  0  0  0  0  0  0  0  0  0  0  0
    1.0630    1.6330    1.9020 C   0  0  0  0  0  0  0  0  0  0  0  0
    1.3420    2.7610    1.4240 O   0  0  0  0  0  0  0  0  0  0  0  0
    1.9170    1.0890    2.9270 C   0  0  0  0  0  0  0  0  0  0  0  0
    3.3210    1.4090    3.0930 C   0  0  0  0  0  0  0  0  0  0  0  0
    4.2430    0.9410    2.1210 N   0  0  0  0  0  0  0  0  0  0  0  0
    4.3970    1.1700    0.7660 C   0  0  0  0  0  0  0  0  0  0  0  0
    3.6390    1.9290    0.1450 O   0  0  0  0  0  0  0  0  0  0  0  0
    5.4390    0.5490   -0.0180 N   0  0  0  0  0  0  0  0  0  0  0  0
    5.6900    0.7180   -1.4400 C   0  0  0  0  0  0  0  0  0  0  0  0
    7.1250    0.3280   -1.5900 C   0  0  0  0  0  0  0  0  0  0  0  0
    7.3630   -0.6990   -0.5440 C   0  0  1  0  0  0  0  0  0  0  0  0
    7.1550   -2.0620   -1.1420 C   0  0  0  0  0  0  0  0  0  0  0  0
    7.3710   -3.0740   -0.0190 C   0  0  0  0  0  0  0  0  0  0  0  0
    8.8360   -2.3260    0.8010 S   0  0  0  0  0  0  0  0  0  0  0  0
    8.7670   -0.6630    0.0210 C   0  0  0  0  0  0  0  0  0  0  0  0
    6.4070   -0.3610    0.5450 C   0  0  0  0  0  0  0  0  0  0  0  0
   -2.1510    0.5490    0.3130 C   0  0  0  0  0  0  0  0  0  0  0  0
   -3.0770    0.8950   -0.6170 C   0  0  0  0  0  0  0  0  0  0  0  0
   -4.2720    0.1780   -0.8160 N   0  0  0  0  0  0  0  0  0  0  0  0
   -4.7160   -0.9680   -0.1340 C   0  0  0  0  0  0  0  0  0  0  0  0
   -4.0450   -1.4810    0.7660 O   0  0  0  0  0  0  0  0  0  0  0  0
   -6.0190   -1.5700   -0.5050 C   0  0  1  0  0  0  0  0  0  0  0  0
   -6.3180   -2.8000    0.3350 C   0  0  0  0  0  0  0  0  0  0  0  0
   -7.8170   -2.7500    0.4280 C   0  0  2  0  0  0  0  0  0  0  0  0
   -8.3600   -3.8520   -0.4900 C   0  0  0  0  0  0  0  0  0  0  0  0
   -8.2390   -1.5520   -0.0840 O   0  0  0  0  0  0  0  0  0  0  0  0
   -7.1850   -0.6740   -0.1150 C   0  0  1  0  0  0  0  0  0  0  0  0
   -7.0000   -0.0890    1.2670 C   0  0  0  0  0  0  0  0  0  0  0  0
   -2.8670    2.0160   -1.4400 C   0  0  0  0  0  0  0  0  0  0  0  0
   -3.8520    2.4280   -2.4660 C   0  0  0  0  0  0  0  0  0  0  0  0
  1  2  1  0
  2  3  2  0
  2 34  1  0
  3  4  1  0
  4  5  1  0
  4 22  2  0
  5  6  1  0
  6  7  2  0
  6  8  1  0
  8  9  1  0
  9 10  1  0
 10 11  1  0
 11 12  2  0
 11 13  1  0
 13 14  1  0
 13 21  1  0
 14 15  1  0
 16 15  1  6
 16 17  1  0
 16 20  1  0
 16 21  1  0
 17 18  1  0
 18 19  1  0
 19 20  1  0
 22 23  1  0
 23 24  1  0
 23 34  2  0
 24 25  1  0
 25 26  2  0
 27 25  1  1
 27 28  1  0
 27 32  1  0
 28 29  1  0
 29 30  1  6
 29 31  1  0
 31 32  1  0
 32 33  1  1
 34 35  1  0
M  END
