
     RDKit          3D

 36 39  0  0  0  0  0  0  0  0999 V2000
   -7.3630   -0.6980   -3.2750 C   0  0  0  0  0  0  0  0  0  0  0  0
   -5.9440   -0.5190   -3.4980 N   0  0  0  0  0  0  0  0  0  0  0  0
   -5.3200    0.5790   -2.7830 C   0  0  0  0  0  0  0  0  0  0  0  0
   -4.3750    0.3230   -1.9080 C   0  0  0  0  0  0  0  0  0  0  0  0
   -3.8310   -0.9990   -1.5290 C   0  0  0  0  0  0  0  0  0  0  0  0
   -4.2460   -2.0480   -2.0360 O   0  0  0  0  0  0  0  0  0  0  0  0
   -2.7640   -0.9760   -0.5070 C   0  0  0  0  0  0  0  0  0  0  0  0
   -1.4540   -0.8750   -0.8760 C   0  0  0  0  0  0  0  0  0  0  0  0
   -1.0890   -0.7860   -2.3130 C   0  0  0  0  0  0  0  0  0  0  0  0
   -0.4550   -0.8540    0.1220 C   0  0  0  0  0  0  0  0  0  0  0  0
    0.8930   -0.7810   -0.2980 N   0  0  0  0  0  0  0  0  0  0  0  0
    1.9990   -0.4250    0.4500 C   0  0  0  0  0  0  0  0  0  0  0  0
    1.9430   -0.0980    1.6360 O   0  0  0  0  0  0  0  0  0  0  0  0
    3.3610   -0.4210   -0.1730 C   0  0  0  0  0  0  0  0  0  0  0  0
    4.4280    0.0040    0.7820 C   0  0  0  0  0  0  0  0  0  0  0  0
    5.7240   -0.0350    0.0520 C   0  0  0  0  0  0  0  0  0  0  0  0
    5.8100   -0.3850   -1.1660 O   0  0  0  0  0  0  0  0  0  0  0  0
    6.9520    0.3200    0.6810 N   0  0  0  0  0  0  0  0  0  0  0  0
    8.2210    0.2720   -0.0610 C   0  0  1  0  0  0  0  0  0  0  0  0
    8.9010    1.6370    0.0060 C   0  0  0  0  0  0  0  0  0  0  0  0
   10.3510    1.2400   -0.1950 C   0  0  0  0  0  0  0  0  0  0  0  0
   10.5040    0.0560    0.7380 C   0  0  0  0  0  0  0  0  0  0  0  0
    9.1580   -0.6000    0.7470 C   0  0  0  0  0  0  0  0  0  0  0  0
   -0.9230   -0.9420    1.4050 C   0  0  0  0  0  0  0  0  0  0  0  0
   -0.0860   -0.9360    2.3670 O   0  0  0  0  0  0  0  0  0  0  0  0
   -2.2470   -1.0420    1.7400 N   0  0  0  0  0  0  0  0  0  0  0  0
   -3.1920   -1.0610    0.7930 C   0  0  0  0  0  0  0  0  0  0  0  0
   -4.6840   -1.1620    0.8990 C   0  0  0  0  0  0  0  0  0  0  0  0
   -5.0510   -0.9740    2.3360 C   0  0  0  0  0  0  0  0  0  0  0  0
   -4.4270    0.3180    2.8180 C   0  0  1  0  0  0  0  0  0  0  0  0
   -5.4850    1.0740    3.5910 C   0  0  0  0  0  0  0  0  0  0  0  0
   -3.2940   -0.0490    3.7390 C   0  0  0  0  0  0  0  0  0  0  0  0
   -2.3970   -1.1170    3.1650 C   0  0  0  0  0  0  0  0  0  0  0  0
   -3.8570    1.9140   -1.2620 S   0  0  0  0  0  0  0  0  0  0  0  0
   -4.6070    2.9050   -2.6250 C   0  0  0  0  0  0  0  0  0  0  0  0
   -5.7110    1.9480   -2.9960 C   0  0  0  0  0  0  0  0  0  0  0  0
  1  2  1  0
  2  3  1  0
  3  4  2  0
  3 36  1  0
  4  5  1  0
  4 34  1  0
  5  6  2  0
  5  7  1  0
  7  8  1  0
  7 27  2  0
  8  9  1  0
  8 10  2  0
 10 11  1  0
 10 24  1  0
 11 12  1  0
 12 13  2  0
 12 14  1  0
 14 15  1  0
 15 16  1  0
 16 17  2  0
 16 18  1  0
 19 18  1  1
 19 20  1  0
 19 23  1  0
 20 21  1  0
 21 22  1  0
 22 23  1  0
 24 25  2  0
 24 26  1  0
 26 27  1  0
 26 33  1  0
 27 28  1  0
 28 29  1  0
 29 30  1  0
 30 31  1  1
 30 32  1  0
 32 33  1  0
 34 35  1  0
 35 36  1  0
M  END
