
     RDKit          3D

 36 39  0  0  0  0  0  0  0  0999 V2000
    0.8770    0.2400    3.7970 C   0  0  0  0  0  0  0  0  0  0  0  0
    0.3640    1.5110    3.2390 C   0  0  0  0  0  0  0  0  0  0  0  0
    0.9760    2.0530    2.1650 C   0  0  0  0  0  0  0  0  0  0  0  0
    2.1120    1.3520    1.6130 C   0  0  0  0  0  0  0  0  0  0  0  0
    2.8000    1.7580    0.5800 C   0  0  0  0  0  0  0  0  0  0  0  0
    3.9450    0.9920    0.0730 C   0  0  0  0  0  0  0  0  0  0  0  0
    4.5980    1.4190   -0.9400 O   0  0  0  0  0  0  0  0  0  0  0  0
    4.4120   -0.2200    0.6190 N   0  0  0  0  0  0  0  0  0  0  0  0
    5.5460   -0.9200    0.0670 C   0  0  2  0  0  0  0  0  0  0  0  0
    6.7440   -0.0030    0.1340 C   0  0  0  0  0  0  0  0  0  0  0  0
    5.3710   -1.3650   -1.3540 C   0  0  0  0  0  0  0  0  0  0  0  0
    6.7300   -1.8270   -1.8550 C   0  0  0  0  0  0  0  0  0  0  0  0
    7.1870   -3.0070   -1.0620 C   0  0  0  0  0  0  0  0  0  0  0  0
    7.0600   -2.8730    0.4180 C   0  0  0  0  0  0  0  0  0  0  0  0
    5.8310   -2.1660    0.8800 C   0  0  0  0  0  0  0  0  0  0  0  0
    0.3290    3.5380    1.5350 S   0  0  1  0  0  0  0  0  0  0  0  0
   -0.2760    4.2860    2.7310 O   0  0  0  0  0  0  0  0  0  0  0  0
    1.4300    4.4120    1.0530 O   0  0  0  0  0  0  0  0  0  0  0  0
   -0.9350    3.3150    0.4210 N   0  0  0  0  0  0  0  0  0  0  0  0
   -0.6420    2.6070   -0.7670 C   0  0  2  0  0  0  0  0  0  0  0  0
   -1.0990    3.3510   -2.0170 C   0  0  0  0  0  0  0  0  0  0  0  0
   -2.5460    3.7480   -1.7740 C   0  0  0  0  0  0  0  0  0  0  0  0
   -3.3860    2.4970   -1.9140 C   0  0  0  0  0  0  0  0  0  0  0  0
   -2.8600    1.4070   -1.1140 N   0  0  0  0  0  0  0  0  0  0  0  0
   -3.7990    0.3940   -0.7090 C   0  0  0  0  0  0  0  0  0  0  0  0
   -4.0240    0.1460    0.5680 C   0  0  0  0  0  0  0  0  0  0  0  0
   -4.9610   -0.8660    1.0410 C   0  0  0  0  0  0  0  0  0  0  0  0
   -5.6470   -1.6030    0.1990 C   0  0  0  0  0  0  0  0  0  0  0  0
   -6.6230   -2.6560    0.5660 C   0  0  0  0  0  0  0  0  0  0  0  0
   -7.9080   -2.3500   -0.2020 C   0  0  0  0  0  0  0  0  0  0  0  0
   -7.6810   -2.0920   -1.6540 C   0  0  0  0  0  0  0  0  0  0  0  0
   -6.2260   -2.2280   -2.0770 C   0  0  0  0  0  0  0  0  0  0  0  0
   -5.4320   -1.3680   -1.1870 N   0  0  0  0  0  0  0  0  0  0  0  0
   -4.5320   -0.3900   -1.7270 C   0  0  0  0  0  0  0  0  0  0  0  0
   -1.4910    1.3520   -0.7510 C   0  0  0  0  0  0  0  0  0  0  0  0
   -1.0070    0.2450   -0.4210 O   0  0  0  0  0  0  0  0  0  0  0  0
  1  2  1  0
  2  3  2  3
  3  4  1  0
  3 16  1  0
  4  5  2  3
  5  6  1  0
  6  7  2  0
  6  8  1  0
  8  9  1  0
  9 10  1  6
  9 11  1  0
  9 15  1  0
 11 12  1  0
 12 13  1  0
 13 14  1  0
 14 15  1  0
 16 17  2  0
 16 18  2  0
 16 19  1  6
 20 19  1  1
 20 21  1  0
 20 35  1  0
 21 22  1  0
 22 23  1  0
 23 24  1  0
 24 25  1  0
 24 35  1  0
 25 26  2  0
 25 34  1  0
 26 27  1  0
 27 28  2  0
 28 29  1  0
 28 33  1  0
 29 30  1  0
 30 31  1  0
 31 32  1  0
 32 33  1  0
 33 34  1  0
 35 36  2  0
M  END
