
     RDKit          3D

 36 39  0  0  0  0  0  0  0  0999 V2000
    9.7450    2.0550    0.1640 C   0  0  0  0  0  0  0  0  0  0  0  0
    8.3540    1.5980   -0.1920 C   0  0  0  0  0  0  0  0  0  0  0  0
    7.6410    0.8490    0.6890 C   0  0  0  0  0  0  0  0  0  0  0  0
    6.3650    0.4710    0.3570 C   0  0  0  0  0  0  0  0  0  0  0  0
    5.8020    0.8500   -0.8660 C   0  0  0  0  0  0  0  0  0  0  0  0
    4.4200    0.4660   -1.0170 N   0  0  0  0  0  0  0  0  0  0  0  0
    3.4610    1.5620   -1.1050 C   0  0  0  0  0  0  0  0  0  0  0  0
    2.5800    1.5900    0.1220 C   0  0  0  0  0  0  0  0  0  0  0  0
    1.6300    0.5220    0.1060 O   0  0  0  0  0  0  0  0  0  0  0  0
    1.8880   -0.8590    0.2610 C   0  0  0  0  0  0  0  0  0  0  0  0
    2.9940   -1.5090   -0.2260 C   0  0  0  0  0  0  0  0  0  0  0  0
    3.1350   -2.8500    0.0040 C   0  0  0  0  0  0  0  0  0  0  0  0
    2.1750   -3.5460    0.7230 C   0  0  0  0  0  0  0  0  0  0  0  0
    1.0440   -2.8960    1.2270 C   0  0  0  0  0  0  0  0  0  0  0  0
    0.2220   -3.5970    2.1160 N   0  0  0  0  0  0  0  0  0  0  0  0
    0.9210   -1.5380    0.9690 C   0  0  0  0  0  0  0  0  0  0  0  0
   -0.2120   -0.6930    1.4200 C   0  0  0  0  0  0  0  0  0  0  0  0
   -1.4000   -0.9880    0.6980 N   0  0  0  0  0  0  0  0  0  0  0  0
   -1.6700   -2.2990    0.3510 C   0  0  0  0  0  0  0  0  0  0  0  0
   -2.5380   -0.2520    1.1940 C   0  0  0  0  0  0  0  0  0  0  0  0
   -3.8520   -0.6750    0.6370 C   0  0  1  0  0  0  0  0  0  0  0  0
   -4.9750    0.1330    1.3390 C   0  0  0  0  0  0  0  0  0  0  0  0
   -6.0380    0.4760    0.3770 C   0  0  0  0  0  0  0  0  0  0  0  0
   -6.5660    1.7030    0.3350 C   0  0  0  0  0  0  0  0  0  0  0  0
   -6.1260    2.7280    1.2100 N   0  0  0  0  0  0  0  0  0  0  0  0
   -6.4890    4.3850    0.8250 S   0  0  1  0  0  0  0  0  0  0  0  0
   -5.2240    5.1670    0.7120 O   0  0  0  0  0  0  0  0  0  0  0  0
   -7.2720    4.4460   -0.4710 O   0  0  0  0  0  0  0  0  0  0  0  0
   -6.5260   -0.5520   -0.5870 C   0  0  0  0  0  0  0  0  0  0  0  0
   -5.3270   -1.2600   -1.1620 C   0  0  1  0  0  0  0  0  0  0  0  0
   -5.4720   -1.6040   -2.5980 C   0  0  0  0  0  0  0  0  0  0  0  0
   -4.0960   -0.4290   -0.8210 C   0  0  0  0  0  0  0  0  0  0  0  0
    4.1120   -0.9170   -1.0150 C   0  0  0  0  0  0  0  0  0  0  0  0
    4.7840   -1.6820   -1.6880 O   0  0  0  0  0  0  0  0  0  0  0  0
    6.4950    1.5930   -1.7590 C   0  0  0  0  0  0  0  0  0  0  0  0
    7.7870    1.9640   -1.4050 C   0  0  0  0  0  0  0  0  0  0  0  0
  1  2  1  0
  2  3  2  0
  2 36  1  0
  3  4  1  0
  4  5  2  0
  5  6  1  0
  5 35  1  0
  6  7  1  0
  6 33  1  0
  7  8  1  0
  8  9  1  0
  9 10  1  0
 10 11  2  0
 10 16  1  0
 11 12  1  0
 11 33  1  0
 12 13  2  0
 13 14  1  0
 14 15  1  0
 14 16  2  0
 16 17  1  0
 17 18  1  0
 18 19  1  0
 18 20  1  0
 21 20  1  1
 21 22  1  0
 21 32  1  0
 22 23  1  0
 23 24  2  3
 23 29  1  0
 24 25  1  0
 26 25  1  6
 26 27  2  0
 26 28  2  0
 29 30  1  0
 30 31  1  6
 30 32  1  0
 33 34  2  0
 35 36  2  0
M  END
