
     RDKit          3D

 36 39  0  0  0  0  0  0  0  0999 V2000
   -5.3910   -5.8310    1.4230 C   0  0  0  0  0  0  0  0  0  0  0  0
   -4.6770   -4.5220    1.2430 C   0  0  0  0  0  0  0  0  0  0  0  0
   -4.7590   -3.9390   -0.0120 C   0  0  0  0  0  0  0  0  0  0  0  0
   -4.1130   -2.7380   -0.2160 C   0  0  0  0  0  0  0  0  0  0  0  0
   -3.3960   -2.1240    0.8090 C   0  0  0  0  0  0  0  0  0  0  0  0
   -2.7950   -0.9390    0.5070 O   0  0  0  0  0  0  0  0  0  0  0  0
   -1.4380   -0.6790    0.4930 C   0  0  0  0  0  0  0  0  0  0  0  0
   -0.4930   -1.6320    0.7480 C   0  0  0  0  0  0  0  0  0  0  0  0
    0.8760   -1.3360    0.7240 C   0  0  0  0  0  0  0  0  0  0  0  0
    1.3390   -0.0710    0.4450 C   0  0  0  0  0  0  0  0  0  0  0  0
    2.7250    0.3400    0.4570 C   0  0  0  0  0  0  0  0  0  0  0  0
    2.9260    1.5520   -0.0080 O   0  0  0  0  0  0  0  0  0  0  0  0
    3.8720   -0.3390    0.8840 N   0  0  0  0  0  0  0  0  0  0  0  0
    3.8940   -1.6490    1.4420 C   0  0  0  0  0  0  0  0  0  0  0  0
    5.1740    0.3690    0.7510 C   0  0  2  0  0  0  0  0  0  0  0  0
    5.1560    1.5380    1.6850 C   0  0  0  0  0  0  0  0  0  0  0  0
    5.4320    0.6870   -0.6370 C   0  0  0  0  0  0  0  0  0  0  0  0
    5.7880    1.9850   -1.0410 C   0  0  0  0  0  0  0  0  0  0  0  0
    5.9860    1.9840   -2.3830 C   0  0  0  0  0  0  0  0  0  0  0  0
    5.7700    0.7550   -2.8280 N   0  0  0  0  0  0  0  0  0  0  0  0
    5.4320   -0.0540   -1.7910 C   0  0  0  0  0  0  0  0  0  0  0  0
    5.1110   -1.4780   -1.8680 C   0  0  0  0  0  0  0  0  0  0  0  0
    0.3590    0.9050    0.1840 C   0  0  0  0  0  0  0  0  0  0  0  0
   -0.9820    0.6190    0.2060 C   0  0  0  0  0  0  0  0  0  0  0  0
   -1.9690    1.5890   -0.0030 N   0  0  0  0  0  0  0  0  0  0  0  0
   -1.8070    2.8730   -0.4970 C   0  0  0  0  0  0  0  0  0  0  0  0
   -0.6600    3.2830   -0.8390 O   0  0  0  0  0  0  0  0  0  0  0  0
   -2.8990    3.8560   -0.6700 C   0  0  2  0  0  0  0  0  0  0  0  0
   -4.2300    3.2440   -1.0290 C   0  0  0  0  0  0  0  0  0  0  0  0
   -5.0930    4.7970   -1.4610 S   0  0  0  0  0  0  0  0  0  0  0  0
   -5.7410    5.2550   -0.1400 O   0  0  0  0  0  0  0  0  0  0  0  0
   -3.6280    5.8040   -1.7700 C   0  0  0  0  0  0  0  0  0  0  0  0
   -2.5530    4.8800   -1.5700 N   0  0  0  0  0  0  0  0  0  0  0  0
   -3.3040   -2.6900    2.0630 C   0  0  0  0  0  0  0  0  0  0  0  0
   -2.5680   -2.0550    3.1620 C   0  0  0  0  0  0  0  0  0  0  0  0
   -3.9690   -3.9050    2.2390 C   0  0  0  0  0  0  0  0  0  0  0  0
  1  2  1  0
  2  3  2  0
  2 36  1  0
  3  4  1  0
  4  5  2  0
  5  6  1  0
  5 34  1  0
  6  7  1  0
  7  8  2  0
  7 24  1  0
  8  9  1  0
  9 10  2  0
 10 11  1  0
 10 23  1  0
 11 12  2  0
 11 13  1  0
 13 14  1  0
 13 15  1  0
 15 16  1  1
 15 17  1  0
 17 18  1  0
 17 21  2  0
 18 19  2  0
 19 20  1  0
 20 21  1  0
 21 22  1  0
 23 24  2  0
 24 25  1  0
 25 26  1  0
 26 27  2  0
 28 26  1  6
 28 29  1  0
 28 33  1  0
 30 29  1  1
 30 31  2  0
 30 32  1  0
 32 33  1  0
 34 35  1  0
 34 36  2  0
M  END
