
     RDKit          3D

 36 40  0  0  0  0  0  0  0  0999 V2000
   -1.5680   -3.4090    0.9140 C   0  0  0  0  0  0  0  0  0  0  0  0
   -1.7320   -2.9990   -0.5580 C   0  0  0  0  0  0  0  0  0  0  0  0
   -1.2880   -1.6190   -0.7700 C   0  0  0  0  0  0  0  0  0  0  0  0
   -2.0650   -0.5240   -0.3640 C   0  0  0  0  0  0  0  0  0  0  0  0
   -3.3650   -0.5260    0.2910 C   0  0  0  0  0  0  0  0  0  0  0  0
   -4.5160   -1.0250   -0.2940 C   0  0  0  0  0  0  0  0  0  0  0  0
   -5.7200   -0.9960    0.3940 C   0  0  0  0  0  0  0  0  0  0  0  0
   -5.8200   -0.4780    1.6650 C   0  0  0  0  0  0  0  0  0  0  0  0
   -4.6850    0.0230    2.2610 C   0  0  0  0  0  0  0  0  0  0  0  0
   -3.4950   -0.0110    1.5720 C   0  0  0  0  0  0  0  0  0  0  0  0
   -1.3470    0.5920   -0.7080 C   0  0  0  0  0  0  0  0  0  0  0  0
   -1.7440    1.9770   -0.4890 C   0  0  0  0  0  0  0  0  0  0  0  0
   -2.8600    2.5150   -1.0940 C   0  0  0  0  0  0  0  0  0  0  0  0
   -3.2480    3.8170   -0.8990 C   0  0  0  0  0  0  0  0  0  0  0  0
   -2.4950    4.6060   -0.0710 C   0  0  0  0  0  0  0  0  0  0  0  0
   -1.3670    4.1190    0.5600 C   0  0  0  0  0  0  0  0  0  0  0  0
   -1.0130    2.8040    0.3360 C   0  0  0  0  0  0  0  0  0  0  0  0
   -0.2170    0.1440   -1.2810 N   0  0  0  0  0  0  0  0  0  0  0  0
   -0.1660   -1.1530   -1.3260 N   0  0  0  0  0  0  0  0  0  0  0  0
    0.8710   -1.9770   -1.8710 C   0  0  0  0  0  0  0  0  0  0  0  0
    0.5500   -2.8350   -2.9100 C   0  0  0  0  0  0  0  0  0  0  0  0
    1.5370   -3.6190   -3.4510 C   0  0  0  0  0  0  0  0  0  0  0  0
    2.8400   -3.5510   -2.9640 C   0  0  0  0  0  0  0  0  0  0  0  0
    3.1260   -2.6930   -1.9350 C   0  0  0  0  0  0  0  0  0  0  0  0
    2.1570   -1.8870   -1.3640 C   0  0  0  0  0  0  0  0  0  0  0  0
    2.4910   -0.9840   -0.2620 C   0  0  0  0  0  0  0  0  0  0  0  0
    1.7600   -1.0160    0.8820 C   0  0  0  0  0  0  0  0  0  0  0  0
    2.0760   -0.1500    1.9070 C   0  0  0  0  0  0  0  0  0  0  0  0
    3.1210    0.7210    1.7440 C   0  0  0  0  0  0  0  0  0  0  0  0
    3.8940    0.7890    0.5970 C   0  0  0  0  0  0  0  0  0  0  0  0
    4.9510    1.6770    0.4440 O   0  0  0  0  0  0  0  0  0  0  0  0
    5.2210    2.5380    1.5350 C   0  0  0  0  0  0  0  0  0  0  0  0
    6.3640    3.4380    1.2570 C   0  0  0  0  0  0  0  0  0  0  0  0
    6.7240    4.2590    2.1360 O   0  0  0  0  0  0  0  0  0  0  0  0
    7.0090    3.3620    0.0510 O   0  0  0  0  0  0  0  0  0  0  0  0
    3.5280   -0.1090   -0.4030 C   0  0  0  0  0  0  0  0  0  0  0  0
  1  2  1  0
  2  3  1  0
  3  4  2  0
  3 19  1  0
  4  5  1  0
  4 11  1  0
  5  6  2  0
  5 10  1  0
  6  7  1  0
  7  8  2  0
  8  9  1  0
  9 10  2  0
 11 12  1  0
 11 18  2  0
 12 13  2  0
 12 17  1  0
 13 14  1  0
 14 15  2  0
 15 16  1  0
 16 17  2  0
 18 19  1  0
 19 20  1  0
 20 21  2  0
 20 25  1  0
 21 22  1  0
 22 23  2  0
 23 24  1  0
 24 25  2  0
 25 26  1  0
 26 27  2  0
 26 36  1  0
 27 28  1  0
 28 29  2  0
 29 30  1  0
 30 31  1  0
 30 36  2  0
 31 32  1  0
 32 33  1  0
 33 34  2  0
 33 35  1  0
M  END
