
     RDKit          3D

 11 11  0  0  0  0  0  0  0  0999 V2000
    3.3990    0.7850   -0.2520 C   0  0  0  0  0  0  0  0  0  0  0  0
    2.3470   -0.2360   -0.0520 C   0  0  0  0  0  0  0  0  0  0  0  0
    2.6870   -1.5640    0.1290 O   0  0  0  0  0  0  0  0  0  0  0  0
    1.0790    0.1150   -0.0460 C   0  0  0  0  0  0  0  0  0  0  0  0
    0.5660    1.4290   -0.2170 N   0  0  0  0  0  0  0  0  0  0  0  0
   -0.7060    1.4160   -0.1570 C   0  0  0  0  0  0  0  0  0  0  0  0
   -1.1940    0.0510    0.0680 C   0  0  1  0  0  0  0  0  0  0  0  0
   -2.0430   -0.0640    1.7160 P   0  0  0  0  0  0  0  0  0  0  0  0
   -2.1540   -0.4070   -1.0120 C   0  0  0  0  0  0  0  0  0  0  0  0
   -2.5210   -1.7230   -0.7460 O   0  0  0  0  0  0  0  0  0  0  0  0
   -0.0300   -0.7240    0.1290 O   0  0  0  0  0  0  0  0  0  0  0  0
  1  2  1  0
  2  3  1  0
  2  4  2  3
  4  5  1  0
  4 11  1  0
  5  6  2  0
  6  7  1  0
  7  8  1  1
  7  9  1  0
  7 11  1  0
  9 10  1  0
M  END
