
     RDKit          3D

 23 24  0  0  0  0  0  0  0  0999 V2000
    1.2800   -0.5040   -0.0880 O   0  0  0  0  0  0  0  0  0  0  0  0
    1.0710    0.5410   -0.6960 C   0  0  0  0  0  0  0  0  0  0  0  0
    2.1050    0.9710   -1.5030 N   0  0  0  0  0  0  0  0  0  0  0  0
    3.3200    0.2500   -1.6180 C   0  0  0  0  0  0  0  0  0  0  0  0
    4.1000    0.8320   -2.4130 N   0  0  0  0  0  0  0  0  0  0  0  0
    5.2520    0.1550   -2.5270 O   0  0  0  0  0  0  0  0  0  0  0  0
    5.2260   -0.9850   -1.7530 C   0  0  1  0  0  0  0  0  0  0  0  0
    6.2460   -0.9720   -0.6670 C   0  0  0  0  0  0  0  0  0  0  0  0
    7.0110    0.0060   -0.5330 O   0  0  0  0  0  0  0  0  0  0  0  0
    6.3660   -2.0260    0.2030 O   0  0  0  0  0  0  0  0  0  0  0  0
    7.2760   -2.0550    1.2020 O   0  0  0  0  0  0  0  0  0  0  0  0
    7.2090   -0.9230    1.8870 O   0  0  0  0  0  0  0  0  0  0  0  0
    3.9640   -0.8810   -1.1630 O   0  0  0  0  0  0  0  0  0  0  0  0
   -0.1320    1.3530   -0.6540 C   0  0  0  0  0  0  0  0  0  0  0  0
   -0.2290    2.4070   -1.2930 O   0  0  0  0  0  0  0  0  0  0  0  0
   -1.1110    0.8680    0.1230 O   0  0  0  0  0  0  0  0  0  0  0  0
   -2.3470    1.4570    0.3180 C   0  0  0  0  0  0  0  0  0  0  0  0
   -3.1890    0.6010    1.2530 C   0  0  2  0  0  0  0  0  0  0  0  0
   -3.4000   -0.7830    0.6820 C   0  0  0  0  0  0  0  0  0  0  0  0
   -4.4540   -0.8160   -0.3970 C   0  0  0  0  0  0  0  0  0  0  0  0
   -5.6830   -0.3520    0.0590 O   0  0  0  0  0  0  0  0  0  0  0  0
   -5.5890    0.2090    1.3310 C   0  0  0  0  0  0  0  0  0  0  0  0
   -4.5220    1.2860    1.3390 C   0  0  0  0  0  0  0  0  0  0  0  0
  1  2  2  0
  2  3  1  0
  2 14  1  0
  3  4  1  0
  4  5  2  0
  4 13  1  0
  5  6  1  0
  6  7  1  0
  7  8  1  1
  7 13  1  0
  8  9  2  0
  8 10  1  0
 10 11  1  0
 11 12  1  0
 14 15  2  0
 14 16  1  0
 16 17  1  0
 18 17  1  6
 18 19  1  0
 18 23  1  0
 19 20  1  0
 20 21  1  0
 21 22  1  0
 22 23  1  0
M  END
