
     RDKit          3D

 10 10  0  0  0  0  0  0  0  0999 V2000
   -3.4340   -0.0320   -0.0800 C   0  0  0  0  0  0  0  0  0  0  0  0
   -2.1760    0.1790   -0.3930 C   0  0  0  0  0  0  0  0  0  0  0  0
   -1.2790   -0.9740   -0.5820 C   0  0  0  0  0  0  0  0  0  0  0  0
    0.0300   -0.7200    0.1300 C   0  0  0  0  0  0  0  0  0  0  0  0
    0.6190    0.5870   -0.2940 C   0  0  2  0  0  0  0  0  0  0  0  0
    1.5290    0.9850    0.6840 O   0  0  0  0  0  0  0  0  0  0  0  0
    2.7310    1.0740    0.1640 O   0  0  0  0  0  0  0  0  0  0  0  0
    3.8820    0.1880    1.1150 P   0  0  0  0  0  0  0  0  0  0  0  0
   -0.3810    1.6410   -0.5080 C   0  0  0  0  0  0  0  0  0  0  0  0
   -1.6450    1.4850   -0.5570 N   0  0  0  0  0  0  0  0  0  0  0  0
  1  2  2  0
  2  3  1  0
  2 10  1  0
  3  4  1  0
  4  5  1  0
  5  6  1  1
  5  9  1  0
  6  7  1  0
  7  8  1  0
  9 10  2  0
M  END
