
     RDKit          3D

 10  9  0  0  0  0  0  0  0  0999 V2000
   -3.6550   -0.1560    0.4100 C   0  0  0  0  0  0  0  0  0  0  0  0
   -3.2280    1.2640    0.2940 C   0  0  0  0  0  0  0  0  0  0  0  0
   -3.9930    2.0620   -0.1840 O   0  0  0  0  0  0  0  0  0  0  0  0
   -1.5620    1.7850    0.8730 P   0  0  0  0  0  0  0  0  0  0  0  0
   -0.2380    0.9950    0.2750 C   0  0  0  0  0  0  0  0  0  0  0  0
    0.7320    0.1580    0.1760 C   0  0  0  0  0  0  0  0  0  0  0  0
    1.8720   -0.4730    0.2050 C   0  0  0  0  0  0  0  0  0  0  0  0
    3.1150   -0.8850    0.2170 C   0  0  0  0  0  0  0  0  0  0  0  0
    3.9760   -0.6770    1.2780 O   0  0  0  0  0  0  0  0  0  0  0  0
    5.2890   -0.4790    1.1380 O   0  0  0  0  0  0  0  0  0  0  0  0
  1  2  1  0
  2  3  2  0
  2  4  1  0
  4  5  2  0
  5  6  2  0
  6  7  2  0
  7  8  2  0
  8  9  1  0
  9 10  1  0
M  END
