
     RDKit          3D

 22 23  0  0  0  0  0  0  0  0999 V2000
    2.9800    0.8230   -1.2100 N   0  0  0  0  0  0  0  0  0  0  0  0
    3.1240   -0.1410   -0.1960 C   0  0  0  0  0  0  0  0  0  0  0  0
    4.2550   -0.3530    0.5740 C   0  0  0  0  0  0  0  0  0  0  0  0
    5.5310    0.3680    0.5050 C   0  0  0  0  0  0  0  0  0  0  0  0
    6.4490    0.0430    1.2780 O   0  0  0  0  0  0  0  0  0  0  0  0
    5.7060    1.3900   -0.4070 O   0  0  0  0  0  0  0  0  0  0  0  0
    3.9380   -1.3610    1.4010 N   0  0  0  0  0  0  0  0  0  0  0  0
    2.6720   -1.7670    1.1680 C   0  0  0  0  0  0  0  0  0  0  0  0
    2.1820   -1.0070    0.1810 N   0  0  0  0  0  0  0  0  0  0  0  0
    0.8530   -1.1260   -0.3640 C   0  0  2  0  0  0  0  0  0  0  0  0
    0.3050    0.1410   -0.5600 O   0  0  0  0  0  0  0  0  0  0  0  0
   -1.0540   -0.0230   -0.7300 C   0  0  2  0  0  0  0  0  0  0  0  0
   -1.8510    1.1510   -0.2080 C   0  0  0  0  0  0  0  0  0  0  0  0
   -3.1780    0.8380   -0.4480 O   0  0  0  0  0  0  0  0  0  0  0  0
   -4.3190    1.7740   -0.0640 P   0  0  0  0  0  0  0  0  0  0  0  0
   -5.5270    0.8360   -0.5470 O   0  0  0  0  0  0  0  0  0  0  0  0
   -3.7260    2.9460   -1.0580 O   0  0  0  0  0  0  0  0  0  0  0  0
   -3.7290    1.6950    1.5230 O   0  0  0  0  0  0  0  0  0  0  0  0
   -1.4440   -1.2620    0.0510 C   0  0  1  0  0  0  0  0  0  0  0  0
   -1.9380   -2.2480   -0.7920 O   0  0  0  0  0  0  0  0  0  0  0  0
   -0.1170   -1.7430    0.6030 C   0  0  1  0  0  0  0  0  0  0  0  0
   -0.0620   -3.1370    0.5910 O   0  0  0  0  0  0  0  0  0  0  0  0
  1  2  1  0
  2  3  2  0
  2  9  1  0
  3  4  1  0
  3  7  1  0
  4  5  2  0
  4  6  1  0
  7  8  2  0
  8  9  1  0
 10  9  1  1
 10 11  1  0
 10 21  1  0
 11 12  1  0
 12 13  1  1
 12 19  1  0
 13 14  1  0
 14 15  1  0
 15 16  1  0
 15 17  1  0
 15 18  1  0
 19 20  1  6
 19 21  1  0
 21 22  1  6
M  END
