
     RDKit          3D

 10  9  0  0  0  0  0  0  0  0999 V2000
   -3.6120   -1.1150   -0.0770 C   0  0  0  0  0  0  0  0  0  0  0  0
   -3.2260    0.2350   -0.4960 C   0  0  0  0  0  0  0  0  0  0  0  0
   -2.0410    0.7030   -0.1090 C   0  0  0  0  0  0  0  0  0  0  0  0
   -1.6440    1.9960   -0.4970 N   0  0  0  0  0  0  0  0  0  0  0  0
   -0.0590    2.2810   -1.2670 P   0  0  0  0  0  0  0  0  0  0  0  0
    1.2820    1.5920   -0.5930 C   0  0  0  0  0  0  0  0  0  0  0  0
    2.1660    0.9640    0.1700 C   0  0  0  0  0  0  0  0  0  0  0  0
    2.3470   -0.3660   -0.0710 O   0  0  0  0  0  0  0  0  0  0  0  0
    2.8780   -1.2490    0.7640 O   0  0  0  0  0  0  0  0  0  0  0  0
    4.2180   -1.4320    0.4700 C   0  0  0  0  0  0  0  0  0  0  0  0
  1  2  1  0
  2  3  2  3
  3  4  1  0
  4  5  1  0
  5  6  2  0
  6  7  2  0
  7  8  1  0
  8  9  1  0
  9 10  1  0
M  END
