
     RDKit          3D

 11 10  0  0  0  0  0  0  0  0999 V2000
   -2.5860    1.3780   -0.4780 C   0  0  0  0  0  0  0  0  0  0  0  0
   -2.5500    0.2030    0.1270 C   0  0  0  0  0  0  0  0  0  0  0  0
   -3.3420   -0.8270   -0.3510 O   0  0  0  0  0  0  0  0  0  0  0  0
   -4.6290   -0.9700    0.2220 C   0  0  0  0  0  0  0  0  0  0  0  0
   -1.7220    0.0380    1.2210 O   0  0  0  0  0  0  0  0  0  0  0  0
   -0.4670   -0.4470    0.9890 O   0  0  0  0  0  0  0  0  0  0  0  0
    0.4280    0.2400    0.1990 C   0  0  0  0  0  0  0  0  0  0  0  0
    1.5100   -0.3590   -0.2260 C   0  0  0  0  0  0  0  0  0  0  0  0
    2.6840    0.5680   -1.2730 P   0  0  0  0  0  0  0  0  0  0  0  0
    4.2990    0.4840   -0.9440 C   0  0  0  0  0  0  0  0  0  0  0  0
    4.7860   -0.3330    0.1850 C   0  0  0  0  0  0  0  0  0  0  0  0
  1  2  2  0
  2  3  1  0
  2  5  1  0
  3  4  1  0
  5  6  1  0
  6  7  1  0
  7  8  2  3
  8  9  1  0
  9 10  2  3
 10 11  1  0
M  END
