
     RDKit          3D

 10 10  0  0  0  0  0  0  0  0999 V2000
   -3.1960   -0.1770    0.4310 C   0  0  0  0  0  0  0  0  0  0  0  0
   -2.1990   -0.7670   -0.4140 O   0  0  0  0  0  0  0  0  0  0  0  0
   -0.9010   -0.3520   -0.3190 C   0  0  0  0  0  0  0  0  0  0  0  0
   -0.2220    0.5210   -0.9240 C   0  0  0  0  0  0  0  0  0  0  0  0
    1.0130    0.8460   -0.7610 C   0  0  0  0  0  0  0  0  0  0  0  0
    1.7100    0.1210    0.2370 C   0  0  0  0  0  0  0  0  0  0  0  0
    3.0580    0.1590    0.7280 N   0  0  0  0  0  0  0  0  0  0  0  0
    4.0310   -0.3500    0.0980 C   0  0  0  0  0  0  0  0  0  0  0  0
    5.0580   -0.5200   -0.5840 O   0  0  0  0  0  0  0  0  0  0  0  0
    0.4670   -1.0180    0.8830 P   0  0  0  0  0  0  0  0  0  0  0  0
  1  2  1  0
  2  3  1  0
  3  4  2  0
  3 10  1  0
  4  5  2  0
  5  6  1  0
  6  7  1  0
  6 10  2  0
  7  8  2  0
  8  9  2  0
M  END
