
     RDKit          3D

 23 24  0  0  0  0  0  0  0  0999 V2000
    5.0470   -0.3670   -0.1390 O   0  0  0  0  0  0  0  0  0  0  0  0
    4.4850    0.6770    0.2390 C   0  0  0  0  0  0  0  0  0  0  0  0
    3.0690    0.6820    0.5930 C   0  0  0  0  0  0  0  0  0  0  0  0
    2.3750   -0.6530    0.4280 C   0  0  1  0  0  0  0  0  0  0  0  0
    0.9260   -0.5210    0.8230 C   0  0  0  0  0  0  0  0  0  0  0  0
    0.4380   -1.2190    1.7400 O   0  0  0  0  0  0  0  0  0  0  0  0
    0.1120    0.3890    0.1660 O   0  0  0  0  0  0  0  0  0  0  0  0
   -1.1970    0.5900    0.4430 O   0  0  0  0  0  0  0  0  0  0  0  0
   -2.1350   -0.1020   -0.2870 C   0  0  0  0  0  0  0  0  0  0  0  0
   -1.7390   -0.8900   -1.1770 O   0  0  0  0  0  0  0  0  0  0  0  0
   -3.5130    0.0510   -0.0620 N   0  0  0  0  0  0  0  0  0  0  0  0
   -4.4610   -0.6760   -0.8340 C   0  0  0  0  0  0  0  0  0  0  0  0
   -5.6940    0.1090   -1.1800 C   0  0  0  0  0  0  0  0  0  0  0  0
   -5.8490    1.2400   -0.3860 O   0  0  0  0  0  0  0  0  0  0  0  0
   -5.4880    0.9230    0.9090 C   0  0  0  0  0  0  0  0  0  0  0  0
   -3.9700    0.9650    0.9610 C   0  0  0  0  0  0  0  0  0  0  0  0
    2.4940   -1.1640   -0.9870 C   0  0  0  0  0  0  0  0  0  0  0  0
    3.3700   -2.2350   -0.8930 O   0  0  0  0  0  0  0  0  0  0  0  0
    3.2030   -2.7050    0.3840 C   0  0  0  0  0  0  0  0  0  0  0  0
    2.9840   -1.6160    1.2260 O   0  0  0  0  0  0  0  0  0  0  0  0
    5.2590    1.8820    0.3230 N   0  0  0  0  0  0  0  0  0  0  0  0
    6.5620    1.8060   -0.0220 O   0  0  0  0  0  0  0  0  0  0  0  0
    6.6720    2.4840   -1.1590 O   0  0  0  0  0  0  0  0  0  0  0  0
  1  2  2  0
  2  3  1  0
  2 21  1  0
  4  3  1  6
  4  5  1  0
  4 17  1  0
  4 20  1  0
  5  6  2  0
  5  7  1  0
  7  8  1  0
  8  9  1  0
  9 10  2  0
  9 11  1  0
 11 12  1  0
 11 16  1  0
 12 13  1  0
 13 14  1  0
 14 15  1  0
 15 16  1  0
 17 18  1  0
 18 19  1  0
 19 20  1  0
 21 22  1  0
 22 23  1  0
M  END
