
     RDKit          3D

 10  9  0  0  0  0  0  0  0  0999 V2000
    4.3840    0.1570    0.7080 C   0  0  0  0  0  0  0  0  0  0  0  0
    2.9280   -0.5110    0.8420 P   0  0  0  0  0  0  0  0  0  0  0  0
    1.4690    0.1890   -0.1310 C   0  0  0  0  0  0  0  0  0  0  0  0
    0.4530   -0.7190    0.2360 O   0  0  0  0  0  0  0  0  0  0  0  0
   -0.4220   -0.8090   -0.7880 O   0  0  0  0  0  0  0  0  0  0  0  0
   -1.5470   -1.4000   -0.1880 C   0  0  0  0  0  0  0  0  0  0  0  0
   -2.1920   -0.1610    0.4250 C   0  0  0  0  0  0  0  0  0  0  0  0
   -2.2170    1.1080   -0.2970 C   0  0  0  0  0  0  0  0  0  0  0  0
   -2.6010   -0.2540    1.6400 C   0  0  0  0  0  0  0  0  0  0  0  0
   -2.7960   -0.4340    2.8590 O   0  0  0  0  0  0  0  0  0  0  0  0
  1  2  2  0
  2  3  1  0
  3  4  1  0
  4  5  1  0
  5  6  1  0
  6  7  1  0
  7  8  1  0
  7  9  2  0
  9 10  2  0
M  END
