
     RDKit          3D

 10  9  0  0  0  0  0  0  0  0999 V2000
    4.6860   -0.0940    0.0330 C   0  0  0  0  0  0  0  0  0  0  0  0
    3.3690   -0.9510    0.6310 P   0  0  0  0  0  0  0  0  0  0  0  0
    1.6500   -0.3340    0.2780 C   0  0  0  0  0  0  0  0  0  0  0  0
    0.8050   -0.5610    1.3540 O   0  0  0  0  0  0  0  0  0  0  0  0
   -0.4010   -0.1610    1.1860 O   0  0  0  0  0  0  0  0  0  0  0  0
   -0.8180   -0.0650   -0.1270 C   0  0  0  0  0  0  0  0  0  0  0  0
   -2.2250    0.4060   -0.1800 C   0  0  0  0  0  0  0  0  0  0  0  0
   -3.2640   -0.4210    0.4850 C   0  0  0  0  0  0  0  0  0  0  0  0
   -2.5820    1.5090   -0.7840 C   0  0  0  0  0  0  0  0  0  0  0  0
   -2.7740    2.7390   -0.8970 O   0  0  0  0  0  0  0  0  0  0  0  0
  1  2  2  0
  2  3  1  0
  3  4  1  0
  4  5  1  0
  5  6  1  0
  6  7  1  0
  7  8  1  0
  7  9  2  0
  9 10  2  0
M  END
