
     RDKit          3D

 23 24  0  0  0  0  0  0  0  0999 V2000
    1.0670   -0.2610    0.5090 O   0  0  0  0  0  0  0  0  0  0  0  0
    0.7950   -0.5510   -0.6480 C   0  0  0  0  0  0  0  0  0  0  0  0
    1.8220   -1.1300   -1.3660 N   0  0  0  0  0  0  0  0  0  0  0  0
    3.1010   -1.3570   -0.7760 C   0  0  0  0  0  0  0  0  0  0  0  0
    3.8920   -1.8660   -1.6040 N   0  0  0  0  0  0  0  0  0  0  0  0
    5.1070   -2.0950   -1.0900 O   0  0  0  0  0  0  0  0  0  0  0  0
    5.1360   -1.5650    0.2020 C   0  0  1  0  0  0  0  0  0  0  0  0
    6.0610   -0.4190    0.3310 C   0  0  0  0  0  0  0  0  0  0  0  0
    6.1750    0.1420    1.4430 O   0  0  0  0  0  0  0  0  0  0  0  0
    6.7780    0.0200   -0.7370 O   0  0  0  0  0  0  0  0  0  0  0  0
    7.6410    1.0600   -0.6920 O   0  0  0  0  0  0  0  0  0  0  0  0
    8.8570    0.5200   -0.7860 O   0  0  0  0  0  0  0  0  0  0  0  0
    3.8080   -1.2250    0.3870 O   0  0  0  0  0  0  0  0  0  0  0  0
   -0.4900   -0.3170   -1.2590 C   0  0  0  0  0  0  0  0  0  0  0  0
   -0.7890   -0.6680   -2.4140 O   0  0  0  0  0  0  0  0  0  0  0  0
   -1.3640    0.3320   -0.4680 O   0  0  0  0  0  0  0  0  0  0  0  0
   -2.6490    0.7070   -0.7690 C   0  0  0  0  0  0  0  0  0  0  0  0
   -3.2410    1.4500    0.4300 C   0  0  2  0  0  0  0  0  0  0  0  0
   -3.2630    0.5630    1.6230 C   0  0  0  0  0  0  0  0  0  0  0  0
   -4.4080   -0.4010    1.6880 C   0  0  0  0  0  0  0  0  0  0  0  0
   -5.5790    0.3680    1.5540 O   0  0  0  0  0  0  0  0  0  0  0  0
   -5.6170    0.8720    0.2750 C   0  0  0  0  0  0  0  0  0  0  0  0
   -4.5980    1.9520    0.0910 C   0  0  0  0  0  0  0  0  0  0  0  0
  1  2  2  0
  2  3  1  0
  2 14  1  0
  3  4  1  0
  4  5  2  0
  4 13  1  0
  5  6  1  0
  6  7  1  0
  7  8  1  6
  7 13  1  0
  8  9  2  0
  8 10  1  0
 10 11  1  0
 11 12  1  0
 14 15  2  0
 14 16  1  0
 16 17  1  0
 18 17  1  6
 18 19  1  0
 18 23  1  0
 19 20  1  0
 20 21  1  0
 21 22  1  0
 22 23  1  0
M  END
