
     RDKit          3D

 10 10  0  0  0  0  0  0  0  0999 V2000
   -2.5840    0.6220   -1.1740 C   0  0  0  0  0  0  0  0  0  0  0  0
   -1.8370    0.0240   -0.2690 C   0  0  0  0  0  0  0  0  0  0  0  0
   -1.5300    0.6280    1.0330 C   0  0  0  0  0  0  0  0  0  0  0  0
   -0.1000    0.4010    1.4020 C   0  0  0  0  0  0  0  0  0  0  0  0
    0.7060   -0.2320    0.3290 C   0  0  2  0  0  0  0  0  0  0  0  0
    0.9460    0.7070   -0.6620 O   0  0  0  0  0  0  0  0  0  0  0  0
    2.2360    0.8760   -0.8160 O   0  0  0  0  0  0  0  0  0  0  0  0
    3.0640   -0.6210   -1.1330 P   0  0  0  0  0  0  0  0  0  0  0  0
   -0.0000   -1.4330   -0.2300 C   0  0  0  0  0  0  0  0  0  0  0  0
   -1.2820   -1.2840   -0.5250 N   0  0  0  0  0  0  0  0  0  0  0  0
  1  2  2  0
  2  3  1  0
  2 10  1  0
  3  4  1  0
  4  5  1  0
  5  6  1  6
  5  9  1  0
  6  7  1  0
  7  8  1  0
  9 10  2  0
M  END
