
     RDKit          3D

 10  9  0  0  0  0  0  0  0  0999 V2000
   -4.1250    0.6910    0.6440 C   0  0  0  0  0  0  0  0  0  0  0  0
   -3.2120    0.2830   -0.4570 C   0  0  0  0  0  0  0  0  0  0  0  0
   -3.3710    0.7090   -1.5650 O   0  0  0  0  0  0  0  0  0  0  0  0
   -1.8500   -0.8800   -0.0660 P   0  0  0  0  0  0  0  0  0  0  0  0
   -0.3480   -0.2370    0.2380 C   0  0  0  0  0  0  0  0  0  0  0  0
    0.8990    0.0970    0.1090 C   0  0  0  0  0  0  0  0  0  0  0  0
    2.1250    0.4200   -0.1180 C   0  0  0  0  0  0  0  0  0  0  0  0
    3.3600    0.5540   -0.5660 C   0  0  0  0  0  0  0  0  0  0  0  0
    4.3300   -0.3560   -0.1690 O   0  0  0  0  0  0  0  0  0  0  0  0
    5.3950    0.0940    0.4710 O   0  0  0  0  0  0  0  0  0  0  0  0
  1  2  1  0
  2  3  2  0
  2  4  1  0
  4  5  2  0
  5  6  2  0
  6  7  2  0
  7  8  2  0
  8  9  1  0
  9 10  1  0
M  END
