
     RDKit          3D

 11 11  0  0  0  0  0  0  0  0999 V2000
    3.4100   -0.0510    0.1740 C   0  0  0  0  0  0  0  0  0  0  0  0
    2.1770    0.7180    0.4340 C   0  0  0  0  0  0  0  0  0  0  0  0
    2.3070    1.9900    0.9660 O   0  0  0  0  0  0  0  0  0  0  0  0
    1.0130    0.1520    0.1460 C   0  0  0  0  0  0  0  0  0  0  0  0
    0.8700   -1.1430   -0.3960 N   0  0  0  0  0  0  0  0  0  0  0  0
   -0.3610   -1.4410   -0.5760 C   0  0  0  0  0  0  0  0  0  0  0  0
   -1.1650   -0.2910   -0.1380 C   0  0  1  0  0  0  0  0  0  0  0  0
   -2.0190    0.4230   -1.6340 P   0  0  0  0  0  0  0  0  0  0  0  0
   -2.1680   -0.6980    0.9180 C   0  0  0  0  0  0  0  0  0  0  0  0
   -2.9110    0.3690    1.3510 O   0  0  0  0  0  0  0  0  0  0  0  0
   -0.2570    0.6570    0.2960 O   0  0  0  0  0  0  0  0  0  0  0  0
  1  2  1  0
  2  3  1  0
  2  4  2  3
  4  5  1  0
  4 11  1  0
  5  6  2  0
  6  7  1  0
  7  8  1  6
  7  9  1  0
  7 11  1  0
  9 10  1  0
M  END
