
     RDKit          3D

 10  9  0  0  0  0  0  0  0  0999 V2000
   -4.8560   -0.4080    0.2510 C   0  0  0  0  0  0  0  0  0  0  0  0
   -3.4180   -0.5220    0.5890 C   0  0  0  0  0  0  0  0  0  0  0  0
   -2.5890   -0.9850   -0.3150 C   0  0  0  0  0  0  0  0  0  0  0  0
   -1.1830   -1.1130   -0.0270 N   0  0  0  0  0  0  0  0  0  0  0  0
   -0.0500   -0.3410   -1.2130 P   0  0  0  0  0  0  0  0  0  0  0  0
    1.2340    0.4870   -0.5520 C   0  0  0  0  0  0  0  0  0  0  0  0
    2.1350    1.0610    0.1850 C   0  0  0  0  0  0  0  0  0  0  0  0
    3.2050    0.3370    0.6400 O   0  0  0  0  0  0  0  0  0  0  0  0
    4.1480   -0.0360   -0.2630 O   0  0  0  0  0  0  0  0  0  0  0  0
    5.2740    0.7650    0.0340 C   0  0  0  0  0  0  0  0  0  0  0  0
  1  2  1  0
  2  3  2  3
  3  4  1  0
  4  5  1  0
  5  6  2  0
  6  7  2  0
  7  8  1  0
  8  9  1  0
  9 10  1  0
M  END
