
     RDKit          3D

 10 10  0  0  0  0  0  0  0  0999 V2000
   -3.0560    0.6540   -0.4830 C   0  0  0  0  0  0  0  0  0  0  0  0
   -2.2150   -0.4750   -0.3630 O   0  0  0  0  0  0  0  0  0  0  0  0
   -0.9540   -0.5150    0.0340 C   0  0  0  0  0  0  0  0  0  0  0  0
   -0.1870   -1.1490    0.8440 C   0  0  0  0  0  0  0  0  0  0  0  0
    1.0080   -1.5070    0.6650 C   0  0  0  0  0  0  0  0  0  0  0  0
    1.8790   -0.4510    0.0610 C   0  0  0  0  0  0  0  0  0  0  0  0
    3.1670   -0.2530   -0.0240 N   0  0  0  0  0  0  0  0  0  0  0  0
    3.7530    0.8630   -0.0630 C   0  0  0  0  0  0  0  0  0  0  0  0
    4.4740    1.8270    0.1320 O   0  0  0  0  0  0  0  0  0  0  0  0
    0.5380    0.6430   -0.6190 P   0  0  0  0  0  0  0  0  0  0  0  0
  1  2  1  0
  2  3  1  0
  3  4  2  0
  3 10  1  0
  4  5  2  0
  5  6  1  0
  6  7  1  0
  6 10  2  0
  7  8  2  0
  8  9  2  0
M  END
