
     RDKit          3D

 11 10  0  0  0  0  0  0  0  0999 V2000
    3.9500   -1.7770    0.5230 C   0  0  0  0  0  0  0  0  0  0  0  0
    3.0900   -0.8300    0.1840 C   0  0  0  0  0  0  0  0  0  0  0  0
    3.4210    0.1830   -0.6880 O   0  0  0  0  0  0  0  0  0  0  0  0
    3.3920    1.5550   -0.3380 C   0  0  0  0  0  0  0  0  0  0  0  0
    1.8190   -0.9030    0.7560 O   0  0  0  0  0  0  0  0  0  0  0  0
    0.7570   -1.4710    0.1640 O   0  0  0  0  0  0  0  0  0  0  0  0
   -0.3400   -0.7090   -0.1720 C   0  0  0  0  0  0  0  0  0  0  0  0
   -1.2110   -0.3780    0.7510 C   0  0  0  0  0  0  0  0  0  0  0  0
   -2.6980    0.6290    0.4070 P   0  0  0  0  0  0  0  0  0  0  0  0
   -3.9860    0.0110   -0.4510 C   0  0  0  0  0  0  0  0  0  0  0  0
   -5.1540    0.9080   -0.6810 C   0  0  0  0  0  0  0  0  0  0  0  0
  1  2  2  0
  2  3  1  0
  2  5  1  0
  3  4  1  0
  5  6  1  0
  6  7  1  0
  7  8  2  3
  8  9  1  0
  9 10  2  3
 10 11  1  0
M  END
