
     RDKit          3D

 10 10  0  0  0  0  0  0  0  0999 V2000
    2.8540    0.5080    0.5320 O   0  0  0  0  0  0  0  0  0  0  0  0
    2.1730   -0.6320    0.1080 C   0  0  0  0  0  0  0  0  0  0  0  0
    0.8810   -0.2460   -0.5420 C   0  0  1  0  0  0  0  0  0  0  0  0
    0.1300   -1.4670   -1.0070 C   0  0  0  0  0  0  0  0  0  0  0  0
   -1.1450   -1.2080   -1.5470 N   0  0  0  0  0  0  0  0  0  0  0  0
   -1.9080   -0.1600   -1.0030 C   0  0  0  0  0  0  0  0  0  0  0  0
   -1.1540    1.0070   -0.4730 C   0  0  1  0  0  0  0  0  0  0  0  0
   -2.0100    1.8560    0.2130 O   0  0  0  0  0  0  0  0  0  0  0  0
   -0.0520    0.4720    0.4250 C   0  0  2  0  0  0  0  0  0  0  0  0
    0.5780    1.4440    1.1530 O   0  0  0  0  0  0  0  0  0  0  0  0
  1  2  1  0
  3  2  1  1
  3  4  1  0
  3  9  1  0
  4  5  1  0
  5  6  1  0
  6  7  1  0
  7  8  1  1
  7  9  1  0
  9 10  1  6
M  END
