
     RDKit          3D

 23 26  0  0  0  0  0  0  0  0999 V2000
   -3.7840   -1.5970   -1.0760 C   0  0  0  0  0  0  0  0  0  0  0  0
   -4.3550   -0.8830    0.1570 C   0  0  0  0  0  0  0  0  0  0  0  0
   -3.4100   -1.1220    1.3080 C   0  0  0  0  0  0  0  0  0  0  0  0
   -2.0830   -0.5850    0.9700 N   0  0  0  0  0  0  0  0  0  0  0  0
   -1.9340    0.8050    0.7720 C   0  0  0  0  0  0  0  0  0  0  0  0
   -3.0340    1.6270    0.9220 N   0  0  0  0  0  0  0  0  0  0  0  0
   -2.9720    2.9450    0.7620 C   0  0  0  0  0  0  0  0  0  0  0  0
   -4.0840    3.7360    0.9190 O   0  0  0  0  0  0  0  0  0  0  0  0
   -1.7720    3.5170    0.4350 C   0  0  0  0  0  0  0  0  0  0  0  0
   -0.6510    2.7200    0.2770 C   0  0  0  0  0  0  0  0  0  0  0  0
   -0.7220    1.3350    0.4460 C   0  0  0  0  0  0  0  0  0  0  0  0
    0.4940    0.5470    0.2650 C   0  0  0  0  0  0  0  0  0  0  0  0
    0.7340   -0.7630    0.3540 N   0  0  0  0  0  0  0  0  0  0  0  0
    2.0180   -1.0550    0.1050 C   0  0  0  0  0  0  0  0  0  0  0  0
    2.9260   -2.0620    0.0150 N   0  0  0  0  0  0  0  0  0  0  0  0
    4.1250   -1.5360   -0.3050 C   0  0  0  0  0  0  0  0  0  0  0  0
    5.3780   -2.0980   -0.5180 C   0  0  0  0  0  0  0  0  0  0  0  0
    6.4110   -1.2610   -0.8350 C   0  0  0  0  0  0  0  0  0  0  0  0
    6.1620    0.0820   -0.9260 C   0  0  0  0  0  0  0  0  0  0  0  0
    4.9510    0.6270   -0.7200 N   0  0  0  0  0  0  0  0  0  0  0  0
    3.9130   -0.1760   -0.4050 C   0  0  0  0  0  0  0  0  0  0  0  0
    2.6220    0.1190   -0.1550 N   0  0  0  0  0  0  0  0  0  0  0  0
    1.7200    1.0710   -0.0600 N   0  0  0  0  0  0  0  0  0  0  0  0
  1  2  1  0
  2  3  1  0
  3  4  1  0
  4  5  1  0
  5  6  2  0
  5 11  1  0
  6  7  1  0
  7  8  1  0
  7  9  2  0
  9 10  1  0
 10 11  2  0
 11 12  1  0
 12 13  1  0
 12 23  2  0
 13 14  2  0
 14 15  1  0
 14 22  1  0
 15 16  1  0
 16 17  2  0
 16 21  1  0
 17 18  1  0
 18 19  2  0
 19 20  1  0
 20 21  2  0
 21 22  1  0
 22 23  1  0
M  END
