
     RDKit          3D

 23 26  0  0  0  0  0  0  0  0999 V2000
   -3.3260   -1.3830    1.7000 O   0  0  0  0  0  0  0  0  0  0  0  0
   -3.3520   -0.6340    0.7000 C   0  0  0  0  0  0  0  0  0  0  0  0
   -2.1480   -0.1600    0.1650 N   0  0  0  0  0  0  0  0  0  0  0  0
   -0.8310   -0.4830    0.7000 C   0  0  1  0  0  0  0  0  0  0  0  0
   -0.0930   -1.2020   -0.4360 C   0  0  0  0  0  0  0  0  0  0  0  0
    0.3820   -0.1180   -1.3860 C   0  0  0  0  0  0  0  0  0  0  0  0
    1.5700    0.5500   -0.7300 C   0  0  2  0  0  0  0  0  0  0  0  0
    2.7240   -0.3180   -0.9520 N   0  0  0  0  0  0  0  0  0  0  0  0
    3.9600    0.1130   -0.4180 C   0  0  0  0  0  0  0  0  0  0  0  0
    4.2490    1.2260    0.2810 N   0  0  0  0  0  0  0  0  0  0  0  0
    5.5240    1.2560    0.5960 N   0  0  0  0  0  0  0  0  0  0  0  0
    6.0860    0.1710    0.1120 N   0  0  0  0  0  0  0  0  0  0  0  0
    7.2330   -0.5300   -0.0170 C   0  0  0  0  0  0  0  0  0  0  0  0
    7.0000   -1.6570   -0.7100 N   0  0  0  0  0  0  0  0  0  0  0  0
    5.7180   -1.6660   -1.0150 N   0  0  0  0  0  0  0  0  0  0  0  0
    5.1460   -0.5660   -0.5250 C   0  0  0  0  0  0  0  0  0  0  0  0
    1.3370    0.7630    0.7360 C   0  0  0  0  0  0  0  0  0  0  0  0
   -0.1550    0.8410    0.9990 C   0  0  0  0  0  0  0  0  0  0  0  0
   -4.6310   -0.2510    0.0870 C   0  0  0  0  0  0  0  0  0  0  0  0
   -5.8200   -0.6210    0.4850 C   0  0  0  0  0  0  0  0  0  0  0  0
   -6.8320   -0.0250   -0.3910 C   0  0  0  0  0  0  0  0  0  0  0  0
   -6.0570    0.7580   -1.3710 C   0  0  0  0  0  0  0  0  0  0  0  0
   -4.8020    0.6050   -1.0680 C   0  0  0  0  0  0  0  0  0  0  0  0
  1  2  2  0
  2  3  1  0
  2 19  1  0
  4  3  1  6
  4  5  1  0
  4 18  1  0
  5  6  1  0
  6  7  1  0
  7  8  1  1
  7 17  1  0
  8  9  1  0
  9 10  2  0
  9 16  1  0
 10 11  1  0
 11 12  1  0
 12 13  1  0
 12 16  1  0
 13 14  2  0
 14 15  1  0
 15 16  2  0
 17 18  1  0
 19 20  2  0
 19 23  1  0
 20 21  1  0
 21 22  1  0
 22 23  2  0
M  END
