
     RDKit          3D

 23 26  0  0  0  0  0  0  0  0999 V2000
    4.6430    1.6310    0.5690 C   0  0  0  0  0  0  0  0  0  0  0  0
    3.2200    1.6170    0.3350 N   0  0  0  0  0  0  0  0  0  0  0  0
    2.5030    2.6620    0.0440 N   0  0  0  0  0  0  0  0  0  0  0  0
    1.2600    2.2930   -0.1020 N   0  0  0  0  0  0  0  0  0  0  0  0
    1.1360    0.9750    0.0960 C   0  0  0  0  0  0  0  0  0  0  0  0
   -0.0800    0.2660    0.0970 N   0  0  0  0  0  0  0  0  0  0  0  0
   -1.3550    0.8040   -0.2760 C   0  0  0  0  0  0  0  0  0  0  0  0
   -1.5370    2.0530   -0.7720 C   0  0  0  0  0  0  0  0  0  0  0  0
   -2.7580    2.6040   -1.1610 C   0  0  0  0  0  0  0  0  0  0  0  0
   -3.8570    1.8060   -1.0260 C   0  0  0  0  0  0  0  0  0  0  0  0
   -3.7370    0.5260   -0.5290 C   0  0  0  0  0  0  0  0  0  0  0  0
   -4.8460   -0.2800   -0.3910 C   0  0  0  0  0  0  0  0  0  0  0  0
   -4.7780   -1.5630    0.1020 C   0  0  0  0  0  0  0  0  0  0  0  0
   -3.5680   -2.0790    0.4770 C   0  0  0  0  0  0  0  0  0  0  0  0
   -2.4300   -1.2680    0.3420 C   0  0  0  0  0  0  0  0  0  0  0  0
   -2.5010   -0.0020   -0.1460 C   0  0  0  0  0  0  0  0  0  0  0  0
    2.3890    0.5240    0.3760 C   0  0  0  0  0  0  0  0  0  0  0  0
    2.8660   -0.8350    0.5970 C   0  0  0  0  0  0  0  0  0  0  0  0
    4.0880   -1.0650    1.1500 N   0  0  0  0  0  0  0  0  0  0  0  0
    4.2370   -2.3510    1.2670 N   0  0  0  0  0  0  0  0  0  0  0  0
    3.1620   -2.9560    0.8110 C   0  0  0  0  0  0  0  0  0  0  0  0
    2.9440   -4.1850    0.7630 O   0  0  0  0  0  0  0  0  0  0  0  0
    2.2820   -1.9920    0.3810 N   0  0  0  0  0  0  0  0  0  0  0  0
  1  2  1  0
  2  3  1  0
  2 17  1  0
  3  4  2  0
  4  5  1  0
  5  6  1  0
  5 17  2  0
  6  7  1  0
  7  8  2  0
  7 16  1  0
  8  9  1  0
  9 10  2  0
 10 11  1  0
 11 12  2  0
 11 16  1  0
 12 13  1  0
 13 14  2  0
 14 15  1  0
 15 16  2  0
 17 18  1  0
 18 19  2  0
 18 23  1  0
 19 20  1  0
 20 21  1  0
 21 22  2  0
 21 23  1  0
M  END
