
     RDKit          3D

 23 26  0  0  0  0  0  0  0  0999 V2000
   -7.3740   -0.5830    0.3400 O   0  0  0  0  0  0  0  0  0  0  0  0
   -6.2570   -0.0430    0.2430 C   0  0  0  0  0  0  0  0  0  0  0  0
   -5.1110   -0.8050    0.2180 C   0  0  0  0  0  0  0  0  0  0  0  0
   -3.8790   -0.2090    0.1100 C   0  0  0  0  0  0  0  0  0  0  0  0
   -2.7000   -0.9110    0.0800 C   0  0  0  0  0  0  0  0  0  0  0  0
   -1.4670   -0.3090   -0.0280 C   0  0  0  0  0  0  0  0  0  0  0  0
   -0.2270   -1.0750   -0.0590 C   0  0  0  0  0  0  0  0  0  0  0  0
   -0.1520   -2.3970    0.0110 N   0  0  0  0  0  0  0  0  0  0  0  0
    1.0980   -2.7410   -0.0440 N   0  0  0  0  0  0  0  0  0  0  0  0
    1.9160   -1.6370   -0.1560 C   0  0  0  0  0  0  0  0  0  0  0  0
    3.3200   -1.6950   -0.2090 N   0  0  0  0  0  0  0  0  0  0  0  0
    4.2250   -0.6310   -0.3380 C   0  0  0  0  0  0  0  0  0  0  0  0
    3.9740    0.5540   -0.9860 C   0  0  0  0  0  0  0  0  0  0  0  0
    4.9900    1.5090   -0.9820 C   0  0  0  0  0  0  0  0  0  0  0  0
    6.2070    1.3080   -0.3650 C   0  0  0  0  0  0  0  0  0  0  0  0
    6.4360    0.1420    0.2640 N   0  0  0  0  0  0  0  0  0  0  0  0
    5.4760   -0.7850    0.2710 C   0  0  0  0  0  0  0  0  0  0  0  0
    1.0370   -0.6240   -0.1600 N   0  0  0  0  0  0  0  0  0  0  0  0
   -1.4630    1.0810   -0.1070 C   0  0  0  0  0  0  0  0  0  0  0  0
   -2.6360    1.8210   -0.0790 C   0  0  0  0  0  0  0  0  0  0  0  0
   -3.8260    1.1690    0.0290 C   0  0  0  0  0  0  0  0  0  0  0  0
   -4.9730    1.8610    0.0590 N   0  0  0  0  0  0  0  0  0  0  0  0
   -6.1670    1.2780    0.1630 N   0  0  0  0  0  0  0  0  0  0  0  0
  1  2  2  0
  2  3  1  0
  2 23  1  0
  3  4  2  0
  4  5  1  0
  4 21  1  0
  5  6  2  0
  6  7  1  0
  6 19  1  0
  7  8  2  0
  7 18  1  0
  8  9  1  0
  9 10  2  0
 10 11  1  0
 10 18  1  0
 11 12  1  0
 12 13  2  0
 12 17  1  0
 13 14  1  0
 14 15  2  0
 15 16  1  0
 16 17  2  0
 19 20  2  0
 20 21  1  0
 21 22  2  0
 22 23  1  0
M  END
