
     RDKit          3D

 23 26  0  0  0  0  0  0  0  0999 V2000
    0.8390   -3.1910    0.2790 O   0  0  0  0  0  0  0  0  0  0  0  0
    0.9320   -1.9410   -0.0070 C   0  0  0  0  0  0  0  0  0  0  0  0
   -0.2530   -1.2100    0.0590 N   0  0  0  0  0  0  0  0  0  0  0  0
   -1.5360   -1.7550    0.4350 C   0  0  0  0  0  0  0  0  0  0  0  0
   -1.8460   -3.0360    0.8360 C   0  0  0  0  0  0  0  0  0  0  0  0
   -3.1860   -3.0340    1.0960 N   0  0  0  0  0  0  0  0  0  0  0  0
   -3.6750   -1.8500    0.8760 N   0  0  0  0  0  0  0  0  0  0  0  0
   -2.6930   -1.0000    0.4590 C   0  0  0  0  0  0  0  0  0  0  0  0
   -2.8800    0.4010    0.1290 C   0  0  0  0  0  0  0  0  0  0  0  0
   -3.5940    1.2100    1.0100 C   0  0  0  0  0  0  0  0  0  0  0  0
   -3.8160    2.5460    0.7480 C   0  0  0  0  0  0  0  0  0  0  0  0
   -3.3470    3.1180   -0.3760 N   0  0  0  0  0  0  0  0  0  0  0  0
   -2.6530    2.3700   -1.2530 C   0  0  0  0  0  0  0  0  0  0  0  0
   -2.4130    1.0120   -1.0130 C   0  0  0  0  0  0  0  0  0  0  0  0
    2.2670   -1.4910   -0.3610 C   0  0  0  0  0  0  0  0  0  0  0  0
    3.2730   -2.3340   -0.7900 N   0  0  0  0  0  0  0  0  0  0  0  0
    4.3730   -1.6730   -1.0130 N   0  0  0  0  0  0  0  0  0  0  0  0
    4.2140   -0.3650   -0.7620 C   0  0  0  0  0  0  0  0  0  0  0  0
    5.0600    0.6980   -0.8360 N   0  0  0  0  0  0  0  0  0  0  0  0
    4.5640    1.8860   -0.4910 C   0  0  0  0  0  0  0  0  0  0  0  0
    3.2660    2.0690   -0.0750 C   0  0  0  0  0  0  0  0  0  0  0  0
    2.3680    1.0170    0.0170 C   0  0  0  0  0  0  0  0  0  0  0  0
    2.8190   -0.2360   -0.3280 C   0  0  0  0  0  0  0  0  0  0  0  0
  1  2  2  0
  2  3  1  0
  2 15  1  0
  3  4  1  0
  4  5  2  0
  4  8  1  0
  5  6  1  0
  6  7  1  0
  7  8  2  0
  8  9  1  0
  9 10  2  0
  9 14  1  0
 10 11  1  0
 11 12  2  0
 12 13  1  0
 13 14  2  0
 15 16  2  0
 15 23  1  0
 16 17  1  0
 17 18  2  0
 18 19  1  0
 18 23  1  0
 19 20  1  0
 20 21  2  0
 21 22  1  0
 22 23  2  0
M  END
