
     RDKit          3D

 23 26  0  0  0  0  0  0  0  0999 V2000
    6.9340    1.1290   -1.6250 C   0  0  0  0  0  0  0  0  0  0  0  0
    5.9160    0.4510   -0.8260 N   0  0  0  0  0  0  0  0  0  0  0  0
    4.5360    0.3610   -1.0910 C   0  0  0  0  0  0  0  0  0  0  0  0
    3.8650   -0.0200   -0.0210 C   0  0  0  0  0  0  0  0  0  0  0  0
    2.4150   -0.2180    0.0680 C   0  0  0  0  0  0  0  0  0  0  0  0
    1.5150   -0.0440   -0.9270 N   0  0  0  0  0  0  0  0  0  0  0  0
    0.2740   -0.3150   -0.4920 C   0  0  0  0  0  0  0  0  0  0  0  0
   -0.9820   -0.2980   -1.0800 C   0  0  0  0  0  0  0  0  0  0  0  0
   -2.1210   -0.6300   -0.3810 C   0  0  0  0  0  0  0  0  0  0  0  0
   -3.3540   -0.6320   -1.0480 N   0  0  0  0  0  0  0  0  0  0  0  0
   -4.5670   -0.1530   -0.4610 C   0  0  0  0  0  0  0  0  0  0  0  0
   -5.7870   -0.1660   -1.0880 N   0  0  0  0  0  0  0  0  0  0  0  0
   -6.6750    0.3750   -0.2880 N   0  0  0  0  0  0  0  0  0  0  0  0
   -8.1110    0.5730   -0.5400 C   0  0  0  0  0  0  0  0  0  0  0  0
   -6.1120    0.7590    0.8640 C   0  0  0  0  0  0  0  0  0  0  0  0
   -6.5870    1.3090    1.8880 O   0  0  0  0  0  0  0  0  0  0  0  0
   -4.7980    0.4180    0.7280 N   0  0  0  0  0  0  0  0  0  0  0  0
   -1.9970   -0.9860    0.9280 C   0  0  0  0  0  0  0  0  0  0  0  0
   -0.7470   -1.0180    1.5690 C   0  0  0  0  0  0  0  0  0  0  0  0
    0.3760   -0.6750    0.8300 C   0  0  0  0  0  0  0  0  0  0  0  0
    1.6960   -0.6030    1.1340 N   0  0  0  0  0  0  0  0  0  0  0  0
    4.8080   -0.2200    1.0850 C   0  0  0  0  0  0  0  0  0  0  0  0
    6.1770   -0.2560    0.4040 C   0  0  0  0  0  0  0  0  0  0  0  0
  1  2  1  0
  2  3  1  0
  2 23  1  0
  3  4  2  0
  4  5  1  0
  4 22  1  0
  5  6  2  0
  5 21  1  0
  6  7  1  0
  7  8  2  0
  7 20  1  0
  8  9  1  0
  9 10  1  0
  9 18  2  0
 10 11  1  0
 11 12  2  0
 11 17  1  0
 12 13  1  0
 13 14  1  0
 13 15  1  0
 15 16  2  0
 15 17  1  0
 18 19  1  0
 19 20  2  0
 20 21  1  0
 22 23  1  0
M  END
