
     RDKit          3D

 38 42  0  0  0  0  0  0  0  0999 V2000
    2.0310   -2.5110    1.5820 C   0  0  0  0  0  0  0  0  0  0  0  0
    1.5700   -1.1910    1.7390 O   0  0  0  0  0  0  0  0  0  0  0  0
    2.4100   -0.1240    1.4690 C   0  0  0  0  0  0  0  0  0  0  0  0
    3.7020   -0.3410    1.0400 C   0  0  0  0  0  0  0  0  0  0  0  0
    4.5340    0.7440    0.7750 C   0  0  0  0  0  0  0  0  0  0  0  0
    5.9030    0.5170    0.3080 C   0  0  0  0  0  0  0  0  0  0  0  0
    6.5050    1.4450   -0.5340 C   0  0  0  0  0  0  0  0  0  0  0  0
    7.7940    1.2610   -1.0000 C   0  0  0  0  0  0  0  0  0  0  0  0
    8.5320    0.1510   -0.6520 C   0  0  0  0  0  0  0  0  0  0  0  0
    9.8880   -0.0760   -1.1280 C   0  0  0  0  0  0  0  0  0  0  0  0
   10.6190    0.7100   -1.9520 N   0  0  0  0  0  0  0  0  0  0  0  0
   11.8040    0.0950   -2.1150 C   0  0  0  0  0  0  0  0  0  0  0  0
   11.8170   -1.0400   -1.4170 N   0  0  0  0  0  0  0  0  0  0  0  0
   10.6520   -1.1290   -0.8280 N   0  0  0  0  0  0  0  0  0  0  0  0
    7.9200   -0.7740    0.1920 C   0  0  0  0  0  0  0  0  0  0  0  0
    6.6430   -0.5860    0.6520 C   0  0  0  0  0  0  0  0  0  0  0  0
    3.9980    1.9970    0.9640 C   0  0  0  0  0  0  0  0  0  0  0  0
    2.7070    2.2210    1.3940 C   0  0  0  0  0  0  0  0  0  0  0  0
    1.8830    1.1460    1.6560 C   0  0  0  0  0  0  0  0  0  0  0  0
    0.5660    1.3100    2.0920 O   0  0  0  0  0  0  0  0  0  0  0  0
   -0.5050    0.8130    1.3350 C   0  0  0  0  0  0  0  0  0  0  0  0
   -1.3790   -0.1280    1.8260 C   0  0  0  0  0  0  0  0  0  0  0  0
   -2.4260   -0.5950    1.0480 C   0  0  0  0  0  0  0  0  0  0  0  0
   -2.6530   -0.1590   -0.2310 C   0  0  0  0  0  0  0  0  0  0  0  0
   -3.7630   -0.6500   -1.0440 C   0  0  1  0  0  0  0  0  0  0  0  0
   -3.4910   -2.1060   -1.4830 C   0  0  0  0  0  0  0  0  0  0  0  0
   -5.0610   -0.5850   -0.5120 N   0  0  0  0  0  0  0  0  0  0  0  0
   -6.1450   -0.8710   -1.3700 C   0  0  0  0  0  0  0  0  0  0  0  0
   -7.2270   -1.5830   -0.5900 C   0  0  0  0  0  0  0  0  0  0  0  0
   -8.4670   -0.6870   -0.4910 C   0  0  0  0  0  0  0  0  0  0  0  0
   -8.7180   -0.2950    0.9430 C   0  0  0  0  0  0  0  0  0  0  0  0
   -7.5890    0.2780    1.5960 N   0  0  0  0  0  0  0  0  0  0  0  0
   -6.5650    0.8220    0.7460 C   0  0  0  0  0  0  0  0  0  0  0  0
   -5.3130   -0.0180    0.7370 C   0  0  0  0  0  0  0  0  0  0  0  0
   -1.7600    0.7980   -0.7220 C   0  0  0  0  0  0  0  0  0  0  0  0
   -0.7190    1.2660    0.0440 C   0  0  0  0  0  0  0  0  0  0  0  0
    0.1780    2.2160   -0.4270 O   0  0  0  0  0  0  0  0  0  0  0  0
   -0.0130    2.7000   -1.7450 C   0  0  0  0  0  0  0  0  0  0  0  0
  1  2  1  0
  2  3  1  0
  3  4  2  0
  3 19  1  0
  4  5  1  0
  5  6  1  0
  5 17  2  0
  6  7  2  0
  6 16  1  0
  7  8  1  0
  8  9  2  0
  9 10  1  0
  9 15  1  0
 10 11  1  0
 10 14  2  0
 11 12  2  0
 12 13  1  0
 13 14  1  0
 15 16  2  0
 17 18  1  0
 18 19  2  0
 19 20  1  0
 20 21  1  0
 21 22  2  0
 21 36  1  0
 22 23  1  0
 23 24  2  0
 24 25  1  0
 24 35  1  0
 25 26  1  1
 25 27  1  0
 27 28  1  0
 27 34  1  0
 28 29  1  0
 29 30  1  0
 30 31  1  0
 31 32  1  0
 32 33  1  0
 33 34  1  0
 35 36  2  0
 36 37  1  0
 37 38  1  0
M  CHG  1  32   1
M  END
