
     RDKit          3D

 39 43  0  0  0  0  0  0  0  0999 V2000
   -6.1300    0.7670   -0.5710 C   0  0  0  0  0  0  0  0  0  0  0  0
   -4.7210    0.3370   -0.5440 N   0  0  0  0  0  0  0  0  0  0  0  0
   -4.6430   -0.7340    0.3880 C   0  0  0  0  0  0  0  0  0  0  0  0
   -3.2740   -1.1500    0.7590 C   0  0  0  0  0  0  0  0  0  0  0  0
   -2.1690   -0.5120    0.2140 C   0  0  0  0  0  0  0  0  0  0  0  0
   -0.8900   -0.8480    0.5180 C   0  0  0  0  0  0  0  0  0  0  0  0
    0.2140   -0.1530   -0.0750 N   0  0  0  0  0  0  0  0  0  0  0  0
    1.1300   -0.9850   -0.7990 C   0  0  0  0  0  0  0  0  0  0  0  0
    0.8530   -2.2050   -0.8030 O   0  0  0  0  0  0  0  0  0  0  0  0
    2.2620   -0.5180   -1.4660 N   0  0  0  0  0  0  0  0  0  0  0  0
    3.1670   -1.3430   -2.1810 C   0  0  0  0  0  0  0  0  0  0  0  0
    3.0480   -2.6970   -2.3480 C   0  0  0  0  0  0  0  0  0  0  0  0
    3.9910   -3.4470   -3.0750 C   0  0  0  0  0  0  0  0  0  0  0  0
    5.0700   -2.8490   -3.6490 C   0  0  0  0  0  0  0  0  0  0  0  0
    5.2180   -1.4950   -3.5000 C   0  0  0  0  0  0  0  0  0  0  0  0
    6.3310   -0.8860   -4.0930 O   0  0  0  0  0  0  0  0  0  0  0  0
    7.2830   -1.6070   -4.8210 C   0  0  0  0  0  0  0  0  0  0  0  0
    4.2960   -0.7750   -2.7900 C   0  0  0  0  0  0  0  0  0  0  0  0
    4.5180    0.6810   -2.6700 C   0  0  0  0  0  0  0  0  0  0  0  0
    0.4420    1.2370    0.0630 C   0  0  1  0  0  0  0  0  0  0  0  0
   -0.6060    2.1520   -0.5560 C   0  0  0  0  0  0  0  0  0  0  0  0
    0.0130    3.4190   -0.7390 O   0  0  0  0  0  0  0  0  0  0  0  0
    0.7120    3.9060    0.3520 C   0  0  0  0  0  0  0  0  0  0  0  0
    1.1270    5.2420    0.2950 C   0  0  0  0  0  0  0  0  0  0  0  0
    1.8330    5.7970    1.3550 C   0  0  0  0  0  0  0  0  0  0  0  0
    2.1130    5.0250    2.4450 C   0  0  0  0  0  0  0  0  0  0  0  0
    2.8730    5.6290    3.5870 C   0  0  0  0  0  0  0  0  0  0  0  0
    1.6950    3.7030    2.4890 C   0  0  0  0  0  0  0  0  0  0  0  0
    0.9880    3.1140    1.4470 C   0  0  0  0  0  0  0  0  0  0  0  0
    0.5490    1.6880    1.5230 C   0  0  0  0  0  0  0  0  0  0  0  0
   -0.7040   -1.8800    1.4200 C   0  0  0  0  0  0  0  0  0  0  0  0
   -1.7850   -2.5550    1.9970 C   0  0  0  0  0  0  0  0  0  0  0  0
   -1.5260   -3.6190    2.9250 C   0  0  0  0  0  0  0  0  0  0  0  0
   -1.3080   -4.4800    3.6700 N   0  0  0  0  0  0  0  0  0  0  0  0
   -3.0720   -2.1750    1.6550 C   0  0  0  0  0  0  0  0  0  0  0  0
   -4.1730   -2.8780    2.2580 N   0  0  0  0  0  0  0  0  0  0  0  0
   -4.9830   -4.0360    1.9750 C   0  0  0  0  0  0  0  0  0  0  0  0
   -6.0920   -3.4800    2.8300 C   0  0  0  0  0  0  0  0  0  0  0  0
   -4.9500   -2.6820    3.4690 C   0  0  0  0  0  0  0  0  0  0  0  0
  1  2  1  0
  2  3  1  0
  3  4  1  0
  4  5  2  0
  4 35  1  0
  5  6  1  0
  6  7  1  0
  6 31  2  0
  7  8  1  0
 20  7  1  1
  8  9  2  0
  8 10  1  0
 10 11  1  0
 11 12  2  0
 11 18  1  0
 12 13  1  0
 13 14  2  0
 14 15  1  0
 15 16  1  0
 15 18  2  0
 16 17  1  0
 18 19  1  0
 20 21  1  0
 20 30  1  0
 21 22  1  0
 22 23  1  0
 23 24  2  0
 23 29  1  0
 24 25  1  0
 25 26  2  0
 26 27  1  0
 26 28  1  0
 28 29  2  0
 29 30  1  0
 31 32  1  0
 32 33  1  0
 32 35  2  0
 33 34  3  0
 35 36  1  0
 36 37  1  0
 36 39  1  0
 37 38  1  0
 38 39  1  0
M  CHG  1   2   1
M  END
