
     RDKit          3D

 39 43  0  0  0  0  0  0  0  0999 V2000
   11.4770    1.3640    0.3190 C   0  0  0  0  0  0  0  0  0  0  0  0
    9.9890    1.2310    0.2240 C   0  0  0  0  0  0  0  0  0  0  0  0
    9.3000    0.3520    1.0520 C   0  0  0  0  0  0  0  0  0  0  0  0
    7.9130    0.2410    0.9510 C   0  0  0  0  0  0  0  0  0  0  0  0
    7.1570    0.9580    0.0650 C   0  0  0  0  0  0  0  0  0  0  0  0
    5.7650    0.8930   -0.1150 N   0  0  0  0  0  0  0  0  0  0  0  0
    4.9580   -0.1860    0.3710 C   0  0  0  0  0  0  0  0  0  0  0  0
    5.4990   -1.1100    0.9700 O   0  0  0  0  0  0  0  0  0  0  0  0
    3.5280   -0.0850    0.0970 C   0  0  0  0  0  0  0  0  0  0  0  0
    2.6930   -1.2720    0.3410 C   0  0  0  0  0  0  0  0  0  0  0  0
    3.1200   -2.4800    0.6140 C   0  0  0  0  0  0  0  0  0  0  0  0
    2.2180   -3.6300    0.8510 C   0  0  0  0  0  0  0  0  0  0  0  0
    0.9130   -3.5290    0.8070 C   0  0  0  0  0  0  0  0  0  0  0  0
    0.3480   -2.2000    0.5070 C   0  0  0  0  0  0  0  0  0  0  0  0
   -0.9670   -2.2070    0.4950 C   0  0  0  0  0  0  0  0  0  0  0  0
   -1.9030   -1.0830    0.2440 C   0  0  0  0  0  0  0  0  0  0  0  0
   -3.3110   -1.4660    0.3610 C   0  0  0  0  0  0  0  0  0  0  0  0
   -3.8740   -2.2330   -0.7950 C   0  0  0  0  0  0  0  0  0  0  0  0
   -5.2740   -2.5020   -0.4840 N   0  0  0  0  0  0  0  0  0  0  0  0
   -5.7680   -3.6770   -1.1530 C   0  0  2  0  0  0  0  0  0  0  0  0
   -7.1020   -4.0530   -0.5190 C   0  0  0  0  0  0  0  0  0  0  0  0
   -7.0180   -5.5410   -0.4830 C   0  0  0  0  0  0  0  0  0  0  0  0
   -5.7130   -5.9300   -0.5640 O   0  0  0  0  0  0  0  0  0  0  0  0
   -4.9150   -4.8550   -0.8190 C   0  0  0  0  0  0  0  0  0  0  0  0
   -1.6310    0.2080    0.0330 C   0  0  0  0  0  0  0  0  0  0  0  0
   -2.6850    1.1590   -0.1970 C   0  0  0  0  0  0  0  0  0  0  0  0
   -3.8670    0.6550   -0.4140 O   0  0  0  0  0  0  0  0  0  0  0  0
   -2.6030    2.5650   -0.2100 N   0  0  0  0  0  0  0  0  0  0  0  0
   -3.8090    3.2470   -0.7450 C   0  0  0  0  0  0  0  0  0  0  0  0
   -4.3810    4.1350    0.2960 C   0  0  0  0  0  0  0  0  0  0  0  0
   -3.3340    5.2220    0.5530 C   0  0  2  0  0  0  0  0  0  0  0  0
   -2.9590    5.9190   -0.7160 C   0  0  0  0  0  0  0  0  0  0  0  0
   -2.1570    4.5450    1.1710 C   0  0  0  0  0  0  0  0  0  0  0  0
   -1.5820    3.4080    0.3170 C   0  0  0  0  0  0  0  0  0  0  0  0
   -0.2470    0.7000   -0.1670 C   0  0  0  0  0  0  0  0  0  0  0  0
    0.9180    0.1600   -0.0630 N   0  0  0  0  0  0  0  0  0  0  0  0
    1.2540   -1.1330    0.2860 N   0  0  0  0  0  0  0  0  0  0  0  0
    7.8880    1.8340   -0.7510 C   0  0  0  0  0  0  0  0  0  0  0  0
    9.2510    1.9630   -0.6730 C   0  0  0  0  0  0  0  0  0  0  0  0
  1  2  1  0
  2  3  2  0
  2 39  1  0
  3  4  1  0
  4  5  2  0
  5  6  1  0
  5 38  1  0
  6  7  1  0
  7  8  2  0
  7  9  1  0
  9 10  1  0
 10 11  2  0
 10 37  1  0
 11 12  1  0
 12 13  2  0
 13 14  1  0
 14 15  2  0
 14 37  1  0
 15 16  1  0
 16 17  1  0
 16 25  2  0
 17 18  1  0
 18 19  1  0
 20 19  1  1
 20 21  1  0
 20 24  1  0
 21 22  1  0
 22 23  1  0
 23 24  1  0
 25 26  1  0
 25 35  1  0
 26 27  2  0
 26 28  1  0
 28 29  1  0
 28 34  1  0
 29 30  1  0
 30 31  1  0
 31 32  1  6
 31 33  1  0
 33 34  1  0
 35 36  2  0
 36 37  1  0
 38 39  2  0
M  CHG  1  19   1
M  END
