
     RDKit          3D

 39 43  0  0  0  0  0  0  0  0999 V2000
   11.2650   -0.1410   -0.2230 O   0  0  0  0  0  0  0  0  0  0  0  0
   10.2310    0.2720   -0.8060 C   0  0  0  0  0  0  0  0  0  0  0  0
   10.4010    1.1930   -1.8290 O   0  0  0  0  0  0  0  0  0  0  0  0
    8.8870   -0.1830   -0.4430 C   0  0  0  0  0  0  0  0  0  0  0  0
    7.8850    0.4460   -1.2570 O   0  0  0  0  0  0  0  0  0  0  0  0
    6.5120    0.0920   -1.0080 C   0  0  0  0  0  0  0  0  0  0  0  0
    5.9990   -0.9500   -1.6950 C   0  0  0  0  0  0  0  0  0  0  0  0
    6.5910   -1.8310   -2.6920 C   0  0  0  0  0  0  0  0  0  0  0  0
    5.9300   -2.8410   -3.2770 N   0  0  0  0  0  0  0  0  0  0  0  0
    6.7180   -3.4630   -4.1400 N   0  0  0  0  0  0  0  0  0  0  0  0
    7.8980   -2.8510   -4.1140 N   0  0  0  0  0  0  0  0  0  0  0  0
    7.8170   -1.8500   -3.2250 N   0  0  0  0  0  0  0  0  0  0  0  0
    4.3200   -1.0490   -1.1020 S   0  0  0  0  0  0  0  0  0  0  0  0
    4.4530    0.3480    0.0410 C   0  0  0  0  0  0  0  0  0  0  0  0
    3.3200    0.7700    0.8590 C   0  0  0  0  0  0  0  0  0  0  0  0
    3.3570    1.8000    1.7430 C   0  0  0  0  0  0  0  0  0  0  0  0
    2.2230    2.1520    2.4970 C   0  0  0  0  0  0  0  0  0  0  0  0
    1.0810    1.4310    2.3180 C   0  0  0  0  0  0  0  0  0  0  0  0
    0.9750    0.3770    1.4400 C   0  0  0  0  0  0  0  0  0  0  0  0
   -0.2300   -0.3610    1.2620 N   0  0  0  0  0  0  0  0  0  0  0  0
   -1.4490    0.0780    1.8980 C   0  0  1  0  0  0  0  0  0  0  0  0
   -1.9690    1.3920    1.3900 C   0  0  0  0  0  0  0  0  0  0  0  0
   -3.4520    1.2180    1.0660 C   0  0  0  0  0  0  0  0  0  0  0  0
   -3.5680    0.2860   -0.0170 N   0  0  0  0  0  0  0  0  0  0  0  0
   -5.2160    0.3000   -0.5450 S   0  0  2  0  0  0  0  0  0  0  0  0
   -5.4040   -0.5860   -1.7350 O   0  0  0  0  0  0  0  0  0  0  0  0
   -5.6170    1.6910   -0.9170 O   0  0  0  0  0  0  0  0  0  0  0  0
   -6.2980   -0.2240    0.7840 C   0  0  0  0  0  0  0  0  0  0  0  0
   -7.6880   -0.1860    0.2610 C   0  0  0  0  0  0  0  0  0  0  0  0
   -8.2350   -1.2940   -0.3450 C   0  0  0  0  0  0  0  0  0  0  0  0
   -9.5240   -1.2420   -0.8190 C   0  0  0  0  0  0  0  0  0  0  0  0
  -10.2610   -0.0920   -0.6880 C   0  0  0  0  0  0  0  0  0  0  0  0
   -9.7050    1.0200   -0.0780 C   0  0  0  0  0  0  0  0  0  0  0  0
   -8.4250    0.9780    0.3960 C   0  0  0  0  0  0  0  0  0  0  0  0
   -3.1530   -1.0100    0.4240 C   0  0  0  0  0  0  0  0  0  0  0  0
   -2.5170   -1.0090    1.7810 C   0  0  0  0  0  0  0  0  0  0  0  0
    2.1150    0.0720    0.7250 C   0  0  0  0  0  0  0  0  0  0  0  0
    5.7280    0.7590   -0.1210 C   0  0  0  0  0  0  0  0  0  0  0  0
    6.4280    2.2860    0.9000 Br  0  0  0  0  0  0  0  0  0  0  0  0
  1  2  2  0
  2  3  1  0
  2  4  1  0
  4  5  1  0
  5  6  1  0
  6  7  2  0
  6 38  1  0
  7  8  1  0
  7 13  1  0
  8  9  1  0
  8 12  2  0
  9 10  2  0
 10 11  1  0
 11 12  1  0
 13 14  1  0
 14 15  1  0
 14 38  2  0
 15 16  2  0
 15 37  1  0
 16 17  1  0
 17 18  2  0
 18 19  1  0
 19 20  1  0
 19 37  2  0
 21 20  1  6
 21 22  1  0
 21 36  1  0
 22 23  1  0
 23 24  1  0
 24 25  1  0
 24 35  1  0
 25 26  2  0
 25 27  2  0
 25 28  1  1
 28 29  1  0
 29 30  2  0
 29 34  1  0
 30 31  1  0
 31 32  2  0
 32 33  1  0
 33 34  2  0
 35 36  1  0
 38 39  1  0
M  END
