
     RDKit          3D

 39 43  0  0  0  0  0  0  0  0999 V2000
   -7.2840    2.0200    0.9730 C   0  0  0  0  0  0  0  0  0  0  0  0
   -5.9880    1.8230    1.0830 C   0  0  0  0  0  0  0  0  0  0  0  0
   -5.0650    2.6240    0.3120 C   0  0  0  0  0  0  0  0  0  0  0  0
   -5.4640    3.9690    0.1600 C   0  0  0  0  0  0  0  0  0  0  0  0
   -4.6540    4.8480   -0.5050 C   0  0  0  0  0  0  0  0  0  0  0  0
   -3.4880    4.4000   -1.0010 N   0  0  0  0  0  0  0  0  0  0  0  0
   -3.0930    3.1250   -0.8680 C   0  0  0  0  0  0  0  0  0  0  0  0
   -3.8860    2.1870   -0.1980 C   0  0  0  0  0  0  0  0  0  0  0  0
   -3.3970    0.8400   -0.0760 C   0  0  0  0  0  0  0  0  0  0  0  0
   -4.1720   -0.2800    0.0320 C   0  0  0  0  0  0  0  0  0  0  0  0
   -3.6670   -1.5590    0.0850 C   0  0  0  0  0  0  0  0  0  0  0  0
   -4.5610   -2.6980    0.2030 C   0  0  0  0  0  0  0  0  0  0  0  0
   -4.2320   -3.9860    0.2640 C   0  0  0  0  0  0  0  0  0  0  0  0
   -5.4720   -4.7680    0.3790 C   0  0  0  0  0  0  0  0  0  0  0  0
   -6.5530   -3.7750    0.3760 C   0  0  0  0  0  0  0  0  0  0  0  0
   -6.0130   -2.5910    0.2740 C   0  0  0  0  0  0  0  0  0  0  0  0
   -2.3000   -1.7310    0.0230 C   0  0  0  0  0  0  0  0  0  0  0  0
   -1.4930   -0.6140   -0.0880 C   0  0  0  0  0  0  0  0  0  0  0  0
   -0.0760   -0.8160   -0.1510 N   0  0  0  0  0  0  0  0  0  0  0  0
    0.7690    0.2980   -0.2640 C   0  0  0  0  0  0  0  0  0  0  0  0
    0.1680    1.4350   -0.2970 O   0  0  0  0  0  0  0  0  0  0  0  0
    2.2020    0.2570   -0.3390 C   0  0  0  0  0  0  0  0  0  0  0  0
    3.0200    1.4000   -0.1410 C   0  0  0  0  0  0  0  0  0  0  0  0
    2.5050    2.7560    0.1960 C   0  0  0  0  0  0  0  0  0  0  0  0
    4.3390    1.0680   -0.3020 C   0  0  0  0  0  0  0  0  0  0  0  0
    5.5260    1.8790   -0.2050 C   0  0  0  0  0  0  0  0  0  0  0  0
    6.6690    1.3460   -0.3960 O   0  0  0  0  0  0  0  0  0  0  0  0
    5.5330    3.2340    0.0870 O   0  0  0  0  0  0  0  0  0  0  0  0
    6.7510    3.9620    0.1640 C   0  0  0  0  0  0  0  0  0  0  0  0
    6.4280    5.4070    0.4970 C   0  0  0  0  0  0  0  0  0  0  0  0
    4.3290   -0.2390   -0.5900 N   0  0  0  0  0  0  0  0  0  0  0  0
    3.0710   -0.7110   -0.6110 N   0  0  0  0  0  0  0  0  0  0  0  0
    2.8060   -2.0950   -0.9250 C   0  0  2  0  0  0  0  0  0  0  0  0
    2.7850   -2.8870    0.3610 C   0  0  0  0  0  0  0  0  0  0  0  0
    4.2040   -3.2650    0.7250 C   0  0  0  0  0  0  0  0  0  0  0  0
    4.5590   -4.4890   -0.1300 C   0  0  0  0  0  0  0  0  0  0  0  0
    3.9880   -4.1630   -1.5150 C   0  0  0  0  0  0  0  0  0  0  0  0
    3.9960   -2.6540   -1.7280 C   0  0  0  0  0  0  0  0  0  0  0  0
   -2.0420    0.6020   -0.1330 N   0  0  0  0  0  0  0  0  0  0  0  0
  1  2  2  0
  2  3  1  0
  3  4  2  0
  3  8  1  0
  4  5  1  0
  5  6  2  0
  6  7  1  0
  7  8  2  0
  8  9  1  0
  9 10  2  0
  9 39  1  0
 10 11  1  0
 11 12  1  0
 11 17  2  0
 12 13  2  0
 12 16  1  0
 13 14  1  0
 14 15  1  0
 15 16  2  0
 17 18  1  0
 18 19  1  0
 18 39  2  0
 19 20  1  0
 20 21  2  0
 20 22  1  0
 22 23  2  0
 22 32  1  0
 23 24  1  0
 23 25  1  0
 25 26  1  0
 25 31  2  0
 26 27  2  0
 26 28  1  0
 28 29  1  0
 29 30  1  0
 31 32  1  0
 33 32  1  1
 33 34  1  0
 33 38  1  0
 34 35  1  0
 35 36  1  0
 36 37  1  0
 37 38  1  0
M  CHG  1   6   1
M  END
