
     RDKit          3D

 39 43  0  0  0  0  0  0  0  0999 V2000
   -6.6030    3.2220   -1.4360 C   0  0  0  0  0  0  0  0  0  0  0  0
   -6.6970    1.9500   -0.7150 C   0  0  0  0  0  0  0  0  0  0  0  0
   -7.9230    1.5420   -0.2650 C   0  0  0  0  0  0  0  0  0  0  0  0
   -8.1060    0.4050    0.4660 C   0  0  0  0  0  0  0  0  0  0  0  0
   -6.9760   -0.3490    0.7530 C   0  0  0  0  0  0  0  0  0  0  0  0
   -7.1440   -1.4550    1.5470 C   0  0  0  0  0  0  0  0  0  0  0  0
   -8.5060   -1.8360    1.9910 C   0  0  0  0  0  0  0  0  0  0  0  0
   -6.0830   -2.1990    1.9220 C   0  0  0  0  0  0  0  0  0  0  0  0
   -4.8390   -1.8350    1.4990 C   0  0  0  0  0  0  0  0  0  0  0  0
   -4.5950   -0.7090    0.6800 C   0  0  0  0  0  0  0  0  0  0  0  0
   -3.2960   -0.4680    0.2390 N   0  0  0  0  0  0  0  0  0  0  0  0
   -2.2100   -0.8030    1.1540 C   0  0  0  0  0  0  0  0  0  0  0  0
   -2.3660   -1.2580    2.3000 O   0  0  0  0  0  0  0  0  0  0  0  0
   -0.8480   -0.5950    0.7090 N   0  0  0  0  0  0  0  0  0  0  0  0
   -0.5730   -0.1230   -0.6110 C   0  0  0  0  0  0  0  0  0  0  0  0
    0.9060   -0.2670   -0.9130 C   0  0  0  0  0  0  0  0  0  0  0  0
    1.4300   -1.5820   -0.4250 C   0  0  1  0  0  0  0  0  0  0  0  0
    2.7620   -1.9020   -0.8740 N   0  0  0  0  0  0  0  0  0  0  0  0
    3.4090   -0.9330   -1.6830 C   0  0  0  0  0  0  0  0  0  0  0  0
    4.7600   -0.5990   -1.1160 C   0  0  0  0  0  0  0  0  0  0  0  0
    5.0290    0.6620   -0.6430 C   0  0  0  0  0  0  0  0  0  0  0  0
    6.2860    0.9640   -0.1150 C   0  0  0  0  0  0  0  0  0  0  0  0
    7.3020    0.0420   -0.0380 C   0  0  0  0  0  0  0  0  0  0  0  0
    8.5690    0.3590    0.4980 N   0  0  0  0  0  0  0  0  0  0  0  0
    9.0500    1.6320    0.9130 C   0  0  0  0  0  0  0  0  0  0  0  0
    8.3620    2.5950    1.3170 O   0  0  0  0  0  0  0  0  0  0  0  0
   10.5350    1.6570    0.7930 C   0  0  0  0  0  0  0  0  0  0  0  0
   10.9230    0.2240    0.8850 C   0  0  0  0  0  0  0  0  0  0  0  0
    9.6710   -0.5280    0.7520 C   0  0  0  0  0  0  0  0  0  0  0  0
    9.6230   -1.7980    0.8570 O   0  0  0  0  0  0  0  0  0  0  0  0
    7.0070   -1.2220   -0.5200 C   0  0  0  0  0  0  0  0  0  0  0  0
    5.7530   -1.5490   -1.0550 C   0  0  0  0  0  0  0  0  0  0  0  0
    1.2860   -1.7850    1.0640 C   0  0  0  0  0  0  0  0  0  0  0  0
    0.2450   -0.8460    1.5940 C   0  0  0  0  0  0  0  0  0  0  0  0
   -5.7000    0.0210    0.3190 C   0  0  0  0  0  0  0  0  0  0  0  0
   -5.5760    1.1680   -0.4160 C   0  0  0  0  0  0  0  0  0  0  0  0
   -4.3670    1.6640   -0.9770 N   0  0  0  0  0  0  0  0  0  0  0  0
   -4.0590    1.2570   -2.3550 C   0  0  0  0  0  0  0  0  0  0  0  0
   -3.5380    2.5500   -0.2290 C   0  0  0  0  0  0  0  0  0  0  0  0
  1  2  1  0
  2  3  2  0
  2 36  1  0
  3  4  1  0
  4  5  2  0
  5  6  1  0
  5 35  1  0
  6  7  1  0
  6  8  2  0
  8  9  1  0
  9 10  2  0
 10 11  1  0
 10 35  1  0
 11 12  1  0
 12 13  2  0
 12 14  1  0
 14 15  1  0
 14 34  1  0
 15 16  1  0
 16 17  1  0
 17 18  1  1
 17 33  1  0
 18 19  1  0
 19 20  1  0
 20 21  2  0
 20 32  1  0
 21 22  1  0
 22 23  2  0
 23 24  1  0
 23 31  1  0
 24 25  1  0
 24 29  1  0
 25 26  2  0
 25 27  1  0
 27 28  1  0
 28 29  1  0
 29 30  2  0
 31 32  2  0
 33 34  1  0
 35 36  2  0
 36 37  1  0
 37 38  1  0
 37 39  1  0
M  CHG  1  18   1
M  END
