
     RDKit          3D

 39 43  0  0  0  0  0  0  0  0999 V2000
   -5.3570   -3.7380    3.2170 C   0  0  0  0  0  0  0  0  0  0  0  0
   -4.7420   -2.8070    2.2630 N   0  0  0  0  0  0  0  0  0  0  0  0
   -5.7720   -2.2050    1.4250 C   0  0  0  0  0  0  0  0  0  0  0  0
   -5.1460   -1.2190    0.5320 C   0  0  0  0  0  0  0  0  0  0  0  0
   -5.9470   -0.5290   -0.3870 C   0  0  0  0  0  0  0  0  0  0  0  0
   -5.4000    0.4170   -1.2250 C   0  0  0  0  0  0  0  0  0  0  0  0
   -4.0280    0.6890   -1.1560 C   0  0  0  0  0  0  0  0  0  0  0  0
   -3.4480    1.7240   -2.0720 C   0  0  0  0  0  0  0  0  0  0  0  0
   -3.2930    0.0140   -0.2700 N   0  0  0  0  0  0  0  0  0  0  0  0
   -1.8880    0.2800   -0.1860 C   0  0  0  0  0  0  0  0  0  0  0  0
   -1.4440    0.7950    1.0040 C   0  0  0  0  0  0  0  0  0  0  0  0
   -0.0830    1.0570    1.1630 C   0  0  0  0  0  0  0  0  0  0  0  0
    0.8150    0.8100    0.1510 C   0  0  0  0  0  0  0  0  0  0  0  0
    2.2410    1.0840    0.3540 N   0  0  0  0  0  0  0  0  0  0  0  0
    2.5600    2.3810    0.8540 C   0  0  0  0  0  0  0  0  0  0  0  0
    2.8290    3.4250   -0.1890 C   0  0  0  0  0  0  0  0  0  0  0  0
    3.1390    4.6550    0.3400 O   0  0  0  0  0  0  0  0  0  0  0  0
    2.1910    5.2360    1.1370 C   0  0  0  0  0  0  0  0  0  0  0  0
    3.0790    0.0210    0.0510 C   0  0  0  0  0  0  0  0  0  0  0  0
    2.4410   -1.0640   -0.3220 O   0  0  0  0  0  0  0  0  0  0  0  0
    4.5180   -0.1140    0.0720 C   0  0  0  0  0  0  0  0  0  0  0  0
    5.4220    0.8880    0.3310 C   0  0  0  0  0  0  0  0  0  0  0  0
    6.8060    0.6750    0.3760 C   0  0  0  0  0  0  0  0  0  0  0  0
    7.3400   -0.5710    0.1590 C   0  0  0  0  0  0  0  0  0  0  0  0
    8.6320   -1.0720    0.1440 C   0  0  0  0  0  0  0  0  0  0  0  0
    9.8500   -0.2560    0.3880 C   0  0  0  0  0  0  0  0  0  0  0  0
    8.4870   -2.4140   -0.1340 C   0  0  0  0  0  0  0  0  0  0  0  0
    7.2010   -2.6960   -0.2760 N   0  0  0  0  0  0  0  0  0  0  0  0
    6.6390   -4.0000   -0.5710 C   0  0  0  0  0  0  0  0  0  0  0  0
    6.4500   -1.5810   -0.1020 C   0  0  0  0  0  0  0  0  0  0  0  0
    5.0980   -1.3780   -0.1470 C   0  0  0  0  0  0  0  0  0  0  0  0
    0.3700    0.2990   -1.0320 C   0  0  0  0  0  0  0  0  0  0  0  0
   -0.9930    0.0330   -1.1990 C   0  0  0  0  0  0  0  0  0  0  0  0
   -3.8220   -0.9300    0.5710 C   0  0  0  0  0  0  0  0  0  0  0  0
   -3.0200   -1.5080    1.3770 O   0  0  0  0  0  0  0  0  0  0  0  0
   -6.1960    1.1800   -2.2210 C   0  0  0  0  0  0  0  0  0  0  0  0
   -7.6590    0.9100   -1.9460 C   0  0  0  0  0  0  0  0  0  0  0  0
   -7.8200   -0.5820   -1.7540 C   0  0  0  0  0  0  0  0  0  0  0  0
   -7.3340   -0.8690   -0.3940 N   0  0  0  0  0  0  0  0  0  0  0  0
  1  2  1  0
  2  3  1  0
  3  4  1  0
  4  5  2  0
  4 34  1  0
  5  6  1  0
  5 39  1  0
  6  7  2  0
  6 36  1  0
  7  8  1  0
  7  9  1  0
  9 10  1  0
  9 34  1  0
 10 11  2  0
 10 33  1  0
 11 12  1  0
 12 13  2  0
 13 14  1  0
 13 32  1  0
 14 15  1  0
 14 19  1  0
 15 16  1  0
 16 17  1  0
 17 18  1  0
 19 20  2  0
 19 21  1  0
 21 22  2  0
 21 31  1  0
 22 23  1  0
 23 24  2  0
 24 25  1  0
 24 30  1  0
 25 26  1  0
 25 27  2  0
 27 28  1  0
 28 29  1  0
 28 30  1  0
 30 31  2  0
 32 33  2  0
 34 35  2  0
 36 37  1  0
 37 38  1  0
 38 39  1  0
M  CHG  1  39   1
M  END
