
     RDKit          3D

 39 43  0  0  0  0  0  0  0  0999 V2000
    0.0690   -0.8120    2.2780 C   0  0  0  0  0  0  0  0  0  0  0  0
    0.4110    0.2330    1.2000 C   0  0  0  0  0  0  0  0  0  0  0  0
    0.3890   -0.3770   -0.1400 C   0  0  0  0  0  0  0  0  0  0  0  0
    1.3680   -0.5170   -0.9980 C   0  0  0  0  0  0  0  0  0  0  0  0
    2.7980   -0.1680   -1.0200 C   0  0  0  0  0  0  0  0  0  0  0  0
    3.3470    0.5220    0.1570 C   0  0  0  0  0  0  0  0  0  0  0  0
    4.8100    0.7790   -0.0320 N   0  0  0  0  0  0  0  0  0  0  0  0
    5.4680   -0.4490    0.3260 C   0  0  0  0  0  0  0  0  0  0  0  0
    6.9620   -0.3330    0.3530 C   0  0  1  0  0  0  0  0  0  0  0  0
    7.4940   -0.1360   -1.0560 C   0  0  0  0  0  0  0  0  0  0  0  0
    8.9940    0.0480   -0.9280 C   0  0  0  0  0  0  0  0  0  0  0  0
    9.2270    1.3480   -0.2160 C   0  0  0  0  0  0  0  0  0  0  0  0
    8.0370    1.6970    0.6510 C   0  0  0  0  0  0  0  0  0  0  0  0
    7.4500    0.5910    1.2390 O   0  0  0  0  0  0  0  0  0  0  0  0
    0.7170   -1.2050   -2.1670 C   0  0  0  0  0  0  0  0  0  0  0  0
    1.3050   -1.5300   -3.2170 O   0  0  0  0  0  0  0  0  0  0  0  0
   -0.6390   -1.4130   -1.8710 N   0  0  0  0  0  0  0  0  0  0  0  0
   -0.8750   -0.9470   -0.7030 C   0  0  0  0  0  0  0  0  0  0  0  0
   -2.1320   -0.9710   -0.0540 N   0  0  0  0  0  0  0  0  0  0  0  0
   -2.8490    0.2230    0.0480 N   0  0  0  0  0  0  0  0  0  0  0  0
   -3.8640    0.5020   -0.6790 C   0  0  0  0  0  0  0  0  0  0  0  0
   -4.4500   -0.3340   -1.7150 C   0  0  0  0  0  0  0  0  0  0  0  0
   -4.0900   -1.4640   -2.0950 O   0  0  0  0  0  0  0  0  0  0  0  0
   -5.5510    0.3770   -2.2530 N   0  0  0  0  0  0  0  0  0  0  0  0
   -5.6580    1.6360   -1.5690 C   0  0  0  0  0  0  0  0  0  0  0  0
   -6.5720    2.6550   -1.7490 C   0  0  0  0  0  0  0  0  0  0  0  0
   -7.6550    2.5420   -2.7790 C   0  0  0  0  0  0  0  0  0  0  0  0
   -6.4590    3.7760   -0.9570 C   0  0  0  0  0  0  0  0  0  0  0  0
   -5.4640    3.8870   -0.0060 C   0  0  0  0  0  0  0  0  0  0  0  0
   -5.3930    5.1320    0.8280 C   0  0  0  0  0  0  0  0  0  0  0  0
   -4.5730    2.8590    0.1490 C   0  0  0  0  0  0  0  0  0  0  0  0
   -4.6540    1.7190   -0.6270 C   0  0  0  0  0  0  0  0  0  0  0  0
   -2.6840   -2.1760    0.4950 C   0  0  0  0  0  0  0  0  0  0  0  0
   -3.9120   -2.1420    1.1160 C   0  0  0  0  0  0  0  0  0  0  0  0
   -4.4690   -3.2840    1.6540 C   0  0  0  0  0  0  0  0  0  0  0  0
   -3.8110   -4.4920    1.5840 C   0  0  0  0  0  0  0  0  0  0  0  0
   -4.3710   -5.7490    2.1500 C   0  0  0  0  0  0  0  0  0  0  0  0
   -2.5760   -4.5120    0.9570 C   0  0  0  0  0  0  0  0  0  0  0  0
   -2.0300   -3.3700    0.4240 C   0  0  0  0  0  0  0  0  0  0  0  0
  1  2  1  0
  2  3  1  0
  3  4  2  0
  3 18  1  0
  4  5  1  0
  4 15  1  0
  5  6  1  0
  6  7  1  0
  7  8  1  0
  9  8  1  6
  9 10  1  0
  9 14  1  0
 10 11  1  0
 11 12  1  0
 12 13  1  0
 13 14  1  0
 15 16  2  0
 15 17  1  0
 17 18  2  0
 18 19  1  0
 19 20  1  0
 19 33  1  0
 20 21  2  3
 21 22  1  0
 21 32  1  0
 22 23  2  0
 22 24  1  0
 24 25  1  0
 25 26  2  0
 25 32  1  0
 26 27  1  0
 26 28  1  0
 28 29  2  0
 29 30  1  0
 29 31  1  0
 31 32  2  0
 33 34  2  0
 33 39  1  0
 34 35  1  0
 35 36  2  0
 36 37  1  0
 36 38  1  0
 38 39  2  0
M  CHG  1   7   1
M  END
