
     RDKit          3D

 20 22  0  0  0  0  0  0  0  0999 V2000
   -5.5290   -2.0020    0.1000 O   0  0  0  0  0  0  0  0  0  0  0  0
   -4.6450   -1.1030    0.3110 C   0  0  0  0  0  0  0  0  0  0  0  0
   -3.2150   -1.3130    0.5690 C   0  0  0  0  0  0  0  0  0  0  0  0
   -2.4620   -0.2820   -0.0950 N   0  0  0  0  0  0  0  0  0  0  0  0
   -1.1520   -0.3170   -0.6640 C   0  0  0  0  0  0  0  0  0  0  0  0
   -1.0190   -0.6640   -1.9540 C   0  0  0  0  0  0  0  0  0  0  0  0
    0.6980   -0.5890   -2.2700 S   0  0  0  0  0  0  0  0  0  0  0  0
    1.1460   -0.0820   -0.6040 C   0  0  0  0  0  0  0  0  0  0  0  0
    2.5630    0.1560   -0.2340 C   0  0  0  0  0  0  0  0  0  0  0  0
    2.8740    0.5340    1.0120 C   0  0  0  0  0  0  0  0  0  0  0  0
    4.2150    0.7540    1.3420 C   0  0  0  0  0  0  0  0  0  0  0  0
    5.2330    0.5950    0.4280 C   0  0  0  0  0  0  0  0  0  0  0  0
    4.8560    0.2060   -0.8350 C   0  0  0  0  0  0  0  0  0  0  0  0
    3.5540   -0.0210   -1.2070 C   0  0  0  0  0  0  0  0  0  0  0  0
   -0.0170   -0.0160    0.0250 C   0  0  0  0  0  0  0  0  0  0  0  0
   -0.1160    0.4540    1.7420 Cl  0  0  0  0  0  0  0  0  0  0  0  0
   -3.4940    1.0940   -0.0800 S   0  0  2  0  0  0  0  0  0  0  0  0
   -3.5780    1.7740   -1.3960 O   0  0  0  0  0  0  0  0  0  0  0  0
   -3.0870    2.0030    1.0330 O   0  0  0  0  0  0  0  0  0  0  0  0
   -4.9990    0.2860    0.3130 N   0  0  0  0  0  0  0  0  0  0  0  0
  1  2  2  0
  2  3  1  0
  2 20  1  0
  3  4  1  0
  4  5  1  0
  4 17  1  0
  5  6  2  0
  5 15  1  0
  6  7  1  0
  7  8  1  0
  8  9  1  0
  8 15  2  0
  9 10  2  0
  9 14  1  0
 10 11  1  0
 11 12  2  0
 12 13  1  0
 13 14  2  0
 15 16  1  0
 17 18  2  0
 17 19  2  0
 17 20  1  1
M  END
