
     RDKit          3D

 19 20  0  0  0  0  0  0  0  0999 V2000
    0.0120   -0.4280    1.6900 C   0  0  0  0  0  0  0  0  0  0  0  0
    0.8340   -0.0330    0.5270 N   0  0  0  0  0  0  0  0  0  0  0  0
    2.0550   -0.7160    0.3950 C   0  0  0  0  0  0  0  0  0  0  0  0
    2.9760   -0.4630   -0.5450 C   0  0  0  0  0  0  0  0  0  0  0  0
    4.1590   -1.2490   -0.5400 C   0  0  0  0  0  0  0  0  0  0  0  0
    5.2230   -1.3020   -1.2580 C   0  0  0  0  0  0  0  0  0  0  0  0
    5.8120   -0.6840   -2.3700 C   0  0  0  0  0  0  0  0  0  0  0  0
    5.3810    0.2200   -3.0590 O   0  0  0  0  0  0  0  0  0  0  0  0
    2.6150    0.8260   -1.6550 S   0  0  2  0  0  0  0  0  0  0  0  0
    2.4940    0.2620   -3.0360 O   0  0  0  0  0  0  0  0  0  0  0  0
    3.6610    1.9160   -1.5390 O   0  0  0  0  0  0  0  0  0  0  0  0
    1.0720    1.4750   -1.2760 N   0  0  0  0  0  0  0  0  0  0  0  0
    0.3720    1.0020   -0.2700 C   0  0  0  0  0  0  0  0  0  0  0  0
   -1.2170    1.7350   -0.1020 S   0  0  0  0  0  0  0  0  0  0  0  0
   -2.5260    0.8630    0.6450 C   0  0  2  0  0  0  0  0  0  0  0  0
   -3.0490   -0.3210   -0.1910 C   0  0  0  0  0  0  0  0  0  0  0  0
   -4.3540   -0.6040    0.5440 C   0  0  0  0  0  0  0  0  0  0  0  0
   -4.8170    0.7380    1.1100 C   0  0  0  0  0  0  0  0  0  0  0  0
   -3.8130    1.7400    0.5310 C   0  0  0  0  0  0  0  0  0  0  0  0
  1  2  1  0
  2  3  1  0
  2 13  1  0
  3  4  2  0
  4  5  1  0
  4  9  1  0
  5  6  2  3
  6  7  1  0
  7  8  2  0
  9 10  2  0
  9 11  2  0
  9 12  1  1
 12 13  2  0
 13 14  1  0
 15 14  1  6
 15 16  1  0
 15 19  1  0
 16 17  1  0
 17 18  1  0
 18 19  1  0
M  END
