
     RDKit          3D

 20 22  0  0  0  0  0  0  0  0999 V2000
   -1.7060   -0.4300   -1.6490 C   0  0  0  0  0  0  0  0  0  0  0  0
   -2.1740    0.3390   -0.4060 C   0  0  0  0  0  0  0  0  0  0  0  0
   -1.2500    0.6230    0.5340 C   0  0  0  0  0  0  0  0  0  0  0  0
    0.1780    0.4110    0.7600 C   0  0  0  0  0  0  0  0  0  0  0  0
    0.6860    0.8670    1.8440 O   0  0  0  0  0  0  0  0  0  0  0  0
    1.0420   -0.2460   -0.0980 N   0  0  0  0  0  0  0  0  0  0  0  0
    2.4250   -0.4880    0.0520 C   0  0  0  0  0  0  0  0  0  0  0  0
    3.1220   -1.1460   -0.8830 C   0  0  0  0  0  0  0  0  0  0  0  0
    2.2500   -1.6930   -2.2970 Cl  0  0  0  0  0  0  0  0  0  0  0  0
    4.5570   -1.4440   -0.8150 C   0  0  0  0  0  0  0  0  0  0  0  0
    5.1730   -0.9730    0.3450 O   0  0  0  0  0  0  0  0  0  0  0  0
    4.4960   -0.2890    1.3360 C   0  0  0  0  0  0  0  0  0  0  0  0
    3.1650   -0.0490    1.2050 C   0  0  0  0  0  0  0  0  0  0  0  0
   -2.2150    1.5140    1.7880 S   0  0  0  0  0  0  0  0  0  0  0  0
   -3.8100    1.3840    0.8450 C   0  0  0  0  0  0  0  0  0  0  0  0
   -4.9490    1.8510    1.2240 N   0  0  0  0  0  0  0  0  0  0  0  0
   -5.9950    1.3970   -0.0900 S   0  0  0  0  0  0  0  0  0  0  0  0
   -4.6650    0.5650   -1.0730 C   0  0  0  0  0  0  0  0  0  0  0  0
   -4.8330    0.0470   -2.1230 O   0  0  0  0  0  0  0  0  0  0  0  0
   -3.4910    0.7690   -0.1740 C   0  0  0  0  0  0  0  0  0  0  0  0
  1  2  1  0
  2  3  2  0
  2 20  1  0
  3  4  1  0
  3 14  1  0
  4  5  2  0
  4  6  1  0
  6  7  1  0
  7  8  2  0
  7 13  1  0
  8  9  1  0
  8 10  1  0
 10 11  1  0
 11 12  1  0
 12 13  2  0
 14 15  1  0
 15 16  1  0
 15 20  2  0
 16 17  1  0
 17 18  1  0
 18 19  2  0
 18 20  1  0
M  END
