
     RDKit          3D

 20 21  0  0  0  0  0  0  0  0999 V2000
   -0.8250    1.7660    0.2520 O   0  0  0  0  0  0  0  0  0  0  0  0
   -0.0680    0.8190    0.1120 C   0  0  0  0  0  0  0  0  0  0  0  0
    1.4010    1.1080    0.2090 C   0  0  0  0  0  0  0  0  0  0  0  0
    2.3000   -0.4140   -0.0260 S   0  0  0  0  0  0  0  0  0  0  0  0
    4.0490   -0.2270    0.0630 C   0  0  0  0  0  0  0  0  0  0  0  0
    4.6050    0.9460    0.2840 C   0  0  0  0  0  0  0  0  0  0  0  0
    6.0630    1.1680    0.3690 C   0  0  0  0  0  0  0  0  0  0  0  0
    6.7970    0.0060    0.1910 O   0  0  0  0  0  0  0  0  0  0  0  0
    6.2610   -1.2180   -0.0380 C   0  0  0  0  0  0  0  0  0  0  0  0
    4.9360   -1.3670   -0.1060 C   0  0  0  0  0  0  0  0  0  0  0  0
    4.3090   -2.9600   -0.4030 Cl  0  0  0  0  0  0  0  0  0  0  0  0
   -0.5310   -0.4820   -0.1280 N   0  0  0  0  0  0  0  0  0  0  0  0
   -1.8290   -0.9660   -0.2540 C   0  0  0  0  0  0  0  0  0  0  0  0
   -1.8360   -2.6600   -0.5480 S   0  0  0  0  0  0  0  0  0  0  0  0
   -3.0710   -0.4100   -0.1990 N   0  0  0  0  0  0  0  0  0  0  0  0
   -4.2490   -1.3190   -0.3930 C   0  0  0  0  0  0  0  0  0  0  0  0
   -5.0940   -1.0880    0.8430 C   0  0  0  0  0  0  0  0  0  0  0  0
   -5.6550    0.1710    0.7790 O   0  0  0  0  0  0  0  0  0  0  0  0
   -5.0250    1.0360   -0.0670 C   0  0  0  0  0  0  0  0  0  0  0  0
   -3.4750    0.9330    0.0200 C   0  0  0  0  0  0  0  0  0  0  0  0
  1  2  2  0
  2  3  1  0
  2 12  1  0
  3  4  1  0
  4  5  1  0
  5  6  2  0
  5 10  1  0
  6  7  1  0
  7  8  1  0
  8  9  1  0
  9 10  2  0
 10 11  1  0
 12 13  1  0
 13 14  2  0
 13 15  1  0
 15 16  1  0
 15 20  1  0
 16 17  1  0
 17 18  1  0
 18 19  1  0
 19 20  1  0
M  END
