
     RDKit          3D

 19 21  0  0  0  0  0  0  0  0999 V2000
   -6.6160    0.9730   -0.1130 C   0  0  0  0  0  0  0  0  0  0  0  0
   -5.2180    0.4430   -0.1230 C   0  0  0  0  0  0  0  0  0  0  0  0
   -4.9180   -0.8960   -0.2460 C   0  0  0  0  0  0  0  0  0  0  0  0
   -3.5430   -0.9870   -0.2140 C   0  0  0  0  0  0  0  0  0  0  0  0
   -3.0750    0.3220   -0.0710 C   0  0  0  0  0  0  0  0  0  0  0  0
   -1.6830    0.7450    0.0120 C   0  0  0  0  0  0  0  0  0  0  0  0
   -0.7080   -0.1590   -0.0480 C   0  0  0  0  0  0  0  0  0  0  0  0
    0.6900    0.2200    0.0310 C   0  0  0  0  0  0  0  0  0  0  0  0
    1.0120    1.4280    0.1600 O   0  0  0  0  0  0  0  0  0  0  0  0
    1.7080   -0.7540   -0.0340 N   0  0  0  0  0  0  0  0  0  0  0  0
    3.0880   -0.4280    0.0390 C   0  0  0  0  0  0  0  0  0  0  0  0
    4.1190   -0.9030    0.0230 N   0  0  0  0  0  0  0  0  0  0  0  0
    5.3350   -0.3380    0.1160 C   0  0  0  0  0  0  0  0  0  0  0  0
    5.2430    1.0200    0.2500 C   0  0  0  0  0  0  0  0  0  0  0  0
    3.6090    1.4010    0.2370 S   0  0  0  0  0  0  0  0  0  0  0  0
    7.0700    1.5930    0.4020 S   0  0  0  0  0  0  0  0  0  0  0  0
    7.5540   -0.0320    0.8930 O   0  0  0  0  0  0  0  0  0  0  0  0
    6.7330   -0.7680    0.0810 C   0  0  0  0  0  0  0  0  0  0  0  0
   -4.1170    1.1320   -0.0230 O   0  0  0  0  0  0  0  0  0  0  0  0
  1  2  1  0
  2  3  2  0
  2 19  1  0
  3  4  1  0
  4  5  2  0
  5  6  1  0
  5 19  1  0
  6  7  2  3
  7  8  1  0
  8  9  2  0
  8 10  1  0
 10 11  1  0
 11 12  2  0
 11 15  1  0
 12 13  1  0
 13 14  2  0
 13 18  1  0
 14 15  1  0
 14 16  1  0
 16 17  1  0
 17 18  1  0
M  END
