
     RDKit          3D

 20 21  0  0  0  0  0  0  0  0999 V2000
    5.1050    1.2810   -0.3180 C   0  0  0  0  0  0  0  0  0  0  0  0
    5.0240    0.0880    0.5490 C   0  0  0  0  0  0  0  0  0  0  0  0
    5.9920   -0.1810    1.2850 O   0  0  0  0  0  0  0  0  0  0  0  0
    3.8200   -0.8010    0.5690 C   0  0  0  0  0  0  0  0  0  0  0  0
    2.8220   -0.5790   -0.1480 N   0  0  0  0  0  0  0  0  0  0  0  0
    1.7250   -1.4210   -0.1070 C   0  0  0  0  0  0  0  0  0  0  0  0
    0.5830   -1.2840   -0.6420 N   0  0  0  0  0  0  0  0  0  0  0  0
    0.1970   -0.1720   -1.4310 C   0  0  0  0  0  0  0  0  0  0  0  0
    1.0630    0.2670   -2.2440 O   0  0  0  0  0  0  0  0  0  0  0  0
   -1.1460    0.4610   -1.3280 C   0  0  0  0  0  0  0  0  0  0  0  0
   -1.9060   -0.2200   -0.3540 O   0  0  0  0  0  0  0  0  0  0  0  0
   -3.2270    0.1700   -0.0480 C   0  0  0  0  0  0  0  0  0  0  0  0
   -4.0820   -0.8080    0.1310 C   0  0  0  0  0  0  0  0  0  0  0  0
   -5.5210   -0.7200    0.4600 C   0  0  0  0  0  0  0  0  0  0  0  0
   -6.1310    0.9600    0.6240 S   0  0  0  0  0  0  0  0  0  0  0  0
   -4.7500    2.0430    0.3280 C   0  0  0  0  0  0  0  0  0  0  0  0
   -5.0170    3.7830    0.4160 Cl  0  0  0  0  0  0  0  0  0  0  0  0
   -3.5600    1.5810    0.0500 C   0  0  0  0  0  0  0  0  0  0  0  0
    2.2670   -2.7930    0.8940 S   0  0  0  0  0  0  0  0  0  0  0  0
    3.7890   -1.9810    1.4580 C   0  0  0  0  0  0  0  0  0  0  0  0
  1  2  1  0
  2  3  2  0
  2  4  1  0
  4  5  2  0
  4 20  1  0
  5  6  1  0
  6  7  2  3
  6 19  1  0
  7  8  1  0
  8  9  2  0
  8 10  1  0
 10 11  1  0
 11 12  1  0
 12 13  2  0
 12 18  1  0
 13 14  1  0
 14 15  1  0
 15 16  1  0
 16 17  1  0
 16 18  2  0
 19 20  1  0
M  END
