
     RDKit          3D

 20 21  0  0  0  0  0  0  0  0999 V2000
   -0.5590   -1.5130    0.4400 O   0  0  0  0  0  0  0  0  0  0  0  0
   -0.4950   -0.5190   -0.2730 C   0  0  0  0  0  0  0  0  0  0  0  0
    0.8440   -0.0020   -0.5500 N   0  0  0  0  0  0  0  0  0  0  0  0
    2.2170   -0.8530    0.1490 S   0  0  0  0  0  0  0  0  0  0  0  0
    3.6690    0.1440    0.0600 C   0  0  0  0  0  0  0  0  0  0  0  0
    3.7110    1.3730   -0.4400 C   0  0  0  0  0  0  0  0  0  0  0  0
    4.9480    2.1450   -0.4840 C   0  0  0  0  0  0  0  0  0  0  0  0
    6.0590    1.6020   -0.0110 C   0  0  0  0  0  0  0  0  0  0  0  0
    6.0700    0.3100    0.5270 O   0  0  0  0  0  0  0  0  0  0  0  0
    4.9200   -0.4500    0.5860 C   0  0  0  0  0  0  0  0  0  0  0  0
    4.8790   -1.6820    1.0890 C   0  0  0  0  0  0  0  0  0  0  0  0
    6.2980   -2.4540    1.7260 Cl  0  0  0  0  0  0  0  0  0  0  0  0
   -1.6090    0.1640   -0.8490 C   0  0  0  0  0  0  0  0  0  0  0  0
   -1.3880    1.1910   -1.6020 O   0  0  0  0  0  0  0  0  0  0  0  0
   -2.9450   -0.2620   -0.6140 N   0  0  0  0  0  0  0  0  0  0  0  0
   -3.9840    0.5090   -1.3020 C   0  0  0  0  0  0  0  0  0  0  0  0
   -5.3810    0.0650   -0.9770 C   0  0  0  0  0  0  0  0  0  0  0  0
   -5.5600    0.0440    0.8270 S   0  0  0  0  0  0  0  0  0  0  0  0
   -4.0610   -0.7440    1.4810 C   0  0  0  0  0  0  0  0  0  0  0  0
   -3.3800   -1.3280    0.2210 C   0  0  0  0  0  0  0  0  0  0  0  0
  1  2  2  0
  2  3  1  0
  2 13  1  0
  3  4  1  0
  4  5  1  0
  5  6  2  0
  5 10  1  0
  6  7  1  0
  7  8  2  0
  8  9  1  0
  9 10  1  0
 10 11  2  3
 11 12  1  0
 13 14  2  0
 13 15  1  0
 15 16  1  0
 15 20  1  0
 16 17  1  0
 17 18  1  0
 18 19  1  0
 19 20  1  0
M  END
