
     RDKit          3D

 20 22  0  0  0  0  0  0  0  0999 V2000
   -1.1090   -1.6280   -1.0480 O   0  0  0  0  0  0  0  0  0  0  0  0
   -0.6520   -0.7220   -0.3370 C   0  0  0  0  0  0  0  0  0  0  0  0
   -1.6020    0.0790    0.3110 N   0  0  0  0  0  0  0  0  0  0  0  0
   -2.9610   -0.1300    0.0780 C   0  0  0  0  0  0  0  0  0  0  0  0
   -3.7900    0.2200    0.8890 N   0  0  0  0  0  0  0  0  0  0  0  0
   -5.1100   -0.0560    0.5780 C   0  0  0  0  0  0  0  0  0  0  0  0
   -6.0000   -0.7380    1.2560 C   0  0  0  0  0  0  0  0  0  0  0  0
   -5.7310   -1.5070    2.8040 Cl  0  0  0  0  0  0  0  0  0  0  0  0
   -5.4250    0.5270   -0.7940 C   0  0  0  0  0  0  0  0  0  0  0  0
   -3.9520   -0.3770   -1.4790 S   0  0  0  0  0  0  0  0  0  0  0  0
    0.7530   -0.4850   -0.1580 C   0  0  0  0  0  0  0  0  0  0  0  0
    1.4470    0.4190    0.5370 C   0  0  0  0  0  0  0  0  0  0  0  0
    2.7950    0.3800    0.5140 C   0  0  0  0  0  0  0  0  0  0  0  0
    3.3800   -0.6010   -0.2320 C   0  0  0  0  0  0  0  0  0  0  0  0
    2.0240   -1.4700   -0.9040 S   0  0  0  0  0  0  0  0  0  0  0  0
    4.8460   -0.8090   -0.3800 C   0  0  0  0  0  0  0  0  0  0  0  0
    5.5120    0.5230   -0.2560 C   0  0  0  0  0  0  0  0  0  0  0  0
    5.1230    1.0320    1.0230 O   0  0  0  0  0  0  0  0  0  0  0  0
    3.7720    1.2820    1.2080 C   0  0  0  0  0  0  0  0  0  0  0  0
    3.3940    2.2330    1.9330 O   0  0  0  0  0  0  0  0  0  0  0  0
  1  2  2  0
  2  3  1  0
  2 11  1  0
  3  4  1  0
  4  5  2  0
  4 10  1  0
  5  6  1  0
  6  7  2  3
  6  9  1  0
  7  8  1  0
  9 10  1  0
 11 12  2  0
 11 15  1  0
 12 13  1  0
 13 14  2  0
 13 19  1  0
 14 15  1  0
 14 16  1  0
 16 17  1  0
 17 18  1  0
 18 19  1  0
 19 20  2  0
M  END
