
     RDKit          3D

 20 21  0  0  0  0  0  0  0  0999 V2000
   -2.6400    0.0390    2.5450 O   0  0  0  0  0  0  0  0  0  0  0  0
   -3.1640    0.4330    1.4820 C   0  0  0  0  0  0  0  0  0  0  0  0
   -4.1560    1.4330    1.5220 O   0  0  0  0  0  0  0  0  0  0  0  0
   -5.3260    1.5480    0.7250 C   0  0  0  0  0  0  0  0  0  0  0  0
   -5.6010    0.2800   -0.0490 C   0  0  0  0  0  0  0  0  0  0  0  0
   -4.7280    0.0850   -1.2380 C   0  0  0  0  0  0  0  0  0  0  0  0
   -3.5290   -0.5550   -0.8620 O   0  0  0  0  0  0  0  0  0  0  0  0
   -2.7130   -0.1790    0.2290 C   0  0  0  0  0  0  0  0  0  0  0  0
   -1.4300   -0.3890    0.1290 C   0  0  0  0  0  0  0  0  0  0  0  0
   -0.3800   -0.1050    1.0710 C   0  0  0  0  0  0  0  0  0  0  0  0
    0.8970   -0.4180    0.7480 C   0  0  0  0  0  0  0  0  0  0  0  0
    1.3370   -1.0190   -0.4610 N   0  0  0  0  0  0  0  0  0  0  0  0
    2.6320   -1.1790   -0.4390 C   0  0  0  0  0  0  0  0  0  0  0  0
    3.5250   -1.9010   -1.7750 Cl  0  0  0  0  0  0  0  0  0  0  0  0
    3.0990   -0.6710    0.8290 C   0  0  0  0  0  0  0  0  0  0  0  0
    4.7960   -0.6100    1.3860 S   0  0  0  0  0  0  0  0  0  0  0  0
    5.9470   -0.9230    0.0310 C   0  0  0  0  0  0  0  0  0  0  0  0
    5.9590    0.2710   -0.9090 C   0  0  0  0  0  0  0  0  0  0  0  0
    7.0550    0.0370   -2.3080 S   0  0  0  0  0  0  0  0  0  0  0  0
    2.0690   -0.2280    1.5150 N   0  0  0  0  0  0  0  0  0  0  0  0
  1  2  2  0
  2  3  1  0
  2  8  1  0
  3  4  1  0
  4  5  1  0
  5  6  1  0
  6  7  1  0
  7  8  1  0
  8  9  2  3
  9 10  1  0
 10 11  2  3
 11 12  1  0
 11 20  1  0
 12 13  2  0
 13 14  1  0
 13 15  1  0
 15 16  1  0
 15 20  2  0
 16 17  1  0
 17 18  1  0
 18 19  1  0
M  END
