
     RDKit          3D

 23 25  0  0  0  0  0  0  0  0999 V2000
   -6.1950   -0.3730   -2.5180 O   0  0  0  0  0  0  0  0  0  0  0  0
   -5.4600   -0.1260   -1.4830 C   0  0  0  0  0  0  0  0  0  0  0  0
   -4.3180   -0.8400   -1.0870 N   0  0  0  0  0  0  0  0  0  0  0  0
   -4.0030   -0.6860    0.2840 C   0  0  1  0  0  0  0  0  0  0  0  0
   -2.7190   -0.0260    0.5350 C   0  0  0  0  0  0  0  0  0  0  0  0
   -2.7970    1.0670    1.2490 O   0  0  0  0  0  0  0  0  0  0  0  0
   -1.4250   -0.3890    0.0980 N   0  0  0  0  0  0  0  0  0  0  0  0
   -0.9750   -1.4130   -0.7210 C   0  0  0  0  0  0  0  0  0  0  0  0
    0.3630   -1.2830   -0.9600 C   0  0  0  0  0  0  0  0  0  0  0  0
    0.8300   -0.1480   -0.2750 N   0  0  0  0  0  0  0  0  0  0  0  0
    1.9850    0.6900    0.0740 C   0  0  2  0  0  0  0  0  0  0  0  0
    2.9440   -0.1130    0.9300 C   0  0  0  0  0  0  0  0  0  0  0  0
    3.5860   -1.1420    0.3360 O   0  0  0  0  0  0  0  0  0  0  0  0
    4.7990   -0.7980   -0.2330 C   0  0  0  0  0  0  0  0  0  0  0  0
    4.8980    0.6050   -1.3550 P   0  0  0  0  0  0  0  0  0  0  0  0
    4.1180    0.4130   -2.8370 O   0  0  0  0  0  0  0  0  0  0  0  0
    4.8560    2.1450   -0.6320 O   0  0  0  0  0  0  0  0  0  0  0  0
    1.5420    1.7390    0.8810 O   0  0  0  0  0  0  0  0  0  0  0  0
    0.1790    1.5540    1.0950 C   0  0  0  0  0  0  0  0  0  0  0  0
   -0.5120    2.2960    1.7960 O   0  0  0  0  0  0  0  0  0  0  0  0
   -0.2590    0.3900    0.3680 N   0  0  0  0  0  0  0  0  0  0  0  0
   -5.0860    0.3940    0.6700 C   0  0  0  0  0  0  0  0  0  0  0  0
   -5.6140    0.8760   -0.5340 O   0  0  0  0  0  0  0  0  0  0  0  0
  1  2  2  0
  2  3  1  0
  2 23  1  0
  3  4  1  0
  4  5  1  6
  4 22  1  0
  5  6  2  0
  5  7  1  0
  7  8  1  0
  7 21  1  0
  8  9  2  0
  9 10  1  0
 10 11  1  0
 10 21  1  0
 11 12  1  1
 11 18  1  0
 12 13  1  0
 13 14  1  0
 14 15  1  0
 15 16  1  0
 15 17  1  0
 18 19  1  0
 19 20  2  0
 19 21  1  0
 22 23  1  0
M  END
