
     RDKit          3D

 22 23  0  0  0  0  0  0  0  0999 V2000
    7.8890   -0.7450   -2.0840 O   0  0  0  0  0  0  0  0  0  0  0  0
    6.5570   -1.1820   -1.3860 P   0  0  0  0  0  0  0  0  0  0  0  0
    5.5160    0.0120   -0.5220 N   0  0  0  0  0  0  0  0  0  0  0  0
    4.1120   -0.0940   -0.5070 C   0  0  0  0  0  0  0  0  0  0  0  0
    3.5480   -1.0410   -1.1070 O   0  0  0  0  0  0  0  0  0  0  0  0
    3.2580    0.8890    0.2040 C   0  0  0  0  0  0  0  0  0  0  0  0
    1.8880    0.5650    0.0710 O   0  0  0  0  0  0  0  0  0  0  0  0
    0.8920    1.3310    0.6450 C   0  0  0  0  0  0  0  0  0  0  0  0
    1.2850    2.3330    1.2930 O   0  0  0  0  0  0  0  0  0  0  0  0
   -0.5120    1.0540    0.5460 C   0  0  0  0  0  0  0  0  0  0  0  0
   -1.0770    0.0490   -0.0960 C   0  0  0  0  0  0  0  0  0  0  0  0
   -0.3080   -0.9280   -0.8040 N   0  0  0  0  0  0  0  0  0  0  0  0
   -0.8170   -2.2800   -0.8000 C   0  0  0  0  0  0  0  0  0  0  0  0
   -0.2360   -3.2250   -1.3820 O   0  0  0  0  0  0  0  0  0  0  0  0
   -2.0260   -2.4660   -0.0890 N   0  0  0  0  0  0  0  0  0  0  0  0
   -3.0580   -1.4800   -0.1570 C   0  0  0  0  0  0  0  0  0  0  0  0
   -2.5640   -0.0700   -0.0720 C   0  0  2  0  0  0  0  0  0  0  0  0
   -3.1770    0.7100   -1.2150 C   0  0  0  0  0  0  0  0  0  0  0  0
   -3.2220    2.0220   -0.7070 O   0  0  0  0  0  0  0  0  0  0  0  0
   -3.5740    1.8690    0.6340 C   0  0  0  0  0  0  0  0  0  0  0  0
   -4.2340    2.7520    1.2750 O   0  0  0  0  0  0  0  0  0  0  0  0
   -3.0800    0.6200    1.0930 N   0  0  0  0  0  0  0  0  0  0  0  0
  1  2  2  0
  2  3  1  0
  3  4  1  0
  4  5  2  0
  4  6  1  0
  6  7  1  0
  7  8  1  0
  8  9  2  0
  8 10  1  0
 10 11  2  3
 11 12  1  0
 11 17  1  0
 12 13  1  0
 13 14  2  0
 13 15  1  0
 15 16  1  0
 17 16  1  1
 17 18  1  0
 17 22  1  0
 18 19  1  0
 19 20  1  0
 20 21  2  0
 20 22  1  0
M  END
