
     RDKit          3D

 10  9  0  0  0  0  0  0  0  0999 V2000
    0.5290   -0.9970   -1.7150 C   0  0  0  0  0  0  0  0  0  0  0  0
    0.6380   -0.7350   -0.4380 C   0  0  0  0  0  0  0  0  0  0  0  0
   -0.4870   -0.6060    0.3410 O   0  0  0  0  0  0  0  0  0  0  0  0
   -1.6170    0.6630    0.2000 P   0  0  2  0  0  0  0  0  0  0  0  0
   -2.3470    0.4730   -1.1130 O   0  0  0  0  0  0  0  0  0  0  0  0
   -0.8810    2.1790    0.1520 O   0  0  0  0  0  0  0  0  0  0  0  0
   -2.7590    0.5420    1.4310 O   0  0  0  0  0  0  0  0  0  0  0  0
    1.9460   -0.5810    0.1520 C   0  0  0  0  0  0  0  0  0  0  0  0
    2.9620   -0.7020   -0.5720 O   0  0  0  0  0  0  0  0  0  0  0  0
    2.1240   -0.3030    1.5000 O   0  0  0  0  0  0  0  0  0  0  0  0
  1  2  2  0
  2  3  1  0
  2  8  1  0
  3  4  1  0
  4  5  2  0
  4  6  1  6
  4  7  1  0
  8  9  2  0
  8 10  1  0
M  END
