
     RDKit          3D

 22 23  0  0  0  0  0  0  0  0999 V2000
    3.4850    1.0030   -0.5760 N   0  0  0  0  0  0  0  0  0  0  0  0
    3.3930   -0.2670   -0.7410 C   0  0  0  0  0  0  0  0  0  0  0  0
    4.3270   -1.1940   -0.1560 N   0  0  0  0  0  0  0  0  0  0  0  0
    5.5860   -0.5470    0.9570 P   0  0  0  0  0  0  0  0  0  0  0  0
    6.9740   -0.1620    0.3480 O   0  0  0  0  0  0  0  0  0  0  0  0
    2.3510   -0.7420   -1.5130 O   0  0  0  0  0  0  0  0  0  0  0  0
    1.0780   -0.1390   -1.4720 C   0  0  0  0  0  0  0  0  0  0  0  0
    0.5090   -0.2040   -0.1120 C   0  0  2  0  0  0  0  0  0  0  0  0
    0.2970   -1.6190    0.4000 C   0  0  0  0  0  0  0  0  0  0  0  0
   -0.7210   -1.3450    1.4880 C   0  0  0  0  0  0  0  0  0  0  0  0
   -1.2270   -0.0900    1.2910 O   0  0  0  0  0  0  0  0  0  0  0  0
   -0.9080    0.3040   -0.0030 C   0  0  2  0  0  0  0  0  0  0  0  0
   -1.8540   -0.3640   -0.9420 C   0  0  0  0  0  0  0  0  0  0  0  0
   -3.1700    0.0450   -0.5980 O   0  0  0  0  0  0  0  0  0  0  0  0
   -4.2880   -0.3890   -1.2690 C   0  0  0  0  0  0  0  0  0  0  0  0
   -5.5800    0.0510   -0.8860 N   0  0  0  0  0  0  0  0  0  0  0  0
   -4.1450   -1.1860   -2.2330 O   0  0  0  0  0  0  0  0  0  0  0  0
   -0.9780    1.7870   -0.2050 C   0  0  0  0  0  0  0  0  0  0  0  0
   -0.0650    2.4850    0.7110 N   0  0  0  0  0  0  0  0  0  0  0  0
    0.9000    1.6720    1.3630 C   0  0  0  0  0  0  0  0  0  0  0  0
    1.3810    2.1230    2.4540 O   0  0  0  0  0  0  0  0  0  0  0  0
    1.3020    0.4510    0.8430 O   0  0  0  0  0  0  0  0  0  0  0  0
  1  2  2  0
  2  3  1  0
  2  6  1  0
  3  4  1  0
  4  5  2  0
  6  7  1  0
  8  7  1  6
  8  9  1  0
  8 12  1  0
  8 22  1  0
  9 10  1  0
 10 11  1  0
 11 12  1  0
 12 13  1  6
 12 18  1  0
 13 14  1  0
 14 15  1  0
 15 16  1  0
 15 17  2  0
 18 19  1  0
 19 20  1  0
 20 21  2  0
 20 22  1  0
M  END
