
     RDKit          3D

 22 24  0  0  0  0  0  0  0  0999 V2000
   -2.9540   -1.7440    1.6420 N   0  0  0  0  0  0  0  0  0  0  0  0
   -2.2290   -0.5610    1.3400 C   0  0  0  0  0  0  0  0  0  0  0  0
   -1.6200    0.0210    2.2630 O   0  0  0  0  0  0  0  0  0  0  0  0
   -2.2390   -0.0860   -0.0720 C   0  0  1  0  0  0  0  0  0  0  0  0
   -3.6410    0.2650   -0.5170 C   0  0  0  0  0  0  0  0  0  0  0  0
   -4.1640    1.1930    0.3570 O   0  0  0  0  0  0  0  0  0  0  0  0
   -3.4030    2.3210    0.5450 C   0  0  0  0  0  0  0  0  0  0  0  0
   -2.1940    2.3660   -0.3440 C   0  0  0  0  0  0  0  0  0  0  0  0
   -1.4520    1.1290   -0.2060 N   0  0  0  0  0  0  0  0  0  0  0  0
   -0.0780    1.0180   -0.1920 N   0  0  0  0  0  0  0  0  0  0  0  0
    0.5660   -0.0510   -0.4970 C   0  0  0  0  0  0  0  0  0  0  0  0
    2.0420   -0.0240   -0.4370 C   0  0  1  0  0  0  0  0  0  0  0  0
    2.5540   -1.0450    0.5560 C   0  0  0  0  0  0  0  0  0  0  0  0
    3.1780   -1.9720   -0.2770 O   0  0  0  0  0  0  0  0  0  0  0  0
    3.7150   -1.1440   -1.2590 C   0  0  2  0  0  0  0  0  0  0  0  0
    5.1130   -0.1590   -0.5910 P   0  0  0  0  0  0  0  0  0  0  0  0
    4.7240    1.4950   -0.3280 O   0  0  0  0  0  0  0  0  0  0  0  0
    5.6700   -0.8340    0.9030 O   0  0  0  0  0  0  0  0  0  0  0  0
    2.6330   -0.3910   -1.6420 O   0  0  0  0  0  0  0  0  0  0  0  0
   -0.1770   -1.2030   -0.8740 N   0  0  0  0  0  0  0  0  0  0  0  0
   -1.6050   -1.1190   -0.8970 C   0  0  0  0  0  0  0  0  0  0  0  0
   -2.2490   -1.9230   -1.6150 O   0  0  0  0  0  0  0  0  0  0  0  0
  1  2  1  0
  2  3  2  0
  4  2  1  1
  4  5  1  0
  4  9  1  0
  4 21  1  0
  5  6  1  0
  6  7  1  0
  7  8  1  0
  8  9  1  0
  9 10  1  0
 10 11  2  0
 12 11  1  6
 11 20  1  0
 12 13  1  0
 12 19  1  0
 13 14  1  0
 14 15  1  0
 15 16  1  1
 15 19  1  0
 16 17  1  0
 16 18  1  0
 20 21  1  0
 21 22  2  0
M  END
