
     RDKit          3D

 34 38  0  0  0  0  0  0  0  0999 V2000
   -3.2860    3.5120    1.0490 N   0  0  0  0  0  0  0  0  0  0  0  0
   -2.6250    2.5370    0.2210 C   0  0  0  0  0  0  0  0  0  0  0  0
   -2.0030    1.5770   -0.5850 C   0  0  0  0  0  0  0  0  0  0  0  0
   -2.6470    0.3930   -0.6020 C   0  0  0  0  0  0  0  0  0  0  0  0
   -3.6120   -0.3840   -0.0570 N   0  0  0  0  0  0  0  0  0  0  0  0
   -4.2530   -0.2590    1.2060 C   0  0  0  0  0  0  0  0  0  0  0  0
   -3.9790    0.6060    2.0250 O   0  0  0  0  0  0  0  0  0  0  0  0
   -5.3160   -1.2670    1.5360 C   0  0  0  0  0  0  0  0  0  0  0  0
   -5.0610   -2.4540    2.1650 C   0  0  0  0  0  0  0  0  0  0  0  0
   -6.0960   -3.4560    2.2720 C   0  0  0  0  0  0  0  0  0  0  0  0
   -7.2680   -3.1210    1.7270 C   0  0  0  0  0  0  0  0  0  0  0  0
   -7.5850   -1.9720    1.0890 C   0  0  0  0  0  0  0  0  0  0  0  0
   -8.8850   -1.7800    0.6320 C   0  0  0  0  0  0  0  0  0  0  0  0
   -9.0190   -0.4850    0.0560 C   0  0  0  0  0  0  0  0  0  0  0  0
   -8.1010    0.3790   -0.0300 C   0  0  0  0  0  0  0  0  0  0  0  0
   -6.7590    0.2500    0.4180 C   0  0  0  0  0  0  0  0  0  0  0  0
   -6.5500   -1.0130    0.9970 C   0  0  0  0  0  0  0  0  0  0  0  0
   -1.4890   -0.4580   -1.8620 S   0  0  0  0  0  0  0  0  0  0  0  0
   -0.4150    0.8750   -2.0920 C   0  0  0  0  0  0  0  0  0  0  0  0
   -0.9480    1.8620   -1.2490 C   0  0  0  0  0  0  0  0  0  0  0  0
   -0.0860    3.1470   -1.3350 C   0  0  0  0  0  0  0  0  0  0  0  0
    1.3010    2.7500   -0.9380 C   0  0  0  0  0  0  0  0  0  0  0  0
    1.7930    1.6910   -1.7830 N   0  0  0  0  0  0  0  0  0  0  0  0
    3.0390    1.1000   -1.6190 C   0  0  0  0  0  0  0  0  0  0  0  0
    3.5190    0.2620   -2.2520 O   0  0  0  0  0  0  0  0  0  0  0  0
    3.7610    1.7220   -0.4140 C   0  0  0  0  0  0  0  0  0  0  0  0
    5.1350    1.1970   -0.3050 C   0  0  0  0  0  0  0  0  0  0  0  0
    5.2610   -0.1660    0.1130 N   0  0  1  0  0  0  0  0  0  0  0  0
    6.1420   -0.8880   -0.7840 C   0  0  0  0  0  0  0  0  0  0  0  0
    6.5370   -2.2450   -0.2200 C   0  0  0  0  0  0  0  0  0  0  0  0
    7.3340   -2.0600    1.0530 C   0  0  0  0  0  0  0  0  0  0  0  0
    7.3300   -0.5690    1.4620 C   0  0  0  0  0  0  0  0  0  0  0  0
    5.8710   -0.1620    1.4640 C   0  0  0  0  0  0  0  0  0  0  0  0
    0.8620    1.1910   -2.8340 C   0  0  0  0  0  0  0  0  0  0  0  0
  1  2  3  0
  2  3  1  0
  3  4  2  0
  3 20  1  0
  4  5  1  0
  4 18  1  0
  5  6  1  0
  6  7  2  0
  6  8  1  0
  8  9  2  0
  8 17  1  0
  9 10  1  0
 10 11  2  0
 11 12  1  0
 12 13  2  0
 12 17  1  0
 13 14  1  0
 14 15  2  0
 15 16  1  0
 16 17  2  0
 18 19  1  0
 19 20  2  0
 19 34  1  0
 20 21  1  0
 21 22  1  0
 22 23  1  0
 23 24  1  0
 23 34  1  0
 24 25  2  0
 24 26  1  0
 26 27  1  0
 28 27  1  6
 28 29  1  0
 28 33  1  0
 29 30  1  0
 30 31  1  0
 31 32  1  0
 32 33  1  0
M  CHG  1  28   1
M  END
