
     RDKit          3D

 34 37  0  0  0  0  0  0  0  0999 V2000
   -0.1000    1.5490   -2.1520 C   0  0  0  0  0  0  0  0  0  0  0  0
    0.2070    1.1250   -0.7630 C   0  0  2  0  0  0  0  0  0  0  0  0
    1.4350    0.4150   -0.7020 N   0  0  0  0  0  0  0  0  0  0  0  0
    2.2680    0.5490    0.4480 C   0  0  0  0  0  0  0  0  0  0  0  0
    1.8060    1.3150    1.3790 O   0  0  0  0  0  0  0  0  0  0  0  0
    3.5470   -0.0930    0.6550 C   0  0  0  0  0  0  0  0  0  0  0  0
    3.8000   -0.7540    1.8460 C   0  0  0  0  0  0  0  0  0  0  0  0
    4.9760   -1.4540    2.0060 C   0  0  0  0  0  0  0  0  0  0  0  0
    5.9190   -1.5130    1.0020 C   0  0  0  0  0  0  0  0  0  0  0  0
    5.6780   -0.8600   -0.1740 C   0  0  0  0  0  0  0  0  0  0  0  0
    6.6560   -0.9180   -1.1390 C   0  0  0  0  0  0  0  0  0  0  0  0
    6.4940   -0.2560   -2.3320 C   0  0  0  0  0  0  0  0  0  0  0  0
    5.3420    0.4550   -2.5300 C   0  0  0  0  0  0  0  0  0  0  0  0
    4.3590    0.5050   -1.5490 C   0  0  0  0  0  0  0  0  0  0  0  0
    4.4820   -0.1450   -0.3440 C   0  0  0  0  0  0  0  0  0  0  0  0
   -0.9730    0.5640   -0.0300 C   0  0  0  0  0  0  0  0  0  0  0  0
   -2.0850    1.5620    0.1100 C   0  0  0  0  0  0  0  0  0  0  0  0
   -1.9370    2.8240   -0.2270 C   0  0  0  0  0  0  0  0  0  0  0  0
   -3.1290    3.7280   -0.0390 C   0  0  0  0  0  0  0  0  0  0  0  0
   -2.7580    4.8360    0.9220 C   0  0  1  0  0  0  0  0  0  0  0  0
   -3.9290    5.7530    1.1260 C   0  0  0  0  0  0  0  0  0  0  0  0
   -2.0900    4.1980    2.4280 Cl  0  0  0  0  0  0  0  0  0  0  0  0
   -1.2010   -0.6340    0.3490 C   0  0  0  0  0  0  0  0  0  0  0  0
   -0.3420   -1.8180    0.1410 C   0  0  0  0  0  0  0  0  0  0  0  0
   -1.1680   -2.9540   -0.5100 C   0  0  2  0  0  0  0  0  0  0  0  0
   -0.4210   -4.2370   -0.2210 C   0  0  0  0  0  0  0  0  0  0  0  0
   -1.1430   -2.7030   -2.0090 C   0  0  0  0  0  0  0  0  0  0  0  0
   -2.5600   -3.0530   -0.0090 C   0  0  0  0  0  0  0  0  0  0  0  0
   -2.9050   -2.2610    1.1940 C   0  0  2  0  0  0  0  0  0  0  0  0
   -4.3780   -1.9840    1.3860 C   0  0  0  0  0  0  0  0  0  0  0  0
   -4.3030   -0.7760    2.2970 C   0  0  0  0  0  0  0  0  0  0  0  0
   -5.6420   -0.3270    3.3270 Cl  0  0  0  0  0  0  0  0  0  0  0  0
   -3.1220   -0.2140    2.1430 C   0  0  0  0  0  0  0  0  0  0  0  0
   -2.3440   -0.9180    1.1970 N   0  0  0  0  0  0  0  0  0  0  0  0
  2  1  1  6
  2  3  1  0
  2 16  1  0
  3  4  1  0
  4  5  2  0
  4  6  1  0
  6  7  2  0
  6 15  1  0
  7  8  1  0
  8  9  2  0
  9 10  1  0
 10 11  2  0
 10 15  1  0
 11 12  1  0
 12 13  2  0
 13 14  1  0
 14 15  2  0
 16 17  1  0
 16 23  2  3
 17 18  2  3
 18 19  1  0
 19 20  1  0
 20 21  1  1
 20 22  1  0
 23 24  1  0
 23 34  1  0
 24 25  1  0
 25 26  1  6
 25 27  1  0
 25 28  1  0
 29 28  1  6
 29 30  1  0
 29 34  1  0
 30 31  1  0
 31 32  1  0
 31 33  2  0
 33 34  1  0
M  END
