
     RDKit          3D

 34 37  0  0  0  0  0  0  0  0999 V2000
   -7.6420   -4.0260   -0.3150 C   0  0  0  0  0  0  0  0  0  0  0  0
   -6.1740   -3.9190   -0.3650 C   0  0  0  0  0  0  0  0  0  0  0  0
   -5.5290   -2.8420    0.1290 C   0  0  0  0  0  0  0  0  0  0  0  0
   -6.1630   -1.7020    0.7470 C   0  0  0  0  0  0  0  0  0  0  0  0
   -7.9190   -1.5120    0.9880 Cl  0  0  0  0  0  0  0  0  0  0  0  0
   -5.2370   -0.8000    1.1200 C   0  0  0  0  0  0  0  0  0  0  0  0
   -5.5950    0.4560    1.7780 C   0  0  0  0  0  0  0  0  0  0  0  0
   -4.8400    1.4190    2.1970 C   0  0  0  0  0  0  0  0  0  0  0  0
   -5.5490    2.6000    2.8460 C   0  0  0  0  0  0  0  0  0  0  0  0
   -3.3760    1.5630    2.1430 C   0  0  0  0  0  0  0  0  0  0  0  0
   -3.9240   -1.2980    0.7230 C   0  0  2  0  0  0  0  0  0  0  0  0
   -3.2210   -0.4610   -0.2400 N   0  0  0  0  0  0  0  0  0  0  0  0
   -1.8350   -0.2360   -0.2240 C   0  0  0  0  0  0  0  0  0  0  0  0
   -1.1270   -0.7620    0.6420 O   0  0  0  0  0  0  0  0  0  0  0  0
   -1.1900    0.6360   -1.2400 C   0  0  0  0  0  0  0  0  0  0  0  0
    0.2700    0.7500   -1.0840 C   0  0  0  0  0  0  0  0  0  0  0  0
    1.1240   -0.0840   -1.7940 C   0  0  0  0  0  0  0  0  0  0  0  0
    2.5000    0.0070   -1.6650 C   0  0  0  0  0  0  0  0  0  0  0  0
    3.0690    0.9370   -0.8170 C   0  0  0  0  0  0  0  0  0  0  0  0
    4.5270    1.0530   -0.6760 C   0  0  0  0  0  0  0  0  0  0  0  0
    5.2020    1.9690   -1.4510 C   0  0  0  0  0  0  0  0  0  0  0  0
    4.4560    2.8510   -2.4120 C   0  0  0  0  0  0  0  0  0  0  0  0
    6.5670    2.0740   -1.3340 C   0  0  0  0  0  0  0  0  0  0  0  0
    7.2430    1.2500   -0.4320 C   0  0  0  0  0  0  0  0  0  0  0  0
    6.5910    0.3340    0.3460 C   0  0  0  0  0  0  0  0  0  0  0  0
    5.2000    0.2410    0.2140 C   0  0  0  0  0  0  0  0  0  0  0  0
    4.3420   -0.9220    1.1910 Cl  0  0  0  0  0  0  0  0  0  0  0  0
    7.5690   -0.3880    1.1920 C   0  0  0  0  0  0  0  0  0  0  0  0
    8.8930   -0.1440    0.4830 C   0  0  0  0  0  0  0  0  0  0  0  0
    8.7130    1.2240   -0.1720 C   0  0  0  0  0  0  0  0  0  0  0  0
    2.2210    1.7640   -0.1120 C   0  0  0  0  0  0  0  0  0  0  0  0
    0.8490    1.6750   -0.2410 C   0  0  0  0  0  0  0  0  0  0  0  0
   -4.1520   -2.6060    0.1400 N   0  0  0  0  0  0  0  0  0  0  0  0
   -3.1550   -3.5410   -0.3560 C   0  0  0  0  0  0  0  0  0  0  0  0
  1  2  1  0
  2  3  2  3
  3  4  1  0
  3 33  1  0
  4  5  1  0
  4  6  2  0
  6  7  1  0
  6 11  1  0
  7  8  2  3
  8  9  1  0
  8 10  1  0
 11 12  1  6
 11 33  1  0
 12 13  1  0
 13 14  2  0
 13 15  1  0
 15 16  1  0
 16 17  2  0
 16 32  1  0
 17 18  1  0
 18 19  2  0
 19 20  1  0
 19 31  1  0
 20 21  2  0
 20 26  1  0
 21 22  1  0
 21 23  1  0
 23 24  2  0
 24 25  1  0
 24 30  1  0
 25 26  2  0
 25 28  1  0
 26 27  1  0
 28 29  1  0
 29 30  1  0
 31 32  2  0
 33 34  1  0
M  END
