
     RDKit          3D

 34 36  0  0  0  0  0  0  0  0999 V2000
    1.0730    3.3080    3.5080 C   0  0  0  0  0  0  0  0  0  0  0  0
    0.2990    2.6640    2.6900 C   0  0  0  0  0  0  0  0  0  0  0  0
   -0.4230    1.4520    3.1030 C   0  0  0  0  0  0  0  0  0  0  0  0
   -1.4230    1.0840    1.9360 C   0  0  0  0  0  0  0  0  0  0  0  0
   -0.7460    0.9020    0.7560 N   0  0  0  0  0  0  0  0  0  0  0  0
   -1.0520    0.0140   -0.2970 C   0  0  2  0  0  0  0  0  0  0  0  0
    0.0590    0.0690   -1.3110 C   0  0  0  0  0  0  0  0  0  0  0  0
   -0.1160    0.3770   -2.6260 C   0  0  0  0  0  0  0  0  0  0  0  0
    0.9560    0.3840   -3.5280 C   0  0  0  0  0  0  0  0  0  0  0  0
    0.6690    0.7870   -5.2130 Cl  0  0  0  0  0  0  0  0  0  0  0  0
    2.2170    0.0770   -3.1000 C   0  0  0  0  0  0  0  0  0  0  0  0
    2.4420   -0.2400   -1.7760 C   0  0  0  0  0  0  0  0  0  0  0  0
    3.7680   -0.5890   -1.2830 C   0  0  0  0  0  0  0  0  0  0  0  0
    4.1140   -1.7900   -1.3310 O   0  0  0  0  0  0  0  0  0  0  0  0
    4.6470    0.3780   -0.7650 N   0  0  0  0  0  0  0  0  0  0  0  0
    5.9630    0.0420   -0.2700 C   0  0  0  0  0  0  0  0  0  0  0  0
    6.6920    1.2680    0.2370 C   0  0  0  0  0  0  0  0  0  0  0  0
    1.3660   -0.2350   -0.9180 C   0  0  0  0  0  0  0  0  0  0  0  0
    1.7080   -0.5580    0.7680 Cl  0  0  0  0  0  0  0  0  0  0  0  0
   -2.3170    0.4510   -0.9800 C   0  0  0  0  0  0  0  0  0  0  0  0
   -3.4890   -0.1850   -0.2260 C   0  0  1  0  0  0  0  0  0  0  0  0
   -4.2590    0.7450    0.6210 C   0  0  0  0  0  0  0  0  0  0  0  0
   -4.4970   -0.7270   -1.2790 C   0  0  0  0  0  0  0  0  0  0  0  0
   -2.8380   -1.3510    0.4820 C   0  0  0  0  0  0  0  0  0  0  0  0
   -1.4470   -1.3660    0.0030 C   0  0  0  0  0  0  0  0  0  0  0  0
   -0.7400   -2.4370   -0.2360 C   0  0  0  0  0  0  0  0  0  0  0  0
   -1.0260   -3.8330    0.0310 C   0  0  0  0  0  0  0  0  0  0  0  0
   -2.2060   -4.3610    0.7450 C   0  0  0  0  0  0  0  0  0  0  0  0
   -0.1370   -4.7640   -0.3420 C   0  0  0  0  0  0  0  0  0  0  0  0
   -0.3560   -6.1990   -0.1080 C   0  0  0  0  0  0  0  0  0  0  0  0
   -0.2140    2.1610    0.2270 C   0  0  0  0  0  0  0  0  0  0  0  0
    0.1190    3.1190    1.3260 C   0  0  0  0  0  0  0  0  0  0  0  0
    0.2400    4.4060    0.9950 C   0  0  0  0  0  0  0  0  0  0  0  0
    0.0540    4.8690   -0.4060 C   0  0  0  0  0  0  0  0  0  0  0  0
  1  2  2  0
  2  3  1  0
  2 32  1  0
  3  4  1  0
  4  5  1  0
  6  5  1  1
  5 31  1  0
  6  7  1  0
  6 20  1  0
  6 25  1  0
  7  8  2  0
  7 18  1  0
  8  9  1  0
  9 10  1  0
  9 11  2  0
 11 12  1  0
 12 13  1  0
 12 18  2  0
 13 14  2  0
 13 15  1  0
 15 16  1  0
 16 17  1  0
 18 19  1  0
 20 21  1  0
 21 22  1  1
 21 23  1  0
 21 24  1  0
 24 25  1  0
 25 26  2  3
 26 27  1  0
 27 28  1  0
 27 29  2  3
 29 30  1  0
 31 32  1  0
 32 33  2  3
 33 34  1  0
M  END
