
     RDKit          3D

 34 38  0  0  0  0  0  0  0  0999 V2000
   -4.7260    2.3430    0.1810 C   0  0  0  0  0  0  0  0  0  0  0  0
   -3.6740    1.3110    0.6450 C   0  0  1  0  0  0  0  0  0  0  0  0
   -3.3190    0.5100   -0.5560 C   0  0  0  0  0  0  0  0  0  0  0  0
   -2.0050   -0.3070   -0.3240 C   0  0  2  0  0  0  0  0  0  0  0  0
   -1.6070   -0.6780   -1.6860 N   0  0  0  0  0  0  0  0  0  0  0  0
   -1.8450   -2.0070   -2.1000 C   0  0  1  0  0  0  0  0  0  0  0  0
   -0.7080   -3.0250   -2.1330 C   0  0  0  0  0  0  0  0  0  0  0  0
   -1.8210   -3.0810   -1.1230 C   0  0  1  0  0  0  0  0  0  0  0  0
   -1.5710   -2.6170    0.1280 O   0  0  0  0  0  0  0  0  0  0  0  0
   -2.3890   -1.4890    0.4190 C   0  0  2  0  0  0  0  0  0  0  0  0
   -3.7670   -2.0510   -0.0300 C   0  0  0  0  0  0  0  0  0  0  0  0
   -2.5940   -1.4860    1.8860 C   0  0  0  0  0  0  0  0  0  0  0  0
   -1.0070    0.7010    0.0800 C   0  0  2  0  0  0  0  0  0  0  0  0
   -1.1800    1.8610   -0.9590 C   0  0  0  0  0  0  0  0  0  0  0  0
    0.4030    0.3940   -0.0560 N   0  0  0  0  0  0  0  0  0  0  0  0
    1.2900    1.0820   -1.0170 C   0  0  0  0  0  0  0  0  0  0  0  0
    2.0600    2.2000   -0.4420 C   0  0  0  0  0  0  0  0  0  0  0  0
    2.1180    2.6440    0.7670 C   0  0  0  0  0  0  0  0  0  0  0  0
    3.0350    3.7880    0.8350 C   0  0  0  0  0  0  0  0  0  0  0  0
    3.5150    3.9470   -0.5520 C   0  0  0  0  0  0  0  0  0  0  0  0
    2.9300    3.0110   -1.2660 C   0  0  0  0  0  0  0  0  0  0  0  0
    3.1820    2.8820   -2.6850 C   0  0  0  0  0  0  0  0  0  0  0  0
    3.3850    2.7590   -3.8280 N   0  0  0  0  0  0  0  0  0  0  0  0
    1.1220   -0.5900    0.6690 C   0  0  0  0  0  0  0  0  0  0  0  0
    0.5550   -1.2300    1.5620 O   0  0  0  0  0  0  0  0  0  0  0  0
    2.5480   -0.9200    0.4300 C   0  0  0  0  0  0  0  0  0  0  0  0
    3.0240   -1.9370    1.4690 C   0  0  0  0  0  0  0  0  0  0  0  0
    4.4510   -2.2760    1.2400 C   0  0  0  0  0  0  0  0  0  0  0  0
    4.9090   -3.2970    0.4370 C   0  0  0  0  0  0  0  0  0  0  0  0
    6.3010   -3.2830    0.4890 C   0  0  0  0  0  0  0  0  0  0  0  0
    6.6080   -2.2390    1.3320 C   0  0  0  0  0  0  0  0  0  0  0  0
    5.5000   -1.6780    1.7480 O   0  0  0  0  0  0  0  0  0  0  0  0
   -1.3280    1.4940    1.3290 C   0  0  0  0  0  0  0  0  0  0  0  0
   -2.6520    2.0020    1.3040 N   0  0  0  0  0  0  0  0  0  0  0  0
  2  1  1  6
  2  3  1  0
  2 34  1  0
  4  3  1  6
  4  5  1  0
  4 10  1  0
  4 13  1  0
  5  6  1  0
  6  7  1  6
  6  8  1  0
  8  7  1  6
  8  9  1  0
  9 10  1  0
 10 11  1  6
 10 12  1  0
 13 14  1  6
 13 15  1  0
 13 33  1  0
 15 16  1  0
 15 24  1  0
 16 17  1  0
 17 18  2  0
 17 21  1  0
 18 19  1  0
 19 20  1  0
 20 21  2  0
 21 22  1  0
 22 23  3  0
 24 25  2  0
 24 26  1  0
 26 27  1  0
 27 28  1  0
 28 29  2  0
 28 32  1  0
 29 30  1  0
 30 31  2  0
 31 32  1  0
 33 34  1  0
M  CHG  2   5   1  34   1
M  END
