
     RDKit          3D

 34 39  0  0  0  0  0  0  0  0999 V2000
    6.7290   -0.7360    4.0070 C   0  0  0  0  0  0  0  0  0  0  0  0
    6.7320   -0.6040    2.5030 C   0  0  0  0  0  0  0  0  0  0  0  0
    5.3650   -0.7200    2.0900 O   0  0  0  0  0  0  0  0  0  0  0  0
    5.0270   -0.6340    0.7310 C   0  0  0  0  0  0  0  0  0  0  0  0
    5.9660   -0.4570   -0.0450 O   0  0  0  0  0  0  0  0  0  0  0  0
    3.6530   -0.7470    0.2920 C   0  0  0  0  0  0  0  0  0  0  0  0
    3.3260   -0.6320   -0.9770 C   0  0  0  0  0  0  0  0  0  0  0  0
    4.3950   -0.3760   -1.9300 C   0  0  0  0  0  0  0  0  0  0  0  0
    4.7520   -1.3070   -2.8700 C   0  0  0  0  0  0  0  0  0  0  0  0
    5.7100   -1.0310   -3.8290 C   0  0  0  0  0  0  0  0  0  0  0  0
    6.3380    0.1770   -3.8820 C   0  0  0  0  0  0  0  0  0  0  0  0
    5.9950    1.1260   -2.9500 C   0  0  0  0  0  0  0  0  0  0  0  0
    5.0380    0.8550   -1.9880 C   0  0  0  0  0  0  0  0  0  0  0  0
    1.9980   -0.7250   -1.5400 N   0  0  0  0  0  0  0  0  0  0  0  0
    0.7260   -0.3940   -0.9180 C   0  0  0  0  0  0  0  0  0  0  0  0
   -0.3260   -0.0430   -1.9150 C   0  0  0  0  0  0  0  0  0  0  0  0
    0.3670   -0.4580    0.3380 C   0  0  0  0  0  0  0  0  0  0  0  0
   -0.9180   -0.0940    0.8630 C   0  0  0  0  0  0  0  0  0  0  0  0
   -1.9380    0.5710    0.1730 N   0  0  0  0  0  0  0  0  0  0  0  0
   -1.6960    1.9890   -0.0150 C   0  0  0  0  0  0  0  0  0  0  0  0
   -3.0630    2.4220   -0.5860 C   0  0  0  0  0  0  0  0  0  0  0  0
   -3.9360    1.7440    0.4450 C   0  0  1  0  0  0  0  0  0  0  0  0
   -5.3390    1.5050    0.0570 C   0  0  2  0  0  0  0  0  0  0  0  0
   -6.0990    1.2330    1.2600 N   0  0  0  0  0  0  0  0  0  0  0  0
   -6.3060   -0.1980    1.2230 C   0  0  1  0  0  0  0  0  0  0  0  0
   -6.7050   -0.3860   -0.2400 C   0  0  0  0  0  0  0  0  0  0  0  0
   -5.5520    0.3560   -0.8840 C   0  0  2  0  0  0  0  0  0  0  0  0
   -4.3770   -0.6310   -0.8250 C   0  0  0  0  0  0  0  0  0  0  0  0
   -3.9310   -0.7080    0.5890 C   0  0  2  0  0  0  0  0  0  0  0  0
   -5.0650   -0.9650    1.5580 C   0  0  0  0  0  0  0  0  0  0  0  0
   -3.1880    0.5580    0.9310 C   0  0  1  0  0  0  0  0  0  0  0  0
    1.3210   -0.9600    1.3990 C   0  0  0  0  0  0  0  0  0  0  0  0
    0.7040   -1.3790    2.4180 O   0  0  0  0  0  0  0  0  0  0  0  0
    2.7110   -0.9980    1.3600 N   0  0  0  0  0  0  0  0  0  0  0  0
  1  2  1  0
  2  3  1  0
  3  4  1  0
  4  5  2  0
  4  6  1  0
  6  7  2  0
  6 34  1  0
  7  8  1  0
  7 14  1  0
  8  9  2  0
  8 13  1  0
  9 10  1  0
 10 11  2  0
 11 12  1  0
 12 13  2  0
 14 15  1  0
 15 16  1  0
 15 17  2  0
 17 18  1  0
 17 32  1  0
 18 19  1  0
 19 20  1  0
 31 19  1  6
 20 21  1  0
 22 21  1  6
 22 23  1  0
 22 31  1  0
 23 24  1  1
 23 27  1  0
 24 25  1  0
 25 26  1  0
 25 30  1  6
 27 26  1  1
 27 28  1  0
 28 29  1  0
 29 30  1  1
 29 31  1  0
 32 33  2  0
 32 34  1  0
M  CHG  1  24   1
M  END
