
     RDKit          3D

 34 38  0  0  0  0  0  0  0  0999 V2000
   -2.2280    4.3240   -4.3240 C   0  0  0  0  0  0  0  0  0  0  0  0
   -2.0120    3.4240   -3.2280 N   0  0  0  0  0  0  0  0  0  0  0  0
   -2.1540    1.9750   -3.7680 C   0  0  0  0  0  0  0  0  0  0  0  0
   -2.3790    1.8810   -4.9230 O   0  0  0  0  0  0  0  0  0  0  0  0
   -1.9970    0.8880   -2.7900 C   0  0  0  0  0  0  0  0  0  0  0  0
   -1.3180   -0.3850   -3.0530 C   0  0  1  0  0  0  0  0  0  0  0  0
   -0.2170   -0.2190   -4.1200 C   0  0  0  0  0  0  0  0  0  0  0  0
    0.5650    0.7460   -3.4650 O   0  0  0  0  0  0  0  0  0  0  0  0
    0.7430    0.1820   -2.1690 C   0  0  0  0  0  0  0  0  0  0  0  0
   -0.3120   -0.8210   -1.9400 C   0  0  1  0  0  0  0  0  0  0  0  0
   -0.9130   -0.9330   -0.6250 N   0  0  0  0  0  0  0  0  0  0  0  0
   -0.7080    0.1640    0.1990 C   0  0  0  0  0  0  0  0  0  0  0  0
   -1.0000    0.2610    1.6960 C   0  0  0  0  0  0  0  0  0  0  0  0
   -1.0610    1.5980    2.1390 C   0  0  0  0  0  0  0  0  0  0  0  0
   -1.2570    1.8350    3.5760 C   0  0  0  0  0  0  0  0  0  0  0  0
   -0.4680    0.8190    4.3640 C   0  0  0  0  0  0  0  0  0  0  0  0
    0.6470    0.2710    3.5240 N   0  0  0  0  0  0  0  0  0  0  0  0
    0.3260   -1.0920    3.2610 C   0  0  2  0  0  0  0  0  0  0  0  0
    1.1670   -1.8950    2.4130 C   0  0  0  0  0  0  0  0  0  0  0  0
    2.5980   -2.0940    2.7070 C   0  0  0  0  0  0  0  0  0  0  0  0
    3.1070   -3.0480    1.7000 N   0  0  0  0  0  0  0  0  0  0  0  0
    3.4620   -2.6630    0.4640 C   0  0  0  0  0  0  0  0  0  0  0  0
    3.9370   -3.5530   -0.4840 C   0  0  0  0  0  0  0  0  0  0  0  0
    4.0440   -4.8950   -0.1150 C   0  0  0  0  0  0  0  0  0  0  0  0
    3.6910   -5.2870    1.1240 C   0  0  0  0  0  0  0  0  0  0  0  0
    3.2130   -4.3500    2.0500 C   0  0  0  0  0  0  0  0  0  0  0  0
    2.8890   -4.7080    3.1870 O   0  0  0  0  0  0  0  0  0  0  0  0
   -1.0390   -0.9920    2.4010 C   0  0  0  0  0  0  0  0  0  0  0  0
   -1.3280    2.5670    0.9550 C   0  0  0  0  0  0  0  0  0  0  0  0
   -2.6060    2.6520    0.4020 C   0  0  0  0  0  0  0  0  0  0  0  0
   -2.8080    3.0780   -0.9160 C   0  0  0  0  0  0  0  0  0  0  0  0
   -1.7620    3.4560   -1.7770 C   0  0  0  0  0  0  0  0  0  0  0  0
   -0.5120    3.4030   -1.2060 C   0  0  0  0  0  0  0  0  0  0  0  0
   -0.3060    2.9580    0.1550 C   0  0  0  0  0  0  0  0  0  0  0  0
  1  2  1  0
  2  3  1  0
  2 32  1  0
  3  4  2  0
  3  5  1  0
  6  5  1  1
  6  7  1  0
  6 10  1  0
  7  8  1  0
  8  9  1  0
 10  9  1  1
 10 11  1  0
 11 12  1  0
 12 13  1  0
 13 14  2  0
 13 28  1  0
 14 15  1  0
 14 29  1  0
 15 16  1  0
 16 17  1  0
 17 18  1  0
 18 19  1  6
 18 28  1  0
 19 20  1  0
 20 21  1  0
 21 22  1  0
 21 26  1  0
 22 23  2  0
 23 24  1  0
 24 25  2  0
 25 26  1  0
 26 27  2  0
 29 30  2  0
 29 34  1  0
 30 31  1  0
 31 32  2  0
 32 33  1  0
 33 34  2  0
M  CHG  2  11   1  17   1
M  END
