
     RDKit          3D

 22 21  0  0  0  0  0  0  0  0999 V2000
   -5.3460    2.0120    0.0480 C   0  0  0  0  0  0  0  0  0  0  0  0
   -5.5290    0.7050   -0.1260 C   0  0  0  0  0  0  0  0  0  0  0  0
   -6.8830    0.1020   -0.0630 C   0  0  0  0  0  0  0  0  0  0  0  0
   -7.8570    1.0430    0.1880 F   0  0  0  0  0  0  0  0  0  0  0  0
   -4.1050   -0.3980   -0.4510 P   0  0  0  0  0  0  0  0  0  0  0  0
   -2.5960   -0.0180    0.0720 C   0  0  0  0  0  0  0  0  0  0  0  0
   -1.5170   -0.9320   -0.2190 N   0  0  0  0  0  0  0  0  0  0  0  0
   -1.8270   -2.0880   -0.9310 C   0  0  0  0  0  0  0  0  0  0  0  0
   -1.0770   -3.0000   -1.2880 O   0  0  0  0  0  0  0  0  0  0  0  0
   -0.2550   -0.5770    0.2390 C   0  0  0  0  0  0  0  0  0  0  0  0
    0.8500   -1.2240    0.1030 C   0  0  0  0  0  0  0  0  0  0  0  0
    1.0790   -2.4000   -0.5090 F   0  0  0  0  0  0  0  0  0  0  0  0
    2.3770   -0.4510    0.8510 P   0  0  0  0  0  0  0  0  0  0  0  0
    3.3690   -1.7980    1.5970 C   0  0  0  0  0  0  0  0  0  0  0  0
    3.0010   -2.2590    2.6650 O   0  0  0  0  0  0  0  0  0  0  0  0
    3.3380    0.4290   -0.4610 C   0  0  2  0  0  0  0  0  0  0  0  0
    2.5470    0.6580   -1.5940 O   0  0  0  0  0  0  0  0  0  0  0  0
    4.4730   -0.4190   -0.8930 C   0  0  0  0  0  0  0  0  0  0  0  0
    6.0340    0.0820   -0.7840 P   0  0  0  0  0  0  0  0  0  0  0  0
    6.5250    1.6080   -0.1720 O   0  0  0  0  0  0  0  0  0  0  0  0
    3.8360    1.7300    0.0830 C   0  0  0  0  0  0  0  0  0  0  0  0
    2.7640    2.5120    0.4740 F   0  0  0  0  0  0  0  0  0  0  0  0
  1  2  2  0
  2  3  1  0
  2  5  1  0
  3  4  1  0
  5  6  2  3
  6  7  1  0
  7  8  1  0
  7 10  1  0
  8  9  2  0
 10 11  2  3
 11 12  1  0
 11 13  1  0
 13 14  1  0
 13 16  1  0
 14 15  2  0
 16 17  1  6
 16 18  1  0
 16 21  1  0
 18 19  2  3
 19 20  1  0
 21 22  1  0
M  END
