
     RDKit          3D

 22 23  0  0  0  0  0  0  0  0999 V2000
    5.8030    1.0570    0.1410 C   0  0  0  0  0  0  0  0  0  0  0  0
    4.5400    0.8970   -0.2050 C   0  0  0  0  0  0  0  0  0  0  0  0
    3.6900    2.0210   -0.5380 C   0  0  0  0  0  0  0  0  0  0  0  0
    2.4380    1.8100   -0.8770 C   0  0  0  0  0  0  0  0  0  0  0  0
    1.9490    0.5190   -0.9120 O   0  0  0  0  0  0  0  0  0  0  0  0
    1.7780   -0.1820    0.2390 O   0  0  0  0  0  0  0  0  0  0  0  0
    1.0970   -1.4160    0.1840 C   0  0  0  0  0  0  0  0  0  0  0  0
   -0.2110   -1.3280    0.1450 C   0  0  0  0  0  0  0  0  0  0  0  0
   -1.0330    0.3270    0.1630 P   0  0  0  0  0  0  0  0  0  0  0  0
   -2.3090    0.3950   -1.1410 C   0  0  0  0  0  0  0  0  0  0  0  0
   -3.6600    0.5160   -0.5410 C   0  0  0  0  0  0  0  0  0  0  0  0
   -3.5570    1.2840    1.1120 P   0  0  0  0  0  0  0  0  0  0  0  0
   -3.6600    3.4700    1.0500 P   0  0  0  0  0  0  0  0  0  0  0  0
   -1.8900    0.7000    1.7260 C   0  0  1  0  0  0  0  0  0  0  0  0
   -2.0790   -0.3910    2.5150 F   0  0  0  0  0  0  0  0  0  0  0  0
   -1.0390   -2.5380    0.0910 C   0  0  2  0  0  0  0  0  0  0  0  0
   -1.9030   -2.6100    1.2050 O   0  0  0  0  0  0  0  0  0  0  0  0
   -3.1650   -2.7020    0.8310 F   0  0  0  0  0  0  0  0  0  0  0  0
   -0.1940   -3.7450    0.0760 C   0  0  0  0  0  0  0  0  0  0  0  0
   -0.7740   -4.8860    0.0160 O   0  0  0  0  0  0  0  0  0  0  0  0
    1.2150   -3.7620    0.1210 N   0  0  0  0  0  0  0  0  0  0  0  0
    1.8610   -2.6570    0.1740 C   0  0  0  0  0  0  0  0  0  0  0  0
  1  2  2  0
  2  3  1  0
  3  4  2  3
  4  5  1  0
  5  6  1  0
  6  7  1  0
  7  8  2  0
  7 22  1  0
  8  9  1  0
  8 16  1  0
  9 10  1  0
  9 14  1  0
 10 11  1  0
 11 12  1  0
 12 13  1  0
 12 14  1  0
 14 15  1  1
 16 17  1  1
 16 19  1  0
 17 18  1  0
 19 20  2  0
 19 21  1  0
 21 22  2  0
M  END
