
     RDKit          3D

 22 23  0  0  0  0  0  0  0  0999 V2000
   -5.5270    0.2000    1.0410 C   0  0  0  0  0  0  0  0  0  0  0  0
   -4.3130   -0.2450    0.7780 C   0  0  0  0  0  0  0  0  0  0  0  0
   -3.9530   -1.3750    1.4830 F   0  0  0  0  0  0  0  0  0  0  0  0
   -3.4140    0.3990   -0.1750 C   0  0  0  0  0  0  0  0  0  0  0  0
   -3.9320    1.6070   -0.8540 C   0  0  0  0  0  0  0  0  0  0  0  0
   -3.1430    2.1670   -1.6880 O   0  0  0  0  0  0  0  0  0  0  0  0
   -2.1970   -0.0160   -0.4650 C   0  0  0  0  0  0  0  0  0  0  0  0
   -1.4210   -1.1370    0.0170 C   0  0  0  0  0  0  0  0  0  0  0  0
   -0.2540   -0.9400    0.6410 O   0  0  0  0  0  0  0  0  0  0  0  0
    0.8240   -0.3420    0.1470 C   0  0  2  0  0  0  0  0  0  0  0  0
    0.5980    1.1140   -0.1950 C   0  0  0  0  0  0  0  0  0  0  0  0
    1.5450   -1.0560   -0.9220 C   0  0  0  0  0  0  0  0  0  0  0  0
    1.2240   -2.1650   -1.2550 O   0  0  0  0  0  0  0  0  0  0  0  0
    2.6850   -0.4430   -1.6250 C   0  0  0  0  0  0  0  0  0  0  0  0
    4.1780   -0.2370   -0.5000 P   0  0  0  0  0  0  0  0  0  0  0  0
    5.4590   -1.3070   -0.9350 O   0  0  0  0  0  0  0  0  0  0  0  0
    5.9180   -1.9200    0.6540 P   0  0  0  0  0  0  0  0  0  0  0  0
    4.7190   -1.5000    1.7870 C   0  0  0  0  0  0  0  0  0  0  0  0
    4.7280   -1.7990    3.1030 F   0  0  0  0  0  0  0  0  0  0  0  0
    3.6590   -0.7550    1.1100 N   0  0  0  0  0  0  0  0  0  0  0  0
    2.0320   -0.3130    1.6140 P   0  0  0  0  0  0  0  0  0  0  0  0
    2.0250    1.6100    2.6050 P   0  0  0  0  0  0  0  0  0  0  0  0
  1  2  2  0
  2  3  1  0
  2  4  1  0
  4  5  1  0
  4  7  2  3
  5  6  2  0
  7  8  1  0
  8  9  1  0
  9 10  1  0
 10 11  1  6
 10 12  1  0
 10 21  1  0
 12 13  2  0
 12 14  1  0
 14 15  1  0
 15 16  1  0
 15 20  1  0
 16 17  1  0
 17 18  2  0
 18 19  1  0
 18 20  1  0
 20 21  1  0
 21 22  1  0
M  END
