
     RDKit          3D

 22 24  0  0  0  0  0  0  0  0999 V2000
    0.0910    0.5360    2.3540 O   0  0  0  0  0  0  0  0  0  0  0  0
   -0.0560    0.3130    1.1260 C   0  0  0  0  0  0  0  0  0  0  0  0
   -1.3470    0.4420    0.4570 C   0  0  0  0  0  0  0  0  0  0  0  0
   -2.5800    0.1180    0.7980 C   0  0  0  0  0  0  0  0  0  0  0  0
   -3.7210    0.3440   -0.0770 C   0  0  0  0  0  0  0  0  0  0  0  0
   -5.0860   -0.0480    0.4160 C   0  0  0  0  0  0  0  0  0  0  0  0
   -6.3570    0.3410   -0.8800 P   0  0  0  0  0  0  0  0  0  0  0  0
   -3.5380    0.8760   -1.2620 C   0  0  0  0  0  0  0  0  0  0  0  0
   -2.2580    1.2060   -1.6570 O   0  0  0  0  0  0  0  0  0  0  0  0
   -1.1710    1.2090   -0.8310 C   0  0  2  0  0  0  0  0  0  0  0  0
    0.2940    0.2040   -1.4660 P   0  0  0  0  0  0  0  0  0  0  0  0
   -0.5140   -1.7260   -2.1700 P   0  0  0  0  0  0  0  0  0  0  0  0
    0.9970   -0.0910    0.2270 C   0  0  0  0  0  0  0  0  0  0  0  0
    2.1690   -0.5540    0.4700 C   0  0  0  0  0  0  0  0  0  0  0  0
    2.6270   -0.7470    1.7530 F   0  0  0  0  0  0  0  0  0  0  0  0
    3.0980   -0.9090   -0.5670 N   0  0  0  0  0  0  0  0  0  0  0  0
    4.3390   -0.5950   -0.4290 C   0  0  0  0  0  0  0  0  0  0  0  0
    5.3990   -0.8350   -1.2950 O   0  0  0  0  0  0  0  0  0  0  0  0
    6.4810   -0.0290   -0.8710 C   0  0  0  0  0  0  0  0  0  0  0  0
    5.9840    0.8160    0.1090 O   0  0  0  0  0  0  0  0  0  0  0  0
    4.9440    0.1200    0.7260 C   0  0  2  0  0  0  0  0  0  0  0  0
    5.4370   -0.7900    1.6280 F   0  0  0  0  0  0  0  0  0  0  0  0
  1  2  2  0
  2  3  1  0
  2 13  1  0
  3  4  2  0
  3 10  1  0
  4  5  1  0
  5  6  1  0
  5  8  2  0
  6  7  1  0
  8  9  1  0
 10  9  1  6
 10 11  1  0
 11 12  1  0
 11 13  1  0
 13 14  2  3
 14 15  1  0
 14 16  1  0
 16 17  2  3
 17 18  1  0
 17 21  1  0
 18 19  1  0
 19 20  1  0
 20 21  1  0
 21 22  1  1
M  END
