
     RDKit          3D

 22 24  0  0  0  0  0  0  0  0999 V2000
   -4.9200    0.4080   -1.5010 C   0  0  0  0  0  0  0  0  0  0  0  0
   -5.1730    0.3410   -0.0130 C   0  0  0  0  0  0  0  0  0  0  0  0
   -4.0480    0.2040    0.7570 O   0  0  0  0  0  0  0  0  0  0  0  0
   -3.2890   -0.9110    0.5490 C   0  0  2  0  0  0  0  0  0  0  0  0
   -3.3890   -1.6740    1.7490 O   0  0  0  0  0  0  0  0  0  0  0  0
   -1.8130   -0.6510    0.3880 C   0  0  1  0  0  0  0  0  0  0  0  0
   -1.0910   -1.8320    0.3370 F   0  0  0  0  0  0  0  0  0  0  0  0
   -1.4690    0.2000   -0.7130 N   0  0  0  0  0  0  0  0  0  0  0  0
   -0.1510    0.7040   -0.3650 C   0  0  0  0  0  0  0  0  0  0  0  0
    0.0170    0.6950    0.9000 C   0  0  0  0  0  0  0  0  0  0  0  0
    1.2380    1.1520    1.3920 O   0  0  0  0  0  0  0  0  0  0  0  0
    2.2260    1.2670   -0.0280 P   0  0  0  0  0  0  0  0  0  0  0  0
    4.1160    0.8770   -0.2800 P   0  0  0  0  0  0  0  0  0  0  0  0
    5.6790    1.9180   -0.4850 C   0  0  0  0  0  0  0  0  0  0  0  0
    6.7050    1.0180   -0.6240 C   0  0  0  0  0  0  0  0  0  0  0  0
    6.4380   -0.2820   -0.5920 C   0  0  0  0  0  0  0  0  0  0  0  0
    5.1680   -0.7220   -0.4250 C   0  0  0  0  0  0  0  0  0  0  0  0
    4.3800   -2.3210   -0.3240 P   0  0  0  0  0  0  0  0  0  0  0  0
    0.9040    1.1720   -1.1530 O   0  0  0  0  0  0  0  0  0  0  0  0
   -1.2500    0.1540    1.5350 C   0  0  1  0  0  0  0  0  0  0  0  0
   -2.1190    1.2110    1.7720 F   0  0  0  0  0  0  0  0  0  0  0  0
   -1.0000   -0.5950    2.6390 F   0  0  0  0  0  0  0  0  0  0  0  0
  1  2  1  0
  2  3  1  0
  3  4  1  0
  4  5  1  1
  4  6  1  0
  6  7  1  6
  6  8  1  0
  6 20  1  0
  8  9  1  0
  9 10  2  0
  9 19  1  0
 10 11  1  0
 10 20  1  0
 11 12  1  0
 12 13  1  0
 12 19  1  0
 13 14  1  0
 13 17  1  0
 14 15  2  0
 15 16  1  0
 16 17  2  0
 17 18  1  0
 20 21  1  1
 20 22  1  0
M  END
