
     RDKit          3D

 22 22  0  0  0  0  0  0  0  0999 V2000
   -2.5320   -2.9050    0.9100 C   0  0  0  0  0  0  0  0  0  0  0  0
   -1.7590   -1.7950    1.5740 C   0  0  0  0  0  0  0  0  0  0  0  0
   -2.3950   -0.5470    1.2460 N   0  0  0  0  0  0  0  0  0  0  0  0
   -3.7140   -0.3310    1.8210 C   0  0  0  0  0  0  0  0  0  0  0  0
   -1.8500    0.4650    0.4270 C   0  0  0  0  0  0  0  0  0  0  0  0
   -0.6330    0.9720    0.3710 C   0  0  0  0  0  0  0  0  0  0  0  0
    0.7490    0.4360    1.4320 P   0  0  0  0  0  0  0  0  0  0  0  0
    1.3150    1.7130    2.4630 O   0  0  0  0  0  0  0  0  0  0  0  0
    2.3790   -0.4870    0.4250 P   0  0  0  0  0  0  0  0  0  0  0  0
    3.6000    0.5230   -0.1690 O   0  0  0  0  0  0  0  0  0  0  0  0
    4.3210   -0.0160   -1.2300 C   0  0  1  0  0  0  0  0  0  0  0  0
    4.2600    0.7850   -2.3340 F   0  0  0  0  0  0  0  0  0  0  0  0
    5.7540   -0.1790   -0.7680 C   0  0  0  0  0  0  0  0  0  0  0  0
    5.8300   -1.0150    0.3160 F   0  0  0  0  0  0  0  0  0  0  0  0
    1.9580   -2.2530   -0.7120 P   0  0  0  0  0  0  0  0  0  0  0  0
    1.0960   -2.3100   -1.9850 O   0  0  0  0  0  0  0  0  0  0  0  0
   -0.5260    2.0320   -0.6620 C   0  0  1  0  0  0  0  0  0  0  0  0
   -0.0790    1.4760   -1.9960 C   0  0  0  0  0  0  0  0  0  0  0  0
    1.1470    0.8660   -1.9450 F   0  0  0  0  0  0  0  0  0  0  0  0
   -1.9400    2.4290   -0.8130 C   0  0  0  0  0  0  0  0  0  0  0  0
   -2.3990    3.5110   -1.0490 O   0  0  0  0  0  0  0  0  0  0  0  0
   -2.6900    1.1780   -0.6080 C   0  0  0  0  0  0  0  0  0  0  0  0
  1  2  1  0
  2  3  1  0
  3  4  1  0
  3  5  1  0
  5  6  2  0
  5 22  1  0
  6  7  1  0
  6 17  1  0
  7  8  1  0
  7  9  1  0
  9 10  1  0
  9 15  1  0
 10 11  1  0
 11 12  1  6
 11 13  1  0
 13 14  1  0
 15 16  2  0
 17 18  1  6
 17 20  1  0
 18 19  1  0
 20 21  2  0
 20 22  1  0
M  END
