
     RDKit          3D

 24 24  0  0  0  0  0  0  0  0999 V2000
   -2.5500    4.7600    0.4080 C   0  0  0  0  0  0  0  0  0  0  0  0
   -2.7300    3.2490    0.1680 C   0  0  0  0  0  0  0  0  0  0  0  0
   -1.4940    2.6420    0.5000 N   0  0  0  0  0  0  0  0  0  0  0  0
   -1.3560    1.2430    0.3150 C   0  0  1  0  0  0  0  0  0  0  0  0
   -2.1750    0.4470    1.0700 O   0  0  0  0  0  0  0  0  0  0  0  0
   -3.4260    0.6890    0.8050 O   0  0  0  0  0  0  0  0  0  0  0  0
   -4.3390   -0.6750    0.3080 P   0  0  0  0  0  0  0  0  0  0  0  0
   -5.5450   -0.2750   -0.8560 F   0  0  0  0  0  0  0  0  0  0  0  0
   -3.3390   -1.9820   -0.2420 O   0  0  0  0  0  0  0  0  0  0  0  0
   -3.5400   -3.0060    0.5450 O   0  0  0  0  0  0  0  0  0  0  0  0
   -4.7630   -3.6260    0.3320 C   0  0  0  0  0  0  0  0  0  0  0  0
   -1.5020    0.8160   -1.1380 C   0  0  0  0  0  0  0  0  0  0  0  0
   -0.8060   -0.3840   -1.1150 O   0  0  0  0  0  0  0  0  0  0  0  0
    0.3790    0.0010   -0.4230 C   0  0  2  0  0  0  0  0  0  0  0  0
    1.2610    0.5660   -1.4900 C   0  0  0  0  0  0  0  0  0  0  0  0
    0.9060   -1.1750    0.3370 C   0  0  0  0  0  0  0  0  0  0  0  0
    2.1270   -0.8650    1.1220 C   0  0  0  0  0  0  0  0  0  0  0  0
    3.3530   -0.5040    0.4170 C   0  0  0  0  0  0  0  0  0  0  0  0
    4.0390    1.0210    0.4530 P   0  0  0  0  0  0  0  0  0  0  0  0
    4.2400   -1.8060   -0.5420 P   0  0  0  0  0  0  0  0  0  0  0  0
    3.7890   -3.3670    0.0500 O   0  0  0  0  0  0  0  0  0  0  0  0
    6.0640   -1.6080   -0.4260 C   0  0  0  0  0  0  0  0  0  0  0  0
    6.6390   -2.5020   -1.3390 O   0  0  0  0  0  0  0  0  0  0  0  0
    0.0010    0.9450    0.5200 O   0  0  0  0  0  0  0  0  0  0  0  0
  1  2  1  0
  2  3  1  0
  4  3  1  6
  4  5  1  0
  4 12  1  0
  4 24  1  0
  5  6  1  0
  6  7  1  0
  7  8  1  0
  7  9  1  0
  9 10  1  0
 10 11  1  0
 12 13  1  0
 13 14  1  0
 14 15  1  6
 14 16  1  0
 14 24  1  0
 16 17  1  0
 17 18  1  0
 18 19  2  0
 18 20  1  0
 20 21  1  0
 20 22  1  0
 22 23  1  0
M  END
