
     RDKit          3D

 24 24  0  0  0  0  0  0  0  0999 V2000
   -3.9270   -3.4050   -0.2980 C   0  0  0  0  0  0  0  0  0  0  0  0
   -3.1220   -2.6070    0.3610 C   0  0  0  0  0  0  0  0  0  0  0  0
   -3.3550   -1.1400    0.4450 C   0  0  2  0  0  0  0  0  0  0  0  0
   -2.1890   -0.4250    0.5040 O   0  0  0  0  0  0  0  0  0  0  0  0
   -1.3820   -0.6300   -0.5850 C   0  0  0  0  0  0  0  0  0  0  0  0
   -0.0940    0.1930   -0.4640 C   0  0  1  0  0  0  0  0  0  0  0  0
    0.7570   -0.0660   -1.6820 C   0  0  0  0  0  0  0  0  0  0  0  0
   -0.4590    1.6610   -0.4750 C   0  0  0  0  0  0  0  0  0  0  0  0
   -1.2970    1.8960    0.6040 O   0  0  0  0  0  0  0  0  0  0  0  0
   -1.6320    3.1580    0.6240 O   0  0  0  0  0  0  0  0  0  0  0  0
   -1.3930    3.7610   -0.5050 O   0  0  0  0  0  0  0  0  0  0  0  0
    0.7350   -0.2130    1.1140 P   0  0  0  0  0  0  0  0  0  0  0  0
    1.5050    1.1250    1.8630 O   0  0  0  0  0  0  0  0  0  0  0  0
    2.5560    1.5550    1.1980 O   0  0  0  0  0  0  0  0  0  0  0  0
    2.6470    2.8500    1.4280 O   0  0  0  0  0  0  0  0  0  0  0  0
    2.9890    3.5670    0.2880 C   0  0  0  0  0  0  0  0  0  0  0  0
    1.7410   -1.6090    1.0250 O   0  0  0  0  0  0  0  0  0  0  0  0
    3.3570   -1.2110    1.1990 P   0  0  0  0  0  0  0  0  0  0  0  0
    3.9960   -1.0390    2.7300 O   0  0  0  0  0  0  0  0  0  0  0  0
    4.6120   -1.1490   -0.4890 P   0  0  0  0  0  0  0  0  0  0  0  0
    5.9120   -2.4690   -0.5810 C   0  0  0  0  0  0  0  0  0  0  0  0
   -4.3360   -0.7420    1.5420 C   0  0  0  0  0  0  0  0  0  0  0  0
   -4.7300    0.3350    0.5570 C   0  0  0  0  0  0  0  0  0  0  0  0
   -4.3000   -0.5940   -0.5020 N   0  0  0  0  0  0  0  0  0  0  0  0
  1  2  2  0
  2  3  1  0
  3  4  1  1
  3 22  1  0
  3 24  1  0
  4  5  1  0
  5  6  1  0
  6  7  1  6
  6  8  1  0
  6 12  1  0
  8  9  1  0
  9 10  1  0
 10 11  1  0
 12 13  1  0
 12 17  1  0
 13 14  1  0
 14 15  1  0
 15 16  1  0
 17 18  1  0
 18 19  1  0
 18 20  1  0
 20 21  1  0
 22 23  1  0
 23 24  1  0
M  END
