
     RDKit          3D

 24 24  0  0  0  0  0  0  0  0999 V2000
   -2.3900    3.1230   -0.8030 C   0  0  0  0  0  0  0  0  0  0  0  0
   -2.1270    2.0690    0.1620 N   0  0  0  0  0  0  0  0  0  0  0  0
   -3.1980    1.2420    0.6200 C   0  0  0  0  0  0  0  0  0  0  0  0
   -3.3580   -0.0400    0.3720 C   0  0  0  0  0  0  0  0  0  0  0  0
   -2.4410   -0.9060   -0.4500 C   0  0  2  0  0  0  0  0  0  0  0  0
   -3.4480   -1.5690   -1.8550 P   0  0  0  0  0  0  0  0  0  0  0  0
   -1.9600   -1.8830    0.3830 O   0  0  0  0  0  0  0  0  0  0  0  0
   -0.2730   -1.8900    0.5940 P   0  0  0  0  0  0  0  0  0  0  0  0
    0.5390   -0.5370   -0.0590 O   0  0  0  0  0  0  0  0  0  0  0  0
    1.8410   -0.8270   -0.4660 C   0  0  0  0  0  0  0  0  0  0  0  0
    2.4200    0.4620   -1.0160 C   0  0  0  0  0  0  0  0  0  0  0  0
    4.1590    0.2430   -1.6030 P   0  0  0  0  0  0  0  0  0  0  0  0
    4.8460   -1.2490   -1.0600 O   0  0  0  0  0  0  0  0  0  0  0  0
    5.0970    1.6260   -1.0550 O   0  0  0  0  0  0  0  0  0  0  0  0
    5.9750    1.5360    0.0190 C   0  0  0  0  0  0  0  0  0  0  0  0
    6.0860    0.4260    0.6000 O   0  0  0  0  0  0  0  0  0  0  0  0
    6.7230    2.6200    0.4630 O   0  0  0  0  0  0  0  0  0  0  0  0
    7.5410    2.4500    1.4990 O   0  0  0  0  0  0  0  0  0  0  0  0
    0.5380   -3.4920    0.2260 C   0  0  1  0  0  0  0  0  0  0  0  0
    1.8210   -3.4880    0.7630 O   0  0  0  0  0  0  0  0  0  0  0  0
   -0.1650   -4.4910    0.8900 F   0  0  0  0  0  0  0  0  0  0  0  0
   -4.6000   -0.5080    1.0370 C   0  0  0  0  0  0  0  0  0  0  0  0
   -5.1320    0.6880    1.7040 C   0  0  0  0  0  0  0  0  0  0  0  0
   -4.3050    1.6830    1.4480 C   0  0  0  0  0  0  0  0  0  0  0  0
  1  2  1  0
  2  3  1  0
  3  4  2  0
  3 24  1  0
  4  5  1  0
  4 22  1  0
  5  6  1  6
  5  7  1  0
  7  8  1  0
  8  9  1  0
  8 19  1  0
  9 10  1  0
 10 11  1  0
 11 12  1  0
 12 13  1  0
 12 14  1  0
 14 15  1  0
 15 16  2  0
 15 17  1  0
 17 18  1  0
 19 20  1  1
 19 21  1  0
 22 23  1  0
 23 24  2  0
M  END
