
     RDKit          3D

 24 24  0  0  0  0  0  0  0  0999 V2000
   -4.6000   -1.7470   -0.1910 C   0  0  0  0  0  0  0  0  0  0  0  0
   -3.5710   -0.8760    0.5100 C   0  0  0  0  0  0  0  0  0  0  0  0
   -3.3710    0.3700   -0.1440 N   0  0  0  0  0  0  0  0  0  0  0  0
   -4.5750    1.1650   -0.0000 C   0  0  0  0  0  0  0  0  0  0  0  0
   -2.2610    1.1330    0.2380 C   0  0  1  0  0  0  0  0  0  0  0  0
   -2.3000    2.3320   -0.5240 O   0  0  0  0  0  0  0  0  0  0  0  0
   -2.2560    1.5930    1.6850 C   0  0  0  0  0  0  0  0  0  0  0  0
   -1.6100    2.8170    1.7780 O   0  0  0  0  0  0  0  0  0  0  0  0
   -0.2300    2.6910    1.8960 C   0  0  0  0  0  0  0  0  0  0  0  0
    0.3560    1.0600    1.1680 P   0  0  0  0  0  0  0  0  0  0  0  0
   -0.9340    0.5500   -0.0280 C   0  0  0  0  0  0  0  0  0  0  0  0
   -0.6100   -0.2520   -0.9850 C   0  0  0  0  0  0  0  0  0  0  0  0
   -1.5000   -0.7050   -1.9480 O   0  0  0  0  0  0  0  0  0  0  0  0
   -1.5660   -2.0020   -2.4370 C   0  0  0  0  0  0  0  0  0  0  0  0
    0.6920   -0.7040   -1.0840 O   0  0  0  0  0  0  0  0  0  0  0  0
    1.4350   -1.0530   -0.0260 O   0  0  0  0  0  0  0  0  0  0  0  0
    2.2410   -2.0090   -0.3770 O   0  0  0  0  0  0  0  0  0  0  0  0
    3.8980   -1.6660   -0.0150 P   0  0  0  0  0  0  0  0  0  0  0  0
    4.2800    0.1390   -0.1640 C   0  0  0  0  0  0  0  0  0  0  0  0
    5.6560    0.2550   -0.4130 O   0  0  0  0  0  0  0  0  0  0  0  0
    6.0340    1.5010   -0.5350 O   0  0  0  0  0  0  0  0  0  0  0  0
    5.7370    2.2700    0.5910 C   0  0  0  0  0  0  0  0  0  0  0  0
    4.9660   -2.6340   -0.9680 O   0  0  0  0  0  0  0  0  0  0  0  0
    4.6420   -4.3040   -0.5890 P   0  0  0  0  0  0  0  0  0  0  0  0
  1  2  1  0
  2  3  1  0
  3  4  1  0
  3  5  1  0
  5  6  1  6
  5  7  1  0
  5 11  1  0
  7  8  1  0
  8  9  1  0
  9 10  1  0
 10 11  1  0
 11 12  2  3
 12 13  1  0
 12 15  1  0
 13 14  1  0
 15 16  1  0
 16 17  1  0
 17 18  1  0
 18 19  1  0
 18 23  1  0
 19 20  1  0
 20 21  1  0
 21 22  1  0
 23 24  1  0
M  END
