
     RDKit          3D

 24 24  0  0  0  0  0  0  0  0999 V2000
   -6.4100    0.3010    1.3330 C   0  0  0  0  0  0  0  0  0  0  0  0
   -5.9360   -0.1180    0.1420 C   0  0  0  0  0  0  0  0  0  0  0  0
   -6.7870   -1.0600   -0.6260 C   0  0  0  0  0  0  0  0  0  0  0  0
   -4.6340    0.3850   -0.2840 C   0  0  0  0  0  0  0  0  0  0  0  0
   -3.6210   -0.6180   -0.5070 N   0  0  0  0  0  0  0  0  0  0  0  0
   -3.8920   -1.4440   -1.6620 C   0  0  0  0  0  0  0  0  0  0  0  0
   -3.3730   -1.3540    0.5960 O   0  0  0  0  0  0  0  0  0  0  0  0
   -2.2810   -0.7830    1.2450 C   0  0  0  0  0  0  0  0  0  0  0  0
   -1.1270   -0.7670    0.4370 O   0  0  0  0  0  0  0  0  0  0  0  0
   -0.2000   -0.2120    1.1740 O   0  0  0  0  0  0  0  0  0  0  0  0
    1.1110    0.4540    0.3020 P   0  0  0  0  0  0  0  0  0  0  0  0
    2.0970   -0.7940   -0.4680 O   0  0  0  0  0  0  0  0  0  0  0  0
    3.3260   -0.2050   -0.6330 C   0  0  0  0  0  0  0  0  0  0  0  0
    4.2860   -0.2640    0.4840 C   0  0  2  0  0  0  0  0  0  0  0  0
    5.3880    0.7680    0.1810 C   0  0  0  0  0  0  0  0  0  0  0  0
    5.8910    0.5390   -1.0950 O   0  0  0  0  0  0  0  0  0  0  0  0
    5.1620   -1.9120    0.5360 P   0  0  0  0  0  0  0  0  0  0  0  0
    4.6390   -3.2110   -0.3100 C   0  0  0  0  0  0  0  0  0  0  0  0
    5.3220   -4.4130   -0.2400 O   0  0  0  0  0  0  0  0  0  0  0  0
    3.8360    0.0110    1.7360 O   0  0  0  0  0  0  0  0  0  0  0  0
    2.5800    1.1990    1.8140 P   0  0  0  0  0  0  0  0  0  0  0  0
    3.1120    2.7710    1.4380 O   0  0  0  0  0  0  0  0  0  0  0  0
    2.5310    3.3000    0.3910 O   0  0  0  0  0  0  0  0  0  0  0  0
    3.3990    4.2750   -0.1030 C   0  0  0  0  0  0  0  0  0  0  0  0
  1  2  2  0
  2  3  1  0
  2  4  1  0
  4  5  1  0
  5  6  1  0
  5  7  1  0
  7  8  1  0
  8  9  1  0
  9 10  1  0
 10 11  1  0
 11 12  1  0
 11 21  1  0
 12 13  1  0
 13 14  1  0
 14 15  1  6
 14 17  1  0
 14 20  1  0
 15 16  1  0
 17 18  2  3
 18 19  1  0
 20 21  1  0
 21 22  1  0
 22 23  1  0
 23 24  1  0
M  END
