
     RDKit          3D

 24 24  0  0  0  0  0  0  0  0999 V2000
   -7.4560    0.1070   -0.6700 C   0  0  0  0  0  0  0  0  0  0  0  0
   -6.1020   -0.5400   -0.6980 C   0  0  0  0  0  0  0  0  0  0  0  0
   -5.4210   -0.6350    0.3880 N   0  0  0  0  0  0  0  0  0  0  0  0
   -4.1820   -1.2240    0.3790 O   0  0  0  0  0  0  0  0  0  0  0  0
   -3.1000   -0.3660    0.6590 C   0  0  0  0  0  0  0  0  0  0  0  0
   -3.0640    0.4820    1.6770 C   0  0  0  0  0  0  0  0  0  0  0  0
   -4.1290    0.6920    2.7010 C   0  0  0  0  0  0  0  0  0  0  0  0
   -1.7770    1.2170    1.6600 C   0  0  0  0  0  0  0  0  0  0  0  0
   -1.0700    0.6750    0.4830 C   0  0  0  0  0  0  0  0  0  0  0  0
    0.2540    1.0590    0.0060 C   0  0  0  0  0  0  0  0  0  0  0  0
    0.9030    1.9400    0.6240 O   0  0  0  0  0  0  0  0  0  0  0  0
    0.8120    0.4770   -1.1120 O   0  0  0  0  0  0  0  0  0  0  0  0
    2.3990    0.8970   -1.7350 P   0  0  0  0  0  0  0  0  0  0  0  0
    3.3880    1.3810   -0.3700 O   0  0  0  0  0  0  0  0  0  0  0  0
    3.4360    0.5770    0.7660 C   0  0  0  0  0  0  0  0  0  0  0  0
    2.7970   -0.5010    0.8750 O   0  0  0  0  0  0  0  0  0  0  0  0
    3.0980   -0.4220   -2.6110 O   0  0  0  0  0  0  0  0  0  0  0  0
    4.7870   -0.2620   -2.8180 P   0  0  0  0  0  0  0  0  0  0  0  0
    5.2360    1.1940   -3.6340 O   0  0  0  0  0  0  0  0  0  0  0  0
    5.7410   -0.4990   -1.2700 C   0  0  0  0  0  0  0  0  0  0  0  0
    7.0290   -0.9900   -1.5010 O   0  0  0  0  0  0  0  0  0  0  0  0
    7.7780   -1.1500    0.0730 P   0  0  0  0  0  0  0  0  0  0  0  0
   -1.8560   -0.2340   -0.0720 C   0  0  0  0  0  0  0  0  0  0  0  0
   -1.5060   -0.9390   -1.1920 F   0  0  0  0  0  0  0  0  0  0  0  0
  1  2  1  0
  2  3  2  3
  3  4  1  0
  4  5  1  0
  5  6  2  0
  5 23  1  0
  6  7  1  0
  6  8  1  0
  8  9  1  0
  9 10  1  0
  9 23  2  0
 10 11  2  0
 10 12  1  0
 12 13  1  0
 13 14  1  0
 13 17  1  0
 14 15  1  0
 15 16  2  0
 17 18  1  0
 18 19  1  0
 18 20  1  0
 20 21  1  0
 21 22  1  0
 23 24  1  0
M  END
