
     RDKit          3D

 24 23  0  0  0  0  0  0  0  0999 V2000
    7.0630   -0.4890   -0.9490 C   0  0  0  0  0  0  0  0  0  0  0  0
    5.6110   -0.0620   -1.0770 C   0  0  2  0  0  0  0  0  0  0  0  0
    5.4200    1.0980   -0.3220 O   0  0  0  0  0  0  0  0  0  0  0  0
    4.4760   -1.3570   -0.3790 P   0  0  0  0  0  0  0  0  0  0  0  0
    5.5200   -2.5980    0.5300 C   0  0  0  0  0  0  0  0  0  0  0  0
    3.2670   -0.6410    0.8110 C   0  0  0  0  0  0  0  0  0  0  0  0
    1.6610   -0.2030    0.0130 P   0  0  0  0  0  0  0  0  0  0  0  0
    1.1620    1.3560   -0.0160 C   0  0  0  0  0  0  0  0  0  0  0  0
    1.9660    2.3680    0.5720 N   0  0  0  0  0  0  0  0  0  0  0  0
   -0.1140    1.8040   -0.6350 C   0  0  1  0  0  0  0  0  0  0  0  0
   -0.8640    2.4000    0.3750 O   0  0  0  0  0  0  0  0  0  0  0  0
    0.2090    2.7170   -1.6360 O   0  0  0  0  0  0  0  0  0  0  0  0
   -0.8640    0.6730   -1.2400 C   0  0  0  0  0  0  0  0  0  0  0  0
   -0.3170    0.0600   -2.1430 O   0  0  0  0  0  0  0  0  0  0  0  0
   -2.5360    0.1770   -0.6960 P   0  0  0  0  0  0  0  0  0  0  0  0
   -2.6750   -1.5480   -0.9930 O   0  0  0  0  0  0  0  0  0  0  0  0
   -3.7640    0.9900   -1.6310 O   0  0  0  0  0  0  0  0  0  0  0  0
   -4.9510    0.4800   -1.2290 O   0  0  0  0  0  0  0  0  0  0  0  0
   -5.1180   -0.0400    0.0500 C   0  0  0  0  0  0  0  0  0  0  0  0
   -4.1130   -0.0080    0.8010 O   0  0  0  0  0  0  0  0  0  0  0  0
   -6.3680   -0.6060    0.5500 C   0  0  1  0  0  0  0  0  0  0  0  0
   -7.4300    0.4970    0.4770 C   0  0  0  0  0  0  0  0  0  0  0  0
   -6.8130   -1.8360   -0.2010 C   0  0  0  0  0  0  0  0  0  0  0  0
   -6.2390   -0.9140    1.8860 F   0  0  0  0  0  0  0  0  0  0  0  0
  2  1  1  1
  2  3  1  0
  2  4  1  0
  4  5  1  0
  4  6  1  0
  6  7  1  0
  7  8  2  3
  8  9  1  0
  8 10  1  0
 10 11  1  1
 10 12  1  0
 10 13  1  0
 13 14  2  0
 13 15  1  0
 15 16  1  0
 15 17  1  0
 17 18  1  0
 18 19  1  0
 19 20  2  0
 19 21  1  0
 21 22  1  1
 21 23  1  0
 21 24  1  0
M  END
