
     RDKit          3D

 17 17  0  0  0  0  0  0  0  0999 V2000
   -0.2650    2.1070   -1.1240 O   0  0  0  0  0  0  0  0  0  0  0  0
    1.0260    1.3620   -0.9380 P   0  0  1  0  0  0  0  0  0  0  0  0
    1.3690    0.4630   -2.3280 O   0  0  0  0  0  0  0  0  0  0  0  0
    2.2520    2.5020   -0.7440 O   0  0  0  0  0  0  0  0  0  0  0  0
    0.9710    0.2150    0.4620 C   0  0  1  0  0  0  0  0  0  0  0  0
    0.8410    0.8940    1.6620 O   0  0  0  0  0  0  0  0  0  0  0  0
   -0.0310   -0.8590    0.2780 C   0  0  0  0  0  0  0  0  0  0  0  0
   -1.4130   -0.4260    0.1170 C   0  0  0  0  0  0  0  0  0  0  0  0
   -2.2840   -0.2510    1.1650 C   0  0  0  0  0  0  0  0  0  0  0  0
   -3.5690    0.1610    0.9030 C   0  0  0  0  0  0  0  0  0  0  0  0
   -4.0310    0.4100   -0.3740 C   0  0  0  0  0  0  0  0  0  0  0  0
   -3.1610    0.2320   -1.3840 N   0  0  0  0  0  0  0  0  0  0  0  0
   -1.8830   -0.1750   -1.1550 C   0  0  0  0  0  0  0  0  0  0  0  0
    2.6000   -0.6290    0.5090 P   0  0  2  0  0  0  0  0  0  0  0  0
    3.6810    0.3880    0.7100 O   0  0  0  0  0  0  0  0  0  0  0  0
    2.8400   -1.3410   -1.0070 O   0  0  0  0  0  0  0  0  0  0  0  0
    2.6160   -1.8420    1.6610 O   0  0  0  0  0  0  0  0  0  0  0  0
  1  2  2  0
  2  3  1  6
  2  4  1  0
  2  5  1  0
  5  6  1  1
  5  7  1  0
  5 14  1  0
  7  8  1  0
  8  9  2  0
  8 13  1  0
  9 10  1  0
 10 11  2  0
 11 12  1  0
 12 13  2  0
 14 15  2  0
 14 16  1  6
 14 17  1  0
M  END
