
     RDKit          3D

 27 29  0  0  0  0  0  0  0  0999 V2000
    5.8680    3.0110   -0.9450 N   0  0  0  0  0  0  0  0  0  0  0  0
    4.8310    2.5210   -0.0750 C   0  0  0  0  0  0  0  0  0  0  0  0
    4.3830    3.0710    1.0230 N   0  0  0  0  0  0  0  0  0  0  0  0
    3.3170    2.5690    1.6830 C   0  0  0  0  0  0  0  0  0  0  0  0
    2.7190    1.5060    1.2050 N   0  0  0  0  0  0  0  0  0  0  0  0
    3.0670    0.8420    0.0980 C   0  0  0  0  0  0  0  0  0  0  0  0
    4.1960    1.3730   -0.6000 C   0  0  0  0  0  0  0  0  0  0  0  0
    4.3350    0.5660   -1.6230 N   0  0  0  0  0  0  0  0  0  0  0  0
    3.4250   -0.3990   -1.6350 C   0  0  0  0  0  0  0  0  0  0  0  0
    2.6340   -0.2490   -0.5800 N   0  0  0  0  0  0  0  0  0  0  0  0
    1.4410   -0.9160   -0.2820 C   0  0  2  0  0  0  0  0  0  0  0  0
    0.7240   -0.1970    0.7550 O   0  0  0  0  0  0  0  0  0  0  0  0
   -0.3820   -0.9800    0.7080 C   0  0  2  0  0  0  0  0  0  0  0  0
   -1.6560   -0.4530    1.2830 C   0  0  0  0  0  0  0  0  0  0  0  0
   -2.5340   -1.5310    1.0640 O   0  0  0  0  0  0  0  0  0  0  0  0
   -3.9210   -0.9230    0.3480 P   0  0  2  0  0  0  0  0  0  0  0  0
   -5.1610   -1.6430    0.6100 O   0  0  0  0  0  0  0  0  0  0  0  0
   -3.5330   -1.1120   -1.4070 O   0  0  0  0  0  0  0  0  0  0  0  0
   -3.9680    0.7570    0.5330 O   0  0  0  0  0  0  0  0  0  0  0  0
   -5.5480    1.3020    0.1020 P   0  0  2  0  0  0  0  0  0  0  0  0
   -5.5950    1.6110   -1.3660 O   0  0  0  0  0  0  0  0  0  0  0  0
   -5.9010    2.6710    1.0070 O   0  0  0  0  0  0  0  0  0  0  0  0
   -6.6090    0.0350    0.5040 O   0  0  0  0  0  0  0  0  0  0  0  0
    0.0600   -2.3490    0.9510 C   0  0  1  0  0  0  0  0  0  0  0  0
   -0.7740   -3.3340    0.4300 O   0  0  0  0  0  0  0  0  0  0  0  0
    1.3730   -2.3340    0.1030 C   0  0  1  0  0  0  0  0  0  0  0  0
    1.0920   -3.0460   -1.0850 O   0  0  0  0  0  0  0  0  0  0  0  0
  1  2  1  0
  2  3  2  0
  2  7  1  0
  3  4  1  0
  4  5  2  0
  5  6  1  0
  6  7  2  0
  6 10  1  0
  7  8  1  0
  8  9  2  0
  9 10  1  0
 11 10  1  1
 11 12  1  0
 11 26  1  0
 12 13  1  0
 13 14  1  1
 13 24  1  0
 14 15  1  0
 15 16  1  0
 16 17  2  0
 16 18  1  6
 16 19  1  0
 19 20  1  0
 20 21  2  0
 20 22  1  1
 20 23  1  0
 24 25  1  6
 24 26  1  0
 26 27  1  6
M  END
