
     RDKit          3D

 27 28  0  0  0  0  0  0  0  0999 V2000
    6.6030    1.5070   -2.1410 C   0  0  0  0  0  0  0  0  0  0  0  0
    6.2410    0.9370   -0.8600 N   0  0  0  0  0  0  0  0  0  0  0  0
    4.8850    0.8710   -0.4380 C   0  0  0  0  0  0  0  0  0  0  0  0
    4.0440    1.3350   -1.2470 O   0  0  0  0  0  0  0  0  0  0  0  0
    4.4340    0.3190    0.8220 C   0  0  0  0  0  0  0  0  0  0  0  0
    2.9970    0.2490    1.1070 C   0  0  0  0  0  0  0  0  0  0  0  0
    2.2640   -0.6120    0.1130 C   0  0  0  0  0  0  0  0  0  0  0  0
    0.8330   -0.7000    0.3710 N   0  0  0  0  0  0  0  0  0  0  0  0
   -0.0070    0.2610   -0.2340 C   0  0  0  0  0  0  0  0  0  0  0  0
    0.4880    1.1610   -0.9390 O   0  0  0  0  0  0  0  0  0  0  0  0
   -1.4560    0.2520   -0.0720 N   0  0  0  0  0  0  0  0  0  0  0  0
   -2.2600    1.2090   -0.6730 C   0  0  0  0  0  0  0  0  0  0  0  0
   -1.6170    2.0960   -1.3740 O   0  0  0  0  0  0  0  0  0  0  0  0
   -3.6800    1.3600   -0.6360 C   0  0  0  0  0  0  0  0  0  0  0  0
   -4.1570    2.4140   -1.3310 C   0  0  0  0  0  0  0  0  0  0  0  0
   -5.5600    2.6970   -1.3890 C   0  0  0  0  0  0  0  0  0  0  0  0
   -6.4510    1.9520   -0.7740 C   0  0  0  0  0  0  0  0  0  0  0  0
   -6.0120    0.8730   -0.0570 O   0  0  0  0  0  0  0  0  0  0  0  0
   -4.6450    0.5310    0.0470 C   0  0  0  0  0  0  0  0  0  0  0  0
   -4.3630   -0.5150    0.7550 C   0  0  0  0  0  0  0  0  0  0  0  0
   -5.4760   -1.2000    1.3520 O   0  0  0  0  0  0  0  0  0  0  0  0
   -5.7960   -2.4080    0.8980 O   0  0  0  0  0  0  0  0  0  0  0  0
    0.3370   -1.7450    1.2080 C   0  0  0  0  0  0  0  0  0  0  0  0
    0.7870   -3.0690    1.2080 C   0  0  0  0  0  0  0  0  0  0  0  0
    0.0490   -3.7180    2.1520 C   0  0  0  0  0  0  0  0  0  0  0  0
   -0.8220   -2.8000    2.7030 C   0  0  0  0  0  0  0  0  0  0  0  0
   -0.6020   -1.6520    2.1030 O   0  0  0  0  0  0  0  0  0  0  0  0
  1  2  1  0
  2  3  1  0
  3  4  2  0
  3  5  1  0
  5  6  1  0
  6  7  1  0
  7  8  1  0
  8  9  1  0
  8 23  1  0
  9 10  2  0
  9 11  1  0
 11 12  1  0
 12 13  2  0
 12 14  1  0
 14 15  2  0
 14 19  1  0
 15 16  1  0
 16 17  2  0
 17 18  1  0
 18 19  1  0
 19 20  2  3
 20 21  1  0
 21 22  1  0
 23 24  2  0
 23 27  1  0
 24 25  1  0
 25 26  2  0
 26 27  1  0
M  END
