
     RDKit          3D

 27 28  0  0  0  0  0  0  0  0999 V2000
   -5.0010   -1.9710   -1.6720 C   0  0  0  0  0  0  0  0  0  0  0  0
   -4.6210   -0.7580   -0.7840 C   0  0  1  0  0  0  0  0  0  0  0  0
   -5.7460   -0.4760    0.1400 C   0  0  0  0  0  0  0  0  0  0  0  0
   -5.6460    0.5520    1.0410 O   0  0  0  0  0  0  0  0  0  0  0  0
   -4.8440    0.7220    2.1230 C   0  0  0  0  0  0  0  0  0  0  0  0
   -4.0370   -0.1630    2.4320 O   0  0  0  0  0  0  0  0  0  0  0  0
   -4.9080    1.8840    2.9060 O   0  0  0  0  0  0  0  0  0  0  0  0
   -3.3750   -1.1500   -0.1160 C   0  0  0  0  0  0  0  0  0  0  0  0
   -3.1630   -2.2910    0.3680 O   0  0  0  0  0  0  0  0  0  0  0  0
   -2.3570   -0.1870   -0.0130 O   0  0  0  0  0  0  0  0  0  0  0  0
   -1.1220   -0.4410    0.6020 C   0  0  0  0  0  0  0  0  0  0  0  0
   -0.3500   -1.5640   -0.0580 C   0  0  0  0  0  0  0  0  0  0  0  0
   -0.1090   -1.2050   -1.4060 O   0  0  0  0  0  0  0  0  0  0  0  0
    0.6130   -0.0630   -1.6550 C   0  0  0  0  0  0  0  0  0  0  0  0
    1.4630    0.3460   -0.7940 N   0  0  0  0  0  0  0  0  0  0  0  0
    2.2720    1.4860   -0.9020 C   0  0  0  0  0  0  0  0  0  0  0  0
    1.8480    2.6970   -1.4440 C   0  0  0  0  0  0  0  0  0  0  0  0
    2.9170    3.5150   -1.3590 N   0  0  0  0  0  0  0  0  0  0  0  0
    3.9310    2.8410   -0.7990 C   0  0  0  0  0  0  0  0  0  0  0  0
    5.0770    3.3450   -0.5850 O   0  0  0  0  0  0  0  0  0  0  0  0
    3.5490    1.5760   -0.5070 N   0  0  0  0  0  0  0  0  0  0  0  0
    4.3840    0.6050    0.0920 C   0  0  0  0  0  0  0  0  0  0  0  0
    5.7490    0.5340   -0.0990 C   0  0  0  0  0  0  0  0  0  0  0  0
    6.5160   -0.4540    0.5260 C   0  0  0  0  0  0  0  0  0  0  0  0
    5.9060   -1.3820    1.3510 C   0  0  0  0  0  0  0  0  0  0  0  0
    4.5580   -1.3220    1.5460 C   0  0  0  0  0  0  0  0  0  0  0  0
    3.8030   -0.3330    0.9190 C   0  0  0  0  0  0  0  0  0  0  0  0
  2  1  1  6
  2  3  1  0
  2  8  1  0
  3  4  1  0
  4  5  1  0
  5  6  2  0
  5  7  1  0
  8  9  2  0
  8 10  1  0
 10 11  1  0
 11 12  1  0
 12 13  1  0
 13 14  1  0
 14 15  2  3
 15 16  1  0
 16 17  2  0
 16 21  1  0
 17 18  1  0
 18 19  1  0
 19 20  2  0
 19 21  1  0
 21 22  1  0
 22 23  2  0
 22 27  1  0
 23 24  1  0
 24 25  2  0
 25 26  1  0
 26 27  2  0
M  END
