
     RDKit          3D

 27 29  0  0  0  0  0  0  0  0999 V2000
   -5.5870    1.4670    0.1230 C   0  0  0  0  0  0  0  0  0  0  0  0
   -5.3870    2.3060   -0.9030 O   0  0  0  0  0  0  0  0  0  0  0  0
   -4.5790    2.1000   -1.9400 C   0  0  0  0  0  0  0  0  0  0  0  0
   -3.1220    1.8710   -1.6870 C   0  0  0  0  0  0  0  0  0  0  0  0
   -2.9250    0.6740   -0.9050 N   0  0  0  0  0  0  0  0  0  0  0  0
   -1.5630    0.2940   -0.5000 C   0  0  0  0  0  0  0  0  0  0  0  0
   -0.7090    1.0940   -0.9040 O   0  0  0  0  0  0  0  0  0  0  0  0
   -1.4080   -0.9140    0.2840 C   0  0  0  0  0  0  0  0  0  0  0  0
   -0.2240   -1.3770    0.7210 C   0  0  0  0  0  0  0  0  0  0  0  0
    0.9020   -0.6460    0.3950 N   0  0  0  0  0  0  0  0  0  0  0  0
    2.2530   -0.8010    0.6560 C   0  0  0  0  0  0  0  0  0  0  0  0
    2.7420   -1.6990    1.2890 O   0  0  0  0  0  0  0  0  0  0  0  0
    3.2280    0.2150    0.1250 C   0  0  0  0  0  0  0  0  0  0  0  0
    4.3670    0.4890    0.8420 C   0  0  0  0  0  0  0  0  0  0  0  0
    5.2440    1.4250    0.3050 C   0  0  0  0  0  0  0  0  0  0  0  0
    4.9470    2.0280   -0.8970 C   0  0  0  0  0  0  0  0  0  0  0  0
    5.8270    2.9590   -1.4240 O   0  0  0  0  0  0  0  0  0  0  0  0
    6.9300    2.6380   -2.1020 O   0  0  0  0  0  0  0  0  0  0  0  0
    3.8070    1.7510   -1.6110 C   0  0  0  0  0  0  0  0  0  0  0  0
    2.9260    0.8100   -1.0690 C   0  0  0  0  0  0  0  0  0  0  0  0
   -0.2210   -2.6300    1.5150 C   0  0  0  0  0  0  0  0  0  0  0  0
    0.7660   -3.3790    2.1100 C   0  0  0  0  0  0  0  0  0  0  0  0
    0.1350   -4.4660    2.7220 C   0  0  0  0  0  0  0  0  0  0  0  0
   -1.1640   -4.3700    2.5040 N   0  0  0  0  0  0  0  0  0  0  0  0
   -1.4370   -3.2660    1.7710 C   0  0  0  0  0  0  0  0  0  0  0  0
   -2.6410   -2.7600    1.3040 O   0  0  0  0  0  0  0  0  0  0  0  0
   -2.5650   -1.6380    0.6020 O   0  0  0  0  0  0  0  0  0  0  0  0
  1  2  1  0
  2  3  1  0
  3  4  1  0
  4  5  1  0
  5  6  1  0
  6  7  2  0
  6  8  1  0
  8  9  2  0
  8 27  1  0
  9 10  1  0
  9 21  1  0
 10 11  1  0
 11 12  2  0
 11 13  1  0
 13 14  2  0
 13 20  1  0
 14 15  1  0
 15 16  2  0
 16 17  1  0
 16 19  1  0
 17 18  1  0
 19 20  2  0
 21 22  1  0
 21 25  2  0
 22 23  2  0
 23 24  1  0
 24 25  1  0
 25 26  1  0
 26 27  1  0
M  END
