
     RDKit          3D

 27 28  0  0  0  0  0  0  0  0999 V2000
    5.0580   -1.7400   -0.3390 C   0  0  0  0  0  0  0  0  0  0  0  0
    3.5780   -1.8100   -0.0360 C   0  0  1  0  0  0  0  0  0  0  0  0
    3.0480   -0.5420    0.5380 C   0  0  0  0  0  0  0  0  0  0  0  0
    2.9370    0.5710   -0.3060 N   0  0  0  0  0  0  0  0  0  0  0  0
    4.0780    1.2250   -0.7920 C   0  0  0  0  0  0  0  0  0  0  0  0
    4.8520    1.9550    0.2700 C   0  0  0  0  0  0  0  0  0  0  0  0
    4.0360    2.9200    0.8560 O   0  0  0  0  0  0  0  0  0  0  0  0
    4.6640    3.5880    1.7920 O   0  0  0  0  0  0  0  0  0  0  0  0
    2.8380   -2.2950   -1.0780 O   0  0  0  0  0  0  0  0  0  0  0  0
    2.2450   -3.5100   -0.9190 C   0  0  0  0  0  0  0  0  0  0  0  0
    1.2430   -3.6150    0.1900 C   0  0  0  0  0  0  0  0  0  0  0  0
    0.1230   -2.6690   -0.0330 C   0  0  0  0  0  0  0  0  0  0  0  0
    0.1550   -1.9450   -1.0580 O   0  0  0  0  0  0  0  0  0  0  0  0
   -0.9460   -2.5510    0.8330 O   0  0  0  0  0  0  0  0  0  0  0  0
   -1.9570   -1.6450    0.5650 C   0  0  0  0  0  0  0  0  0  0  0  0
   -3.0290   -1.9450   -0.1470 C   0  0  0  0  0  0  0  0  0  0  0  0
   -3.9770   -0.9710   -0.3570 O   0  0  0  0  0  0  0  0  0  0  0  0
   -3.8730    0.3240    0.1400 C   0  0  0  0  0  0  0  0  0  0  0  0
   -4.9370    1.2780   -0.1430 C   0  0  0  0  0  0  0  0  0  0  0  0
   -6.0440    0.9320   -0.9000 C   0  0  0  0  0  0  0  0  0  0  0  0
   -7.0660    1.7930   -1.1850 C   0  0  0  0  0  0  0  0  0  0  0  0
   -6.9980    3.0820   -0.6950 C   0  0  0  0  0  0  0  0  0  0  0  0
   -8.0190    3.9900   -0.9630 O   0  0  0  0  0  0  0  0  0  0  0  0
   -5.8970    3.4620    0.0710 C   0  0  0  0  0  0  0  0  0  0  0  0
   -4.8960    2.5660    0.3320 C   0  0  0  0  0  0  0  0  0  0  0  0
   -2.8520    0.6380    0.8260 N   0  0  0  0  0  0  0  0  0  0  0  0
   -1.8450   -0.3290    1.0730 N   0  0  0  0  0  0  0  0  0  0  0  0
  2  1  1  6
  2  3  1  0
  2  9  1  0
  3  4  1  0
  4  5  1  0
  5  6  1  0
  6  7  1  0
  7  8  1  0
  9 10  1  0
 10 11  1  0
 11 12  1  0
 12 13  2  0
 12 14  1  0
 14 15  1  0
 15 16  2  0
 15 27  1  0
 16 17  1  0
 17 18  1  0
 18 19  1  0
 18 26  2  0
 19 20  2  0
 19 25  1  0
 20 21  1  0
 21 22  2  0
 22 23  1  0
 22 24  1  0
 24 25  2  0
 26 27  1  0
M  END
