
     RDKit          3D

 27 27  0  0  0  0  0  0  0  0999 V2000
   -0.9740   -1.6110   -4.0390 C   0  0  0  0  0  0  0  0  0  0  0  0
   -0.0210   -0.8530   -3.4290 C   0  0  0  0  0  0  0  0  0  0  0  0
    1.2660   -0.8770   -4.0470 C   0  0  0  0  0  0  0  0  0  0  0  0
    2.3420   -0.2460   -3.6670 C   0  0  0  0  0  0  0  0  0  0  0  0
    2.3870    0.5620   -2.5750 O   0  0  0  0  0  0  0  0  0  0  0  0
   -0.4710   -0.1520   -2.2590 C   0  0  0  0  0  0  0  0  0  0  0  0
   -1.7040   -0.3100   -1.9160 O   0  0  0  0  0  0  0  0  0  0  0  0
    0.2380    0.6830   -1.4320 O   0  0  0  0  0  0  0  0  0  0  0  0
   -0.3270    1.3040   -0.3210 C   0  0  0  0  0  0  0  0  0  0  0  0
   -0.9590    2.6130   -0.4100 C   0  0  0  0  0  0  0  0  0  0  0  0
   -1.0210    3.2530   -1.5260 N   0  0  0  0  0  0  0  0  0  0  0  0
   -1.6410    4.5390   -1.6150 C   0  0  0  0  0  0  0  0  0  0  0  0
   -2.9190    4.3930   -2.3570 C   0  0  0  0  0  0  0  0  0  0  0  0
   -3.6060    5.4340   -2.5340 O   0  0  0  0  0  0  0  0  0  0  0  0
   -3.3620    3.1900   -2.8440 O   0  0  0  0  0  0  0  0  0  0  0  0
   -0.2510    0.6160    0.8330 C   0  0  0  0  0  0  0  0  0  0  0  0
    0.3720   -0.6730    0.9160 C   0  0  0  0  0  0  0  0  0  0  0  0
    0.5110   -1.4280    1.9450 C   0  0  0  0  0  0  0  0  0  0  0  0
    1.1710   -2.7170    1.8700 N   0  0  0  0  0  0  0  0  0  0  0  0
    2.3530   -2.8770    2.6260 C   0  0  0  0  0  0  0  0  0  0  0  0
    3.0900   -4.1110    2.6340 N   0  0  0  0  0  0  0  0  0  0  0  0
    2.7710   -1.9250    3.3040 O   0  0  0  0  0  0  0  0  0  0  0  0
    0.0310   -1.0830    3.2710 C   0  0  0  0  0  0  0  0  0  0  0  0
    0.0860   -1.8360    4.4480 C   0  0  0  0  0  0  0  0  0  0  0  0
   -0.4900   -1.1080    5.4610 C   0  0  0  0  0  0  0  0  0  0  0  0
   -0.8820    0.0690    4.8720 C   0  0  0  0  0  0  0  0  0  0  0  0
   -0.5550    0.0340    3.5920 O   0  0  0  0  0  0  0  0  0  0  0  0
  1  2  2  0
  2  3  1  0
  2  6  1  0
  3  4  2  3
  4  5  1  0
  6  7  2  0
  6  8  1  0
  8  9  1  0
  9 10  1  0
  9 16  2  3
 10 11  2  3
 11 12  1  0
 12 13  1  0
 13 14  2  0
 13 15  1  0
 16 17  1  0
 17 18  2  3
 18 19  1  0
 18 23  1  0
 19 20  1  0
 20 21  1  0
 20 22  2  0
 23 24  2  0
 23 27  1  0
 24 25  1  0
 25 26  2  0
 26 27  1  0
M  END
