
     RDKit          3D

 30 32  0  0  0  0  0  0  0  0999 V2000
    7.6950   -2.6650   -1.0430 C   0  0  0  0  0  0  0  0  0  0  0  0
    6.5640   -1.9910   -0.9580 C   0  0  0  0  0  0  0  0  0  0  0  0
    5.9070   -1.8280    0.3450 C   0  0  2  0  0  0  0  0  0  0  0  0
    5.8480   -3.0970    0.9590 O   0  0  0  0  0  0  0  0  0  0  0  0
    4.5020   -1.2880    0.1760 C   0  0  0  0  0  0  0  0  0  0  0  0
    4.4230   -0.1340   -0.7260 C   0  0  0  0  0  0  0  0  0  0  0  0
    3.4940    0.7510   -0.6560 C   0  0  0  0  0  0  0  0  0  0  0  0
    2.4310    0.6880    0.3260 C   0  0  0  0  0  0  0  0  0  0  0  0
    1.4790    1.6010    0.3990 C   0  0  0  0  0  0  0  0  0  0  0  0
    1.4120    2.7700   -0.5150 C   0  0  0  0  0  0  0  0  0  0  0  0
    0.2670    3.6300   -0.0010 C   0  0  0  0  0  0  0  0  0  0  0  0
   -1.0500    2.8360    0.0510 C   0  0  0  0  0  0  0  0  0  0  0  0
   -0.9090    1.4810    0.6370 C   0  0  2  0  0  0  0  0  0  0  0  0
   -0.8290    0.3940   -0.4210 C   0  0  0  0  0  0  0  0  0  0  0  0
   -1.8500    1.0820    1.6810 C   0  0  0  0  0  0  0  0  0  0  0  0
   -3.1650    1.1630    1.7690 C   0  0  0  0  0  0  0  0  0  0  0  0
   -3.8550    0.6510    3.0110 C   0  0  0  0  0  0  0  0  0  0  0  0
   -3.9700    1.7260    0.6510 C   0  0  0  0  0  0  0  0  0  0  0  0
   -5.0020    0.7210    0.1630 C   0  0  0  0  0  0  0  0  0  0  0  0
   -4.3690   -0.5370   -0.3320 C   0  0  0  0  0  0  0  0  0  0  0  0
   -5.3910   -1.5140   -0.8060 C   0  0  2  0  0  0  0  0  0  0  0  0
   -6.3680   -1.9310    0.2500 C   0  0  0  0  0  0  0  0  0  0  0  0
   -4.7460   -2.7840   -1.3420 C   0  0  0  0  0  0  0  0  0  0  0  0
   -6.1390   -0.9760   -1.8760 O   0  0  0  0  0  0  0  0  0  0  0  0
   -1.0410    0.4550    2.8050 C   0  0  0  0  0  0  0  0  0  0  0  0
    0.3360    0.2270    2.1580 C   0  0  0  0  0  0  0  0  0  0  0  0
    0.4320    1.5040    1.3970 C   0  0  1  0  0  0  0  0  0  0  0  0
    5.4800   -0.0100   -1.7730 C   0  0  0  0  0  0  0  0  0  0  0  0
    5.9720   -1.4040   -2.1760 C   0  0  1  0  0  0  0  0  0  0  0  0
    6.9110   -1.2130   -3.1920 O   0  0  0  0  0  0  0  0  0  0  0  0
  1  2  2  0
  2  3  1  0
  2 29  1  0
  3  4  1  6
  3  5  1  0
  5  6  1  0
  6  7  2  3
  6 28  1  0
  7  8  1  0
  8  9  2  3
  9 10  1  0
  9 27  1  0
 10 11  1  0
 11 12  1  0
 12 13  1  0
 13 14  1  6
 13 15  1  0
 13 27  1  0
 15 16  2  3
 15 25  1  0
 16 17  1  0
 16 18  1  0
 18 19  1  0
 19 20  1  0
 20 21  1  0
 21 22  1  1
 21 23  1  0
 21 24  1  0
 25 26  1  0
 27 26  1  6
 28 29  1  0
 29 30  1  6
M  END
