
     RDKit          3D

 30 32  0  0  0  0  0  0  0  0999 V2000
    1.2890    2.7480    2.9810 C   0  0  0  0  0  0  0  0  0  0  0  0
    0.9210    1.3250    2.5760 C   0  0  2  0  0  0  0  0  0  0  0  0
    2.1390    0.4770    2.6840 C   0  0  2  0  0  0  0  0  0  0  0  0
    2.7990    0.7130    3.8990 O   0  0  0  0  0  0  0  0  0  0  0  0
    3.1320    0.7100    1.5920 C   0  0  0  0  0  0  0  0  0  0  0  0
    2.4380    0.4690    0.2690 C   0  0  2  0  0  0  0  0  0  0  0  0
    3.3550    0.4160   -0.8400 N   0  0  0  0  0  0  0  0  0  0  0  0
    3.5620   -0.7270   -1.6460 C   0  0  0  0  0  0  0  0  0  0  0  0
    2.9330   -1.7680   -1.4120 O   0  0  0  0  0  0  0  0  0  0  0  0
    4.5220   -0.7050   -2.7700 C   0  0  0  0  0  0  0  0  0  0  0  0
    5.3080    0.2750   -3.2240 C   0  0  0  0  0  0  0  0  0  0  0  0
    6.1120    0.0790   -4.2720 C   0  0  0  0  0  0  0  0  0  0  0  0
    6.0730   -1.1920   -4.8470 C   0  0  0  0  0  0  0  0  0  0  0  0
    4.8570   -2.0270   -3.8130 S   0  0  0  0  0  0  0  0  0  0  0  0
    1.3870    1.5220    0.1130 C   0  0  0  0  0  0  0  0  0  0  0  0
    0.3420    1.3850    1.1890 C   0  0  1  0  0  0  0  0  0  0  0  0
   -0.5480    0.2890    0.9720 N   0  0  0  0  0  0  0  0  0  0  0  0
   -1.9470    0.5250    0.7280 C   0  0  0  0  0  0  0  0  0  0  0  0
   -2.2890    1.7270    0.7240 O   0  0  0  0  0  0  0  0  0  0  0  0
   -2.8540   -0.5890    0.5080 C   0  0  0  0  0  0  0  0  0  0  0  0
   -4.1440   -0.4550    0.2830 C   0  0  0  0  0  0  0  0  0  0  0  0
   -4.8810    0.8050    0.2140 C   0  0  0  0  0  0  0  0  0  0  0  0
   -5.5050    0.9740   -1.1450 C   0  0  0  0  0  0  0  0  0  0  0  0
   -6.1610    2.0080   -1.3580 O   0  0  0  0  0  0  0  0  0  0  0  0
   -5.3590    0.0250   -2.1230 O   0  0  0  0  0  0  0  0  0  0  0  0
   -4.9070   -1.7310    0.0900 C   0  0  2  0  0  0  0  0  0  0  0  0
   -5.1830   -2.4450    1.7290 S   0  0  0  0  0  0  0  0  0  0  0  0
   -4.1550   -2.7030   -0.7550 C   0  0  0  0  0  0  0  0  0  0  0  0
   -2.8150   -2.9570   -0.1290 C   0  0  0  0  0  0  0  0  0  0  0  0
   -2.2740   -1.8680    0.5490 O   0  0  0  0  0  0  0  0  0  0  0  0
  2  1  1  6
  2  3  1  0
  2 16  1  0
  3  4  1  1
  3  5  1  0
  5  6  1  0
  6  7  1  6
  6 15  1  0
  7  8  1  0
  8  9  2  0
  8 10  1  0
 10 11  2  0
 10 14  1  0
 11 12  1  0
 12 13  2  0
 13 14  1  0
 15 16  1  0
 16 17  1  6
 17 18  1  0
 18 19  2  0
 18 20  1  0
 20 21  2  0
 20 30  1  0
 21 22  1  0
 21 26  1  0
 22 23  1  0
 23 24  2  0
 23 25  1  0
 26 27  1  1
 26 28  1  0
 28 29  1  0
 29 30  1  0
M  END
