
     RDKit          3D

 30 32  0  0  0  0  0  0  0  0999 V2000
   -3.2140    1.5340   -2.9720 C   0  0  0  0  0  0  0  0  0  0  0  0
   -2.7730    1.6900   -1.5610 C   0  0  1  0  0  0  0  0  0  0  0  0
   -3.8530    2.3300   -0.6760 C   0  0  0  0  0  0  0  0  0  0  0  0
   -3.1150    1.9540    0.9700 S   0  0  0  0  0  0  0  0  0  0  0  0
   -1.9990    0.6180    0.4570 C   0  0  1  0  0  0  0  0  0  0  0  0
   -0.6060    1.1700    0.2780 C   0  0  0  0  0  0  0  0  0  0  0  0
   -0.3250    2.3200    0.7030 O   0  0  0  0  0  0  0  0  0  0  0  0
    0.3650    0.3910   -0.3610 N   0  0  0  0  0  0  0  0  0  0  0  0
    1.7200    0.7480   -0.6120 C   0  0  0  0  0  0  0  0  0  0  0  0
    2.2590    1.9980   -0.4470 C   0  0  0  0  0  0  0  0  0  0  0  0
    3.6060    2.2520   -0.7020 C   0  0  0  0  0  0  0  0  0  0  0  0
    4.4810    1.2560   -1.1370 C   0  0  0  0  0  0  0  0  0  0  0  0
    5.8610    1.6300   -1.3440 C   0  0  0  0  0  0  0  0  0  0  0  0
    6.7610    0.8500   -1.7030 O   0  0  0  0  0  0  0  0  0  0  0  0
    6.2640    2.9570   -1.1380 O   0  0  0  0  0  0  0  0  0  0  0  0
    3.9520    0.0040   -1.3060 C   0  0  0  0  0  0  0  0  0  0  0  0
    4.7920   -1.0420   -1.7730 N   0  0  0  0  0  0  0  0  0  0  0  0
    4.5630   -2.6830   -1.2990 S   0  0  1  0  0  0  0  0  0  0  0  0
    4.7680   -2.7470    0.4670 C   0  0  0  0  0  0  0  0  0  0  0  0
    3.2580   -3.2420   -1.7470 O   0  0  0  0  0  0  0  0  0  0  0  0
    5.6720   -3.5170   -1.9150 O   0  0  0  0  0  0  0  0  0  0  0  0
    2.6160   -0.2300   -1.0490 C   0  0  0  0  0  0  0  0  0  0  0  0
   -2.0240   -0.5620    1.3250 C   0  0  1  0  0  0  0  0  0  0  0  0
   -1.1590   -1.5750    0.9020 O   0  0  0  0  0  0  0  0  0  0  0  0
   -1.5770   -0.1450    2.7410 C   0  0  0  0  0  0  0  0  0  0  0  0
   -3.0360   -0.2220    3.1400 C   0  0  0  0  0  0  0  0  0  0  0  0
   -3.2440   -1.0890    1.9250 C   0  0  1  0  0  0  0  0  0  0  0  0
   -4.5710   -0.9730    1.2580 C   0  0  0  0  0  0  0  0  0  0  0  0
   -3.0490   -2.5550    2.3610 C   0  0  0  0  0  0  0  0  0  0  0  0
   -2.5190    0.3200   -0.9230 C   0  0  0  0  0  0  0  0  0  0  0  0
  2  1  1  6
  2  3  1  0
  2 30  1  0
  3  4  1  0
  4  5  1  0
  5  6  1  6
  5 23  1  0
  5 30  1  0
  6  7  2  0
  6  8  1  0
  8  9  1  0
  9 10  2  0
  9 22  1  0
 10 11  1  0
 11 12  2  0
 12 13  1  0
 12 16  1  0
 13 14  2  0
 13 15  1  0
 16 17  1  0
 16 22  2  0
 17 18  1  0
 18 19  1  1
 18 20  2  0
 18 21  2  0
 23 24  1  6
 23 25  1  0
 23 27  1  0
 25 26  1  0
 26 27  1  0
 27 28  1  6
 27 29  1  0
M  END
