
     RDKit          3D

 30 32  0  0  0  0  0  0  0  0999 V2000
    6.1400    1.1020   -0.9300 C   0  0  0  0  0  0  0  0  0  0  0  0
    6.0090   -0.3630   -1.2550 C   0  0  0  0  0  0  0  0  0  0  0  0
    5.2870   -1.0850   -0.1770 C   0  0  0  0  0  0  0  0  0  0  0  0
    3.9040   -0.6020    0.0510 C   0  0  0  0  0  0  0  0  0  0  0  0
    3.7590    1.1220    0.5440 S   0  0  0  0  0  0  0  0  0  0  0  0
    1.9540    1.4510    0.7550 C   0  0  2  0  0  0  0  0  0  0  0  0
    1.4300    0.7080    1.8460 N   0  0  0  0  0  0  0  0  0  0  0  0
    0.2240    0.0700    2.0670 C   0  0  0  0  0  0  0  0  0  0  0  0
    0.3260   -1.2100    2.2810 O   0  0  0  0  0  0  0  0  0  0  0  0
   -1.1100    0.5500    2.1040 N   0  0  0  0  0  0  0  0  0  0  0  0
   -1.6380    1.7600    1.6560 C   0  0  0  0  0  0  0  0  0  0  0  0
   -2.1910    2.5430    2.5220 O   0  0  0  0  0  0  0  0  0  0  0  0
   -1.6800    2.3340    0.2980 C   0  0  2  0  0  0  0  0  0  0  0  0
   -0.8950    3.6070    0.1050 C   0  0  0  0  0  0  0  0  0  0  0  0
   -3.1330    2.4970   -0.2600 C   0  0  0  0  0  0  0  0  0  0  0  0
   -2.1810    1.4980   -0.7730 C   0  0  2  0  0  0  0  0  0  0  0  0
   -2.4390    0.0760   -0.4910 C   0  0  0  0  0  0  0  0  0  0  0  0
   -3.7230   -0.2950   -0.0910 C   0  0  0  0  0  0  0  0  0  0  0  0
   -4.0780   -1.6000    0.1940 C   0  0  0  0  0  0  0  0  0  0  0  0
   -5.4760   -1.9480    0.6220 C   0  0  0  0  0  0  0  0  0  0  0  0
   -3.1430   -2.6020    0.0860 C   0  0  0  0  0  0  0  0  0  0  0  0
   -3.6020   -4.2490    0.4480 S   0  0  2  0  0  0  0  0  0  0  0  0
   -5.0320   -4.4600    0.1220 O   0  0  0  0  0  0  0  0  0  0  0  0
   -3.3690   -4.4930    1.8950 O   0  0  0  0  0  0  0  0  0  0  0  0
   -1.8700   -2.2790   -0.3050 C   0  0  0  0  0  0  0  0  0  0  0  0
   -1.5240   -0.9470   -0.5900 C   0  0  0  0  0  0  0  0  0  0  0  0
   -0.0990   -0.7660   -1.0020 C   0  0  0  0  0  0  0  0  0  0  0  0
    0.2370    0.5680   -0.9070 O   0  0  0  0  0  0  0  0  0  0  0  0
    1.3550    1.2390   -0.5750 C   0  0  0  0  0  0  0  0  0  0  0  0
    2.0470    1.8040   -1.4990 O   0  0  0  0  0  0  0  0  0  0  0  0
  1  2  1  0
  2  3  1  0
  3  4  1  0
  4  5  1  0
  6  5  1  6
  6  7  1  0
  6 29  1  0
  7  8  1  0
  8  9  2  0
  8 10  1  0
 10 11  1  0
 11 12  2  0
 11 13  1  0
 13 14  1  6
 13 15  1  0
 13 16  1  0
 16 15  1  1
 16 17  1  0
 17 18  2  0
 17 26  1  0
 18 19  1  0
 19 20  1  0
 19 21  2  0
 22 21  1  1
 21 25  1  0
 22 23  2  0
 22 24  2  0
 25 26  2  0
 26 27  1  0
 27 28  1  0
 28 29  1  0
 29 30  2  0
M  END
