
     RDKit          3D

 30 32  0  0  0  0  0  0  0  0999 V2000
    7.4890   -1.0330    2.0550 C   0  0  0  0  0  0  0  0  0  0  0  0
    6.4770   -1.6710    1.1260 C   0  0  2  0  0  0  0  0  0  0  0  0
    7.1250   -2.6700    0.2260 C   0  0  0  0  0  0  0  0  0  0  0  0
    7.4040   -1.5800   -1.2420 S   0  0  0  0  0  0  0  0  0  0  0  0
    6.0290   -0.5000   -0.9110 C   0  0  0  0  0  0  0  0  0  0  0  0
    5.3670    0.3820   -1.7060 C   0  0  0  0  0  0  0  0  0  0  0  0
    4.2800    1.1220   -1.2090 C   0  0  0  0  0  0  0  0  0  0  0  0
    3.5880    2.0280   -1.9980 O   0  0  0  0  0  0  0  0  0  0  0  0
    3.9130    0.9270    0.0930 C   0  0  0  0  0  0  0  0  0  0  0  0
    2.5480    1.8440    0.7490 S   0  0  2  0  0  0  0  0  0  0  0  0
    2.8260    3.3110    0.6310 O   0  0  0  0  0  0  0  0  0  0  0  0
    2.3680    1.4780    2.1840 O   0  0  0  0  0  0  0  0  0  0  0  0
    1.1170    1.4850   -0.1620 N   0  0  0  0  0  0  0  0  0  0  0  0
    0.7800    0.0780   -0.0670 C   0  0  0  0  0  0  0  0  0  0  0  0
   -0.4730   -0.1810   -0.8770 C   0  0  1  0  0  0  0  0  0  0  0  0
   -0.7810   -1.6590   -0.7500 C   0  0  0  0  0  0  0  0  0  0  0  0
   -2.2840   -1.9050   -0.7420 C   0  0  0  0  0  0  0  0  0  0  0  0
   -2.8900   -0.8470   -1.6520 C   0  0  2  0  0  0  0  0  0  0  0  0
   -2.3120   -0.8360   -2.9010 O   0  0  0  0  0  0  0  0  0  0  0  0
   -2.6840    0.4910   -0.9820 C   0  0  1  0  0  0  0  0  0  0  0  0
   -3.7690    0.7910   -0.0160 C   0  0  0  0  0  0  0  0  0  0  0  0
   -3.5130    1.0890    1.1710 O   0  0  0  0  0  0  0  0  0  0  0  0
   -5.1090    0.7280   -0.4820 N   0  0  0  0  0  0  0  0  0  0  0  0
   -6.1690    1.0140    0.4360 C   0  0  2  0  0  0  0  0  0  0  0  0
   -6.1190    0.0340    1.5870 C   0  0  0  0  0  0  0  0  0  0  0  0
   -7.5100    0.8870   -0.2430 C   0  0  0  0  0  0  0  0  0  0  0  0
   -6.0780    2.4000    1.0290 C   0  0  0  0  0  0  0  0  0  0  0  0
   -1.4820    0.6060   -0.3370 O   0  0  0  0  0  0  0  0  0  0  0  0
    4.6010    0.0330    0.8610 C   0  0  0  0  0  0  0  0  0  0  0  0
    5.6840   -0.7110    0.3830 C   0  0  0  0  0  0  0  0  0  0  0  0
  2  1  1  6
  2  3  1  0
  2 30  1  0
  3  4  1  0
  4  5  1  0
  5  6  2  0
  5 30  1  0
  6  7  1  0
  7  8  1  0
  7  9  2  0
  9 10  1  0
  9 29  1  0
 10 11  2  0
 10 12  2  0
 10 13  1  6
 13 14  1  0
 15 14  1  1
 15 16  1  0
 15 28  1  0
 16 17  1  0
 17 18  1  0
 18 19  1  6
 18 20  1  0
 20 21  1  1
 20 28  1  0
 21 22  2  0
 21 23  1  0
 23 24  1  0
 24 25  1  1
 24 26  1  0
 24 27  1  0
 29 30  2  0
M  END
