
     RDKit          3D

 30 33  0  0  0  0  0  0  0  0999 V2000
   -2.0540    3.1400   -1.5440 N   0  0  0  0  0  0  0  0  0  0  0  0
   -2.7740    2.1900   -1.0110 C   0  0  0  0  0  0  0  0  0  0  0  0
   -3.5160    1.2220   -0.4420 C   0  0  1  0  0  0  0  0  0  0  0  0
   -4.5150    1.7970    0.6070 C   0  0  0  0  0  0  0  0  0  0  0  0
   -5.2810    2.8060   -0.1300 N   0  0  0  0  0  0  0  0  0  0  0  0
   -4.0500    0.1700   -1.3240 C   0  0  0  0  0  0  0  0  0  0  0  0
   -2.7440   -0.3680   -1.7420 O   0  0  0  0  0  0  0  0  0  0  0  0
   -2.1680   -0.6510   -0.5200 N   0  0  0  0  0  0  0  0  0  0  0  0
   -1.5160   -1.8180   -0.1140 C   0  0  0  0  0  0  0  0  0  0  0  0
   -2.4090   -2.8800    0.1440 C   0  0  0  0  0  0  0  0  0  0  0  0
   -1.9240   -4.0350    0.5810 C   0  0  0  0  0  0  0  0  0  0  0  0
   -0.5690   -4.2090    0.7800 C   0  0  0  0  0  0  0  0  0  0  0  0
    0.0100   -5.8090    1.2580 Cl  0  0  0  0  0  0  0  0  0  0  0  0
    0.2100   -3.1740    0.5100 C   0  0  0  0  0  0  0  0  0  0  0  0
   -0.2720   -1.8990    0.0280 C   0  0  0  0  0  0  0  0  0  0  0  0
    0.8850   -1.0410   -0.3690 C   0  0  0  0  0  0  0  0  0  0  0  0
    1.7080   -0.4390    0.5510 C   0  0  0  0  0  0  0  0  0  0  0  0
    3.0780   -0.3140    0.2380 C   0  0  0  0  0  0  0  0  0  0  0  0
    4.0540    0.2030    1.2240 C   0  0  0  0  0  0  0  0  0  0  0  0
    4.8280    1.4100    0.8070 C   0  0  0  0  0  0  0  0  0  0  0  0
    5.6760    2.0360    1.6360 N   0  0  0  0  0  0  0  0  0  0  0  0
    6.2550    3.0130    0.9880 C   0  0  0  0  0  0  0  0  0  0  0  0
    5.7750    3.0380   -0.2910 C   0  0  0  0  0  0  0  0  0  0  0  0
    4.8770    2.0110   -0.4060 N   0  0  0  0  0  0  0  0  0  0  0  0
    3.5760   -0.7640   -0.9500 C   0  0  0  0  0  0  0  0  0  0  0  0
    4.9610   -0.8200   -1.1370 F   0  0  0  0  0  0  0  0  0  0  0  0
    2.7670   -1.3200   -1.8940 C   0  0  0  0  0  0  0  0  0  0  0  0
    1.4040   -1.4550   -1.5970 C   0  0  0  0  0  0  0  0  0  0  0  0
    0.2750   -2.0780   -2.7940 Cl  0  0  0  0  0  0  0  0  0  0  0  0
   -2.5030    0.3790    0.4910 C   0  0  0  0  0  0  0  0  0  0  0  0
  1  2  3  0
  3  2  1  6
  3  4  1  0
  3  6  1  0
  3 30  1  0
  4  5  1  0
  6  7  1  0
  7  8  1  0
  8  9  1  0
  8 30  1  0
  9 10  2  0
  9 15  1  0
 10 11  1  0
 11 12  2  0
 12 13  1  0
 12 14  1  0
 14 15  2  0
 15 16  1  0
 16 17  2  0
 16 28  1  0
 17 18  1  0
 18 19  1  0
 18 25  2  0
 19 20  1  0
 20 21  2  0
 20 24  1  0
 21 22  1  0
 22 23  2  0
 23 24  1  0
 25 26  1  0
 25 27  1  0
 27 28  2  0
 28 29  1  0
M  CHG  1   5   1
M  END
