
     RDKit          3D

 30 33  0  0  0  0  0  0  0  0999 V2000
   -3.0320    2.2100   -0.0300 C   0  0  0  0  0  0  0  0  0  0  0  0
   -4.0050    1.4360    0.3620 C   0  0  0  0  0  0  0  0  0  0  0  0
   -4.3670    0.1440   -0.1520 C   0  0  0  0  0  0  0  0  0  0  0  0
   -5.4560   -0.4390    0.4130 C   0  0  0  0  0  0  0  0  0  0  0  0
   -6.0640   -1.9860   -0.0580 Cl  0  0  0  0  0  0  0  0  0  0  0  0
   -6.2730    0.4300    1.6790 Cl  0  0  0  0  0  0  0  0  0  0  0  0
   -3.6060   -0.5650   -1.1730 C   0  0  1  0  0  0  0  0  0  0  0  0
   -3.4910    0.2180   -2.3910 N   0  0  0  0  0  0  0  0  0  0  0  0
   -2.2910   -1.1420   -0.8160 C   0  0  2  0  0  0  0  0  0  0  0  0
   -2.3630   -2.1780    0.2900 C   0  0  0  0  0  0  0  0  0  0  0  0
   -1.9520   -1.3730    1.5090 C   0  0  0  0  0  0  0  0  0  0  0  0
   -1.0200   -0.3460    0.9230 C   0  0  0  0  0  0  0  0  0  0  0  0
   -1.2230   -0.2880   -0.4880 N   0  0  0  0  0  0  0  0  0  0  0  0
   -0.0220   -0.7080   -1.1690 C   0  0  0  0  0  0  0  0  0  0  0  0
    1.1620    0.1260   -0.8600 C   0  0  0  0  0  0  0  0  0  0  0  0
    1.3270    1.4570   -1.1080 N   0  0  0  0  0  0  0  0  0  0  0  0
    2.5450    1.8390   -0.6840 C   0  0  0  0  0  0  0  0  0  0  0  0
    3.2090    3.0240   -0.6850 N   0  0  0  0  0  0  0  0  0  0  0  0
    4.4520    3.1320   -0.1850 C   0  0  0  0  0  0  0  0  0  0  0  0
    5.1860    4.4450   -0.1880 C   0  0  0  0  0  0  0  0  0  0  0  0
    5.0290    1.9910    0.3330 C   0  0  0  0  0  0  0  0  0  0  0  0
    4.3820    0.7730    0.3500 C   0  0  0  0  0  0  0  0  0  0  0  0
    4.9390   -0.3490    0.8540 F   0  0  0  0  0  0  0  0  0  0  0  0
    3.1130    0.6940   -0.1690 C   0  0  0  0  0  0  0  0  0  0  0  0
    2.2690   -0.3600   -0.2750 N   0  0  0  0  0  0  0  0  0  0  0  0
    2.5380   -1.7120    0.1570 C   0  0  0  0  0  0  0  0  0  0  0  0
    2.4450   -2.2590    1.3970 C   0  0  0  0  0  0  0  0  0  0  0  0
    2.8190   -3.5910    1.2480 C   0  0  0  0  0  0  0  0  0  0  0  0
    3.1210   -3.8260   -0.0180 O   0  0  0  0  0  0  0  0  0  0  0  0
    2.9630   -2.7250   -0.6950 C   0  0  0  0  0  0  0  0  0  0  0  0
  1  2  2  0
  2  3  1  0
  3  4  2  3
  3  7  1  0
  4  5  1  0
  4  6  1  0
  7  8  1  6
  7  9  1  0
  9 10  1  1
  9 13  1  0
 10 11  1  0
 11 12  1  0
 12 13  1  0
 13 14  1  0
 14 15  1  0
 15 16  2  0
 15 25  1  0
 16 17  1  0
 17 18  2  0
 17 24  1  0
 18 19  1  0
 19 20  1  0
 19 21  2  0
 21 22  1  0
 22 23  1  0
 22 24  2  0
 24 25  1  0
 25 26  1  0
 26 27  1  0
 26 30  2  0
 27 28  2  0
 28 29  1  0
 29 30  1  0
M  CHG  1   8   1
M  END
