
     RDKit          3D

 30 33  0  0  0  0  0  0  0  0999 V2000
    4.3510    3.0700    0.8130 C   0  0  0  0  0  0  0  0  0  0  0  0
    4.0000    1.7700    0.3830 O   0  0  0  0  0  0  0  0  0  0  0  0
    4.8130    1.0610   -0.4920 C   0  0  0  0  0  0  0  0  0  0  0  0
    5.9920    1.6270   -0.9580 C   0  0  0  0  0  0  0  0  0  0  0  0
    6.8040    0.9270   -1.8280 C   0  0  0  0  0  0  0  0  0  0  0  0
    7.9610    1.4290   -2.3120 F   0  0  0  0  0  0  0  0  0  0  0  0
    6.4340   -0.3490   -2.2330 C   0  0  0  0  0  0  0  0  0  0  0  0
    7.4650   -1.2520   -3.3440 Cl  0  0  0  0  0  0  0  0  0  0  0  0
    5.2680   -0.8700   -1.7530 C   0  0  0  0  0  0  0  0  0  0  0  0
    4.7810   -2.4860   -2.2550 Cl  0  0  0  0  0  0  0  0  0  0  0  0
    4.4220   -0.2050   -0.8800 C   0  0  0  0  0  0  0  0  0  0  0  0
    3.1810   -0.7890   -0.3830 C   0  0  0  0  0  0  0  0  0  0  0  0
    3.0890   -1.5260    0.7380 N   0  0  0  0  0  0  0  0  0  0  0  0
    1.9350   -2.0550    1.1770 C   0  0  0  0  0  0  0  0  0  0  0  0
    1.8490   -2.8340    2.3650 N   0  0  0  0  0  0  0  0  0  0  0  0
    0.8250   -1.8200    0.4370 N   0  0  0  0  0  0  0  0  0  0  0  0
    0.8620   -1.0910   -0.6910 C   0  0  0  0  0  0  0  0  0  0  0  0
   -0.3830   -0.8630   -1.4650 C   0  0  0  0  0  0  0  0  0  0  0  0
   -1.5380   -1.5400   -0.7870 C   0  0  0  0  0  0  0  0  0  0  0  0
   -1.7550   -1.0490    0.5410 N   0  0  0  0  0  0  0  0  0  0  0  0
   -3.1130   -0.7160    0.8190 C   0  0  2  0  0  0  0  0  0  0  0  0
   -4.1400   -1.4800    0.0390 C   0  0  0  0  0  0  0  0  0  0  0  0
   -5.4560   -1.3120    0.8120 C   0  0  0  0  0  0  0  0  0  0  0  0
   -5.9190    0.1050    0.8380 C   0  0  0  0  0  0  0  0  0  0  0  0
   -4.8250    1.0920    0.6140 C   0  0  0  0  0  0  0  0  0  0  0  0
   -4.9410    2.3770    0.4070 C   0  0  0  0  0  0  0  0  0  0  0  0
   -3.6030    2.9570    0.2370 C   0  0  0  0  0  0  0  0  0  0  0  0
   -2.6840    1.8050    0.3770 C   0  0  0  0  0  0  0  0  0  0  0  0
   -3.4300    0.7390    0.5950 C   0  0  0  0  0  0  0  0  0  0  0  0
    2.0510   -0.5830   -1.0850 N   0  0  0  0  0  0  0  0  0  0  0  0
  1  2  1  0
  2  3  1  0
  3  4  2  0
  3 11  1  0
  4  5  1  0
  5  6  1  0
  5  7  2  0
  7  8  1  0
  7  9  1  0
  9 10  1  0
  9 11  2  0
 11 12  1  0
 12 13  2  0
 12 30  1  0
 13 14  1  0
 14 15  1  0
 14 16  2  0
 16 17  1  0
 17 18  1  0
 17 30  2  0
 18 19  1  0
 19 20  1  0
 21 20  1  6
 21 22  1  0
 21 29  1  0
 22 23  1  0
 23 24  1  0
 24 25  1  0
 25 26  2  0
 25 29  1  0
 26 27  1  0
 27 28  1  0
 28 29  2  0
M  CHG  1  20   1
M  END
