
     RDKit          3D

 30 33  0  0  0  0  0  0  0  0999 V2000
   -3.9460    2.9730   -0.7260 C   0  0  0  0  0  0  0  0  0  0  0  0
   -4.0650    1.4900   -0.9790 C   0  0  0  0  0  0  0  0  0  0  0  0
   -5.1870    1.0690   -1.4960 C   0  0  0  0  0  0  0  0  0  0  0  0
   -6.4610    2.2590   -1.8430 Cl  0  0  0  0  0  0  0  0  0  0  0  0
   -3.0200    0.6290   -0.5640 N   0  0  0  0  0  0  0  0  0  0  0  0
   -1.6930    0.9680   -0.4060 C   0  0  0  0  0  0  0  0  0  0  0  0
   -1.0530    2.2620   -0.7230 C   0  0  0  0  0  0  0  0  0  0  0  0
   -1.0190   -0.1510    0.0870 C   0  0  0  0  0  0  0  0  0  0  0  0
   -1.9820   -1.1090    0.1980 C   0  0  0  0  0  0  0  0  0  0  0  0
   -3.2000   -0.6290   -0.1950 C   0  0  0  0  0  0  0  0  0  0  0  0
   -4.4140   -1.4040   -0.0850 N   0  0  0  0  0  0  0  0  0  0  0  0
   -4.5030   -2.8390   -0.1510 C   0  0  0  0  0  0  0  0  0  0  0  0
   -3.5650   -3.7350    0.1550 C   0  0  0  0  0  0  0  0  0  0  0  0
   -2.1810   -3.5440    0.6420 C   0  0  0  0  0  0  0  0  0  0  0  0
   -1.4920   -2.3890    0.6570 C   0  0  0  0  0  0  0  0  0  0  0  0
   -0.1160   -2.1320    1.0920 C   0  0  0  0  0  0  0  0  0  0  0  0
    0.2450   -0.7550    0.5480 C   0  0  2  0  0  0  0  0  0  0  0  0
    0.8640    0.0600    1.5620 N   0  0  0  0  0  0  0  0  0  0  0  0
    2.0010   -0.5400    2.1730 C   0  0  0  0  0  0  0  0  0  0  0  0
    3.2560   -0.2930    1.4470 C   0  0  0  0  0  0  0  0  0  0  0  0
    3.3480    0.4080    0.3430 C   0  0  0  0  0  0  0  0  0  0  0  0
    4.6570    0.5880   -0.2940 C   0  0  0  0  0  0  0  0  0  0  0  0
    5.7540    0.0420    0.2440 N   0  0  0  0  0  0  0  0  0  0  0  0
    6.9640    0.1410   -0.2410 N   0  0  0  0  0  0  0  0  0  0  0  0
    7.1270    0.8560   -1.3850 C   0  0  0  0  0  0  0  0  0  0  0  0
    8.2910    0.9500   -1.8510 O   0  0  0  0  0  0  0  0  0  0  0  0
    6.0580    1.4480   -2.0020 C   0  0  0  0  0  0  0  0  0  0  0  0
    6.1930    2.1650   -3.1420 F   0  0  0  0  0  0  0  0  0  0  0  0
    4.7860    1.3100   -1.4400 C   0  0  0  0  0  0  0  0  0  0  0  0
    3.3910    2.0370   -2.1750 Cl  0  0  0  0  0  0  0  0  0  0  0  0
  1  2  1  0
  2  3  2  3
  2  5  1  0
  3  4  1  0
  5  6  1  0
  5 10  1  0
  6  7  1  0
  6  8  2  0
  8  9  1  0
  8 17  1  0
  9 10  2  0
  9 15  1  0
 10 11  1  0
 11 12  1  0
 12 13  2  0
 13 14  1  0
 14 15  2  0
 15 16  1  0
 16 17  1  0
 17 18  1  1
 18 19  1  0
 19 20  1  0
 20 21  2  3
 21 22  1  0
 22 23  2  0
 22 29  1  0
 23 24  1  0
 24 25  1  0
 25 26  2  0
 25 27  1  0
 27 28  1  0
 27 29  2  0
 29 30  1  0
M  CHG  1  18   1
M  END
