
     RDKit          3D

 30 32  0  0  0  0  0  0  0  0999 V2000
   -5.3760   -0.1800   -0.5110 C   0  0  0  0  0  0  0  0  0  0  0  0
   -4.3420   -1.2800   -0.3920 C   0  0  0  0  0  0  0  0  0  0  0  0
   -3.3000   -0.9670    0.6660 C   0  0  1  0  0  0  0  0  0  0  0  0
   -2.3240   -2.0950    0.7190 C   0  0  0  0  0  0  0  0  0  0  0  0
   -1.7280   -2.4470   -0.6160 C   0  0  0  0  0  0  0  0  0  0  0  0
   -0.2510   -2.7120   -0.4590 C   0  0  0  0  0  0  0  0  0  0  0  0
    0.5200   -1.7130   -1.2870 C   0  0  2  0  0  0  0  0  0  0  0  0
    1.1930   -2.3890   -2.3300 O   0  0  0  0  0  0  0  0  0  0  0  0
    1.5980   -1.1190   -0.4130 C   0  0  1  0  0  0  0  0  0  0  0  0
    2.8320   -0.2280   -1.4020 S   0  0  0  0  0  0  0  0  0  0  0  0
    3.6350    0.8300   -0.1660 C   0  0  2  0  0  0  0  0  0  0  0  0
    4.9790    0.3900    0.0040 N   0  0  0  0  0  0  0  0  0  0  0  0
    6.1130    1.2300   -0.1580 C   0  0  0  0  0  0  0  0  0  0  0  0
    6.0900    2.4720   -0.4730 O   0  0  0  0  0  0  0  0  0  0  0  0
    7.3080    0.5020    0.0770 N   0  0  0  0  0  0  0  0  0  0  0  0
    6.9530   -0.8250    0.3960 C   0  0  0  0  0  0  0  0  0  0  0  0
    7.7350   -1.7760    0.6700 O   0  0  0  0  0  0  0  0  0  0  0  0
    5.4910   -0.8840    0.3470 C   0  0  0  0  0  0  0  0  0  0  0  0
    4.7970   -1.9170    0.5770 O   0  0  0  0  0  0  0  0  0  0  0  0
    2.5800    0.5220    1.2900 S   0  0  0  0  0  0  0  0  0  0  0  0
    1.0270    0.0510    0.4180 C   0  0  1  0  0  0  0  0  0  0  0  0
    0.7310    1.0370   -0.4680 O   0  0  0  0  0  0  0  0  0  0  0  0
    0.1550    2.2610   -0.4460 C   0  0  0  0  0  0  0  0  0  0  0  0
    0.6170    3.2050   -1.5470 C   0  0  0  0  0  0  0  0  0  0  0  0
   -0.0010    4.4330   -1.4820 O   0  0  0  0  0  0  0  0  0  0  0  0
   -0.7420    2.7580    0.3780 C   0  0  0  0  0  0  0  0  0  0  0  0
   -1.3690    2.0970    1.5130 C   0  0  0  0  0  0  0  0  0  0  0  0
   -2.1700    1.0690    1.5150 C   0  0  0  0  0  0  0  0  0  0  0  0
   -2.6900    0.5710    2.8390 C   0  0  0  0  0  0  0  0  0  0  0  0
   -2.6370    0.3210    0.3190 C   0  0  0  0  0  0  0  0  0  0  0  0
  1  2  1  0
  3  2  1  6
  3  4  1  0
  3 30  1  0
  4  5  1  0
  5  6  1  0
  6  7  1  0
  7  8  1  6
  7  9  1  0
  9 10  1  6
  9 21  1  0
 10 11  1  0
 11 12  1  1
 11 20  1  0
 12 13  1  0
 12 18  1  0
 13 14  2  0
 13 15  1  0
 15 16  1  0
 16 17  2  0
 16 18  1  0
 18 19  2  0
 20 21  1  0
 21 22  1  6
 22 23  1  0
 23 24  1  0
 23 26  2  0
 24 25  1  0
 26 27  1  0
 27 28  2  0
 28 29  1  0
 28 30  1  0
M  END
