
     RDKit          3D

 41 45  0  0  0  0  0  0  0  0999 V2000
   -4.0350   -0.6790   -1.8060 C   0  0  0  0  0  0  0  0  0  0  0  0
   -2.7130   -0.0390   -1.6280 C   0  0  0  0  0  0  0  0  0  0  0  0
   -2.4530    0.2960   -0.2060 C   0  0  0  0  0  0  0  0  0  0  0  0
   -2.8940    1.4400    0.3880 C   0  0  0  0  0  0  0  0  0  0  0  0
   -3.6920    2.4660   -0.2780 C   0  0  0  0  0  0  0  0  0  0  0  0
   -5.1640    2.2110   -0.2610 C   0  0  0  0  0  0  0  0  0  0  0  0
   -5.5940    2.1150    1.0740 O   0  0  0  0  0  0  0  0  0  0  0  0
   -6.9770    1.8610    1.0730 C   0  0  0  0  0  0  0  0  0  0  0  0
   -2.5920    1.6960    1.7420 C   0  0  0  0  0  0  0  0  0  0  0  0
   -1.8570    0.8030    2.4770 C   0  0  0  0  0  0  0  0  0  0  0  0
   -1.4610    1.0960    4.1720 Cl  0  0  0  0  0  0  0  0  0  0  0  0
   -1.4230   -0.3460    1.8620 C   0  0  0  0  0  0  0  0  0  0  0  0
   -1.7090   -0.6040    0.5480 C   0  0  0  0  0  0  0  0  0  0  0  0
   -1.2680   -1.8090   -0.0580 N   0  0  0  0  0  0  0  0  0  0  0  0
   -0.0580   -1.8780   -0.6100 C   0  0  0  0  0  0  0  0  0  0  0  0
    0.8070   -0.7490   -0.5810 N   0  0  0  0  0  0  0  0  0  0  0  0
    0.7450    0.5030   -1.3050 C   0  0  0  0  0  0  0  0  0  0  0  0
    2.1870    0.9400   -1.4560 C   0  0  0  0  0  0  0  0  0  0  0  0
    2.9420    0.1820   -0.4980 N   0  0  0  0  0  0  0  0  0  0  0  0
    4.3460    0.2080   -0.3110 C   0  0  0  0  0  0  0  0  0  0  0  0
    4.9930    1.1330    0.4740 C   0  0  0  0  0  0  0  0  0  0  0  0
    6.3880    1.0750    0.6010 C   0  0  0  0  0  0  0  0  0  0  0  0
    7.0930    2.0480    1.4360 C   0  0  1  0  0  0  0  0  0  0  0  0
    8.0790    2.8120    0.5810 C   0  0  0  0  0  0  0  0  0  0  0  0
    6.2210    2.9280    2.0410 F   0  0  0  0  0  0  0  0  0  0  0  0
    7.8380    1.3550    2.3930 F   0  0  0  0  0  0  0  0  0  0  0  0
    7.1450    0.1140   -0.0400 C   0  0  0  0  0  0  0  0  0  0  0  0
    8.8840    0.0900    0.1690 Cl  0  0  0  0  0  0  0  0  0  0  0  0
    6.4880   -0.8190   -0.8350 C   0  0  0  0  0  0  0  0  0  0  0  0
    5.1340   -0.7490   -0.9460 C   0  0  0  0  0  0  0  0  0  0  0  0
    4.4940   -1.6620   -1.7280 F   0  0  0  0  0  0  0  0  0  0  0  0
    2.0050   -0.6110    0.2240 C   0  0  0  0  0  0  0  0  0  0  0  0
    2.1740   -1.1080    1.3560 O   0  0  0  0  0  0  0  0  0  0  0  0
    0.3760   -3.0390   -1.2070 N   0  0  0  0  0  0  0  0  0  0  0  0
   -0.3860   -4.1360   -1.2570 C   0  0  0  0  0  0  0  0  0  0  0  0
    0.0610   -5.1720   -1.8150 O   0  0  0  0  0  0  0  0  0  0  0  0
   -1.6320   -4.0780   -0.6920 C   0  0  0  0  0  0  0  0  0  0  0  0
   -2.5910   -5.0130   -0.5960 N   0  0  0  0  0  0  0  0  0  0  0  0
   -3.6160   -4.4620    0.0470 C   0  0  0  0  0  0  0  0  0  0  0  0
   -3.3260   -3.1550    0.3750 C   0  0  0  0  0  0  0  0  0  0  0  0
   -2.0570   -2.9130   -0.0980 C   0  0  0  0  0  0  0  0  0  0  0  0
  1  2  1  0
  2  3  1  0
  3  4  2  0
  3 13  1  0
  4  5  1  0
  4  9  1  0
  5  6  1  0
  6  7  1  0
  7  8  1  0
  9 10  2  0
 10 11  1  0
 10 12  1  0
 12 13  2  0
 13 14  1  0
 14 15  1  0
 14 41  1  0
 15 16  1  0
 15 34  2  0
 16 17  1  0
 16 32  1  0
 17 18  1  0
 18 19  1  0
 19 20  1  0
 19 32  1  0
 20 21  2  0
 20 30  1  0
 21 22  1  0
 22 23  1  0
 22 27  2  0
 23 24  1  6
 23 25  1  0
 23 26  1  0
 27 28  1  0
 27 29  1  0
 29 30  2  0
 30 31  1  0
 32 33  2  0
 34 35  1  0
 35 36  2  0
 35 37  1  0
 37 38  1  0
 37 41  2  0
 38 39  1  0
 39 40  2  0
 40 41  1  0
M  END
