
     RDKit          3D

 42 46  0  0  0  0  0  0  0  0999 V2000
    2.8310   -5.0610   -1.6480 C   0  0  0  0  0  0  0  0  0  0  0  0
    2.8680   -3.8030   -0.8340 C   0  0  0  0  0  0  0  0  0  0  0  0
    1.8930   -2.8410   -0.9490 C   0  0  0  0  0  0  0  0  0  0  0  0
    1.9770   -1.6910   -0.1680 C   0  0  0  0  0  0  0  0  0  0  0  0
    3.0050   -1.4800    0.7210 C   0  0  0  0  0  0  0  0  0  0  0  0
    3.0860   -0.3030    1.5070 N   0  0  0  0  0  0  0  0  0  0  0  0
    4.1850    0.6540    1.3390 C   0  0  0  0  0  0  0  0  0  0  0  0
    3.7130    1.9480    0.7800 C   0  0  0  0  0  0  0  0  0  0  0  0
    4.8080    2.8670    0.6380 N   0  0  0  0  0  0  0  0  0  0  0  0
    5.8870    2.5680   -0.2120 C   0  0  0  0  0  0  0  0  0  0  0  0
    5.9080    1.5060   -0.8590 O   0  0  0  0  0  0  0  0  0  0  0  0
    6.9640    3.4480   -0.3580 O   0  0  0  0  0  0  0  0  0  0  0  0
    8.0220    3.1100   -1.2180 C   0  0  0  0  0  0  0  0  0  0  0  0
    9.0590    4.2210   -1.2020 C   0  0  1  0  0  0  0  0  0  0  0  0
   10.1020    3.8710   -2.0600 F   0  0  0  0  0  0  0  0  0  0  0  0
    8.4710    5.3910   -1.6130 F   0  0  0  0  0  0  0  0  0  0  0  0
    9.6100    4.3640    0.0650 F   0  0  0  0  0  0  0  0  0  0  0  0
    2.0990   -0.0010    2.5120 C   0  0  0  0  0  0  0  0  0  0  0  0
    0.7170    0.1290    1.9820 C   0  0  0  0  0  0  0  0  0  0  0  0
    0.1830    1.2040    1.3690 N   0  0  0  0  0  0  0  0  0  0  0  0
   -1.0650    0.9130    1.0530 N   0  0  0  0  0  0  0  0  0  0  0  0
   -1.3420   -0.3370    1.4560 C   0  0  0  0  0  0  0  0  0  0  0  0
   -2.6290   -0.9930    1.2710 C   0  0  0  0  0  0  0  0  0  0  0  0
   -2.8830   -2.2770    1.6980 C   0  0  0  0  0  0  0  0  0  0  0  0
   -4.0840   -2.9200    1.5360 C   0  0  0  0  0  0  0  0  0  0  0  0
   -5.1230   -2.2200    0.8890 C   0  0  0  0  0  0  0  0  0  0  0  0
   -6.6570   -3.0320    0.6660 Cl  0  0  0  0  0  0  0  0  0  0  0  0
   -4.9250   -0.9540    0.4490 C   0  0  0  0  0  0  0  0  0  0  0  0
   -5.9600   -0.1770   -0.2220 N   0  0  0  0  0  0  0  0  0  0  0  0
   -5.7610    1.1360   -0.7510 C   0  0  0  0  0  0  0  0  0  0  0  0
   -7.0720    1.5900   -1.2280 C   0  0  0  0  0  0  0  0  0  0  0  0
   -7.7610    2.6050   -1.7760 C   0  0  0  0  0  0  0  0  0  0  0  0
   -9.1600    2.2380   -1.9600 C   0  0  0  0  0  0  0  0  0  0  0  0
   -9.2400    0.8560   -1.4520 C   0  0  0  0  0  0  0  0  0  0  0  0
  -10.3590    0.0820   -1.4170 F   0  0  0  0  0  0  0  0  0  0  0  0
   -8.0210    0.5230   -1.0410 C   0  0  0  0  0  0  0  0  0  0  0  0
   -7.2970   -0.6110   -0.4370 C   0  0  0  0  0  0  0  0  0  0  0  0
   -3.6730   -0.3510    0.6460 C   0  0  0  0  0  0  0  0  0  0  0  0
   -0.2440   -0.7730    2.0080 O   0  0  0  0  0  0  0  0  0  0  0  0
    3.9640   -2.4670    0.8080 C   0  0  0  0  0  0  0  0  0  0  0  0
    5.2930   -2.2440    1.9230 Cl  0  0  0  0  0  0  0  0  0  0  0  0
    3.9100   -3.6180    0.0480 C   0  0  0  0  0  0  0  0  0  0  0  0
  1  2  1  0
  2  3  2  0
  2 42  1  0
  3  4  1  0
  4  5  2  0
  5  6  1  0
  5 40  1  0
  6  7  1  0
  6 18  1  0
  7  8  1  0
  8  9  1  0
  9 10  1  0
 10 11  2  0
 10 12  1  0
 12 13  1  0
 13 14  1  0
 14 15  1  6
 14 16  1  0
 14 17  1  0
 18 19  1  0
 19 20  2  0
 19 39  1  0
 20 21  1  0
 21 22  2  0
 22 23  1  0
 22 39  1  0
 23 24  2  0
 23 38  1  0
 24 25  1  0
 25 26  2  0
 26 27  1  0
 26 28  1  0
 28 29  1  0
 28 38  2  0
 29 30  1  0
 29 37  1  0
 30 31  1  0
 31 32  2  0
 31 36  1  0
 32 33  1  0
 33 34  1  0
 34 35  1  0
 34 36  2  0
 36 37  1  0
 40 41  1  0
 40 42  2  0
M  END
