
     RDKit          3D

 42 45  0  0  0  0  0  0  0  0999 V2000
   -5.2280    2.6580    2.0070 C   0  0  0  0  0  0  0  0  0  0  0  0
   -4.9620    1.6120    0.8540 C   0  0  0  0  0  0  0  0  0  0  0  0
   -3.7540    0.8940    1.2260 C   0  0  0  0  0  0  0  0  0  0  0  0
   -3.0810   -0.1480    0.4140 C   0  0  1  0  0  0  0  0  0  0  0  0
   -3.7800   -1.3830    0.0740 C   0  0  0  0  0  0  0  0  0  0  0  0
   -4.8880   -1.6450   -0.7720 C   0  0  0  0  0  0  0  0  0  0  0  0
   -6.2030   -1.0280   -0.7390 C   0  0  0  0  0  0  0  0  0  0  0  0
   -7.1560   -1.4040    0.1470 C   0  0  0  0  0  0  0  0  0  0  0  0
   -8.4160   -0.8360    0.0940 C   0  0  0  0  0  0  0  0  0  0  0  0
   -8.7670    0.1210   -0.8380 C   0  0  0  0  0  0  0  0  0  0  0  0
   -7.7760    0.4940   -1.7420 C   0  0  0  0  0  0  0  0  0  0  0  0
   -6.5420   -0.0570   -1.6960 C   0  0  0  0  0  0  0  0  0  0  0  0
   -2.6490    0.5850   -0.8770 C   0  0  0  0  0  0  0  0  0  0  0  0
   -1.2440    0.4920   -1.2330 C   0  0  0  0  0  0  0  0  0  0  0  0
   -0.8250    1.0000   -2.4960 O   0  0  0  0  0  0  0  0  0  0  0  0
   -0.2690   -0.0230   -0.5070 C   0  0  0  0  0  0  0  0  0  0  0  0
    1.1410   -0.0500   -1.0220 C   0  0  2  0  0  0  0  0  0  0  0  0
    1.5260   -1.1800   -1.8600 C   0  0  0  0  0  0  0  0  0  0  0  0
    1.4520   -2.5630   -1.3480 C   0  0  0  0  0  0  0  0  0  0  0  0
    2.0720    0.4240    0.0200 C   0  0  0  0  0  0  0  0  0  0  0  0
    2.1630    1.7800    0.2870 C   0  0  0  0  0  0  0  0  0  0  0  0
    3.0320    2.2390    1.2700 C   0  0  0  0  0  0  0  0  0  0  0  0
    3.8080    1.3260    1.9820 C   0  0  0  0  0  0  0  0  0  0  0  0
    3.7350   -0.0240    1.7300 C   0  0  0  0  0  0  0  0  0  0  0  0
    4.5580   -0.9380    2.4340 N   0  0  0  0  0  0  0  0  0  0  0  0
    5.5270   -2.0130    1.4900 S   0  0  1  0  0  0  0  0  0  0  0  0
    6.3510   -2.9160    2.3550 O   0  0  0  0  0  0  0  0  0  0  0  0
    4.7090   -2.8670    0.5940 O   0  0  0  0  0  0  0  0  0  0  0  0
    6.6280   -0.9850    0.5790 C   0  0  0  0  0  0  0  0  0  0  0  0
    6.6920   -0.9330   -0.7790 C   0  0  0  0  0  0  0  0  0  0  0  0
    7.6200   -0.0780   -1.3550 C   0  0  0  0  0  0  0  0  0  0  0  0
    8.4550    0.7020   -0.5850 C   0  0  0  0  0  0  0  0  0  0  0  0
    9.4640    1.6390   -1.1260 C   0  0  2  0  0  0  0  0  0  0  0  0
    9.9570    2.4620   -0.1440 F   0  0  0  0  0  0  0  0  0  0  0  0
    8.8230    2.4480   -2.0570 F   0  0  0  0  0  0  0  0  0  0  0  0
   10.5480    0.9660   -1.6590 F   0  0  0  0  0  0  0  0  0  0  0  0
    8.3480    0.6120    0.7830 C   0  0  0  0  0  0  0  0  0  0  0  0
    7.4530   -0.2140    1.3460 N   0  0  0  0  0  0  0  0  0  0  0  0
    2.8650   -0.4370    0.7530 C   0  0  0  0  0  0  0  0  0  0  0  0
   -0.6380   -0.5630    0.7740 C   0  0  0  0  0  0  0  0  0  0  0  0
    0.2160   -1.0700    1.5510 O   0  0  0  0  0  0  0  0  0  0  0  0
   -1.9320   -0.5240    1.1660 O   0  0  0  0  0  0  0  0  0  0  0  0
  1  2  1  0
  2  3  1  0
  4  3  1  1
  4  5  1  0
  4 13  1  0
  4 42  1  0
  5  6  1  0
  6  7  1  0
  7  8  2  0
  7 12  1  0
  8  9  1  0
  9 10  2  0
 10 11  1  0
 11 12  2  0
 13 14  1  0
 14 15  1  0
 14 16  2  0
 16 17  1  0
 16 40  1  0
 17 18  1  1
 17 20  1  0
 18 19  1  0
 20 21  2  0
 20 39  1  0
 21 22  1  0
 22 23  2  0
 23 24  1  0
 24 25  1  0
 24 39  2  0
 26 25  1  1
 26 27  2  0
 26 28  2  0
 26 29  1  0
 29 30  2  0
 29 38  1  0
 30 31  1  0
 31 32  2  0
 32 33  1  0
 32 37  1  0
 33 34  1  1
 33 35  1  0
 33 36  1  0
 37 38  2  0
 40 41  2  0
 40 42  1  0
M  END
