
     RDKit          3D

 41 45  0  0  0  0  0  0  0  0999 V2000
   -2.3730    3.4850   -2.6850 C   0  0  0  0  0  0  0  0  0  0  0  0
   -2.3680    2.1030   -2.3320 O   0  0  0  0  0  0  0  0  0  0  0  0
   -1.8840    2.0410   -1.0680 C   0  0  0  0  0  0  0  0  0  0  0  0
   -1.9570    0.5820   -0.5390 C   0  0  2  0  0  0  0  0  0  0  0  0
   -2.9530   -0.1900   -1.2170 C   0  0  0  0  0  0  0  0  0  0  0  0
   -2.7030   -0.5930   -2.5430 C   0  0  0  0  0  0  0  0  0  0  0  0
   -3.4290   -1.5030   -3.2270 C   0  0  0  0  0  0  0  0  0  0  0  0
   -3.0880   -1.8400   -4.5600 O   0  0  0  0  0  0  0  0  0  0  0  0
   -4.5100   -2.1190   -2.6210 C   0  0  0  0  0  0  0  0  0  0  0  0
   -5.4000   -3.3000   -3.5260 Cl  0  0  0  0  0  0  0  0  0  0  0  0
   -4.8320   -1.7820   -1.3270 C   0  0  0  0  0  0  0  0  0  0  0  0
   -4.0660   -0.8530   -0.6880 C   0  0  0  0  0  0  0  0  0  0  0  0
   -4.5340   -0.4150    0.4920 F   0  0  0  0  0  0  0  0  0  0  0  0
   -1.4510    0.4880    0.7700 N   0  0  0  0  0  0  0  0  0  0  0  0
   -2.1460    0.7600    2.0230 C   0  0  0  0  0  0  0  0  0  0  0  0
   -2.6830   -0.4150    2.7400 C   0  0  0  0  0  0  0  0  0  0  0  0
   -2.6630   -1.6840    2.2390 C   0  0  0  0  0  0  0  0  0  0  0  0
   -3.2840   -2.7470    2.9140 C   0  0  0  0  0  0  0  0  0  0  0  0
   -3.2490   -3.9540    2.3590 F   0  0  0  0  0  0  0  0  0  0  0  0
   -3.9150   -2.5060    4.1000 C   0  0  0  0  0  0  0  0  0  0  0  0
   -4.7150   -3.8410    4.9700 Cl  0  0  0  0  0  0  0  0  0  0  0  0
   -3.9420   -1.2510    4.6170 C   0  0  0  0  0  0  0  0  0  0  0  0
   -3.3290   -0.1750    3.9610 C   0  0  0  0  0  0  0  0  0  0  0  0
   -3.3860    1.0310    4.5190 F   0  0  0  0  0  0  0  0  0  0  0  0
   -0.0470    0.2060    1.0080 C   0  0  0  0  0  0  0  0  0  0  0  0
    0.2860    0.1890    2.2480 O   0  0  0  0  0  0  0  0  0  0  0  0
    1.0220   -0.0290    0.0690 C   0  0  0  0  0  0  0  0  0  0  0  0
    2.3390    0.2830    0.5440 C   0  0  0  0  0  0  0  0  0  0  0  0
    3.4150    0.3640   -0.3320 C   0  0  0  0  0  0  0  0  0  0  0  0
    4.7260    0.7410    0.2230 C   0  0  0  0  0  0  0  0  0  0  0  0
    4.8650    1.7680    1.1550 C   0  0  0  0  0  0  0  0  0  0  0  0
    6.1650    1.8780    1.4640 N   0  0  0  0  0  0  0  0  0  0  0  0
    6.8620    0.9750    0.7800 N   0  0  0  0  0  0  0  0  0  0  0  0
    8.1710    0.7280    0.7700 C   0  0  0  0  0  0  0  0  0  0  0  0
    8.6990   -0.2550   -0.0220 C   0  0  0  0  0  0  0  0  0  0  0  0
    7.7930   -0.9810   -0.8180 C   0  0  0  0  0  0  0  0  0  0  0  0
    6.4920   -0.6900   -0.7680 N   0  0  0  0  0  0  0  0  0  0  0  0
    5.9900    0.2690    0.0100 C   0  0  0  0  0  0  0  0  0  0  0  0
    3.2380    0.1440   -1.6710 C   0  0  0  0  0  0  0  0  0  0  0  0
    1.9690   -0.1620   -2.1240 C   0  0  0  0  0  0  0  0  0  0  0  0
    1.0010   -0.2250   -1.2190 N   0  0  0  0  0  0  0  0  0  0  0  0
  1  2  1  0
  2  3  1  0
  4  3  1  1
  4  5  1  0
  4 14  1  0
  5  6  2  0
  5 12  1  0
  6  7  1  0
  7  8  1  0
  7  9  2  0
  9 10  1  0
  9 11  1  0
 11 12  2  0
 12 13  1  0
 14 15  1  0
 14 25  1  0
 15 16  1  0
 16 17  2  0
 16 23  1  0
 17 18  1  0
 18 19  1  0
 18 20  2  0
 20 21  1  0
 20 22  1  0
 22 23  2  0
 23 24  1  0
 25 26  2  0
 25 27  1  0
 27 28  2  0
 27 41  1  0
 28 29  1  0
 29 30  1  0
 29 39  2  0
 30 31  1  0
 30 38  2  0
 31 32  2  0
 32 33  1  0
 33 34  1  0
 33 38  1  0
 34 35  2  0
 35 36  1  0
 36 37  2  0
 37 38  1  0
 39 40  1  0
 40 41  2  0
M  END
