
     RDKit          3D

 42 46  0  0  0  0  0  0  0  0999 V2000
    1.9900   -2.2970   -0.5170 O   0  0  0  0  0  0  0  0  0  0  0  0
    1.8670   -1.3380   -1.3130 C   0  0  0  0  0  0  0  0  0  0  0  0
    0.7660   -1.2890   -2.1220 C   0  0  0  0  0  0  0  0  0  0  0  0
    0.6880   -0.2130   -2.9830 C   0  0  0  0  0  0  0  0  0  0  0  0
   -0.3800   -0.1050   -3.8470 C   0  0  0  0  0  0  0  0  0  0  0  0
   -1.3740   -1.0470   -3.8730 C   0  0  0  0  0  0  0  0  0  0  0  0
   -1.2770   -2.1100   -3.0080 C   0  0  0  0  0  0  0  0  0  0  0  0
   -2.1740   -2.9980   -3.0110 O   0  0  0  0  0  0  0  0  0  0  0  0
   -0.2170   -2.2120   -2.1510 N   0  0  0  0  0  0  0  0  0  0  0  0
   -0.1600   -3.3030   -1.2400 C   0  0  0  0  0  0  0  0  0  0  0  0
    0.1880   -4.4960   -1.7930 N   0  0  0  0  0  0  0  0  0  0  0  0
    0.2700   -5.5710   -0.9940 C   0  0  0  0  0  0  0  0  0  0  0  0
    0.0200   -5.5210    0.3530 C   0  0  0  0  0  0  0  0  0  0  0  0
   -0.3320   -4.3120    0.9100 C   0  0  0  0  0  0  0  0  0  0  0  0
   -0.4270   -3.1660    0.0960 C   0  0  0  0  0  0  0  0  0  0  0  0
   -0.7680   -2.0220    0.7070 O   0  0  0  0  0  0  0  0  0  0  0  0
   -1.8040   -1.1680    0.6650 C   0  0  0  0  0  0  0  0  0  0  0  0
   -2.9350   -1.3350   -0.0800 C   0  0  0  0  0  0  0  0  0  0  0  0
   -3.9990   -0.4330   -0.1130 C   0  0  0  0  0  0  0  0  0  0  0  0
   -5.3360   -0.8380   -1.1680 Cl  0  0  0  0  0  0  0  0  0  0  0  0
   -3.9180    0.6960    0.6460 C   0  0  0  0  0  0  0  0  0  0  0  0
   -5.0530    1.6020    0.7470 C   0  0  0  0  0  0  0  0  0  0  0  0
   -4.9850    2.8900    0.9840 C   0  0  0  0  0  0  0  0  0  0  0  0
   -3.8310    3.7550    1.1870 C   0  0  0  0  0  0  0  0  0  0  0  0
   -3.9690    4.8360    0.2390 F   0  0  0  0  0  0  0  0  0  0  0  0
   -6.4650    1.0590    0.5940 C   0  0  1  0  0  0  0  0  0  0  0  0
   -6.5570   -0.1700    1.1770 F   0  0  0  0  0  0  0  0  0  0  0  0
   -7.2800    1.9400    1.3760 F   0  0  0  0  0  0  0  0  0  0  0  0
   -6.9250    1.1790   -0.6800 F   0  0  0  0  0  0  0  0  0  0  0  0
   -2.7810    0.9290    1.4410 C   0  0  0  0  0  0  0  0  0  0  0  0
   -1.7670    0.0040    1.4280 C   0  0  0  0  0  0  0  0  0  0  0  0
   -0.3190    0.2510    2.4030 Cl  0  0  0  0  0  0  0  0  0  0  0  0
    1.6820    0.7060   -2.9710 N   0  0  0  0  0  0  0  0  0  0  0  0
    2.7540    0.6370   -2.1650 C   0  0  0  0  0  0  0  0  0  0  0  0
    2.8560   -0.3910   -1.3250 N   0  0  0  0  0  0  0  0  0  0  0  0
    3.9590   -0.5860   -0.4260 C   0  0  0  0  0  0  0  0  0  0  0  0
    3.7780   -0.0030    0.9420 C   0  0  0  0  0  0  0  0  0  0  0  0
    3.6390    1.4450    0.8440 N   0  0  0  0  0  0  0  0  0  0  0  0
    3.3220    1.9900    2.1690 C   0  0  0  0  0  0  0  0  0  0  0  0
    3.6230    3.4590    1.9670 C   0  0  0  0  0  0  0  0  0  0  0  0
    4.9750    3.3460    1.2470 C   0  0  0  0  0  0  0  0  0  0  0  0
    4.9270    2.0450    0.5080 C   0  0  0  0  0  0  0  0  0  0  0  0
  1  2  2  0
  2  3  1  0
  2 35  1  0
  3  4  2  0
  3  9  1  0
  4  5  1  0
  4 33  1  0
  5  6  2  0
  6  7  1  0
  7  8  2  0
  7  9  1  0
  9 10  1  0
 10 11  2  0
 10 15  1  0
 11 12  1  0
 12 13  2  0
 13 14  1  0
 14 15  2  0
 15 16  1  0
 16 17  1  0
 17 18  2  0
 17 31  1  0
 18 19  1  0
 19 20  1  0
 19 21  2  0
 21 22  1  0
 21 30  1  0
 22 23  2  3
 22 26  1  0
 23 24  1  0
 24 25  1  0
 26 27  1  1
 26 28  1  0
 26 29  1  0
 30 31  2  0
 31 32  1  0
 33 34  2  0
 34 35  1  0
 35 36  1  0
 36 37  1  0
 37 38  1  0
 38 39  1  0
 38 42  1  0
 39 40  1  0
 40 41  1  0
 41 42  1  0
M  END
