
     RDKit          3D

 42 46  0  0  0  0  0  0  0  0999 V2000
    1.0160   -5.4800    0.9270 C   0  0  0  0  0  0  0  0  0  0  0  0
    0.9190   -4.2600    0.4830 C   0  0  0  0  0  0  0  0  0  0  0  0
    0.0960   -3.2560    1.1620 C   0  0  0  0  0  0  0  0  0  0  0  0
   -0.6700   -3.7260    2.3620 C   0  0  0  0  0  0  0  0  0  0  0  0
   -1.7510   -5.1080    1.9360 Cl  0  0  0  0  0  0  0  0  0  0  0  0
    0.0780   -2.1000    0.6940 N   0  0  0  0  0  0  0  0  0  0  0  0
   -0.4600   -0.8700    0.8970 C   0  0  0  0  0  0  0  0  0  0  0  0
   -0.5620   -0.4150    2.1760 C   0  0  0  0  0  0  0  0  0  0  0  0
   -0.9990   -0.0500   -0.1820 C   0  0  0  0  0  0  0  0  0  0  0  0
   -2.4100   -0.1050   -0.3610 C   0  0  0  0  0  0  0  0  0  0  0  0
   -3.2130   -1.0570    0.4210 C   0  0  2  0  0  0  0  0  0  0  0  0
   -3.0740   -1.0480    1.7570 F   0  0  0  0  0  0  0  0  0  0  0  0
   -3.0090   -2.7080   -0.3040 Cl  0  0  0  0  0  0  0  0  0  0  0  0
   -2.9750    0.6920   -1.2590 N   0  0  0  0  0  0  0  0  0  0  0  0
   -4.4090    0.6380   -1.5020 C   0  0  0  0  0  0  0  0  0  0  0  0
   -5.0630    1.5450   -0.5260 C   0  0  0  0  0  0  0  0  0  0  0  0
   -4.3730    2.1480    0.2660 O   0  0  0  0  0  0  0  0  0  0  0  0
   -6.5510    1.6770   -0.5580 C   0  0  0  0  0  0  0  0  0  0  0  0
   -7.0160    2.6320    0.4980 C   0  0  2  0  0  0  0  0  0  0  0  0
   -6.6730    2.2370    1.7700 F   0  0  0  0  0  0  0  0  0  0  0  0
   -8.4090    2.6580    0.4480 F   0  0  0  0  0  0  0  0  0  0  0  0
   -6.5710    3.9180    0.2930 F   0  0  0  0  0  0  0  0  0  0  0  0
   -2.2610    1.5540   -2.0100 C   0  0  0  0  0  0  0  0  0  0  0  0
   -2.8310    2.3030   -2.8580 O   0  0  0  0  0  0  0  0  0  0  0  0
   -0.8970    1.6450   -1.8780 C   0  0  0  0  0  0  0  0  0  0  0  0
   -0.2290    2.5230   -2.6460 N   0  0  0  0  0  0  0  0  0  0  0  0
    1.0780    2.6270   -2.5300 C   0  0  0  0  0  0  0  0  0  0  0  0
    1.7710    1.8300   -1.6170 C   0  0  0  0  0  0  0  0  0  0  0  0
    1.1450    0.9180   -0.8080 C   0  0  0  0  0  0  0  0  0  0  0  0
   -0.2520    0.8100   -0.9300 C   0  0  0  0  0  0  0  0  0  0  0  0
    1.8200    0.0260    0.1240 C   0  0  0  0  0  0  0  0  0  0  0  0
    3.3120    0.3360    0.1460 C   0  0  0  0  0  0  0  0  0  0  0  0
    4.2620   -0.2550    0.9370 N   0  0  0  0  0  0  0  0  0  0  0  0
    5.4770    0.2520    0.6680 C   0  0  0  0  0  0  0  0  0  0  0  0
    6.7370    0.0040    1.1740 C   0  0  0  0  0  0  0  0  0  0  0  0
    7.8260    0.6990    0.6890 C   0  0  0  0  0  0  0  0  0  0  0  0
    7.6220    1.6410   -0.3080 C   0  0  0  0  0  0  0  0  0  0  0  0
    6.3510    1.8630   -0.7900 C   0  0  0  0  0  0  0  0  0  0  0  0
    5.2530    1.1830   -0.3210 C   0  0  0  0  0  0  0  0  0  0  0  0
    3.9300    1.1970   -0.6020 N   0  0  0  0  0  0  0  0  0  0  0  0
    3.2190    1.9930   -1.5250 C   0  0  0  0  0  0  0  0  0  0  0  0
    3.7900    2.8310   -2.2640 O   0  0  0  0  0  0  0  0  0  0  0  0
  1  2  2  0
  2  3  1  0
  3  4  1  0
  3  6  2  3
  4  5  1  0
  6  7  1  0
  7  8  2  0
  7  9  1  0
  9 10  2  0
  9 30  1  0
 10 11  1  0
 10 14  1  0
 11 12  1  1
 11 13  1  0
 14 15  1  0
 14 23  1  0
 15 16  1  0
 16 17  2  0
 16 18  1  0
 18 19  1  0
 19 20  1  1
 19 21  1  0
 19 22  1  0
 23 24  2  0
 23 25  1  0
 25 26  2  0
 25 30  1  0
 26 27  1  0
 27 28  2  0
 28 29  1  0
 28 41  1  0
 29 30  2  0
 29 31  1  0
 31 32  1  0
 32 33  2  0
 32 40  1  0
 33 34  1  0
 34 35  2  0
 34 39  1  0
 35 36  1  0
 36 37  2  0
 37 38  1  0
 38 39  2  0
 39 40  1  0
 40 41  1  0
 41 42  2  0
M  END
