
     RDKit          3D

 42 46  0  0  0  0  0  0  0  0999 V2000
   -9.3800    3.0800   -0.6840 N   0  0  0  0  0  0  0  0  0  0  0  0
   -9.1870    1.8100   -0.8450 C   0  0  0  0  0  0  0  0  0  0  0  0
   -8.0070    1.1150   -0.6630 O   0  0  0  0  0  0  0  0  0  0  0  0
   -8.1940   -0.2360   -0.9320 C   0  0  0  0  0  0  0  0  0  0  0  0
   -7.2720   -1.2720   -0.8710 C   0  0  0  0  0  0  0  0  0  0  0  0
   -5.8990   -0.9950   -0.4800 C   0  0  0  0  0  0  0  0  0  0  0  0
   -4.8910   -1.8630   -0.3780 N   0  0  0  0  0  0  0  0  0  0  0  0
   -3.7250   -1.2080    0.0260 C   0  0  0  0  0  0  0  0  0  0  0  0
   -2.4700   -1.8680    0.2790 C   0  0  0  0  0  0  0  0  0  0  0  0
   -1.3250   -1.4360    0.5450 C   0  0  0  0  0  0  0  0  0  0  0  0
   -0.7040   -0.1650    0.7150 C   0  0  0  0  0  0  0  0  0  0  0  0
   -1.1710    1.0440    0.3020 C   0  0  0  0  0  0  0  0  0  0  0  0
   -0.5440    2.2460    0.5870 C   0  0  0  0  0  0  0  0  0  0  0  0
    0.6080    2.2390    1.3190 C   0  0  0  0  0  0  0  0  0  0  0  0
    1.1360    1.0660    1.7640 C   0  0  0  0  0  0  0  0  0  0  0  0
    2.3820    1.0590    2.5500 C   0  0  0  0  0  0  0  0  0  0  0  0
    2.2930    1.1350    3.8030 O   0  0  0  0  0  0  0  0  0  0  0  0
    3.6350    0.9700    1.8960 N   0  0  0  0  0  0  0  0  0  0  0  0
    3.6790    0.8850    0.4430 C   0  0  0  0  0  0  0  0  0  0  0  0
    4.9620    1.5290   -0.0700 C   0  0  0  0  0  0  0  0  0  0  0  0
    6.1010    1.1290    0.6600 N   0  0  0  0  0  0  0  0  0  0  0  0
    6.5270   -0.2090    0.6710 C   0  0  0  0  0  0  0  0  0  0  0  0
    7.0830   -0.7110   -0.5850 C   0  0  0  0  0  0  0  0  0  0  0  0
    8.3620   -1.0950   -0.5920 C   0  0  0  0  0  0  0  0  0  0  0  0
    9.0650   -1.6180   -1.7710 C   0  0  0  0  0  0  0  0  0  0  0  0
   10.1670   -0.8200   -2.0840 F   0  0  0  0  0  0  0  0  0  0  0  0
    6.2650   -0.8500   -1.8240 C   0  0  2  0  0  0  0  0  0  0  0  0
    6.3420   -2.1660   -2.3080 F   0  0  0  0  0  0  0  0  0  0  0  0
    6.8010    0.2120   -3.1240 Cl  0  0  0  0  0  0  0  0  0  0  0  0
    5.9930    1.6710    2.0170 C   0  0  0  0  0  0  0  0  0  0  0  0
    4.8360    0.9690    2.6990 C   0  0  0  0  0  0  0  0  0  0  0  0
    0.5020   -0.0880    1.4720 C   0  0  0  0  0  0  0  0  0  0  0  0
    1.1970   -1.5990    2.0630 Cl  0  0  0  0  0  0  0  0  0  0  0  0
   -4.1550    0.0510    0.1360 N   0  0  0  0  0  0  0  0  0  0  0  0
   -5.4130    0.1710   -0.1570 O   0  0  0  0  0  0  0  0  0  0  0  0
   -7.7290   -2.5320   -1.1930 C   0  0  0  0  0  0  0  0  0  0  0  0
   -9.0460   -2.7630   -1.5610 C   0  0  0  0  0  0  0  0  0  0  0  0
   -9.9530   -1.7300   -1.6190 C   0  0  0  0  0  0  0  0  0  0  0  0
   -9.5060   -0.4430   -1.2950 C   0  0  0  0  0  0  0  0  0  0  0  0
  -10.2200    0.8410   -1.2630 C   0  0  2  0  0  0  0  0  0  0  0  0
  -10.7210    1.1330   -2.5230 F   0  0  0  0  0  0  0  0  0  0  0  0
  -11.2610    0.7770   -0.3410 F   0  0  0  0  0  0  0  0  0  0  0  0
  1  2  2  0
  2  3  1  0
  2 40  1  0
  3  4  1  0
  4  5  2  0
  4 39  1  0
  5  6  1  0
  5 36  1  0
  6  7  2  0
  6 35  1  0
  7  8  1  0
  8  9  1  0
  8 34  2  0
  9 10  2  3
 10 11  1  0
 11 12  2  0
 11 32  1  0
 12 13  1  0
 13 14  2  0
 14 15  1  0
 15 16  1  0
 15 32  2  0
 16 17  2  0
 16 18  1  0
 18 19  1  0
 18 31  1  0
 19 20  1  0
 20 21  1  0
 21 22  1  0
 21 30  1  0
 22 23  1  0
 23 24  2  3
 23 27  1  0
 24 25  1  0
 25 26  1  0
 27 28  1  6
 27 29  1  0
 30 31  1  0
 32 33  1  0
 34 35  1  0
 36 37  2  0
 37 38  1  0
 38 39  2  0
 39 40  1  0
 40 41  1  6
 40 42  1  0
M  END
