
     RDKit          3D

 41 45  0  0  0  0  0  0  0  0999 V2000
   10.8000    1.7050    1.7120 C   0  0  0  0  0  0  0  0  0  0  0  0
    9.4380    1.7260    1.3910 O   0  0  0  0  0  0  0  0  0  0  0  0
    9.0130    1.2880    0.1350 C   0  0  0  0  0  0  0  0  0  0  0  0
    9.8870    0.8850   -0.6700 O   0  0  0  0  0  0  0  0  0  0  0  0
    7.6550    1.2920   -0.2340 N   0  0  0  0  0  0  0  0  0  0  0  0
    7.2500    0.8380   -1.5320 C   0  0  0  0  0  0  0  0  0  0  0  0
    6.3090   -0.3300   -1.3650 C   0  0  0  0  0  0  0  0  0  0  0  0
    5.2470    0.0150   -0.3740 C   0  0  0  0  0  0  0  0  0  0  0  0
    4.0360   -0.6480   -0.3990 C   0  0  0  0  0  0  0  0  0  0  0  0
    3.0140   -0.3810    0.4850 C   0  0  0  0  0  0  0  0  0  0  0  0
    1.8140   -1.0860    0.4060 O   0  0  0  0  0  0  0  0  0  0  0  0
    1.6500   -2.0680   -0.5770 C   0  0  0  0  0  0  0  0  0  0  0  0
    0.2910   -2.6790   -0.4580 C   0  0  0  0  0  0  0  0  0  0  0  0
   -0.7350   -1.6470   -0.6300 N   0  0  0  0  0  0  0  0  0  0  0  0
   -2.0880   -2.0320   -0.5810 C   0  0  0  0  0  0  0  0  0  0  0  0
   -2.5310   -3.3400   -0.2870 C   0  0  0  0  0  0  0  0  0  0  0  0
   -3.8990   -3.3480   -0.2950 C   0  0  0  0  0  0  0  0  0  0  0  0
   -4.3220   -2.1000   -0.5820 N   0  0  0  0  0  0  0  0  0  0  0  0
   -5.5350   -1.6480   -0.6900 N   0  0  0  0  0  0  0  0  0  0  0  0
   -5.8470   -0.3550   -0.9850 C   0  0  0  0  0  0  0  0  0  0  0  0
   -7.2530    0.0490   -1.1210 C   0  0  0  0  0  0  0  0  0  0  0  0
   -7.9420    0.0420    0.1700 C   0  0  0  0  0  0  0  0  0  0  0  0
   -8.7230   -1.0570    0.5720 C   0  0  0  0  0  0  0  0  0  0  0  0
   -9.3700   -1.0970    1.7850 C   0  0  0  0  0  0  0  0  0  0  0  0
   -9.2640   -0.0620    2.6270 N   0  0  0  0  0  0  0  0  0  0  0  0
   -8.5320    1.0040    2.2870 C   0  0  0  0  0  0  0  0  0  0  0  0
   -7.8560    1.0820    1.0540 C   0  0  0  0  0  0  0  0  0  0  0  0
   -7.1050    2.3110    0.7950 C   0  0  0  0  0  0  0  0  0  0  0  0
   -7.9250    3.3680   -0.3820 Cl  0  0  0  0  0  0  0  0  0  0  0  0
   -4.7720    0.4660   -1.1670 C   0  0  0  0  0  0  0  0  0  0  0  0
   -3.4410    0.0440   -1.0650 C   0  0  0  0  0  0  0  0  0  0  0  0
   -2.3300    0.9900   -1.3110 C   0  0  2  0  0  0  0  0  0  0  0  0
   -1.5440    0.6270   -2.4050 F   0  0  0  0  0  0  0  0  0  0  0  0
   -1.6380    1.3660   -0.2030 F   0  0  0  0  0  0  0  0  0  0  0  0
   -3.0980    2.5380   -1.8880 Cl  0  0  0  0  0  0  0  0  0  0  0  0
   -3.2360   -1.2810   -0.7620 C   0  0  0  0  0  0  0  0  0  0  0  0
    3.2060    0.5860    1.4340 C   0  0  0  0  0  0  0  0  0  0  0  0
    4.4000    1.2870    1.5100 C   0  0  0  0  0  0  0  0  0  0  0  0
    4.5750    2.2470    2.4600 F   0  0  0  0  0  0  0  0  0  0  0  0
    5.4040    0.9830    0.5960 C   0  0  0  0  0  0  0  0  0  0  0  0
    6.6650    1.7630    0.7170 C   0  0  0  0  0  0  0  0  0  0  0  0
  1  2  1  0
  2  3  1  0
  3  4  2  0
  3  5  1  0
  5  6  1  0
  5 41  1  0
  6  7  1  0
  7  8  1  0
  8  9  2  0
  8 40  1  0
  9 10  1  0
 10 11  1  0
 10 37  2  0
 11 12  1  0
 12 13  1  0
 13 14  1  0
 14 15  1  0
 15 16  1  0
 15 36  2  0
 16 17  2  0
 17 18  1  0
 18 19  1  0
 18 36  1  0
 19 20  2  0
 20 21  1  0
 20 30  1  0
 21 22  1  0
 22 23  2  0
 22 27  1  0
 23 24  1  0
 24 25  2  0
 25 26  1  0
 26 27  2  0
 27 28  1  0
 28 29  1  0
 30 31  2  0
 31 32  1  0
 31 36  1  0
 32 33  1  6
 32 34  1  0
 32 35  1  0
 37 38  1  0
 38 39  1  0
 38 40  2  0
 40 41  1  0
M  END
