
     RDKit          3D

 42 48  0  0  0  0  0  0  0  0999 V2000
    3.2470    2.8120    0.8350 C   0  0  0  0  0  0  0  0  0  0  0  0
    3.3450    1.3680    0.5680 C   0  0  0  0  0  0  0  0  0  0  0  0
    2.2990    0.4230    0.5290 C   0  0  0  0  0  0  0  0  0  0  0  0
    0.9240    0.8070    0.8250 C   0  0  0  0  0  0  0  0  0  0  0  0
    0.0270    0.8380   -0.2120 N   0  0  0  0  0  0  0  0  0  0  0  0
   -0.4100   -0.0190   -1.1680 C   0  0  0  0  0  0  0  0  0  0  0  0
   -1.9890   -0.0980   -1.2190 C   0  0  0  0  0  0  0  0  0  0  0  0
   -2.4790    1.0160   -0.4510 N   0  0  0  0  0  0  0  0  0  0  0  0
   -3.4190    0.9920    0.6290 C   0  0  0  0  0  0  0  0  0  0  0  0
   -2.9320    1.2880    1.8650 N   0  0  0  0  0  0  0  0  0  0  0  0
   -3.7200    1.2960    2.9150 C   0  0  0  0  0  0  0  0  0  0  0  0
   -5.0530    1.0060    2.8060 C   0  0  0  0  0  0  0  0  0  0  0  0
   -5.5860    0.6970    1.5580 C   0  0  0  0  0  0  0  0  0  0  0  0
   -4.7760    0.6890    0.4710 C   0  0  0  0  0  0  0  0  0  0  0  0
   -5.1830    0.3690   -0.9080 C   0  0  0  0  0  0  0  0  0  0  0  0
   -6.4590    0.1290   -1.3640 N   0  0  2  0  0  0  0  0  0  0  0  0
   -7.6540    0.5420   -0.7660 C   0  0  0  0  0  0  0  0  0  0  0  0
   -8.5610   -0.4970   -0.1920 C   0  0  0  0  0  0  0  0  0  0  0  0
   -8.0480   -1.8950   -0.1020 C   0  0  0  0  0  0  0  0  0  0  0  0
   -7.2030   -2.2640   -1.2600 C   0  0  0  0  0  0  0  0  0  0  0  0
   -6.5450   -1.1910   -2.0170 C   0  0  0  0  0  0  0  0  0  0  0  0
   -1.8590    2.2750   -0.8000 C   0  0  0  0  0  0  0  0  0  0  0  0
   -0.4120    2.2470   -0.4900 C   0  0  0  0  0  0  0  0  0  0  0  0
    2.8250   -0.7870    0.2820 N   0  0  0  0  0  0  0  0  0  0  0  0
    2.3760   -2.0490    0.1870 C   0  0  0  0  0  0  0  0  0  0  0  0
    1.1780   -2.2570    0.3210 O   0  0  0  0  0  0  0  0  0  0  0  0
    3.2300   -3.0940   -0.0420 N   0  0  0  0  0  0  0  0  0  0  0  0
    2.7000   -4.4580   -0.1240 C   0  0  0  0  0  0  0  0  0  0  0  0
    4.5520   -2.9550   -0.1860 C   0  0  0  0  0  0  0  0  0  0  0  0
    5.3390   -3.8840   -0.4000 O   0  0  0  0  0  0  0  0  0  0  0  0
    5.0430   -1.6650   -0.0810 C   0  0  0  0  0  0  0  0  0  0  0  0
    6.4060   -1.3670   -0.1790 C   0  0  0  0  0  0  0  0  0  0  0  0
    6.7660   -0.0320   -0.0210 C   0  0  0  0  0  0  0  0  0  0  0  0
    8.1480    0.3370   -0.1390 N   0  0  0  0  0  0  0  0  0  0  0  0
    8.8780    1.2780    0.6810 C   0  0  0  0  0  0  0  0  0  0  0  0
   10.3280    1.0200    0.3150 C   0  0  0  0  0  0  0  0  0  0  0  0
   10.2650    0.5080   -1.0230 N   0  0  0  0  0  0  0  0  0  0  0  0
    9.0230   -0.1820   -1.1220 C   0  0  0  0  0  0  0  0  0  0  0  0
    8.7260   -1.0820   -1.9170 O   0  0  0  0  0  0  0  0  0  0  0  0
    5.8610    0.9760    0.2270 C   0  0  0  0  0  0  0  0  0  0  0  0
    4.4940    0.6640    0.3230 C   0  0  0  0  0  0  0  0  0  0  0  0
    4.1590   -0.6560    0.1510 C   0  0  0  0  0  0  0  0  0  0  0  0
  1  2  1  0
  2  3  2  0
  2 41  1  0
  3  4  1  0
  3 24  1  0
  4  5  1  0
  5  6  1  0
  5 23  1  0
  6  7  1  0
  7  8  1  0
  8  9  1  0
  8 22  1  0
  9 10  2  0
  9 14  1  0
 10 11  1  0
 11 12  2  0
 12 13  1  0
 13 14  2  0
 14 15  1  0
 16 15  1  1
 16 17  1  0
 16 21  1  0
 17 18  1  0
 18 19  1  0
 19 20  1  0
 20 21  1  0
 22 23  1  0
 24 25  1  0
 24 42  1  0
 25 26  2  0
 25 27  1  0
 27 28  1  0
 27 29  1  0
 29 30  2  0
 29 31  1  0
 31 32  1  0
 31 42  2  0
 32 33  2  0
 33 34  1  0
 33 40  1  0
 34 35  1  0
 34 38  1  0
 35 36  1  0
 36 37  1  0
 37 38  1  0
 38 39  2  0
 40 41  2  0
 41 42  1  0
M  CHG  2  10   1  16   1
M  END
