
     RDKit          3D

 42 46  0  0  0  0  0  0  0  0999 V2000
   -0.4870    3.8470   -3.4220 C   0  0  0  0  0  0  0  0  0  0  0  0
   -0.9510    3.0430   -2.4960 C   0  0  0  0  0  0  0  0  0  0  0  0
   -0.2550    2.7880   -1.2100 C   0  0  0  0  0  0  0  0  0  0  0  0
    1.0490    3.4920   -1.0760 C   0  0  0  0  0  0  0  0  0  0  0  0
    2.1170    2.7770   -2.3470 Cl  0  0  0  0  0  0  0  0  0  0  0  0
   -0.8030    2.0230   -0.4170 N   0  0  0  0  0  0  0  0  0  0  0  0
   -0.6200    1.4690    0.8360 C   0  0  0  0  0  0  0  0  0  0  0  0
   -0.0730    2.1550    1.7980 C   0  0  0  0  0  0  0  0  0  0  0  0
   -1.1930    0.1610    1.1040 C   0  0  0  0  0  0  0  0  0  0  0  0
   -2.5810    0.1120    1.3560 C   0  0  0  0  0  0  0  0  0  0  0  0
   -3.3550    1.3520    1.3620 C   0  0  2  0  0  0  0  0  0  0  0  0
   -3.3050    2.0510    0.1810 F   0  0  0  0  0  0  0  0  0  0  0  0
   -2.8120    2.5390    2.5980 Cl  0  0  0  0  0  0  0  0  0  0  0  0
   -3.2350   -1.0250    1.5890 N   0  0  0  0  0  0  0  0  0  0  0  0
   -4.6530   -1.1350    1.8670 C   0  0  0  0  0  0  0  0  0  0  0  0
   -5.4590   -1.2810    0.6250 C   0  0  0  0  0  0  0  0  0  0  0  0
   -6.6650   -1.3810    0.7510 O   0  0  0  0  0  0  0  0  0  0  0  0
   -4.8680   -1.3080   -0.7120 C   0  0  0  0  0  0  0  0  0  0  0  0
   -5.9450   -1.4660   -1.7630 C   0  0  2  0  0  0  0  0  0  0  0  0
   -6.8570   -0.4480   -1.7410 F   0  0  0  0  0  0  0  0  0  0  0  0
   -6.5340   -2.7130   -1.5590 F   0  0  0  0  0  0  0  0  0  0  0  0
   -5.3240   -1.5550   -3.0130 F   0  0  0  0  0  0  0  0  0  0  0  0
   -2.5170   -2.1510    1.5750 C   0  0  0  0  0  0  0  0  0  0  0  0
   -3.0990   -3.2680    1.7930 O   0  0  0  0  0  0  0  0  0  0  0  0
   -1.1600   -2.1670    1.3350 C   0  0  0  0  0  0  0  0  0  0  0  0
   -0.5050   -3.3370    1.3200 N   0  0  0  0  0  0  0  0  0  0  0  0
    0.7970   -3.4220    1.0790 C   0  0  0  0  0  0  0  0  0  0  0  0
    1.5170   -2.2670    0.8330 C   0  0  0  0  0  0  0  0  0  0  0  0
    0.9150   -1.0340    0.8340 C   0  0  0  0  0  0  0  0  0  0  0  0
   -0.4560   -0.9780    1.0890 C   0  0  0  0  0  0  0  0  0  0  0  0
    1.6620    0.2120    0.6150 C   0  0  0  0  0  0  0  0  0  0  0  0
    3.0950   -0.0820    0.2360 C   0  0  0  0  0  0  0  0  0  0  0  0
    4.0450    0.8280   -0.1250 N   0  0  0  0  0  0  0  0  0  0  0  0
    5.2140    0.2130   -0.3570 C   0  0  0  0  0  0  0  0  0  0  0  0
    6.4490    0.6780   -0.7380 C   0  0  0  0  0  0  0  0  0  0  0  0
    7.4770   -0.2020   -0.9000 C   0  0  0  0  0  0  0  0  0  0  0  0
    7.2220   -1.5540   -0.6680 C   0  0  0  0  0  0  0  0  0  0  0  0
    5.9870   -2.0150   -0.2870 C   0  0  0  0  0  0  0  0  0  0  0  0
    4.9650   -1.1170   -0.1280 C   0  0  0  0  0  0  0  0  0  0  0  0
    3.6610   -1.2390    0.2280 N   0  0  0  0  0  0  0  0  0  0  0  0
    2.9620   -2.4080    0.5170 C   0  0  0  0  0  0  0  0  0  0  0  0
    3.4900   -3.5520    0.5220 O   0  0  0  0  0  0  0  0  0  0  0  0
  1  2  2  0
  2  3  1  0
  3  4  1  0
  3  6  2  3
  4  5  1  0
  6  7  1  0
  7  8  2  0
  7  9  1  0
  9 10  2  0
  9 30  1  0
 10 11  1  0
 10 14  1  0
 11 12  1  6
 11 13  1  0
 14 15  1  0
 14 23  1  0
 15 16  1  0
 16 17  2  0
 16 18  1  0
 18 19  1  0
 19 20  1  6
 19 21  1  0
 19 22  1  0
 23 24  2  0
 23 25  1  0
 25 26  2  0
 25 30  1  0
 26 27  1  0
 27 28  2  0
 28 29  1  0
 28 41  1  0
 29 30  2  0
 29 31  1  0
 31 32  1  0
 32 33  2  0
 32 40  1  0
 33 34  1  0
 34 35  2  0
 34 39  1  0
 35 36  1  0
 36 37  2  0
 37 38  1  0
 38 39  2  0
 39 40  1  0
 40 41  1  0
 41 42  2  0
M  END
