
     RDKit          3D

 41 45  0  0  0  0  0  0  0  0999 V2000
   -4.8530    0.1080   -1.3510 C   0  0  0  0  0  0  0  0  0  0  0  0
   -3.6170    0.5140   -1.7220 O   0  0  0  0  0  0  0  0  0  0  0  0
   -2.5310   -0.2120   -1.5450 C   0  0  0  0  0  0  0  0  0  0  0  0
   -1.9310   -0.5910   -0.2420 C   0  0  2  0  0  0  0  0  0  0  0  0
   -2.6480   -1.7130    0.4140 C   0  0  0  0  0  0  0  0  0  0  0  0
   -3.4940   -2.5060   -0.3150 C   0  0  0  0  0  0  0  0  0  0  0  0
   -4.1790   -3.6100    0.2190 C   0  0  0  0  0  0  0  0  0  0  0  0
   -5.0300   -4.3960   -0.5310 O   0  0  0  0  0  0  0  0  0  0  0  0
   -3.9490   -3.8590    1.5450 C   0  0  0  0  0  0  0  0  0  0  0  0
   -4.7940   -5.2300    2.2430 Cl  0  0  0  0  0  0  0  0  0  0  0  0
   -3.0920   -3.0680    2.3000 C   0  0  0  0  0  0  0  0  0  0  0  0
   -2.4240   -1.9840    1.7590 C   0  0  0  0  0  0  0  0  0  0  0  0
   -1.5840   -1.2170    2.4980 F   0  0  0  0  0  0  0  0  0  0  0  0
   -1.3480    0.3960    0.5610 N   0  0  0  0  0  0  0  0  0  0  0  0
   -1.8780    1.5300    1.2800 C   0  0  0  0  0  0  0  0  0  0  0  0
   -2.1980    2.7550    0.5820 C   0  0  0  0  0  0  0  0  0  0  0  0
   -3.5150    2.9150    0.0700 C   0  0  0  0  0  0  0  0  0  0  0  0
   -3.9950    4.0620   -0.4720 C   0  0  0  0  0  0  0  0  0  0  0  0
   -5.2720    4.1510   -0.9670 F   0  0  0  0  0  0  0  0  0  0  0  0
   -3.1650    5.1510   -0.5360 C   0  0  0  0  0  0  0  0  0  0  0  0
   -3.7550    6.6600   -1.2430 Cl  0  0  0  0  0  0  0  0  0  0  0  0
   -1.8840    5.0390   -0.0420 C   0  0  0  0  0  0  0  0  0  0  0  0
   -1.3950    3.8640    0.5120 C   0  0  0  0  0  0  0  0  0  0  0  0
   -0.0920    3.9000    0.9790 F   0  0  0  0  0  0  0  0  0  0  0  0
    0.0900    0.3440    0.6440 C   0  0  0  0  0  0  0  0  0  0  0  0
    0.4820    1.2480    1.5650 O   0  0  0  0  0  0  0  0  0  0  0  0
    1.1860   -0.3370    0.0960 C   0  0  0  0  0  0  0  0  0  0  0  0
    2.4840   -0.0540    0.5760 C   0  0  0  0  0  0  0  0  0  0  0  0
    3.5550   -0.7120    0.0430 C   0  0  0  0  0  0  0  0  0  0  0  0
    4.8700   -0.4110    0.6090 C   0  0  0  0  0  0  0  0  0  0  0  0
    5.0900   -0.0220    1.9190 C   0  0  0  0  0  0  0  0  0  0  0  0
    6.3990    0.1680    2.0370 N   0  0  0  0  0  0  0  0  0  0  0  0
    7.0140   -0.0790    0.8710 N   0  0  0  0  0  0  0  0  0  0  0  0
    8.3350   -0.0380    0.5110 C   0  0  0  0  0  0  0  0  0  0  0  0
    8.6780   -0.3590   -0.7620 C   0  0  0  0  0  0  0  0  0  0  0  0
    7.7240   -0.7140   -1.6700 C   0  0  0  0  0  0  0  0  0  0  0  0
    6.4020   -0.7560   -1.2960 N   0  0  0  0  0  0  0  0  0  0  0  0
    6.0700   -0.4390   -0.0200 C   0  0  0  0  0  0  0  0  0  0  0  0
    3.3860   -1.6250   -0.9370 C   0  0  0  0  0  0  0  0  0  0  0  0
    2.1090   -1.9090   -1.4150 C   0  0  0  0  0  0  0  0  0  0  0  0
    1.0950   -1.2470   -0.8680 N   0  0  0  0  0  0  0  0  0  0  0  0
  1  2  1  0
  2  3  1  0
  4  3  1  6
  4  5  1  0
  4 14  1  0
  5  6  2  0
  5 12  1  0
  6  7  1  0
  7  8  1  0
  7  9  2  0
  9 10  1  0
  9 11  1  0
 11 12  2  0
 12 13  1  0
 14 15  1  0
 14 25  1  0
 15 16  1  0
 16 17  2  0
 16 23  1  0
 17 18  1  0
 18 19  1  0
 18 20  2  0
 20 21  1  0
 20 22  1  0
 22 23  2  0
 23 24  1  0
 25 26  2  0
 25 27  1  0
 27 28  2  0
 27 41  1  0
 28 29  1  0
 29 30  1  0
 29 39  2  0
 30 31  1  0
 30 38  2  0
 31 32  2  0
 32 33  1  0
 33 34  1  0
 33 38  1  0
 34 35  2  0
 35 36  1  0
 36 37  2  0
 37 38  1  0
 39 40  1  0
 40 41  2  0
M  END
