
     RDKit          3D

 41 45  0  0  0  0  0  0  0  0999 V2000
   -0.8390   -0.9520   -1.9300 C   0  0  0  0  0  0  0  0  0  0  0  0
   -2.0710   -0.1080   -1.6780 C   0  0  0  0  0  0  0  0  0  0  0  0
   -2.2270    0.1160   -0.2180 C   0  0  0  0  0  0  0  0  0  0  0  0
   -2.7190   -0.9270    0.5330 C   0  0  0  0  0  0  0  0  0  0  0  0
   -3.0720   -2.2030   -0.1170 C   0  0  0  0  0  0  0  0  0  0  0  0
   -3.7690   -3.1820    0.8070 C   0  0  0  0  0  0  0  0  0  0  0  0
   -4.9460   -2.7300    1.3330 O   0  0  0  0  0  0  0  0  0  0  0  0
   -5.9320   -2.4020    0.4400 C   0  0  0  0  0  0  0  0  0  0  0  0
   -2.8970   -0.8080    1.8940 C   0  0  0  0  0  0  0  0  0  0  0  0
   -2.5660    0.4040    2.5000 C   0  0  0  0  0  0  0  0  0  0  0  0
   -2.7900    0.5660    4.2340 Cl  0  0  0  0  0  0  0  0  0  0  0  0
   -2.0740    1.4530    1.7600 C   0  0  0  0  0  0  0  0  0  0  0  0
   -1.9060    1.3040    0.4070 C   0  0  0  0  0  0  0  0  0  0  0  0
   -1.4080    2.3500   -0.4020 N   0  0  0  0  0  0  0  0  0  0  0  0
   -0.0970    2.6110   -0.4060 C   0  0  0  0  0  0  0  0  0  0  0  0
    0.8530    1.8760    0.3760 N   0  0  0  0  0  0  0  0  0  0  0  0
    0.9940    1.6530    1.7900 C   0  0  0  0  0  0  0  0  0  0  0  0
    2.5190    1.6330    1.9530 C   0  0  0  0  0  0  0  0  0  0  0  0
    2.9030    0.8490    0.7990 N   0  0  0  0  0  0  0  0  0  0  0  0
    4.0230   -0.0260    0.7760 C   0  0  0  0  0  0  0  0  0  0  0  0
    3.9270   -1.3730    0.4900 C   0  0  0  0  0  0  0  0  0  0  0  0
    5.0180   -2.2150    0.4710 C   0  0  0  0  0  0  0  0  0  0  0  0
    4.9120   -3.6690    0.1630 C   0  0  2  0  0  0  0  0  0  0  0  0
    5.7320   -4.0460   -1.0520 C   0  0  0  0  0  0  0  0  0  0  0  0
    3.6090   -4.0810    0.0700 F   0  0  0  0  0  0  0  0  0  0  0  0
    5.4700   -4.3590    1.2470 F   0  0  0  0  0  0  0  0  0  0  0  0
    6.2710   -1.6950    0.7500 C   0  0  0  0  0  0  0  0  0  0  0  0
    7.6640   -2.7890    0.7210 Cl  0  0  0  0  0  0  0  0  0  0  0  0
    6.4250   -0.3580    1.0420 C   0  0  0  0  0  0  0  0  0  0  0  0
    5.3120    0.4520    1.0520 C   0  0  0  0  0  0  0  0  0  0  0  0
    5.4740    1.7600    1.3390 F   0  0  0  0  0  0  0  0  0  0  0  0
    1.9450    1.1720   -0.2040 C   0  0  0  0  0  0  0  0  0  0  0  0
    2.0950    0.8530   -1.4290 O   0  0  0  0  0  0  0  0  0  0  0  0
    0.3120    3.6270   -1.2010 N   0  0  0  0  0  0  0  0  0  0  0  0
   -0.5430    4.3410   -1.9480 C   0  0  0  0  0  0  0  0  0  0  0  0
   -0.1480    5.2930   -2.6900 O   0  0  0  0  0  0  0  0  0  0  0  0
   -1.8990    4.0800   -1.9510 C   0  0  0  0  0  0  0  0  0  0  0  0
   -2.9760    4.5970   -2.5670 N   0  0  0  0  0  0  0  0  0  0  0  0
   -4.0830    3.9410   -2.1930 C   0  0  0  0  0  0  0  0  0  0  0  0
   -3.6890    2.9680   -1.3030 C   0  0  0  0  0  0  0  0  0  0  0  0
   -2.2970    3.0420   -1.1360 C   0  0  0  0  0  0  0  0  0  0  0  0
  1  2  1  0
  2  3  1  0
  3  4  2  0
  3 13  1  0
  4  5  1  0
  4  9  1  0
  5  6  1  0
  6  7  1  0
  7  8  1  0
  9 10  2  0
 10 11  1  0
 10 12  1  0
 12 13  2  0
 13 14  1  0
 14 15  1  0
 14 41  1  0
 15 16  1  0
 15 34  2  0
 16 17  1  0
 16 32  1  0
 17 18  1  0
 18 19  1  0
 19 20  1  0
 19 32  1  0
 20 21  2  0
 20 30  1  0
 21 22  1  0
 22 23  1  0
 22 27  2  0
 23 24  1  6
 23 25  1  0
 23 26  1  0
 27 28  1  0
 27 29  1  0
 29 30  2  0
 30 31  1  0
 32 33  2  0
 34 35  1  0
 35 36  2  0
 35 37  1  0
 37 38  1  0
 37 41  2  0
 38 39  1  0
 39 40  2  0
 40 41  1  0
M  END
