
     RDKit          3D

 41 45  0  0  0  0  0  0  0  0999 V2000
  -10.6460   -0.7300    2.9010 C   0  0  0  0  0  0  0  0  0  0  0  0
   -9.2940   -0.5940    2.4640 O   0  0  0  0  0  0  0  0  0  0  0  0
   -8.9620   -0.6020    1.1150 C   0  0  0  0  0  0  0  0  0  0  0  0
   -9.8640   -0.7300    0.2600 O   0  0  0  0  0  0  0  0  0  0  0  0
   -7.6230   -0.4670    0.6970 N   0  0  0  0  0  0  0  0  0  0  0  0
   -6.5840   -0.3180    1.6850 C   0  0  0  0  0  0  0  0  0  0  0  0
   -5.8090    0.9580    1.3190 C   0  0  0  0  0  0  0  0  0  0  0  0
   -5.1490    0.6270    0.0170 C   0  0  0  0  0  0  0  0  0  0  0  0
   -3.8330    0.9980   -0.2360 C   0  0  0  0  0  0  0  0  0  0  0  0
   -3.2120    0.6940   -1.4260 C   0  0  0  0  0  0  0  0  0  0  0  0
   -1.8960    1.0850   -1.6370 O   0  0  0  0  0  0  0  0  0  0  0  0
   -1.2090    0.7970   -2.8420 C   0  0  0  0  0  0  0  0  0  0  0  0
    0.1820    1.3600   -2.7360 C   0  0  0  0  0  0  0  0  0  0  0  0
    0.9330    0.7760   -1.6090 N   0  0  0  0  0  0  0  0  0  0  0  0
    2.2530    1.1910   -1.4050 C   0  0  0  0  0  0  0  0  0  0  0  0
    2.8810    2.1730   -2.1860 C   0  0  0  0  0  0  0  0  0  0  0  0
    4.1470    2.3740   -1.7450 C   0  0  0  0  0  0  0  0  0  0  0  0
    4.3190    1.5250   -0.6920 N   0  0  0  0  0  0  0  0  0  0  0  0
    5.3690    1.3480    0.0640 N   0  0  0  0  0  0  0  0  0  0  0  0
    5.4150    0.4660    1.0880 C   0  0  0  0  0  0  0  0  0  0  0  0
    6.6560    0.3600    1.9170 C   0  0  0  0  0  0  0  0  0  0  0  0
    7.7830   -0.2990    1.2160 C   0  0  0  0  0  0  0  0  0  0  0  0
    8.6920    0.5510    0.6000 C   0  0  0  0  0  0  0  0  0  0  0  0
    9.7540    0.0530   -0.0980 C   0  0  0  0  0  0  0  0  0  0  0  0
    9.9290   -1.2750   -0.1950 N   0  0  0  0  0  0  0  0  0  0  0  0
    9.0600   -2.1100    0.3930 C   0  0  0  0  0  0  0  0  0  0  0  0
    7.9540   -1.6510    1.1220 C   0  0  0  0  0  0  0  0  0  0  0  0
    7.0490   -2.6160    1.7590 C   0  0  0  0  0  0  0  0  0  0  0  0
    7.3570   -2.6240    3.5310 Cl  0  0  0  0  0  0  0  0  0  0  0  0
    4.2910   -0.2590    1.3170 C   0  0  0  0  0  0  0  0  0  0  0  0
    3.1310   -0.1190    0.5430 C   0  0  0  0  0  0  0  0  0  0  0  0
    1.9590   -0.9460    0.8390 C   0  0  1  0  0  0  0  0  0  0  0  0
    1.5370   -1.7660   -0.1690 F   0  0  0  0  0  0  0  0  0  0  0  0
    2.3890   -1.8950    1.8230 F   0  0  0  0  0  0  0  0  0  0  0  0
    0.6680   -0.0660    1.6850 Cl  0  0  0  0  0  0  0  0  0  0  0  0
    3.1870    0.8080   -0.4770 C   0  0  0  0  0  0  0  0  0  0  0  0
   -3.9450    0.0020   -2.3730 C   0  0  0  0  0  0  0  0  0  0  0  0
   -5.2490   -0.3640   -2.1190 C   0  0  0  0  0  0  0  0  0  0  0  0
   -5.9620   -1.0430   -3.0530 F   0  0  0  0  0  0  0  0  0  0  0  0
   -5.8950   -0.0630   -0.9150 C   0  0  0  0  0  0  0  0  0  0  0  0
   -7.3030   -0.4800   -0.6970 C   0  0  0  0  0  0  0  0  0  0  0  0
  1  2  1  0
  2  3  1  0
  3  4  2  0
  3  5  1  0
  5  6  1  0
  5 41  1  0
  6  7  1  0
  7  8  1  0
  8  9  2  0
  8 40  1  0
  9 10  1  0
 10 11  1  0
 10 37  2  0
 11 12  1  0
 12 13  1  0
 13 14  1  0
 14 15  1  0
 15 16  1  0
 15 36  2  0
 16 17  2  0
 17 18  1  0
 18 19  1  0
 18 36  1  0
 19 20  2  0
 20 21  1  0
 20 30  1  0
 21 22  1  0
 22 23  2  0
 22 27  1  0
 23 24  1  0
 24 25  2  0
 25 26  1  0
 26 27  2  0
 27 28  1  0
 28 29  1  0
 30 31  2  0
 31 32  1  0
 31 36  1  0
 32 33  1  6
 32 34  1  0
 32 35  1  0
 37 38  1  0
 38 39  1  0
 38 40  2  0
 40 41  1  0
M  END
