
     RDKit          3D

 42 45  0  0  0  0  0  0  0  0999 V2000
   -5.3820   -1.3390   -0.8560 C   0  0  0  0  0  0  0  0  0  0  0  0
   -5.0110   -2.2350    0.2790 C   0  0  0  0  0  0  0  0  0  0  0  0
   -3.5780   -2.2260    0.6700 C   0  0  0  0  0  0  0  0  0  0  0  0
   -3.0520   -0.8730    1.1180 C   0  0  1  0  0  0  0  0  0  0  0  0
   -3.8140   -0.3840    2.3040 C   0  0  0  0  0  0  0  0  0  0  0  0
   -3.4080    0.9330    2.8570 C   0  0  0  0  0  0  0  0  0  0  0  0
   -3.5020    2.0830    1.9650 C   0  0  0  0  0  0  0  0  0  0  0  0
   -4.6470    2.8470    1.8590 C   0  0  0  0  0  0  0  0  0  0  0  0
   -4.6640    3.9300    1.0030 C   0  0  0  0  0  0  0  0  0  0  0  0
   -3.5730    4.2810    0.2430 C   0  0  0  0  0  0  0  0  0  0  0  0
   -2.4130    3.5260    0.3350 C   0  0  0  0  0  0  0  0  0  0  0  0
   -2.4200    2.4450    1.2010 C   0  0  0  0  0  0  0  0  0  0  0  0
   -1.5850   -1.0940    1.4110 C   0  0  0  0  0  0  0  0  0  0  0  0
   -0.7340   -1.1450    0.2130 C   0  0  0  0  0  0  0  0  0  0  0  0
    0.5340   -1.7350    0.4300 O   0  0  0  0  0  0  0  0  0  0  0  0
   -1.1050   -0.6880   -0.9460 C   0  0  0  0  0  0  0  0  0  0  0  0
   -0.2310   -0.7550   -2.1330 C   0  0  2  0  0  0  0  0  0  0  0  0
   -0.9340   -1.1330   -3.4000 C   0  0  0  0  0  0  0  0  0  0  0  0
   -1.6330   -2.4480   -3.4010 C   0  0  0  0  0  0  0  0  0  0  0  0
    1.0280   -1.4890   -1.9620 C   0  0  0  0  0  0  0  0  0  0  0  0
    1.1040   -2.8740   -1.8400 C   0  0  0  0  0  0  0  0  0  0  0  0
    2.3270   -3.4900   -1.7090 C   0  0  0  0  0  0  0  0  0  0  0  0
    3.5300   -2.8170   -1.6880 C   0  0  0  0  0  0  0  0  0  0  0  0
    3.4510   -1.4470   -1.8100 C   0  0  0  0  0  0  0  0  0  0  0  0
    4.6570   -0.6920   -1.8140 N   0  0  0  0  0  0  0  0  0  0  0  0
    5.9580   -0.9160   -0.7250 S   0  0  2  0  0  0  0  0  0  0  0  0
    7.2570   -1.0390   -1.4930 O   0  0  0  0  0  0  0  0  0  0  0  0
    5.8100   -2.1660    0.0910 O   0  0  0  0  0  0  0  0  0  0  0  0
    6.0800    0.5030    0.3010 C   0  0  0  0  0  0  0  0  0  0  0  0
    7.2380    1.2750    0.3240 C   0  0  0  0  0  0  0  0  0  0  0  0
    7.3700    2.3990    1.1120 C   0  0  0  0  0  0  0  0  0  0  0  0
    6.3220    2.7900    1.9180 C   0  0  0  0  0  0  0  0  0  0  0  0
    6.4190    4.0070    2.7890 C   0  0  1  0  0  0  0  0  0  0  0  0
    6.2720    3.6310    4.0940 F   0  0  0  0  0  0  0  0  0  0  0  0
    7.5910    4.6920    2.5440 F   0  0  0  0  0  0  0  0  0  0  0  0
    5.3290    4.8100    2.4580 F   0  0  0  0  0  0  0  0  0  0  0  0
    5.1850    2.0160    1.8840 C   0  0  0  0  0  0  0  0  0  0  0  0
    5.0850    0.9230    1.1030 N   0  0  0  0  0  0  0  0  0  0  0  0
    2.2370   -0.8090   -1.9410 C   0  0  0  0  0  0  0  0  0  0  0  0
   -2.4120   -0.0440   -1.0840 C   0  0  0  0  0  0  0  0  0  0  0  0
   -2.8710    0.4330   -2.1460 O   0  0  0  0  0  0  0  0  0  0  0  0
   -3.2100    0.0480    0.0520 O   0  0  0  0  0  0  0  0  0  0  0  0
  1  2  1  0
  2  3  1  0
  4  3  1  6
  4  5  1  0
  4 13  1  0
  4 42  1  0
  5  6  1  0
  6  7  1  0
  7  8  2  0
  7 12  1  0
  8  9  1  0
  9 10  2  0
 10 11  1  0
 11 12  2  0
 13 14  1  0
 14 15  1  0
 14 16  2  0
 16 17  1  0
 16 40  1  0
 17 18  1  6
 17 20  1  0
 18 19  1  0
 20 21  2  0
 20 39  1  0
 21 22  1  0
 22 23  2  0
 23 24  1  0
 24 25  1  0
 24 39  2  0
 26 25  1  6
 26 27  2  0
 26 28  2  0
 26 29  1  0
 29 30  2  0
 29 38  1  0
 30 31  1  0
 31 32  2  0
 32 33  1  0
 32 37  1  0
 33 34  1  1
 33 35  1  0
 33 36  1  0
 37 38  2  0
 40 41  2  0
 40 42  1  0
M  END
