
     RDKit          3D

 42 48  0  0  0  0  0  0  0  0999 V2000
    2.4730    2.0410   -1.4760 C   0  0  0  0  0  0  0  0  0  0  0  0
    2.9810    1.0180   -0.5590 C   0  0  0  0  0  0  0  0  0  0  0  0
    2.2720    0.2510    0.3490 C   0  0  0  0  0  0  0  0  0  0  0  0
    0.8310    0.1640    0.6480 C   0  0  0  0  0  0  0  0  0  0  0  0
    0.1500    1.4470    0.7470 N   0  0  0  0  0  0  0  0  0  0  0  0
   -0.8930    1.3510    1.7820 C   0  0  0  0  0  0  0  0  0  0  0  0
   -1.7650    0.1310    1.5940 C   0  0  0  0  0  0  0  0  0  0  0  0
   -2.2920    0.1710    0.2190 N   0  0  0  0  0  0  0  0  0  0  0  0
   -3.0210   -0.9350   -0.2540 C   0  0  0  0  0  0  0  0  0  0  0  0
   -2.4010   -2.0490   -0.6760 N   0  0  0  0  0  0  0  0  0  0  0  0
   -3.1030   -3.1070   -1.1160 C   0  0  0  0  0  0  0  0  0  0  0  0
   -4.4790   -3.1000   -1.1560 C   0  0  0  0  0  0  0  0  0  0  0  0
   -5.1630   -1.9660   -0.7300 C   0  0  0  0  0  0  0  0  0  0  0  0
   -4.4270   -0.8920   -0.2820 C   0  0  0  0  0  0  0  0  0  0  0  0
   -5.0570    0.3500    0.1750 C   0  0  0  0  0  0  0  0  0  0  0  0
   -6.4740    0.2890    0.0940 N   0  0  2  0  0  0  0  0  0  0  0  0
   -7.0700    1.6390    0.1150 C   0  0  0  0  0  0  0  0  0  0  0  0
   -8.4850    1.4630   -0.4150 C   0  0  0  0  0  0  0  0  0  0  0  0
   -9.3010    0.5160    0.4270 C   0  0  0  0  0  0  0  0  0  0  0  0
   -8.5230   -0.7340    0.7850 C   0  0  0  0  0  0  0  0  0  0  0  0
   -7.1050   -0.4120    1.1900 C   0  0  0  0  0  0  0  0  0  0  0  0
   -2.0110    1.3760   -0.5040 C   0  0  0  0  0  0  0  0  0  0  0  0
   -0.5250    1.6120   -0.5520 C   0  0  0  0  0  0  0  0  0  0  0  0
    3.1640   -0.5580    1.0020 N   0  0  0  0  0  0  0  0  0  0  0  0
    3.1070   -1.5040    1.9620 C   0  0  0  0  0  0  0  0  0  0  0  0
    2.0240   -1.8290    2.4890 O   0  0  0  0  0  0  0  0  0  0  0  0
    4.2320   -2.1450    2.3950 N   0  0  0  0  0  0  0  0  0  0  0  0
    4.0940   -3.1620    3.4300 C   0  0  0  0  0  0  0  0  0  0  0  0
    5.4480   -1.8610    1.8850 C   0  0  0  0  0  0  0  0  0  0  0  0
    6.4900   -2.4290    2.2610 O   0  0  0  0  0  0  0  0  0  0  0  0
    5.5480   -0.8940    0.8970 C   0  0  0  0  0  0  0  0  0  0  0  0
    6.7250   -0.5070    0.2930 C   0  0  0  0  0  0  0  0  0  0  0  0
    6.7310    0.4820   -0.7020 C   0  0  0  0  0  0  0  0  0  0  0  0
    7.9520    0.8740   -1.2930 N   0  0  0  0  0  0  0  0  0  0  0  0
    9.2090    1.0710   -0.5850 C   0  0  0  0  0  0  0  0  0  0  0  0
   10.2270    0.6320   -1.6130 C   0  0  0  0  0  0  0  0  0  0  0  0
    9.6600    1.1270   -2.8480 N   0  0  0  0  0  0  0  0  0  0  0  0
    8.2460    1.1540   -2.6500 C   0  0  0  0  0  0  0  0  0  0  0  0
    7.3310    1.3870   -3.5080 O   0  0  0  0  0  0  0  0  0  0  0  0
    5.5170    1.0600   -1.0640 C   0  0  0  0  0  0  0  0  0  0  0  0
    4.3380    0.6760   -0.4620 C   0  0  0  0  0  0  0  0  0  0  0  0
    4.3760   -0.2870    0.5050 C   0  0  0  0  0  0  0  0  0  0  0  0
  1  2  1  0
  2  3  2  0
  2 41  1  0
  3  4  1  0
  3 24  1  0
  4  5  1  0
  5  6  1  0
  5 23  1  0
  6  7  1  0
  7  8  1  0
  8  9  1  0
  8 22  1  0
  9 10  2  0
  9 14  1  0
 10 11  1  0
 11 12  2  0
 12 13  1  0
 13 14  2  0
 14 15  1  0
 16 15  1  1
 16 17  1  0
 16 21  1  0
 17 18  1  0
 18 19  1  0
 19 20  1  0
 20 21  1  0
 22 23  1  0
 24 25  1  0
 24 42  1  0
 25 26  2  0
 25 27  1  0
 27 28  1  0
 27 29  1  0
 29 30  2  0
 29 31  1  0
 31 32  1  0
 31 42  2  0
 32 33  2  0
 33 34  1  0
 33 40  1  0
 34 35  1  0
 34 38  1  0
 35 36  1  0
 36 37  1  0
 37 38  1  0
 38 39  2  0
 40 41  2  0
 41 42  1  0
M  CHG  2  10   1  16   1
M  END
