
     RDKit          3D

 42 46  0  0  0  0  0  0  0  0999 V2000
    8.8020   -2.7300    2.8480 N   0  0  0  0  0  0  0  0  0  0  0  0
    8.7590   -2.1700    1.6880 C   0  0  0  0  0  0  0  0  0  0  0  0
    7.7150   -1.4560    1.1380 O   0  0  0  0  0  0  0  0  0  0  0  0
    8.0080   -0.9980   -0.1250 C   0  0  0  0  0  0  0  0  0  0  0  0
    7.2460   -0.2560   -1.0040 C   0  0  0  0  0  0  0  0  0  0  0  0
    5.8940    0.2050   -0.7150 C   0  0  0  0  0  0  0  0  0  0  0  0
    5.2520   -0.0320    0.4310 N   0  0  0  0  0  0  0  0  0  0  0  0
    4.0020    0.5320    0.3980 C   0  0  0  0  0  0  0  0  0  0  0  0
    3.0950    0.3900    1.4800 C   0  0  0  0  0  0  0  0  0  0  0  0
    1.9410    0.8210    1.8160 C   0  0  0  0  0  0  0  0  0  0  0  0
    1.0320    1.7160    1.1590 C   0  0  0  0  0  0  0  0  0  0  0  0
    1.3100    2.5790    0.1340 C   0  0  0  0  0  0  0  0  0  0  0  0
    0.3520    3.3600   -0.5080 C   0  0  0  0  0  0  0  0  0  0  0  0
   -0.9500    3.2840   -0.1120 C   0  0  0  0  0  0  0  0  0  0  0  0
   -1.2900    2.4280    0.9240 C   0  0  0  0  0  0  0  0  0  0  0  0
   -2.6860    2.3480    1.3500 C   0  0  0  0  0  0  0  0  0  0  0  0
   -3.0370    3.1530    2.2480 O   0  0  0  0  0  0  0  0  0  0  0  0
   -3.5570    1.4080    0.7630 N   0  0  0  0  0  0  0  0  0  0  0  0
   -3.1140    0.4870   -0.2780 C   0  0  0  0  0  0  0  0  0  0  0  0
   -3.9510   -0.7790   -0.1060 C   0  0  0  0  0  0  0  0  0  0  0  0
   -5.2860   -0.4910   -0.5620 N   0  0  0  0  0  0  0  0  0  0  0  0
   -6.1520   -1.6350   -0.2880 C   0  0  0  0  0  0  0  0  0  0  0  0
   -7.5380   -1.4050   -0.7460 C   0  0  0  0  0  0  0  0  0  0  0  0
   -8.5790   -1.4040    0.0520 C   0  0  0  0  0  0  0  0  0  0  0  0
   -8.5500   -1.6260    1.5100 C   0  0  0  0  0  0  0  0  0  0  0  0
   -9.3030   -2.7410    1.8730 F   0  0  0  0  0  0  0  0  0  0  0  0
   -7.7740   -1.1660   -2.2200 C   0  0  2  0  0  0  0  0  0  0  0  0
   -7.0660   -0.0540   -2.6260 F   0  0  0  0  0  0  0  0  0  0  0  0
   -9.4930   -0.9440   -2.5390 Cl  0  0  0  0  0  0  0  0  0  0  0  0
   -5.7770    0.7060    0.0290 C   0  0  0  0  0  0  0  0  0  0  0  0
   -4.9540    1.2780    1.1470 C   0  0  0  0  0  0  0  0  0  0  0  0
   -0.3340    1.6640    1.5450 C   0  0  0  0  0  0  0  0  0  0  0  0
   -0.7790    0.5740    2.8570 Cl  0  0  0  0  0  0  0  0  0  0  0  0
    3.9690    1.0960   -0.8170 N   0  0  0  0  0  0  0  0  0  0  0  0
    5.0780    0.8940   -1.4450 O   0  0  0  0  0  0  0  0  0  0  0  0
    7.8010    0.0670   -2.2220 C   0  0  0  0  0  0  0  0  0  0  0  0
    9.0720   -0.3230   -2.5810 C   0  0  0  0  0  0  0  0  0  0  0  0
    9.8130   -1.0700   -1.6720 C   0  0  0  0  0  0  0  0  0  0  0  0
    9.2920   -1.4090   -0.4480 C   0  0  0  0  0  0  0  0  0  0  0  0
    9.8550   -2.1770    0.6810 C   0  0  1  0  0  0  0  0  0  0  0  0
   10.9130   -1.4860    1.2830 F   0  0  0  0  0  0  0  0  0  0  0  0
   10.2220   -3.4520    0.3200 F   0  0  0  0  0  0  0  0  0  0  0  0
  1  2  2  0
  2  3  1  0
  2 40  1  0
  3  4  1  0
  4  5  2  0
  4 39  1  0
  5  6  1  0
  5 36  1  0
  6  7  2  0
  6 35  1  0
  7  8  1  0
  8  9  1  0
  8 34  2  0
  9 10  2  3
 10 11  1  0
 11 12  2  0
 11 32  1  0
 12 13  1  0
 13 14  2  0
 14 15  1  0
 15 16  1  0
 15 32  2  0
 16 17  2  0
 16 18  1  0
 18 19  1  0
 18 31  1  0
 19 20  1  0
 20 21  1  0
 21 22  1  0
 21 30  1  0
 22 23  1  0
 23 24  2  3
 23 27  1  0
 24 25  1  0
 25 26  1  0
 27 28  1  1
 27 29  1  0
 30 31  1  0
 32 33  1  0
 34 35  1  0
 36 37  2  0
 37 38  1  0
 38 39  2  0
 39 40  1  0
 40 41  1  1
 40 42  1  0
M  END
