
     RDKit          3D

 42 46  0  0  0  0  0  0  0  0999 V2000
    0.5390   -3.3780   -1.0200 C   0  0  0  0  0  0  0  0  0  0  0  0
    1.0060   -1.9620   -0.6640 C   0  0  1  0  0  0  0  0  0  0  0  0
    2.2840   -1.9280   -0.0570 N   0  0  0  0  0  0  0  0  0  0  0  0
    3.2430   -0.9620   -0.4570 C   0  0  0  0  0  0  0  0  0  0  0  0
    4.3050   -0.5940    0.3370 C   0  0  0  0  0  0  0  0  0  0  0  0
    5.2150    0.3450   -0.0820 C   0  0  0  0  0  0  0  0  0  0  0  0
    6.3670    0.7410    0.7850 C   0  0  0  0  0  0  0  0  0  0  0  0
    7.6450    0.1110    0.2860 C   0  0  0  0  0  0  0  0  0  0  0  0
    8.8270    0.4980    1.1520 C   0  0  0  0  0  0  0  0  0  0  0  0
   10.0940   -0.1430    0.6290 C   0  0  1  0  0  0  0  0  0  0  0  0
   10.2690    0.3210   -0.6620 F   0  0  0  0  0  0  0  0  0  0  0  0
   11.4690    0.4330    1.5960 Cl  0  0  0  0  0  0  0  0  0  0  0  0
    5.1060    0.9620   -1.3140 C   0  0  0  0  0  0  0  0  0  0  0  0
    6.2900    2.1580   -1.8100 Cl  0  0  0  0  0  0  0  0  0  0  0  0
    4.0460    0.6080   -2.1270 C   0  0  0  0  0  0  0  0  0  0  0  0
    3.1360   -0.3390   -1.6970 C   0  0  0  0  0  0  0  0  0  0  0  0
    2.0160   -0.6800   -2.6140 C   0  0  0  0  0  0  0  0  0  0  0  0
    0.8980   -1.1900   -1.8880 N   0  0  0  0  0  0  0  0  0  0  0  0
   -0.5050   -1.0900   -2.1350 C   0  0  0  0  0  0  0  0  0  0  0  0
   -1.0460   -0.9370   -3.2770 O   0  0  0  0  0  0  0  0  0  0  0  0
   -1.1520   -1.1950   -0.8600 N   0  0  0  0  0  0  0  0  0  0  0  0
   -2.5710   -1.1490   -0.6420 C   0  0  0  0  0  0  0  0  0  0  0  0
   -3.0650    0.2670   -0.4450 C   0  0  0  0  0  0  0  0  0  0  0  0
   -2.2980    1.3020   -0.8170 N   0  0  0  0  0  0  0  0  0  0  0  0
   -2.6570    2.5850   -0.6790 C   0  0  0  0  0  0  0  0  0  0  0  0
   -3.8910    2.8390   -0.1180 C   0  0  0  0  0  0  0  0  0  0  0  0
   -4.3480    4.1210    0.0670 C   0  0  0  0  0  0  0  0  0  0  0  0
   -5.5900    4.2920    0.6350 C   0  0  0  0  0  0  0  0  0  0  0  0
   -6.3780    3.2320    1.0190 C   0  0  0  0  0  0  0  0  0  0  0  0
   -5.9310    1.9120    0.8390 C   0  0  0  0  0  0  0  0  0  0  0  0
   -6.8160    0.8420    1.2710 C   0  0  0  0  0  0  0  0  0  0  0  0
   -7.9150    1.1350    1.8010 O   0  0  0  0  0  0  0  0  0  0  0  0
   -6.4190   -0.5560    1.0860 C   0  0  0  0  0  0  0  0  0  0  0  0
   -7.4440   -1.5800    1.4570 C   0  0  0  0  0  0  0  0  0  0  0  0
   -8.7060   -1.5830    0.6800 C   0  0  2  0  0  0  0  0  0  0  0  0
   -9.5690   -2.6010    1.1370 F   0  0  0  0  0  0  0  0  0  0  0  0
   -8.4910   -1.8910   -0.6530 F   0  0  0  0  0  0  0  0  0  0  0  0
   -9.4550   -0.4380    0.7230 F   0  0  0  0  0  0  0  0  0  0  0  0
   -4.6910    1.7560    0.2710 C   0  0  0  0  0  0  0  0  0  0  0  0
   -4.2550    0.5060    0.0960 N   0  0  0  0  0  0  0  0  0  0  0  0
   -0.0990   -1.3570    0.1170 C   0  0  0  0  0  0  0  0  0  0  0  0
   -0.1760   -1.0390    1.3190 O   0  0  0  0  0  0  0  0  0  0  0  0
  2  1  1  6
  2  3  1  0
  2 18  1  0
  2 41  1  0
  3  4  1  0
  4  5  2  0
  4 16  1  0
  5  6  1  0
  6  7  1  0
  6 13  2  0
  7  8  1  0
  8  9  1  0
  9 10  1  0
 10 11  1  6
 10 12  1  0
 13 14  1  0
 13 15  1  0
 15 16  2  0
 16 17  1  0
 17 18  1  0
 18 19  1  0
 19 20  2  0
 19 21  1  0
 21 22  1  0
 21 41  1  0
 22 23  1  0
 23 24  2  0
 23 40  1  0
 24 25  1  0
 25 26  2  0
 26 27  1  0
 26 39  1  0
 27 28  2  0
 28 29  1  0
 29 30  2  0
 30 31  1  0
 30 39  1  0
 31 32  2  0
 31 33  1  0
 33 34  1  0
 34 35  1  0
 35 36  1  1
 35 37  1  0
 35 38  1  0
 39 40  2  0
 41 42  2  0
M  END
