
     RDKit          3D

 31 35  0  0  0  0  0  0  0  0999 V2000
   -4.6170    3.1910    0.4060 C   0  0  0  0  0  0  0  0  0  0  0  0
   -5.2020    1.8190    0.2040 C   0  0  0  0  0  0  0  0  0  0  0  0
   -4.1730    0.8480   -0.0590 N   0  0  0  0  0  0  0  0  0  0  0  0
   -4.4450   -0.5280   -0.2890 C   0  0  0  0  0  0  0  0  0  0  0  0
   -5.6970   -1.0740   -0.2850 C   0  0  0  0  0  0  0  0  0  0  0  0
   -5.5840   -2.3810   -0.5330 N   0  0  0  0  0  0  0  0  0  0  0  0
   -6.6550   -3.3850   -0.6280 C   0  0  0  0  0  0  0  0  0  0  0  0
   -4.2770   -2.6210   -0.6860 C   0  0  0  0  0  0  0  0  0  0  0  0
   -3.7910   -3.7430   -0.9310 O   0  0  0  0  0  0  0  0  0  0  0  0
   -3.5500   -1.4990   -0.5410 N   0  0  0  0  0  0  0  0  0  0  0  0
   -2.1400   -1.2980   -0.6210 C   0  0  0  0  0  0  0  0  0  0  0  0
   -1.4180   -1.4550    0.6800 C   0  0  0  0  0  0  0  0  0  0  0  0
    0.0100   -1.2220    0.4500 N   0  0  0  0  0  0  0  0  0  0  0  0
    0.8160   -2.2430    0.1260 C   0  0  0  0  0  0  0  0  0  0  0  0
    0.3680   -3.4300    0.0090 O   0  0  0  0  0  0  0  0  0  0  0  0
    2.1320   -2.0950   -0.0980 N   0  0  0  0  0  0  0  0  0  0  0  0
    2.7180   -0.8910   -0.0040 C   0  0  0  0  0  0  0  0  0  0  0  0
    1.8970    0.1670    0.3290 C   0  0  0  0  0  0  0  0  0  0  0  0
    2.7500    1.2760    0.3560 C   0  0  0  0  0  0  0  0  0  0  0  0
    4.0090    0.8660    0.0490 N   0  0  0  0  0  0  0  0  0  0  0  0
    5.1880    1.5220   -0.0620 C   0  0  0  0  0  0  0  0  0  0  0  0
    5.1950    2.8680    0.1640 C   0  0  0  0  0  0  0  0  0  0  0  0
    6.3650    3.5910    0.0660 C   0  0  0  0  0  0  0  0  0  0  0  0
    7.5620    2.9820   -0.2630 C   0  0  0  0  0  0  0  0  0  0  0  0
    7.5300    1.6270   -0.4860 C   0  0  0  0  0  0  0  0  0  0  0  0
    6.3630    0.8920   -0.3900 C   0  0  0  0  0  0  0  0  0  0  0  0
    6.3680   -0.4620   -0.6200 C   0  0  0  0  0  0  0  0  0  0  0  0
    5.1790   -1.1520   -0.5120 C   0  0  0  0  0  0  0  0  0  0  0  0
    4.0210   -0.4600   -0.1770 C   0  0  0  0  0  0  0  0  0  0  0  0
    0.5540   -0.0030    0.5540 C   0  0  0  0  0  0  0  0  0  0  0  0
   -0.1920    0.9560    0.8560 O   0  0  0  0  0  0  0  0  0  0  0  0
  1  2  1  0
  2  3  1  0
  3  4  1  0
  4  5  2  0
  4 10  1  0
  5  6  1  0
  6  7  1  0
  6  8  1  0
  8  9  2  0
  8 10  1  0
 10 11  1  0
 11 12  1  0
 12 13  1  0
 13 14  1  0
 13 30  1  0
 14 15  2  0
 14 16  1  0
 16 17  1  0
 17 18  1  0
 17 29  2  0
 18 19  2  0
 18 30  1  0
 19 20  1  0
 20 21  1  0
 20 29  1  0
 21 22  2  0
 21 26  1  0
 22 23  1  0
 23 24  2  0
 24 25  1  0
 25 26  2  0
 26 27  1  0
 27 28  2  0
 28 29  1  0
 30 31  2  0
M  END
