
     RDKit          3D

 31 35  0  0  0  0  0  0  0  0999 V2000
    8.5580    0.1990   -1.9290 C   0  0  0  0  0  0  0  0  0  0  0  0
    7.2080    0.0730   -2.1590 O   0  0  0  0  0  0  0  0  0  0  0  0
    6.4380    1.1140   -1.6900 C   0  0  0  0  0  0  0  0  0  0  0  0
    6.5590    1.2960   -0.1900 C   0  0  0  0  0  0  0  0  0  0  0  0
    6.1010    0.0150    0.4560 C   0  0  0  0  0  0  0  0  0  0  0  0
    6.8860   -0.9630    1.0140 C   0  0  0  0  0  0  0  0  0  0  0  0
    6.0960   -1.9360    1.4770 N   0  0  0  0  0  0  0  0  0  0  0  0
    4.8310   -1.5890    1.2220 N   0  0  0  0  0  0  0  0  0  0  0  0
    3.7070   -2.2730    1.5150 C   0  0  0  0  0  0  0  0  0  0  0  0
    2.5010   -1.6810    1.1350 C   0  0  0  0  0  0  0  0  0  0  0  0
    2.4560   -0.4710    0.4990 C   0  0  0  0  0  0  0  0  0  0  0  0
    1.1810    0.1090    0.1200 C   0  0  0  0  0  0  0  0  0  0  0  0
    1.1360    1.2440   -0.4740 O   0  0  0  0  0  0  0  0  0  0  0  0
   -0.0850   -0.4770    0.3500 N   0  0  0  0  0  0  0  0  0  0  0  0
   -1.3480    0.1610   -0.0580 C   0  0  1  0  0  0  0  0  0  0  0  0
   -1.9750   -0.6880   -1.1100 C   0  0  0  0  0  0  0  0  0  0  0  0
   -3.3700   -1.1400   -0.8070 C   0  0  0  0  0  0  0  0  0  0  0  0
   -3.4460   -1.5410    0.6240 C   0  0  0  0  0  0  0  0  0  0  0  0
   -3.0670   -0.5630    1.5640 N   0  0  0  0  0  0  0  0  0  0  0  0
   -4.2440   -0.0620    2.2490 C   0  0  0  0  0  0  0  0  0  0  0  0
   -5.2260    0.5590    1.3200 C   0  0  0  0  0  0  0  0  0  0  0  0
   -6.2210   -0.1190    0.7190 N   0  0  0  0  0  0  0  0  0  0  0  0
   -6.9290    0.7510   -0.0610 C   0  0  0  0  0  0  0  0  0  0  0  0
   -6.3320    1.9680    0.0890 C   0  0  0  0  0  0  0  0  0  0  0  0
   -5.3110    1.7970    0.9300 O   0  0  0  0  0  0  0  0  0  0  0  0
   -6.9440    2.8890   -0.6290 C   0  0  0  0  0  0  0  0  0  0  0  0
   -8.0650    2.2190   -1.3300 C   0  0  0  0  0  0  0  0  0  0  0  0
   -7.9620    0.8090   -0.8820 C   0  0  0  0  0  0  0  0  0  0  0  0
   -2.2210    0.4850    1.1050 C   0  0  0  0  0  0  0  0  0  0  0  0
    3.6280    0.1660    0.2330 N   0  0  0  0  0  0  0  0  0  0  0  0
    4.7950   -0.4020    0.5980 C   0  0  0  0  0  0  0  0  0  0  0  0
  1  2  1  0
  2  3  1  0
  3  4  1  0
  4  5  1  0
  5  6  1  0
  5 31  2  0
  6  7  2  0
  7  8  1  0
  8  9  1  0
  8 31  1  0
  9 10  2  0
 10 11  1  0
 11 12  1  0
 11 30  2  0
 12 13  2  0
 12 14  1  0
 15 14  1  1
 15 16  1  0
 15 29  1  0
 16 17  1  0
 17 18  1  0
 18 19  1  0
 19 20  1  0
 19 29  1  0
 20 21  1  0
 21 22  2  0
 21 25  1  0
 22 23  1  0
 23 24  1  0
 23 28  2  0
 24 25  1  0
 24 26  2  0
 26 27  1  0
 27 28  1  0
 30 31  1  0
M  END
