
     RDKit          3D

 31 35  0  0  0  0  0  0  0  0999 V2000
   -9.1020    0.4990    1.4390 C   0  0  0  0  0  0  0  0  0  0  0  0
   -8.4060    1.5780    0.8430 O   0  0  0  0  0  0  0  0  0  0  0  0
   -7.1220    1.3360    0.3790 C   0  0  0  0  0  0  0  0  0  0  0  0
   -6.3910    2.3450   -0.2110 C   0  0  0  0  0  0  0  0  0  0  0  0
   -5.1040    2.1120   -0.6800 C   0  0  0  0  0  0  0  0  0  0  0  0
   -4.5080    0.8750   -0.5760 C   0  0  0  0  0  0  0  0  0  0  0  0
   -3.2230    0.6240   -1.0380 C   0  0  0  0  0  0  0  0  0  0  0  0
   -2.5760    1.5420   -1.5670 O   0  0  0  0  0  0  0  0  0  0  0  0
   -2.6560   -0.5940   -0.9280 N   0  0  0  0  0  0  0  0  0  0  0  0
   -1.2980   -0.8580   -1.4140 C   0  0  0  0  0  0  0  0  0  0  0  0
   -0.2700   -0.6090   -0.3640 C   0  0  0  0  0  0  0  0  0  0  0  0
    1.0320   -0.8660   -0.8530 N   0  0  0  0  0  0  0  0  0  0  0  0
    1.3010   -2.2240   -1.1070 C   0  0  0  0  0  0  0  0  0  0  0  0
    2.2910   -2.8890   -0.1790 C   0  0  0  0  0  0  0  0  0  0  0  0
    3.0530   -1.8940    0.6720 C   0  0  0  0  0  0  0  0  0  0  0  0
    3.3840   -0.7320   -0.2450 C   0  0  2  0  0  0  0  0  0  0  0  0
    4.4050    0.1660    0.2990 C   0  0  0  0  0  0  0  0  0  0  0  0
    4.3970    0.8730    1.4390 N   0  0  0  0  0  0  0  0  0  0  0  0
    5.5170    1.5830    1.5920 C   0  0  0  0  0  0  0  0  0  0  0  0
    5.8770    2.4950    2.7370 C   0  0  0  0  0  0  0  0  0  0  0  0
    6.2970    1.3150    0.4790 C   0  0  0  0  0  0  0  0  0  0  0  0
    7.4600    1.5600   -0.1520 N   0  0  0  0  0  0  0  0  0  0  0  0
    7.5230    0.8740   -1.3050 C   0  0  0  0  0  0  0  0  0  0  0  0
    6.3280    0.1690   -1.3840 C   0  0  0  0  0  0  0  0  0  0  0  0
    5.5890    0.4560   -0.2750 N   0  0  0  0  0  0  0  0  0  0  0  0
    2.0770    0.0020   -0.4970 C   0  0  0  0  0  0  0  0  0  0  0  0
   -3.3920   -1.5570   -0.3490 C   0  0  0  0  0  0  0  0  0  0  0  0
   -2.8560   -2.7040   -0.2460 O   0  0  0  0  0  0  0  0  0  0  0  0
   -4.6470   -1.3430    0.1110 N   0  0  0  0  0  0  0  0  0  0  0  0
   -5.2400   -0.1340    0.0140 C   0  0  0  0  0  0  0  0  0  0  0  0
   -6.5290    0.0960    0.4850 C   0  0  0  0  0  0  0  0  0  0  0  0
  1  2  1  0
  2  3  1  0
  3  4  2  0
  3 31  1  0
  4  5  1  0
  5  6  2  0
  6  7  1  0
  6 30  1  0
  7  8  2  0
  7  9  1  0
  9 10  1  0
  9 27  1  0
 10 11  1  0
 11 12  1  0
 12 13  1  0
 12 26  1  0
 13 14  1  0
 14 15  1  0
 15 16  1  0
 16 17  1  1
 16 26  1  0
 17 18  2  0
 17 25  1  0
 18 19  1  0
 19 20  1  0
 19 21  2  0
 21 22  1  0
 21 25  1  0
 22 23  1  0
 23 24  2  0
 24 25  1  0
 27 28  2  0
 27 29  1  0
 29 30  1  0
 30 31  2  0
M  END
