
     RDKit          3D

 31 35  0  0  0  0  0  0  0  0999 V2000
   -7.5810   -2.2840   -1.7140 C   0  0  0  0  0  0  0  0  0  0  0  0
   -7.4670   -1.3660   -0.5370 C   0  0  2  0  0  0  0  0  0  0  0  0
   -8.2850   -0.1110   -0.7640 C   0  0  0  0  0  0  0  0  0  0  0  0
   -8.3370    0.6000    0.5670 C   0  0  0  0  0  0  0  0  0  0  0  0
   -6.9700    1.0290    0.9640 C   0  0  0  0  0  0  0  0  0  0  0  0
   -5.8820    0.2930    0.3960 N   0  0  0  0  0  0  0  0  0  0  0  0
   -4.5720    0.8200    0.5130 C   0  0  0  0  0  0  0  0  0  0  0  0
   -3.4610    0.1710    0.0300 C   0  0  0  0  0  0  0  0  0  0  0  0
   -2.1610    0.6770    0.1360 C   0  0  0  0  0  0  0  0  0  0  0  0
   -2.0150    1.8900    0.7620 C   0  0  0  0  0  0  0  0  0  0  0  0
   -0.7200    2.4430    0.9120 N   0  0  0  0  0  0  0  0  0  0  0  0
    0.5000    1.8180    0.5210 C   0  0  0  0  0  0  0  0  0  0  0  0
    0.9230    0.6390    1.3290 C   0  0  0  0  0  0  0  0  0  0  0  0
    2.2170    0.1370    0.7380 C   0  0  0  0  0  0  0  0  0  0  0  0
    3.4680    0.4990    1.0580 N   0  0  0  0  0  0  0  0  0  0  0  0
    4.3510   -0.1780    0.3030 C   0  0  0  0  0  0  0  0  0  0  0  0
    5.8000   -0.1130    0.3000 C   0  0  0  0  0  0  0  0  0  0  0  0
    6.4680    0.7320    1.1550 C   0  0  0  0  0  0  0  0  0  0  0  0
    7.8650    0.7920    1.1520 C   0  0  0  0  0  0  0  0  0  0  0  0
    8.5860    0.0070    0.2940 C   0  0  0  0  0  0  0  0  0  0  0  0
    7.9280   -0.8520   -0.5770 C   0  0  0  0  0  0  0  0  0  0  0  0
    6.5370   -0.8960   -0.5560 C   0  0  0  0  0  0  0  0  0  0  0  0
    8.6930   -1.6190   -1.4180 O   0  0  0  0  0  0  0  0  0  0  0  0
    9.9810   -1.1980   -1.8840 C   0  0  0  0  0  0  0  0  0  0  0  0
   10.7320   -0.4220   -0.8530 C   0  0  0  0  0  0  0  0  0  0  0  0
    9.9670    0.0090    0.2290 O   0  0  0  0  0  0  0  0  0  0  0  0
    3.5820   -0.9680   -0.4920 N   0  0  0  0  0  0  0  0  0  0  0  0
    2.3300   -0.7610   -0.2130 O   0  0  0  0  0  0  0  0  0  0  0  0
   -3.1240    2.5170    1.2330 N   0  0  0  0  0  0  0  0  0  0  0  0
   -4.3420    2.0210    1.1210 N   0  0  0  0  0  0  0  0  0  0  0  0
   -6.0580   -0.9520   -0.2860 C   0  0  0  0  0  0  0  0  0  0  0  0
  2  1  1  6
  2  3  1  0
  2 31  1  0
  3  4  1  0
  4  5  1  0
  5  6  1  0
  6  7  1  0
  6 31  1  0
  7  8  2  0
  7 30  1  0
  8  9  1  0
  9 10  2  0
 10 11  1  0
 10 29  1  0
 11 12  1  0
 12 13  1  0
 13 14  1  0
 14 15  2  0
 14 28  1  0
 15 16  1  0
 16 17  1  0
 16 27  2  0
 17 18  2  0
 17 22  1  0
 18 19  1  0
 19 20  2  0
 20 21  1  0
 20 26  1  0
 21 22  2  0
 21 23  1  0
 23 24  1  0
 24 25  1  0
 25 26  1  0
 27 28  1  0
 29 30  2  0
M  END
