
     RDKit          3D

 31 34  0  0  0  0  0  0  0  0999 V2000
   -2.3830    4.2900    0.2030 C   0  0  0  0  0  0  0  0  0  0  0  0
   -1.8130    3.1220    0.0750 C   0  0  0  0  0  0  0  0  0  0  0  0
   -2.5590    1.9780    0.1020 C   0  0  0  0  0  0  0  0  0  0  0  0
   -3.8560    1.8720    0.2040 C   0  0  0  0  0  0  0  0  0  0  0  0
   -4.9410    2.8320    0.3170 C   0  0  0  0  0  0  0  0  0  0  0  0
   -1.8670    0.7490   -0.0190 C   0  0  0  0  0  0  0  0  0  0  0  0
   -2.6110   -0.3610    0.0120 N   0  0  0  0  0  0  0  0  0  0  0  0
   -2.1720   -1.6140   -0.0820 C   0  0  0  0  0  0  0  0  0  0  0  0
   -3.1330   -2.7250   -0.0190 C   0  0  2  0  0  0  0  0  0  0  0  0
   -2.7250   -3.7880    0.9870 C   0  0  0  0  0  0  0  0  0  0  0  0
   -3.4860   -4.9740    0.4310 C   0  0  0  0  0  0  0  0  0  0  0  0
   -3.3420   -4.8550   -0.9280 O   0  0  0  0  0  0  0  0  0  0  0  0
   -3.2560   -3.5330   -1.2740 C   0  0  0  0  0  0  0  0  0  0  0  0
   -0.8100   -1.7660   -0.2270 C   0  0  0  0  0  0  0  0  0  0  0  0
    0.0400   -0.6630   -0.2690 C   0  0  0  0  0  0  0  0  0  0  0  0
    1.4340   -0.8390   -0.4620 N   0  0  0  0  0  0  0  0  0  0  0  0
    2.1340   -2.0610   -0.3470 C   0  0  0  0  0  0  0  0  0  0  0  0
    1.4500   -3.1080   -0.0300 O   0  0  0  0  0  0  0  0  0  0  0  0
    3.5510   -2.3240   -0.5420 C   0  0  0  0  0  0  0  0  0  0  0  0
    4.4290   -1.2980   -0.7690 O   0  0  0  0  0  0  0  0  0  0  0  0
    4.6880   -0.2830    0.1070 C   0  0  0  0  0  0  0  0  0  0  0  0
    4.1230   -0.1980    1.2040 O   0  0  0  0  0  0  0  0  0  0  0  0
    5.6970    0.7410   -0.3050 C   0  0  0  0  0  0  0  0  0  0  0  0
    6.9510    0.4820    0.5360 C   0  0  0  0  0  0  0  0  0  0  0  0
   -0.5260    0.6080   -0.1610 C   0  0  0  0  0  0  0  0  0  0  0  0
    0.2130    1.7790   -0.1870 C   0  0  0  0  0  0  0  0  0  0  0  0
    1.5280    1.7160   -0.3160 N   0  0  0  0  0  0  0  0  0  0  0  0
    2.2700    2.8300   -0.3380 C   0  0  0  0  0  0  0  0  0  0  0  0
    1.7070    4.0680   -0.2280 C   0  0  0  0  0  0  0  0  0  0  0  0
    0.3130    4.1610   -0.0900 C   0  0  0  0  0  0  0  0  0  0  0  0
   -0.4210    3.0150   -0.0700 C   0  0  0  0  0  0  0  0  0  0  0  0
  1  2  2  0
  2  3  1  0
  2 31  1  0
  3  4  2  3
  3  6  1  0
  4  5  1  0
  6  7  2  0
  6 25  1  0
  7  8  1  0
  9  8  1  6
  8 14  2  0
  9 10  1  0
  9 13  1  0
 10 11  1  0
 11 12  1  0
 12 13  1  0
 14 15  1  0
 15 16  1  0
 15 25  2  0
 16 17  1  0
 17 18  2  0
 17 19  1  0
 19 20  1  0
 20 21  1  0
 21 22  2  0
 21 23  1  0
 23 24  1  0
 25 26  1  0
 26 27  2  0
 26 31  1  0
 27 28  1  0
 28 29  2  0
 29 30  1  0
 30 31  2  0
M  END
