
     RDKit          3D

 20 21  0  0  0  0  0  0  0  0999 V2000
   -2.5960   -2.0750    1.2610 C   0  0  0  0  0  0  0  0  0  0  0  0
   -1.9590   -1.5230    0.0810 N   0  0  0  0  0  0  0  0  0  0  0  0
   -1.8190   -2.2280   -1.1590 C   0  0  0  0  0  0  0  0  0  0  0  0
   -1.4420   -0.1900    0.1770 C   0  0  0  0  0  0  0  0  0  0  0  0
   -0.2200    0.1140    0.5780 C   0  0  0  0  0  0  0  0  0  0  0  0
    0.7630   -0.8950    0.9800 C   0  0  0  0  0  0  0  0  0  0  0  0
    1.9050   -1.1970    0.1060 C   0  0  0  0  0  0  0  0  0  0  0  0
    2.8240   -0.1100   -0.2410 C   0  0  0  0  0  0  0  0  0  0  0  0
    4.1160   -0.1050    0.1220 C   0  0  0  0  0  0  0  0  0  0  0  0
    4.7630    1.1070   -0.3790 C   0  0  0  0  0  0  0  0  0  0  0  0
    3.7090    1.8240   -1.1130 C   0  0  0  0  0  0  0  0  0  0  0  0
    2.6090    1.1030   -1.0130 C   0  0  0  0  0  0  0  0  0  0  0  0
   -0.0780    1.5130    0.5780 N   0  0  0  0  0  0  0  0  0  0  0  0
   -1.3170    2.1070    0.1370 C   0  0  0  0  0  0  0  0  0  0  0  0
   -1.5330    3.3410    0.0200 O   0  0  0  0  0  0  0  0  0  0  0  0
   -2.2130    1.0210   -0.1280 C   0  0  0  0  0  0  0  0  0  0  0  0
   -3.4640    1.0020   -0.5510 C   0  0  0  0  0  0  0  0  0  0  0  0
   -4.2890    2.1230   -0.8710 C   0  0  0  0  0  0  0  0  0  0  0  0
   -3.8950    3.2900   -0.7790 O   0  0  0  0  0  0  0  0  0  0  0  0
   -5.5560    1.9370   -1.2950 F   0  0  0  0  0  0  0  0  0  0  0  0
  1  2  1  0
  2  3  1  0
  2  4  1  0
  4  5  2  0
  4 16  1  0
  5  6  1  0
  5 13  1  0
  6  7  1  0
  7  8  1  0
  8  9  2  0
  8 12  1  0
  9 10  1  0
 10 11  1  0
 11 12  2  0
 13 14  1  0
 14 15  2  0
 14 16  1  0
 16 17  2  3
 17 18  1  0
 18 19  2  0
 18 20  1  0
M  END
