
     RDKit          3D

 20 21  0  0  0  0  0  0  0  0999 V2000
    3.4900   -1.2510   -2.0930 C   0  0  0  0  0  0  0  0  0  0  0  0
    3.6830   -0.0980   -1.5120 C   0  0  0  0  0  0  0  0  0  0  0  0
    3.2580    0.3530   -0.2220 C   0  0  0  0  0  0  0  0  0  0  0  0
    3.6080    1.6010    0.1610 C   0  0  0  0  0  0  0  0  0  0  0  0
    4.3760    2.5870   -0.5660 C   0  0  0  0  0  0  0  0  0  0  0  0
    3.5440    3.7130   -0.7270 F   0  0  0  0  0  0  0  0  0  0  0  0
    2.4700   -0.4370    0.7640 C   0  0  0  0  0  0  0  0  0  0  0  0
    1.1540   -0.8020    0.3980 N   0  0  0  0  0  0  0  0  0  0  0  0
    0.6800   -1.9940   -0.1950 C   0  0  0  0  0  0  0  0  0  0  0  0
    1.1480   -3.1370   -0.1070 O   0  0  0  0  0  0  0  0  0  0  0  0
   -0.5420   -1.6350   -0.9870 C   0  0  0  0  0  0  0  0  0  0  0  0
   -1.1560   -0.6260   -0.0220 C   0  0  1  0  0  0  0  0  0  0  0  0
   -1.9320    0.3840   -0.8180 C   0  0  0  0  0  0  0  0  0  0  0  0
   -3.4090    0.1680   -0.7790 C   0  0  0  0  0  0  0  0  0  0  0  0
   -3.9310    0.0680    0.5270 N   0  0  0  0  0  0  0  0  0  0  0  0
   -4.4850    1.2620    1.0800 C   0  0  0  0  0  0  0  0  0  0  0  0
   -3.1870   -0.6860    1.4690 C   0  0  0  0  0  0  0  0  0  0  0  0
   -1.9810   -1.3930    0.9580 C   0  0  0  0  0  0  0  0  0  0  0  0
    0.0060    0.0410    0.5620 C   0  0  0  0  0  0  0  0  0  0  0  0
    0.0270    1.1580    1.1160 O   0  0  0  0  0  0  0  0  0  0  0  0
  1  2  2  0
  2  3  1  0
  3  4  2  3
  3  7  1  0
  4  5  1  0
  5  6  1  0
  7  8  1  0
  8  9  1  0
  8 19  1  0
  9 10  2  0
  9 11  1  0
 12 11  1  6
 12 13  1  0
 12 18  1  0
 12 19  1  0
 13 14  1  0
 14 15  1  0
 15 16  1  0
 15 17  1  0
 17 18  1  0
 19 20  2  0
M  END
