
     RDKit          3D

 20 21  0  0  0  0  0  0  0  0999 V2000
    4.4130   -2.7290   -2.2790 N   0  0  0  0  0  0  0  0  0  0  0  0
    3.7350   -1.6660   -1.6110 C   0  0  0  0  0  0  0  0  0  0  0  0
    4.1190   -1.2680   -0.4160 C   0  0  0  0  0  0  0  0  0  0  0  0
    5.2280   -1.8300    0.3440 C   0  0  0  0  0  0  0  0  0  0  0  0
    5.2980   -1.1660    1.4930 C   0  0  0  0  0  0  0  0  0  0  0  0
    6.2390   -1.4520    2.4360 F   0  0  0  0  0  0  0  0  0  0  0  0
    4.2540   -0.1740    1.5070 C   0  0  0  0  0  0  0  0  0  0  0  0
    3.5480   -0.2180    0.3910 C   0  0  0  0  0  0  0  0  0  0  0  0
    2.3910    0.6470    0.0380 C   0  0  0  0  0  0  0  0  0  0  0  0
    2.1100    1.5580    1.0540 O   0  0  0  0  0  0  0  0  0  0  0  0
    1.0040    2.3120    0.6020 C   0  0  0  0  0  0  0  0  0  0  0  0
   -0.1180    1.3940    0.3690 C   0  0  0  0  0  0  0  0  0  0  0  0
   -1.0280    0.6360    0.1590 C   0  0  0  0  0  0  0  0  0  0  0  0
   -2.1590   -0.2910   -0.0920 C   0  0  0  0  0  0  0  0  0  0  0  0
   -3.1790    0.0450    0.8620 N   0  0  0  0  0  0  0  0  0  0  0  0
   -4.2980   -0.8190    0.6670 C   0  0  0  0  0  0  0  0  0  0  0  0
   -5.4670   -0.1720   -0.0210 C   0  0  0  0  0  0  0  0  0  0  0  0
   -5.7860    0.9800    0.6980 O   0  0  0  0  0  0  0  0  0  0  0  0
   -4.7580    1.8860    0.4220 C   0  0  0  0  0  0  0  0  0  0  0  0
   -3.4450    1.4210    0.9740 C   0  0  0  0  0  0  0  0  0  0  0  0
  1  2  1  0
  2  3  2  3
  3  4  1  0
  3  8  1  0
  4  5  2  0
  5  6  1  0
  5  7  1  0
  7  8  2  0
  8  9  1  0
  9 10  1  0
 10 11  1  0
 11 12  1  0
 12 13  3  0
 13 14  1  0
 14 15  1  0
 15 16  1  0
 15 20  1  0
 16 17  1  0
 17 18  1  0
 18 19  1  0
 19 20  1  0
M  END
