
     RDKit          3D

 20 21  0  0  0  0  0  0  0  0999 V2000
   -1.4710   -0.6520   -2.0660 C   0  0  0  0  0  0  0  0  0  0  0  0
   -1.8020   -0.7820   -0.6410 C   0  0  0  0  0  0  0  0  0  0  0  0
   -0.9370   -1.4990    0.2110 N   0  0  0  0  0  0  0  0  0  0  0  0
    0.2990   -1.3160    0.3630 C   0  0  0  0  0  0  0  0  0  0  0  0
    1.0280   -0.2720   -0.3740 C   0  0  0  0  0  0  0  0  0  0  0  0
    2.1740    0.2220    0.3810 N   0  0  0  0  0  0  0  0  0  0  0  0
    1.9150    0.9900    1.5770 C   0  0  0  0  0  0  0  0  0  0  0  0
    3.4950   -0.0660   -0.0700 C   0  0  0  0  0  0  0  0  0  0  0  0
    3.8810   -0.3040   -1.2900 C   0  0  0  0  0  0  0  0  0  0  0  0
    5.3100   -0.5490   -1.3060 C   0  0  0  0  0  0  0  0  0  0  0  0
    6.0480   -0.8160   -2.3100 O   0  0  0  0  0  0  0  0  0  0  0  0
    5.7570   -0.4300    0.0820 C   0  0  0  0  0  0  0  0  0  0  0  0
    4.6790   -0.1460    0.7910 C   0  0  0  0  0  0  0  0  0  0  0  0
    4.7030    0.0390    2.1370 F   0  0  0  0  0  0  0  0  0  0  0  0
   -2.9100   -0.2300   -0.1630 C   0  0  0  0  0  0  0  0  0  0  0  0
   -3.3920   -0.2680    1.2500 C   0  0  0  0  0  0  0  0  0  0  0  0
   -4.1550    1.0550    1.3420 C   0  0  0  0  0  0  0  0  0  0  0  0
   -4.9380    1.0200    0.0330 C   0  0  0  0  0  0  0  0  0  0  0  0
   -3.8970    0.5380   -0.9090 C   0  0  0  0  0  0  0  0  0  0  0  0
   -3.8830    0.7620   -2.1440 O   0  0  0  0  0  0  0  0  0  0  0  0
  1  2  1  0
  2  3  1  0
  2 15  2  3
  3  4  2  3
  4  5  1  0
  5  6  1  0
  6  7  1  0
  6  8  1  0
  8  9  2  0
  8 13  1  0
  9 10  1  0
 10 11  2  0
 10 12  1  0
 12 13  2  0
 13 14  1  0
 15 16  1  0
 15 19  1  0
 16 17  1  0
 17 18  1  0
 18 19  1  0
 19 20  2  0
M  END
