
     RDKit          3D

 20 21  0  0  0  0  0  0  0  0999 V2000
    4.6640   -1.6330   -1.2600 C   0  0  0  0  0  0  0  0  0  0  0  0
    4.1680   -0.9190   -0.2630 C   0  0  0  0  0  0  0  0  0  0  0  0
    4.1580    0.5600   -0.3960 C   0  0  0  0  0  0  0  0  0  0  0  0
    4.7240    0.9310   -1.6160 F   0  0  0  0  0  0  0  0  0  0  0  0
    3.6670   -1.6110    0.9420 C   0  0  0  0  0  0  0  0  0  0  0  0
    2.3110   -1.3300    1.1440 O   0  0  0  0  0  0  0  0  0  0  0  0
    1.8150   -0.0610    1.3570 C   0  0  0  0  0  0  0  0  0  0  0  0
    0.5950    0.3050    0.9810 C   0  0  0  0  0  0  0  0  0  0  0  0
    0.1890    1.6800    1.2650 C   0  0  0  0  0  0  0  0  0  0  0  0
    0.9830    2.4760    1.8460 O   0  0  0  0  0  0  0  0  0  0  0  0
   -1.1170    2.0690    0.8640 N   0  0  0  0  0  0  0  0  0  0  0  0
   -1.9310    1.2630    0.2710 C   0  0  0  0  0  0  0  0  0  0  0  0
   -1.5370   -0.1320   -0.0240 C   0  0  0  0  0  0  0  0  0  0  0  0
   -0.3380   -0.5880    0.3120 C   0  0  0  0  0  0  0  0  0  0  0  0
    0.0750   -1.9860    0.0180 C   0  0  0  0  0  0  0  0  0  0  0  0
   -2.5030   -1.0280   -0.7020 C   0  0  0  0  0  0  0  0  0  0  0  0
   -3.8940   -0.4800   -0.7830 C   0  0  0  0  0  0  0  0  0  0  0  0
   -3.9620    0.9870   -1.0790 C   0  0  0  0  0  0  0  0  0  0  0  0
   -3.2220    1.7380   -0.1000 N   0  0  0  0  0  0  0  0  0  0  0  0
   -3.7420    2.9350    0.5030 C   0  0  0  0  0  0  0  0  0  0  0  0
  1  2  2  0
  2  3  1  0
  2  5  1  0
  3  4  1  0
  5  6  1  0
  6  7  1  0
  7  8  2  3
  8  9  1  0
  8 14  1  0
  9 10  2  0
  9 11  1  0
 11 12  2  0
 12 13  1  0
 12 19  1  0
 13 14  2  0
 13 16  1  0
 14 15  1  0
 16 17  1  0
 17 18  1  0
 18 19  1  0
 19 20  1  0
M  END
