
     RDKit          3D

 19 20  0  0  0  0  0  0  0  0999 V2000
    5.6530   -1.2190    0.3500 C   0  0  0  0  0  0  0  0  0  0  0  0
    5.0910    0.0400    0.8320 C   0  0  0  0  0  0  0  0  0  0  0  0
    5.8920    0.7920    1.4840 O   0  0  0  0  0  0  0  0  0  0  0  0
    3.7260    0.5280    0.6530 C   0  0  0  0  0  0  0  0  0  0  0  0
    3.3510    1.6490    1.1440 N   0  0  0  0  0  0  0  0  0  0  0  0
    1.9680    1.8620    0.8130 C   0  0  0  0  0  0  0  0  0  0  0  0
    1.5190    0.6700    0.0470 C   0  0  0  0  0  0  0  0  0  0  0  0
    0.1770    0.3220   -0.4170 C   0  0  0  0  0  0  0  0  0  0  0  0
    0.0170   -0.8660   -0.8750 O   0  0  0  0  0  0  0  0  0  0  0  0
   -1.0190    1.1740   -0.4290 C   0  0  2  0  0  0  0  0  0  0  0  0
   -1.0210    2.1180    0.7190 C   0  0  0  0  0  0  0  0  0  0  0  0
   -2.2250    0.4970   -0.5870 N   0  0  0  0  0  0  0  0  0  0  0  0
   -3.2560    0.6490    0.3770 C   0  0  0  0  0  0  0  0  0  0  0  0
   -4.4890   -0.1460    0.1360 C   0  0  0  0  0  0  0  0  0  0  0  0
   -4.2670   -1.5350   -0.3710 C   0  0  0  0  0  0  0  0  0  0  0  0
   -2.8640   -1.7610   -0.8850 C   0  0  0  0  0  0  0  0  0  0  0  0
   -2.4570   -0.4510   -1.5750 C   0  0  0  0  0  0  0  0  0  0  0  0
    2.6090   -0.1070   -0.0370 C   0  0  0  0  0  0  0  0  0  0  0  0
    2.6780   -1.3740   -0.8050 C   0  0  0  0  0  0  0  0  0  0  0  0
  1  2  1  0
  2  3  2  0
  2  4  1  0
  4  5  2  0
  4 18  1  0
  5  6  1  0
  6  7  1  0
  7  8  1  0
  7 18  2  0
  8  9  2  0
  8 10  1  0
 10 11  1  1
 10 12  1  0
 12 13  1  0
 12 17  1  0
 13 14  1  0
 14 15  1  0
 15 16  1  0
 16 17  1  0
 18 19  1  0
M  END
