
     RDKit          3D

 20 21  0  0  0  0  0  0  0  0999 V2000
    1.2370   -2.4150   -2.5570 C   0  0  0  0  0  0  0  0  0  0  0  0
    1.4320   -1.0540   -1.9900 C   0  0  0  0  0  0  0  0  0  0  0  0
    1.6090   -0.1290   -2.7620 O   0  0  0  0  0  0  0  0  0  0  0  0
    1.3980   -0.9040   -0.5360 C   0  0  0  0  0  0  0  0  0  0  0  0
    1.5960    0.4260   -0.0300 N   0  0  0  0  0  0  0  0  0  0  0  0
    2.9240    0.9850   -0.1720 C   0  0  0  0  0  0  0  0  0  0  0  0
    3.3230    2.1120    0.3530 C   0  0  0  0  0  0  0  0  0  0  0  0
    2.3390    2.8520    1.1410 C   0  0  0  0  0  0  0  0  0  0  0  0
    2.6990    3.9980    1.6970 C   0  0  0  0  0  0  0  0  0  0  0  0
    3.9340    4.5100    1.5660 F   0  0  0  0  0  0  0  0  0  0  0  0
    1.0130    2.3010    1.2820 C   0  0  0  0  0  0  0  0  0  0  0  0
    0.6270    1.1090    0.7090 C   0  0  0  0  0  0  0  0  0  0  0  0
   -0.7060    0.7040    1.0330 C   0  0  0  0  0  0  0  0  0  0  0  0
   -1.2510    1.4190    2.0560 O   0  0  0  0  0  0  0  0  0  0  0  0
   -1.5770   -0.2450    0.5360 N   0  0  0  0  0  0  0  0  0  0  0  0
   -2.7420   -0.5610    1.4170 C   0  0  0  0  0  0  0  0  0  0  0  0
   -3.4430   -1.7960    0.9680 C   0  0  0  0  0  0  0  0  0  0  0  0
   -3.6590   -1.9800   -0.3560 C   0  0  0  0  0  0  0  0  0  0  0  0
   -3.1210   -0.8420   -1.1850 C   0  0  0  0  0  0  0  0  0  0  0  0
   -1.6110   -0.8050   -0.7630 C   0  0  0  0  0  0  0  0  0  0  0  0
  1  2  1  0
  2  3  2  0
  2  4  1  0
  4  5  1  0
  5  6  1  0
  5 12  1  0
  6  7  2  0
  7  8  1  0
  8  9  2  3
  8 11  1  0
  9 10  1  0
 11 12  2  0
 12 13  1  0
 13 14  2  0
 13 15  1  0
 15 16  1  0
 15 20  1  0
 16 17  1  0
 17 18  2  0
 18 19  1  0
 19 20  1  0
M  END
