
     RDKit          3D

 20 21  0  0  0  0  0  0  0  0999 V2000
   -5.8300   -0.0790    1.1890 C   0  0  0  0  0  0  0  0  0  0  0  0
   -4.4850    0.5420    1.1390 C   0  0  0  0  0  0  0  0  0  0  0  0
   -4.3610    1.6900    1.5050 O   0  0  0  0  0  0  0  0  0  0  0  0
   -3.3410   -0.2410    0.6490 C   0  0  0  0  0  0  0  0  0  0  0  0
   -2.0960    0.4910    0.5860 N   0  0  0  0  0  0  0  0  0  0  0  0
   -2.1700    1.4720   -0.4300 C   0  0  0  0  0  0  0  0  0  0  0  0
   -1.8460    0.8100   -1.7640 C   0  0  0  0  0  0  0  0  0  0  0  0
   -0.3530    0.4630   -1.6630 C   0  0  0  0  0  0  0  0  0  0  0  0
   -0.1790   -0.5550   -0.5690 C   0  0  1  0  0  0  0  0  0  0  0  0
    1.2530   -0.8060   -0.3400 N   0  0  0  0  0  0  0  0  0  0  0  0
    1.7720   -2.0840   -0.7230 C   0  0  0  0  0  0  0  0  0  0  0  0
    2.0410    0.1920    0.2340 C   0  0  0  0  0  0  0  0  0  0  0  0
    1.3950    1.2760    0.5220 O   0  0  0  0  0  0  0  0  0  0  0  0
    3.4680    0.1670    0.5420 C   0  0  0  0  0  0  0  0  0  0  0  0
    4.3750   -0.7560    0.3750 C   0  0  0  0  0  0  0  0  0  0  0  0
    5.7160   -0.2780    0.8660 C   0  0  0  0  0  0  0  0  0  0  0  0
    5.4130    1.0800    1.3430 C   0  0  0  0  0  0  0  0  0  0  0  0
    6.3630    1.8960    1.8830 F   0  0  0  0  0  0  0  0  0  0  0  0
    4.1370    1.3370    1.1610 C   0  0  0  0  0  0  0  0  0  0  0  0
   -0.9690   -0.3440    0.6530 C   0  0  0  0  0  0  0  0  0  0  0  0
  1  2  1  0
  2  3  2  0
  2  4  1  0
  4  5  1  0
  5  6  1  0
  5 20  1  0
  6  7  1  0
  7  8  1  0
  8  9  1  0
  9 10  1  1
  9 20  1  0
 10 11  1  0
 10 12  1  0
 12 13  2  0
 12 14  1  0
 14 15  2  0
 14 19  1  0
 15 16  1  0
 16 17  1  0
 17 18  1  0
 17 19  2  0
M  END
