
     RDKit          3D

 20 21  0  0  0  0  0  0  0  0999 V2000
    2.0530   -0.7980   -1.8300 C   0  0  0  0  0  0  0  0  0  0  0  0
    2.1520   -0.9510   -0.5290 C   0  0  0  0  0  0  0  0  0  0  0  0
    3.4240   -0.8030    0.2050 C   0  0  0  0  0  0  0  0  0  0  0  0
    4.6330   -0.7290   -0.3160 C   0  0  0  0  0  0  0  0  0  0  0  0
    5.7650   -0.5840    0.5840 C   0  0  0  0  0  0  0  0  0  0  0  0
    6.9920   -0.5090    0.0570 C   0  0  0  0  0  0  0  0  0  0  0  0
    8.0880   -0.3730    0.8450 F   0  0  0  0  0  0  0  0  0  0  0  0
    3.0620   -0.7530    1.6410 C   0  0  0  0  0  0  0  0  0  0  0  0
    1.6880   -1.3340    1.6850 C   0  0  0  0  0  0  0  0  0  0  0  0
    1.1010   -1.8090    2.6880 O   0  0  0  0  0  0  0  0  0  0  0  0
    1.1060   -1.2730    0.3810 N   0  0  0  0  0  0  0  0  0  0  0  0
   -0.2810   -1.4940    0.0230 C   0  0  0  0  0  0  0  0  0  0  0  0
   -1.0840   -0.2210    0.0630 C   0  0  0  0  0  0  0  0  0  0  0  0
   -2.5110   -0.4660   -0.3080 C   0  0  0  0  0  0  0  0  0  0  0  0
   -2.8290   -1.6490   -0.5890 O   0  0  0  0  0  0  0  0  0  0  0  0
   -3.4640    0.5850   -0.3430 N   0  0  0  0  0  0  0  0  0  0  0  0
   -3.2310    1.9840   -0.0450 C   0  0  0  0  0  0  0  0  0  0  0  0
   -4.5930    2.5510    0.3250 C   0  0  0  0  0  0  0  0  0  0  0  0
   -5.5080    1.7520   -0.5840 C   0  0  0  0  0  0  0  0  0  0  0  0
   -4.8530    0.4060   -0.6960 C   0  0  0  0  0  0  0  0  0  0  0  0
  1  2  2  0
  2  3  1  0
  2 11  1  0
  3  4  2  3
  3  8  1  0
  4  5  1  0
  5  6  2  3
  6  7  1  0
  8  9  1  0
  9 10  2  0
  9 11  1  0
 11 12  1  0
 12 13  1  0
 13 14  1  0
 14 15  2  0
 14 16  1  0
 16 17  1  0
 16 20  1  0
 17 18  1  0
 18 19  1  0
 19 20  1  0
M  END
