
     RDKit          3D

 11 10  0  0  0  0  0  0  0  0999 V2000
    3.5130    0.1490   -0.3000 C   0  0  0  0  0  0  0  0  0  0  0  0
    2.4910   -0.5540    0.4040 N   0  0  0  0  0  0  0  0  0  0  0  0
    1.1580    0.0710    0.2000 C   0  0  1  0  0  0  0  0  0  0  0  0
    1.1110    1.4960    0.5640 C   0  0  0  0  0  0  0  0  0  0  0  0
    0.8900   -0.2290   -1.2730 C   0  0  0  0  0  0  0  0  0  0  0  0
    0.8530   -1.6020   -1.4620 O   0  0  0  0  0  0  0  0  0  0  0  0
    0.2230   -0.7370    1.0380 C   0  0  0  0  0  0  0  0  0  0  0  0
   -1.0550   -0.3570    1.1460 O   0  0  0  0  0  0  0  0  0  0  0  0
   -1.9070   -0.1980    0.1310 C   0  0  0  0  0  0  0  0  0  0  0  0
   -3.3050    0.1200    0.7470 C   0  0  0  0  0  0  0  0  0  0  0  0
   -4.2290    0.2920   -0.3620 N   0  0  0  0  0  0  0  0  0  0  0  0
  1  2  1  0
  2  3  1  0
  3  4  1  6
  3  5  1  0
  3  7  1  0
  5  6  1  0
  7  8  1  0
  8  9  1  0
  9 10  1  0
 10 11  1  0
M  CHG  2   2   1  11   1
M  END
