
     RDKit          3D

 21 24  0  0  0  0  0  0  0  0999 V2000
    2.6240    1.3150   -0.8050 C   0  0  0  0  0  0  0  0  0  0  0  0
    2.5460   -0.1880   -0.6450 C   0  0  2  0  0  0  0  0  0  0  0  0
    1.7390   -0.8080   -1.7130 C   0  0  0  0  0  0  0  0  0  0  0  0
    0.3930   -1.2990   -1.3530 C   0  0  0  0  0  0  0  0  0  0  0  0
   -0.3020   -0.6890   -0.2120 C   0  0  1  0  0  0  0  0  0  0  0  0
    0.6020    0.1510    0.6940 C   0  0  1  0  0  0  0  0  0  0  0  0
   -0.0740    0.2530    2.0160 C   0  0  0  0  0  0  0  0  0  0  0  0
   -1.4910    0.7060    1.8640 C   0  0  0  0  0  0  0  0  0  0  0  0
   -1.8870    1.0690    0.4760 C   0  0  2  0  0  0  0  0  0  0  0  0
   -3.3540    1.4750    0.5060 C   0  0  0  0  0  0  0  0  0  0  0  0
   -4.1360    0.2510    0.7760 C   0  0  0  0  0  0  0  0  0  0  0  0
   -5.1750    0.3480    1.4050 O   0  0  0  0  0  0  0  0  0  0  0  0
   -3.6530   -1.0530    0.2870 C   0  0  0  0  0  0  0  0  0  0  0  0
   -2.6460   -0.9580   -0.8040 C   0  0  0  0  0  0  0  0  0  0  0  0
   -1.5710    0.0690   -0.5720 C   0  0  2  0  0  0  0  0  0  0  0  0
   -1.4000    0.8250   -1.8920 C   0  0  0  0  0  0  0  0  0  0  0  0
    1.9050   -0.5670    0.6980 C   0  0  2  0  0  0  0  0  0  0  0  0
    2.9230   -0.1310    1.6640 C   0  0  0  0  0  0  0  0  0  0  0  0
    4.2300   -0.5220    0.9870 C   0  0  0  0  0  0  0  0  0  0  0  0
    3.9000   -0.7020   -0.4520 C   0  0  0  0  0  0  0  0  0  0  0  0
    4.6200   -1.1810   -1.2880 O   0  0  0  0  0  0  0  0  0  0  0  0
  2  1  1  6
  2  3  1  0
  2 17  1  0
  2 20  1  0
  3  4  1  0
  5  4  1  6
  5  6  1  0
  5 15  1  0
  6  7  1  1
  6 17  1  0
  7  8  1  0
  9  8  1  1
  9 10  1  0
  9 15  1  0
 10 11  1  0
 11 12  2  0
 11 13  1  0
 13 14  1  0
 14 15  1  0
 15 16  1  6
 17 18  1  1
 18 19  1  0
 19 20  1  0
 20 21  2  0
M  END
