
     RDKit          3D

 11 10  0  0  0  0  0  0  0  0999 V2000
   -2.9060    1.2570    0.7170 N   0  0  0  0  0  0  0  0  0  0  0  0
   -2.1370    0.7970   -0.4470 C   0  0  0  0  0  0  0  0  0  0  0  0
   -1.4570   -0.4720   -0.1810 C   0  0  0  0  0  0  0  0  0  0  0  0
   -0.1590   -0.6310   -0.2280 C   0  0  0  0  0  0  0  0  0  0  0  0
    0.4620   -1.9940    0.0650 C   0  0  0  0  0  0  0  0  0  0  0  0
   -0.5440   -2.9540    0.3680 N   0  0  0  0  0  0  0  0  0  0  0  0
    0.7600    0.4920   -0.5560 C   0  0  0  0  0  0  0  0  0  0  0  0
    1.5990    0.6310    0.5630 O   0  0  0  0  0  0  0  0  0  0  0  0
    2.5240    1.6300    0.4560 C   0  0  0  0  0  0  0  0  0  0  0  0
    3.4160    1.3710   -0.6930 C   0  0  0  0  0  0  0  0  0  0  0  0
    4.2990    2.1770   -0.9360 O   0  0  0  0  0  0  0  0  0  0  0  0
  1  2  1  0
  2  3  1  0
  3  4  2  3
  4  5  1  0
  4  7  1  0
  5  6  1  0
  7  8  1  0
  8  9  1  0
  9 10  1  0
 10 11  2  0
M  CHG  2   1   1   6   1
M  END
