
     RDKit          3D

 11 10  0  0  0  0  0  0  0  0999 V2000
    3.4040    0.6870   -0.3830 C   0  0  0  0  0  0  0  0  0  0  0  0
    2.7540   -0.4640   -0.3660 C   0  0  0  0  0  0  0  0  0  0  0  0
    2.0990   -0.9200    0.8910 C   0  0  0  0  0  0  0  0  0  0  0  0
    0.7400   -1.0870    0.7350 O   0  0  0  0  0  0  0  0  0  0  0  0
    0.1570    0.1090    0.3620 C   0  0  0  0  0  0  0  0  0  0  0  0
   -1.3190    0.0450    0.1650 C   0  0  2  0  0  0  0  0  0  0  0  0
   -1.7990   -0.8950   -0.8720 C   0  0  0  0  0  0  0  0  0  0  0  0
   -1.4770   -2.2640   -0.6960 N   0  0  0  0  0  0  0  0  0  0  0  0
   -1.7840    1.4160   -0.2100 C   0  0  0  0  0  0  0  0  0  0  0  0
   -1.5520    2.4790    0.7130 N   0  0  0  0  0  0  0  0  0  0  0  0
   -2.3470    1.6520   -1.2640 O   0  0  0  0  0  0  0  0  0  0  0  0
  1  2  2  0
  2  3  1  0
  3  4  1  0
  4  5  1  0
  6  5  1  6
  6  7  1  0
  6  9  1  0
  7  8  1  0
  9 10  1  0
  9 11  2  0
M  CHG  2   8   1  10   1
M  END
