
     RDKit          3D

 11 10  0  0  0  0  0  0  0  0999 V2000
    2.2320    2.3660    0.4710 C   0  0  0  0  0  0  0  0  0  0  0  0
    2.6470    1.3010   -0.5230 C   0  0  0  0  0  0  0  0  0  0  0  0
    1.7230    0.2960   -0.6400 O   0  0  0  0  0  0  0  0  0  0  0  0
    1.4630   -0.3910    0.5200 C   0  0  2  0  0  0  0  0  0  0  0  0
    1.7610   -1.8630    0.3670 C   0  0  0  0  0  0  0  0  0  0  0  0
    0.9950   -2.5070   -0.6630 N   0  0  0  0  0  0  0  0  0  0  0  0
   -0.0110   -0.2080    0.8550 C   0  0  0  0  0  0  0  0  0  0  0  0
   -0.7540   -0.7000   -0.1840 O   0  0  0  0  0  0  0  0  0  0  0  0
   -2.1140   -0.6300   -0.0560 C   0  0  0  0  0  0  0  0  0  0  0  0
   -2.5710    0.7830    0.0930 C   0  0  0  0  0  0  0  0  0  0  0  0
   -4.0230    0.7500    0.2180 N   0  0  0  0  0  0  0  0  0  0  0  0
  1  2  1  0
  2  3  1  0
  3  4  1  0
  4  5  1  6
  4  7  1  0
  5  6  1  0
  7  8  1  0
  8  9  1  0
  9 10  1  0
 10 11  1  0
M  CHG  2   6   1  11   1
M  END
