
     RDKit          3D

 11 10  0  0  0  0  0  0  0  0999 V2000
    1.7690    0.5310   -0.3630 C   0  0  0  0  0  0  0  0  0  0  0  0
    0.3860    0.2660    0.2290 C   0  0  1  0  0  0  0  0  0  0  0  0
    0.1050    1.5140    1.0850 C   0  0  0  0  0  0  0  0  0  0  0  0
    0.1560    2.7320    0.3320 N   0  0  0  0  0  0  0  0  0  0  0  0
   -0.5410    0.1810   -0.9270 C   0  0  0  0  0  0  0  0  0  0  0  0
   -1.9720   -0.0200   -0.6940 C   0  0  0  0  0  0  0  0  0  0  0  0
   -2.4030   -1.1940   -0.0050 N   0  0  0  0  0  0  0  0  0  0  0  0
    0.3040   -0.7810    1.0740 O   0  0  0  0  0  0  0  0  0  0  0  0
    0.6820   -2.0230    0.7450 C   0  0  0  0  0  0  0  0  0  0  0  0
    2.1220   -2.2720    0.5180 C   0  0  0  0  0  0  0  0  0  0  0  0
    2.5570   -3.3380    0.1160 O   0  0  0  0  0  0  0  0  0  0  0  0
  2  1  1  6
  2  3  1  0
  2  5  1  0
  2  8  1  0
  3  4  1  0
  5  6  1  0
  6  7  1  0
  8  9  1  0
  9 10  1  0
 10 11  2  0
M  CHG  2   4   1   7   1
M  END
