
     RDKit          3D

 35 38  0  0  0  0  0  0  0  0999 V2000
   -4.5450    4.2380   -1.0680 C   0  0  0  0  0  0  0  0  0  0  0  0
   -4.9000    3.5720    0.0110 C   0  0  0  0  0  0  0  0  0  0  0  0
   -5.7390    4.1750    1.0800 C   0  0  0  0  0  0  0  0  0  0  0  0
   -5.8900    3.2420    1.9840 C   0  0  0  0  0  0  0  0  0  0  0  0
   -5.1830    2.0290    1.5610 C   0  0  0  0  0  0  0  0  0  0  0  0
   -4.5920    2.2090    0.3960 C   0  0  0  0  0  0  0  0  0  0  0  0
   -3.7850    1.2730   -0.3670 C   0  0  0  0  0  0  0  0  0  0  0  0
   -3.3120    1.6250   -1.4880 O   0  0  0  0  0  0  0  0  0  0  0  0
   -3.4520   -0.1020    0.0650 C   0  0  2  0  0  0  0  0  0  0  0  0
   -2.5540   -0.1430    1.2970 C   0  0  0  0  0  0  0  0  0  0  0  0
   -2.0280   -1.6470    1.2580 C   0  0  0  0  0  0  0  0  0  0  0  0
   -0.9130   -1.6060    0.4250 N   0  0  1  0  0  0  0  0  0  0  0  0
   -0.0420   -2.6280    0.0820 C   0  0  0  0  0  0  0  0  0  0  0  0
    1.0830   -2.3130   -0.7590 C   0  0  0  0  0  0  0  0  0  0  0  0
    1.5470   -0.9700   -0.8320 C   0  0  0  0  0  0  0  0  0  0  0  0
    1.1850   -0.2120    0.1720 O   0  0  0  0  0  0  0  0  0  0  0  0
    2.3070   -0.2330   -1.7360 N   0  0  0  0  0  0  0  0  0  0  0  0
    2.8360   -0.6220   -2.9880 C   0  0  0  0  0  0  0  0  0  0  0  0
    2.6640    1.1960   -1.3750 C   0  0  0  0  0  0  0  0  0  0  0  0
    3.9570    1.2230   -0.6340 C   0  0  0  0  0  0  0  0  0  0  0  0
    4.2470    2.6670   -0.3050 C   0  0  0  0  0  0  0  0  0  0  0  0
    5.4820    2.8300    0.4190 N   0  0  0  0  0  0  0  0  0  0  0  0
    5.7470    4.2140    0.7350 C   0  0  0  0  0  0  0  0  0  0  0  0
    4.7730    4.7720    1.7440 C   0  0  0  0  0  0  0  0  0  0  0  0
    1.8530   -3.3360   -1.2840 C   0  0  0  0  0  0  0  0  0  0  0  0
    2.8450   -3.0870   -2.0210 O   0  0  0  0  0  0  0  0  0  0  0  0
    1.5550   -4.6010   -1.0090 N   0  0  0  0  0  0  0  0  0  0  0  0
    0.5350   -4.9770   -0.2340 C   0  0  0  0  0  0  0  0  0  0  0  0
    0.3480   -6.3250   -0.0140 C   0  0  0  0  0  0  0  0  0  0  0  0
   -0.6860   -6.7070    0.7960 C   0  0  0  0  0  0  0  0  0  0  0  0
   -1.5080   -5.7640    1.3670 C   0  0  0  0  0  0  0  0  0  0  0  0
   -1.2830   -4.4020    1.1160 C   0  0  0  0  0  0  0  0  0  0  0  0
   -0.2710   -3.9620    0.3170 C   0  0  0  0  0  0  0  0  0  0  0  0
   -1.2630   -0.8340   -0.8160 C   0  0  0  0  0  0  0  0  0  0  0  0
   -2.7780   -0.9020   -1.0480 C   0  0  0  0  0  0  0  0  0  0  0  0
  1  2  2  0
  2  3  1  0
  2  6  1  0
  3  4  2  0
  4  5  1  0
  5  6  2  0
  6  7  1  0
  7  8  2  0
  9  7  1  6
  9 10  1  0
  9 35  1  0
 10 11  1  0
 11 12  1  0
 12 13  1  6
 12 34  1  0
 13 14  2  0
 13 33  1  0
 14 15  1  0
 14 25  1  0
 15 16  2  0
 15 17  1  0
 17 18  1  0
 17 19  1  0
 19 20  1  0
 20 21  1  0
 21 22  1  0
 22 23  1  0
 23 24  1  0
 25 26  2  0
 25 27  1  0
 27 28  1  0
 28 29  2  0
 28 33  1  0
 29 30  1  0
 30 31  2  0
 31 32  1  0
 32 33  2  0
 34 35  1  0
M  CHG  1  12   1
M  END
