
     RDKit          3D

 35 38  0  0  0  0  0  0  0  0999 V2000
    2.7890    1.5270    4.0450 C   0  0  0  0  0  0  0  0  0  0  0  0
    2.4550    1.3790    2.7170 C   0  0  0  0  0  0  0  0  0  0  0  0
    2.8370    0.1380    2.1180 C   0  0  0  0  0  0  0  0  0  0  0  0
    2.6950   -0.3360    0.9250 C   0  0  0  0  0  0  0  0  0  0  0  0
    2.0840    0.3160   -0.1220 C   0  0  0  0  0  0  0  0  0  0  0  0
    1.4180    1.6010   -0.0810 C   0  0  0  0  0  0  0  0  0  0  0  0
    0.0130    1.7230    0.4040 C   0  0  0  0  0  0  0  0  0  0  0  0
   -1.0390    0.9980   -0.3710 C   0  0  1  0  0  0  0  0  0  0  0  0
   -0.8180   -0.4800   -0.3020 C   0  0  0  0  0  0  0  0  0  0  0  0
   -2.0930   -1.0100    0.2350 N   0  0  0  0  0  0  0  0  0  0  0  0
   -2.5840   -2.3050    0.0190 C   0  0  0  0  0  0  0  0  0  0  0  0
   -3.4620   -2.5580   -1.0460 C   0  0  0  0  0  0  0  0  0  0  0  0
   -3.9450   -3.7990   -1.3600 C   0  0  0  0  0  0  0  0  0  0  0  0
   -3.5530   -4.8210   -0.6070 N   0  0  0  0  0  0  0  0  0  0  0  0
   -2.7190   -4.6300    0.4180 C   0  0  0  0  0  0  0  0  0  0  0  0
   -2.2000   -3.3800    0.7790 C   0  0  0  0  0  0  0  0  0  0  0  0
   -1.3500   -3.2660    1.9420 C   0  0  0  0  0  0  0  0  0  0  0  0
   -0.9210   -2.1910    2.3740 O   0  0  0  0  0  0  0  0  0  0  0  0
   -2.7030    0.0560    0.9980 C   0  0  0  0  0  0  0  0  0  0  0  0
   -2.4460    1.1990    0.0390 C   0  0  1  0  0  0  0  0  0  0  0  0
   -2.8450    2.4680    0.5230 N   0  0  0  0  0  0  0  0  0  0  0  0
   -3.8510    3.2040   -0.2670 C   0  0  0  0  0  0  0  0  0  0  0  0
   -3.9870    4.6220    0.2350 C   0  0  0  0  0  0  0  0  0  0  0  0
   -2.6240    5.1960    0.5560 C   0  0  0  0  0  0  0  0  0  0  0  0
   -2.1900    4.5060    1.7420 O   0  0  0  0  0  0  0  0  0  0  0  0
   -2.3840    3.1250    1.6770 C   0  0  0  0  0  0  0  0  0  0  0  0
   -2.1420    2.4210    2.6820 O   0  0  0  0  0  0  0  0  0  0  0  0
    2.0650   -0.3090   -1.3880 C   0  0  0  0  0  0  0  0  0  0  0  0
    2.6220   -1.5360   -1.6310 C   0  0  0  0  0  0  0  0  0  0  0  0
    2.5610   -2.1300   -2.9970 C   0  0  0  0  0  0  0  0  0  0  0  0
    3.6900   -1.7600   -3.8130 N   0  0  0  0  0  0  0  0  0  0  0  0
    4.5550   -0.7880   -3.1790 C   0  0  0  0  0  0  0  0  0  0  0  0
    3.2240   -2.1710   -0.5740 C   0  0  0  0  0  0  0  0  0  0  0  0
    3.2780   -1.6050    0.7030 C   0  0  0  0  0  0  0  0  0  0  0  0
    3.8790   -2.3350    1.6070 C   0  0  0  0  0  0  0  0  0  0  0  0
  1  2  2  0
  2  3  1  0
  3  4  2  3
  4  5  1  0
  4 34  1  0
  5  6  1  0
  5 28  2  0
  6  7  1  0
  8  7  1  1
  8  9  1  0
  8 20  1  0
  9 10  1  0
 10 11  1  0
 10 19  1  0
 11 12  2  0
 11 16  1  0
 12 13  1  0
 13 14  2  0
 14 15  1  0
 15 16  2  0
 16 17  1  0
 17 18  2  0
 19 20  1  0
 20 21  1  1
 21 22  1  0
 21 26  1  0
 22 23  1  0
 23 24  1  0
 24 25  1  0
 25 26  1  0
 26 27  2  0
 28 29  1  0
 29 30  1  0
 29 33  2  0
 30 31  1  0
 31 32  1  0
 33 34  1  0
 34 35  2  0
M  CHG  1  31   1
M  END
