
     RDKit          3D

 34 38  0  0  0  0  0  0  0  0999 V2000
    2.1530    1.6850   -2.8320 C   0  0  0  0  0  0  0  0  0  0  0  0
    1.7350    0.5120   -2.0590 C   0  0  0  0  0  0  0  0  0  0  0  0
    0.5110    0.5960   -1.4150 C   0  0  0  0  0  0  0  0  0  0  0  0
    0.1100   -0.2740   -0.4240 C   0  0  0  0  0  0  0  0  0  0  0  0
   -1.1710   -0.0870    0.1970 C   0  0  0  0  0  0  0  0  0  0  0  0
   -2.1990   -0.4980   -0.3850 O   0  0  0  0  0  0  0  0  0  0  0  0
   -1.3890    0.5560    1.4540 N   0  0  0  0  0  0  0  0  0  0  0  0
   -0.3410    1.0190    2.3490 C   0  0  0  0  0  0  0  0  0  0  0  0
   -1.0570    1.0200    3.7240 C   0  0  0  0  0  0  0  0  0  0  0  0
   -2.3240    1.7630    3.2310 C   0  0  0  0  0  0  0  0  0  0  0  0
   -2.6570    0.9250    2.0530 C   0  0  1  0  0  0  0  0  0  0  0  0
   -3.5560    1.6110    1.0800 C   0  0  0  0  0  0  0  0  0  0  0  0
   -4.7100    1.0600    0.7640 C   0  0  0  0  0  0  0  0  0  0  0  0
   -5.7170    1.5740   -0.1600 C   0  0  0  0  0  0  0  0  0  0  0  0
   -5.2380    2.9940   -1.0300 S   0  0  2  0  0  0  0  0  0  0  0  0
   -6.2520    4.1370   -0.8040 O   0  0  0  0  0  0  0  0  0  0  0  0
   -5.1520    2.7740   -2.5430 O   0  0  0  0  0  0  0  0  0  0  0  0
   -3.7000    3.5680   -0.4420 C   0  0  0  0  0  0  0  0  0  0  0  0
   -3.1090    2.8290    0.4790 C   0  0  0  0  0  0  0  0  0  0  0  0
    1.0020   -1.3030   -0.0660 C   0  0  0  0  0  0  0  0  0  0  0  0
    0.7580   -2.2810    0.8920 N   0  0  0  0  0  0  0  0  0  0  0  0
    1.8350   -3.0400    1.5560 C   0  0  0  0  0  0  0  0  0  0  0  0
    1.2300   -4.2270    2.2210 C   0  0  0  0  0  0  0  0  0  0  0  0
   -0.1830   -4.2620    1.6860 C   0  0  0  0  0  0  0  0  0  0  0  0
   -0.4820   -2.7880    1.3980 C   0  0  0  0  0  0  0  0  0  0  0  0
    2.0960   -1.2200   -0.7920 N   0  0  0  0  0  0  0  0  0  0  0  0
    2.6760   -0.5710   -1.6990 C   0  0  0  0  0  0  0  0  0  0  0  0
    4.0000   -0.4830   -2.2270 C   0  0  0  0  0  0  0  0  0  0  0  0
    4.4630    0.1310   -3.3320 C   0  0  0  0  0  0  0  0  0  0  0  0
    5.7710    0.0260   -3.8300 C   0  0  0  0  0  0  0  0  0  0  0  0
    6.2350    0.9130   -5.2750 Cl  0  0  0  0  0  0  0  0  0  0  0  0
    6.6700   -0.7590   -3.1580 C   0  0  0  0  0  0  0  0  0  0  0  0
    6.2000   -1.3940   -2.0240 C   0  0  0  0  0  0  0  0  0  0  0  0
    4.9760   -1.2690   -1.5960 N   0  0  0  0  0  0  0  0  0  0  0  0
  1  2  1  0
  2  3  2  0
  2 27  1  0
  3  4  1  0
  4  5  1  0
  4 20  2  0
  5  6  2  0
  5  7  1  0
  7  8  1  0
  7 11  1  0
  8  9  1  0
  9 10  1  0
 10 11  1  0
 11 12  1  6
 12 13  2  0
 12 19  1  0
 13 14  1  0
 15 14  1  1
 15 16  2  0
 15 17  2  0
 15 18  1  0
 18 19  2  0
 20 21  1  0
 20 26  1  0
 21 22  1  0
 21 25  1  0
 22 23  1  0
 23 24  1  0
 24 25  1  0
 26 27  2  0
 27 28  1  0
 28 29  2  0
 28 34  1  0
 29 30  1  0
 30 31  1  0
 30 32  2  0
 32 33  1  0
 33 34  2  0
M  END
