
     RDKit          3D

 34 38  0  0  0  0  0  0  0  0999 V2000
    5.4610    1.3330   -1.6950 C   0  0  0  0  0  0  0  0  0  0  0  0
    4.9260   -0.0740   -1.8290 C   0  0  0  0  0  0  0  0  0  0  0  0
    4.7020   -0.6850   -0.4530 C   0  0  0  0  0  0  0  0  0  0  0  0
    3.5930   -0.2700    0.2550 C   0  0  0  0  0  0  0  0  0  0  0  0
    2.5320    0.7130   -0.0940 C   0  0  0  0  0  0  0  0  0  0  0  0
    1.5620    0.8300    0.9490 N   0  0  0  0  0  0  0  0  0  0  0  0
    0.8380   -0.3270    1.2920 C   0  0  0  0  0  0  0  0  0  0  0  0
   -0.6040   -0.3680    0.8090 C   0  0  0  0  0  0  0  0  0  0  0  0
   -1.2280    0.8930    1.0840 N   0  0  0  0  0  0  0  0  0  0  0  0
   -2.5940    1.2130    0.7480 C   0  0  0  0  0  0  0  0  0  0  0  0
   -2.8800    2.3650    1.1020 O   0  0  0  0  0  0  0  0  0  0  0  0
   -3.4140    0.2340    0.0890 C   0  0  0  0  0  0  0  0  0  0  0  0
   -2.8260   -0.9680   -0.1850 N   0  0  0  0  0  0  0  0  0  0  0  0
   -3.4470   -1.9630   -0.7850 N   0  0  0  0  0  0  0  0  0  0  0  0
   -2.7730   -3.2260   -1.0550 C   0  0  0  0  0  0  0  0  0  0  0  0
   -4.7280   -1.8580   -1.1730 C   0  0  0  0  0  0  0  0  0  0  0  0
   -5.3460   -2.7910   -1.7470 O   0  0  0  0  0  0  0  0  0  0  0  0
   -5.3950   -0.6860   -0.9360 C   0  0  0  0  0  0  0  0  0  0  0  0
   -6.6190   -0.3040   -1.1970 O   0  0  0  0  0  0  0  0  0  0  0  0
   -6.8120    0.9190   -0.7810 C   0  0  0  0  0  0  0  0  0  0  0  0
   -7.8840    1.7800   -0.8010 C   0  0  0  0  0  0  0  0  0  0  0  0
   -7.8120    3.0490   -0.2780 C   0  0  0  0  0  0  0  0  0  0  0  0
   -6.6370    3.4690    0.2810 C   0  0  0  0  0  0  0  0  0  0  0  0
   -6.5100    5.0830    0.9590 Cl  0  0  0  0  0  0  0  0  0  0  0  0
   -5.5130    2.6220    0.3240 C   0  0  0  0  0  0  0  0  0  0  0  0
   -5.6240    1.3840   -0.1990 C   0  0  0  0  0  0  0  0  0  0  0  0
   -4.7060    0.3490   -0.2990 C   0  0  0  0  0  0  0  0  0  0  0  0
   -0.4240    1.9080    1.7340 C   0  0  0  0  0  0  0  0  0  0  0  0
    0.8340    2.0340    0.8840 C   0  0  0  0  0  0  0  0  0  0  0  0
    3.6780   -1.2010    1.7970 S   0  0  0  0  0  0  0  0  0  0  0  0
    5.2440   -2.0940    1.3410 C   0  0  0  0  0  0  0  0  0  0  0  0
    5.9150   -3.0580    2.1790 C   0  0  0  0  0  0  0  0  0  0  0  0
    5.5020   -1.5810    0.0930 C   0  0  0  0  0  0  0  0  0  0  0  0
    6.7680   -2.1050   -0.6320 C   0  0  0  0  0  0  0  0  0  0  0  0
  1  2  1  0
  2  3  1  0
  3  4  2  0
  3 33  1  0
  4  5  1  0
  4 30  1  0
  5  6  1  0
  6  7  1  0
  6 29  1  0
  7  8  1  0
  8  9  1  0
  9 10  1  0
  9 28  1  0
 10 11  2  0
 10 12  1  0
 12 13  2  0
 12 27  1  0
 13 14  1  0
 14 15  1  0
 14 16  1  0
 16 17  2  0
 16 18  1  0
 18 19  1  0
 18 27  2  0
 19 20  1  0
 20 21  2  0
 20 26  1  0
 21 22  1  0
 22 23  2  0
 23 24  1  0
 23 25  1  0
 25 26  2  0
 26 27  1  0
 28 29  1  0
 30 31  1  0
 31 32  1  0
 31 33  2  0
 33 34  1  0
M  END
