
     RDKit          3D

 33 37  0  0  0  0  0  0  0  0999 V2000
   -3.0250    1.9910    4.1350 C   0  0  0  0  0  0  0  0  0  0  0  0
   -3.7730    0.9140    3.6020 O   0  0  0  0  0  0  0  0  0  0  0  0
   -3.5130    0.4270    2.3020 C   0  0  0  0  0  0  0  0  0  0  0  0
   -2.5970    1.0080    1.6870 O   0  0  0  0  0  0  0  0  0  0  0  0
   -4.2920   -0.6740    1.7830 C   0  0  0  0  0  0  0  0  0  0  0  0
   -4.1460   -1.2320    0.5760 C   0  0  0  0  0  0  0  0  0  0  0  0
   -5.0530   -2.3360    0.2670 C   0  0  2  0  0  0  0  0  0  0  0  0
   -4.8470   -3.3180   -0.8080 C   0  0  0  0  0  0  0  0  0  0  0  0
   -6.0160   -2.3350   -0.9040 C   0  0  0  0  0  0  0  0  0  0  0  0
   -3.0780   -0.7670   -0.2490 N   0  0  0  0  0  0  0  0  0  0  0  0
   -1.7800   -1.1530    0.1840 C   0  0  0  0  0  0  0  0  0  0  0  0
   -1.6370   -2.1180    0.9780 O   0  0  0  0  0  0  0  0  0  0  0  0
   -0.5690   -0.4620   -0.2640 C   0  0  0  0  0  0  0  0  0  0  0  0
    0.7620   -0.6560   -0.0440 C   0  0  0  0  0  0  0  0  0  0  0  0
    1.3990    0.2760   -0.7720 N   0  0  0  0  0  0  0  0  0  0  0  0
    2.8290    0.4620   -0.8590 C   0  0  0  0  0  0  0  0  0  0  0  0
    3.4660    0.7360   -2.0500 C   0  0  0  0  0  0  0  0  0  0  0  0
    4.8260    0.9180   -2.1530 C   0  0  0  0  0  0  0  0  0  0  0  0
    5.5890    0.8190   -0.9940 C   0  0  0  0  0  0  0  0  0  0  0  0
    6.9070    0.9360   -0.7370 N   0  0  0  0  0  0  0  0  0  0  0  0
    7.1740    0.7530    0.5640 C   0  0  0  0  0  0  0  0  0  0  0  0
    8.5210    0.8070    1.2240 C   0  0  0  0  0  0  0  0  0  0  0  0
    5.9820    0.5050    1.1930 C   0  0  0  0  0  0  0  0  0  0  0  0
    5.7130    0.2350    2.6290 C   0  0  0  0  0  0  0  0  0  0  0  0
    4.9860    0.5440    0.2240 C   0  0  0  0  0  0  0  0  0  0  0  0
    3.6150    0.3710    0.2710 C   0  0  0  0  0  0  0  0  0  0  0  0
    0.4760    1.0040   -1.4060 C   0  0  0  0  0  0  0  0  0  0  0  0
    0.7770    2.2500   -2.4050 S   0  0  0  0  0  0  0  0  0  0  0  0
   -0.7940    0.5610   -1.1030 N   0  0  0  0  0  0  0  0  0  0  0  0
   -2.0770    1.0500   -1.5090 C   0  0  0  0  0  0  0  0  0  0  0  0
   -3.1670    0.0340   -1.4230 C   0  0  2  0  0  0  0  0  0  0  0  0
   -4.5250    0.7390   -1.5210 C   0  0  0  0  0  0  0  0  0  0  0  0
   -2.9790   -0.8730   -2.6530 C   0  0  0  0  0  0  0  0  0  0  0  0
  1  2  1  0
  2  3  1  0
  3  4  2  0
  3  5  1  0
  5  6  2  3
  7  6  1  6
  6 10  1  0
  7  8  1  0
  7  9  1  0
  8  9  1  0
 10 11  1  0
 10 31  1  0
 11 12  2  0
 11 13  1  0
 13 14  2  0
 13 29  1  0
 14 15  1  0
 15 16  1  0
 15 27  1  0
 16 17  2  0
 16 26  1  0
 17 18  1  0
 18 19  2  0
 19 20  1  0
 19 25  1  0
 20 21  1  0
 21 22  1  0
 21 23  2  0
 23 24  1  0
 23 25  1  0
 25 26  2  0
 27 28  2  0
 27 29  1  0
 29 30  1  0
 30 31  1  0
 31 32  1  6
 31 33  1  0
M  END
