
     RDKit          3D

 35 39  0  0  0  0  0  0  0  0999 V2000
    1.4170    6.5100    1.2990 C   0  0  0  0  0  0  0  0  0  0  0  0
    0.9930    6.0720   -0.0140 N   0  0  0  0  0  0  0  0  0  0  0  0
    0.9410    7.0260   -1.0880 C   0  0  0  0  0  0  0  0  0  0  0  0
    0.6240    4.7240   -0.2080 C   0  0  0  0  0  0  0  0  0  0  0  0
   -0.7290    4.4400   -0.2080 C   0  0  0  0  0  0  0  0  0  0  0  0
   -1.1700    3.1380   -0.3660 C   0  0  0  0  0  0  0  0  0  0  0  0
   -0.2770    2.0790   -0.5280 C   0  0  0  0  0  0  0  0  0  0  0  0
   -0.8380    0.7460   -0.6290 C   0  0  0  0  0  0  0  0  0  0  0  0
   -2.1390    0.4640   -0.4570 O   0  0  0  0  0  0  0  0  0  0  0  0
   -2.3800   -0.7860   -0.6000 C   0  0  0  0  0  0  0  0  0  0  0  0
   -3.7060   -1.4050   -0.4650 C   0  0  0  0  0  0  0  0  0  0  0  0
   -4.8250   -0.5960   -0.2760 C   0  0  0  0  0  0  0  0  0  0  0  0
   -6.0780   -1.1070   -0.0740 C   0  0  0  0  0  0  0  0  0  0  0  0
   -6.2550   -2.5070   -0.0520 C   0  0  0  0  0  0  0  0  0  0  0  0
   -5.1620   -3.2990   -0.2360 C   0  0  0  0  0  0  0  0  0  0  0  0
   -3.8910   -2.7500   -0.4440 C   0  0  0  0  0  0  0  0  0  0  0  0
   -5.5700   -4.7400   -0.1490 C   0  0  0  0  0  0  0  0  0  0  0  0
   -7.0010   -4.7140    0.2620 C   0  0  0  0  0  0  0  0  0  0  0  0
   -7.4810   -3.3110    0.1570 C   0  0  0  0  0  0  0  0  0  0  0  0
   -1.2180   -1.4250   -0.8880 C   0  0  0  0  0  0  0  0  0  0  0  0
   -0.2090   -0.4350   -0.9070 C   0  0  0  0  0  0  0  0  0  0  0  0
    1.2090   -0.6890   -1.1150 C   0  0  0  0  0  0  0  0  0  0  0  0
    1.7150   -0.6860   -2.2560 O   0  0  0  0  0  0  0  0  0  0  0  0
    2.0470   -0.9560   -0.0030 N   0  0  0  0  0  0  0  0  0  0  0  0
    3.4740   -1.2060   -0.2000 C   0  0  0  0  0  0  0  0  0  0  0  0
    4.1050   -1.5610    1.1370 C   0  0  1  0  0  0  0  0  0  0  0  0
    3.4690   -2.7410    1.6170 O   0  0  0  0  0  0  0  0  0  0  0  0
    5.5030   -1.9330    0.8550 C   0  0  0  0  0  0  0  0  0  0  0  0
    5.8830   -2.9970    0.0960 C   0  0  0  0  0  0  0  0  0  0  0  0
    7.2190   -3.2380   -0.0780 C   0  0  0  0  0  0  0  0  0  0  0  0
    8.1770   -2.4740    0.4640 N   0  0  0  0  0  0  0  0  0  0  0  0
    7.8520   -1.4160    1.2200 C   0  0  0  0  0  0  0  0  0  0  0  0
    6.5180   -1.1580    1.4060 C   0  0  0  0  0  0  0  0  0  0  0  0
    1.0360    2.4100   -0.5220 C   0  0  0  0  0  0  0  0  0  0  0  0
    1.4470    3.7030   -0.3650 N   0  0  0  0  0  0  0  0  0  0  0  0
  1  2  1  0
  2  3  1  0
  2  4  1  0
  4  5  2  0
  4 35  1  0
  5  6  1  0
  6  7  2  0
  7  8  1  0
  7 34  1  0
  8  9  1  0
  8 21  2  0
  9 10  1  0
 10 11  1  0
 10 20  2  0
 11 12  2  0
 11 16  1  0
 12 13  1  0
 13 14  2  0
 14 15  1  0
 14 19  1  0
 15 16  2  0
 15 17  1  0
 17 18  1  0
 18 19  1  0
 20 21  1  0
 21 22  1  0
 22 23  2  0
 22 24  1  0
 24 25  1  0
 25 26  1  0
 26 27  1  6
 26 28  1  0
 28 29  2  0
 28 33  1  0
 29 30  1  0
 30 31  2  0
 31 32  1  0
 32 33  2  0
 34 35  2  0
M  CHG  1  35   1
M  END
