
     RDKit          3D

 34 38  0  0  0  0  0  0  0  0999 V2000
   -0.7840   -3.4430   -2.5410 C   0  0  0  0  0  0  0  0  0  0  0  0
   -1.9060   -3.2670   -1.5740 C   0  0  0  0  0  0  0  0  0  0  0  0
   -1.8540   -1.9080   -1.0120 N   0  0  0  0  0  0  0  0  0  0  0  0
   -2.4630   -0.8210   -1.5150 C   0  0  0  0  0  0  0  0  0  0  0  0
   -2.1970    0.2800   -0.7340 C   0  0  0  0  0  0  0  0  0  0  0  0
   -2.6510    1.6540   -0.9080 C   0  0  0  0  0  0  0  0  0  0  0  0
   -1.9470    2.4310   -1.5870 O   0  0  0  0  0  0  0  0  0  0  0  0
   -3.8600    2.1290   -0.3320 N   0  0  0  0  0  0  0  0  0  0  0  0
   -4.6840    1.2220    0.4620 C   0  0  0  0  0  0  0  0  0  0  0  0
   -5.8850    2.0250    0.9550 C   0  0  0  0  0  0  0  0  0  0  0  0
   -6.5240    2.5360   -0.1520 O   0  0  0  0  0  0  0  0  0  0  0  0
   -5.8120    3.5900   -0.6680 C   0  0  0  0  0  0  0  0  0  0  0  0
   -4.3270    3.4820   -0.4910 C   0  0  0  0  0  0  0  0  0  0  0  0
   -1.3730   -0.2000    0.3000 C   0  0  0  0  0  0  0  0  0  0  0  0
   -0.8450    0.6350    1.3700 C   0  0  0  0  0  0  0  0  0  0  0  0
   -1.1370    1.8830    1.3810 O   0  0  0  0  0  0  0  0  0  0  0  0
   -0.0290    0.0680    2.3640 N   0  0  0  0  0  0  0  0  0  0  0  0
    0.4840    0.9600    3.4120 C   0  0  0  0  0  0  0  0  0  0  0  0
    0.3370   -1.3090    2.4520 C   0  0  0  0  0  0  0  0  0  0  0  0
    1.6180   -1.6140    1.6800 C   0  0  0  0  0  0  0  0  0  0  0  0
    2.1820   -0.6260    1.0710 C   0  0  0  0  0  0  0  0  0  0  0  0
    3.3900   -0.6400    0.2770 C   0  0  0  0  0  0  0  0  0  0  0  0
    3.8220    0.5510   -0.2930 C   0  0  0  0  0  0  0  0  0  0  0  0
    4.9820    0.5740   -1.0640 C   0  0  0  0  0  0  0  0  0  0  0  0
    5.7080   -0.5700   -1.2700 C   0  0  0  0  0  0  0  0  0  0  0  0
    5.2400   -1.7490   -0.6780 C   0  0  0  0  0  0  0  0  0  0  0  0
    4.1120   -1.7900    0.0760 C   0  0  0  0  0  0  0  0  0  0  0  0
    3.5580   -3.2910    0.8000 S   0  0  0  0  0  0  0  0  0  0  0  0
    2.0590   -3.0150    1.7240 C   0  0  0  0  0  0  0  0  0  0  0  0
    6.7660   -0.3240   -2.0260 C   0  0  0  0  0  0  0  0  0  0  0  0
    7.9480   -1.4890   -2.5280 Cl  0  0  0  0  0  0  0  0  0  0  0  0
    6.7740    1.1270   -2.3800 C   0  0  0  0  0  0  0  0  0  0  0  0
    5.5540    1.6020   -1.6880 C   0  0  0  0  0  0  0  0  0  0  0  0
   -1.2250   -1.5030    0.0520 N   0  0  0  0  0  0  0  0  0  0  0  0
  1  2  1  0
  2  3  1  0
  3  4  1  0
  3 34  1  0
  4  5  2  0
  5  6  1  0
  5 14  1  0
  6  7  2  0
  6  8  1  0
  8  9  1  0
  8 13  1  0
  9 10  1  0
 10 11  1  0
 11 12  1  0
 12 13  1  0
 14 15  1  0
 14 34  2  0
 15 16  2  0
 15 17  1  0
 17 18  1  0
 17 19  1  0
 19 20  1  0
 20 21  2  0
 20 29  1  0
 21 22  1  0
 22 23  2  0
 22 27  1  0
 23 24  1  0
 24 25  1  0
 24 33  2  0
 25 26  1  0
 25 30  2  0
 26 27  2  0
 27 28  1  0
 28 29  1  0
 30 31  1  0
 30 32  1  0
 32 33  1  0
M  END
