
     RDKit          3D

 34 38  0  0  0  0  0  0  0  0999 V2000
   -5.8480    3.3840    1.8110 C   0  0  0  0  0  0  0  0  0  0  0  0
   -6.1510    1.9590    2.1080 C   0  0  0  0  0  0  0  0  0  0  0  0
   -7.7170    1.6230    2.7990 Cl  0  0  0  0  0  0  0  0  0  0  0  0
   -5.3260    0.9630    1.8860 C   0  0  0  0  0  0  0  0  0  0  0  0
   -4.0260    1.2340    1.3130 C   0  0  0  0  0  0  0  0  0  0  0  0
   -3.0970    2.7020    1.9040 S   0  0  0  0  0  0  0  0  0  0  0  0
   -1.6570    2.2500    0.8590 C   0  0  0  0  0  0  0  0  0  0  0  0
   -0.5080    2.9600    0.7760 N   0  0  0  0  0  0  0  0  0  0  0  0
    0.4860    2.5540   -0.0420 C   0  0  0  0  0  0  0  0  0  0  0  0
    0.1990    1.4030   -0.7330 C   0  0  0  0  0  0  0  0  0  0  0  0
    1.2540    0.9070   -1.6460 C   0  0  0  0  0  0  0  0  0  0  0  0
    1.2080    1.3220   -2.8290 O   0  0  0  0  0  0  0  0  0  0  0  0
    2.2550    0.0200   -1.2200 N   0  0  0  0  0  0  0  0  0  0  0  0
    2.2890   -0.4460    0.1480 C   0  0  0  0  0  0  0  0  0  0  0  0
    3.5720   -1.1740    0.4630 C   0  0  0  0  0  0  0  0  0  0  0  0
    4.7910   -0.6110   -0.1970 C   0  0  1  0  0  0  0  0  0  0  0  0
    5.4500    0.4620    0.6720 C   0  0  0  0  0  0  0  0  0  0  0  0
    6.8220    0.8070    0.1440 C   0  0  0  0  0  0  0  0  0  0  0  0
    7.7300   -0.3390    0.4690 C   0  0  0  0  0  0  0  0  0  0  0  0
    6.9280   -1.6080    0.6470 C   0  0  0  0  0  0  0  0  0  0  0  0
    5.8040   -1.7390   -0.3300 C   0  0  0  0  0  0  0  0  0  0  0  0
    4.5920   -0.0030   -1.5390 C   0  0  0  0  0  0  0  0  0  0  0  0
    3.2780   -0.4490   -2.1210 C   0  0  0  0  0  0  0  0  0  0  0  0
   -0.9980    0.7030   -0.6170 C   0  0  0  0  0  0  0  0  0  0  0  0
   -1.0440   -0.2990   -1.3300 O   0  0  0  0  0  0  0  0  0  0  0  0
   -1.9900    1.1520    0.2320 N   0  0  0  0  0  0  0  0  0  0  0  0
   -3.1950    0.6070    0.4420 C   0  0  0  0  0  0  0  0  0  0  0  0
   -3.7380   -0.5510   -0.3290 C   0  0  0  0  0  0  0  0  0  0  0  0
   -2.7950   -1.3690   -0.7430 O   0  0  0  0  0  0  0  0  0  0  0  0
   -5.0110   -0.8960   -0.6820 N   0  0  0  0  0  0  0  0  0  0  0  0
   -6.3430   -0.4570   -0.6090 C   0  0  0  0  0  0  0  0  0  0  0  0
   -7.0640   -1.6190    0.0430 C   0  0  0  0  0  0  0  0  0  0  0  0
   -6.2660   -2.8080   -0.4870 C   0  0  0  0  0  0  0  0  0  0  0  0
   -5.2350   -2.1970   -1.4300 C   0  0  0  0  0  0  0  0  0  0  0  0
  1  2  1  0
  2  3  1  0
  2  4  2  3
  4  5  1  0
  5  6  1  0
  5 27  2  0
  6  7  1  0
  7  8  2  0
  7 26  1  0
  8  9  1  0
  9 10  2  0
 10 11  1  0
 10 24  1  0
 11 12  2  0
 11 13  1  0
 13 14  1  0
 13 23  1  0
 14 15  1  0
 16 15  1  1
 16 17  1  0
 16 21  1  0
 16 22  1  0
 17 18  1  0
 18 19  1  0
 19 20  1  0
 20 21  1  0
 22 23  1  0
 24 25  2  0
 24 26  1  0
 26 27  1  0
 27 28  1  0
 28 29  2  0
 28 30  1  0
 30 31  1  0
 30 34  1  0
 31 32  1  0
 32 33  1  0
 33 34  1  0
M  END
