
     RDKit          3D

 31 34  0  0  0  0  0  0  0  0999 V2000
   -7.8680    0.4050    0.6910 C   0  0  0  0  0  0  0  0  0  0  0  0
   -7.0390   -1.0820    0.2050 S   0  0  2  0  0  0  0  0  0  0  0  0
   -7.0610   -1.2890   -1.2820 O   0  0  0  0  0  0  0  0  0  0  0  0
   -7.6330   -2.2840    0.8730 O   0  0  0  0  0  0  0  0  0  0  0  0
   -5.3600   -0.9590    0.7390 C   0  0  0  0  0  0  0  0  0  0  0  0
   -4.9700   -1.4000    1.9710 C   0  0  0  0  0  0  0  0  0  0  0  0
   -3.6700   -1.3000    2.3720 C   0  0  0  0  0  0  0  0  0  0  0  0
   -2.7130   -0.7380    1.5190 C   0  0  0  0  0  0  0  0  0  0  0  0
   -3.1300   -0.3030    0.2890 C   0  0  0  0  0  0  0  0  0  0  0  0
   -2.1710    0.2910   -0.6410 C   0  0  0  0  0  0  0  0  0  0  0  0
   -0.8330    0.4620   -0.3840 C   0  0  0  0  0  0  0  0  0  0  0  0
    0.0100    1.0290   -1.3060 C   0  0  0  0  0  0  0  0  0  0  0  0
    1.3830    1.2030   -1.0450 N   0  0  0  0  0  0  0  0  0  0  0  0
    2.0670    0.7920    0.1570 C   0  0  0  0  0  0  0  0  0  0  0  0
    3.2200   -0.0030   -0.4800 C   0  0  2  0  0  0  0  0  0  0  0  0
    4.2430   -0.1830    0.5610 C   0  0  0  0  0  0  0  0  0  0  0  0
    4.0780    0.1680    1.8990 C   0  0  0  0  0  0  0  0  0  0  0  0
    5.0560   -0.0230    2.8450 C   0  0  0  0  0  0  0  0  0  0  0  0
    4.8270    0.3410    4.1210 F   0  0  0  0  0  0  0  0  0  0  0  0
    6.2510   -0.5780    2.4840 C   0  0  0  0  0  0  0  0  0  0  0  0
    7.2620   -0.7900    3.3890 F   0  0  0  0  0  0  0  0  0  0  0  0
    6.4200   -0.9260    1.1620 C   0  0  0  0  0  0  0  0  0  0  0  0
    5.4590   -0.7460    0.2010 C   0  0  0  0  0  0  0  0  0  0  0  0
    5.6740   -1.1050   -1.0750 F   0  0  0  0  0  0  0  0  0  0  0  0
    3.5970    0.8780   -1.6190 C   0  0  1  0  0  0  0  0  0  0  0  0
    3.8030    0.1710   -2.8590 N   0  0  0  0  0  0  0  0  0  0  0  0
    2.4010    1.8090   -1.8750 C   0  0  0  0  0  0  0  0  0  0  0  0
   -0.4810    1.4260   -2.4830 N   0  0  0  0  0  0  0  0  0  0  0  0
   -1.7770    1.2770   -2.7680 C   0  0  0  0  0  0  0  0  0  0  0  0
   -2.5850    0.7240   -1.8630 N   0  0  0  0  0  0  0  0  0  0  0  0
   -4.4450   -0.4010   -0.1260 C   0  0  0  0  0  0  0  0  0  0  0  0
  2  1  1  6
  2  3  2  0
  2  4  2  0
  2  5  1  0
  5  6  2  0
  5 31  1  0
  6  7  1  0
  7  8  2  0
  8  9  1  0
  9 10  1  0
  9 31  2  0
 10 11  2  0
 10 30  1  0
 11 12  1  0
 12 13  1  0
 12 28  2  0
 13 14  1  0
 13 27  1  0
 14 15  1  0
 15 16  1  1
 15 25  1  0
 16 17  2  0
 16 23  1  0
 17 18  1  0
 18 19  1  0
 18 20  2  0
 20 21  1  0
 20 22  1  0
 22 23  2  0
 23 24  1  0
 25 26  1  6
 25 27  1  0
 28 29  1  0
 29 30  2  0
M  CHG  1  26   1
M  END
