
     RDKit          3D

 31 34  0  0  0  0  0  0  0  0999 V2000
   -8.0410   -1.1680   -0.7300 C   0  0  0  0  0  0  0  0  0  0  0  0
   -6.9300   -0.5210   -0.3630 C   0  0  0  0  0  0  0  0  0  0  0  0
   -6.7860    0.4200    0.5020 O   0  0  0  0  0  0  0  0  0  0  0  0
   -5.5250    0.8070    0.5860 C   0  0  0  0  0  0  0  0  0  0  0  0
   -4.8990    1.7610    1.3580 C   0  0  0  0  0  0  0  0  0  0  0  0
   -5.7190    2.5770    2.3200 C   0  0  0  0  0  0  0  0  0  0  0  0
   -3.5490    1.9510    1.2360 C   0  0  0  0  0  0  0  0  0  0  0  0
   -2.7830    1.2090    0.3550 C   0  0  0  0  0  0  0  0  0  0  0  0
   -1.4260    1.3970    0.2320 O   0  0  0  0  0  0  0  0  0  0  0  0
   -0.4550    0.4550    0.5420 C   0  0  0  0  0  0  0  0  0  0  0  0
   -0.7960   -0.7510    1.1230 C   0  0  0  0  0  0  0  0  0  0  0  0
    0.1300   -1.7070    1.4430 C   0  0  0  0  0  0  0  0  0  0  0  0
    1.4840   -1.4350    1.1620 C   0  0  0  0  0  0  0  0  0  0  0  0
    1.8720   -0.2620    0.5910 C   0  0  0  0  0  0  0  0  0  0  0  0
    3.1890    0.1110    0.2840 N   0  0  0  0  0  0  0  0  0  0  0  0
    4.3850   -0.5640    0.6420 C   0  0  0  0  0  0  0  0  0  0  0  0
    4.3070   -1.6130    1.3110 O   0  0  0  0  0  0  0  0  0  0  0  0
    5.7270   -0.0510    0.2400 C   0  0  0  0  0  0  0  0  0  0  0  0
    6.9780   -1.1880    0.8880 S   0  0  0  0  0  0  0  0  0  0  0  0
    8.6030   -0.6060    0.4270 C   0  0  0  0  0  0  0  0  0  0  0  0
    9.7860   -1.1830    0.7240 N   0  0  0  0  0  0  0  0  0  0  0  0
   10.7490   -0.4350    0.1960 N   0  0  0  0  0  0  0  0  0  0  0  0
   10.2070    0.6200   -0.4420 C   0  0  0  0  0  0  0  0  0  0  0  0
   10.8070    1.5370   -1.0570 O   0  0  0  0  0  0  0  0  0  0  0  0
    8.8800    0.4810   -0.2770 N   0  0  0  0  0  0  0  0  0  0  0  0
    0.8790    0.6690    0.2900 C   0  0  0  0  0  0  0  0  0  0  0  0
   -3.4000    0.2520   -0.4240 C   0  0  0  0  0  0  0  0  0  0  0  0
   -2.5970   -0.5020   -1.4180 C   0  0  0  0  0  0  0  0  0  0  0  0
   -4.7770    0.0430   -0.3120 C   0  0  0  0  0  0  0  0  0  0  0  0
   -5.6700   -0.8020   -0.9140 C   0  0  0  0  0  0  0  0  0  0  0  0
   -5.4260   -1.7080   -1.8170 C   0  0  0  0  0  0  0  0  0  0  0  0
  1  2  2  0
  2  3  1  0
  2 30  1  0
  3  4  1  0
  4  5  2  0
  4 29  1  0
  5  6  1  0
  5  7  1  0
  7  8  2  0
  8  9  1  0
  8 27  1  0
  9 10  1  0
 10 11  2  0
 10 26  1  0
 11 12  1  0
 12 13  2  0
 13 14  1  0
 14 15  1  0
 14 26  2  0
 15 16  1  0
 16 17  2  0
 16 18  1  0
 18 19  1  0
 19 20  1  0
 20 21  2  0
 20 25  1  0
 21 22  1  0
 22 23  1  0
 23 24  2  0
 23 25  1  0
 27 28  1  0
 27 29  2  0
 29 30  1  0
 30 31  2  0
M  END
