
     RDKit          3D

 31 34  0  0  0  0  0  0  0  0999 V2000
    7.2560    2.7840    0.4060 C   0  0  0  0  0  0  0  0  0  0  0  0
    6.1360    1.8000    0.4390 C   0  0  0  0  0  0  0  0  0  0  0  0
    5.5200    1.3980   -0.7260 C   0  0  0  0  0  0  0  0  0  0  0  0
    4.4760    0.4810   -0.6940 C   0  0  0  0  0  0  0  0  0  0  0  0
    4.0490   -0.0320    0.5110 C   0  0  0  0  0  0  0  0  0  0  0  0
    4.6660    0.3650    1.7090 C   0  0  0  0  0  0  0  0  0  0  0  0
    5.6910    1.2730    1.6160 C   0  0  0  0  0  0  0  0  0  0  0  0
    4.0060   -0.3740    2.8190 C   0  0  0  0  0  0  0  0  0  0  0  0
    3.4670   -1.5870    2.0510 C   0  0  0  0  0  0  0  0  0  0  0  0
    3.0290   -0.9440    0.7950 N   0  0  0  0  0  0  0  0  0  0  0  0
    1.7900   -1.2560    0.1640 C   0  0  0  0  0  0  0  0  0  0  0  0
    1.1410   -2.2740    0.5980 O   0  0  0  0  0  0  0  0  0  0  0  0
    1.2210   -0.5120   -0.9140 C   0  0  0  0  0  0  0  0  0  0  0  0
    0.1580   -0.7190   -1.5980 C   0  0  0  0  0  0  0  0  0  0  0  0
   -0.1770    0.2900   -2.6790 C   0  0  0  0  0  0  0  0  0  0  0  0
   -1.8720    0.8050   -2.4260 S   0  0  0  0  0  0  0  0  0  0  0  0
   -2.6350   -0.4660   -1.3920 C   0  0  0  0  0  0  0  0  0  0  0  0
   -3.6860   -0.1350   -0.7690 N   0  0  0  0  0  0  0  0  0  0  0  0
   -4.4930   -0.9230    0.1110 C   0  0  0  0  0  0  0  0  0  0  0  0
   -5.1960    0.0080    1.0760 C   0  0  0  0  0  0  0  0  0  0  0  0
   -6.0640    0.9780    0.3740 C   0  0  0  0  0  0  0  0  0  0  0  0
   -6.1100    0.9160   -0.8830 O   0  0  0  0  0  0  0  0  0  0  0  0
   -6.8350    1.9600    1.0210 N   0  0  0  0  0  0  0  0  0  0  0  0
   -7.6610    2.8780    0.2860 C   0  0  0  0  0  0  0  0  0  0  0  0
   -7.7030    2.8090   -0.9880 O   0  0  0  0  0  0  0  0  0  0  0  0
   -8.4270    3.8490    0.8820 O   0  0  0  0  0  0  0  0  0  0  0  0
   -2.0520   -1.7800   -1.3110 C   0  0  0  0  0  0  0  0  0  0  0  0
   -2.5840   -3.0270   -1.1620 C   0  0  0  0  0  0  0  0  0  0  0  0
   -1.5450   -3.8920   -1.1780 N   0  0  0  0  0  0  0  0  0  0  0  0
   -0.3910   -3.2290   -1.3300 C   0  0  0  0  0  0  0  0  0  0  0  0
   -0.6730   -1.8800   -1.4150 C   0  0  0  0  0  0  0  0  0  0  0  0
  1  2  1  0
  2  3  2  0
  2  7  1  0
  3  4  1  0
  4  5  2  0
  5  6  1  0
  5 10  1  0
  6  7  2  0
  6  8  1  0
  8  9  1  0
  9 10  1  0
 10 11  1  0
 11 12  2  0
 11 13  1  0
 13 14  2  3
 14 15  1  0
 14 31  1  0
 15 16  1  0
 16 17  1  0
 17 18  2  3
 17 27  1  0
 18 19  1  0
 19 20  1  0
 20 21  1  0
 21 22  2  0
 21 23  1  0
 23 24  1  0
 24 25  2  0
 24 26  1  0
 27 28  2  0
 27 31  1  0
 28 29  1  0
 29 30  1  0
 30 31  2  0
M  END
