
     RDKit          3D

 31 34  0  0  0  0  0  0  0  0999 V2000
   -7.7800    2.8090   -0.1150 C   0  0  0  0  0  0  0  0  0  0  0  0
   -6.8900    1.9890   -0.6060 C   0  0  0  0  0  0  0  0  0  0  0  0
   -6.0040    2.2300   -1.5130 O   0  0  0  0  0  0  0  0  0  0  0  0
   -5.2770    1.1850   -1.7670 C   0  0  0  0  0  0  0  0  0  0  0  0
   -5.7170    0.1220   -0.9460 C   0  0  0  0  0  0  0  0  0  0  0  0
   -5.1490   -1.1970   -1.0330 C   0  0  0  0  0  0  0  0  0  0  0  0
   -5.8540   -2.1960   -1.2510 O   0  0  0  0  0  0  0  0  0  0  0  0
   -3.7150   -1.3860   -0.8640 C   0  0  0  0  0  0  0  0  0  0  0  0
   -2.8120   -0.3620   -0.6930 C   0  0  0  0  0  0  0  0  0  0  0  0
   -1.5620   -0.9440   -0.5670 C   0  0  0  0  0  0  0  0  0  0  0  0
   -0.3400   -0.2550   -0.3730 N   0  0  0  0  0  0  0  0  0  0  0  0
    0.9360   -0.8390   -0.2270 C   0  0  0  0  0  0  0  0  0  0  0  0
    1.0200   -2.0900   -0.2690 O   0  0  0  0  0  0  0  0  0  0  0  0
    2.1440   -0.0440   -0.0300 C   0  0  0  0  0  0  0  0  0  0  0  0
    2.0680    1.1910    0.0090 O   0  0  0  0  0  0  0  0  0  0  0  0
    3.3820   -0.6620    0.1160 N   0  0  0  0  0  0  0  0  0  0  0  0
    4.6350   -0.0880    0.3140 C   0  0  0  0  0  0  0  0  0  0  0  0
    4.8540    1.2160    0.6180 C   0  0  0  0  0  0  0  0  0  0  0  0
    6.1040    1.7960    0.7960 C   0  0  0  0  0  0  0  0  0  0  0  0
    7.2450    1.0110    0.6630 C   0  0  0  0  0  0  0  0  0  0  0  0
    8.5010    1.3600    0.7870 N   0  0  0  0  0  0  0  0  0  0  0  0
    9.4870    0.7300    0.6800 C   0  0  0  0  0  0  0  0  0  0  0  0
   10.9780    0.7700    0.7420 C   0  0  0  0  0  0  0  0  0  0  0  0
    8.6970   -0.9710    0.2670 S   0  0  0  0  0  0  0  0  0  0  0  0
    7.0210   -0.3120    0.3550 C   0  0  0  0  0  0  0  0  0  0  0  0
    5.7760   -0.8820    0.1790 C   0  0  0  0  0  0  0  0  0  0  0  0
   -1.7170   -2.2940   -0.6620 C   0  0  0  0  0  0  0  0  0  0  0  0
   -3.0420   -2.5680   -0.8450 N   0  0  0  0  0  0  0  0  0  0  0  0
   -6.7390    0.6410   -0.2110 C   0  0  0  0  0  0  0  0  0  0  0  0
   -7.4540    0.0580    0.7040 C   0  0  0  0  0  0  0  0  0  0  0  0
   -7.3110   -1.3320    1.1280 C   0  0  0  0  0  0  0  0  0  0  0  0
  1  2  2  0
  2  3  1  0
  2 29  1  0
  3  4  1  0
  4  5  2  0
  5  6  1  0
  5 29  1  0
  6  7  2  0
  6  8  1  0
  8  9  2  0
  8 28  1  0
  9 10  1  0
 10 11  1  0
 10 27  2  0
 11 12  1  0
 12 13  2  0
 12 14  1  0
 14 15  2  0
 14 16  1  0
 16 17  1  0
 17 18  2  0
 17 26  1  0
 18 19  1  0
 19 20  2  0
 20 21  1  0
 20 25  1  0
 21 22  2  0
 22 23  1  0
 22 24  1  0
 24 25  1  0
 25 26  2  0
 27 28  1  0
 29 30  2  3
 30 31  1  0
M  END
