
     RDKit          3D

 31 34  0  0  0  0  0  0  0  0999 V2000
   -6.6160   -0.4260   -2.5870 C   0  0  0  0  0  0  0  0  0  0  0  0
   -5.7180   -0.5110   -1.5990 O   0  0  0  0  0  0  0  0  0  0  0  0
   -4.7100   -0.0920   -0.8730 C   0  0  0  0  0  0  0  0  0  0  0  0
   -3.9590    1.0070   -1.0680 C   0  0  0  0  0  0  0  0  0  0  0  0
   -2.8920    1.3310   -0.2460 C   0  0  0  0  0  0  0  0  0  0  0  0
   -2.1680    2.5030   -0.4420 O   0  0  0  0  0  0  0  0  0  0  0  0
   -2.6020    3.4290   -1.3970 C   0  0  0  0  0  0  0  0  0  0  0  0
   -2.5780    0.4820    0.7850 C   0  0  0  0  0  0  0  0  0  0  0  0
   -1.1620    0.4260    1.3080 C   0  0  0  0  0  0  0  0  0  0  0  0
   -0.4410   -0.4840    0.5490 N   0  0  0  0  0  0  0  0  0  0  0  0
    0.9000   -0.4860    0.8350 C   0  0  0  0  0  0  0  0  0  0  0  0
    1.7830   -1.6190   -0.2790 S   0  0  0  0  0  0  0  0  0  0  0  0
    3.5420   -1.1990   -0.4330 C   0  0  0  0  0  0  0  0  0  0  0  0
    4.0810   -0.1640    0.0500 C   0  0  0  0  0  0  0  0  0  0  0  0
    5.4980    0.1230   -0.0670 C   0  0  0  0  0  0  0  0  0  0  0  0
    6.2780    1.1990    0.2180 C   0  0  0  0  0  0  0  0  0  0  0  0
    7.5430    0.9200   -0.2210 N   0  0  0  0  0  0  0  0  0  0  0  0
    7.5550   -0.3020   -0.7730 C   0  0  0  0  0  0  0  0  0  0  0  0
    6.2750   -0.7950   -0.6730 C   0  0  0  0  0  0  0  0  0  0  0  0
    5.6730   -2.1510   -1.0440 C   0  0  0  0  0  0  0  0  0  0  0  0
    4.3150   -2.0510   -1.4640 C   0  0  0  0  0  0  0  0  0  0  0  0
    1.4660    0.2670    1.7200 N   0  0  0  0  0  0  0  0  0  0  0  0
    0.7690    1.2460    2.5420 C   0  0  0  0  0  0  0  0  0  0  0  0
    1.1940    1.9400    3.2720 O   0  0  0  0  0  0  0  0  0  0  0  0
   -0.6220    1.0730    2.0940 C   0  0  0  0  0  0  0  0  0  0  0  0
   -1.3720    2.4230    2.6400 C   0  0  0  0  0  0  0  0  0  0  0  0
   -1.9010    3.4180    3.0450 N   0  0  0  0  0  0  0  0  0  0  0  0
   -3.3410   -0.6410    0.9950 C   0  0  0  0  0  0  0  0  0  0  0  0
   -4.3600   -0.9120    0.2330 C   0  0  0  0  0  0  0  0  0  0  0  0
   -5.2150   -2.0040    0.4460 O   0  0  0  0  0  0  0  0  0  0  0  0
   -4.9700   -2.8170    1.6060 C   0  0  0  0  0  0  0  0  0  0  0  0
  1  2  1  0
  2  3  1  0
  3  4  2  0
  3 29  1  0
  4  5  1  0
  5  6  1  0
  5  8  2  0
  6  7  1  0
  8  9  1  0
  8 28  1  0
  9 10  1  0
  9 25  2  0
 10 11  2  0
 11 12  1  0
 11 22  1  0
 12 13  1  0
 13 14  2  0
 13 21  1  0
 14 15  1  0
 15 16  2  0
 15 19  1  0
 16 17  1  0
 17 18  1  0
 18 19  2  0
 19 20  1  0
 20 21  1  0
 22 23  1  0
 23 24  2  0
 23 25  1  0
 25 26  1  0
 26 27  3  0
 28 29  2  0
 29 30  1  0
 30 31  1  0
M  END
