
     RDKit          3D

 31 34  0  0  0  0  0  0  0  0999 V2000
   -5.2740   -2.1930   -0.1400 C   0  0  0  0  0  0  0  0  0  0  0  0
   -4.3380   -1.1020   -0.5110 C   0  0  0  0  0  0  0  0  0  0  0  0
   -4.6010    0.1040   -0.1170 C   0  0  0  0  0  0  0  0  0  0  0  0
   -5.8370    0.2830    0.6830 C   0  0  0  0  0  0  0  0  0  0  0  0
   -6.5120    1.3970    0.9390 C   0  0  0  0  0  0  0  0  0  0  0  0
   -6.1950    2.7070    0.4920 N   0  0  0  0  0  0  0  0  0  0  0  0
   -5.4050    3.1190   -0.6240 C   0  0  0  0  0  0  0  0  0  0  0  0
   -4.0510    2.4660   -0.6690 C   0  0  0  0  0  0  0  0  0  0  0  0
   -3.7090    1.1820   -0.4530 C   0  0  0  0  0  0  0  0  0  0  0  0
   -2.2750    0.8290   -0.5910 C   0  0  2  0  0  0  0  0  0  0  0  0
   -1.5320    2.2000   -0.5730 C   0  0  0  0  0  0  0  0  0  0  0  0
   -1.9560    0.3140   -1.9560 C   0  0  0  0  0  0  0  0  0  0  0  0
   -1.7430    0.1380    0.5240 N   0  0  0  0  0  0  0  0  0  0  0  0
   -1.0530   -1.0680    0.3780 C   0  0  0  0  0  0  0  0  0  0  0  0
    0.4520   -0.9490    0.4190 C   0  0  0  0  0  0  0  0  0  0  0  0
    1.2970   -1.9770    0.2270 N   0  0  0  0  0  0  0  0  0  0  0  0
    2.5860   -1.5240    0.3310 C   0  0  0  0  0  0  0  0  0  0  0  0
    3.7510   -2.3790    0.1740 C   0  0  0  0  0  0  0  0  0  0  0  0
    3.6030   -3.7370   -0.0970 C   0  0  0  0  0  0  0  0  0  0  0  0
    4.7220   -4.5500   -0.2550 C   0  0  0  0  0  0  0  0  0  0  0  0
    5.9930   -4.0250   -0.1440 C   0  0  0  0  0  0  0  0  0  0  0  0
    6.1400   -2.6800    0.1250 C   0  0  0  0  0  0  0  0  0  0  0  0
    5.0080   -1.8590    0.2840 C   0  0  0  0  0  0  0  0  0  0  0  0
    5.1600   -0.4480    0.5760 C   0  0  0  0  0  0  0  0  0  0  0  0
    4.9240    0.2660    1.7140 C   0  0  0  0  0  0  0  0  0  0  0  0
    5.2230    1.5640    1.4760 N   0  0  0  0  0  0  0  0  0  0  0  0
    5.6490    1.7320    0.2150 C   0  0  0  0  0  0  0  0  0  0  0  0
    6.0580    3.0330   -0.3740 C   0  0  0  0  0  0  0  0  0  0  0  0
    5.6120    0.4750   -0.3550 C   0  0  0  0  0  0  0  0  0  0  0  0
    2.4660   -0.2350    0.5840 N   0  0  0  0  0  0  0  0  0  0  0  0
    1.2080    0.0830    0.6320 O   0  0  0  0  0  0  0  0  0  0  0  0
  1  2  1  0
  2  3  2  3
  3  4  1  0
  3  9  1  0
  4  5  2  0
  5  6  1  0
  6  7  1  0
  7  8  1  0
  8  9  2  0
  9 10  1  0
 10 11  1  6
 10 12  1  0
 10 13  1  0
 13 14  1  0
 14 15  1  0
 15 16  2  0
 15 31  1  0
 16 17  1  0
 17 18  1  0
 17 30  2  0
 18 19  2  0
 18 23  1  0
 19 20  1  0
 20 21  2  0
 21 22  1  0
 22 23  2  0
 23 24  1  0
 24 25  2  0
 24 29  1  0
 25 26  1  0
 26 27  1  0
 27 28  1  0
 27 29  2  0
 30 31  1  0
M  CHG  1  13   1
M  END
