
     RDKit          3D

 31 35  0  0  0  0  0  0  0  0999 V2000
   -6.0000    2.6000    0.5300 C   0  0  0  0  0  0  0  0  0  0  0  0
   -5.5970    1.4770    1.0680 C   0  0  0  0  0  0  0  0  0  0  0  0
   -4.5170    0.9690    1.9510 C   0  0  0  0  0  0  0  0  0  0  0  0
   -4.7200   -0.3630    1.2170 C   0  0  2  0  0  0  0  0  0  0  0  0
   -3.8470   -0.3740   -0.0100 C   0  0  0  0  0  0  0  0  0  0  0  0
   -2.4600   -0.2370    0.3480 N   0  0  0  0  0  0  0  0  0  0  0  0
   -1.4270   -0.2170   -0.6220 C   0  0  0  0  0  0  0  0  0  0  0  0
   -1.7670   -0.3350   -1.9490 C   0  0  0  0  0  0  0  0  0  0  0  0
   -0.7500   -0.3130   -2.8690 C   0  0  0  0  0  0  0  0  0  0  0  0
    0.5790   -0.1770   -2.4590 C   0  0  0  0  0  0  0  0  0  0  0  0
    0.9020   -0.0600   -1.1210 C   0  0  0  0  0  0  0  0  0  0  0  0
    2.2760    0.0820   -0.6850 C   0  0  0  0  0  0  0  0  0  0  0  0
    2.6070    0.1990    0.6500 C   0  0  0  0  0  0  0  0  0  0  0  0
    3.9320    0.3360    1.0840 C   0  0  0  0  0  0  0  0  0  0  0  0
    4.9550    0.3600    0.1900 C   0  0  0  0  0  0  0  0  0  0  0  0
    6.3250    0.5050    0.6760 C   0  0  0  0  0  0  0  0  0  0  0  0
    6.8040    1.3530    1.6020 N   0  0  0  0  0  0  0  0  0  0  0  0
    8.1040    1.1670    1.7560 N   0  0  0  0  0  0  0  0  0  0  0  0
    8.5370    0.1810    0.9290 C   0  0  0  0  0  0  0  0  0  0  0  0
    7.4140   -0.2370    0.2480 C   0  0  0  0  0  0  0  0  0  0  0  0
    7.7930   -1.2980   -0.6640 C   0  0  0  0  0  0  0  0  0  0  0  0
    7.0480   -1.9470   -1.4700 O   0  0  0  0  0  0  0  0  0  0  0  0
    9.1870   -1.4990   -0.5010 N   0  0  0  0  0  0  0  0  0  0  0  0
    9.7330   -0.5980    0.4930 C   0  0  0  0  0  0  0  0  0  0  0  0
    4.6470    0.2450   -1.1400 C   0  0  0  0  0  0  0  0  0  0  0  0
    3.3210    0.1070   -1.5750 C   0  0  0  0  0  0  0  0  0  0  0  0
   -0.1280   -0.0870   -0.2590 N   0  0  0  0  0  0  0  0  0  0  0  0
   -6.1100    0.1140    1.0050 C   0  0  0  0  0  0  0  0  0  0  0  0
   -7.3170   -0.3760    0.8290 C   0  0  0  0  0  0  0  0  0  0  0  0
   -8.5000    0.4830    0.6440 C   0  0  0  0  0  0  0  0  0  0  0  0
   -7.5120   -1.8690    0.8150 C   0  0  0  0  0  0  0  0  0  0  0  0
  1  2  2  0
  2  3  1  0
  2 28  1  0
  3  4  1  0
  4  5  1  6
  4 28  1  0
  5  6  1  0
  6  7  1  0
  7  8  2  0
  7 27  1  0
  8  9  1  0
  9 10  2  0
 10 11  1  0
 11 12  1  0
 11 27  2  0
 12 13  2  0
 12 26  1  0
 13 14  1  0
 14 15  2  0
 15 16  1  0
 15 25  1  0
 16 17  2  0
 16 20  1  0
 17 18  1  0
 18 19  1  0
 19 20  2  0
 19 24  1  0
 20 21  1  0
 21 22  2  0
 21 23  1  0
 23 24  1  0
 25 26  2  0
 28 29  2  3
 29 30  1  0
 29 31  1  0
M  CHG  1  27   1
M  END
