
     RDKit          3D

 31 35  0  0  0  0  0  0  0  0999 V2000
    0.2820   -1.1050    4.0590 C   0  0  0  0  0  0  0  0  0  0  0  0
   -0.7280   -0.5180    3.1150 C   0  0  0  0  0  0  0  0  0  0  0  0
   -1.7500    0.2610    3.4500 N   0  0  0  0  0  0  0  0  0  0  0  0
   -2.4690    0.6010    2.3790 N   0  0  0  0  0  0  0  0  0  0  0  0
   -1.9110    0.0370    1.3110 C   0  0  0  0  0  0  0  0  0  0  0  0
   -2.3620    0.1190   -0.0660 C   0  0  0  0  0  0  0  0  0  0  0  0
   -1.6150   -0.6090   -0.8730 O   0  0  0  0  0  0  0  0  0  0  0  0
   -3.4020    0.7970   -0.6550 N   0  0  0  0  0  0  0  0  0  0  0  0
   -3.6310    0.5700   -2.1280 C   0  0  0  0  0  0  0  0  0  0  0  0
   -4.9960   -0.1330   -2.1340 C   0  0  0  0  0  0  0  0  0  0  0  0
   -5.9900    0.5770   -1.4130 N   0  0  0  0  0  0  0  0  0  0  0  0
   -5.6710    0.9620   -0.0770 C   0  0  2  0  0  0  0  0  0  0  0  0
   -6.7590    1.7910    0.5160 C   0  0  0  0  0  0  0  0  0  0  0  0
   -4.3240    1.7240   -0.1100 C   0  0  0  0  0  0  0  0  0  0  0  0
   -0.7830   -0.6930    1.7550 C   0  0  0  0  0  0  0  0  0  0  0  0
    0.1120   -1.4580    0.9120 C   0  0  0  0  0  0  0  0  0  0  0  0
   -0.1690   -2.7000    0.4090 C   0  0  0  0  0  0  0  0  0  0  0  0
    0.7580   -3.3670   -0.3800 C   0  0  0  0  0  0  0  0  0  0  0  0
    1.9890   -2.8240   -0.6940 C   0  0  0  0  0  0  0  0  0  0  0  0
    2.2750   -1.5840   -0.1930 C   0  0  0  0  0  0  0  0  0  0  0  0
    3.5690   -0.9870   -0.4790 C   0  0  0  0  0  0  0  0  0  0  0  0
    4.6380   -1.8410   -0.6250 C   0  0  0  0  0  0  0  0  0  0  0  0
    5.9020   -1.3220   -0.8670 C   0  0  0  0  0  0  0  0  0  0  0  0
    6.0670    0.0510   -0.9560 C   0  0  0  0  0  0  0  0  0  0  0  0
    7.2960    0.6100   -1.1840 C   0  0  0  0  0  0  0  0  0  0  0  0
    7.4510    1.9410   -1.2630 N   0  0  0  0  0  0  0  0  0  0  0  0
    6.4160    2.7800   -1.1230 C   0  0  0  0  0  0  0  0  0  0  0  0
    5.1560    2.2230   -0.8900 C   0  0  0  0  0  0  0  0  0  0  0  0
    4.9710    0.8810   -0.8050 C   0  0  0  0  0  0  0  0  0  0  0  0
    3.7060    0.3760   -0.5640 C   0  0  0  0  0  0  0  0  0  0  0  0
    1.3530   -0.9230    0.5900 C   0  0  0  0  0  0  0  0  0  0  0  0
  1  2  1  0
  2  3  2  0
  2 15  1  0
  3  4  1  0
  4  5  1  0
  5  6  1  0
  5 15  2  0
  6  7  2  0
  6  8  1  0
  8  9  1  0
  8 14  1  0
  9 10  1  0
 10 11  1  0
 11 12  1  0
 12 13  1  6
 12 14  1  0
 15 16  1  0
 16 17  2  0
 16 31  1  0
 17 18  1  0
 18 19  2  0
 19 20  1  0
 20 21  1  0
 20 31  2  0
 21 22  2  0
 21 30  1  0
 22 23  1  0
 23 24  2  0
 24 25  1  0
 24 29  1  0
 25 26  2  0
 26 27  1  0
 27 28  2  0
 28 29  1  0
 29 30  2  0
M  CHG  1  26   1
M  END
