
     RDKit          3D

 31 34  0  0  0  0  0  0  0  0999 V2000
   -1.9340    0.9350   -0.1090 O   0  0  0  0  0  0  0  0  0  0  0  0
   -1.5850   -0.1900    0.2300 C   0  0  0  0  0  0  0  0  0  0  0  0
   -0.1050   -0.4580    0.3390 C   0  0  0  0  0  0  0  0  0  0  0  0
    0.6830    0.7690   -0.0280 C   0  0  0  0  0  0  0  0  0  0  0  0
    2.1330    0.4430    0.1020 C   0  0  0  0  0  0  0  0  0  0  0  0
    2.4990   -0.6870    0.4860 O   0  0  0  0  0  0  0  0  0  0  0  0
    3.0780    1.4440   -0.2210 N   0  0  0  0  0  0  0  0  0  0  0  0
    4.4600    1.0910   -0.0800 N   0  0  0  0  0  0  0  0  0  0  0  0
    5.2620    1.9800    0.6020 C   0  0  0  0  0  0  0  0  0  0  0  0
    4.6960    3.0060    1.1270 O   0  0  0  0  0  0  0  0  0  0  0  0
    6.7350    1.8890    0.8030 C   0  0  0  0  0  0  0  0  0  0  0  0
    7.6140    1.0480    0.4160 C   0  0  0  0  0  0  0  0  0  0  0  0
    8.8000    1.6130    0.9930 C   0  0  0  0  0  0  0  0  0  0  0  0
    7.8610    2.9090    1.6600 S   0  0  0  0  0  0  0  0  0  0  0  0
    4.7660   -0.1750   -0.6350 C   0  0  0  0  0  0  0  0  0  0  0  0
    5.1420   -1.2730   -0.0020 C   0  0  0  0  0  0  0  0  0  0  0  0
    5.3520   -2.3470   -0.9730 C   0  0  0  0  0  0  0  0  0  0  0  0
    5.0490   -1.7360   -2.2830 C   0  0  0  0  0  0  0  0  0  0  0  0
    4.7150   -0.4870   -2.0590 C   0  0  0  0  0  0  0  0  0  0  0  0
   -2.5400   -1.1780    0.5030 N   0  0  0  0  0  0  0  0  0  0  0  0
   -3.9460   -1.0700    0.4440 C   0  0  0  0  0  0  0  0  0  0  0  0
   -4.6290    0.0640    0.1150 C   0  0  0  0  0  0  0  0  0  0  0  0
   -6.0020    0.1300    0.0720 C   0  0  0  0  0  0  0  0  0  0  0  0
   -6.7150   -1.0080    0.3760 C   0  0  0  0  0  0  0  0  0  0  0  0
   -6.0660   -2.1490    0.7070 N   0  0  0  0  0  0  0  0  0  0  0  0
   -4.7330   -2.1980    0.7450 C   0  0  0  0  0  0  0  0  0  0  0  0
   -4.1600   -3.2820    1.0590 O   0  0  0  0  0  0  0  0  0  0  0  0
   -8.1680   -0.9350    0.3320 C   0  0  0  0  0  0  0  0  0  0  0  0
   -8.7780    0.1880    0.0090 C   0  0  0  0  0  0  0  0  0  0  0  0
   -8.1010    1.4400   -0.3270 C   0  0  0  0  0  0  0  0  0  0  0  0
   -6.6200    1.4190   -0.3000 C   0  0  0  0  0  0  0  0  0  0  0  0
  1  2  2  0
  2  3  1  0
  2 20  1  0
  3  4  1  0
  4  5  1  0
  5  6  2  0
  5  7  1  0
  7  8  1  0
  8  9  1  0
  8 15  1  0
  9 10  2  0
  9 11  1  0
 11 12  2  0
 11 14  1  0
 12 13  1  0
 13 14  1  0
 15 16  2  0
 15 19  1  0
 16 17  1  0
 17 18  1  0
 18 19  2  0
 20 21  1  0
 21 22  2  0
 21 26  1  0
 22 23  1  0
 23 24  2  0
 23 31  1  0
 24 25  1  0
 24 28  1  0
 25 26  1  0
 26 27  2  0
 28 29  2  0
 29 30  1  0
 30 31  1  0
M  END
