
     RDKit          3D

 29 31  0  0  0  0  0  0  0  0999 V2000
   -0.8980   -0.3550   -1.1600 C   0  0  0  0  0  0  0  0  0  0  0  0
    0.2320   -0.1010   -0.1700 C   0  0  2  0  0  0  0  0  0  0  0  0
   -0.0340   -0.8860    1.0710 C   0  0  0  0  0  0  0  0  0  0  0  0
    0.2210    1.3720    0.1600 C   0  0  0  0  0  0  0  0  0  0  0  0
   -0.9400    1.7530    0.7790 O   0  0  0  0  0  0  0  0  0  0  0  0
   -2.2410    1.7420    0.4240 C   0  0  0  0  0  0  0  0  0  0  0  0
   -3.0820    0.8280    0.8450 C   0  0  0  0  0  0  0  0  0  0  0  0
   -4.4940    0.7610    0.4990 C   0  0  0  0  0  0  0  0  0  0  0  0
   -5.3410   -0.2180    0.9650 C   0  0  0  0  0  0  0  0  0  0  0  0
   -6.6740   -0.2820    0.6390 C   0  0  0  0  0  0  0  0  0  0  0  0
   -7.5660   -1.3210    1.1360 C   0  0  0  0  0  0  0  0  0  0  0  0
   -8.7770   -1.3320    0.8060 O   0  0  0  0  0  0  0  0  0  0  0  0
   -7.1040   -2.3080    1.9730 O   0  0  0  0  0  0  0  0  0  0  0  0
   -7.1540    0.7090   -0.2050 C   0  0  0  0  0  0  0  0  0  0  0  0
   -6.3320    1.7060   -0.6920 C   0  0  0  0  0  0  0  0  0  0  0  0
   -4.9860    1.7370   -0.3380 C   0  0  0  0  0  0  0  0  0  0  0  0
   -4.1140    2.6910   -0.7790 O   0  0  0  0  0  0  0  0  0  0  0  0
   -2.7590    2.8150   -0.4880 C   0  0  0  0  0  0  0  0  0  0  0  0
    1.4800   -0.4900   -0.8120 N   0  0  0  0  0  0  0  0  0  0  0  0
    2.7210   -0.3940   -0.0800 C   0  0  0  0  0  0  0  0  0  0  0  0
    2.7320    0.0180    1.1020 O   0  0  0  0  0  0  0  0  0  0  0  0
    3.9420   -0.7580   -0.6770 N   0  0  0  0  0  0  0  0  0  0  0  0
    5.2200   -0.7320   -0.1070 C   0  0  0  0  0  0  0  0  0  0  0  0
    5.4850   -0.5010    1.2190 C   0  0  0  0  0  0  0  0  0  0  0  0
    6.8150   -0.4910    1.6370 C   0  0  0  0  0  0  0  0  0  0  0  0
    7.8560   -0.6950    0.8180 N   0  0  0  0  0  0  0  0  0  0  0  0
    7.6290   -0.9230   -0.4830 C   0  0  0  0  0  0  0  0  0  0  0  0
    8.7400   -1.1400   -1.3580 N   0  0  0  0  0  0  0  0  0  0  0  0
    6.3420   -0.9410   -0.9340 C   0  0  0  0  0  0  0  0  0  0  0  0
  2  1  1  6
  2  3  1  0
  2  4  1  0
  2 19  1  0
  4  5  1  0
  5  6  1  0
  6  7  2  0
  6 18  1  0
  7  8  1  0
  8  9  2  0
  8 16  1  0
  9 10  1  0
 10 11  1  0
 10 14  2  0
 11 12  2  0
 11 13  1  0
 14 15  1  0
 15 16  2  0
 16 17  1  0
 17 18  1  0
 19 20  1  0
 20 21  2  0
 20 22  1  0
 22 23  1  0
 23 24  2  0
 23 29  1  0
 24 25  1  0
 25 26  2  0
 26 27  1  0
 27 28  1  0
 27 29  2  0
M  CHG  1  26   1
M  END
