
     RDKit          3D

 29 33  0  0  0  0  0  0  0  0999 V2000
   -2.2470    4.4340   -0.0990 C   0  0  0  0  0  0  0  0  0  0  0  0
   -1.5970    3.8450    1.1020 C   0  0  0  0  0  0  0  0  0  0  0  0
   -1.5940    4.5190    2.1120 O   0  0  0  0  0  0  0  0  0  0  0  0
   -0.8800    2.2300    0.9960 S   0  0  0  0  0  0  0  0  0  0  0  0
   -1.0840    1.4830   -0.6290 C   0  0  2  0  0  0  0  0  0  0  0  0
   -2.5070    1.1610   -0.9550 C   0  0  0  0  0  0  0  0  0  0  0  0
   -3.0000   -0.0770   -0.3260 C   0  0  0  0  0  0  0  0  0  0  0  0
   -4.3270   -0.2370   -0.2880 C   0  0  0  0  0  0  0  0  0  0  0  0
   -4.9380   -1.4100    0.3040 C   0  0  0  0  0  0  0  0  0  0  0  0
   -6.0920   -1.7810    0.0100 O   0  0  0  0  0  0  0  0  0  0  0  0
   -4.1740   -2.1960    1.2870 C   0  0  0  0  0  0  0  0  0  0  0  0
   -2.8000   -1.6180    1.5400 C   0  0  0  0  0  0  0  0  0  0  0  0
   -2.1490   -1.1420    0.2580 C   0  0  1  0  0  0  0  0  0  0  0  0
   -2.1430   -2.2910   -0.7270 C   0  0  0  0  0  0  0  0  0  0  0  0
   -0.7830   -0.6190    0.5460 C   0  0  1  0  0  0  0  0  0  0  0  0
    0.1230   -1.7270    0.9410 C   0  0  0  0  0  0  0  0  0  0  0  0
    1.5750   -1.3180    1.0760 C   0  0  0  0  0  0  0  0  0  0  0  0
    1.9910   -0.7360   -0.2280 C   0  0  1  0  0  0  0  0  0  0  0  0
    1.8760   -1.7380   -1.3210 C   0  0  0  0  0  0  0  0  0  0  0  0
    1.1230    0.4900   -0.4420 C   0  0  1  0  0  0  0  0  0  0  0  0
    1.8340    1.2020   -1.5210 C   0  0  0  0  0  0  0  0  0  0  0  0
    3.2650    1.1700   -1.0180 C   0  0  0  0  0  0  0  0  0  0  0  0
    3.3560   -0.1310   -0.2490 C   0  0  1  0  0  0  0  0  0  0  0  0
    3.9540    0.0610    1.1210 C   0  0  0  0  0  0  0  0  0  0  0  0
    5.4090    0.3660    0.7510 C   0  0  0  0  0  0  0  0  0  0  0  0
    5.5760   -0.4830   -0.4570 C   0  0  0  0  0  0  0  0  0  0  0  0
    6.6630   -0.7530   -1.0060 O   0  0  0  0  0  0  0  0  0  0  0  0
    4.3280   -0.9360   -0.8900 O   0  0  0  0  0  0  0  0  0  0  0  0
   -0.2990    0.1750   -0.6520 C   0  0  2  0  0  0  0  0  0  0  0  0
  1  2  1  0
  2  3  2  0
  2  4  1  0
  5  4  1  1
  5  6  1  0
 29  5  1  1
  6  7  1  0
  7  8  2  0
  7 13  1  0
  8  9  1  0
  9 10  2  0
  9 11  1  0
 11 12  1  0
 12 13  1  0
 13 14  1  6
 13 15  1  0
 15 16  1  6
 15 29  1  0
 16 17  1  0
 17 18  1  0
 18 19  1  6
 18 20  1  0
 18 23  1  0
 20 21  1  6
 20 29  1  0
 21 22  1  0
 23 22  1  6
 23 24  1  0
 23 28  1  0
 24 25  1  0
 25 26  1  0
 26 27  2  0
 26 28  1  0
M  END
