
     RDKit          3D

 30 32  0  0  0  0  0  0  0  0999 V2000
    5.4230   -3.5150   -0.0840 C   0  0  0  0  0  0  0  0  0  0  0  0
    4.9130   -2.1000   -0.1830 C   0  0  0  0  0  0  0  0  0  0  0  0
    3.7420   -1.8160    0.3360 C   0  0  0  0  0  0  0  0  0  0  0  0
    2.9970   -2.8040    0.9590 O   0  0  0  0  0  0  0  0  0  0  0  0
    3.2470   -0.4390    0.2390 C   0  0  0  0  0  0  0  0  0  0  0  0
    2.0100   -0.1560    0.7900 O   0  0  0  0  0  0  0  0  0  0  0  0
    0.8570   -0.3370   -0.0030 C   0  0  0  0  0  0  0  0  0  0  0  0
   -0.3860    0.0180    0.7710 C   0  0  1  0  0  0  0  0  0  0  0  0
   -0.4880   -0.6990    2.0750 C   0  0  0  0  0  0  0  0  0  0  0  0
   -0.4860    1.5270    1.0240 C   0  0  0  0  0  0  0  0  0  0  0  0
   -1.9240    1.6830    1.2650 C   0  0  0  0  0  0  0  0  0  0  0  0
   -2.5420    2.5960    1.7180 O   0  0  0  0  0  0  0  0  0  0  0  0
   -2.5610    0.3760    0.8060 C   0  0  1  0  0  0  0  0  0  0  0  0
   -3.6800    0.6200    0.1840 O   0  0  0  0  0  0  0  0  0  0  0  0
   -4.9280    0.3170   -0.0590 C   0  0  0  0  0  0  0  0  0  0  0  0
   -5.6690    1.2050   -0.9120 C   0  0  0  0  0  0  0  0  0  0  0  0
   -6.9660    1.0080   -1.2430 C   0  0  0  0  0  0  0  0  0  0  0  0
   -7.5980    1.9330   -2.0810 O   0  0  0  0  0  0  0  0  0  0  0  0
   -7.6670   -0.0760   -0.7730 C   0  0  0  0  0  0  0  0  0  0  0  0
   -7.0160   -0.9500    0.0380 C   0  0  0  0  0  0  0  0  0  0  0  0
   -5.6610   -0.7580    0.3910 C   0  0  0  0  0  0  0  0  0  0  0  0
   -5.0890   -1.7000    1.2120 O   0  0  0  0  0  0  0  0  0  0  0  0
   -1.5210   -0.1650   -0.0200 O   0  0  0  0  0  0  0  0  0  0  0  0
    3.9440    0.5150   -0.3510 C   0  0  0  0  0  0  0  0  0  0  0  0
    3.3960    1.8830   -0.4190 C   0  0  0  0  0  0  0  0  0  0  0  0
    4.2080    2.8150    0.2230 O   0  0  0  0  0  0  0  0  0  0  0  0
    5.2330    0.1950   -0.9230 C   0  0  0  0  0  0  0  0  0  0  0  0
    6.0230    1.0370   -1.5400 C   0  0  0  0  0  0  0  0  0  0  0  0
    5.7190    2.3690   -1.7290 O   0  0  0  0  0  0  0  0  0  0  0  0
    5.6710   -1.1270   -0.8110 O   0  0  0  0  0  0  0  0  0  0  0  0
  1  2  1  0
  2  3  2  0
  2 30  1  0
  3  4  1  0
  3  5  1  0
  5  6  1  0
  5 24  2  0
  6  7  1  0
  7  8  1  0
  8  9  1  1
  8 10  1  0
  8 23  1  0
 10 11  1  0
 11 12  2  0
 11 13  1  0
 13 14  1  6
 13 23  1  0
 14 15  1  0
 15 16  2  0
 15 21  1  0
 16 17  1  0
 17 18  1  0
 17 19  2  0
 19 20  1  0
 20 21  2  0
 21 22  1  0
 24 25  1  0
 24 27  1  0
 25 26  1  0
 27 28  2  3
 27 30  1  0
 28 29  1  0
M  END
