
     RDKit          3D

 30 32  0  0  0  0  0  0  0  0999 V2000
    0.8920    0.2110    0.1000 C   0  0  0  0  0  0  0  0  0  0  0  0
    0.4520   -1.1470    0.4710 C   0  0  1  0  0  0  0  0  0  0  0  0
    1.2690   -1.9680    1.3830 C   0  0  0  0  0  0  0  0  0  0  0  0
    2.6260   -2.4030    1.0490 C   0  0  0  0  0  0  0  0  0  0  0  0
    3.6750   -1.4090    0.8070 C   0  0  0  0  0  0  0  0  0  0  0  0
    3.5490   -0.5460   -0.2780 O   0  0  0  0  0  0  0  0  0  0  0  0
    4.5330    0.3890   -0.5290 C   0  0  0  0  0  0  0  0  0  0  0  0
    5.2430    0.3270   -1.6380 C   0  0  0  0  0  0  0  0  0  0  0  0
    6.2970    1.3240   -1.9130 C   0  0  2  0  0  0  0  0  0  0  0  0
    7.4860    0.6210   -2.1580 O   0  0  0  0  0  0  0  0  0  0  0  0
    6.4580    2.2910   -0.9310 O   0  0  0  0  0  0  0  0  0  0  0  0
    5.7270    2.3580    0.2160 C   0  0  0  0  0  0  0  0  0  0  0  0
    4.7840    1.4470    0.4380 C   0  0  0  0  0  0  0  0  0  0  0  0
    4.0360    1.5030    1.5940 O   0  0  0  0  0  0  0  0  0  0  0  0
   -1.0160   -1.0820    0.9690 C   0  0  0  0  0  0  0  0  0  0  0  0
   -1.7350   -0.9800   -0.3650 C   0  0  0  0  0  0  0  0  0  0  0  0
   -3.0640   -0.3850   -0.5050 C   0  0  0  0  0  0  0  0  0  0  0  0
   -3.6670    0.0790    0.5780 C   0  0  0  0  0  0  0  0  0  0  0  0
   -4.9870    0.6800    0.4970 C   0  0  0  0  0  0  0  0  0  0  0  0
   -5.6000    1.1480    1.5830 C   0  0  0  0  0  0  0  0  0  0  0  0
   -6.9310    1.7570    1.5190 C   0  0  2  0  0  0  0  0  0  0  0  0
   -7.0840    2.5520    0.3790 O   0  0  0  0  0  0  0  0  0  0  0  0
   -7.1020    2.5830    2.6200 O   0  0  0  0  0  0  0  0  0  0  0  0
   -5.5980    0.7550   -0.7480 O   0  0  0  0  0  0  0  0  0  0  0  0
   -5.1160   -0.0480   -1.8180 C   0  0  0  0  0  0  0  0  0  0  0  0
   -3.7180   -0.2780   -1.6870 O   0  0  0  0  0  0  0  0  0  0  0  0
   -0.9410   -1.5030   -1.2690 C   0  0  0  0  0  0  0  0  0  0  0  0
   -1.2590   -1.6090   -2.7380 C   0  0  0  0  0  0  0  0  0  0  0  0
   -0.3330   -0.9230   -3.5160 O   0  0  0  0  0  0  0  0  0  0  0  0
    0.2710   -1.9690   -0.7200 O   0  0  0  0  0  0  0  0  0  0  0  0
  2  1  1  6
  2  3  1  0
  2 15  1  0
  2 30  1  0
  3  4  1  0
  4  5  1  0
  5  6  1  0
  6  7  1  0
  7  8  2  0
  7 13  1  0
  8  9  1  0
  9 10  1  1
  9 11  1  0
 11 12  1  0
 12 13  2  0
 13 14  1  0
 15 16  1  0
 16 17  1  0
 16 27  2  0
 17 18  2  0
 17 26  1  0
 18 19  1  0
 19 20  2  3
 19 24  1  0
 20 21  1  0
 21 22  1  6
 21 23  1  0
 24 25  1  0
 25 26  1  0
 27 28  1  0
 27 30  1  0
 28 29  1  0
M  END
