
     RDKit          3D

 30 31  0  0  0  0  0  0  0  0999 V2000
   -3.4170   -1.7360   -1.4660 C   0  0  0  0  0  0  0  0  0  0  0  0
   -3.4370   -1.4680    0.0290 C   0  0  0  0  0  0  0  0  0  0  0  0
   -2.9980   -0.1040    0.3810 C   0  0  0  0  0  0  0  0  0  0  0  0
   -3.9400    0.9010    0.2850 C   0  0  0  0  0  0  0  0  0  0  0  0
   -5.3400    0.6590   -0.1300 C   0  0  0  0  0  0  0  0  0  0  0  0
   -6.0430    1.8740   -0.1430 O   0  0  0  0  0  0  0  0  0  0  0  0
   -3.5760    2.1790    0.5910 C   0  0  0  0  0  0  0  0  0  0  0  0
   -4.5030    3.2170    0.4990 O   0  0  0  0  0  0  0  0  0  0  0  0
   -2.2850    2.4820    0.9990 C   0  0  0  0  0  0  0  0  0  0  0  0
   -1.9610    3.8000    1.3020 O   0  0  0  0  0  0  0  0  0  0  0  0
   -1.3570    1.4750    1.0940 C   0  0  0  0  0  0  0  0  0  0  0  0
   -0.0640    1.8350    1.5580 O   0  0  0  0  0  0  0  0  0  0  0  0
   -1.6540    0.1720    0.7910 C   0  0  0  0  0  0  0  0  0  0  0  0
   -0.6660   -0.8350    0.5770 C   0  0  0  0  0  0  0  0  0  0  0  0
   -1.2090   -2.0660    0.5860 O   0  0  0  0  0  0  0  0  0  0  0  0
    0.7330   -0.9870    0.3520 C   0  0  0  0  0  0  0  0  0  0  0  0
    1.4890   -0.0240   -0.0840 C   0  0  0  0  0  0  0  0  0  0  0  0
    0.8870    1.2170   -0.3690 O   0  0  0  0  0  0  0  0  0  0  0  0
    2.9480    0.0540   -0.3670 C   0  0  0  0  0  0  0  0  0  0  0  0
    3.3760    1.3320   -0.6700 O   0  0  0  0  0  0  0  0  0  0  0  0
    4.6400    1.7690   -1.0120 C   0  0  0  0  0  0  0  0  0  0  0  0
    4.6170    3.2860   -1.2590 C   0  0  0  0  0  0  0  0  0  0  0  0
    4.1920    3.8630   -0.0550 O   0  0  0  0  0  0  0  0  0  0  0  0
    3.8230   -0.9170   -0.3590 C   0  0  0  0  0  0  0  0  0  0  0  0
    5.1280   -0.6270   -0.6530 O   0  0  0  0  0  0  0  0  0  0  0  0
    3.5060   -2.3670   -0.0410 C   0  0  0  0  0  0  0  0  0  0  0  0
    2.6100   -2.3710    1.0210 O   0  0  0  0  0  0  0  0  0  0  0  0
    1.3010   -2.3710    0.6940 C   0  0  1  0  0  0  0  0  0  0  0  0
    0.5810   -2.9460    1.9060 C   0  0  0  0  0  0  0  0  0  0  0  0
    1.0670   -3.3110   -0.4830 C   0  0  0  0  0  0  0  0  0  0  0  0
  1  2  1  0
  2  3  1  0
  3  4  2  0
  3 13  1  0
  4  5  1  0
  4  7  1  0
  5  6  1  0
  7  8  1  0
  7  9  2  0
  9 10  1  0
  9 11  1  0
 11 12  1  0
 11 13  2  0
 13 14  1  0
 14 15  2  0
 14 16  1  0
 16 17  2  0
 16 28  1  0
 17 18  1  0
 17 19  1  0
 19 20  1  0
 19 24  2  0
 20 21  1  0
 21 22  1  0
 22 23  1  0
 24 25  1  0
 24 26  1  0
 26 27  1  0
 27 28  1  0
 28 29  1  1
 28 30  1  0
M  END
