
     RDKit          3D

 29 30  0  0  0  0  0  0  0  0999 V2000
   -3.6520    3.9680    0.8360 C   0  0  0  0  0  0  0  0  0  0  0  0
   -3.9900    2.5810    1.4070 C   0  0  2  0  0  0  0  0  0  0  0  0
   -3.8850    2.7330    2.9130 C   0  0  0  0  0  0  0  0  0  0  0  0
   -4.8500    3.6260    3.3740 O   0  0  0  0  0  0  0  0  0  0  0  0
   -3.0590    1.7080    0.8870 O   0  0  0  0  0  0  0  0  0  0  0  0
   -3.2590    0.5910    0.0970 C   0  0  0  0  0  0  0  0  0  0  0  0
   -4.5130    0.1910   -0.2930 C   0  0  0  0  0  0  0  0  0  0  0  0
   -4.6460   -0.9270   -1.0780 C   0  0  0  0  0  0  0  0  0  0  0  0
   -3.5680   -1.6620   -1.4890 C   0  0  0  0  0  0  0  0  0  0  0  0
   -3.7580   -2.8110   -2.3000 N   0  0  0  0  0  0  0  0  0  0  0  0
   -3.9480   -4.1090   -1.6960 C   0  0  0  0  0  0  0  0  0  0  0  0
   -3.7570   -2.6630   -3.7280 C   0  0  0  0  0  0  0  0  0  0  0  0
   -2.3080   -1.2430   -1.0850 C   0  0  0  0  0  0  0  0  0  0  0  0
   -2.1350   -0.1340   -0.3020 C   0  0  0  0  0  0  0  0  0  0  0  0
   -0.8620    0.3320    0.1360 N   0  0  0  0  0  0  0  0  0  0  0  0
    0.3840   -0.2520   -0.1550 C   0  0  0  0  0  0  0  0  0  0  0  0
    0.4960   -1.2720   -0.8500 O   0  0  0  0  0  0  0  0  0  0  0  0
    1.6010    0.3490    0.3710 C   0  0  0  0  0  0  0  0  0  0  0  0
    1.5040    1.3750    1.0710 O   0  0  0  0  0  0  0  0  0  0  0  0
    2.8850   -0.1760    0.1250 N   0  0  0  0  0  0  0  0  0  0  0  0
    4.1260    0.3140    0.5760 C   0  0  0  0  0  0  0  0  0  0  0  0
    4.3500    1.4100    1.3600 C   0  0  0  0  0  0  0  0  0  0  0  0
    5.6010    1.8470    1.7770 C   0  0  0  0  0  0  0  0  0  0  0  0
    6.6950    1.1200    1.3700 C   0  0  0  0  0  0  0  0  0  0  0  0
    7.9550    1.5520    1.7840 O   0  0  0  0  0  0  0  0  0  0  0  0
    6.5380   -0.0020    0.5730 C   0  0  0  0  0  0  0  0  0  0  0  0
    5.2750   -0.3900    0.1890 C   0  0  0  0  0  0  0  0  0  0  0  0
    5.1520   -1.5880   -0.6590 C   0  0  0  0  0  0  0  0  0  0  0  0
    6.4530   -2.1710   -0.9460 N   0  0  0  0  0  0  0  0  0  0  0  0
  2  1  1  6
  2  3  1  0
  2  5  1  0
  3  4  1  0
  5  6  1  0
  6  7  2  0
  6 14  1  0
  7  8  1  0
  8  9  2  0
  9 10  1  0
  9 13  1  0
 10 11  1  0
 10 12  1  0
 13 14  2  0
 14 15  1  0
 15 16  1  0
 16 17  2  0
 16 18  1  0
 18 19  2  0
 18 20  1  0
 20 21  1  0
 21 22  2  0
 21 27  1  0
 22 23  1  0
 23 24  2  0
 24 25  1  0
 24 26  1  0
 26 27  2  0
 27 28  1  0
 28 29  1  0
M  CHG  1  29   1
M  END
