
     RDKit          3D

 28 30  0  0  0  0  0  0  0  0999 V2000
    5.8660    3.6770    0.3290 C   0  0  0  0  0  0  0  0  0  0  0  0
    5.9580    2.2970    0.0310 O   0  0  0  0  0  0  0  0  0  0  0  0
    4.7780    1.5640   -0.0680 C   0  0  0  0  0  0  0  0  0  0  0  0
    3.5510    2.1570    0.1170 C   0  0  0  0  0  0  0  0  0  0  0  0
    2.3450    1.4450    0.0240 C   0  0  0  0  0  0  0  0  0  0  0  0
    2.3330    0.1050   -0.2600 C   0  0  0  0  0  0  0  0  0  0  0  0
    1.1780   -0.7020   -0.3670 N   0  0  0  0  0  0  0  0  0  0  0  0
   -0.1460   -0.3290   -0.0860 C   0  0  0  0  0  0  0  0  0  0  0  0
   -0.3900    0.8150    0.3020 O   0  0  0  0  0  0  0  0  0  0  0  0
   -1.2560   -1.3060   -0.2540 C   0  0  0  0  0  0  0  0  0  0  0  0
   -1.1220   -2.5600   -0.6620 C   0  0  0  0  0  0  0  0  0  0  0  0
   -2.3900   -3.2500   -0.7200 C   0  0  0  0  0  0  0  0  0  0  0  0
   -2.5950   -4.4390   -1.0670 O   0  0  0  0  0  0  0  0  0  0  0  0
   -3.3690   -2.3110   -0.3060 N   0  0  0  0  0  0  0  0  0  0  0  0
   -2.6800   -1.0810   -0.0060 C   0  0  0  0  0  0  0  0  0  0  0  0
   -3.2170    0.0610    0.3750 C   0  0  0  0  0  0  0  0  0  0  0  0
   -4.6620    0.1610    0.5970 C   0  0  0  0  0  0  0  0  0  0  0  0
   -5.4180    1.0770   -0.1450 C   0  0  0  0  0  0  0  0  0  0  0  0
   -6.7660    1.2360    0.0240 C   0  0  0  0  0  0  0  0  0  0  0  0
   -7.5010    2.1570   -0.7270 O   0  0  0  0  0  0  0  0  0  0  0  0
   -7.3910    0.4540    0.9690 C   0  0  0  0  0  0  0  0  0  0  0  0
   -6.6610   -0.4450    1.7020 C   0  0  0  0  0  0  0  0  0  0  0  0
   -5.2770   -0.6200    1.5410 C   0  0  0  0  0  0  0  0  0  0  0  0
   -4.6150   -1.5420    2.3280 O   0  0  0  0  0  0  0  0  0  0  0  0
    3.5940   -0.4770   -0.4450 C   0  0  0  0  0  0  0  0  0  0  0  0
    4.7720    0.2190   -0.3540 C   0  0  0  0  0  0  0  0  0  0  0  0
    6.0700   -0.4700   -0.5640 C   0  0  0  0  0  0  0  0  0  0  0  0
    5.9140   -1.8630   -0.8530 N   0  0  0  0  0  0  0  0  0  0  0  0
  1  2  1  0
  2  3  1  0
  3  4  2  0
  3 26  1  0
  4  5  1  0
  5  6  2  0
  6  7  1  0
  6 25  1  0
  7  8  1  0
  8  9  2  0
  8 10  1  0
 10 11  2  0
 10 15  1  0
 11 12  1  0
 12 13  2  0
 12 14  1  0
 14 15  1  0
 15 16  2  3
 16 17  1  0
 17 18  2  0
 17 23  1  0
 18 19  1  0
 19 20  1  0
 19 21  2  0
 21 22  1  0
 22 23  2  0
 23 24  1  0
 25 26  2  0
 26 27  1  0
 27 28  1  0
M  CHG  1  28   1
M  END
