
     RDKit          3D

 30 30  0  0  0  0  0  0  0  0999 V2000
    6.0170    2.6030   -0.1120 C   0  0  0  0  0  0  0  0  0  0  0  0
    4.6280    2.3510   -0.3090 O   0  0  0  0  0  0  0  0  0  0  0  0
    3.6740    2.7220    0.6200 C   0  0  0  0  0  0  0  0  0  0  0  0
    2.6670    1.8660    0.8230 C   0  0  0  0  0  0  0  0  0  0  0  0
    1.7500    2.2820    1.7540 O   0  0  0  0  0  0  0  0  0  0  0  0
    2.5780    0.6370    0.1100 C   0  0  0  0  0  0  0  0  0  0  0  0
    1.6590   -0.3440    0.2070 C   0  0  0  0  0  0  0  0  0  0  0  0
    1.7070   -1.4930   -0.5910 O   0  0  0  0  0  0  0  0  0  0  0  0
    1.0500   -1.8400   -1.7590 C   0  0  0  0  0  0  0  0  0  0  0  0
    0.6180   -3.2720   -1.8740 C   0  0  0  0  0  0  0  0  0  0  0  0
   -0.0410   -3.3670   -3.1190 O   0  0  0  0  0  0  0  0  0  0  0  0
   -1.3270   -2.9260   -2.9320 C   0  0  0  0  0  0  0  0  0  0  0  0
   -1.8780   -3.5650   -1.7010 C   0  0  0  0  0  0  0  0  0  0  0  0
   -2.1900   -2.8360   -0.5760 C   0  0  0  0  0  0  0  0  0  0  0  0
   -2.7100   -3.6870    0.4840 C   0  0  0  0  0  0  0  0  0  0  0  0
   -3.1070   -3.3230    1.6820 C   0  0  0  0  0  0  0  0  0  0  0  0
   -3.5820   -4.1850    2.6180 O   0  0  0  0  0  0  0  0  0  0  0  0
   -1.9500   -1.5460   -0.7150 O   0  0  0  0  0  0  0  0  0  0  0  0
   -1.6160   -0.3550   -0.1130 C   0  0  0  0  0  0  0  0  0  0  0  0
   -2.1810    0.7280   -0.6390 C   0  0  0  0  0  0  0  0  0  0  0  0
   -1.9590    2.0550   -0.1410 C   0  0  0  0  0  0  0  0  0  0  0  0
   -1.1300    2.2210    0.9430 O   0  0  0  0  0  0  0  0  0  0  0  0
   -2.5530    3.0770   -0.7290 C   0  0  0  0  0  0  0  0  0  0  0  0
   -2.3130    4.4380   -0.2010 C   0  0  0  0  0  0  0  0  0  0  0  0
   -1.7450    5.1830   -1.2350 O   0  0  0  0  0  0  0  0  0  0  0  0
   -0.7240   -0.2230    1.0200 C   0  0  0  0  0  0  0  0  0  0  0  0
    0.5850   -0.2210    1.1810 C   0  0  0  0  0  0  0  0  0  0  0  0
    1.0400   -0.1530    2.6080 C   0  0  0  0  0  0  0  0  0  0  0  0
    2.2400   -0.1820    2.9220 O   0  0  0  0  0  0  0  0  0  0  0  0
    0.1490   -0.0520    3.6660 O   0  0  0  0  0  0  0  0  0  0  0  0
  1  2  1  0
  2  3  1  0
  3  4  2  3
  4  5  1  0
  4  6  1  0
  6  7  2  3
  7  8  1  0
  7 27  1  0
  8  9  1  0
  9 10  1  0
 10 11  1  0
 11 12  1  0
 12 13  1  0
 13 14  2  0
 14 15  1  0
 14 18  1  0
 15 16  2  3
 16 17  1  0
 18 19  1  0
 19 20  2  3
 19 26  1  0
 20 21  1  0
 21 22  1  0
 21 23  2  3
 23 24  1  0
 24 25  1  0
 26 27  2  0
 27 28  1  0
 28 29  2  0
 28 30  1  0
M  END
