
     RDKit          3D

 28 30  0  0  0  0  0  0  0  0999 V2000
    0.6990   -0.4280   -4.2670 C   0  0  0  0  0  0  0  0  0  0  0  0
    0.5670   -0.1910   -2.8050 C   0  0  0  0  0  0  0  0  0  0  0  0
   -0.6170    0.2030   -2.2310 C   0  0  0  0  0  0  0  0  0  0  0  0
   -0.7510    0.4250   -0.8820 C   0  0  0  0  0  0  0  0  0  0  0  0
   -1.9410    0.8220   -0.2930 O   0  0  0  0  0  0  0  0  0  0  0  0
   -2.8380   -0.1450    0.1600 C   0  0  0  0  0  0  0  0  0  0  0  0
   -2.5010   -1.3580   -0.0010 O   0  0  0  0  0  0  0  0  0  0  0  0
   -4.0960    0.1860    0.7830 C   0  0  0  0  0  0  0  0  0  0  0  0
   -4.4650    1.4980    0.9580 C   0  0  0  0  0  0  0  0  0  0  0  0
   -3.6140    2.6370    0.5280 C   0  0  0  0  0  0  0  0  0  0  0  0
   -5.6810    1.7390    1.5610 C   0  0  0  0  0  0  0  0  0  0  0  0
   -6.4710    0.6800    1.9600 C   0  0  0  0  0  0  0  0  0  0  0  0
   -7.5800    0.9230    2.5100 O   0  0  0  0  0  0  0  0  0  0  0  0
   -6.1020   -0.5990    1.7850 N   0  0  0  0  0  0  0  0  0  0  0  0
   -4.9200   -0.8640    1.1990 C   0  0  0  0  0  0  0  0  0  0  0  0
   -4.5550   -2.2270    1.0260 N   0  0  0  0  0  0  0  0  0  0  0  0
    0.3790    0.2370   -0.0780 C   0  0  0  0  0  0  0  0  0  0  0  0
    1.5990   -0.1590   -0.5940 C   0  0  0  0  0  0  0  0  0  0  0  0
    2.7700   -0.3800    0.2310 C   0  0  0  0  0  0  0  0  0  0  0  0
    3.8950   -0.7170   -0.2950 N   0  0  0  0  0  0  0  0  0  0  0  0
    5.2200   -1.0090    0.1880 C   0  0  0  0  0  0  0  0  0  0  0  0
    5.3910   -0.6740    1.6500 C   0  0  0  0  0  0  0  0  0  0  0  0
    4.8790    0.6690    2.0380 C   0  0  0  0  0  0  0  0  0  0  0  0
    3.4910    0.4790    2.6650 C   0  0  0  0  0  0  0  0  0  0  0  0
    2.6120   -0.2280    1.6830 C   0  0  0  0  0  0  0  0  0  0  0  0
    1.5760   -0.7860    2.1490 O   0  0  0  0  0  0  0  0  0  0  0  0
    1.6740   -0.3660   -1.9480 C   0  0  0  0  0  0  0  0  0  0  0  0
    2.8970   -0.7750   -2.5580 N   0  0  0  0  0  0  0  0  0  0  0  0
  1  2  1  0
  2  3  2  0
  2 27  1  0
  3  4  1  0
  4  5  1  0
  4 17  2  0
  5  6  1  0
  6  7  2  0
  6  8  1  0
  8  9  1  0
  8 15  2  0
  9 10  1  0
  9 11  2  0
 11 12  1  0
 12 13  2  0
 12 14  1  0
 14 15  1  0
 15 16  1  0
 17 18  1  0
 18 19  1  0
 18 27  2  0
 19 20  2  0
 19 25  1  0
 20 21  1  0
 21 22  1  0
 22 23  1  0
 23 24  1  0
 24 25  1  0
 25 26  2  0
 27 28  1  0
M  CHG  1  28   1
M  END
