
     RDKit          3D

 29 30  0  0  0  0  0  0  0  0999 V2000
    6.1550    1.2360    1.6830 C   0  0  0  0  0  0  0  0  0  0  0  0
    6.7880    0.5710    0.7440 C   0  0  0  0  0  0  0  0  0  0  0  0
    8.1540    0.7270    0.6480 O   0  0  0  0  0  0  0  0  0  0  0  0
    6.0650   -0.2970   -0.1610 C   0  0  0  0  0  0  0  0  0  0  0  0
    6.7290   -0.9650   -1.0860 C   0  0  0  0  0  0  0  0  0  0  0  0
    8.1980   -0.8950   -1.2770 C   0  0  0  0  0  0  0  0  0  0  0  0
    4.6560   -0.4410   -0.0620 N   0  0  0  0  0  0  0  0  0  0  0  0
    3.8060    0.6940   -0.3270 C   0  0  0  0  0  0  0  0  0  0  0  0
    4.3000    1.8180   -0.6560 O   0  0  0  0  0  0  0  0  0  0  0  0
    2.4050    0.5990   -0.2330 N   0  0  0  0  0  0  0  0  0  0  0  0
    1.5630    1.7320   -0.4970 C   0  0  0  0  0  0  0  0  0  0  0  0
    0.4870    1.7840    0.5610 C   0  0  0  0  0  0  0  0  0  0  0  0
   -0.3370    0.5180    0.6410 C   0  0  1  0  0  0  0  0  0  0  0  0
   -0.3990    0.1520    2.1300 C   0  0  0  0  0  0  0  0  0  0  0  0
   -1.2100   -0.9250    2.3720 O   0  0  0  0  0  0  0  0  0  0  0  0
   -1.6620    0.8490    0.1540 N   0  0  0  0  0  0  0  0  0  0  0  0
   -2.4130   -0.2870   -0.2680 C   0  0  0  0  0  0  0  0  0  0  0  0
   -3.8950    0.0740   -0.2310 C   0  0  0  0  0  0  0  0  0  0  0  0
   -4.2410    1.2140    0.1310 O   0  0  0  0  0  0  0  0  0  0  0  0
   -4.8530   -0.8880   -0.6060 N   0  0  0  0  0  0  0  0  0  0  0  0
   -6.2500   -0.6800   -0.6150 C   0  0  0  0  0  0  0  0  0  0  0  0
   -6.9110    0.4690   -0.2710 C   0  0  0  0  0  0  0  0  0  0  0  0
   -8.2860    0.6290   -0.2950 C   0  0  0  0  0  0  0  0  0  0  0  0
   -9.0680   -0.4130   -0.6870 C   0  0  0  0  0  0  0  0  0  0  0  0
   -8.4650   -1.5980   -1.0470 C   0  0  0  0  0  0  0  0  0  0  0  0
   -7.0850   -1.7420   -1.0160 C   0  0  0  0  0  0  0  0  0  0  0  0
   -6.5940   -2.9570   -1.3930 O   0  0  0  0  0  0  0  0  0  0  0  0
    0.3270   -0.5470   -0.1630 C   0  0  0  0  0  0  0  0  0  0  0  0
    1.8030   -0.6560    0.1350 C   0  0  0  0  0  0  0  0  0  0  0  0
  1  2  2  0
  2  3  1  0
  2  4  1  0
  4  5  2  3
  4  7  1  0
  5  6  1  0
  7  8  1  0
  8  9  2  0
  8 10  1  0
 10 11  1  0
 10 29  1  0
 11 12  1  0
 12 13  1  0
 13 14  1  1
 13 16  1  0
 13 28  1  0
 14 15  1  0
 16 17  1  0
 17 18  1  0
 18 19  2  0
 18 20  1  0
 20 21  1  0
 21 22  2  0
 21 26  1  0
 22 23  1  0
 23 24  2  0
 24 25  1  0
 25 26  2  0
 26 27  1  0
 28 29  1  0
M  CHG  1  16   1
M  END
