
     RDKit          3D

 31 31  0  0  0  0  0  0  0  0999 V2000
    0.8030   -3.4920    0.1730 N   0  0  0  0  0  0  0  0  0  0  0  0
    0.7440   -2.4410   -0.7570 C   0  0  0  0  0  0  0  0  0  0  0  0
    1.0720   -2.5890   -1.9700 O   0  0  0  0  0  0  0  0  0  0  0  0
    0.3250   -1.1490   -0.4540 O   0  0  0  0  0  0  0  0  0  0  0  0
    0.2610   -0.0890   -1.3770 C   0  0  1  0  0  0  0  0  0  0  0  0
   -1.0690    0.4400   -1.6610 C   0  0  1  0  0  0  0  0  0  0  0  0
   -1.8140    1.0230   -0.5690 N   0  0  0  0  0  0  0  0  0  0  0  0
   -3.1940    0.7010   -0.4500 C   0  0  0  0  0  0  0  0  0  0  0  0
   -3.7530   -0.0870   -1.2920 O   0  0  0  0  0  0  0  0  0  0  0  0
   -4.0630    1.1930    0.5600 N   0  0  0  0  0  0  0  0  0  0  0  0
   -5.8170    0.7300    0.5930 P   0  0  0  0  0  0  0  0  0  0  0  0
   -6.2590   -0.1410   -0.8240 O   0  0  0  0  0  0  0  0  0  0  0  0
   -7.2960    0.7790   -1.8680 P   0  0  0  0  0  0  0  0  0  0  0  0
   -7.5740    0.1920   -3.2890 O   0  0  0  0  0  0  0  0  0  0  0  0
   -6.1740   -0.5630    2.3360 P   0  0  0  0  0  0  0  0  0  0  0  0
   -5.1470   -0.1810    3.6650 O   0  0  0  0  0  0  0  0  0  0  0  0
   -7.8500   -0.5360    2.7980 O   0  0  0  0  0  0  0  0  0  0  0  0
   -1.0230    1.4920   -2.7420 C   0  0  0  0  0  0  0  0  0  0  0  0
    0.2660    1.9220   -3.0970 O   0  0  0  0  0  0  0  0  0  0  0  0
    1.3920    1.7620   -2.3620 C   0  0  0  0  0  0  0  0  0  0  0  0
    2.8020    2.4110   -2.8200 S   0  0  0  0  0  0  0  0  0  0  0  0
    1.3130    0.9670   -1.1050 C   0  0  2  0  0  0  0  0  0  0  0  0
    2.5200    0.2550   -0.8860 O   0  0  0  0  0  0  0  0  0  0  0  0
    3.3040    0.3640    0.2370 C   0  0  0  0  0  0  0  0  0  0  0  0
    2.9560    1.1500    1.1600 O   0  0  0  0  0  0  0  0  0  0  0  0
    4.5020   -0.3620    0.4310 N   0  0  0  0  0  0  0  0  0  0  0  0
    5.3050   -0.2230    1.6230 C   0  0  2  0  0  0  0  0  0  0  0  0
    6.6110    0.2810    1.2080 N   0  0  0  0  0  0  0  0  0  0  0  0
    5.4580   -1.5280    2.3160 C   0  0  0  0  0  0  0  0  0  0  0  0
    4.8900   -2.5650    1.8420 O   0  0  0  0  0  0  0  0  0  0  0  0
    6.1960   -1.6740    3.4630 O   0  0  0  0  0  0  0  0  0  0  0  0
  1  2  1  0
  2  3  2  0
  2  4  1  0
  5  4  1  1
  5  6  1  0
  5 22  1  0
  6  7  1  1
  6 18  1  0
  7  8  1  0
  8  9  2  0
  8 10  1  0
 10 11  1  0
 11 12  1  0
 11 15  1  0
 12 13  1  0
 13 14  2  0
 15 16  1  0
 15 17  1  0
 18 19  1  0
 19 20  1  0
 20 21  2  0
 20 22  1  0
 22 23  1  6
 23 24  1  0
 24 25  2  0
 24 26  1  0
 26 27  1  0
 27 28  1  6
 27 29  1  0
 29 30  2  0
 29 31  1  0
M  END
