
     RDKit          3D

 44 48  0  0  0  0  0  0  0  0999 V2000
   -4.2140    0.6340    0.8620 O   0  0  0  0  0  0  0  0  0  0  0  0
   -4.6680   -0.2250    0.0670 C   0  0  0  0  0  0  0  0  0  0  0  0
   -3.6720   -0.9900   -0.6370 N   0  0  0  0  0  0  0  0  0  0  0  0
   -2.2670   -0.8760   -0.4260 C   0  0  1  0  0  0  0  0  0  0  0  0
   -2.0850   -1.7580    0.7870 C   0  0  0  0  0  0  0  0  0  0  0  0
   -2.6570   -3.1350    0.6780 C   0  0  0  0  0  0  0  0  0  0  0  0
   -3.2780   -3.6890    1.8270 C   0  0  0  0  0  0  0  0  0  0  0  0
   -3.8370   -4.9260    1.8380 C   0  0  0  0  0  0  0  0  0  0  0  0
   -3.8390   -5.7200    0.7180 C   0  0  0  0  0  0  0  0  0  0  0  0
   -3.2420   -5.2030   -0.4130 C   0  0  0  0  0  0  0  0  0  0  0  0
   -2.6680   -3.9320   -0.4100 C   0  0  0  0  0  0  0  0  0  0  0  0
   -1.0610   -0.6680   -1.5730 P   0  0  0  0  0  0  0  0  0  0  0  0
   -0.5050   -1.8430   -2.5950 O   0  0  0  0  0  0  0  0  0  0  0  0
   -0.8390    0.9890   -2.0620 O   0  0  0  0  0  0  0  0  0  0  0  0
    0.4960   -0.5870   -0.9380 C   0  0  2  0  0  0  0  0  0  0  0  0
    1.1400   -1.8560   -0.4080 C   0  0  0  0  0  0  0  0  0  0  0  0
    1.8060   -1.4560    0.8390 C   0  0  0  0  0  0  0  0  0  0  0  0
    1.0800   -0.2970    1.4200 C   0  0  0  0  0  0  0  0  0  0  0  0
    0.6620    0.4810    0.1670 C   0  0  1  0  0  0  0  0  0  0  0  0
    1.8560    1.3190   -0.2030 C   0  0  0  0  0  0  0  0  0  0  0  0
    2.1010    1.3850   -1.4570 O   0  0  0  0  0  0  0  0  0  0  0  0
    2.6500    1.9200    0.7760 N   0  0  0  0  0  0  0  0  0  0  0  0
    3.9200    2.4540    0.2570 C   0  0  1  0  0  0  0  0  0  0  0  0
    4.8870    2.6310    1.3160 C   0  0  0  0  0  0  0  0  0  0  0  0
    6.2570    2.5850    0.6810 C   0  0  0  0  0  0  0  0  0  0  0  0
    7.0990    3.4430    0.1230 C   0  0  0  0  0  0  0  0  0  0  0  0
    8.1720    2.7580   -0.3570 N   0  0  0  0  0  0  0  0  0  0  0  0
    8.0120    1.4560   -0.1030 C   0  0  0  0  0  0  0  0  0  0  0  0
    8.7810    0.3080   -0.3520 C   0  0  0  0  0  0  0  0  0  0  0  0
    8.3490   -0.9310    0.0520 C   0  0  0  0  0  0  0  0  0  0  0  0
    7.1520   -1.0810    0.7120 C   0  0  0  0  0  0  0  0  0  0  0  0
    6.3940    0.0530    0.9510 C   0  0  0  0  0  0  0  0  0  0  0  0
    6.8370    1.2680    0.5450 C   0  0  0  0  0  0  0  0  0  0  0  0
    4.2570    1.9090   -1.0570 C   0  0  0  0  0  0  0  0  0  0  0  0
    4.2820    2.5820   -2.1130 O   0  0  0  0  0  0  0  0  0  0  0  0
    4.6020    0.5490   -1.2330 O   0  0  0  0  0  0  0  0  0  0  0  0
   -5.9930   -0.4650   -0.1330 O   0  0  0  0  0  0  0  0  0  0  0  0
   -7.0220    0.2340    0.5090 C   0  0  0  0  0  0  0  0  0  0  0  0
   -7.1640    1.6420    0.0350 C   0  0  0  0  0  0  0  0  0  0  0  0
   -8.1580    1.8540   -0.9400 C   0  0  0  0  0  0  0  0  0  0  0  0
   -8.2770    3.1010   -1.4810 C   0  0  0  0  0  0  0  0  0  0  0  0
   -7.4570    4.1470   -1.1000 C   0  0  0  0  0  0  0  0  0  0  0  0
   -6.4980    3.9170   -0.1460 C   0  0  0  0  0  0  0  0  0  0  0  0
   -6.3500    2.6480    0.4310 C   0  0  0  0  0  0  0  0  0  0  0  0
  1  2  2  0
  2  3  1  0
  2 37  1  0
  3  4  1  0
  4  5  1  6
  4 12  1  0
  5  6  1  0
  6  7  2  0
  6 11  1  0
  7  8  1  0
  8  9  2  0
  9 10  1  0
 10 11  2  0
 12 13  1  0
 12 14  1  0
 15 12  1  1
 15 16  1  0
 15 19  1  0
 16 17  1  0
 17 18  1  0
 18 19  1  0
 19 20  1  6
 20 21  2  0
 20 22  1  0
 22 23  1  0
 23 24  1  1
 23 34  1  0
 24 25  1  0
 25 26  2  0
 25 33  1  0
 26 27  1  0
 27 28  1  0
 28 29  2  0
 28 33  1  0
 29 30  1  0
 30 31  2  0
 31 32  1  0
 32 33  2  0
 34 35  2  0
 34 36  1  0
 37 38  1  0
 38 39  1  0
 39 40  2  0
 39 44  1  0
 40 41  1  0
 41 42  2  0
 42 43  1  0
 43 44  2  0
M  END
