
     RDKit          3D

 31 32  0  0  0  0  0  0  0  0999 V2000
   -5.2130    0.7850    0.7930 O   0  0  0  0  0  0  0  0  0  0  0  0
   -5.1000   -0.3200    1.1830 C   0  0  0  0  0  0  0  0  0  0  0  0
   -4.0530   -1.1810    1.5340 N   0  0  0  0  0  0  0  0  0  0  0  0
   -2.7680   -0.0130    1.2690 C   0  0  0  0  0  0  0  0  0  0  0  0
   -3.1630    1.0180    0.9250 O   0  0  0  0  0  0  0  0  0  0  0  0
   -1.5580   -0.5590    1.5240 O   0  0  0  0  0  0  0  0  0  0  0  0
   -0.3850    0.2870    1.3560 C   0  0  1  0  0  0  0  0  0  0  0  0
   -0.5210    1.4150    2.3210 C   0  0  0  0  0  0  0  0  0  0  0  0
   -0.3160    1.0630    3.7070 N   0  0  0  0  0  0  0  0  0  0  0  0
    0.3220    0.0570    4.1360 N   0  0  0  0  0  0  0  0  0  0  0  0
    0.8880   -0.8060    3.1440 C   0  0  0  0  0  0  0  0  0  0  0  0
    1.7570   -2.1550    3.5280 S   0  0  0  0  0  0  0  0  0  0  0  0
    0.7290   -0.5270    1.7700 N   0  0  0  0  0  0  0  0  0  0  0  0
    1.6030   -1.0060    0.7570 C   0  0  0  0  0  0  0  0  0  0  0  0
    2.1910   -2.0840    0.9540 O   0  0  0  0  0  0  0  0  0  0  0  0
    1.7760   -0.2270   -0.4600 C   0  0  1  0  0  0  0  0  0  0  0  0
    1.8030   -1.0630   -1.5590 O   0  0  0  0  0  0  0  0  0  0  0  0
    2.9750   -1.0310   -2.2910 C   0  0  0  0  0  0  0  0  0  0  0  0
    3.2210    0.3530   -2.8310 C   0  0  0  0  0  0  0  0  0  0  0  0
    4.7980    0.3100   -3.8400 P   0  0  0  0  0  0  0  0  0  0  0  0
    4.5740   -0.7690   -5.1830 O   0  0  0  0  0  0  0  0  0  0  0  0
    6.0890   -0.1840   -2.8140 O   0  0  0  0  0  0  0  0  0  0  0  0
    5.8150    0.2620   -1.1430 P   0  0  0  0  0  0  0  0  0  0  0  0
    6.6780    1.6940   -0.7140 O   0  0  0  0  0  0  0  0  0  0  0  0
    6.2430   -1.0840   -0.1190 O   0  0  0  0  0  0  0  0  0  0  0  0
    0.8690    0.7680   -0.6700 O   0  0  0  0  0  0  0  0  0  0  0  0
   -0.3250    0.7400   -0.0430 C   0  0  0  0  0  0  0  0  0  0  0  0
   -6.4000   -1.0820    1.3800 N   0  0  0  0  0  0  0  0  0  0  0  0
   -7.8840   -0.2700    0.9590 P   0  0  0  0  0  0  0  0  0  0  0  0
   -8.9980   -1.4870    0.3460 O   0  0  0  0  0  0  0  0  0  0  0  0
   -7.6810    0.8770   -0.3490 O   0  0  0  0  0  0  0  0  0  0  0  0
  1  2  2  0
  2  3  1  0
  2 28  1  0
  3  4  1  0
  4  5  2  0
  4  6  1  0
  7  6  1  6
  7  8  1  0
  7 13  1  0
  7 27  1  0
  8  9  1  0
  9 10  2  0
 10 11  1  0
 11 12  2  0
 11 13  1  0
 13 14  1  0
 14 15  2  0
 14 16  1  0
 16 17  1  6
 16 26  1  0
 17 18  1  0
 18 19  1  0
 19 20  1  0
 20 21  1  0
 20 22  1  0
 22 23  1  0
 23 24  1  0
 23 25  1  0
 26 27  1  0
 28 29  1  0
 29 30  1  0
 29 31  1  0
M  END
