
     RDKit          3D

 30 33  0  0  0  0  0  0  0  0999 V2000
   -5.6740    2.2150    0.3080 C   0  0  0  0  0  0  0  0  0  0  0  0
   -6.2780    1.3610   -0.7620 C   0  0  0  0  0  0  0  0  0  0  0  0
   -5.9500   -0.0980   -0.6450 C   0  0  0  0  0  0  0  0  0  0  0  0
   -4.5360   -0.3800   -0.7080 N   0  0  0  0  0  0  0  0  0  0  0  0
   -3.7710   -0.4010    0.5290 C   0  0  0  0  0  0  0  0  0  0  0  0
   -2.5460   -1.2450    0.4670 C   0  0  2  0  0  0  0  0  0  0  0  0
   -2.5350   -2.2710    1.5830 C   0  0  0  0  0  0  0  0  0  0  0  0
   -2.5090   -1.6610    2.9570 C   0  0  0  0  0  0  0  0  0  0  0  0
   -1.8170   -0.3450    3.0160 C   0  0  0  0  0  0  0  0  0  0  0  0
   -0.8670   -0.2300    1.9370 N   0  0  0  0  0  0  0  0  0  0  0  0
    0.5160   -0.0140    2.1880 C   0  0  0  0  0  0  0  0  0  0  0  0
    0.9490    0.0820    3.3690 O   0  0  0  0  0  0  0  0  0  0  0  0
    1.4720    0.1010    1.0600 C   0  0  0  0  0  0  0  0  0  0  0  0
    2.8710    0.3210    1.5920 C   0  0  0  0  0  0  0  0  0  0  0  0
    3.8660    0.4440    0.5170 C   0  0  0  0  0  0  0  0  0  0  0  0
    5.1450    0.6420    0.8520 N   0  0  0  0  0  0  0  0  0  0  0  0
    6.1170    0.7650   -0.0920 C   0  0  0  0  0  0  0  0  0  0  0  0
    7.5150    0.9820    0.3180 C   0  0  0  0  0  0  0  0  0  0  0  0
    5.7720    0.6840   -1.4260 C   0  0  0  0  0  0  0  0  0  0  0  0
    6.5260    0.7710   -2.5740 C   0  0  0  0  0  0  0  0  0  0  0  0
    7.9860    0.9850   -2.7010 C   0  0  0  0  0  0  0  0  0  0  0  0
    5.6270    0.6150   -3.5840 N   0  0  0  0  0  0  0  0  0  0  0  0
    4.4150    0.4450   -3.0990 N   0  0  0  0  0  0  0  0  0  0  0  0
    4.4410    0.4790   -1.7510 C   0  0  0  0  0  0  0  0  0  0  0  0
    3.5000    0.3610   -0.7840 N   0  0  0  0  0  0  0  0  0  0  0  0
   -1.3220   -0.3360    0.5810 C   0  0  0  0  0  0  0  0  0  0  0  0
   -2.3870   -2.0200   -0.8220 C   0  0  0  0  0  0  0  0  0  0  0  0
   -2.5690   -1.0940   -2.0250 C   0  0  0  0  0  0  0  0  0  0  0  0
   -3.9620   -0.6230   -1.9700 C   0  0  0  0  0  0  0  0  0  0  0  0
   -4.6060   -0.4480   -3.0140 O   0  0  0  0  0  0  0  0  0  0  0  0
  1  2  1  0
  2  3  1  0
  3  4  1  0
  4  5  1  0
  4 29  1  0
  6  5  1  6
  6  7  1  0
  6 26  1  0
  6 27  1  0
  7  8  1  0
  8  9  1  0
  9 10  1  0
 10 11  1  0
 10 26  1  0
 11 12  2  0
 11 13  1  0
 13 14  1  0
 14 15  1  0
 15 16  2  0
 15 25  1  0
 16 17  1  0
 17 18  1  0
 17 19  2  0
 19 20  1  0
 19 24  1  0
 20 21  1  0
 20 22  2  0
 22 23  1  0
 23 24  1  0
 24 25  2  0
 27 28  1  0
 28 29  1  0
 29 30  2  0
M  END
