
     RDKit          3D

 29 32  0  0  0  0  0  0  0  0999 V2000
   -5.7840    3.1930   -0.4930 C   0  0  0  0  0  0  0  0  0  0  0  0
   -4.9140    2.3290    0.3440 C   0  0  0  0  0  0  0  0  0  0  0  0
   -4.0500    2.8670    1.3070 C   0  0  0  0  0  0  0  0  0  0  0  0
   -3.2800    1.9700    2.0350 C   0  0  0  0  0  0  0  0  0  0  0  0
   -3.3250    0.6110    1.8590 C   0  0  0  0  0  0  0  0  0  0  0  0
   -4.2010    0.1150    0.8870 C   0  0  0  0  0  0  0  0  0  0  0  0
   -4.2340   -1.3600    0.7270 C   0  0  1  0  0  0  0  0  0  0  0  0
   -5.6210   -1.6720    0.6590 O   0  0  0  0  0  0  0  0  0  0  0  0
   -3.6460   -1.8270   -0.5410 C   0  0  0  0  0  0  0  0  0  0  0  0
   -2.2860   -1.6790   -0.7940 N   0  0  0  0  0  0  0  0  0  0  0  0
   -1.6910   -0.4330   -1.0030 C   0  0  0  0  0  0  0  0  0  0  0  0
   -0.3300   -0.2700   -0.3120 C   0  0  0  0  0  0  0  0  0  0  0  0
    0.4690   -1.3660   -0.7890 N   0  0  1  0  0  0  0  0  0  0  0  0
    1.8510   -1.2180   -0.4990 C   0  0  0  0  0  0  0  0  0  0  0  0
    2.7640   -2.1770   -0.8830 C   0  0  0  0  0  0  0  0  0  0  0  0
    4.1100   -2.0720   -0.6260 C   0  0  0  0  0  0  0  0  0  0  0  0
    4.6410   -0.9630    0.0540 C   0  0  0  0  0  0  0  0  0  0  0  0
    6.0070   -0.8980    0.2920 O   0  0  0  0  0  0  0  0  0  0  0  0
    6.5350    0.2220    0.9560 C   0  0  0  0  0  0  0  0  0  0  0  0
    6.2800    1.4250    0.1460 C   0  0  0  0  0  0  0  0  0  0  0  0
    6.3870    2.7300    0.5430 C   0  0  0  0  0  0  0  0  0  0  0  0
    6.0790    3.5290   -0.4940 N   0  0  0  0  0  0  0  0  0  0  0  0
    5.7840    2.7380   -1.5270 N   0  0  0  0  0  0  0  0  0  0  0  0
    5.8970    1.4430   -1.1720 C   0  0  0  0  0  0  0  0  0  0  0  0
    3.7280   -0.0110    0.4340 C   0  0  0  0  0  0  0  0  0  0  0  0
    2.3700   -0.1290    0.1690 C   0  0  0  0  0  0  0  0  0  0  0  0
   -0.1020   -2.5710   -0.2000 C   0  0  0  0  0  0  0  0  0  0  0  0
   -1.4580   -2.8270   -0.7660 C   0  0  0  0  0  0  0  0  0  0  0  0
   -4.9730    0.9720    0.1540 C   0  0  0  0  0  0  0  0  0  0  0  0
  1  2  1  0
  2  3  2  0
  2 29  1  0
  3  4  1  0
  4  5  2  0
  5  6  1  0
  6  7  1  0
  6 29  2  0
  7  8  1  6
  7  9  1  0
  9 10  1  0
 10 11  1  0
 10 28  1  0
 11 12  1  0
 12 13  1  0
 13 14  1  1
 13 27  1  0
 14 15  2  0
 14 26  1  0
 15 16  1  0
 16 17  2  0
 17 18  1  0
 17 25  1  0
 18 19  1  0
 19 20  1  0
 20 21  1  0
 20 24  2  0
 21 22  2  0
 22 23  1  0
 23 24  1  0
 25 26  2  0
 27 28  1  0
M  CHG  1  13   1
M  END
