
     RDKit          3D

 30 33  0  0  0  0  0  0  0  0999 V2000
   -8.7890    0.0010    0.8830 C   0  0  0  0  0  0  0  0  0  0  0  0
   -7.3360   -0.0100    0.6310 C   0  0  0  0  0  0  0  0  0  0  0  0
   -6.7110   -1.0180    1.0910 O   0  0  0  0  0  0  0  0  0  0  0  0
   -6.6030    1.0190   -0.0830 C   0  0  0  0  0  0  0  0  0  0  0  0
   -7.2570    2.1070   -0.6120 C   0  0  0  0  0  0  0  0  0  0  0  0
   -6.4840    3.0480   -1.2720 C   0  0  0  0  0  0  0  0  0  0  0  0
   -5.1240    2.9050   -1.3950 C   0  0  0  0  0  0  0  0  0  0  0  0
   -4.4550    1.8040   -0.8610 C   0  0  0  0  0  0  0  0  0  0  0  0
   -3.1020    1.6330   -0.9720 C   0  0  0  0  0  0  0  0  0  0  0  0
   -2.4590    0.5210   -0.4350 C   0  0  0  0  0  0  0  0  0  0  0  0
   -3.2330   -0.4040    0.2130 C   0  0  0  0  0  0  0  0  0  0  0  0
   -2.7920   -1.6320    0.8290 C   0  0  0  0  0  0  0  0  0  0  0  0
   -1.4740   -2.0890    0.7490 N   0  0  2  0  0  0  0  0  0  0  0  0
   -0.6510   -1.3500    1.6760 C   0  0  0  0  0  0  0  0  0  0  0  0
    0.7210   -1.0000    1.1810 C   0  0  0  0  0  0  0  0  0  0  0  0
    1.3390   -2.0920    0.5460 N   0  0  0  0  0  0  0  0  0  0  0  0
    2.5670   -1.8320   -0.0530 N   0  0  0  0  0  0  0  0  0  0  0  0
    3.3790   -0.7030    0.1530 C   0  0  0  0  0  0  0  0  0  0  0  0
    3.0050    0.1800    0.9410 O   0  0  0  0  0  0  0  0  0  0  0  0
    4.6680   -0.6120   -0.5900 C   0  0  0  0  0  0  0  0  0  0  0  0
    5.4230    0.6370   -0.2700 C   0  0  1  0  0  0  0  0  0  0  0  0
    4.6630    1.9000   -0.6060 C   0  0  0  0  0  0  0  0  0  0  0  0
    5.9180    0.7350    1.1350 C   0  0  0  0  0  0  0  0  0  0  0  0
    7.4250    0.5480    1.0780 C   0  0  0  0  0  0  0  0  0  0  0  0
    7.7560    1.2260   -0.2480 C   0  0  0  0  0  0  0  0  0  0  0  0
    6.6760    0.6500   -1.1410 C   0  0  0  0  0  0  0  0  0  0  0  0
    0.5090   -2.9650   -0.2000 C   0  0  0  0  0  0  0  0  0  0  0  0
   -0.8900   -2.4100   -0.4970 C   0  0  0  0  0  0  0  0  0  0  0  0
   -4.5810   -0.1830    0.2960 N   0  0  0  0  0  0  0  0  0  0  0  0
   -5.2130    0.8620   -0.2030 C   0  0  0  0  0  0  0  0  0  0  0  0
  1  2  1  0
  2  3  2  0
  2  4  1  0
  4  5  2  0
  4 30  1  0
  5  6  1  0
  6  7  2  0
  7  8  1  0
  8  9  2  0
  8 30  1  0
  9 10  1  0
 10 11  2  0
 11 12  1  0
 11 29  1  0
 13 12  1  6
 13 14  1  0
 13 28  1  0
 14 15  1  0
 15 16  1  0
 16 17  1  0
 16 27  1  0
 17 18  1  0
 18 19  2  0
 18 20  1  0
 20 21  1  0
 21 22  1  6
 21 23  1  0
 21 26  1  0
 23 24  1  0
 24 25  1  0
 25 26  1  0
 27 28  1  0
 29 30  2  0
M  CHG  1  13   1
M  END
