
     RDKit          3D

 31 34  0  0  0  0  0  0  0  0999 V2000
    2.4940   -2.0810   -1.4260 C   0  0  0  0  0  0  0  0  0  0  0  0
    1.3590   -1.3430   -0.8580 C   0  0  0  0  0  0  0  0  0  0  0  0
    0.1510   -1.5120   -1.4850 C   0  0  0  0  0  0  0  0  0  0  0  0
   -0.9420   -0.8340   -1.0920 C   0  0  0  0  0  0  0  0  0  0  0  0
   -0.9060    0.0890   -0.0020 C   0  0  0  0  0  0  0  0  0  0  0  0
   -2.1870    0.8040    0.1780 C   0  0  0  0  0  0  0  0  0  0  0  0
   -2.3300    1.9810    0.4920 O   0  0  0  0  0  0  0  0  0  0  0  0
   -3.3820    0.0370   -0.0630 N   0  0  0  0  0  0  0  0  0  0  0  0
   -4.7010    0.4600   -0.1060 C   0  0  0  0  0  0  0  0  0  0  0  0
   -5.1330    1.7480   -0.3550 C   0  0  0  0  0  0  0  0  0  0  0  0
   -6.4640    2.0320   -0.5800 C   0  0  0  0  0  0  0  0  0  0  0  0
   -7.4110    1.0400   -0.5630 C   0  0  0  0  0  0  0  0  0  0  0  0
   -7.0230   -0.2760   -0.3110 C   0  0  0  0  0  0  0  0  0  0  0  0
   -8.0270   -1.3950   -0.3070 C   0  0  2  0  0  0  0  0  0  0  0  0
   -8.4850   -1.6210   -1.5710 F   0  0  0  0  0  0  0  0  0  0  0  0
   -9.0670   -0.9570    0.5120 F   0  0  0  0  0  0  0  0  0  0  0  0
   -7.4390   -2.4900    0.2620 F   0  0  0  0  0  0  0  0  0  0  0  0
   -5.7000   -0.5360   -0.0860 C   0  0  0  0  0  0  0  0  0  0  0  0
    0.2800    0.2470    0.6120 C   0  0  0  0  0  0  0  0  0  0  0  0
    1.4010   -0.4270    0.2210 C   0  0  0  0  0  0  0  0  0  0  0  0
    2.7740   -0.2500    0.7160 C   0  0  0  0  0  0  0  0  0  0  0  0
    3.5420   -1.2760    1.2060 C   0  0  0  0  0  0  0  0  0  0  0  0
    4.9280   -1.1600    1.3130 C   0  0  0  0  0  0  0  0  0  0  0  0
    5.5330    0.0190    0.9150 C   0  0  0  0  0  0  0  0  0  0  0  0
    6.8900    0.1600    0.8850 N   0  0  0  0  0  0  0  0  0  0  0  0
    7.4400    1.2910    0.3950 C   0  0  0  0  0  0  0  0  0  0  0  0
    8.8780    1.3530    0.3010 N   0  0  0  0  0  0  0  0  0  0  0  0
    6.6910    2.3140   -0.0710 N   0  0  0  0  0  0  0  0  0  0  0  0
    5.3470    2.2190   -0.0570 C   0  0  0  0  0  0  0  0  0  0  0  0
    4.7720    1.0610    0.4370 C   0  0  0  0  0  0  0  0  0  0  0  0
    3.3990    0.9330    0.3390 C   0  0  0  0  0  0  0  0  0  0  0  0
  1  2  1  0
  2  3  2  0
  2 20  1  0
  3  4  1  0
  4  5  2  0
  5  6  1  0
  5 19  1  0
  6  7  2  0
  6  8  1  0
  8  9  1  0
  9 10  2  0
  9 18  1  0
 10 11  1  0
 11 12  2  0
 12 13  1  0
 13 14  1  0
 13 18  2  0
 14 15  1  6
 14 16  1  0
 14 17  1  0
 19 20  2  0
 20 21  1  0
 21 22  2  0
 21 31  1  0
 22 23  1  0
 23 24  2  0
 24 25  1  0
 24 30  1  0
 25 26  2  0
 26 27  1  0
 26 28  1  0
 28 29  2  0
 29 30  1  0
 30 31  2  0
M  END
