
     RDKit          3D

 30 33  0  0  0  0  0  0  0  0999 V2000
   -2.4870    1.7030    0.9240 O   0  0  0  0  0  0  0  0  0  0  0  0
   -1.6370    0.8430    1.2120 C   0  0  0  0  0  0  0  0  0  0  0  0
   -1.9900   -0.3960    1.9890 C   0  0  0  0  0  0  0  0  0  0  0  0
   -3.4390   -0.5590    2.2330 C   0  0  0  0  0  0  0  0  0  0  0  0
   -4.2920   -0.7250    1.1210 N   0  0  2  0  0  0  0  0  0  0  0  0
   -3.6810   -1.2710   -0.0790 C   0  0  0  0  0  0  0  0  0  0  0  0
   -4.6610   -1.1680   -1.2350 C   0  0  0  0  0  0  0  0  0  0  0  0
   -6.0980   -1.2400   -0.7710 C   0  0  0  0  0  0  0  0  0  0  0  0
   -6.4580   -0.2070    0.2590 C   0  0  0  0  0  0  0  0  0  0  0  0
   -5.1140    0.3880    0.7400 C   0  0  0  0  0  0  0  0  0  0  0  0
   -0.2930    1.0380    0.7940 N   0  0  0  0  0  0  0  0  0  0  0  0
    0.2150    2.1300    0.0590 C   0  0  0  0  0  0  0  0  0  0  0  0
   -0.5370    3.1230   -0.5260 C   0  0  0  0  0  0  0  0  0  0  0  0
    0.0030    4.1450   -1.2790 C   0  0  0  0  0  0  0  0  0  0  0  0
    1.3700    4.2240   -1.4890 C   0  0  0  0  0  0  0  0  0  0  0  0
    2.1350    3.2420   -0.9120 C   0  0  0  0  0  0  0  0  0  0  0  0
    1.5900    2.2030   -0.1460 C   0  0  0  0  0  0  0  0  0  0  0  0
    2.4590    1.2230    0.4760 C   0  0  0  0  0  0  0  0  0  0  0  0
    2.4700    0.9720    1.8260 C   0  0  0  0  0  0  0  0  0  0  0  0
    3.3010    0.0460    2.3380 N   0  0  0  0  0  0  0  0  0  0  0  0
    4.1460   -0.6740    1.6080 C   0  0  0  0  0  0  0  0  0  0  0  0
    4.1770   -0.4620    0.2380 C   0  0  0  0  0  0  0  0  0  0  0  0
    5.1000   -1.2470   -0.5660 C   0  0  0  0  0  0  0  0  0  0  0  0
    5.2030   -1.1110   -1.9210 C   0  0  0  0  0  0  0  0  0  0  0  0
    6.1020   -1.8850   -2.6500 C   0  0  0  0  0  0  0  0  0  0  0  0
    6.9200   -2.8160   -2.0360 C   0  0  0  0  0  0  0  0  0  0  0  0
    6.7840   -2.9230   -0.6620 C   0  0  0  0  0  0  0  0  0  0  0  0
    7.5860   -3.8490    0.0130 O   0  0  0  0  0  0  0  0  0  0  0  0
    5.9080   -2.1640    0.0200 N   0  0  0  0  0  0  0  0  0  0  0  0
    3.3460    0.4680   -0.2990 C   0  0  0  0  0  0  0  0  0  0  0  0
  1  2  2  0
  2  3  1  0
  2 11  1  0
  3  4  1  0
  5  4  1  1
  5  6  1  0
  5 10  1  0
  6  7  1  0
  7  8  1  0
  8  9  1  0
  9 10  1  0
 11 12  1  0
 12 13  2  0
 12 17  1  0
 13 14  1  0
 14 15  2  0
 15 16  1  0
 16 17  2  0
 17 18  1  0
 18 19  2  0
 18 30  1  0
 19 20  1  0
 20 21  2  0
 21 22  1  0
 22 23  1  0
 22 30  2  0
 23 24  2  0
 23 29  1  0
 24 25  1  0
 25 26  2  0
 26 27  1  0
 27 28  1  0
 27 29  2  0
M  CHG  1   5   1
M  END
