
     RDKit          3D

 30 33  0  0  0  0  0  0  0  0999 V2000
   -3.2450   -4.1270    0.5140 C   0  0  0  0  0  0  0  0  0  0  0  0
   -2.9930   -3.6390   -0.8910 C   0  0  0  0  0  0  0  0  0  0  0  0
   -2.9990   -2.1800   -0.8650 N   0  0  0  0  0  0  0  0  0  0  0  0
   -2.0710   -1.5180   -0.0670 C   0  0  0  0  0  0  0  0  0  0  0  0
   -1.2200   -2.2280    0.6190 O   0  0  0  0  0  0  0  0  0  0  0  0
   -1.8760   -0.0710    0.1420 C   0  0  1  0  0  0  0  0  0  0  0  0
   -2.7300    0.8960   -0.5440 C   0  0  0  0  0  0  0  0  0  0  0  0
   -4.1790    0.9330   -0.2770 C   0  0  0  0  0  0  0  0  0  0  0  0
   -4.8390    1.8740   -1.0480 O   0  0  0  0  0  0  0  0  0  0  0  0
   -4.3930    3.1510   -0.8110 C   0  0  0  0  0  0  0  0  0  0  0  0
   -2.1090    0.0130    1.6850 C   0  0  0  0  0  0  0  0  0  0  0  0
   -1.8080    1.3570    2.2400 C   0  0  0  0  0  0  0  0  0  0  0  0
   -0.5430    1.9610    1.6880 C   0  0  0  0  0  0  0  0  0  0  0  0
    0.2160    1.0210    0.8090 C   0  0  0  0  0  0  0  0  0  0  0  0
   -0.4980    0.1910   -0.0300 N   0  0  0  0  0  0  0  0  0  0  0  0
    0.1750   -0.4820   -1.0770 C   0  0  0  0  0  0  0  0  0  0  0  0
    0.8500    0.4040   -2.0530 C   0  0  0  0  0  0  0  0  0  0  0  0
    0.2140    1.0870   -3.0830 C   0  0  0  0  0  0  0  0  0  0  0  0
    1.1300    1.7990   -3.7860 N   0  0  0  0  0  0  0  0  0  0  0  0
    2.3100    1.5640   -3.2060 C   0  0  0  0  0  0  0  0  0  0  0  0
    2.1460    0.7300   -2.1690 N   0  0  0  0  0  0  0  0  0  0  0  0
    3.1990    0.2370   -1.2940 C   0  0  0  0  0  0  0  0  0  0  0  0
    3.5490    0.9140   -0.2700 N   0  0  0  0  0  0  0  0  0  0  0  0
    4.5530    0.5590    0.6650 C   0  0  0  0  0  0  0  0  0  0  0  0
    5.0630    1.0910    1.7590 C   0  0  0  0  0  0  0  0  0  0  0  0
    6.1280    0.2250    2.3250 C   0  0  0  0  0  0  0  0  0  0  0  0
    6.1560   -0.9090    1.3740 C   0  0  0  0  0  0  0  0  0  0  0  0
    5.2360   -0.7010    0.4140 C   0  0  0  0  0  0  0  0  0  0  0  0
    4.8470   -1.4490   -0.7190 N   0  0  0  0  0  0  0  0  0  0  0  0
    3.8350   -1.0390   -1.6230 C   0  0  0  0  0  0  0  0  0  0  0  0
  1  2  1  0
  2  3  1  0
  3  4  1  0
  4  5  2  0
  4  6  1  0
  6  7  1  6
  6 11  1  0
  6 15  1  0
  7  8  1  0
  8  9  1  0
  9 10  1  0
 11 12  1  0
 12 13  1  0
 13 14  1  0
 14 15  1  0
 15 16  1  0
 16 17  1  0
 17 18  2  0
 17 21  1  0
 18 19  1  0
 19 20  2  0
 20 21  1  0
 21 22  1  0
 22 23  2  0
 22 30  1  0
 23 24  1  0
 24 25  2  0
 24 28  1  0
 25 26  1  0
 26 27  1  0
 27 28  2  0
 28 29  1  0
 29 30  1  0
M  END
