
     RDKit          3D

 30 33  0  0  0  0  0  0  0  0999 V2000
    5.2030    0.8620    3.6440 C   0  0  0  0  0  0  0  0  0  0  0  0
    5.8050    0.8860    2.2780 C   0  0  0  0  0  0  0  0  0  0  0  0
    7.1050    0.8560    1.9380 N   0  0  0  0  0  0  0  0  0  0  0  0
    7.2140    0.8940    0.6040 N   0  0  0  0  0  0  0  0  0  0  0  0
    5.9880    0.9500    0.0480 C   0  0  0  0  0  0  0  0  0  0  0  0
    5.7070    1.0040   -1.3940 C   0  0  0  0  0  0  0  0  0  0  0  0
    6.6290    1.0020   -2.3680 C   0  0  0  0  0  0  0  0  0  0  0  0
    5.9430    1.0650   -3.6520 C   0  0  0  0  0  0  0  0  0  0  0  0
    4.6760    1.0680   -3.3490 C   0  0  0  0  0  0  0  0  0  0  0  0
    4.4210    1.0700   -2.0670 C   0  0  0  0  0  0  0  0  0  0  0  0
    5.1080    0.9450    1.0820 C   0  0  0  0  0  0  0  0  0  0  0  0
    3.6850    0.9920    0.9950 N   0  0  0  0  0  0  0  0  0  0  0  0
    2.9720   -0.2360    0.9220 C   0  0  0  0  0  0  0  0  0  0  0  0
    3.6230   -1.3120    0.9380 O   0  0  0  0  0  0  0  0  0  0  0  0
    1.4690   -0.2550    0.8290 C   0  0  0  0  0  0  0  0  0  0  0  0
    0.9650   -1.6550    0.7660 C   0  0  0  0  0  0  0  0  0  0  0  0
   -0.5290   -1.7880    0.6710 C   0  0  0  0  0  0  0  0  0  0  0  0
   -1.1360   -1.1820   -0.5160 C   0  0  0  0  0  0  0  0  0  0  0  0
   -0.3370   -0.7190   -1.3960 O   0  0  0  0  0  0  0  0  0  0  0  0
   -2.5340   -1.0900   -0.7260 N   0  0  0  0  0  0  0  0  0  0  0  0
   -3.0610   -0.4810   -1.9200 C   0  0  0  0  0  0  0  0  0  0  0  0
   -4.2670    0.3680   -1.6860 C   0  0  0  0  0  0  0  0  0  0  0  0
   -4.9080    0.1650   -0.4260 N   0  0  0  0  0  0  0  0  0  0  0  0
   -6.2830    0.5130   -0.3130 C   0  0  0  0  0  0  0  0  0  0  0  0
   -7.2170    0.3350   -1.2400 C   0  0  0  0  0  0  0  0  0  0  0  0
   -8.5370    0.8350   -0.7290 C   0  0  0  0  0  0  0  0  0  0  0  0
   -8.2010    1.3020    0.5790 N   0  0  0  0  0  0  0  0  0  0  0  0
   -6.9440    1.1240    0.8140 C   0  0  0  0  0  0  0  0  0  0  0  0
   -4.2430   -0.3730    0.7450 C   0  0  0  0  0  0  0  0  0  0  0  0
   -3.4720   -1.6000    0.2400 C   0  0  0  0  0  0  0  0  0  0  0  0
  1  2  1  0
  2  3  1  0
  2 11  2  0
  3  4  1  0
  4  5  2  0
  5  6  1  0
  5 11  1  0
  6  7  2  0
  6 10  1  0
  7  8  1  0
  8  9  2  0
  9 10  2  0
 11 12  1  0
 12 13  1  0
 13 14  2  0
 13 15  1  0
 15 16  1  0
 16 17  1  0
 17 18  1  0
 18 19  2  0
 18 20  1  0
 20 21  1  0
 20 30  1  0
 21 22  1  0
 22 23  1  0
 23 24  1  0
 23 29  1  0
 24 25  2  0
 24 28  1  0
 25 26  1  0
 26 27  1  0
 27 28  2  0
 29 30  1  0
M  END
