
     RDKit          3D

 30 33  0  0  0  0  0  0  0  0999 V2000
    7.9250    0.2790    1.3310 C   0  0  0  0  0  0  0  0  0  0  0  0
    7.7390    1.1890    0.1690 C   0  0  0  0  0  0  0  0  0  0  0  0
    7.8230    0.5840   -1.1760 C   0  0  0  0  0  0  0  0  0  0  0  0
    6.7950   -0.4720   -1.4750 C   0  0  1  0  0  0  0  0  0  0  0  0
    6.8460   -1.6380   -0.5920 C   0  0  0  0  0  0  0  0  0  0  0  0
    5.7820   -2.0920    0.0070 C   0  0  0  0  0  0  0  0  0  0  0  0
    4.4590   -1.4670   -0.1600 C   0  0  0  0  0  0  0  0  0  0  0  0
    4.3510   -0.4140   -0.9410 C   0  0  0  0  0  0  0  0  0  0  0  0
    5.4770    0.1020   -1.6010 N   0  0  0  0  0  0  0  0  0  0  0  0
    2.9310   -0.3710   -0.6400 N   0  0  0  0  0  0  0  0  0  0  0  0
    1.6600    0.0060   -0.6300 N   0  0  0  0  0  0  0  0  0  0  0  0
    0.9470   -0.8030    0.1580 C   0  0  0  0  0  0  0  0  0  0  0  0
   -0.4790   -0.7440    0.4470 C   0  0  0  0  0  0  0  0  0  0  0  0
   -1.0030   -1.6040    1.2290 O   0  0  0  0  0  0  0  0  0  0  0  0
   -1.3120    0.2450   -0.1140 N   0  0  0  0  0  0  0  0  0  0  0  0
   -2.7720    0.3710    0.1230 C   0  0  1  0  0  0  0  0  0  0  0  0
   -3.3700   -0.8460   -0.4080 C   0  0  0  0  0  0  0  0  0  0  0  0
   -4.8110   -1.1460   -0.3900 C   0  0  2  0  0  0  0  0  0  0  0  0
   -4.8430   -2.5440   -1.0910 C   0  0  0  0  0  0  0  0  0  0  0  0
   -5.6670   -0.2880   -1.2980 C   0  0  0  0  0  0  0  0  0  0  0  0
   -5.4580   -1.4220    0.9210 C   0  0  0  0  0  0  0  0  0  0  0  0
   -2.8530    0.5250    1.6140 C   0  0  0  0  0  0  0  0  0  0  0  0
   -4.0080    1.1880    2.2240 C   0  0  0  0  0  0  0  0  0  0  0  0
   -4.8160    1.9570    1.2910 C   0  0  0  0  0  0  0  0  0  0  0  0
   -6.0000    2.2980    1.6230 O   0  0  0  0  0  0  0  0  0  0  0  0
   -4.2850    2.3120    0.0420 N   0  0  0  0  0  0  0  0  0  0  0  0
   -4.9120    3.3870   -0.7220 C   0  0  0  0  0  0  0  0  0  0  0  0
   -3.1350    1.6630   -0.5420 C   0  0  0  0  0  0  0  0  0  0  0  0
    1.8170   -1.6960    0.6360 N   0  0  0  0  0  0  0  0  0  0  0  0
    3.0470   -1.4480    0.1570 C   0  0  0  0  0  0  0  0  0  0  0  0
  1  2  1  0
  2  3  1  0
  4  3  1  1
  4  5  1  0
  4  9  1  0
  5  6  2  0
  6  7  1  0
  7  8  2  0
  7 30  1  0
  8  9  1  0
  8 10  1  0
 10 11  1  0
 10 30  1  0
 11 12  2  0
 12 13  1  0
 12 29  1  0
 13 14  2  0
 13 15  1  0
 15 16  1  0
 16 17  1  6
 16 22  1  0
 16 28  1  0
 17 18  1  0
 18 19  1  6
 18 20  1  0
 18 21  1  0
 22 23  1  0
 23 24  1  0
 24 25  2  0
 24 26  1  0
 26 27  1  0
 26 28  1  0
 29 30  2  0
M  END
