
     RDKit          3D

 30 33  0  0  0  0  0  0  0  0999 V2000
    3.7380    3.9100    1.0930 C   0  0  0  0  0  0  0  0  0  0  0  0
    4.8420    3.4700    0.1660 C   0  0  0  0  0  0  0  0  0  0  0  0
    4.3550    2.2810   -0.6070 C   0  0  0  0  0  0  0  0  0  0  0  0
    4.0020    1.1680    0.3030 C   0  0  0  0  0  0  0  0  0  0  0  0
    4.1420    1.3380    1.5400 O   0  0  0  0  0  0  0  0  0  0  0  0
    3.5200   -0.0610   -0.1800 N   0  0  0  0  0  0  0  0  0  0  0  0
    3.3030   -0.4150   -1.5570 C   0  0  0  0  0  0  0  0  0  0  0  0
    3.5970   -1.8970   -1.5950 C   0  0  0  0  0  0  0  0  0  0  0  0
    3.7900   -2.3380   -0.1610 C   0  0  0  0  0  0  0  0  0  0  0  0
    3.1470   -1.2050    0.6060 C   0  0  2  0  0  0  0  0  0  0  0  0
    1.6420   -1.4200    0.5450 C   0  0  0  0  0  0  0  0  0  0  0  0
    1.1740   -2.5190    0.0790 N   0  0  0  0  0  0  0  0  0  0  0  0
   -0.2340   -2.7880   -0.0070 C   0  0  0  0  0  0  0  0  0  0  0  0
   -0.6710   -3.9780   -0.4560 N   0  0  0  0  0  0  0  0  0  0  0  0
   -1.9720   -4.3330   -0.5200 C   0  0  0  0  0  0  0  0  0  0  0  0
   -2.6700   -5.4130   -0.9100 N   0  0  0  0  0  0  0  0  0  0  0  0
   -3.9980   -5.2330   -0.7580 C   0  0  0  0  0  0  0  0  0  0  0  0
   -4.1590   -3.9670   -0.2420 C   0  0  0  0  0  0  0  0  0  0  0  0
   -2.9090   -3.4150   -0.0960 C   0  0  0  0  0  0  0  0  0  0  0  0
   -2.4910   -2.1800    0.3700 C   0  0  0  0  0  0  0  0  0  0  0  0
   -1.1570   -1.8460    0.4170 C   0  0  0  0  0  0  0  0  0  0  0  0
   -0.6760   -0.5910    0.9400 C   0  0  0  0  0  0  0  0  0  0  0  0
   -1.4240    0.4290    1.1850 C   0  0  0  0  0  0  0  0  0  0  0  0
   -2.8400    0.7310    1.0460 C   0  0  0  0  0  0  0  0  0  0  0  0
   -3.0030    2.2090    0.6340 C   0  0  0  0  0  0  0  0  0  0  0  0
   -1.9680    2.8650    0.4940 O   0  0  0  0  0  0  0  0  0  0  0  0
   -4.2730    2.7590    0.4330 N   0  0  0  0  0  0  0  0  0  0  0  0
   -5.4760    1.9710    0.6030 C   0  0  0  0  0  0  0  0  0  0  0  0
   -4.3840    4.1490    0.0470 C   0  0  0  0  0  0  0  0  0  0  0  0
    0.7850   -0.4010    0.9970 N   0  0  0  0  0  0  0  0  0  0  0  0
  1  2  1  0
  2  3  1  0
  3  4  1  0
  4  5  2  0
  4  6  1  0
  6  7  1  0
  6 10  1  0
  7  8  1  0
  8  9  1  0
  9 10  1  0
 10 11  1  6
 11 12  2  0
 11 30  1  0
 12 13  1  0
 13 14  2  0
 13 21  1  0
 14 15  1  0
 15 16  1  0
 15 19  2  0
 16 17  1  0
 17 18  2  0
 18 19  1  0
 19 20  1  0
 20 21  2  0
 21 22  1  0
 22 23  2  3
 22 30  1  0
 23 24  1  0
 24 25  1  0
 25 26  2  0
 25 27  1  0
 27 28  1  0
 27 29  1  0
M  END
