
     RDKit          3D

 33 36  0  0  0  0  0  0  0  0999 V2000
   -6.0150    0.0720    1.1880 C   0  0  0  0  0  0  0  0  0  0  0  0
   -4.8400    0.6140    0.3460 C   0  0  0  0  0  0  0  0  0  0  0  0
   -4.7160    1.8980    0.4540 C   0  0  0  0  0  0  0  0  0  0  0  0
   -3.8120    2.8780   -0.1250 C   0  0  0  0  0  0  0  0  0  0  0  0
   -2.9310    2.4860   -1.0700 F   0  0  0  0  0  0  0  0  0  0  0  0
   -3.9850   -0.3540   -0.1970 C   0  0  0  0  0  0  0  0  0  0  0  0
   -4.2160   -1.6280   -0.3640 C   0  0  0  0  0  0  0  0  0  0  0  0
   -5.3670   -2.4270   -0.0710 C   0  0  0  0  0  0  0  0  0  0  0  0
   -5.2850   -3.6120    0.6820 C   0  0  0  0  0  0  0  0  0  0  0  0
   -6.5450   -4.1560    0.7880 C   0  0  0  0  0  0  0  0  0  0  0  0
   -7.3580   -3.2870    0.0970 C   0  0  0  0  0  0  0  0  0  0  0  0
   -6.6340   -2.3120   -0.3750 O   0  0  0  0  0  0  0  0  0  0  0  0
   -2.6070    0.0100   -0.5440 N   0  0  0  0  0  0  0  0  0  0  0  0
   -1.7040    0.4060    0.5120 C   0  0  0  0  0  0  0  0  0  0  0  0
   -2.1620    0.4150    1.6830 O   0  0  0  0  0  0  0  0  0  0  0  0
   -0.3300    0.7770    0.2210 C   0  0  0  0  0  0  0  0  0  0  0  0
    0.1060    0.7560   -0.9800 N   0  0  0  0  0  0  0  0  0  0  0  0
    1.4120    1.0900   -1.4030 C   0  0  0  0  0  0  0  0  0  0  0  0
    1.6970    1.4010   -2.6950 N   0  0  0  0  0  0  0  0  0  0  0  0
    2.9740    1.6720   -2.8160 N   0  0  0  0  0  0  0  0  0  0  0  0
    3.5870    1.5570   -1.6340 C   0  0  0  0  0  0  0  0  0  0  0  0
    2.6040    1.1880   -0.7300 C   0  0  0  0  0  0  0  0  0  0  0  0
    2.9250    0.9680    0.6890 C   0  0  0  0  0  0  0  0  0  0  0  0
    4.4160    0.7340    0.8690 C   0  0  0  0  0  0  0  0  0  0  0  0
    5.2270    1.8600    0.2310 C   0  0  1  0  0  0  0  0  0  0  0  0
    6.9760    1.5350    0.5750 S   0  0  0  0  0  0  0  0  0  0  0  0
    7.4470    0.0560   -0.2820 C   0  0  0  0  0  0  0  0  0  0  0  0
    7.9310   -0.0040   -1.5240 N   0  0  0  0  0  0  0  0  0  0  0  0
    8.1780   -1.3000   -1.8450 C   0  0  0  0  0  0  0  0  0  0  0  0
    7.8310   -2.0560   -0.7550 C   0  0  0  0  0  0  0  0  0  0  0  0
    7.3840   -1.1890    0.1910 N   0  0  0  0  0  0  0  0  0  0  0  0
    4.9760    1.7500   -1.2260 C   0  0  0  0  0  0  0  0  0  0  0  0
    5.9310    1.8240   -2.0230 O   0  0  0  0  0  0  0  0  0  0  0  0
  1  2  1  0
  2  3  2  3
  2  6  1  0
  3  4  1  0
  4  5  1  0
  6  7  2  3
  6 13  1  0
  7  8  1  0
  8  9  2  0
  8 12  1  0
  9 10  1  0
 10 11  2  0
 11 12  1  0
 13 14  1  0
 14 15  2  0
 14 16  1  0
 16 17  2  3
 17 18  1  0
 18 19  1  0
 18 22  2  0
 19 20  1  0
 20 21  2  0
 21 22  1  0
 21 32  1  0
 22 23  1  0
 23 24  1  0
 24 25  1  0
 25 26  1  6
 25 32  1  0
 26 27  1  0
 27 28  2  0
 27 31  1  0
 28 29  1  0
 29 30  2  0
 30 31  1  0
 32 33  2  0
M  END
