
     RDKit          3D

 33 36  0  0  0  0  0  0  0  0999 V2000
   10.8920   -0.3400   -1.3290 C   0  0  0  0  0  0  0  0  0  0  0  0
    9.8180    0.7720   -2.2340 S   0  0  0  0  0  0  0  0  0  0  0  0
    8.1270    0.6590   -1.7430 C   0  0  0  0  0  0  0  0  0  0  0  0
    7.6610   -0.1900   -0.7660 C   0  0  0  0  0  0  0  0  0  0  0  0
    6.2970   -0.2140   -0.4400 C   0  0  0  0  0  0  0  0  0  0  0  0
    5.3600    0.5740   -1.0420 C   0  0  0  0  0  0  0  0  0  0  0  0
    3.9740    0.6140   -0.7550 N   0  0  0  0  0  0  0  0  0  0  0  0
    3.3690   -0.0270    0.3540 C   0  0  0  0  0  0  0  0  0  0  0  0
    4.0270   -0.6830    1.1780 O   0  0  0  0  0  0  0  0  0  0  0  0
    1.9100    0.1000    0.5200 C   0  0  0  0  0  0  0  0  0  0  0  0
    1.1790    0.8140   -0.3740 N   0  0  0  0  0  0  0  0  0  0  0  0
   -0.1540    0.9580   -0.2640 C   0  0  0  0  0  0  0  0  0  0  0  0
   -0.8990    1.7100   -1.2120 N   0  0  0  0  0  0  0  0  0  0  0  0
   -0.7560    0.3380    0.8130 C   0  0  0  0  0  0  0  0  0  0  0  0
   -2.0450    0.2950    1.1930 N   0  0  0  0  0  0  0  0  0  0  0  0
   -2.1670   -0.4380    2.3220 C   0  0  0  0  0  0  0  0  0  0  0  0
   -3.3070   -0.7400    3.0540 O   0  0  0  0  0  0  0  0  0  0  0  0
   -4.5480   -0.2360    2.6010 C   0  0  0  0  0  0  0  0  0  0  0  0
   -4.7720   -0.7880    1.2260 C   0  0  0  0  0  0  0  0  0  0  0  0
   -3.9140   -1.5560    0.6950 O   0  0  0  0  0  0  0  0  0  0  0  0
   -5.9680   -0.4600    0.4690 C   0  0  0  0  0  0  0  0  0  0  0  0
   -6.2640   -0.8870   -0.7410 C   0  0  0  0  0  0  0  0  0  0  0  0
   -7.5520   -0.3540   -1.1930 C   0  0  1  0  0  0  0  0  0  0  0  0
   -8.3890   -1.4110   -1.8800 C   0  0  0  0  0  0  0  0  0  0  0  0
   -8.2220    0.2080    0.0180 C   0  0  0  0  0  0  0  0  0  0  0  0
   -7.0630    0.4300    0.9640 C   0  0  2  0  0  0  0  0  0  0  0  0
   -6.6480    1.7350    0.9770 F   0  0  0  0  0  0  0  0  0  0  0  0
   -0.8980   -0.8340    2.6060 N   0  0  0  0  0  0  0  0  0  0  0  0
   -0.0560   -0.3750    1.7120 N   0  0  0  0  0  0  0  0  0  0  0  0
    1.3000   -0.5060    1.5770 C   0  0  0  0  0  0  0  0  0  0  0  0
    2.0900   -1.2840    2.5530 C   0  0  0  0  0  0  0  0  0  0  0  0
    5.8600    1.4350   -2.0380 C   0  0  0  0  0  0  0  0  0  0  0  0
    7.1950    1.4550   -2.3550 C   0  0  0  0  0  0  0  0  0  0  0  0
  1  2  1  0
  2  3  1  0
  3  4  2  0
  3 33  1  0
  4  5  1  0
  5  6  2  0
  6  7  1  0
  6 32  1  0
  7  8  1  0
  8  9  2  0
  8 10  1  0
 10 11  1  0
 10 30  2  0
 11 12  2  0
 12 13  1  0
 12 14  1  0
 14 15  2  0
 14 29  1  0
 15 16  1  0
 16 17  1  0
 16 28  2  0
 17 18  1  0
 18 19  1  0
 19 20  2  0
 19 21  1  0
 21 22  2  0
 21 26  1  0
 22 23  1  0
 23 24  1  1
 23 25  1  0
 25 26  1  0
 26 27  1  6
 28 29  1  0
 29 30  1  0
 30 31  1  0
 32 33  2  0
M  END
