
     RDKit          3D

 33 35  0  0  0  0  0  0  0  0999 V2000
   -3.6340    4.5020   -1.8570 C   0  0  0  0  0  0  0  0  0  0  0  0
   -3.9640    3.0910   -1.7600 N   0  0  0  0  0  0  0  0  0  0  0  0
   -3.4220    2.3190   -0.7090 C   0  0  0  0  0  0  0  0  0  0  0  0
   -2.1650    1.6880   -0.8700 N   0  0  0  0  0  0  0  0  0  0  0  0
   -2.0250    0.3860   -0.8980 C   0  0  0  0  0  0  0  0  0  0  0  0
   -0.6920   -0.1750   -1.0680 C   0  0  0  0  0  0  0  0  0  0  0  0
   -0.4980   -1.4740   -1.0990 C   0  0  0  0  0  0  0  0  0  0  0  0
   -1.6340   -2.3670   -0.9630 C   0  0  0  0  0  0  0  0  0  0  0  0
   -1.6770   -3.6770   -0.9710 C   0  0  0  0  0  0  0  0  0  0  0  0
   -2.9940   -4.3230   -0.8090 C   0  0  0  0  0  0  0  0  0  0  0  0
   -3.0950   -5.7310   -0.8110 N   0  0  0  0  0  0  0  0  0  0  0  0
   -3.9960   -3.5940   -0.6720 O   0  0  0  0  0  0  0  0  0  0  0  0
    0.8440   -2.0420   -1.2550 C   0  0  1  0  0  0  0  0  0  0  0  0
    1.2110   -3.0250   -0.1550 C   0  0  0  0  0  0  0  0  0  0  0  0
    1.9410   -4.0970   -0.8770 C   0  0  0  0  0  0  0  0  0  0  0  0
    1.5550   -4.0780   -2.2000 O   0  0  0  0  0  0  0  0  0  0  0  0
    0.9080   -2.9240   -2.4950 C   0  0  0  0  0  0  0  0  0  0  0  0
    1.9860   -1.0530   -1.3000 C   0  0  0  0  0  0  0  0  0  0  0  0
    1.6430    0.2150   -0.7240 N   0  0  0  0  0  0  0  0  0  0  0  0
    2.4550    0.8230    0.2520 C   0  0  0  0  0  0  0  0  0  0  0  0
    1.9550    1.8400    1.0770 C   0  0  0  0  0  0  0  0  0  0  0  0
    2.7450    2.4560    2.0220 C   0  0  0  0  0  0  0  0  0  0  0  0
    4.0740    2.0940    2.1980 C   0  0  0  0  0  0  0  0  0  0  0  0
    4.9080    2.7180    3.1670 N   0  0  0  0  0  0  0  0  0  0  0  0
    4.5790    1.1060    1.4040 C   0  0  0  0  0  0  0  0  0  0  0  0
    5.9840    0.6750    1.5400 C   0  0  0  0  0  0  0  0  0  0  0  0
    6.2410   -0.3280    0.6320 O   0  0  0  0  0  0  0  0  0  0  0  0
    3.7680    0.5030    0.4630 C   0  0  0  0  0  0  0  0  0  0  0  0
    0.4430    0.8080   -1.2310 C   0  0  0  0  0  0  0  0  0  0  0  0
   -4.0660    2.1720    0.4280 C   0  0  0  0  0  0  0  0  0  0  0  0
   -5.4060    2.8340    0.6230 C   0  0  0  0  0  0  0  0  0  0  0  0
   -3.5420    1.3870    1.5370 C   0  0  0  0  0  0  0  0  0  0  0  0
   -4.1880    1.2580    2.6370 N   0  0  0  0  0  0  0  0  0  0  0  0
  1  2  1  0
  2  3  1  0
  3  4  1  0
  3 30  2  3
  4  5  2  3
  5  6  1  0
  6  7  2  0
  6 29  1  0
  7  8  1  0
  7 13  1  0
  8  9  2  3
  9 10  1  0
 10 11  1  0
 10 12  2  0
 13 14  1  1
 13 17  1  0
 13 18  1  0
 14 15  1  0
 15 16  1  0
 16 17  1  0
 18 19  1  0
 19 20  1  0
 19 29  1  0
 20 21  2  0
 20 28  1  0
 21 22  1  0
 22 23  2  0
 23 24  1  0
 23 25  1  0
 25 26  1  0
 25 28  2  0
 26 27  1  0
 30 31  1  0
 30 32  1  0
 32 33  2  0
M  CHG  2  24   1  33   1
M  END
