
     RDKit          3D

 33 35  0  0  0  0  0  0  0  0999 V2000
    7.0070   -2.1850   -1.8710 C   0  0  0  0  0  0  0  0  0  0  0  0
    7.7330   -1.0740   -2.6420 C   0  0  0  0  0  0  0  0  0  0  0  0
    7.9400    0.0680   -1.6720 C   0  0  0  0  0  0  0  0  0  0  0  0
    6.6190    0.4510   -1.2560 N   0  0  0  0  0  0  0  0  0  0  0  0
    6.4260    1.4450   -0.3650 C   0  0  0  0  0  0  0  0  0  0  0  0
    7.4800    2.0490    0.1140 O   0  0  0  0  0  0  0  0  0  0  0  0
    5.3370    1.9900    0.1760 N   0  0  0  0  0  0  0  0  0  0  0  0
    4.2640    2.5480    0.7280 C   0  0  0  0  0  0  0  0  0  0  0  0
    4.6500    3.4920    1.5530 O   0  0  0  0  0  0  0  0  0  0  0  0
    2.9340    2.3370    0.6040 N   0  0  0  0  0  0  0  0  0  0  0  0
    2.0090    3.1330    1.3600 C   0  0  0  0  0  0  0  0  0  0  0  0
    0.6070    2.7700    1.1210 C   0  0  0  0  0  0  0  0  0  0  0  0
    0.2030    1.3490    1.5090 C   0  0  1  0  0  0  0  0  0  0  0  0
   -1.2630    1.1430    1.2410 C   0  0  0  0  0  0  0  0  0  0  0  0
   -1.5300    0.3210    0.1290 N   0  0  0  0  0  0  0  0  0  0  0  0
   -2.9220    0.0380   -0.1010 C   0  0  0  0  0  0  0  0  0  0  0  0
   -3.6030    1.2970   -0.5250 C   0  0  1  0  0  0  0  0  0  0  0  0
   -2.9930    1.8590   -1.8080 C   0  0  0  0  0  0  0  0  0  0  0  0
   -3.8890    1.3590   -2.9250 C   0  0  0  0  0  0  0  0  0  0  0  0
   -4.9070    0.4940   -2.1750 C   0  0  0  0  0  0  0  0  0  0  0  0
   -4.9710    1.1760   -0.9290 N   0  0  1  0  0  0  0  0  0  0  0  0
   -5.8860    0.7050    0.0280 C   0  0  0  0  0  0  0  0  0  0  0  0
   -7.0630   -0.0560   -0.5280 C   0  0  0  0  0  0  0  0  0  0  0  0
   -7.8860   -0.4550    0.6180 N   0  0  0  0  0  0  0  0  0  0  0  0
   -0.7200   -0.9010    0.1680 C   0  0  2  0  0  0  0  0  0  0  0  0
   -0.9790   -1.6150    1.4440 C   0  0  0  0  0  0  0  0  0  0  0  0
   -0.2330   -2.8810    1.6280 C   0  0  0  0  0  0  0  0  0  0  0  0
   -0.8020   -4.0790    1.7800 C   0  0  0  0  0  0  0  0  0  0  0  0
    0.2250   -5.1030    1.9370 C   0  0  0  0  0  0  0  0  0  0  0  0
    1.4920   -4.3760    1.8700 C   0  0  0  0  0  0  0  0  0  0  0  0
    1.1950   -3.0920    1.6900 C   0  0  0  0  0  0  0  0  0  0  0  0
    0.6800   -0.3580    0.0040 C   0  0  0  0  0  0  0  0  0  0  0  0
    1.0500    0.3800    1.0880 O   0  0  0  0  0  0  0  0  0  0  0  0
  1  2  1  0
  2  3  1  0
  3  4  1  0
  4  5  1  0
  5  6  2  0
  5  7  1  0
  7  8  1  0
  8  9  2  0
  8 10  1  0
 10 11  1  0
 11 12  1  0
 13 12  1  6
 13 14  1  0
 13 33  1  0
 14 15  1  0
 15 16  1  0
 15 25  1  0
 17 16  1  6
 17 18  1  0
 17 21  1  0
 18 19  1  0
 19 20  1  0
 20 21  1  0
 21 22  1  1
 22 23  1  0
 23 24  1  0
 25 26  1  1
 25 32  1  0
 26 27  1  0
 27 28  2  0
 27 31  1  0
 28 29  1  0
 29 30  1  0
 30 31  2  0
 32 33  1  0
M  CHG  2  21   1  24   1
M  END
