
     RDKit          3D

 32 35  0  0  0  0  0  0  0  0999 V2000
   -4.0180    0.4900   -1.9680 C   0  0  0  0  0  0  0  0  0  0  0  0
   -4.3070   -0.2390   -0.7250 N   0  0  0  0  0  0  0  0  0  0  0  0
   -3.9560    0.3170    0.5250 C   0  0  0  0  0  0  0  0  0  0  0  0
   -4.3010   -0.4540    1.9020 S   0  0  0  0  0  0  0  0  0  0  0  0
   -3.2960    1.6180    0.5470 C   0  0  0  0  0  0  0  0  0  0  0  0
   -4.0170    2.8030    0.7660 C   0  0  0  0  0  0  0  0  0  0  0  0
   -3.0820    3.8080    0.6890 C   0  0  0  0  0  0  0  0  0  0  0  0
   -1.9190    3.2800    0.4490 O   0  0  0  0  0  0  0  0  0  0  0  0
   -1.9840    1.9650    0.3540 C   0  0  0  0  0  0  0  0  0  0  0  0
   -0.8830    1.0490    0.0980 C   0  0  0  0  0  0  0  0  0  0  0  0
    0.2010    1.6330   -0.2810 O   0  0  0  0  0  0  0  0  0  0  0  0
   -0.8750   -0.3300    0.2170 N   0  0  0  0  0  0  0  0  0  0  0  0
    0.3140   -1.1810   -0.0690 C   0  0  1  0  0  0  0  0  0  0  0  0
    0.7790   -1.7590    1.2310 C   0  0  0  0  0  0  0  0  0  0  0  0
    0.4600   -2.9910    1.6960 N   0  0  0  0  0  0  0  0  0  0  0  0
    0.9800   -3.1300    2.8980 N   0  0  0  0  0  0  0  0  0  0  0  0
    1.6380   -2.0310    3.2570 C   0  0  0  0  0  0  0  0  0  0  0  0
    1.5130   -1.1320    2.1770 C   0  0  0  0  0  0  0  0  0  0  0  0
    2.1940    0.1680    2.2280 C   0  0  0  0  0  0  0  0  0  0  0  0
    2.2170    0.7190    3.3850 O   0  0  0  0  0  0  0  0  0  0  0  0
    2.8120    0.8660    1.2020 N   0  0  0  0  0  0  0  0  0  0  0  0
    3.4560    2.1300    1.2520 C   0  0  0  0  0  0  0  0  0  0  0  0
    3.5770    2.9480    2.3170 C   0  0  0  0  0  0  0  0  0  0  0  0
    4.2390    4.1790    2.2310 C   0  0  0  0  0  0  0  0  0  0  0  0
    4.7880    4.5780    1.0250 C   0  0  0  0  0  0  0  0  0  0  0  0
    4.6710    3.7750   -0.0260 N   0  0  0  0  0  0  0  0  0  0  0  0
    4.0350    2.5920    0.0580 C   0  0  0  0  0  0  0  0  0  0  0  0
   -0.1600   -2.2960   -0.9370 C   0  0  2  0  0  0  0  0  0  0  0  0
    0.9580   -3.2490   -1.3410 C   0  0  0  0  0  0  0  0  0  0  0  0
    0.1520   -4.1730   -2.2680 C   0  0  0  0  0  0  0  0  0  0  0  0
   -0.6230   -3.1700   -3.1200 C   0  0  0  0  0  0  0  0  0  0  0  0
   -0.6370   -1.8630   -2.3080 C   0  0  0  0  0  0  0  0  0  0  0  0
  1  2  1  0
  2  3  1  0
  3  4  2  0
  3  5  1  0
  5  6  1  0
  5  9  2  0
  6  7  2  0
  7  8  1  0
  8  9  1  0
  9 10  1  0
 10 11  2  0
 10 12  1  0
 13 12  1  1
 13 14  1  0
 13 28  1  0
 14 15  1  0
 14 18  2  0
 15 16  1  0
 16 17  2  0
 17 18  1  0
 18 19  1  0
 19 20  2  0
 19 21  1  0
 21 22  1  0
 22 23  2  0
 22 27  1  0
 23 24  1  0
 24 25  2  0
 25 26  1  0
 26 27  2  0
 28 29  1  6
 28 32  1  0
 29 30  1  0
 30 31  1  0
 31 32  1  0
M  END
