
     RDKit          3D

 33 35  0  0  0  0  0  0  0  0999 V2000
   -2.2600    7.2030   -1.2010 C   0  0  0  0  0  0  0  0  0  0  0  0
   -2.6820    5.9990   -1.4880 C   0  0  0  0  0  0  0  0  0  0  0  0
   -1.9320    4.8050   -1.0270 C   0  0  0  0  0  0  0  0  0  0  0  0
   -2.2980    3.5780   -1.2780 C   0  0  0  0  0  0  0  0  0  0  0  0
   -1.6160    2.3960   -0.8600 N   0  0  0  0  0  0  0  0  0  0  0  0
   -0.4430    2.3090   -0.1200 C   0  0  0  0  0  0  0  0  0  0  0  0
    0.0440    3.4500    0.2600 O   0  0  0  0  0  0  0  0  0  0  0  0
    0.3230    1.1080    0.2670 C   0  0  0  0  0  0  0  0  0  0  0  0
    0.0280   -0.2120   -0.1690 C   0  0  0  0  0  0  0  0  0  0  0  0
   -0.5370   -0.6790   -1.2770 C   0  0  0  0  0  0  0  0  0  0  0  0
   -1.0340   -0.0170   -2.4330 N   0  0  0  0  0  0  0  0  0  0  0  0
   -2.1040   -0.8450   -2.8730 N   0  0  0  0  0  0  0  0  0  0  0  0
   -1.3530   -2.1150   -2.8680 C   0  0  2  0  0  0  0  0  0  0  0  0
   -2.1390   -3.2900   -3.2320 C   0  0  0  0  0  0  0  0  0  0  0  0
   -2.7140   -4.0770   -2.0840 C   0  0  0  0  0  0  0  0  0  0  0  0
   -1.6940   -5.0560   -1.6150 C   0  0  0  0  0  0  0  0  0  0  0  0
   -0.3970   -4.4820   -1.1720 C   0  0  0  0  0  0  0  0  0  0  0  0
   -0.4840   -3.0950   -0.5820 C   0  0  0  0  0  0  0  0  0  0  0  0
   -0.7920   -2.0890   -1.5490 N   0  0  0  0  0  0  0  0  0  0  0  0
    1.0600    1.3140    1.3780 C   0  0  0  0  0  0  0  0  0  0  0  0
    0.8960    2.6380    1.9060 O   0  0  0  0  0  0  0  0  0  0  0  0
    1.9530    0.4500    2.0790 C   0  0  0  0  0  0  0  0  0  0  0  0
    2.5750    0.9260    3.1610 C   0  0  0  0  0  0  0  0  0  0  0  0
    2.4310    2.2780    3.7110 C   0  0  0  0  0  0  0  0  0  0  0  0
    2.3330   -0.9090    1.6760 C   0  0  0  0  0  0  0  0  0  0  0  0
    3.4560   -1.4230    2.4880 N   0  0  0  0  0  0  0  0  0  0  0  0
    3.8660   -2.7260    1.9330 C   0  0  0  0  0  0  0  0  0  0  0  0
    5.1150   -3.2130    2.6320 C   0  0  0  0  0  0  0  0  0  0  0  0
    4.8990   -3.3680    4.0580 N   0  0  0  0  0  0  0  0  0  0  0  0
   -3.5500    3.3350   -2.0840 C   0  0  0  0  0  0  0  0  0  0  0  0
   -4.2270    4.4300   -2.4950 O   0  0  0  0  0  0  0  0  0  0  0  0
   -3.8840    5.7340   -2.2570 C   0  0  0  0  0  0  0  0  0  0  0  0
   -4.6350    6.7200   -2.7220 C   0  0  0  0  0  0  0  0  0  0  0  0
  1  2  2  0
  2  3  1  0
  2 32  1  0
  3  4  2  0
  4  5  1  0
  4 30  1  0
  5  6  1  0
  6  7  2  0
  6  8  1  0
  8  9  1  0
  8 20  2  3
  9 10  2  3
 10 11  1  0
 10 19  1  0
 11 12  1  0
 12 13  1  0
 13 14  1  1
 13 19  1  0
 14 15  1  0
 15 16  1  0
 16 17  1  0
 17 18  1  0
 18 19  1  0
 20 21  1  0
 20 22  1  0
 22 23  2  3
 22 25  1  0
 23 24  1  0
 25 26  1  0
 26 27  1  0
 27 28  1  0
 28 29  1  0
 30 31  1  0
 31 32  1  0
 32 33  2  0
M  CHG  2  26   1  29   1
M  END
