
     RDKit          3D

 33 35  0  0  0  0  0  0  0  0999 V2000
   -6.4060    1.8610   -2.0210 C   0  0  0  0  0  0  0  0  0  0  0  0
   -5.2460    1.7400   -1.3380 C   0  0  0  0  0  0  0  0  0  0  0  0
   -4.4670    2.9800   -1.4590 C   0  0  0  0  0  0  0  0  0  0  0  0
   -3.4000    3.4000   -0.9830 N   0  0  0  0  0  0  0  0  0  0  0  0
   -5.0240    0.7610   -0.3000 C   0  0  0  0  0  0  0  0  0  0  0  0
   -3.8710    0.3840    0.2140 C   0  0  0  0  0  0  0  0  0  0  0  0
   -2.6770    0.9560   -0.3070 N   0  0  0  0  0  0  0  0  0  0  0  0
   -1.3500    0.7170    0.1490 C   0  0  0  0  0  0  0  0  0  0  0  0
   -1.1300   -0.0470    1.0790 O   0  0  0  0  0  0  0  0  0  0  0  0
   -0.2130    1.4330   -0.5480 C   0  0  0  0  0  0  0  0  0  0  0  0
    1.0750    0.8750   -0.0260 C   0  0  0  0  0  0  0  0  0  0  0  0
    1.2100   -0.5620   -0.3710 C   0  0  0  0  0  0  0  0  0  0  0  0
    2.4440   -1.1620    0.1130 N   0  0  0  0  0  0  0  0  0  0  0  0
    3.6700   -0.6320   -0.3510 C   0  0  0  0  0  0  0  0  0  0  0  0
    3.7490    0.3130   -1.1460 O   0  0  0  0  0  0  0  0  0  0  0  0
    4.9260   -1.2550    0.1550 C   0  0  0  0  0  0  0  0  0  0  0  0
    6.0970   -0.5790   -0.4280 N   0  0  0  0  0  0  0  0  0  0  0  0
    6.6880    0.5500    0.2310 C   0  0  0  0  0  0  0  0  0  0  0  0
    8.1720    0.6480    0.1230 C   0  0  1  0  0  0  0  0  0  0  0  0
    8.7970    0.9150    1.4060 N   0  0  0  0  0  0  0  0  0  0  0  0
    8.7290   -0.6370   -0.4680 C   0  0  0  0  0  0  0  0  0  0  0  0
    8.1170   -0.7860   -1.8680 C   0  0  0  0  0  0  0  0  0  0  0  0
    6.6660   -1.0260   -1.6520 C   0  0  0  0  0  0  0  0  0  0  0  0
    5.9240   -1.6020   -2.4930 O   0  0  0  0  0  0  0  0  0  0  0  0
   -3.7670   -0.6920    1.2430 C   0  0  2  0  0  0  0  0  0  0  0  0
   -3.2160   -1.9090    0.6350 N   0  0  0  0  0  0  0  0  0  0  0  0
   -4.2610   -2.8800    0.3830 C   0  0  0  0  0  0  0  0  0  0  0  0
   -4.9320   -0.9930    2.0620 C   0  0  0  0  0  0  0  0  0  0  0  0
   -6.2200   -0.5820    1.5080 C   0  0  0  0  0  0  0  0  0  0  0  0
   -7.4450   -0.8450    2.0190 C   0  0  0  0  0  0  0  0  0  0  0  0
   -8.4170   -0.2420    1.1220 C   0  0  0  0  0  0  0  0  0  0  0  0
   -7.5690    0.5560    0.1670 C   0  0  0  0  0  0  0  0  0  0  0  0
   -6.2970    0.2790    0.3550 C   0  0  0  0  0  0  0  0  0  0  0  0
  1  2  2  0
  2  3  1  0
  2  5  1  0
  3  4  2  0
  5  6  2  0
  5 33  1  0
  6  7  1  0
  6 25  1  0
  7  8  1  0
  8  9  2  0
  8 10  1  0
 10 11  1  0
 11 12  1  0
 12 13  1  0
 13 14  1  0
 14 15  2  0
 14 16  1  0
 16 17  1  0
 17 18  1  0
 17 23  1  0
 18 19  1  0
 19 20  1  1
 19 21  1  0
 21 22  1  0
 22 23  1  0
 23 24  2  0
 25 26  1  6
 25 28  1  0
 26 27  1  0
 28 29  1  0
 29 30  2  0
 29 33  1  0
 30 31  1  0
 31 32  1  0
 32 33  2  0
M  CHG  2  20   1  26   1
M  END
