
     RDKit          3D

 33 35  0  0  0  0  0  0  0  0999 V2000
   -9.3290   -1.1010    3.0130 C   0  0  0  0  0  0  0  0  0  0  0  0
   -7.9950   -1.1130    2.4330 N   0  0  0  0  0  0  0  0  0  0  0  0
   -8.0820   -1.6750    1.0880 C   0  0  0  0  0  0  0  0  0  0  0  0
   -8.4040   -0.5610    0.1430 C   0  0  0  0  0  0  0  0  0  0  0  0
   -7.3750    0.4350    0.1820 N   0  0  0  0  0  0  0  0  0  0  0  0
   -6.0600    0.2890   -0.3280 C   0  0  0  0  0  0  0  0  0  0  0  0
   -5.6790   -0.8180   -1.0440 C   0  0  0  0  0  0  0  0  0  0  0  0
   -4.4260   -0.9780   -1.5640 C   0  0  0  0  0  0  0  0  0  0  0  0
   -3.4460   -0.0110   -1.3960 C   0  0  0  0  0  0  0  0  0  0  0  0
   -2.1650   -0.1930   -1.9520 N   0  0  0  0  0  0  0  0  0  0  0  0
   -1.0120    0.5840   -1.7070 C   0  0  0  0  0  0  0  0  0  0  0  0
   -1.0560    1.5500   -0.9190 O   0  0  0  0  0  0  0  0  0  0  0  0
    0.2260    0.2320   -2.3920 C   0  0  0  0  0  0  0  0  0  0  0  0
    0.2400   -0.7410   -3.1740 O   0  0  0  0  0  0  0  0  0  0  0  0
    1.4350    0.9540   -2.2080 N   0  0  0  0  0  0  0  0  0  0  0  0
    2.6750    0.6470   -2.8580 C   0  0  1  0  0  0  0  0  0  0  0  0
    3.1840    1.8360   -3.6810 C   0  0  0  0  0  0  0  0  0  0  0  0
    4.6180    1.4830   -3.9090 C   0  0  0  0  0  0  0  0  0  0  0  0
    5.0130    0.4960   -2.8260 C   0  0  0  0  0  0  0  0  0  0  0  0
    3.8170    0.4750   -1.8800 C   0  0  2  0  0  0  0  0  0  0  0  0
    3.7290   -0.8440   -1.1470 C   0  0  0  0  0  0  0  0  0  0  0  0
    4.8290   -0.9920   -0.2160 N   0  0  0  0  0  0  0  0  0  0  0  0
    5.0780   -0.1060    0.8670 C   0  0  0  0  0  0  0  0  0  0  0  0
    4.2870    0.8840    1.0390 O   0  0  0  0  0  0  0  0  0  0  0  0
    6.2110   -0.3150    1.7720 C   0  0  0  0  0  0  0  0  0  0  0  0
    6.4200    0.5150    2.7600 C   0  0  0  0  0  0  0  0  0  0  0  0
    7.5730    0.2900    3.6680 C   0  0  0  0  0  0  0  0  0  0  0  0
    7.7000   -1.1520    3.8610 N   0  0  0  0  0  0  0  0  0  0  0  0
    8.1160   -1.7180    2.6000 C   0  0  0  0  0  0  0  0  0  0  0  0
    7.0970   -1.4660    1.5470 C   0  0  0  0  0  0  0  0  0  0  0  0
   -3.8100    1.0990   -0.6850 C   0  0  0  0  0  0  0  0  0  0  0  0
   -5.1020    1.2600   -0.1510 C   0  0  0  0  0  0  0  0  0  0  0  0
   -5.4660    2.4740    0.6150 C   0  0  0  0  0  0  0  0  0  0  0  0
  1  2  1  0
  2  3  1  0
  3  4  1  0
  4  5  1  0
  5  6  1  0
  6  7  2  0
  6 32  1  0
  7  8  1  0
  8  9  2  0
  9 10  1  0
  9 31  1  0
 10 11  1  0
 11 12  2  0
 11 13  1  0
 13 14  2  0
 13 15  1  0
 16 15  1  1
 16 17  1  0
 16 20  1  0
 17 18  1  0
 18 19  1  0
 19 20  1  0
 20 21  1  6
 21 22  1  0
 22 23  1  0
 23 24  2  0
 23 25  1  0
 25 26  2  0
 25 30  1  0
 26 27  1  0
 27 28  1  0
 28 29  1  0
 29 30  1  0
 31 32  2  0
 32 33  1  0
M  CHG  2   2   1  28   1
M  END
