
     RDKit          3D

 17 18  0  0  0  0  0  0  0  0999 V2000
    3.7970    1.5810    0.0680 C   0  0  0  0  0  0  0  0  0  0  0  0
    3.4250    0.0970    0.2050 C   0  0  1  0  0  0  0  0  0  0  0  0
    4.6440   -0.5830    0.8490 C   0  0  0  0  0  0  0  0  0  0  0  0
    2.4180    0.0240    1.1170 O   0  0  0  0  0  0  0  0  0  0  0  0
    1.2470   -0.5930    0.7040 C   0  0  0  0  0  0  0  0  0  0  0  0
    0.6840    0.1760   -0.4360 C   0  0  0  0  0  0  0  0  0  0  0  0
   -0.5360   -0.3450   -0.9700 N   0  0  0  0  0  0  0  0  0  0  0  0
   -0.5000   -1.2850   -2.0370 C   0  0  0  0  0  0  0  0  0  0  0  0
    0.4950   -1.3380   -2.8390 O   0  0  0  0  0  0  0  0  0  0  0  0
   -1.6680   -2.1940   -2.1700 C   0  0  0  0  0  0  0  0  0  0  0  0
   -2.8570   -1.3990   -2.0590 O   0  0  0  0  0  0  0  0  0  0  0  0
   -3.0180   -0.4910   -1.0220 C   0  0  0  0  0  0  0  0  0  0  0  0
   -4.2050   -0.1560   -0.5880 C   0  0  0  0  0  0  0  0  0  0  0  0
   -4.4230    0.7910    0.4950 C   0  0  0  0  0  0  0  0  0  0  0  0
   -3.2080    1.3560    1.1060 C   0  0  0  0  0  0  0  0  0  0  0  0
   -1.9390    0.9160    0.5480 C   0  0  0  0  0  0  0  0  0  0  0  0
   -1.7880    0.0720   -0.4390 C   0  0  0  0  0  0  0  0  0  0  0  0
  2  1  1  1
  2  3  1  0
  2  4  1  0
  4  5  1  0
  5  6  1  0
  6  7  1  0
  7  8  1  0
  7 17  1  0
  8  9  2  0
  8 10  1  0
 10 11  1  0
 11 12  1  0
 12 13  2  0
 12 17  1  0
 13 14  1  0
 14 15  1  0
 15 16  1  0
 16 17  2  0
M  END
