
     RDKit          3D

 17 18  0  0  0  0  0  0  0  0999 V2000
   -3.3530    1.0780   -0.4710 C   0  0  0  0  0  0  0  0  0  0  0  0
   -2.3200   -0.0580   -0.4710 C   0  0  2  0  0  0  0  0  0  0  0  0
   -1.4560    0.0890   -1.6600 C   0  0  0  0  0  0  0  0  0  0  0  0
   -3.1490   -1.3420   -0.5020 C   0  0  0  0  0  0  0  0  0  0  0  0
   -3.6170   -1.4290    0.9350 C   0  0  0  0  0  0  0  0  0  0  0  0
   -2.8940   -0.3260    1.6790 C   0  0  0  0  0  0  0  0  0  0  0  0
   -1.7110   -0.1450    0.8090 N   0  0  0  0  0  0  0  0  0  0  0  0
   -0.4010   -0.0980    1.3030 C   0  0  0  0  0  0  0  0  0  0  0  0
   -0.1860   -0.2130    2.5600 O   0  0  0  0  0  0  0  0  0  0  0  0
    0.8030    0.0810    0.4620 C   0  0  0  0  0  0  0  0  0  0  0  0
    1.9880    0.0890    1.2380 O   0  0  0  0  0  0  0  0  0  0  0  0
    3.2090    0.2520    0.5680 C   0  0  0  0  0  0  0  0  0  0  0  0
    4.3320    0.3610    1.2510 C   0  0  0  0  0  0  0  0  0  0  0  0
    5.6400    0.5340    0.5840 C   0  0  0  0  0  0  0  0  0  0  0  0
    5.5930    0.5720   -0.8060 O   0  0  0  0  0  0  0  0  0  0  0  0
    4.4210    0.4580   -1.5000 C   0  0  0  0  0  0  0  0  0  0  0  0
    3.2730    0.3050   -0.8800 C   0  0  0  0  0  0  0  0  0  0  0  0
  2  1  1  1
  2  3  1  0
  2  4  1  0
  2  7  1  0
  4  5  1  0
  5  6  1  0
  6  7  1  0
  7  8  1  0
  8  9  2  0
  8 10  1  0
 10 11  1  0
 11 12  1  0
 12 13  2  0
 12 17  1  0
 13 14  1  0
 14 15  1  0
 15 16  1  0
 16 17  2  0
M  END
