
     RDKit          3D

 17 18  0  0  0  0  0  0  0  0999 V2000
   -3.0650    1.2020   -1.6470 C   0  0  0  0  0  0  0  0  0  0  0  0
   -3.6700    0.1290   -0.8230 C   0  0  0  0  0  0  0  0  0  0  0  0
   -4.9700   -0.1770   -0.9540 C   0  0  0  0  0  0  0  0  0  0  0  0
   -5.3150   -1.2680   -0.0290 C   0  0  0  0  0  0  0  0  0  0  0  0
   -4.0330   -1.5340    0.6400 C   0  0  0  0  0  0  0  0  0  0  0  0
   -3.0650   -0.7120    0.1740 C   0  0  0  0  0  0  0  0  0  0  0  0
   -1.6900   -0.7250    0.6320 C   0  0  0  0  0  0  0  0  0  0  0  0
   -1.3440   -1.5700    1.5490 O   0  0  0  0  0  0  0  0  0  0  0  0
   -0.6900    0.1390    0.1360 N   0  0  0  0  0  0  0  0  0  0  0  0
    0.6620    0.0790    0.6320 C   0  0  0  0  0  0  0  0  0  0  0  0
    0.8970   -0.7750    1.5210 O   0  0  0  0  0  0  0  0  0  0  0  0
    1.7160    0.9610    0.1360 C   0  0  0  0  0  0  0  0  0  0  0  0
    3.0480    0.7440    0.7750 C   0  0  1  0  0  0  0  0  0  0  0  0
    3.5000   -0.6720    0.5230 C   0  0  0  0  0  0  0  0  0  0  0  0
    4.9900   -0.4990    0.3340 C   0  0  0  0  0  0  0  0  0  0  0  0
    5.1430    0.9390    0.0130 C   0  0  0  0  0  0  0  0  0  0  0  0
    3.9590    1.5860    0.1760 O   0  0  0  0  0  0  0  0  0  0  0  0
  1  2  1  0
  2  3  2  0
  2  6  1  0
  3  4  1  0
  4  5  1  0
  5  6  2  0
  6  7  1  0
  7  8  2  0
  7  9  1  0
  9 10  1  0
 10 11  2  0
 10 12  1  0
 13 12  1  6
 13 14  1  0
 13 17  1  0
 14 15  1  0
 15 16  1  0
 16 17  1  0
M  END
