
     RDKit          3D

 17 18  0  0  0  0  0  0  0  0999 V2000
   -0.2880    0.1640   -1.7480 O   0  0  0  0  0  0  0  0  0  0  0  0
   -0.1240   -0.0010   -0.5110 C   0  0  0  0  0  0  0  0  0  0  0  0
    1.2340   -0.1290    0.0230 C   0  0  0  0  0  0  0  0  0  0  0  0
    2.2270   -0.0290   -1.1030 C   0  0  0  0  0  0  0  0  0  0  0  0
    3.6120   -0.1610   -0.5420 C   0  0  0  0  0  0  0  0  0  0  0  0
    4.5850    0.7290   -0.6160 C   0  0  0  0  0  0  0  0  0  0  0  0
    5.7890    0.2050    0.0660 C   0  0  0  0  0  0  0  0  0  0  0  0
    5.3740   -1.1170    0.5460 C   0  0  0  0  0  0  0  0  0  0  0  0
    4.1210   -1.3070    0.1860 C   0  0  0  0  0  0  0  0  0  0  0  0
   -1.2990   -0.0500    0.2730 N   0  0  0  0  0  0  0  0  0  0  0  0
   -2.6040    0.0790   -0.2920 C   0  0  2  0  0  0  0  0  0  0  0  0
   -3.3920    1.2420    0.2630 C   0  0  0  0  0  0  0  0  0  0  0  0
   -4.8630    0.9540   -0.0710 C   0  0  0  0  0  0  0  0  0  0  0  0
   -5.2830   -0.1550    0.8900 C   0  0  0  0  0  0  0  0  0  0  0  0
   -4.5440   -1.2970    0.5850 O   0  0  0  0  0  0  0  0  0  0  0  0
   -3.3460   -1.1900   -0.1000 C   0  0  0  0  0  0  0  0  0  0  0  0
   -2.8550   -2.2340   -0.5910 O   0  0  0  0  0  0  0  0  0  0  0  0
  1  2  2  0
  2  3  1  0
  2 10  1  0
  3  4  1  0
  4  5  1  0
  5  6  2  0
  5  9  1  0
  6  7  1  0
  7  8  1  0
  8  9  2  0
 11 10  1  1
 11 12  1  0
 11 16  1  0
 12 13  1  0
 13 14  1  0
 14 15  1  0
 15 16  1  0
 16 17  2  0
M  END
