
     RDKit          3D

 17 18  0  0  0  0  0  0  0  0999 V2000
    0.7260   -0.6460    0.8460 O   0  0  0  0  0  0  0  0  0  0  0  0
    0.4190   -0.9890   -0.3250 C   0  0  0  0  0  0  0  0  0  0  0  0
    1.4100   -1.5410   -1.1820 N   0  0  0  0  0  0  0  0  0  0  0  0
    2.7760   -1.7350   -0.7770 C   0  0  0  0  0  0  0  0  0  0  0  0
    3.4450   -0.4760   -0.3880 C   0  0  0  0  0  0  0  0  0  0  0  0
    3.9330   -0.3080    0.8110 C   0  0  0  0  0  0  0  0  0  0  0  0
    4.6170    0.9560    1.2350 C   0  0  0  0  0  0  0  0  0  0  0  0
    4.6650    1.8990    0.2200 O   0  0  0  0  0  0  0  0  0  0  0  0
    4.1530    1.7190   -1.0350 C   0  0  0  0  0  0  0  0  0  0  0  0
    3.5620    0.5970   -1.3630 C   0  0  0  0  0  0  0  0  0  0  0  0
   -0.8940   -0.7980   -0.7050 O   0  0  0  0  0  0  0  0  0  0  0  0
   -1.8690   -0.2460    0.1630 C   0  0  1  0  0  0  0  0  0  0  0  0
   -2.3690    1.0230   -0.4580 C   0  0  0  0  0  0  0  0  0  0  0  0
   -3.5290    1.6350    0.2680 C   0  0  0  0  0  0  0  0  0  0  0  0
   -4.3500    0.6730    1.0480 C   0  0  0  0  0  0  0  0  0  0  0  0
   -4.3030   -0.7400    0.5390 C   0  0  0  0  0  0  0  0  0  0  0  0
   -2.9130   -1.2760    0.3920 C   0  0  0  0  0  0  0  0  0  0  0  0
  1  2  2  0
  2  3  1  0
  2 11  1  0
  3  4  1  0
  4  5  1  0
  5  6  2  0
  5 10  1  0
  6  7  1  0
  7  8  1  0
  8  9  1  0
  9 10  2  0
 12 11  1  6
 12 13  1  0
 12 17  1  0
 13 14  1  0
 14 15  1  0
 15 16  1  0
 16 17  1  0
M  END
