
     RDKit          3D

 21 22  0  0  0  0  0  0  0  0999 V2000
   -2.7620   -0.0850   -1.8690 N   0  0  0  0  0  0  0  0  0  0  0  0
   -3.1350   -0.3520   -0.4920 C   0  0  2  0  0  0  0  0  0  0  0  0
   -2.0280   -0.0770    0.4650 C   0  0  0  0  0  0  0  0  0  0  0  0
   -1.5210    1.3320    0.4800 C   0  0  2  0  0  0  0  0  0  0  0  0
   -0.3770    1.4750    1.5010 C   0  0  0  0  0  0  0  0  0  0  0  0
    0.7580    0.5930    1.1870 C   0  0  0  0  0  0  0  0  0  0  0  0
    0.7670   -0.6760    1.7280 C   0  0  0  0  0  0  0  0  0  0  0  0
    1.8450   -1.4830    1.4180 C   0  0  0  0  0  0  0  0  0  0  0  0
    2.8820   -1.0650    0.6040 C   0  0  0  0  0  0  0  0  0  0  0  0
    3.9580   -1.8880    0.3010 C   0  0  0  0  0  0  0  0  0  0  0  0
    4.9990   -1.4850   -0.5090 C   0  0  0  0  0  0  0  0  0  0  0  0
    4.9650   -0.2110   -1.0370 C   0  0  0  0  0  0  0  0  0  0  0  0
    3.8980    0.6270   -0.7460 C   0  0  0  0  0  0  0  0  0  0  0  0
    2.8670    0.2030    0.0660 C   0  0  0  0  0  0  0  0  0  0  0  0
    1.7830    1.0250    0.3750 C   0  0  0  0  0  0  0  0  0  0  0  0
   -2.5410    2.3080    0.9240 C   0  0  0  0  0  0  0  0  0  0  0  0
   -3.6630    1.8870    1.2750 O   0  0  0  0  0  0  0  0  0  0  0  0
   -2.3090    3.6690    0.9700 O   0  0  0  0  0  0  0  0  0  0  0  0
   -3.4950   -1.7800   -0.3600 C   0  0  0  0  0  0  0  0  0  0  0  0
   -3.8510   -2.2480    0.7410 O   0  0  0  0  0  0  0  0  0  0  0  0
   -3.4360   -2.6010   -1.4620 O   0  0  0  0  0  0  0  0  0  0  0  0
  2  1  1  6
  2  3  1  0
  2 19  1  0
  4  3  1  1
  4  5  1  0
  4 16  1  0
  5  6  1  0
  6  7  2  0
  6 15  1  0
  7  8  1  0
  8  9  2  0
  9 10  1  0
  9 14  1  0
 10 11  2  0
 11 12  1  0
 12 13  2  0
 13 14  1  0
 14 15  2  0
 16 17  2  0
 16 18  1  0
 19 20  2  0
 19 21  1  0
M  END
