
     RDKit          3D

 12 12  0  0  0  0  0  0  0  0999 V2000
   -1.2360    2.1200    0.5040 N   0  0  0  0  0  0  0  0  0  0  0  0
   -1.1370    1.2710   -0.6690 C   0  0  2  0  0  0  0  0  0  0  0  0
   -2.4040    0.9600   -1.1830 O   0  0  0  0  0  0  0  0  0  0  0  0
   -0.5020   -0.0460   -0.2480 C   0  0  1  0  0  0  0  0  0  0  0  0
    0.7790    0.1850    0.2810 N   0  0  0  0  0  0  0  0  0  0  0  0
    1.8380   -0.6410   -0.1730 C   0  0  0  0  0  0  0  0  0  0  0  0
    3.1570    0.1190    0.0350 C   0  0  0  0  0  0  0  0  0  0  0  0
    3.3740    0.4320    1.3500 O   0  0  0  0  0  0  0  0  0  0  0  0
   -1.4640   -0.6750    0.7720 C   0  0  0  0  0  0  0  0  0  0  0  0
   -1.3150   -2.1330    0.4590 C   0  0  0  0  0  0  0  0  0  0  0  0
   -0.4750   -2.2570   -0.6280 O   0  0  0  0  0  0  0  0  0  0  0  0
   -0.6130   -1.0690   -1.3220 C   0  0  0  0  0  0  0  0  0  0  0  0
  2  1  1  1
  2  3  1  0
  2  4  1  0
  4  5  1  1
  4  9  1  0
  4 12  1  0
  5  6  1  0
  6  7  1  0
  7  8  1  0
  9 10  1  0
 10 11  1  0
 11 12  1  0
M  CHG  2   1   1   5   1
M  END
