
     RDKit          3D

 11 11  0  0  0  0  0  0  0  0999 V2000
    3.9060    0.8340   -0.1780 N   0  0  0  0  0  0  0  0  0  0  0  0
    2.9970   -0.1670    0.3480 C   0  0  0  0  0  0  0  0  0  0  0  0
    1.7680   -0.0500   -0.2620 O   0  0  0  0  0  0  0  0  0  0  0  0
    0.8830   -1.0030    0.2310 C   0  0  0  0  0  0  0  0  0  0  0  0
   -0.4640   -0.8250   -0.4830 C   0  0  1  0  0  0  0  0  0  0  0  0
   -1.3150   -1.7600    0.0070 O   0  0  0  0  0  0  0  0  0  0  0  0
   -1.9870   -1.3740    1.1390 C   0  0  0  0  0  0  0  0  0  0  0  0
   -2.8900   -0.2120    0.7020 C   0  0  0  0  0  0  0  0  0  0  0  0
   -1.9560    0.9420    0.5180 C   0  0  0  0  0  0  0  0  0  0  0  0
   -0.9060    0.5830   -0.4650 C   0  0  2  0  0  0  0  0  0  0  0  0
   -1.3540    1.0510   -1.7860 N   0  0  0  0  0  0  0  0  0  0  0  0
  1  2  1  0
  2  3  1  0
  3  4  1  0
  5  4  1  1
  5  6  1  0
  5 10  1  0
  6  7  1  0
  7  8  1  0
  8  9  1  0
  9 10  1  0
 10 11  1  6
M  CHG  2   1   1  11   1
M  END
