
     RDKit          3D

 11 11  0  0  0  0  0  0  0  0999 V2000
   -2.5870   -1.4950    0.2830 N   0  0  0  0  0  0  0  0  0  0  0  0
   -1.1800   -1.1920   -0.0330 C   0  0  0  0  0  0  0  0  0  0  0  0
   -0.8560    0.1830    0.4680 C   0  0  2  0  0  0  0  0  0  0  0  0
   -1.7760    1.1960   -0.2170 C   0  0  0  0  0  0  0  0  0  0  0  0
   -1.5650    1.1230   -1.5800 O   0  0  0  0  0  0  0  0  0  0  0  0
    0.5720    0.5760    0.3730 C   0  0  2  0  0  0  0  0  0  0  0  0
    0.6640    1.8930    0.8820 O   0  0  0  0  0  0  0  0  0  0  0  0
    1.1460    0.4850   -0.9990 C   0  0  0  0  0  0  0  0  0  0  0  0
    2.4220   -0.3290   -0.7970 C   0  0  0  0  0  0  0  0  0  0  0  0
    2.7430   -0.0910    0.5960 N   0  0  0  0  0  0  0  0  0  0  0  0
    1.4510   -0.2880    1.2360 C   0  0  0  0  0  0  0  0  0  0  0  0
  1  2  1  0
  3  2  1  6
  3  4  1  0
  3  6  1  0
  4  5  1  0
  6  7  1  1
  6  8  1  0
  6 11  1  0
  8  9  1  0
  9 10  1  0
 10 11  1  0
M  CHG  2   1   1  10   1
M  END
