
     RDKit          3D

 12 12  0  0  0  0  0  0  0  0999 V2000
   -1.8710    1.0240    1.4410 N   0  0  0  0  0  0  0  0  0  0  0  0
   -2.0620    0.7260    0.0380 C   0  0  0  0  0  0  0  0  0  0  0  0
   -1.5040   -0.5920   -0.3510 C   0  0  1  0  0  0  0  0  0  0  0  0
   -1.7160   -0.8380   -1.7230 O   0  0  0  0  0  0  0  0  0  0  0  0
   -0.0390   -0.7870   -0.0780 C   0  0  2  0  0  0  0  0  0  0  0  0
    0.2820   -0.6540    1.3680 C   0  0  0  0  0  0  0  0  0  0  0  0
    0.7440    0.5800    1.7600 O   0  0  0  0  0  0  0  0  0  0  0  0
    1.9470    0.8280    1.1020 C   0  0  0  0  0  0  0  0  0  0  0  0
    1.5580    1.1060   -0.3090 C   0  0  0  0  0  0  0  0  0  0  0  0
    1.7910    2.1430   -0.8670 O   0  0  0  0  0  0  0  0  0  0  0  0
    0.8450   -0.0070   -1.0020 C   0  0  1  0  0  0  0  0  0  0  0  0
    1.8800   -0.8340   -1.5980 N   0  0  0  0  0  0  0  0  0  0  0  0
  1  2  1  0
  2  3  1  0
  3  4  1  6
  3  5  1  0
  5  6  1  1
  5 11  1  0
  6  7  1  0
  7  8  1  0
  8  9  1  0
  9 10  2  0
  9 11  1  0
 11 12  1  1
M  CHG  1  12   1
M  END
