
     RDKit          3D

 12 12  0  0  0  0  0  0  0  0999 V2000
    3.2160   -1.7310   -0.5500 N   0  0  0  0  0  0  0  0  0  0  0  0
    2.0710   -0.9520   -0.6300 O   0  0  0  0  0  0  0  0  0  0  0  0
    1.2720   -0.7520    0.4840 C   0  0  0  0  0  0  0  0  0  0  0  0
    1.6270   -1.3010    1.5580 O   0  0  0  0  0  0  0  0  0  0  0  0
    0.0510    0.0540    0.4850 C   0  0  2  0  0  0  0  0  0  0  0  0
   -0.9130   -0.5620   -0.5110 C   0  0  1  0  0  0  0  0  0  0  0  0
   -1.7230   -1.6760    0.0880 C   0  0  0  0  0  0  0  0  0  0  0  0
   -2.4580   -1.1720    1.1520 O   0  0  0  0  0  0  0  0  0  0  0  0
   -1.8070    0.5870   -0.7990 C   0  0  0  0  0  0  0  0  0  0  0  0
   -1.1600    1.7150   -0.5880 C   0  0  0  0  0  0  0  0  0  0  0  0
    0.2480    1.4220   -0.1320 C   0  0  1  0  0  0  0  0  0  0  0  0
    0.6210    2.4240    0.8180 N   0  0  0  0  0  0  0  0  0  0  0  0
  1  2  1  0
  2  3  1  0
  3  4  2  0
  5  3  1  6
  5  6  1  0
  5 11  1  0
  6  7  1  1
  6  9  1  0
  7  8  1  0
  9 10  2  0
 10 11  1  0
 11 12  1  1
M  CHG  1  12   1
M  END
