
     RDKit          3D

 12 12  0  0  0  0  0  0  0  0999 V2000
   -2.0850    0.6490   -0.8030 N   0  0  0  0  0  0  0  0  0  0  0  0
   -1.2870    0.1240    0.2900 C   0  0  1  0  0  0  0  0  0  0  0  0
   -0.9580   -1.2760   -0.0370 C   0  0  0  0  0  0  0  0  0  0  0  0
   -2.0030   -2.1270   -0.4320 O   0  0  0  0  0  0  0  0  0  0  0  0
    0.2700   -1.7480    0.0300 C   0  0  0  0  0  0  0  0  0  0  0  0
    1.3340   -0.8510    0.4400 C   0  0  0  0  0  0  0  0  0  0  0  0
    2.7490   -1.3840    0.5200 C   0  0  0  0  0  0  0  0  0  0  0  0
    3.0770   -1.8230   -0.7500 O   0  0  0  0  0  0  0  0  0  0  0  0
    1.0910    0.3500    0.7270 N   0  0  0  0  0  0  0  0  0  0  0  0
   -0.1730    0.9880    0.6990 C   0  0  1  0  0  0  0  0  0  0  0  0
   -0.0200    2.2400   -0.1580 C   0  0  0  0  0  0  0  0  0  0  0  0
   -1.1830    2.9670   -0.2710 O   0  0  0  0  0  0  0  0  0  0  0  0
  2  1  1  6
  2  3  1  0
  2 10  1  0
  3  4  1  0
  3  5  2  0
  5  6  1  0
  6  7  1  0
  6  9  2  0
  7  8  1  0
  9 10  1  0
 10 11  1  6
 11 12  1  0
M  CHG  1   1   1
M  END
