
     RDKit          3D

 12 12  0  0  0  0  0  0  0  0999 V2000
   -1.0840   -2.5790    0.4180 N   0  0  0  0  0  0  0  0  0  0  0  0
   -0.5320   -1.2660    0.3900 C   0  0  1  0  0  0  0  0  0  0  0  0
    0.8290   -1.2270   -0.3110 C   0  0  0  0  0  0  0  0  0  0  0  0
    1.3790    0.1170   -0.0190 C   0  0  0  0  0  0  0  0  0  0  0  0
    2.8040    0.3120    0.3410 C   0  0  0  0  0  0  0  0  0  0  0  0
    3.6640   -0.1260   -0.6730 O   0  0  0  0  0  0  0  0  0  0  0  0
    0.5950    1.1060   -0.0840 N   0  0  0  0  0  0  0  0  0  0  0  0
   -0.7760    1.0680   -0.4120 C   0  0  2  0  0  0  0  0  0  0  0  0
   -0.9620    1.6550   -1.6850 O   0  0  0  0  0  0  0  0  0  0  0  0
   -1.5090    1.9430    0.6030 C   0  0  0  0  0  0  0  0  0  0  0  0
   -1.0120    3.2490    0.5180 O   0  0  0  0  0  0  0  0  0  0  0  0
   -1.4030   -0.2820   -0.3720 C   0  0  0  0  0  0  0  0  0  0  0  0
  2  1  1  6
  2  3  1  0
  2 12  1  0
  3  4  1  0
  4  5  1  0
  4  7  2  0
  5  6  1  0
  7  8  1  0
  8  9  1  6
  8 10  1  0
  8 12  1  0
 10 11  1  0
M  CHG  1   1   1
M  END
