
     RDKit          3D

 22 23  0  0  0  0  0  0  0  0999 V2000
   -1.5590   -4.3670    0.5020 C   0  0  0  0  0  0  0  0  0  0  0  0
   -1.1300   -2.9350    0.3050 C   0  0  0  0  0  0  0  0  0  0  0  0
    0.1810   -2.2880   -0.5440 P   0  0  0  0  0  0  0  0  0  0  0  0
   -0.1740   -0.4670   -0.1810 C   0  0  2  0  0  0  0  0  0  0  0  0
   -1.0530    0.1210   -1.0460 O   0  0  0  0  0  0  0  0  0  0  0  0
   -0.7520    1.4470   -1.2970 C   0  0  1  0  0  0  0  0  0  0  0  0
   -2.1760    2.2010   -2.2410 P   0  0  0  0  0  0  0  0  0  0  0  0
   -3.3060    3.5910   -0.9590 P   0  0  0  0  0  0  0  0  0  0  0  0
   -0.5810    2.1940   -0.1360 O   0  0  0  0  0  0  0  0  0  0  0  0
    0.7780    2.2090    0.1830 C   0  0  0  0  0  0  0  0  0  0  0  0
    1.3040    0.4880    0.0800 S   0  0  2  0  0  0  0  0  0  0  0  0
    2.2980    0.3110   -1.2890 O   0  0  0  0  0  0  0  0  0  0  0  0
    3.4060    1.0970   -1.2130 N   0  0  0  0  0  0  0  0  0  0  0  0
    4.9910    0.0680   -1.2620 Br  0  0  0  0  0  0  0  0  0  0  0  0
    3.3820    1.8910   -0.1150 O   0  0  0  0  0  0  0  0  0  0  0  0
    4.6180    2.1890    0.1940 O   0  0  0  0  0  0  0  0  0  0  0  0
    2.3390   -0.1280    1.8430 P   0  0  0  0  0  0  0  0  0  0  0  0
    3.0670   -1.6680    1.5100 O   0  0  0  0  0  0  0  0  0  0  0  0
   -0.8360   -0.7340    1.0470 O   0  0  0  0  0  0  0  0  0  0  0  0
   -1.7730   -1.6940    0.8030 C   0  0  1  0  0  0  0  0  0  0  0  0
   -2.6190   -1.2420   -0.2060 O   0  0  0  0  0  0  0  0  0  0  0  0
   -2.4650   -1.9110    1.9930 O   0  0  0  0  0  0  0  0  0  0  0  0
  1  2  1  0
  2  3  2  0
  2 20  1  0
  3  4  1  0
  4  5  1  6
  4 11  1  0
  4 19  1  0
  5  6  1  0
  6  7  1  1
  6  9  1  0
  7  8  1  0
  9 10  1  0
 10 11  1  0
 11 12  1  6
 11 17  1  0
 12 13  1  0
 13 14  1  0
 13 15  1  0
 15 16  1  0
 17 18  1  0
 19 20  1  0
 20 21  1  6
 20 22  1  0
M  END
