
     RDKit          3D

 23 24  0  0  0  0  0  0  0  0999 V2000
   -2.7610   -1.9930    0.5400 C   0  0  0  0  0  0  0  0  0  0  0  0
   -1.4740   -2.0770   -0.2300 C   0  0  1  0  0  0  0  0  0  0  0  0
   -0.7920   -3.2570    0.1090 O   0  0  0  0  0  0  0  0  0  0  0  0
   -1.6950   -2.0620   -2.0540 P   0  0  0  0  0  0  0  0  0  0  0  0
   -0.6360   -0.9630    0.1590 N   0  0  0  0  0  0  0  0  0  0  0  0
   -0.2730   -1.0050    1.4480 O   0  0  0  0  0  0  0  0  0  0  0  0
   -0.3270    0.1180    2.0740 O   0  0  0  0  0  0  0  0  0  0  0  0
    0.6160    1.3330    1.2670 S   0  0  1  0  0  0  0  0  0  0  0  0
    2.2090    0.8050    1.3350 O   0  0  0  0  0  0  0  0  0  0  0  0
    2.3200   -0.5270    1.3600 O   0  0  0  0  0  0  0  0  0  0  0  0
    3.5550   -1.1550    1.3560 C   0  0  0  0  0  0  0  0  0  0  0  0
    3.8380   -2.4800    2.3160 P   0  0  0  0  0  0  0  0  0  0  0  0
    4.6420   -0.6750    0.5150 C   0  0  0  0  0  0  0  0  0  0  0  0
    5.7790   -1.2590    0.5190 O   0  0  0  0  0  0  0  0  0  0  0  0
   -0.0570    1.2870   -0.3880 C   0  0  2  0  0  0  0  0  0  0  0  0
    0.7420    0.8570   -1.3640 O   0  0  0  0  0  0  0  0  0  0  0  0
    1.7980    1.4410   -1.6240 O   0  0  0  0  0  0  0  0  0  0  0  0
    2.3030    2.8040   -0.7900 P   0  0  0  0  0  0  0  0  0  0  0  0
   -0.9550    2.4450   -0.7490 C   0  0  0  0  0  0  0  0  0  0  0  0
   -1.9880    1.7180   -1.6310 C   0  0  0  0  0  0  0  0  0  0  0  0
   -1.8020    0.3580   -1.4080 O   0  0  0  0  0  0  0  0  0  0  0  0
   -1.2390    0.2760   -0.1690 C   0  0  1  0  0  0  0  0  0  0  0  0
   -2.0300    0.8460    0.8170 O   0  0  0  0  0  0  0  0  0  0  0  0
  2  1  1  1
  2  3  1  0
  2  4  1  0
  2  5  1  0
  5  6  1  0
  5 22  1  0
  6  7  1  0
  7  8  1  0
  8  9  1  6
  8 15  1  0
  9 10  1  0
 10 11  1  0
 11 12  2  0
 11 13  1  0
 13 14  2  0
 15 16  1  6
 15 19  1  0
 15 22  1  0
 16 17  1  0
 17 18  1  0
 19 20  1  0
 20 21  1  0
 21 22  1  0
 22 23  1  1
M  END
