
     RDKit          3D

 23 22  0  0  0  0  0  0  0  0999 V2000
   -2.4720    3.1410   -0.5980 C   0  0  0  0  0  0  0  0  0  0  0  0
   -1.3010    2.2210   -0.2400 C   0  0  1  0  0  0  0  0  0  0  0  0
   -0.2710    2.4470   -1.1160 O   0  0  0  0  0  0  0  0  0  0  0  0
   -0.8630    2.5210    1.0310 O   0  0  0  0  0  0  0  0  0  0  0  0
   -1.7100    0.7930   -0.3670 C   0  0  0  0  0  0  0  0  0  0  0  0
   -1.0180   -0.0230   -1.2480 O   0  0  0  0  0  0  0  0  0  0  0  0
    0.5290   -0.6520   -0.7710 S   0  0  0  0  0  0  0  0  0  0  0  0
    1.7670    0.4480   -1.1460 O   0  0  0  0  0  0  0  0  0  0  0  0
    2.9730    0.0670   -0.6450 C   0  0  1  0  0  0  0  0  0  0  0  0
    2.7760   -0.0430    0.7690 O   0  0  0  0  0  0  0  0  0  0  0  0
    3.4720   -1.0800   -1.1850 O   0  0  0  0  0  0  0  0  0  0  0  0
    2.4660   -2.4670   -0.9010 P   0  0  0  0  0  0  0  0  0  0  0  0
    3.5610   -3.8680   -0.7610 O   0  0  0  0  0  0  0  0  0  0  0  0
    4.2730    1.4070   -0.8690 P   0  0  0  0  0  0  0  0  0  0  0  0
    3.7180    2.9310   -0.3280 O   0  0  0  0  0  0  0  0  0  0  0  0
    6.0730    0.7870    0.2550 P   0  0  0  0  0  0  0  0  0  0  0  0
    6.1200   -0.9560    0.3190 O   0  0  0  0  0  0  0  0  0  0  0  0
   -2.7010    0.3060    0.3340 C   0  0  0  0  0  0  0  0  0  0  0  0
   -3.3400    1.2040    1.2200 O   0  0  0  0  0  0  0  0  0  0  0  0
   -3.1600   -0.9260    0.2940 O   0  0  0  0  0  0  0  0  0  0  0  0
   -3.0010   -2.1320   -0.3060 C   0  0  0  0  0  0  0  0  0  0  0  0
   -4.0670   -3.0350    0.1900 N   0  0  0  0  0  0  0  0  0  0  0  0
   -4.8090   -3.3920   -1.0240 N   0  0  0  0  0  0  0  0  0  0  0  0
  2  1  1  6
  2  3  1  0
  2  4  1  0
  2  5  1  0
  5  6  1  0
  5 18  2  3
  6  7  1  0
  7  8  1  0
  8  9  1  0
  9 10  1  1
  9 11  1  0
  9 14  1  0
 11 12  1  0
 12 13  1  0
 14 15  1  0
 14 16  1  0
 16 17  1  0
 18 19  1  0
 18 20  1  0
 20 21  1  0
 21 22  1  0
 22 23  1  0
M  END
