
     RDKit          3D

 23 23  0  0  0  0  0  0  0  0999 V2000
   -3.5520   -1.5220   -0.9620 C   0  0  0  0  0  0  0  0  0  0  0  0
   -3.6390   -0.3060   -0.0890 C   0  0  0  0  0  0  0  0  0  0  0  0
   -1.9810    0.3600    0.3930 P   0  0  0  0  0  0  0  0  0  0  0  0
   -0.5750   -1.2180    0.8880 P   0  0  0  0  0  0  0  0  0  0  0  0
   -1.6170   -2.7580    2.0730 P   0  0  0  0  0  0  0  0  0  0  0  0
   -1.1990   -4.3520    1.5660 O   0  0  0  0  0  0  0  0  0  0  0  0
    0.2080   -2.0000   -0.5760 C   0  0  0  0  0  0  0  0  0  0  0  0
    1.4710   -2.5160   -0.2060 O   0  0  0  0  0  0  0  0  0  0  0  0
    2.4200   -1.6220   -0.3810 O   0  0  0  0  0  0  0  0  0  0  0  0
    3.0790   -1.5440    0.7550 O   0  0  0  0  0  0  0  0  0  0  0  0
    4.1260   -0.1630    0.7980 P   0  0  0  0  0  0  0  0  0  0  0  0
    5.6640   -0.4210   -0.1720 C   0  0  0  0  0  0  0  0  0  0  0  0
    6.0940    0.8040   -0.7130 O   0  0  0  0  0  0  0  0  0  0  0  0
    3.2890    1.2800    0.3260 O   0  0  0  0  0  0  0  0  0  0  0  0
    2.3030    1.4800    1.1900 O   0  0  0  0  0  0  0  0  0  0  0  0
    1.3940    2.3240    0.6710 N   0  0  0  0  0  0  0  0  0  0  0  0
    0.8920    3.3710    1.4310 N   0  0  0  0  0  0  0  0  0  0  0  0
    1.1390    4.5670    1.1150 O   0  0  0  0  0  0  0  0  0  0  0  0
    0.8560    2.0810   -0.9740 S   0  0  0  0  0  0  0  0  0  0  0  0
    1.7040    1.0870   -1.7100 O   0  0  0  0  0  0  0  0  0  0  0  0
   -1.2220    1.7370   -1.1240 P   0  0  0  0  0  0  0  0  0  0  0  0
   -2.0530    3.2520   -1.1070 O   0  0  0  0  0  0  0  0  0  0  0  0
   -2.9050    3.3830   -0.0140 C   0  0  0  0  0  0  0  0  0  0  0  0
  1  2  1  0
  2  3  1  0
  3  4  1  0
  3 21  1  0
  4  5  1  0
  4  7  1  0
  5  6  1  0
  7  8  1  0
  8  9  1  0
  9 10  1  0
 10 11  1  0
 11 12  1  0
 11 14  1  0
 12 13  1  0
 14 15  1  0
 15 16  1  0
 16 17  1  0
 19 16  1  1
 17 18  2  0
 19 20  2  0
 19 21  1  0
 21 22  1  0
 22 23  1  0
M  END
