
     RDKit          3D

 21 20  0  0  0  0  0  0  0  0999 V2000
   -3.0060   -4.3320    1.4530 C   0  0  0  0  0  0  0  0  0  0  0  0
   -2.3000   -3.8520    0.3580 O   0  0  0  0  0  0  0  0  0  0  0  0
   -2.6410   -2.5740    0.2220 O   0  0  0  0  0  0  0  0  0  0  0  0
   -1.8260   -1.9450   -0.7070 C   0  0  0  0  0  0  0  0  0  0  0  0
   -2.2210   -0.5390   -0.8380 C   0  0  0  0  0  0  0  0  0  0  0  0
   -3.6230   -0.2440   -1.2850 C   0  0  0  0  0  0  0  0  0  0  0  0
   -1.3700    0.4340   -0.5680 C   0  0  0  0  0  0  0  0  0  0  0  0
   -0.1040    0.1110   -0.1630 O   0  0  0  0  0  0  0  0  0  0  0  0
    0.8990    0.9380    0.0590 O   0  0  0  0  0  0  0  0  0  0  0  0
    2.3360   -0.0310    0.1860 P   0  0  0  0  0  0  0  0  0  0  0  0
    3.9630    1.1770    1.0470 P   0  0  0  0  0  0  0  0  0  0  0  0
    4.3840    2.8540   -0.3400 P   0  0  0  0  0  0  0  0  0  0  0  0
    5.4200    0.2410    1.1700 O   0  0  0  0  0  0  0  0  0  0  0  0
    5.1830   -0.9630    0.6310 N   0  0  0  0  0  0  0  0  0  0  0  0
    4.6110   -0.8070   -0.5900 O   0  0  0  0  0  0  0  0  0  0  0  0
    6.6440   -1.9880    0.5340 P   0  0  0  0  0  0  0  0  0  0  0  0
   -1.9130    2.1280   -0.7480 S   0  0  0  0  0  0  0  0  0  0  0  0
   -1.2260    2.7490   -1.9430 O   0  0  0  0  0  0  0  0  0  0  0  0
   -1.5120    3.0190    0.7670 C   0  0  0  0  0  0  0  0  0  0  0  0
   -1.9180    4.3480    0.6780 O   0  0  0  0  0  0  0  0  0  0  0  0
   -3.6470    4.4240    0.4250 P   0  0  0  0  0  0  0  0  0  0  0  0
  1  2  1  0
  2  3  1  0
  3  4  1  0
  4  5  1  0
  5  6  1  0
  5  7  2  3
  7  8  1  0
  7 17  1  0
  8  9  1  0
  9 10  1  0
 10 11  1  0
 11 12  1  0
 11 13  1  0
 13 14  1  0
 14 15  1  0
 14 16  1  0
 17 18  2  0
 17 19  1  1
 19 20  1  0
 20 21  1  0
M  END
