
     RDKit          3D

 22 21  0  0  0  0  0  0  0  0999 V2000
    4.1800   -2.0530    0.2220 C   0  0  0  0  0  0  0  0  0  0  0  0
    3.9550   -0.5830    0.4300 C   0  0  1  0  0  0  0  0  0  0  0  0
    2.7960   -0.3320    1.1870 O   0  0  0  0  0  0  0  0  0  0  0  0
    2.1500    0.6230    0.6060 O   0  0  0  0  0  0  0  0  0  0  0  0
    1.2670    0.1740   -0.2800 O   0  0  0  0  0  0  0  0  0  0  0  0
    0.8150   -1.0650    0.2070 C   0  0  0  0  0  0  0  0  0  0  0  0
   -0.7020   -1.0900    0.0610 C   0  0  1  0  0  0  0  0  0  0  0  0
   -1.4150   -1.9020    1.7110 Br  0  0  0  0  0  0  0  0  0  0  0  0
   -1.0850    0.2700    0.0550 O   0  0  0  0  0  0  0  0  0  0  0  0
   -1.6410    0.5550   -1.5920 P   0  0  0  0  0  0  0  0  0  0  0  0
   -1.7780    2.2300   -1.9450 O   0  0  0  0  0  0  0  0  0  0  0  0
   -3.1800   -0.2240   -1.7390 O   0  0  0  0  0  0  0  0  0  0  0  0
   -4.0710   -0.0810   -0.2460 P   0  0  0  0  0  0  0  0  0  0  0  0
   -4.2940    1.7040    0.1510 C   0  0  0  0  0  0  0  0  0  0  0  0
   -5.7080   -0.7740   -0.5500 N   0  0  0  0  0  0  0  0  0  0  0  0
   -6.7080    0.1840   -0.4340 N   0  0  0  0  0  0  0  0  0  0  0  0
   -6.0500   -2.1330    0.5030 S   0  0  0  0  0  0  0  0  0  0  0  0
    5.0420   -0.1120    1.1740 O   0  0  0  0  0  0  0  0  0  0  0  0
    6.1860    0.5560    0.0460 P   0  0  0  0  0  0  0  0  0  0  0  0
    7.6580    1.0140    0.8370 O   0  0  0  0  0  0  0  0  0  0  0  0
    5.2720    2.2960   -0.9540 P   0  0  0  0  0  0  0  0  0  0  0  0
    5.7710    3.7310   -0.6570 O   0  0  0  0  0  0  0  0  0  0  0  0
  2  1  1  1
  2  3  1  0
  2 18  1  0
  3  4  1  0
  4  5  1  0
  5  6  1  0
  6  7  1  0
  7  8  1  1
  7  9  1  0
  9 10  1  0
 10 11  1  0
 10 12  1  0
 12 13  1  0
 13 14  1  0
 13 15  1  0
 15 16  1  0
 15 17  1  0
 18 19  1  0
 19 20  1  0
 19 21  1  0
 21 22  2  0
M  END
