
     RDKit          3D

 21 22  0  0  0  0  0  0  0  0999 V2000
    0.7970   -2.7590    1.6460 C   0  0  0  0  0  0  0  0  0  0  0  0
   -0.0010   -1.9660    0.6790 C   0  0  0  0  0  0  0  0  0  0  0  0
   -1.6070   -2.3100    0.3400 S   0  0  0  0  0  0  0  0  0  0  0  0
   -2.1170   -1.0310   -0.9150 C   0  0  2  0  0  0  0  0  0  0  0  0
   -3.4740   -0.9440   -1.0940 O   0  0  0  0  0  0  0  0  0  0  0  0
   -1.4110   -1.3440   -2.0690 O   0  0  0  0  0  0  0  0  0  0  0  0
   -1.5420    0.2350   -0.2560 C   0  0  2  0  0  0  0  0  0  0  0  0
   -1.7840    0.1860    1.1730 N   0  0  0  0  0  0  0  0  0  0  0  0
   -2.1820    1.3600   -0.7400 O   0  0  0  0  0  0  0  0  0  0  0  0
   -2.0060    1.5350   -2.4540 P   0  0  0  0  0  0  0  0  0  0  0  0
   -2.2620    2.9500   -3.0530 O   0  0  0  0  0  0  0  0  0  0  0  0
   -0.0670    0.2560   -0.4870 C   0  0  2  0  0  0  0  0  0  0  0  0
    0.6490   -0.8850    0.0180 N   0  0  0  0  0  0  0  0  0  0  0  0
    1.9780   -0.9570   -0.1370 O   0  0  0  0  0  0  0  0  0  0  0  0
    2.8720    0.1840    0.7550 P   0  0  0  0  0  0  0  0  0  0  0  0
    4.8080    0.4520   -0.2890 P   0  0  0  0  0  0  0  0  0  0  0  0
    5.3850   -1.1630   -0.6690 O   0  0  0  0  0  0  0  0  0  0  0  0
    2.0610    1.6830    0.9800 O   0  0  0  0  0  0  0  0  0  0  0  0
    0.7150    1.8730   -0.0860 P   0  0  0  0  0  0  0  0  0  0  0  0
   -0.3750    3.1820    0.5160 C   0  0  0  0  0  0  0  0  0  0  0  0
   -0.6350    3.0840    1.9030 O   0  0  0  0  0  0  0  0  0  0  0  0
  1  2  1  0
  2  3  2  0
  2 13  1  0
  3  4  1  0
  4  5  1  6
  4  6  1  0
  4  7  1  0
  7  8  1  1
  7  9  1  0
  7 12  1  0
  9 10  1  0
 10 11  2  0
 12 13  1  0
 12 19  1  1
 13 14  1  0
 14 15  1  0
 15 16  1  0
 15 18  1  0
 16 17  1  0
 18 19  1  0
 19 20  1  0
 20 21  1  0
M  END
