
     RDKit          3D

 23 25  0  0  0  0  0  0  0  0999 V2000
    4.4660   -0.8080   -0.7520 C   0  0  0  0  0  0  0  0  0  0  0  0
    3.1720   -0.5730   -0.3610 O   0  0  0  0  0  0  0  0  0  0  0  0
    2.1820    0.0700   -1.6380 P   0  0  0  0  0  0  0  0  0  0  0  0
    0.9520   -1.1540   -1.9440 O   0  0  0  0  0  0  0  0  0  0  0  0
    0.2370   -1.5270   -0.4610 P   0  0  0  0  0  0  0  0  0  0  0  0
    1.0870   -2.6220    0.5240 O   0  0  0  0  0  0  0  0  0  0  0  0
    0.7960   -4.2450   -0.0820 P   0  0  0  0  0  0  0  0  0  0  0  0
   -0.5990   -0.1710    0.4240 C   0  0  2  0  0  0  0  0  0  0  0  0
   -1.0100   -0.7710    1.7820 C   0  0  0  0  0  0  0  0  0  0  0  0
   -2.1480   -1.5530    1.4670 O   0  0  0  0  0  0  0  0  0  0  0  0
   -2.0480   -2.0840    0.2720 O   0  0  0  0  0  0  0  0  0  0  0  0
   -2.3030   -1.1700   -0.7570 C   0  0  1  0  0  0  0  0  0  0  0  0
   -3.6390   -1.1870   -1.0630 O   0  0  0  0  0  0  0  0  0  0  0  0
   -1.8840    0.1380   -0.2070 N   0  0  0  0  0  0  0  0  0  0  0  0
   -2.8620    0.3650    0.7340 O   0  0  0  0  0  0  0  0  0  0  0  0
   -2.7150    1.9000    1.4580 S   0  0  0  0  0  0  0  0  0  0  0  0
   -0.5670    2.2320    1.6410 P   0  0  0  0  0  0  0  0  0  0  0  0
   -0.2390    3.9240    0.9060 C   0  0  0  0  0  0  0  0  0  0  0  0
   -0.2840    4.9080    1.8640 O   0  0  0  0  0  0  0  0  0  0  0  0
    0.2160    0.9600    0.6960 N   0  0  0  0  0  0  0  0  0  0  0  0
    0.9730    1.6910   -0.7350 P   0  0  0  0  0  0  0  0  0  0  0  0
   -0.3090    2.1660   -1.8170 O   0  0  0  0  0  0  0  0  0  0  0  0
    0.2930    2.5310   -3.3620 Cl  0  0  0  0  0  0  0  0  0  0  0  0
  1  2  1  0
  2  3  1  0
  3  4  1  0
  3 21  1  0
  4  5  1  0
  5  6  1  0
  5  8  1  0
  6  7  1  0
  8  9  1  1
  8 14  1  0
  8 20  1  0
  9 10  1  0
 10 11  1  0
 11 12  1  0
 12 13  1  1
 12 14  1  0
 14 15  1  0
 15 16  1  0
 16 17  1  0
 17 18  1  0
 17 20  1  0
 18 19  1  0
 20 21  1  0
 21 22  1  0
 22 23  1  0
M  END
