
     RDKit          3D

 36 41  0  0  0  0  0  0  0  0999 V2000
   10.2930    0.6450    0.5160 C   0  0  0  0  0  0  0  0  0  0  0  0
    8.7890    0.5930    0.3910 C   0  0  0  0  0  0  0  0  0  0  0  0
    8.1620    0.0610    1.6630 C   0  0  0  0  0  0  0  0  0  0  0  0
    6.7170    0.0390    1.4730 N   0  0  0  0  0  0  0  0  0  0  0  0
    5.8390    1.0190    1.7490 C   0  0  0  0  0  0  0  0  0  0  0  0
    4.5840    0.6490    1.4460 N   0  0  0  0  0  0  0  0  0  0  0  0
    4.6440   -0.6040    0.9600 C   0  0  0  0  0  0  0  0  0  0  0  0
    3.4630   -1.3700    0.5100 C   0  0  0  0  0  0  0  0  0  0  0  0
    3.1540   -1.1730   -0.9450 C   0  0  0  0  0  0  0  0  0  0  0  0
    2.8670    0.2690   -1.2840 C   0  0  0  0  0  0  0  0  0  0  0  0
    1.7430    0.8160   -0.5710 N   0  0  0  0  0  0  0  0  0  0  0  0
    0.4390    0.2770   -0.7050 C   0  0  0  0  0  0  0  0  0  0  0  0
    0.1810   -0.7700   -1.5030 N   0  0  0  0  0  0  0  0  0  0  0  0
   -1.0380   -1.3130   -1.6600 C   0  0  0  0  0  0  0  0  0  0  0  0
   -1.2950   -2.3890   -2.4830 C   0  0  0  0  0  0  0  0  0  0  0  0
   -2.5760   -2.8860   -2.5860 C   0  0  0  0  0  0  0  0  0  0  0  0
   -3.5770   -2.2820   -1.8530 C   0  0  0  0  0  0  0  0  0  0  0  0
   -3.3470   -1.1930   -1.0140 C   0  0  0  0  0  0  0  0  0  0  0  0
   -4.3950   -0.5880   -0.2700 N   0  0  0  0  0  0  0  0  0  0  0  0
   -4.2480    0.4200    0.5210 C   0  0  0  0  0  0  0  0  0  0  0  0
   -5.3880    0.9720    1.2440 C   0  0  0  0  0  0  0  0  0  0  0  0
   -6.6090    0.4520    1.1260 C   0  0  0  0  0  0  0  0  0  0  0  0
   -6.9750   -0.6090    0.3610 F   0  0  0  0  0  0  0  0  0  0  0  0
   -7.5690    1.1770    1.9610 C   0  0  0  0  0  0  0  0  0  0  0  0
   -6.9590    2.4540    2.1380 N   0  0  2  0  0  0  0  0  0  0  0  0
   -7.2400    3.3170    1.0070 C   0  0  0  0  0  0  0  0  0  0  0  0
   -5.5290    2.0910    2.1610 C   0  0  0  0  0  0  0  0  0  0  0  0
   -2.9220    0.9410    0.6360 N   0  0  0  0  0  0  0  0  0  0  0  0
   -2.6380    2.0490    1.4910 C   0  0  0  0  0  0  0  0  0  0  0  0
   -1.8500    0.3550   -0.0980 C   0  0  0  0  0  0  0  0  0  0  0  0
   -0.5900    0.8140   -0.0200 N   0  0  0  0  0  0  0  0  0  0  0  0
   -2.0600   -0.7170   -0.9290 C   0  0  0  0  0  0  0  0  0  0  0  0
   -4.7970   -3.0060   -2.1570 C   0  0  0  0  0  0  0  0  0  0  0  0
   -4.5680   -3.9800   -3.0110 C   0  0  0  0  0  0  0  0  0  0  0  0
   -3.1350   -4.0240   -3.3870 C   0  0  0  0  0  0  0  0  0  0  0  0
    5.9730   -0.9710    0.9820 C   0  0  0  0  0  0  0  0  0  0  0  0
  1  2  1  0
  2  3  1  0
  3  4  1  0
  4  5  1  0
  4 36  1  0
  5  6  2  0
  6  7  1  0
  7  8  1  0
  7 36  2  0
  8  9  1  0
  9 10  1  0
 10 11  1  0
 11 12  1  0
 12 13  2  0
 12 31  1  0
 13 14  1  0
 14 15  2  0
 14 32  1  0
 15 16  1  0
 16 17  2  0
 16 35  1  0
 17 18  1  0
 17 33  1  0
 18 19  1  0
 18 32  2  0
 19 20  2  0
 20 21  1  0
 20 28  1  0
 21 22  2  0
 21 27  1  0
 22 23  1  0
 22 24  1  0
 24 25  1  0
 25 26  1  6
 25 27  1  0
 28 29  1  0
 28 30  1  0
 30 31  2  0
 30 32  1  0
 33 34  2  0
 34 35  1  0
M  CHG  2   6   1  25   1
M  END
