
     RDKit          3D

 37 41  0  0  0  0  0  0  0  0999 V2000
   -1.6180    3.0360   -1.4620 C   0  0  0  0  0  0  0  0  0  0  0  0
   -2.2500    1.9200   -2.3890 C   0  0  0  0  0  0  0  0  0  0  0  0
   -2.2730    2.3580   -3.5800 N   0  0  0  0  0  0  0  0  0  0  0  0
   -2.7260    1.7650   -4.7930 C   0  0  1  0  0  0  0  0  0  0  0  0
   -2.4160    0.4470   -4.9860 F   0  0  0  0  0  0  0  0  0  0  0  0
   -4.0100    2.1250   -5.0880 F   0  0  0  0  0  0  0  0  0  0  0  0
   -2.9980    1.0000   -1.5960 C   0  0  0  0  0  0  0  0  0  0  0  0
   -2.4110    0.5260   -0.5140 C   0  0  0  0  0  0  0  0  0  0  0  0
   -1.1140    0.7880   -0.0960 N   0  0  0  0  0  0  0  0  0  0  0  0
   -0.8040    0.8740    1.3630 C   0  0  0  0  0  0  0  0  0  0  0  0
    0.1230   -0.3920    1.4470 C   0  0  0  0  0  0  0  0  0  0  0  0
    1.5440    0.0470    1.1290 C   0  0  1  0  0  0  0  0  0  0  0  0
    2.3590   -1.1200    0.6790 C   0  0  0  0  0  0  0  0  0  0  0  0
    1.9540   -1.9890   -0.2560 N   0  0  0  0  0  0  0  0  0  0  0  0
    2.9430   -2.8410   -0.5580 N   0  0  0  0  0  0  0  0  0  0  0  0
    4.0150   -2.5660    0.1580 C   0  0  0  0  0  0  0  0  0  0  0  0
    5.3240   -3.2490    0.1200 C   0  0  0  0  0  0  0  0  0  0  0  0
    3.6750   -1.4710    0.9670 C   0  0  0  0  0  0  0  0  0  0  0  0
    4.5810   -0.9330    1.9580 C   0  0  0  0  0  0  0  0  0  0  0  0
    5.8260   -0.2590    1.6730 C   0  0  0  0  0  0  0  0  0  0  0  0
    5.9540    0.9090    0.8930 N   0  0  0  0  0  0  0  0  0  0  0  0
    6.2260    0.8880   -0.4400 C   0  0  0  0  0  0  0  0  0  0  0  0
    6.3150    2.1960   -0.8760 C   0  0  0  0  0  0  0  0  0  0  0  0
    6.0990    2.9790    0.1930 N   0  0  0  0  0  0  0  0  0  0  0  0
    5.8840    2.2020    1.2450 C   0  0  0  0  0  0  0  0  0  0  0  0
    1.3520    1.0060   -0.0640 C   0  0  0  0  0  0  0  0  0  0  0  0
    0.0820    0.7740   -0.8780 C   0  0  0  0  0  0  0  0  0  0  0  0
   -3.1570   -0.1710    0.5430 N   0  0  0  0  0  0  0  0  0  0  0  0
   -4.2250   -0.7980    0.5720 C   0  0  0  0  0  0  0  0  0  0  0  0
   -4.6730   -1.3720    1.8640 C   0  0  0  0  0  0  0  0  0  0  0  0
   -5.7580   -2.0690    2.0470 C   0  0  0  0  0  0  0  0  0  0  0  0
   -5.8860   -2.4780    3.4940 C   0  0  0  0  0  0  0  0  0  0  0  0
   -4.7080   -1.8710    4.1140 C   0  0  0  0  0  0  0  0  0  0  0  0
   -4.0140   -1.2420    3.1560 C   0  0  0  0  0  0  0  0  0  0  0  0
   -5.1370   -1.0270   -0.4910 N   0  0  0  0  0  0  0  0  0  0  0  0
   -5.1180   -0.3600   -1.5880 C   0  0  0  0  0  0  0  0  0  0  0  0
   -4.3370    0.7150   -2.1740 C   0  0  0  0  0  0  0  0  0  0  0  0
  1  2  1  0
  2  3  2  3
  2  7  1  0
  3  4  1  0
  4  5  1  1
  4  6  1  0
  7  8  2  0
  7 37  1  0
  8  9  1  0
  8 28  1  0
  9 10  1  0
  9 27  1  0
 10 11  1  0
 11 12  1  0
 12 13  1  6
 12 26  1  0
 13 14  1  0
 13 18  2  0
 14 15  1  0
 15 16  2  0
 16 17  1  0
 16 18  1  0
 18 19  1  0
 19 20  1  0
 20 21  1  0
 21 22  1  0
 21 25  1  0
 22 23  2  0
 23 24  1  0
 24 25  2  0
 26 27  1  0
 28 29  2  0
 29 30  1  0
 29 35  1  0
 30 31  2  0
 30 34  1  0
 31 32  1  0
 32 33  1  0
 33 34  2  0
 35 36  2  0
 36 37  1  0
M  CHG  2   3   1  35   1
M  END
