
     RDKit          3D

 37 41  0  0  0  0  0  0  0  0999 V2000
    6.2590    0.8230   -5.4680 C   0  0  0  0  0  0  0  0  0  0  0  0
    4.9500    0.8650   -4.8000 C   0  0  0  0  0  0  0  0  0  0  0  0
    3.8360    1.4230   -5.3840 C   0  0  0  0  0  0  0  0  0  0  0  0
    2.6140    1.4700   -4.7730 C   0  0  0  0  0  0  0  0  0  0  0  0
    2.4670    0.9270   -3.4890 C   0  0  0  0  0  0  0  0  0  0  0  0
    1.1820    1.0230   -2.8920 N   0  0  0  0  0  0  0  0  0  0  0  0
    0.6770    0.1610   -1.9100 C   0  0  0  0  0  0  0  0  0  0  0  0
    1.3800   -0.8020   -1.4960 O   0  0  0  0  0  0  0  0  0  0  0  0
   -0.6630    0.3520   -1.3420 C   0  0  0  0  0  0  0  0  0  0  0  0
   -1.5880    1.2310   -1.8500 C   0  0  0  0  0  0  0  0  0  0  0  0
   -2.8450    1.4040   -1.2970 C   0  0  0  0  0  0  0  0  0  0  0  0
   -3.1900    0.6560   -0.1770 C   0  0  0  0  0  0  0  0  0  0  0  0
   -4.5100    0.8070    0.4320 C   0  0  0  0  0  0  0  0  0  0  0  0
   -4.6300    0.3650    1.7860 N   0  0  1  0  0  0  0  0  0  0  0  0
   -5.4710    1.2700    2.5600 C   0  0  0  0  0  0  0  0  0  0  0  0
   -6.2010    0.4440    3.5930 C   0  0  0  0  0  0  0  0  0  0  0  0
   -7.1700   -0.4500    3.0060 N   0  0  1  0  0  0  0  0  0  0  0  0
   -8.4790    0.1650    2.8950 C   0  0  0  0  0  0  0  0  0  0  0  0
   -6.6800   -0.8860    1.7250 C   0  0  0  0  0  0  0  0  0  0  0  0
   -5.1710   -0.9810    1.7950 C   0  0  0  0  0  0  0  0  0  0  0  0
   -2.2780   -0.2270    0.3440 C   0  0  0  0  0  0  0  0  0  0  0  0
   -1.0360   -0.3840   -0.2190 C   0  0  0  0  0  0  0  0  0  0  0  0
    3.5830    0.3740   -2.9130 C   0  0  0  0  0  0  0  0  0  0  0  0
    4.8060    0.3280   -3.5260 C   0  0  0  0  0  0  0  0  0  0  0  0
    5.9300   -0.2620   -2.9330 N   0  0  0  0  0  0  0  0  0  0  0  0
    6.0930   -0.7440   -1.6260 C   0  0  0  0  0  0  0  0  0  0  0  0
    7.2950   -1.3050   -1.3010 N   0  0  0  0  0  0  0  0  0  0  0  0
    7.6000   -1.7840   -0.0920 C   0  0  0  0  0  0  0  0  0  0  0  0
    6.6370   -1.7080    0.9000 C   0  0  0  0  0  0  0  0  0  0  0  0
    5.4170   -1.1530    0.6210 C   0  0  0  0  0  0  0  0  0  0  0  0
    4.3900   -1.0350    1.6610 C   0  0  0  0  0  0  0  0  0  0  0  0
    4.5440   -1.5440    2.9110 C   0  0  0  0  0  0  0  0  0  0  0  0
    3.5770   -1.4180    3.8960 C   0  0  0  0  0  0  0  0  0  0  0  0
    2.4160   -0.7520    3.5980 C   0  0  0  0  0  0  0  0  0  0  0  0
    2.2680   -0.2510    2.3640 N   0  0  0  0  0  0  0  0  0  0  0  0
    3.1970   -0.3660    1.4020 C   0  0  0  0  0  0  0  0  0  0  0  0
    5.2020   -0.6980   -0.6270 N   0  0  0  0  0  0  0  0  0  0  0  0
  1  2  1  0
  2  3  2  0
  2 24  1  0
  3  4  1  0
  4  5  2  0
  5  6  1  0
  5 23  1  0
  6  7  1  0
  7  8  2  0
  7  9  1  0
  9 10  2  0
  9 22  1  0
 10 11  1  0
 11 12  2  0
 12 13  1  0
 12 21  1  0
 14 13  1  6
 14 15  1  0
 14 20  1  0
 15 16  1  0
 16 17  1  0
 17 18  1  6
 17 19  1  0
 19 20  1  0
 21 22  2  0
 23 24  2  0
 24 25  1  0
 25 26  1  0
 26 27  2  0
 26 37  1  0
 27 28  1  0
 28 29  2  0
 29 30  1  0
 30 31  1  0
 30 37  2  0
 31 32  2  0
 31 36  1  0
 32 33  1  0
 33 34  2  0
 34 35  1  0
 35 36  2  0
M  CHG  2  14   1  17   1
M  END
