
     RDKit          3D

 37 40  0  0  0  0  0  0  0  0999 V2000
    5.2760    3.5180    1.3800 C   0  0  0  0  0  0  0  0  0  0  0  0
    5.5770    2.5770    2.2480 C   0  0  0  0  0  0  0  0  0  0  0  0
    5.9930    2.9540    3.4890 F   0  0  0  0  0  0  0  0  0  0  0  0
    5.4640    1.1840    1.8590 C   0  0  0  0  0  0  0  0  0  0  0  0
    5.7830    0.2670    2.7920 C   0  0  0  0  0  0  0  0  0  0  0  0
    5.0540    0.8540    0.5790 N   0  0  0  0  0  0  0  0  0  0  0  0
    3.9240    0.5810    0.1020 C   0  0  0  0  0  0  0  0  0  0  0  0
    2.8290    0.5760    0.8780 N   0  0  0  0  0  0  0  0  0  0  0  0
    1.6050    0.2740    0.3820 C   0  0  0  0  0  0  0  0  0  0  0  0
    0.3630    0.2620    1.1880 C   0  0  0  0  0  0  0  0  0  0  0  0
   -0.6520   -0.5800    0.6270 N   0  0  0  0  0  0  0  0  0  0  0  0
   -0.4140   -2.0140    0.5150 C   0  0  0  0  0  0  0  0  0  0  0  0
   -1.6450   -2.6740    1.1340 C   0  0  0  0  0  0  0  0  0  0  0  0
   -2.6890   -2.9970    0.0920 C   0  0  1  0  0  0  0  0  0  0  0  0
   -3.8710   -3.4660    0.7520 N   0  0  1  0  0  0  0  0  0  0  0  0
   -5.0630   -3.3930   -0.0560 C   0  0  0  0  0  0  0  0  0  0  0  0
   -3.6600   -4.8390    1.1400 C   0  0  0  0  0  0  0  0  0  0  0  0
   -2.9880   -1.8500   -0.8150 C   0  0  0  0  0  0  0  0  0  0  0  0
   -3.1920   -0.5350   -0.0840 C   0  0  0  0  0  0  0  0  0  0  0  0
   -1.8650    0.0680    0.1940 C   0  0  0  0  0  0  0  0  0  0  0  0
   -1.6950    1.3330    0.0490 N   0  0  0  0  0  0  0  0  0  0  0  0
   -2.7630    2.1150   -0.3640 N   0  0  0  0  0  0  0  0  0  0  0  0
   -3.2000    3.1550    0.4990 C   0  0  0  0  0  0  0  0  0  0  0  0
   -2.6180    4.3970    0.3490 C   0  0  0  0  0  0  0  0  0  0  0  0
   -3.0470    5.4100    1.1930 C   0  0  0  0  0  0  0  0  0  0  0  0
   -4.0100    5.1810    2.1370 C   0  0  0  0  0  0  0  0  0  0  0  0
   -4.3750    6.2320    2.9290 F   0  0  0  0  0  0  0  0  0  0  0  0
   -4.5790    3.9330    2.2730 C   0  0  0  0  0  0  0  0  0  0  0  0
   -4.1670    2.8990    1.4380 C   0  0  0  0  0  0  0  0  0  0  0  0
    1.4850   -0.0380   -0.9610 C   0  0  0  0  0  0  0  0  0  0  0  0
    2.5990   -0.0340   -1.7560 C   0  0  0  0  0  0  0  0  0  0  0  0
    3.7810    0.2760   -1.1960 N   0  0  0  0  0  0  0  0  0  0  0  0
    4.9760    0.2880   -2.0200 C   0  0  0  0  0  0  0  0  0  0  0  0
    4.8240   -0.8610   -3.0130 C   0  0  0  0  0  0  0  0  0  0  0  0
    3.7070   -0.4920   -3.9470 C   0  0  0  0  0  0  0  0  0  0  0  0
    2.4950   -0.3560   -3.1390 N   0  0  0  0  0  0  0  0  0  0  0  0
    1.2100   -0.5550   -3.7600 C   0  0  0  0  0  0  0  0  0  0  0  0
  1  2  2  0
  2  3  1  0
  2  4  1  0
  4  5  2  0
  4  6  1  0
  6  7  2  3
  7  8  1  0
  7 32  1  0
  8  9  2  0
  9 10  1  0
  9 30  1  0
 10 11  1  0
 11 12  1  0
 11 20  1  0
 12 13  1  0
 14 13  1  1
 14 15  1  0
 14 18  1  0
 15 16  1  6
 15 17  1  0
 18 19  1  0
 19 20  1  0
 20 21  2  3
 21 22  1  0
 22 23  1  0
 23 24  2  0
 23 29  1  0
 24 25  1  0
 25 26  2  0
 26 27  1  0
 26 28  1  0
 28 29  2  0
 30 31  2  0
 31 32  1  0
 31 36  1  0
 32 33  1  0
 33 34  1  0
 34 35  1  0
 35 36  1  0
 36 37  1  0
M  CHG  2   8   1  15   1
M  END
