
     RDKit          3D

 37 41  0  0  0  0  0  0  0  0999 V2000
   -1.3560    5.8100   -0.7540 F   0  0  0  0  0  0  0  0  0  0  0  0
   -1.3170    4.6200   -0.1120 C   0  0  0  0  0  0  0  0  0  0  0  0
   -1.1340    4.5900    1.2630 C   0  0  0  0  0  0  0  0  0  0  0  0
   -1.0860    3.4190    1.9690 C   0  0  0  0  0  0  0  0  0  0  0  0
   -1.2200    2.1760    1.3310 C   0  0  0  0  0  0  0  0  0  0  0  0
   -1.1490    0.9470    2.0920 C   0  0  0  0  0  0  0  0  0  0  0  0
   -1.3000   -0.2340    1.7470 N   0  0  0  0  0  0  0  0  0  0  0  0
   -1.5870   -0.8390    0.5630 N   0  0  0  0  0  0  0  0  0  0  0  0
   -2.8970   -0.9570    0.1030 C   0  0  0  0  0  0  0  0  0  0  0  0
   -4.0520   -0.4070    0.7590 C   0  0  0  0  0  0  0  0  0  0  0  0
   -5.2900   -0.5400    0.5250 C   0  0  0  0  0  0  0  0  0  0  0  0
   -6.1340   -1.2330   -0.4010 C   0  0  0  0  0  0  0  0  0  0  0  0
   -7.4770   -0.8180   -0.4960 C   0  0  0  0  0  0  0  0  0  0  0  0
   -8.3470   -1.4660   -1.3060 C   0  0  0  0  0  0  0  0  0  0  0  0
   -7.9730   -2.5390   -2.0590 C   0  0  0  0  0  0  0  0  0  0  0  0
   -6.7080   -2.9430   -1.9780 N   0  0  0  0  0  0  0  0  0  0  0  0
   -5.8220   -2.3130   -1.1780 C   0  0  0  0  0  0  0  0  0  0  0  0
   -2.7380   -1.6080   -1.0480 N   0  0  0  0  0  0  0  0  0  0  0  0
   -1.5100   -1.8870   -1.3240 N   0  0  0  0  0  0  0  0  0  0  0  0
   -0.7440   -1.4030   -0.2990 C   0  0  0  0  0  0  0  0  0  0  0  0
    0.7420   -1.5420   -0.2110 C   0  0  2  0  0  0  0  0  0  0  0  0
    1.1490   -2.7740    0.5840 C   0  0  0  0  0  0  0  0  0  0  0  0
    2.4700   -3.2170    0.2590 N   0  0  0  0  0  0  0  0  0  0  0  0
    3.0860   -2.6200   -0.8690 C   0  0  0  0  0  0  0  0  0  0  0  0
    3.1580   -1.1460   -0.9350 C   0  0  0  0  0  0  0  0  0  0  0  0
    2.8500   -0.4370    0.2640 N   0  0  1  0  0  0  0  0  0  0  0  0
    3.3530    0.9020    0.3360 C   0  0  0  0  0  0  0  0  0  0  0  0
    4.8130    1.0130    0.4410 C   0  0  0  0  0  0  0  0  0  0  0  0
    5.4790    0.9060    1.6330 C   0  0  0  0  0  0  0  0  0  0  0  0
    6.8440    1.0210    1.6500 C   0  0  0  0  0  0  0  0  0  0  0  0
    7.5760    1.2380    0.5410 N   0  0  0  0  0  0  0  0  0  0  0  0
    6.9430    1.3460   -0.6310 C   0  0  0  0  0  0  0  0  0  0  0  0
    5.5740    1.2350   -0.6870 C   0  0  0  0  0  0  0  0  0  0  0  0
    1.3950   -0.3650    0.4100 C   0  0  0  0  0  0  0  0  0  0  0  0
   -1.4000    2.2180   -0.0270 C   0  0  0  0  0  0  0  0  0  0  0  0
   -1.4500    3.4100   -0.7480 C   0  0  0  0  0  0  0  0  0  0  0  0
   -1.6310    3.4130   -2.0960 F   0  0  0  0  0  0  0  0  0  0  0  0
  1  2  1  0
  2  3  2  0
  2 36  1  0
  3  4  1  0
  4  5  2  0
  5  6  1  0
  5 35  1  0
  6  7  2  3
  7  8  1  0
  8  9  1  0
  8 20  1  0
  9 10  1  0
  9 18  2  0
 10 11  2  3
 11 12  1  0
 12 13  2  0
 12 17  1  0
 13 14  1  0
 14 15  2  0
 15 16  1  0
 16 17  2  0
 18 19  1  0
 19 20  2  0
 21 20  1  1
 21 22  1  0
 21 34  1  0
 22 23  1  0
 23 24  1  0
 24 25  1  0
 25 26  1  0
 26 27  1  6
 26 34  1  0
 27 28  1  0
 28 29  2  0
 28 33  1  0
 29 30  1  0
 30 31  2  0
 31 32  1  0
 32 33  2  0
 35 36  2  0
 36 37  1  0
M  CHG  2  26   1  31   1
M  END
