
     RDKit          3D

 37 41  0  0  0  0  0  0  0  0999 V2000
    5.0650    1.8660   -0.9660 C   0  0  0  0  0  0  0  0  0  0  0  0
    6.1060    1.0440   -1.5490 N   0  0  2  0  0  0  0  0  0  0  0  0
    5.5190    0.0210   -2.3390 C   0  0  0  0  0  0  0  0  0  0  0  0
    5.6180   -1.3940   -2.0100 C   0  0  0  0  0  0  0  0  0  0  0  0
    6.2950   -1.7410   -0.7390 N   0  0  0  0  0  0  0  0  0  0  0  0
    5.6050   -2.8910   -0.0910 C   0  0  0  0  0  0  0  0  0  0  0  0
    4.4520   -2.4050    0.6710 C   0  0  0  0  0  0  0  0  0  0  0  0
    4.4650   -2.7170    1.9730 C   0  0  0  0  0  0  0  0  0  0  0  0
    3.5720   -2.4560    3.0670 C   0  0  0  0  0  0  0  0  0  0  0  0
    3.9590   -2.7750    4.3560 C   0  0  0  0  0  0  0  0  0  0  0  0
    4.3130   -3.0510    5.5590 N   0  0  0  0  0  0  0  0  0  0  0  0
    2.4070   -1.7600    2.9880 C   0  0  0  0  0  0  0  0  0  0  0  0
    1.8720   -1.1640    1.8160 N   0  0  0  0  0  0  0  0  0  0  0  0
    0.6460   -0.4940    2.0840 C   0  0  0  0  0  0  0  0  0  0  0  0
    0.0790    0.1580    1.1550 N   0  0  0  0  0  0  0  0  0  0  0  0
    0.5630    0.2870   -0.1430 C   0  0  0  0  0  0  0  0  0  0  0  0
    0.0760    1.2050   -1.1180 N   0  0  0  0  0  0  0  0  0  0  0  0
   -0.9500    1.0940   -2.0360 C   0  0  0  0  0  0  0  0  0  0  0  0
   -2.2550    0.9630   -1.2910 C   0  0  0  0  0  0  0  0  0  0  0  0
   -3.1080   -0.1100   -1.5140 C   0  0  0  0  0  0  0  0  0  0  0  0
   -4.3780   -0.0780   -0.9070 C   0  0  0  0  0  0  0  0  0  0  0  0
   -4.7960    0.9570   -0.1130 C   0  0  0  0  0  0  0  0  0  0  0  0
   -6.0720    1.1340    0.5530 C   0  0  0  0  0  0  0  0  0  0  0  0
   -7.1130    0.1940    0.3610 N   0  0  1  0  0  0  0  0  0  0  0  0
   -7.3080   -0.5830    1.5500 C   0  0  0  0  0  0  0  0  0  0  0  0
   -8.2510    0.9970   -0.0480 C   0  0  1  0  0  0  0  0  0  0  0  0
   -9.5700    1.0650    0.4910 C   0  0  0  0  0  0  0  0  0  0  0  0
   -8.5410    2.0510    1.0600 C   0  0  0  0  0  0  0  0  0  0  0  0
   -3.9010    2.0150    0.0930 C   0  0  0  0  0  0  0  0  0  0  0  0
   -4.1950    3.0750    0.8520 F   0  0  0  0  0  0  0  0  0  0  0  0
   -2.6670    1.9890   -0.4950 C   0  0  0  0  0  0  0  0  0  0  0  0
   -1.7410    3.0100   -0.3020 F   0  0  0  0  0  0  0  0  0  0  0  0
    1.7040   -0.3150   -0.5100 C   0  0  0  0  0  0  0  0  0  0  0  0
    2.4290   -1.0910    0.4780 C   0  0  0  0  0  0  0  0  0  0  0  0
    3.5170   -1.6160   -0.0010 N   0  0  0  0  0  0  0  0  0  0  0  0
    5.9790   -0.5740    0.1490 C   0  0  0  0  0  0  0  0  0  0  0  0
    6.8830    0.5290   -0.4160 C   0  0  0  0  0  0  0  0  0  0  0  0
  2  1  1  1
  2  3  1  0
  2 37  1  0
  3  4  1  0
  4  5  1  0
  5  6  1  0
  5 36  1  0
  6  7  1  0
  7  8  2  0
  7 35  1  0
  8  9  1  0
  9 10  1  0
  9 12  2  0
 10 11  3  0
 12 13  1  0
 13 14  1  0
 13 34  1  0
 14 15  2  0
 15 16  1  0
 16 17  1  0
 16 33  2  0
 17 18  1  0
 18 19  1  0
 19 20  2  0
 19 31  1  0
 20 21  1  0
 21 22  2  0
 22 23  1  0
 22 29  1  0
 23 24  1  0
 24 25  1  1
 24 26  1  0
 26 27  1  1
 26 28  1  0
 27 28  1  0
 29 30  1  0
 29 31  2  0
 31 32  1  0
 33 34  1  0
 34 35  2  0
 36 37  1  0
M  CHG  2   2   1  24   1
M  END
