
     RDKit          3D

 37 41  0  0  0  0  0  0  0  0999 V2000
   -1.9200   -1.1210   -0.9120 C   0  0  0  0  0  0  0  0  0  0  0  0
   -1.7060   -0.7470    0.4700 C   0  0  0  0  0  0  0  0  0  0  0  0
   -2.7690   -0.3920    1.1320 N   0  0  0  0  0  0  0  0  0  0  0  0
   -4.0740   -0.2980    0.8040 C   0  0  0  0  0  0  0  0  0  0  0  0
   -4.4630    0.7020    0.0380 C   0  0  0  0  0  0  0  0  0  0  0  0
   -3.4120    1.6120   -0.3730 C   0  0  0  0  0  0  0  0  0  0  0  0
   -3.5970    2.6350   -1.1140 C   0  0  0  0  0  0  0  0  0  0  0  0
   -2.4810    3.3940   -1.4140 F   0  0  0  0  0  0  0  0  0  0  0  0
   -5.8160    1.0770   -0.5220 C   0  0  0  0  0  0  0  0  0  0  0  0
   -6.8900    0.8050    0.4230 N   0  0  0  0  0  0  0  0  0  0  0  0
   -7.7260   -0.3110    0.0030 C   0  0  0  0  0  0  0  0  0  0  0  0
   -7.2900   -1.5630    0.6530 C   0  0  0  0  0  0  0  0  0  0  0  0
   -8.1260   -2.5290    0.5240 N   0  0  0  0  0  0  0  0  0  0  0  0
   -6.0670   -1.8970    1.4230 C   0  0  0  0  0  0  0  0  0  0  0  0
   -6.2740   -2.9370    2.2390 F   0  0  0  0  0  0  0  0  0  0  0  0
   -4.8600   -1.3860    1.4490 C   0  0  0  0  0  0  0  0  0  0  0  0
   -0.5040   -0.8370    1.2360 C   0  0  0  0  0  0  0  0  0  0  0  0
   -0.6690   -0.7970    2.6650 C   0  0  0  0  0  0  0  0  0  0  0  0
    0.3610   -0.9630    3.4820 N   0  0  0  0  0  0  0  0  0  0  0  0
    1.5980   -1.1760    3.0320 C   0  0  0  0  0  0  0  0  0  0  0  0
    1.7860   -1.2180    1.6910 C   0  0  0  0  0  0  0  0  0  0  0  0
    0.7260   -1.0460    0.7610 C   0  0  0  0  0  0  0  0  0  0  0  0
    1.1150   -1.0320   -0.5750 N   0  0  0  0  0  0  0  0  0  0  0  0
    1.0190   -2.0220   -1.5750 C   0  0  0  0  0  0  0  0  0  0  0  0
    2.3630   -2.2450   -2.2610 C   0  0  0  0  0  0  0  0  0  0  0  0
    3.4040   -1.3690   -1.7980 N   0  0  0  0  0  0  0  0  0  0  0  0
    4.6950   -1.5800   -1.9110 N   0  0  0  0  0  0  0  0  0  0  0  0
    5.3910   -0.5810   -1.3320 C   0  0  0  0  0  0  0  0  0  0  0  0
    6.8680   -0.5610   -1.3050 C   0  0  0  0  0  0  0  0  0  0  0  0
    4.4920    0.3230   -0.8170 C   0  0  0  0  0  0  0  0  0  0  0  0
    4.7110    1.5220   -0.1180 N   0  0  2  0  0  0  0  0  0  0  0  0
    6.0490    1.9800   -0.0090 C   0  0  0  0  0  0  0  0  0  0  0  0
    5.8040    3.2270    0.8940 C   0  0  0  0  0  0  0  0  0  0  0  0
    4.7630    2.7320    1.8640 C   0  0  0  0  0  0  0  0  0  0  0  0
    4.3440    1.4030    1.2870 C   0  0  0  0  0  0  0  0  0  0  0  0
    3.2620   -0.2080   -1.1350 C   0  0  0  0  0  0  0  0  0  0  0  0
    1.8440    0.2480   -0.9500 C   0  0  0  0  0  0  0  0  0  0  0  0
  1  2  1  0
  2  3  2  3
  2 17  1  0
  3  4  1  0
  4  5  2  0
  4 16  1  0
  5  6  1  0
  5  9  1  0
  6  7  2  3
  7  8  1  0
  9 10  1  0
 10 11  1  0
 11 12  1  0
 12 13  2  0
 12 14  1  0
 14 15  1  0
 14 16  2  0
 17 18  2  0
 17 22  1  0
 18 19  1  0
 19 20  2  0
 20 21  1  0
 21 22  2  0
 22 23  1  0
 23 24  1  0
 23 37  1  0
 24 25  1  0
 25 26  1  0
 26 27  1  0
 26 36  1  0
 27 28  2  0
 28 29  1  0
 28 30  1  0
 31 30  1  1
 30 36  2  0
 31 32  1  0
 31 35  1  0
 32 33  1  0
 33 34  1  0
 34 35  1  0
 36 37  1  0
M  CHG  2  10   1  31   1
M  END
