
     RDKit          3D

 36 40  0  0  0  0  0  0  0  0999 V2000
   -7.4860   -0.0000    0.1390 C   0  0  0  0  0  0  0  0  0  0  0  0
   -6.8830   -0.4020   -1.1180 N   0  0  2  0  0  0  0  0  0  0  0  0
   -7.9240   -0.9170   -2.0130 C   0  0  0  0  0  0  0  0  0  0  0  0
   -5.9210   -1.4510   -0.8180 C   0  0  0  0  0  0  0  0  0  0  0  0
   -4.8350   -1.5900   -1.8330 C   0  0  0  0  0  0  0  0  0  0  0  0
   -3.9400   -0.4260   -2.0440 C   0  0  0  0  0  0  0  0  0  0  0  0
   -3.1580   -0.0340   -0.9780 N   0  0  0  0  0  0  0  0  0  0  0  0
   -3.7320    0.5650    0.1400 C   0  0  0  0  0  0  0  0  0  0  0  0
   -2.9430    1.8250    0.5180 C   0  0  0  0  0  0  0  0  0  0  0  0
   -1.5300    1.4670    0.8780 C   0  0  1  0  0  0  0  0  0  0  0  0
   -0.6630    2.6250    0.3790 C   0  0  0  0  0  0  0  0  0  0  0  0
   -1.4140    1.5080    2.3870 C   0  0  0  0  0  0  0  0  0  0  0  0
   -1.1430    0.1730    0.2770 C   0  0  2  0  0  0  0  0  0  0  0  0
    0.2530   -0.0860    0.1560 N   0  0  0  0  0  0  0  0  0  0  0  0
    0.7010   -1.0320    1.1630 C   0  0  0  0  0  0  0  0  0  0  0  0
    2.0700   -1.5400    0.8600 C   0  0  0  0  0  0  0  0  0  0  0  0
    2.4640   -2.7160    0.2660 C   0  0  0  0  0  0  0  0  0  0  0  0
    3.8020   -2.7540    0.1860 N   0  0  0  0  0  0  0  0  0  0  0  0
    4.2910   -1.6180    0.7180 C   0  0  0  0  0  0  0  0  0  0  0  0
    5.4410   -0.9740    0.9770 N   0  0  0  0  0  0  0  0  0  0  0  0
    6.7880   -1.4280    0.6960 C   0  0  0  0  0  0  0  0  0  0  0  0
    7.2390   -1.0390   -0.6530 C   0  0  0  0  0  0  0  0  0  0  0  0
    7.9030    0.1390   -0.8660 C   0  0  0  0  0  0  0  0  0  0  0  0
    8.3230    0.5120   -2.1090 N   0  0  0  0  0  0  0  0  0  0  0  0
    8.0570   -0.3300   -3.1320 C   0  0  0  0  0  0  0  0  0  0  0  0
    7.3950   -1.5170   -2.9550 C   0  0  0  0  0  0  0  0  0  0  0  0
    7.1360   -2.3550   -3.9950 F   0  0  0  0  0  0  0  0  0  0  0  0
    7.0030   -1.8360   -1.7080 N   0  0  0  0  0  0  0  0  0  0  0  0
    5.0820    0.1940    1.5630 C   0  0  0  0  0  0  0  0  0  0  0  0
    5.8370    1.2460    2.0410 C   0  0  0  0  0  0  0  0  0  0  0  0
    5.2150    2.3430    2.6060 C   0  0  0  0  0  0  0  0  0  0  0  0
    3.8400    2.3690    2.6840 C   0  0  0  0  0  0  0  0  0  0  0  0
    3.0830    1.3210    2.2080 C   0  0  0  0  0  0  0  0  0  0  0  0
    3.7320    0.2430    1.6510 C   0  0  0  0  0  0  0  0  0  0  0  0
    3.2330   -0.8960    1.1200 N   0  0  0  0  0  0  0  0  0  0  0  0
   -1.7540    0.1210   -1.1340 C   0  0  0  0  0  0  0  0  0  0  0  0
  2  1  1  1
  2  3  1  0
  2  4  1  0
  4  5  1  0
  5  6  1  0
  6  7  1  0
  7  8  1  0
  7 36  1  0
  8  9  1  0
  9 10  1  0
 10 11  1  6
 10 12  1  0
 10 13  1  0
 13 14  1  6
 13 36  1  0
 14 15  1  0
 15 16  1  0
 16 17  2  0
 16 35  1  0
 17 18  1  0
 18 19  2  0
 19 20  1  0
 19 35  1  0
 20 21  1  0
 20 29  1  0
 21 22  1  0
 22 23  2  0
 22 28  1  0
 23 24  1  0
 24 25  2  0
 25 26  1  0
 26 27  1  0
 26 28  2  0
 29 30  2  0
 29 34  1  0
 30 31  1  0
 31 32  2  0
 32 33  1  0
 33 34  2  0
 34 35  1  0
M  CHG  2   2   1  14   1
M  END
