
     RDKit          3D

 11 12  0  0  0  0  0  0  0  0999 V2000
    2.7650    2.1720    0.5820 O   0  0  0  0  0  0  0  0  0  0  0  0
    2.6310    0.9640    0.8550 N   0  0  0  0  0  0  0  0  0  0  0  0
    1.6060    0.1980    0.2290 C   0  0  0  0  0  0  0  0  0  0  0  0
    1.5290   -1.0070   -0.2730 C   0  0  0  0  0  0  0  0  0  0  0  0
    2.7420   -2.4440   -0.4630 Br  0  0  0  0  0  0  0  0  0  0  0  0
    0.1230   -0.7490   -0.6110 C   0  0  0  0  0  0  0  0  0  0  0  0
    0.2610    0.4700   -0.0850 N   0  0  0  0  0  0  0  0  0  0  0  0
   -1.0270    0.0980   -0.6360 C   0  0  1  0  0  0  0  0  0  0  0  0
   -1.5090    0.9220   -2.1280 Cl  0  0  0  0  0  0  0  0  0  0  0  0
   -2.0960   -0.1120    0.3990 C   0  0  0  0  0  0  0  0  0  0  0  0
   -1.6180    0.0480    1.6840 F   0  0  0  0  0  0  0  0  0  0  0  0
  1  2  2  0
  2  3  1  0
  3  4  2  0
  3  7  1  0
  4  5  1  0
  4  6  1  0
  6  7  2  0
  6  8  1  0
  7  8  1  0
  8  9  1  6
  8 10  1  0
 10 11  1  0
M  CHG  1   7   1
M  END
