
     RDKit          3D

 21 22  0  0  0  0  0  0  0  0999 V2000
   -6.4660    0.3810    1.5400 N   0  0  0  0  0  0  0  0  0  0  0  0
   -5.2330   -0.3120    1.3740 C   0  0  0  0  0  0  0  0  0  0  0  0
   -5.2450   -1.5880    1.3580 N   0  0  0  0  0  0  0  0  0  0  0  0
   -4.0000    0.3790    1.2260 N   0  0  0  0  0  0  0  0  0  0  0  0
   -2.9620   -0.1490    0.4510 N   0  0  0  0  0  0  0  0  0  0  0  0
   -2.0130    0.7430   -0.1140 C   0  0  0  0  0  0  0  0  0  0  0  0
   -2.0610    1.9870    0.0520 O   0  0  0  0  0  0  0  0  0  0  0  0
   -0.9210    0.2590   -0.9240 N   0  0  0  0  0  0  0  0  0  0  0  0
    0.0360    1.1750   -1.4920 C   0  0  0  0  0  0  0  0  0  0  0  0
    1.1090    0.5750   -2.3060 C   0  0  0  0  0  0  0  0  0  0  0  0
    1.9790   -0.3600   -1.6860 N   0  0  0  0  0  0  0  0  0  0  0  0
    1.9350   -1.6980   -1.5690 C   0  0  0  0  0  0  0  0  0  0  0  0
    1.0220   -2.4220   -2.0460 O   0  0  0  0  0  0  0  0  0  0  0  0
    2.9830   -2.1740   -0.8840 N   0  0  0  0  0  0  0  0  0  0  0  0
    3.7190   -1.0980   -0.5540 C   0  0  0  0  0  0  0  0  0  0  0  0
    4.9090   -0.9390    0.1470 C   0  0  0  0  0  0  0  0  0  0  0  0
    5.4900    0.2880    0.3650 C   0  0  0  0  0  0  0  0  0  0  0  0
    4.8870    1.4160   -0.1210 C   0  0  0  0  0  0  0  0  0  0  0  0
    5.5610    3.0170    0.1120 Cl  0  0  0  0  0  0  0  0  0  0  0  0
    3.7010    1.2720   -0.8220 C   0  0  0  0  0  0  0  0  0  0  0  0
    3.1170    0.0420   -1.0410 C   0  0  0  0  0  0  0  0  0  0  0  0
  1  2  1  0
  2  3  2  0
  2  4  1  0
  4  5  1  0
  5  6  1  0
  6  7  2  0
  6  8  1  0
  8  9  1  0
  9 10  1  0
 10 11  1  0
 11 12  1  0
 11 21  1  0
 12 13  2  0
 12 14  1  0
 14 15  1  0
 15 16  2  0
 15 21  1  0
 16 17  1  0
 17 18  2  0
 18 19  1  0
 18 20  1  0
 20 21  2  0
M  CHG  1   3   1
M  END
