
     RDKit          3D

 12 11  0  0  0  0  0  0  0  0999 V2000
   -2.6150   -0.1650   -0.4560 C   0  0  0  0  0  0  0  0  0  0  0  0
   -1.7140    0.5070    0.1510 N   0  0  0  0  0  0  0  0  0  0  0  0
   -1.9220    1.8030    0.5130 F   0  0  0  0  0  0  0  0  0  0  0  0
   -0.4790   -0.1040    0.4530 C   0  0  0  0  0  0  0  0  0  0  0  0
   -0.4750   -1.0850    1.3100 N   0  0  0  0  0  0  0  0  0  0  0  0
    0.9580   -1.9370    1.7860 Cl  0  0  0  0  0  0  0  0  0  0  0  0
    0.7480    0.3600   -0.1840 C   0  0  0  0  0  0  0  0  0  0  0  0
    1.8730   -0.2250    0.1150 C   0  0  0  0  0  0  0  0  0  0  0  0
    3.0550   -0.7600    0.0540 C   0  0  0  0  0  0  0  0  0  0  0  0
    3.9330   -1.6520    0.0390 O   0  0  0  0  0  0  0  0  0  0  0  0
    0.6720    1.4060   -1.0840 O   0  0  0  0  0  0  0  0  0  0  0  0
    1.9440    2.7280   -1.2840 Br  0  0  0  0  0  0  0  0  0  0  0  0
  1  2  2  0
  2  3  1  0
  2  4  1  0
  4  5  2  3
  4  7  1  0
  5  6  1  0
  7  8  2  0
  7 11  1  0
  8  9  2  0
  9 10  2  0
 11 12  1  0
M  CHG  1   2   1
M  END
