
     RDKit          3D

 12 11  0  0  0  0  0  0  0  0999 V2000
    4.8680    0.9960    0.0140 O   0  0  0  0  0  0  0  0  0  0  0  0
    3.7410    0.4410    0.0170 C   0  0  0  0  0  0  0  0  0  0  0  0
    2.8450   -0.4540   -0.0190 N   0  0  0  0  0  0  0  0  0  0  0  0
    1.8470   -0.4370   -0.9700 C   0  0  0  0  0  0  0  0  0  0  0  0
    1.8510   -0.0690   -2.6350 Cl  0  0  0  0  0  0  0  0  0  0  0  0
    0.6640   -0.7710   -0.4910 C   0  0  0  0  0  0  0  0  0  0  0  0
   -0.5550   -1.0170   -0.0440 C   0  0  0  0  0  0  0  0  0  0  0  0
   -0.8520   -2.2940   -0.1080 F   0  0  0  0  0  0  0  0  0  0  0  0
   -1.2760    0.1140    0.4000 C   0  0  0  0  0  0  0  0  0  0  0  0
   -2.5370    0.2190    0.1430 N   0  0  0  0  0  0  0  0  0  0  0  0
   -3.2980    1.2930    0.5450 O   0  0  0  0  0  0  0  0  0  0  0  0
   -3.4560   -1.1350   -0.8350 Br  0  0  0  0  0  0  0  0  0  0  0  0
  1  2  2  0
  2  3  2  0
  3  4  1  0
  4  5  1  0
  4  6  2  0
  6  7  2  0
  7  8  1  0
  7  9  1  0
  9 10  2  3
 10 11  1  0
 10 12  1  0
M  CHG  1  10   1
M  END
