
     RDKit          3D

 12 12  0  0  0  0  0  0  0  0999 V2000
    0.5690    3.6660   -0.5850 O   0  0  0  0  0  0  0  0  0  0  0  0
   -0.3290    2.8210   -0.4510 C   0  0  0  0  0  0  0  0  0  0  0  0
   -0.9880    1.7840   -0.0090 C   0  0  0  0  0  0  0  0  0  0  0  0
   -1.8290    1.8470    1.5260 Cl  0  0  0  0  0  0  0  0  0  0  0  0
   -0.9810    0.6510   -0.8150 O   0  0  0  0  0  0  0  0  0  0  0  0
   -0.4630   -0.5550   -0.3780 N   0  0  0  0  0  0  0  0  0  0  0  0
   -1.4100   -1.6350   -0.1990 C   0  0  0  0  0  0  0  0  0  0  0  0
   -2.3620   -1.2620    0.7470 F   0  0  0  0  0  0  0  0  0  0  0  0
    0.9320   -0.6870   -0.1300 C   0  0  0  0  0  0  0  0  0  0  0  0
    2.0160   -0.1610    0.5690 C   0  0  0  0  0  0  0  0  0  0  0  0
    2.7080    1.1240    1.7770 Br  0  0  0  0  0  0  0  0  0  0  0  0
    2.2140   -1.2800   -0.2810 N   0  0  0  0  0  0  0  0  0  0  0  0
  1  2  2  0
  2  3  2  0
  3  4  1  0
  3  5  1  0
  5  6  1  0
  6  7  1  0
  6  9  1  0
  7  8  1  0
  9 10  2  0
  9 12  1  0
 10 11  1  0
 10 12  1  0
M  END
