
     RDKit          3D

 12 12  0  0  0  0  0  0  0  0999 V2000
   -2.3550   -0.3970    0.4090 C   0  0  0  0  0  0  0  0  0  0  0  0
   -1.1010   -0.9530    0.5680 O   0  0  0  0  0  0  0  0  0  0  0  0
   -0.1810   -0.3550   -0.2740 C   0  0  1  0  0  0  0  0  0  0  0  0
   -0.5580   -0.4830   -1.6090 F   0  0  0  0  0  0  0  0  0  0  0  0
    0.0580    1.0750   -0.0540 C   0  0  0  0  0  0  0  0  0  0  0  0
   -0.8160    2.0510   -0.0720 N   0  0  0  0  0  0  0  0  0  0  0  0
   -0.2410    3.6580    0.2240 Cl  0  0  0  0  0  0  0  0  0  0  0  0
    1.4150    1.2140    0.1810 O   0  0  0  0  0  0  0  0  0  0  0  0
    2.0220   -0.0230    0.1160 C   0  0  0  0  0  0  0  0  0  0  0  0
    3.4010   -0.2890    0.3000 O   0  0  0  0  0  0  0  0  0  0  0  0
    1.1580   -0.9680   -0.1430 C   0  0  0  0  0  0  0  0  0  0  0  0
    1.5870   -2.8460   -0.3220 Br  0  0  0  0  0  0  0  0  0  0  0  0
  1  2  1  0
  2  3  1  0
  3  4  1  6
  3  5  1  0
  3 11  1  0
  5  6  2  3
  5  8  1  0
  6  7  1  0
  8  9  1  0
  9 10  1  0
  9 11  2  0
 11 12  1  0
M  END
