
     RDKit          3D

 30 32  0  0  0  0  0  0  0  0999 V2000
   -5.2710   -3.7310    1.4900 C   0  0  0  0  0  0  0  0  0  0  0  0
   -4.1110   -2.8060    1.6420 C   0  0  0  0  0  0  0  0  0  0  0  0
   -4.4420   -1.4170    1.0230 C   0  0  2  0  0  0  0  0  0  0  0  0
   -5.6210   -0.8870    1.7520 C   0  0  0  0  0  0  0  0  0  0  0  0
   -4.8070   -1.7470   -0.2920 O   0  0  0  0  0  0  0  0  0  0  0  0
   -3.2080   -0.6050    1.0560 C   0  0  0  0  0  0  0  0  0  0  0  0
   -3.2050    0.7750    0.5560 C   0  0  1  0  0  0  0  0  0  0  0  0
   -1.8260    1.3430    0.7220 C   0  0  0  0  0  0  0  0  0  0  0  0
   -0.7410    0.6270    0.0170 C   0  0  0  0  0  0  0  0  0  0  0  0
    0.6080    1.3230    0.2870 C   0  0  1  0  0  0  0  0  0  0  0  0
    0.8600    1.3050    1.7440 C   0  0  0  0  0  0  0  0  0  0  0  0
    2.2700    1.4550    2.1750 C   0  0  2  0  0  0  0  0  0  0  0  0
    2.5300    2.7800    2.9000 C   0  0  0  0  0  0  0  0  0  0  0  0
    3.2850    1.2200    1.0910 C   0  0  0  0  0  0  0  0  0  0  0  0
    2.7870    0.0920    0.2400 C   0  0  2  0  0  0  0  0  0  0  0  0
    2.3360   -0.9130    1.0880 O   0  0  0  0  0  0  0  0  0  0  0  0
    3.8300   -0.4580   -0.6930 C   0  0  1  0  0  0  0  0  0  0  0  0
    4.3480    0.5780   -1.6510 C   0  0  0  0  0  0  0  0  0  0  0  0
    5.5820    0.0110   -2.3210 C   0  0  0  0  0  0  0  0  0  0  0  0
    5.5210   -1.5060   -2.3840 C   0  0  0  0  0  0  0  0  0  0  0  0
    5.5840   -2.1150   -1.0010 C   0  0  1  0  0  0  0  0  0  0  0  0
    6.9760   -2.5030   -0.6060 C   0  0  0  0  0  0  0  0  0  0  0  0
    4.9610   -1.1350    0.0030 C   0  0  0  0  0  0  0  0  0  0  0  0
    1.6130    0.6030   -0.5480 C   0  0  0  0  0  0  0  0  0  0  0  0
   -3.9130    1.0410   -0.6960 C   0  0  1  0  0  0  0  0  0  0  0  0
   -5.2790    0.7160   -0.4990 O   0  0  0  0  0  0  0  0  0  0  0  0
   -3.9460    2.5020   -1.0950 C   0  0  0  0  0  0  0  0  0  0  0  0
   -2.9500    2.6340   -2.2350 C   0  0  0  0  0  0  0  0  0  0  0  0
   -2.9460    1.2840   -2.9210 C   0  0  0  0  0  0  0  0  0  0  0  0
   -3.5040    0.2930   -1.9160 C   0  0  0  0  0  0  0  0  0  0  0  0
  1  2  1  0
  2  3  1  0
  3  4  1  1
  3  5  1  0
  3  6  1  0
  7  6  1  6
  7  8  1  0
  7 25  1  0
  8  9  1  0
 10  9  1  1
 10 11  1  0
 10 24  1  0
 11 12  1  0
 12 13  1  6
 12 14  1  0
 14 15  1  0
 15 16  1  1
 15 17  1  0
 15 24  1  0
 17 18  1  1
 17 23  1  0
 18 19  1  0
 19 20  1  0
 20 21  1  0
 21 22  1  1
 21 23  1  0
 25 26  1  1
 25 27  1  0
 25 30  1  0
 27 28  1  0
 28 29  1  0
 29 30  1  0
M  END
