
     RDKit          3D

 29 30  0  0  0  0  0  0  0  0999 V2000
   -0.0550    3.0350   -1.4070 C   0  0  0  0  0  0  0  0  0  0  0  0
   -1.5230    2.9150   -1.6670 C   0  0  1  0  0  0  0  0  0  0  0  0
   -2.2280    3.5250   -0.4370 C   0  0  0  0  0  0  0  0  0  0  0  0
   -1.9280    3.7370   -2.8970 C   0  0  0  0  0  0  0  0  0  0  0  0
   -2.1200    1.2530   -1.8460 S   0  0  0  0  0  0  0  0  0  0  0  0
   -2.1380    0.3110   -0.3550 C   0  0  0  0  0  0  0  0  0  0  0  0
   -0.8950   -0.2150    0.2380 C   0  0  1  0  0  0  0  0  0  0  0  0
    0.0630    0.7690    0.6190 O   0  0  0  0  0  0  0  0  0  0  0  0
    1.4140    0.5620    0.2730 C   0  0  0  0  0  0  0  0  0  0  0  0
    1.6670   -0.4940   -0.3590 O   0  0  0  0  0  0  0  0  0  0  0  0
    2.4860    1.5320    0.6340 C   0  0  0  0  0  0  0  0  0  0  0  0
    3.7760    1.0100    0.1540 N   0  0  0  0  0  0  0  0  0  0  0  0
    4.6790    0.1730    0.8640 C   0  0  0  0  0  0  0  0  0  0  0  0
    5.7470   -0.1130    0.1450 C   0  0  0  0  0  0  0  0  0  0  0  0
    5.6320    0.5430   -1.1670 C   0  0  1  0  0  0  0  0  0  0  0  0
    6.8010    1.4520   -1.4650 C   0  0  0  0  0  0  0  0  0  0  0  0
    5.4780   -0.7410   -2.3910 Cl  0  0  0  0  0  0  0  0  0  0  0  0
    4.3520    1.2530   -1.1180 C   0  0  0  0  0  0  0  0  0  0  0  0
    3.7790    1.9720   -1.9840 O   0  0  0  0  0  0  0  0  0  0  0  0
   -1.3060   -0.9770    1.4750 C   0  0  0  0  0  0  0  0  0  0  0  0
   -1.0060   -0.4190    2.5910 O   0  0  0  0  0  0  0  0  0  0  0  0
   -1.9620   -2.2020    1.5310 N   0  0  0  0  0  0  0  0  0  0  0  0
   -2.2300   -2.8870    0.2890 C   0  0  0  0  0  0  0  0  0  0  0  0
   -3.7080   -3.1310    0.0840 C   0  0  0  0  0  0  0  0  0  0  0  0
   -4.1160   -4.4520    0.6700 C   0  0  0  0  0  0  0  0  0  0  0  0
   -3.3460   -4.8590    1.8000 N   0  0  0  0  0  0  0  0  0  0  0  0
   -2.7970   -4.0700    2.8320 C   0  0  0  0  0  0  0  0  0  0  0  0
   -2.6800   -4.6780    3.9500 O   0  0  0  0  0  0  0  0  0  0  0  0
   -2.3290   -2.6830    2.8840 C   0  0  0  0  0  0  0  0  0  0  0  0
  2  1  1  1
  2  3  1  0
  2  4  1  0
  2  5  1  0
  5  6  1  0
  7  6  1  1
  7  8  1  0
  7 20  1  0
  8  9  1  0
  9 10  2  0
  9 11  1  0
 11 12  1  0
 12 13  1  0
 12 18  1  0
 13 14  2  0
 14 15  1  0
 15 16  1  6
 15 17  1  0
 15 18  1  0
 18 19  2  0
 20 21  2  0
 20 22  1  0
 22 23  1  0
 22 29  1  0
 23 24  1  0
 24 25  1  0
 25 26  1  0
 26 27  1  0
 27 28  2  0
 27 29  1  0
M  END
