
     RDKit          3D

 29 31  0  0  0  0  0  0  0  0999 V2000
   -3.9820    2.7740    0.2680 C   0  0  0  0  0  0  0  0  0  0  0  0
   -4.4720    1.3470    0.3060 C   0  0  0  0  0  0  0  0  0  0  0  0
   -3.6510    0.3470    0.0360 C   0  0  0  0  0  0  0  0  0  0  0  0
   -2.2900    0.4990   -0.2900 N   0  0  0  0  0  0  0  0  0  0  0  0
   -1.4380    1.5030    0.3090 C   0  0  0  0  0  0  0  0  0  0  0  0
   -0.1970    0.7910    0.9300 C   0  0  0  0  0  0  0  0  0  0  0  0
    0.5770    0.1940   -0.1420 N   0  0  0  0  0  0  0  0  0  0  0  0
    1.9670    0.3810   -0.1570 C   0  0  0  0  0  0  0  0  0  0  0  0
    2.6210   -0.1220   -1.0790 O   0  0  0  0  0  0  0  0  0  0  0  0
    2.6090    1.1490    0.8900 C   0  0  0  0  0  0  0  0  0  0  0  0
    4.0490    1.2670    0.7600 N   0  0  0  0  0  0  0  0  0  0  0  0
    4.6420    2.3250    0.0420 C   0  0  0  0  0  0  0  0  0  0  0  0
    4.1670    3.4120   -0.3130 O   0  0  0  0  0  0  0  0  0  0  0  0
    6.3160    1.8190   -0.3070 S   0  0  0  0  0  0  0  0  0  0  0  0
    6.1700    0.1460    0.4470 C   0  0  2  0  0  0  0  0  0  0  0  0
    5.9340   -0.8290   -0.6490 C   0  0  0  0  0  0  0  0  0  0  0  0
    4.9920    0.3770    1.3120 C   0  0  0  0  0  0  0  0  0  0  0  0
    4.8970   -0.2080    2.4470 O   0  0  0  0  0  0  0  0  0  0  0  0
   -0.1390   -0.5630   -1.1560 C   0  0  1  0  0  0  0  0  0  0  0  0
    0.3010   -1.9960   -1.1960 C   0  0  1  0  0  0  0  0  0  0  0  0
    0.0940   -2.7460    0.0840 C   0  0  0  0  0  0  0  0  0  0  0  0
   -0.3400   -2.7700   -2.3310 C   0  0  0  0  0  0  0  0  0  0  0  0
   -1.5860   -0.4310   -1.1170 C   0  0  0  0  0  0  0  0  0  0  0  0
   -2.2350   -1.2070   -1.8960 O   0  0  0  0  0  0  0  0  0  0  0  0
   -4.2430   -1.0060    0.1960 C   0  0  0  0  0  0  0  0  0  0  0  0
   -3.2870   -2.4550   -0.0010 Cl  0  0  0  0  0  0  0  0  0  0  0  0
   -5.5000   -1.1810    0.5740 C   0  0  0  0  0  0  0  0  0  0  0  0
   -6.2880   -0.1070    0.8280 O   0  0  0  0  0  0  0  0  0  0  0  0
   -5.9290    1.2040    0.6500 C   0  0  0  0  0  0  0  0  0  0  0  0
  1  2  1  0
  2  3  2  0
  2 29  1  0
  3  4  1  0
  3 25  1  0
  4  5  1  0
  4 23  1  0
  5  6  1  0
  6  7  1  0
  7  8  1  0
 19  7  1  1
  8  9  2  0
  8 10  1  0
 10 11  1  0
 11 12  1  0
 11 17  1  0
 12 13  2  0
 12 14  1  0
 14 15  1  0
 15 16  1  6
 15 17  1  0
 17 18  2  0
 19 20  1  0
 19 23  1  0
 20 21  1  1
 20 22  1  0
 23 24  2  0
 25 26  1  0
 25 27  2  0
 27 28  1  0
 28 29  1  0
M  END
