
     RDKit          3D

 30 32  0  0  0  0  0  0  0  0999 V2000
   -2.0370   -3.3070   -1.2930 C   0  0  0  0  0  0  0  0  0  0  0  0
   -2.1530   -1.7700   -1.2940 C   0  0  1  0  0  0  0  0  0  0  0  0
   -3.3620   -1.4790   -2.1550 C   0  0  0  0  0  0  0  0  0  0  0  0
   -2.4520   -1.2910    0.1110 C   0  0  2  0  0  0  0  0  0  0  0  0
   -3.7220   -1.8370    0.6290 C   0  0  0  0  0  0  0  0  0  0  0  0
   -4.9130   -1.3380    0.8790 C   0  0  0  0  0  0  0  0  0  0  0  0
   -5.4420    0.0090    0.7290 C   0  0  0  0  0  0  0  0  0  0  0  0
   -4.4310    1.0950    1.0070 C   0  0  0  0  0  0  0  0  0  0  0  0
   -3.3350    1.0820   -0.0520 C   0  0  0  0  0  0  0  0  0  0  0  0
   -2.2560    0.1420    0.3650 C   0  0  2  0  0  0  0  0  0  0  0  0
   -0.8800    0.6700   -0.0860 C   0  0  2  0  0  0  0  0  0  0  0  0
    0.1640   -0.0800    0.6610 C   0  0  0  0  0  0  0  0  0  0  0  0
    1.5740    0.3660    0.3100 C   0  0  2  0  0  0  0  0  0  0  0  0
    1.6330    1.7380    0.6480 O   0  0  0  0  0  0  0  0  0  0  0  0
    1.8130    0.2610   -1.1560 C   0  0  0  0  0  0  0  0  0  0  0  0
    3.1540   -0.2570   -1.5530 C   0  0  2  0  0  0  0  0  0  0  0  0
    4.0830    0.9130   -1.9130 C   0  0  0  0  0  0  0  0  0  0  0  0
    2.9700   -0.9140   -2.7910 O   0  0  0  0  0  0  0  0  0  0  0  0
    3.7750   -1.2180   -0.6180 C   0  0  2  0  0  0  0  0  0  0  0  0
    5.2230   -0.7600   -0.3830 C   0  0  0  0  0  0  0  0  0  0  0  0
    3.9250   -2.6080   -1.2620 C   0  0  0  0  0  0  0  0  0  0  0  0
    3.1950   -1.4100    0.5790 O   0  0  0  0  0  0  0  0  0  0  0  0
    2.5380   -0.3620    1.1760 C   0  0  1  0  0  0  0  0  0  0  0  0
    3.5260    0.6150    1.8370 C   0  0  0  0  0  0  0  0  0  0  0  0
    1.7830   -0.9710    2.3570 C   0  0  0  0  0  0  0  0  0  0  0  0
   -0.8900    2.1250    0.2450 C   0  0  0  0  0  0  0  0  0  0  0  0
   -0.6930    3.1000   -0.6250 C   0  0  0  0  0  0  0  0  0  0  0  0
   -0.7810    4.3730    0.0860 C   0  0  0  0  0  0  0  0  0  0  0  0
   -1.0540    4.0100    1.4850 C   0  0  0  0  0  0  0  0  0  0  0  0
   -1.1130    2.7030    1.5530 C   0  0  0  0  0  0  0  0  0  0  0  0
  2  1  1  1
  2  3  1  0
  2  4  1  0
  4  5  1  6
  4 10  1  0
  5  6  2  0
  6  7  1  0
  7  8  1  0
  8  9  1  0
 10  9  1  6
 10 11  1  0
 11 12  1  1
 11 26  1  0
 12 13  1  0
 13 14  1  1
 13 15  1  0
 13 23  1  0
 15 16  1  0
 16 17  1  6
 16 18  1  0
 16 19  1  0
 19 20  1  1
 19 21  1  0
 19 22  1  0
 22 23  1  0
 23 24  1  1
 23 25  1  0
 26 27  2  0
 26 30  1  0
 27 28  1  0
 28 29  1  0
 29 30  2  0
M  END
