
     RDKit          3D

 30 32  0  0  0  0  0  0  0  0999 V2000
    5.2620   -1.7390   -1.1740 C   0  0  0  0  0  0  0  0  0  0  0  0
    4.1610   -1.2730   -0.6620 C   0  0  0  0  0  0  0  0  0  0  0  0
    2.9080   -2.0090   -0.7710 C   0  0  0  0  0  0  0  0  0  0  0  0
    2.8290   -3.3000   -0.5850 C   0  0  0  0  0  0  0  0  0  0  0  0
    3.9140   -4.2350   -0.2410 C   0  0  0  0  0  0  0  0  0  0  0  0
    1.6950   -1.1710   -1.0900 C   0  0  0  0  0  0  0  0  0  0  0  0
    1.5490   -0.0080   -0.1160 C   0  0  1  0  0  0  0  0  0  0  0  0
    2.7770    0.1480    0.7670 C   0  0  0  0  0  0  0  0  0  0  0  0
    4.0800    0.0350    0.0640 C   0  0  2  0  0  0  0  0  0  0  0  0
    4.4850    1.1900   -0.7800 C   0  0  0  0  0  0  0  0  0  0  0  0
    1.2730    1.2460   -0.8350 C   0  0  0  0  0  0  0  0  0  0  0  0
   -0.0110    1.9520   -0.6500 C   0  0  2  0  0  0  0  0  0  0  0  0
    0.1270    3.4200   -0.3540 C   0  0  2  0  0  0  0  0  0  0  0  0
    0.9060    3.7060    0.9010 C   0  0  0  0  0  0  0  0  0  0  0  0
   -1.2310    4.0710   -0.2070 C   0  0  0  0  0  0  0  0  0  0  0  0
   -1.0090    5.5590    0.0910 C   0  0  0  0  0  0  0  0  0  0  0  0
   -0.9280    1.2520    0.3760 C   0  0  0  0  0  0  0  0  0  0  0  0
   -0.6830   -0.1880    0.1510 C   0  0  2  0  0  0  0  0  0  0  0  0
   -1.7350   -1.1670    0.5010 C   0  0  1  0  0  0  0  0  0  0  0  0
   -2.1710   -1.2210    1.9120 C   0  0  1  0  0  0  0  0  0  0  0  0
   -1.0510   -1.5200    2.7070 O   0  0  0  0  0  0  0  0  0  0  0  0
   -2.9110   -0.0960    2.5000 C   0  0  0  0  0  0  0  0  0  0  0  0
   -3.2070   -0.4880    3.9650 C   0  0  0  0  0  0  0  0  0  0  0  0
   -2.8690   -1.1280   -0.4980 C   0  0  1  0  0  0  0  0  0  0  0  0
   -3.4930    0.0930   -0.5810 O   0  0  0  0  0  0  0  0  0  0  0  0
   -2.2940   -1.4190   -1.8680 C   0  0  0  0  0  0  0  0  0  0  0  0
   -3.5510   -1.8960   -2.6140 C   0  0  0  0  0  0  0  0  0  0  0  0
   -4.0940   -2.8980   -1.6320 C   0  0  0  0  0  0  0  0  0  0  0  0
   -3.8510   -2.2490   -0.2860 C   0  0  0  0  0  0  0  0  0  0  0  0
    0.5410   -0.4390    0.7730 O   0  0  0  0  0  0  0  0  0  0  0  0
  1  2  2  0
  2  3  1  0
  2  9  1  0
  3  4  2  3
  3  6  1  0
  4  5  1  0
  7  6  1  6
  7  8  1  0
  7 11  1  0
  7 30  1  0
  8  9  1  0
  9 10  1  6
 12 11  1  1
 12 13  1  0
 12 17  1  0
 13 14  1  1
 13 15  1  0
 15 16  1  0
 18 17  1  1
 18 19  1  0
 18 30  1  0
 19 20  1  1
 19 24  1  0
 20 21  1  1
 20 22  1  0
 22 23  1  0
 24 25  1  6
 24 26  1  0
 24 29  1  0
 26 27  1  0
 27 28  1  0
 28 29  1  0
M  END
