
     RDKit          3D

 30 32  0  0  0  0  0  0  0  0999 V2000
    2.3310   -0.8380    1.0200 N   0  0  0  0  0  0  0  0  0  0  0  0
    2.5810   -0.9780   -0.3710 C   0  0  1  0  0  0  0  0  0  0  0  0
    1.5190   -1.7550   -1.1340 C   0  0  0  0  0  0  0  0  0  0  0  0
    0.1770   -1.1480   -1.0710 C   0  0  0  0  0  0  0  0  0  0  0  0
    0.0400   -0.1210   -1.8030 O   0  0  0  0  0  0  0  0  0  0  0  0
   -0.8820   -1.6420   -0.2790 N   0  0  0  0  0  0  0  0  0  0  0  0
   -0.7650   -2.8640    0.4630 C   0  0  0  0  0  0  0  0  0  0  0  0
   -2.0430   -3.6710    0.2440 C   0  0  0  0  0  0  0  0  0  0  0  0
   -3.1100   -3.2260    1.1720 C   0  0  0  0  0  0  0  0  0  0  0  0
   -3.9400   -2.0610    0.7250 C   0  0  0  0  0  0  0  0  0  0  0  0
   -3.4240   -1.3500   -0.4730 C   0  0  0  0  0  0  0  0  0  0  0  0
   -2.0700   -0.8300   -0.2650 N   0  0  0  0  0  0  0  0  0  0  0  0
   -1.8590    0.5410   -0.0340 C   0  0  0  0  0  0  0  0  0  0  0  0
   -0.6080    0.9020    0.1210 O   0  0  0  0  0  0  0  0  0  0  0  0
   -2.7570    1.6470    0.0630 C   0  0  0  0  0  0  0  0  0  0  0  0
   -4.0920    1.5930    0.3120 C   0  0  0  0  0  0  0  0  0  0  0  0
   -4.8950    2.7470    0.2830 C   0  0  0  0  0  0  0  0  0  0  0  0
   -4.3700    3.9720    0.0050 C   0  0  0  0  0  0  0  0  0  0  0  0
   -3.0180    4.0560   -0.2490 C   0  0  0  0  0  0  0  0  0  0  0  0
   -2.2380    2.9290   -0.2200 C   0  0  0  0  0  0  0  0  0  0  0  0
    2.8490    0.3480   -1.0180 C   0  0  0  0  0  0  0  0  0  0  0  0
    3.9950    1.1030   -0.5230 C   0  0  0  0  0  0  0  0  0  0  0  0
    5.2300    0.9890   -1.1920 C   0  0  0  0  0  0  0  0  0  0  0  0
    6.3290    1.6630   -0.7290 C   0  0  0  0  0  0  0  0  0  0  0  0
    7.5040    1.5270   -1.4020 F   0  0  0  0  0  0  0  0  0  0  0  0
    6.2600    2.4640    0.3890 C   0  0  0  0  0  0  0  0  0  0  0  0
    7.3840    3.1120    0.8070 F   0  0  0  0  0  0  0  0  0  0  0  0
    5.0550    2.5740    1.0390 C   0  0  0  0  0  0  0  0  0  0  0  0
    3.9170    1.8990    0.5910 C   0  0  0  0  0  0  0  0  0  0  0  0
    2.7630    2.1090    1.3000 F   0  0  0  0  0  0  0  0  0  0  0  0
  2  1  1  1
  2  3  1  0
  2 21  1  0
  3  4  1  0
  4  5  2  0
  4  6  1  0
  6  7  1  0
  6 12  1  0
  7  8  1  0
  8  9  1  0
  9 10  1  0
 10 11  1  0
 11 12  1  0
 12 13  1  0
 13 14  2  0
 13 15  1  0
 15 16  2  0
 15 20  1  0
 16 17  1  0
 17 18  2  0
 18 19  1  0
 19 20  2  0
 21 22  1  0
 22 23  2  0
 22 29  1  0
 23 24  1  0
 24 25  1  0
 24 26  2  0
 26 27  1  0
 26 28  1  0
 28 29  2  0
 29 30  1  0
M  CHG  1   1   1
M  END
