
     RDKit          3D

 30 34  0  0  0  0  0  0  0  0999 V2000
    4.1870   -0.5630    2.0680 C   0  0  0  0  0  0  0  0  0  0  0  0
    4.2140    0.7450    1.3090 C   0  0  0  0  0  0  0  0  0  0  0  0
    4.0890    0.4480   -0.1640 C   0  0  2  0  0  0  0  0  0  0  0  0
    4.1070    1.7080   -0.9970 C   0  0  0  0  0  0  0  0  0  0  0  0
    5.4120    2.4380   -0.7670 C   0  0  0  0  0  0  0  0  0  0  0  0
    5.3990    3.5990   -1.5510 O   0  0  0  0  0  0  0  0  0  0  0  0
    2.9000   -0.3710   -0.3730 C   0  0  0  0  0  0  0  0  0  0  0  0
    3.0390   -1.6570   -0.8590 C   0  0  0  0  0  0  0  0  0  0  0  0
    1.9630   -2.4960   -1.0850 C   0  0  0  0  0  0  0  0  0  0  0  0
    0.7380   -1.9390   -0.7830 C   0  0  0  0  0  0  0  0  0  0  0  0
   -0.2780   -2.8330   -1.0350 C   0  0  0  0  0  0  0  0  0  0  0  0
   -1.5640   -2.3820   -0.7670 C   0  0  0  0  0  0  0  0  0  0  0  0
   -1.7390   -1.1000   -0.2780 C   0  0  0  0  0  0  0  0  0  0  0  0
   -0.7150   -0.2130   -0.0310 C   0  0  0  0  0  0  0  0  0  0  0  0
    0.5550   -0.6660   -0.2990 C   0  0  0  0  0  0  0  0  0  0  0  0
    1.6470    0.1440   -0.0850 C   0  0  0  0  0  0  0  0  0  0  0  0
   -1.0240    1.1180    0.4780 C   0  0  0  0  0  0  0  0  0  0  0  0
   -2.4910    1.3190    0.7780 C   0  0  2  0  0  0  0  0  0  0  0  0
   -2.7230    2.8340    0.6660 C   0  0  0  0  0  0  0  0  0  0  0  0
   -2.7210    0.8610    2.2020 C   0  0  0  0  0  0  0  0  0  0  0  0
   -3.4060    0.6000   -0.2100 C   0  0  2  0  0  0  0  0  0  0  0  0
   -3.1100    1.1510   -1.5690 C   0  0  0  0  0  0  0  0  0  0  0  0
   -4.8190    0.9220    0.1470 C   0  0  0  0  0  0  0  0  0  0  0  0
   -3.1660   -0.8570   -0.0630 C   0  0  2  0  0  0  0  0  0  0  0  0
   -3.6020   -1.2570    1.1990 O   0  0  0  0  0  0  0  0  0  0  0  0
   -3.7980   -1.7670   -1.0530 C   0  0  0  0  0  0  0  0  0  0  0  0
   -2.8890   -3.0110   -0.9090 C   0  0  0  0  0  0  0  0  0  0  0  0
    0.2970   -4.0440   -1.5270 N   0  0  0  0  0  0  0  0  0  0  0  0
    1.7240   -3.8570   -1.5700 C   0  0  0  0  0  0  0  0  0  0  0  0
    2.6220   -4.6470   -1.9330 O   0  0  0  0  0  0  0  0  0  0  0  0
  1  2  1  0
  3  2  1  1
  3  4  1  0
  3  7  1  0
  4  5  1  0
  5  6  1  0
  7  8  2  0
  7 16  1  0
  8  9  1  0
  9 10  2  0
  9 29  1  0
 10 11  1  0
 10 15  1  0
 11 12  2  0
 11 28  1  0
 12 13  1  0
 12 27  1  0
 13 14  2  0
 13 24  1  0
 14 15  1  0
 14 17  1  0
 15 16  2  0
 17 18  1  0
 18 19  1  1
 18 20  1  0
 18 21  1  0
 21 22  1  6
 21 23  1  0
 21 24  1  0
 24 25  1  1
 24 26  1  0
 26 27  1  0
 28 29  1  0
 29 30  2  0
M  END
