
     RDKit          3D

 29 31  0  0  0  0  0  0  0  0999 V2000
    2.3480    4.3970    1.5730 C   0  0  0  0  0  0  0  0  0  0  0  0
    1.8740    2.9930    1.1210 C   0  0  0  0  0  0  0  0  0  0  0  0
    1.2510    3.0310    0.0780 O   0  0  0  0  0  0  0  0  0  0  0  0
    2.2030    1.8820    1.9610 C   0  0  0  0  0  0  0  0  0  0  0  0
    1.9000    0.6290    1.7560 C   0  0  0  0  0  0  0  0  0  0  0  0
    1.1370    0.2820    0.5470 C   0  0  0  0  0  0  0  0  0  0  0  0
    1.7350    0.3020   -0.7120 C   0  0  0  0  0  0  0  0  0  0  0  0
    3.2130    0.4460   -0.6750 C   0  0  0  0  0  0  0  0  0  0  0  0
    3.9030   -0.7950   -1.0580 N   0  0  0  0  0  0  0  0  0  0  0  0
    5.2600   -0.7380   -0.7370 C   0  0  0  0  0  0  0  0  0  0  0  0
    3.2220   -1.9390   -0.6390 C   0  0  0  0  0  0  0  0  0  0  0  0
    4.1230   -2.9320    0.0390 C   0  0  0  0  0  0  0  0  0  0  0  0
    3.3950   -4.0730    0.4240 O   0  0  0  0  0  0  0  0  0  0  0  0
    1.0640    0.1490   -1.8710 N   0  0  0  0  0  0  0  0  0  0  0  0
   -0.2280   -0.0300   -1.7780 C   0  0  0  0  0  0  0  0  0  0  0  0
   -0.9000   -0.0860   -0.5390 C   0  0  0  0  0  0  0  0  0  0  0  0
   -0.2250    0.0750    0.6270 C   0  0  0  0  0  0  0  0  0  0  0  0
   -0.7520    0.0560    1.7560 O   0  0  0  0  0  0  0  0  0  0  0  0
   -2.3310   -0.4310   -0.6330 C   0  0  1  0  0  0  0  0  0  0  0  0
   -2.9730   -1.2270    0.3940 C   0  0  0  0  0  0  0  0  0  0  0  0
   -4.3830   -0.6420    0.6660 C   0  0  2  0  0  0  0  0  0  0  0  0
   -5.0270   -1.5220    1.6810 C   0  0  0  0  0  0  0  0  0  0  0  0
   -5.1860   -0.6290   -0.6080 C   0  0  0  0  0  0  0  0  0  0  0  0
   -4.2240    0.8210    1.0750 C   0  0  0  0  0  0  0  0  0  0  0  0
   -3.8680    1.5230   -0.1870 C   0  0  0  0  0  0  0  0  0  0  0  0
   -4.2930    2.6390   -0.4700 O   0  0  0  0  0  0  0  0  0  0  0  0
   -2.9780    0.8350   -1.0880 C   0  0  0  0  0  0  0  0  0  0  0  0
   -2.6260    1.2620   -2.3140 C   0  0  0  0  0  0  0  0  0  0  0  0
   -1.4120    0.1940   -3.1820 S   0  0  0  0  0  0  0  0  0  0  0  0
  1  2  1  0
  2  3  2  0
  2  4  1  0
  4  5  2  3
  5  6  1  0
  6  7  2  0
  6 17  1  0
  7  8  1  0
  7 14  1  0
  8  9  1  0
  9 10  1  0
  9 11  1  0
 11 12  1  0
 12 13  1  0
 14 15  1  0
 15 16  2  0
 15 29  1  0
 16 17  1  0
 16 19  1  0
 17 18  2  0
 19 20  1  1
 19 27  1  0
 20 21  1  0
 21 22  1  1
 21 23  1  0
 21 24  1  0
 24 25  1  0
 25 26  2  0
 25 27  1  0
 27 28  2  0
 28 29  1  0
M  END
