
     RDKit          3D

 29 31  0  0  0  0  0  0  0  0999 V2000
   -3.9080   -3.0780   -0.5900 C   0  0  0  0  0  0  0  0  0  0  0  0
   -3.4100   -2.1600    0.5330 C   0  0  1  0  0  0  0  0  0  0  0  0
   -1.9370   -2.2390    0.6550 C   0  0  0  0  0  0  0  0  0  0  0  0
   -1.1650   -1.1030    0.0310 C   0  0  1  0  0  0  0  0  0  0  0  0
   -0.0010   -1.6310   -0.7830 C   0  0  1  0  0  0  0  0  0  0  0  0
    0.7070   -0.5840   -1.3830 O   0  0  0  0  0  0  0  0  0  0  0  0
    0.9080   -2.4070    0.1050 C   0  0  0  0  0  0  0  0  0  0  0  0
    1.5440   -1.6810    1.2320 C   0  0  0  0  0  0  0  0  0  0  0  0
    2.4130   -0.6150    0.8050 N   0  0  0  0  0  0  0  0  0  0  0  0
    2.0500    0.6580    0.6570 C   0  0  0  0  0  0  0  0  0  0  0  0
    2.9530    1.6130    0.2590 N   0  0  0  0  0  0  0  0  0  0  0  0
    4.2200    1.3160    0.0040 C   0  0  0  0  0  0  0  0  0  0  0  0
    4.6450    0.0170    0.1420 C   0  0  0  0  0  0  0  0  0  0  0  0
    3.7140   -0.9300    0.5450 C   0  0  0  0  0  0  0  0  0  0  0  0
    4.0870   -2.1410    0.6790 O   0  0  0  0  0  0  0  0  0  0  0  0
    6.0340   -0.3450   -0.1280 C   0  0  0  0  0  0  0  0  0  0  0  0
    6.2270   -1.5320   -0.5540 O   0  0  0  0  0  0  0  0  0  0  0  0
    7.2060    0.4960    0.0370 C   0  0  0  0  0  0  0  0  0  0  0  0
    6.9890    1.9430    0.2600 C   0  0  1  0  0  0  0  0  0  0  0  0
    8.1530    2.7910   -0.1810 C   0  0  0  0  0  0  0  0  0  0  0  0
    5.4250    2.5150   -0.5120 S   0  0  0  0  0  0  0  0  0  0  0  0
   -2.0270   -0.1600   -0.7350 C   0  0  0  0  0  0  0  0  0  0  0  0
   -3.1880    0.3290    0.0840 C   0  0  1  0  0  0  0  0  0  0  0  0
   -2.7750    1.1860    1.2640 C   0  0  0  0  0  0  0  0  0  0  0  0
   -4.0200    1.2440   -0.8330 C   0  0  0  0  0  0  0  0  0  0  0  0
   -5.1890    1.7460   -0.0330 C   0  0  0  0  0  0  0  0  0  0  0  0
   -6.0790    2.6620   -0.8510 C   0  0  0  0  0  0  0  0  0  0  0  0
   -5.3730    3.7800   -1.3060 O   0  0  0  0  0  0  0  0  0  0  0  0
   -4.0360   -0.8210    0.4850 C   0  0  0  0  0  0  0  0  0  0  0  0
  2  1  1  6
  2  3  1  0
  2 29  1  0
  4  3  1  6
  4  5  1  0
  4 22  1  0
  5  6  1  1
  5  7  1  0
  7  8  1  0
  8  9  1  0
  9 10  1  0
  9 14  1  0
 10 11  2  0
 11 12  1  0
 12 13  2  0
 12 21  1  0
 13 14  1  0
 13 16  1  0
 14 15  2  0
 16 17  2  0
 16 18  1  0
 18 19  1  0
 19 20  1  6
 19 21  1  0
 22 23  1  0
 23 24  1  1
 23 25  1  0
 23 29  1  0
 25 26  1  0
 26 27  1  0
 27 28  1  0
M  END
