
     RDKit          3D

 28 30  0  0  0  0  0  0  0  0999 V2000
   -0.4740    2.7850    3.4860 C   0  0  0  0  0  0  0  0  0  0  0  0
   -1.0080    1.8990    2.4280 C   0  0  0  0  0  0  0  0  0  0  0  0
   -2.2930    1.8800    2.4070 O   0  0  0  0  0  0  0  0  0  0  0  0
   -0.2670    1.1150    1.4920 C   0  0  0  0  0  0  0  0  0  0  0  0
   -1.1650    0.0100    0.3830 S   0  0  0  0  0  0  0  0  0  0  0  0
   -2.7520   -0.4830    0.9180 C   0  0  0  0  0  0  0  0  0  0  0  0
   -3.1600   -0.2880    2.0440 O   0  0  0  0  0  0  0  0  0  0  0  0
   -3.7160   -1.1910    0.0120 C   0  0  1  0  0  0  0  0  0  0  0  0
   -4.9700   -1.4630    0.7430 C   0  0  0  0  0  0  0  0  0  0  0  0
   -6.1240   -1.8830   -0.0990 C   0  0  0  0  0  0  0  0  0  0  0  0
   -6.6970   -0.7590   -0.9250 C   0  0  0  0  0  0  0  0  0  0  0  0
   -6.0940   -0.7970   -2.3030 C   0  0  0  0  0  0  0  0  0  0  0  0
   -4.6490   -1.2780   -2.2720 C   0  0  0  0  0  0  0  0  0  0  0  0
   -3.8730   -0.4640   -1.2930 C   0  0  1  0  0  0  0  0  0  0  0  0
   -4.4450    0.7810   -1.1660 O   0  0  0  0  0  0  0  0  0  0  0  0
    1.0690    1.1040    1.4140 C   0  0  0  0  0  0  0  0  0  0  0  0
    1.8060    0.2740    0.4260 C   0  0  0  0  0  0  0  0  0  0  0  0
    3.2620    0.5640    0.7100 C   0  0  0  0  0  0  0  0  0  0  0  0
    4.3240   -0.0910   -0.0550 C   0  0  0  0  0  0  0  0  0  0  0  0
    3.9290   -0.8980   -0.9690 O   0  0  0  0  0  0  0  0  0  0  0  0
    5.7250    0.0610    0.0950 C   0  0  0  0  0  0  0  0  0  0  0  0
    6.6600   -0.4980   -0.6110 C   0  0  0  0  0  0  0  0  0  0  0  0
    6.5600   -1.4220   -1.7500 C   0  0  1  0  0  0  0  0  0  0  0  0
    5.7800   -0.9220   -2.9360 C   0  0  0  0  0  0  0  0  0  0  0  0
    7.2490   -1.0950   -3.0520 C   0  0  0  0  0  0  0  0  0  0  0  0
    3.3230    1.4250    1.6840 C   0  0  0  0  0  0  0  0  0  0  0  0
    4.5620    2.0160    2.3140 C   0  0  0  0  0  0  0  0  0  0  0  0
    2.0090    1.7990    2.1620 N   0  0  0  0  0  0  0  0  0  0  0  0
  1  2  1  0
  2  3  2  0
  2  4  1  0
  4  5  1  0
  4 16  2  3
  5  6  1  0
  6  7  2  0
  8  6  1  1
  8  9  1  0
  8 14  1  0
  9 10  1  0
 10 11  1  0
 11 12  1  0
 12 13  1  0
 13 14  1  0
 14 15  1  1
 16 17  1  0
 16 28  1  0
 17 18  1  0
 18 19  1  0
 18 26  2  0
 19 20  2  0
 19 21  1  0
 21 22  2  3
 23 22  1  1
 23 24  1  0
 23 25  1  0
 24 25  1  0
 26 27  1  0
 26 28  1  0
M  END
