
     RDKit          3D

 13 13  0  0  0  0  0  0  0  0999 V2000
    2.7310   -2.0790   -0.8320 C   0  0  0  0  0  0  0  0  0  0  0  0
    2.7670   -0.7640   -0.1180 C   0  0  0  0  0  0  0  0  0  0  0  0
    1.4210   -0.1000   -0.0780 C   0  0  0  0  0  0  0  0  0  0  0  0
    1.2160    1.1090    0.5580 C   0  0  0  0  0  0  0  0  0  0  0  0
   -0.1310    1.4580    0.4190 C   0  0  0  0  0  0  0  0  0  0  0  0
   -0.7650    2.6270    0.9250 N   0  0  0  0  0  0  0  0  0  0  0  0
   -1.7280    3.1380    0.3210 O   0  0  0  0  0  0  0  0  0  0  0  0
   -0.3580    3.2360    2.0840 O   0  0  0  0  0  0  0  0  0  0  0  0
   -0.6610    0.4130   -0.3090 C   0  0  0  0  0  0  0  0  0  0  0  0
   -2.0730    0.2870   -0.7360 C   0  0  0  0  0  0  0  0  0  0  0  0
   -2.9460   -0.1420    0.4300 C   0  0  0  0  0  0  0  0  0  0  0  0
   -2.4330   -1.3800    0.8330 O   0  0  0  0  0  0  0  0  0  0  0  0
    0.2840   -0.4700   -0.5740 O   0  0  0  0  0  0  0  0  0  0  0  0
  1  2  1  0
  2  3  1  0
  3  4  2  0
  3 13  1  0
  4  5  1  0
  5  6  1  0
  5  9  2  0
  6  7  2  0
  6  8  1  0
  9 10  1  0
  9 13  1  0
 10 11  1  0
 11 12  1  0
M  CHG  2   6   1   8  -1
M  END
