
     RDKit          3D

 13 13  0  0  0  0  0  0  0  0999 V2000
    4.1280    0.5790   -0.0460 C   0  0  0  0  0  0  0  0  0  0  0  0
    2.9970    0.1850   -0.7590 O   0  0  0  0  0  0  0  0  0  0  0  0
    1.9540   -0.5560   -0.2620 C   0  0  0  0  0  0  0  0  0  0  0  0
    1.9900   -0.9380    0.9280 O   0  0  0  0  0  0  0  0  0  0  0  0
    0.8390   -0.8700   -1.1370 C   0  0  0  0  0  0  0  0  0  0  0  0
   -0.4610   -0.7660   -0.4500 N   0  0  0  0  0  0  0  0  0  0  0  0
   -1.1440   -1.7080    0.1830 C   0  0  0  0  0  0  0  0  0  0  0  0
   -2.3100   -1.1480    0.6930 C   0  0  0  0  0  0  0  0  0  0  0  0
   -2.3170    0.1860    0.3450 C   0  0  0  0  0  0  0  0  0  0  0  0
   -3.3570    1.1450    0.6580 C   0  0  0  0  0  0  0  0  0  0  0  0
   -4.3960    0.8280    1.2900 O   0  0  0  0  0  0  0  0  0  0  0  0
   -3.2570    2.4900    0.2680 O   0  0  0  0  0  0  0  0  0  0  0  0
   -1.1610    0.3950   -0.3610 C   0  0  0  0  0  0  0  0  0  0  0  0
  1  2  1  0
  2  3  1  0
  3  4  2  0
  3  5  1  0
  5  6  1  0
  6  7  1  0
  6 13  1  0
  7  8  2  0
  8  9  1  0
  9 10  1  0
  9 13  2  0
 10 11  2  0
 10 12  1  0
M  END
