
     RDKit          3D

 19 21  0  0  0  0  0  0  0  0999 V2000
    5.2290   -1.3370    1.1500 O   0  0  0  0  0  0  0  0  0  0  0  0
    4.3860   -0.4570    0.8470 C   0  0  0  0  0  0  0  0  0  0  0  0
    4.7410    0.8250    0.7140 N   0  0  0  0  0  0  0  0  0  0  0  0
    3.8640    1.7670    0.3970 C   0  0  0  0  0  0  0  0  0  0  0  0
    2.5430    1.4850    0.1890 N   0  0  0  0  0  0  0  0  0  0  0  0
    2.0990    0.1970    0.3030 C   0  0  0  0  0  0  0  0  0  0  0  0
    0.8890   -0.4080    0.0640 C   0  0  0  0  0  0  0  0  0  0  0  0
   -0.3890    0.2510   -0.2230 C   0  0  2  0  0  0  0  0  0  0  0  0
   -1.3950    0.0360    0.8230 N   0  0  0  0  0  0  0  0  0  0  0  0
   -2.6180    0.4940    0.1850 C   0  0  2  0  0  0  0  0  0  0  0  0
   -3.8740   -0.1390    0.6810 C   0  0  0  0  0  0  0  0  0  0  0  0
   -4.0030    0.1580    2.0620 O   0  0  0  0  0  0  0  0  0  0  0  0
   -2.4350    0.1950   -1.3210 C   0  0  1  0  0  0  0  0  0  0  0  0
   -2.1810    1.3800   -2.0040 O   0  0  0  0  0  0  0  0  0  0  0  0
   -1.1330   -0.5640   -1.3410 C   0  0  1  0  0  0  0  0  0  0  0  0
   -0.4100   -0.3370   -2.5420 O   0  0  0  0  0  0  0  0  0  0  0  0
    1.0710   -1.7490    0.2540 C   0  0  0  0  0  0  0  0  0  0  0  0
    2.3850   -1.9500    0.6040 N   0  0  0  0  0  0  0  0  0  0  0  0
    3.0320   -0.7720    0.6350 C   0  0  0  0  0  0  0  0  0  0  0  0
  1  2  2  0
  2  3  1  0
  2 19  1  0
  3  4  1  0
  4  5  2  0
  5  6  1  0
  6  7  1  0
  6 19  2  0
  8  7  1  1
  7 17  2  0
  8  9  1  0
  8 15  1  0
  9 10  1  0
 10 11  1  1
 10 13  1  0
 11 12  1  0
 13 14  1  6
 13 15  1  0
 15 16  1  6
 17 18  1  0
 18 19  1  0
M  CHG  1   9   1
M  END
