
     RDKit          3D

 13 13  0  0  0  0  0  0  0  0999 V2000
   -4.2950   -0.9860    0.5490 O   0  0  0  0  0  0  0  0  0  0  0  0
   -3.5410   -0.4300   -0.2530 N   0  0  0  0  0  0  0  0  0  0  0  0
   -4.0340    0.5000   -1.1190 O   0  0  0  0  0  0  0  0  0  0  0  0
   -2.1440   -0.7630   -0.2730 C   0  0  0  0  0  0  0  0  0  0  0  0
   -1.3690    0.4930    0.0210 C   0  0  0  0  0  0  0  0  0  0  0  0
    0.0960    0.2710    0.0270 C   0  0  0  0  0  0  0  0  0  0  0  0
    0.6990   -0.9330   -0.2050 C   0  0  0  0  0  0  0  0  0  0  0  0
    2.0680   -1.0780   -0.1860 C   0  0  0  0  0  0  0  0  0  0  0  0
    2.6260   -2.3220   -0.4280 O   0  0  0  0  0  0  0  0  0  0  0  0
    2.8720    0.0110    0.0730 C   0  0  0  0  0  0  0  0  0  0  0  0
    2.2960    1.2360    0.3110 C   0  0  0  0  0  0  0  0  0  0  0  0
    0.9100    1.3550    0.2860 C   0  0  0  0  0  0  0  0  0  0  0  0
    0.3540    2.5840    0.5250 O   0  0  0  0  0  0  0  0  0  0  0  0
  1  2  2  0
  2  3  1  0
  2  4  1  0
  4  5  1  0
  5  6  1  0
  6  7  2  0
  6 12  1  0
  7  8  1  0
  8  9  1  0
  8 10  2  0
 10 11  1  0
 11 12  2  0
 12 13  1  0
M  CHG  2   2   1   3  -1
M  END
