
     RDKit          3D

 20 19  0  0  0  0  0  0  0  0999 V2000
    6.8670   -0.3360   -0.6670 O   0  0  0  0  0  0  0  0  0  0  0  0
    5.9210    0.1320    0.0170 C   0  0  0  0  0  0  0  0  0  0  0  0
    6.0570    1.4090    0.5540 O   0  0  0  0  0  0  0  0  0  0  0  0
    4.7660   -0.6020    0.2340 O   0  0  0  0  0  0  0  0  0  0  0  0
    4.6720   -1.8980   -0.3320 C   0  0  0  0  0  0  0  0  0  0  0  0
    3.4650   -2.5100   -0.0310 O   0  0  0  0  0  0  0  0  0  0  0  0
    2.3770   -1.7800   -0.5080 C   0  0  0  0  0  0  0  0  0  0  0  0
    2.4210   -0.5340    0.0920 O   0  0  0  0  0  0  0  0  0  0  0  0
    1.1170    0.4890   -0.4120 P   0  0  0  0  0  0  0  0  0  0  0  0
    1.1940    1.9270    0.5910 O   0  0  0  0  0  0  0  0  0  0  0  0
   -0.3650   -0.3190    0.0030 O   0  0  0  0  0  0  0  0  0  0  0  0
   -1.7520    0.5670   -0.4830 P   0  0  0  0  0  0  0  0  0  0  0  0
   -1.8290    2.1250    0.2570 O   0  0  0  0  0  0  0  0  0  0  0  0
   -3.2640   -0.3810   -0.0450 C   0  0  0  0  0  0  0  0  0  0  0  0
   -4.2080    0.4090    0.8210 C   0  0  1  0  0  0  0  0  0  0  0  0
   -4.6540    1.5690    0.2340 O   0  0  0  0  0  0  0  0  0  0  0  0
   -4.3360    2.6500    0.9080 O   0  0  0  0  0  0  0  0  0  0  0  0
   -5.3480   -0.4770    1.1990 C   0  0  0  0  0  0  0  0  0  0  0  0
   -5.1120   -1.5800    1.7480 O   0  0  0  0  0  0  0  0  0  0  0  0
   -6.6460   -0.0620    0.9350 O   0  0  0  0  0  0  0  0  0  0  0  0
  1  2  2  0
  2  3  1  0
  2  4  1  0
  4  5  1  0
  5  6  1  0
  6  7  1  0
  7  8  1  0
  8  9  1  0
  9 10  1  0
  9 11  1  0
 11 12  1  0
 12 13  1  0
 12 14  1  0
 15 14  1  6
 15 16  1  0
 15 18  1  0
 16 17  1  0
 18 19  2  0
 18 20  1  0
M  END
