
     RDKit          3D

 20 19  0  0  0  0  0  0  0  0999 V2000
   -3.8290    0.7540   -2.8460 O   0  0  0  0  0  0  0  0  0  0  0  0
   -4.0520    1.4360   -1.8140 C   0  0  0  0  0  0  0  0  0  0  0  0
   -3.8840    0.8480   -0.5670 O   0  0  0  0  0  0  0  0  0  0  0  0
   -3.4660   -0.4980   -0.5170 C   0  0  2  0  0  0  0  0  0  0  0  0
   -4.3490   -1.3200    0.1920 O   0  0  0  0  0  0  0  0  0  0  0  0
   -4.8770   -2.4420   -0.4110 C   0  0  0  0  0  0  0  0  0  0  0  0
   -4.5390   -2.6980   -1.6120 O   0  0  0  0  0  0  0  0  0  0  0  0
   -5.7580   -3.3160    0.2110 O   0  0  0  0  0  0  0  0  0  0  0  0
   -2.1270   -0.6210    0.1510 C   0  0  0  0  0  0  0  0  0  0  0  0
   -1.5840   -1.7450    0.2920 O   0  0  0  0  0  0  0  0  0  0  0  0
   -1.4440    0.4810    0.6320 O   0  0  0  0  0  0  0  0  0  0  0  0
   -0.2330    0.3640    1.2360 O   0  0  0  0  0  0  0  0  0  0  0  0
    0.7040    0.4020    0.2130 C   0  0  0  0  0  0  0  0  0  0  0  0
    2.1180    0.2850    0.6910 C   0  0  0  0  0  0  0  0  0  0  0  0
    2.9280    0.3420   -0.4650 O   0  0  0  0  0  0  0  0  0  0  0  0
    4.5940    0.2220   -0.1070 P   0  0  0  0  0  0  0  0  0  0  0  0
    4.9740   -0.9730    1.0610 O   0  0  0  0  0  0  0  0  0  0  0  0
    5.4100    2.1830    0.3620 P   0  0  0  0  0  0  0  0  0  0  0  0
    6.9050    2.0610    1.2280 O   0  0  0  0  0  0  0  0  0  0  0  0
    4.2480    3.1410    1.2200 O   0  0  0  0  0  0  0  0  0  0  0  0
  1  2  2  0
  2  3  1  0
  4  3  1  1
  4  5  1  0
  4  9  1  0
  5  6  1  0
  6  7  2  0
  6  8  1  0
  9 10  2  0
  9 11  1  0
 11 12  1  0
 12 13  1  0
 13 14  1  0
 14 15  1  0
 15 16  1  0
 16 17  1  0
 16 18  1  0
 18 19  1  0
 18 20  1  0
M  END
