
     RDKit          3D

 16 16  0  0  0  0  0  0  0  0999 V2000
   -3.9410    0.4360    1.4850 C   0  0  0  0  0  0  0  0  0  0  0  0
   -2.5320    0.2890    0.9890 C   0  0  0  0  0  0  0  0  0  0  0  0
   -1.5400    0.4270    1.8890 N   0  0  0  0  0  0  0  0  0  0  0  0
   -0.2400    0.3080    1.5180 C   0  0  0  0  0  0  0  0  0  0  0  0
    0.0560    0.0400    0.1900 C   0  0  0  0  0  0  0  0  0  0  0  0
    1.4810   -0.0920   -0.2270 C   0  0  0  0  0  0  0  0  0  0  0  0
    2.3090    0.0930    0.8800 O   0  0  0  0  0  0  0  0  0  0  0  0
    3.9360   -0.0510    0.4420 P   0  0  2  0  0  0  0  0  0  0  0  0
    4.8470    0.5710    1.4470 O   0  0  0  0  0  0  0  0  0  0  0  0
    4.1590    0.6150   -1.1030 O   0  0  0  0  0  0  0  0  0  0  0  0
    4.3130   -1.7100    0.3290 O   0  0  0  0  0  0  0  0  0  0  0  0
   -0.9260   -0.1120   -0.7770 C   0  0  0  0  0  0  0  0  0  0  0  0
   -0.6300   -0.3910   -2.1600 C   0  0  0  0  0  0  0  0  0  0  0  0
   -1.5540   -0.5150   -2.9750 O   0  0  0  0  0  0  0  0  0  0  0  0
   -2.2420    0.0250   -0.3170 C   0  0  0  0  0  0  0  0  0  0  0  0
   -3.2610   -0.1190   -1.2470 O   0  0  0  0  0  0  0  0  0  0  0  0
  1  2  1  0
  2  3  2  0
  2 15  1  0
  3  4  1  0
  4  5  2  0
  5  6  1  0
  5 12  1  0
  6  7  1  0
  7  8  1  0
  8  9  2  0
  8 10  1  6
  8 11  1  0
 12 13  1  0
 12 15  2  0
 13 14  2  0
 15 16  1  0
M  END
