
     RDKit          3D

 20 19  0  0  0  0  0  0  0  0999 V2000
    7.1570    1.9700    2.2170 O   0  0  0  0  0  0  0  0  0  0  0  0
    6.3990    2.3340    0.7610 P   0  0  0  0  0  0  0  0  0  0  0  0
    5.9690    0.8730    0.0230 O   0  0  0  0  0  0  0  0  0  0  0  0
    4.9470    0.6060   -0.7240 C   0  0  0  0  0  0  0  0  0  0  0  0
    3.7330    0.3310    0.3740 C   0  0  0  0  0  0  0  0  0  0  0  0
    2.6950   -0.2030   -0.4010 O   0  0  0  0  0  0  0  0  0  0  0  0
    1.3640   -0.2240    0.1680 C   0  0  0  0  0  0  0  0  0  0  0  0
    1.1150    0.2550    1.2250 O   0  0  0  0  0  0  0  0  0  0  0  0
    0.4120   -0.9530   -0.7210 C   0  0  0  0  0  0  0  0  0  0  0  0
   -0.9140   -0.8090   -0.6390 O   0  0  0  0  0  0  0  0  0  0  0  0
   -1.8690   -1.0530    0.2720 C   0  0  0  0  0  0  0  0  0  0  0  0
   -1.5950   -1.5420    1.4470 O   0  0  0  0  0  0  0  0  0  0  0  0
   -3.2980   -0.7340   -0.1480 C   0  0  2  0  0  0  0  0  0  0  0  0
   -3.4800   -1.4160   -1.3950 O   0  0  0  0  0  0  0  0  0  0  0  0
   -3.1190    0.6300   -0.5600 O   0  0  0  0  0  0  0  0  0  0  0  0
   -2.6240    1.2720    0.4520 O   0  0  0  0  0  0  0  0  0  0  0  0
   -2.7170    2.5670    0.1040 O   0  0  0  0  0  0  0  0  0  0  0  0
   -4.5890   -0.9990    1.0550 P   0  0  0  0  0  0  0  0  0  0  0  0
   -5.5260    0.4450    1.2030 O   0  0  0  0  0  0  0  0  0  0  0  0
   -5.7160   -2.2480    0.4630 O   0  0  0  0  0  0  0  0  0  0  0  0
  1  2  2  0
  2  3  1  0
  3  4  1  0
  4  5  1  0
  5  6  1  0
  6  7  1  0
  7  8  2  0
  7  9  1  0
  9 10  1  0
 10 11  1  0
 11 12  2  0
 11 13  1  0
 13 14  1  6
 13 15  1  0
 13 18  1  0
 15 16  1  0
 16 17  1  0
 18 19  1  0
 18 20  1  0
M  END
