
     RDKit          3D

 19 19  0  0  0  0  0  0  0  0999 V2000
    0.4750    1.0160   -1.8490 O   0  0  0  0  0  0  0  0  0  0  0  0
    0.5700    0.2900   -0.8260 C   0  0  0  0  0  0  0  0  0  0  0  0
    1.7770    0.2960   -0.1480 O   0  0  0  0  0  0  0  0  0  0  0  0
    2.7920    1.0710   -0.6050 O   0  0  0  0  0  0  0  0  0  0  0  0
    3.9990    0.7060   -0.0200 C   0  0  0  0  0  0  0  0  0  0  0  0
    4.9750    1.5510   -0.5480 O   0  0  0  0  0  0  0  0  0  0  0  0
    6.5390    1.1780    0.1230 P   0  0  0  0  0  0  0  0  0  0  0  0
    6.8310   -0.5190   -0.0900 O   0  0  0  0  0  0  0  0  0  0  0  0
    7.7160    2.1470   -0.6830 O   0  0  0  0  0  0  0  0  0  0  0  0
   -0.6070   -0.5010   -0.4380 C   0  0  1  0  0  0  0  0  0  0  0  0
   -0.3900   -1.2640    0.7040 O   0  0  0  0  0  0  0  0  0  0  0  0
   -1.5420   -1.2440    1.4440 C   0  0  0  0  0  0  0  0  0  0  0  0
   -2.5300   -0.5810    0.5420 C   0  0  2  0  0  0  0  0  0  0  0  0
   -3.2310   -1.3920   -0.2850 O   0  0  0  0  0  0  0  0  0  0  0  0
   -4.5940   -1.3810   -0.1610 C   0  0  0  0  0  0  0  0  0  0  0  0
   -5.2770    0.3230   -0.4790 P   0  0  0  0  0  0  0  0  0  0  0  0
   -4.0410    1.5170   -0.4770 O   0  0  0  0  0  0  0  0  0  0  0  0
   -6.5220    0.6770    0.6780 O   0  0  0  0  0  0  0  0  0  0  0  0
   -1.7240    0.3000   -0.1780 O   0  0  0  0  0  0  0  0  0  0  0  0
  1  2  2  0
  2  3  1  0
 10  2  1  1
  3  4  1  0
  4  5  1  0
  5  6  1  0
  6  7  1  0
  7  8  1  0
  7  9  1  0
 10 11  1  0
 10 19  1  0
 11 12  1  0
 12 13  1  0
 13 14  1  6
 13 19  1  0
 14 15  1  0
 15 16  1  0
 16 17  1  0
 16 18  1  0
M  END
