
     RDKit          3D

 20 19  0  0  0  0  0  0  0  0999 V2000
   -2.6710    1.4590   -1.2610 O   0  0  0  0  0  0  0  0  0  0  0  0
   -2.7840    1.3030   -0.0190 C   0  0  0  0  0  0  0  0  0  0  0  0
   -4.0450    1.6670    0.4900 O   0  0  0  0  0  0  0  0  0  0  0  0
   -1.8260    0.8300    0.8400 O   0  0  0  0  0  0  0  0  0  0  0  0
   -0.5440    0.4420    0.2850 C   0  0  1  0  0  0  0  0  0  0  0  0
    0.3810    0.0830    1.4280 C   0  0  0  0  0  0  0  0  0  0  0  0
    1.6580   -0.0990    1.1710 O   0  0  0  0  0  0  0  0  0  0  0  0
    2.2030   -0.9550    0.3220 C   0  0  0  0  0  0  0  0  0  0  0  0
    3.7550   -0.9370    0.4060 C   0  0  0  0  0  0  0  0  0  0  0  0
    4.2100    0.3430    0.1000 O   0  0  0  0  0  0  0  0  0  0  0  0
    5.5180    0.4220    0.1540 O   0  0  0  0  0  0  0  0  0  0  0  0
   -0.8900   -0.9040   -0.3650 C   0  0  0  0  0  0  0  0  0  0  0  0
   -1.8460   -0.8490   -1.3300 O   0  0  0  0  0  0  0  0  0  0  0  0
   -2.2570   -2.3070   -2.0710 P   0  0  0  0  0  0  0  0  0  0  0  0
   -3.4240   -3.2490   -1.2540 O   0  0  0  0  0  0  0  0  0  0  0  0
   -0.9450   -3.2150   -2.6920 O   0  0  0  0  0  0  0  0  0  0  0  0
   -0.1280    1.4040   -0.5600 O   0  0  0  0  0  0  0  0  0  0  0  0
    0.0420    2.9150    0.2720 P   0  0  0  0  0  0  0  0  0  0  0  0
   -0.6390    4.2260   -0.6400 O   0  0  0  0  0  0  0  0  0  0  0  0
   -0.6910    2.9070    1.8250 O   0  0  0  0  0  0  0  0  0  0  0  0
  1  2  2  0
  2  3  1  0
  2  4  1  0
  4  5  1  0
  5  6  1  1
  5 12  1  0
  5 17  1  0
  6  7  1  0
  7  8  1  0
  8  9  1  0
  9 10  1  0
 10 11  1  0
 12 13  1  0
 13 14  1  0
 14 15  1  0
 14 16  1  0
 17 18  1  0
 18 19  1  0
 18 20  1  0
M  END
