
     RDKit          3D

 28 29  0  0  0  0  0  0  0  0999 V2000
   -3.8010   -0.4190    1.7360 C   0  0  0  0  0  0  0  0  0  0  0  0
   -3.5680    0.6570    0.7990 N   0  0  0  0  0  0  0  0  0  0  0  0
   -4.2360    1.8880    0.7340 C   0  0  0  0  0  0  0  0  0  0  0  0
   -5.3400    2.1550    1.2780 O   0  0  0  0  0  0  0  0  0  0  0  0
   -3.4430    2.7640   -0.0500 N   0  0  0  0  0  0  0  0  0  0  0  0
   -2.5730    1.9740   -0.8900 C   0  0  0  0  0  0  0  0  0  0  0  0
   -2.5680    0.6080   -0.2450 C   0  0  1  0  0  0  0  0  0  0  0  0
   -1.2500    0.3750    0.2780 N   0  0  0  0  0  0  0  0  0  0  0  0
   -0.6860   -0.5280   -0.7030 C   0  0  1  0  0  0  0  0  0  0  0  0
   -0.1410    0.3520   -2.1980 P   0  0  0  0  0  0  0  0  0  0  0  0
    0.3070   -0.6690   -3.4930 O   0  0  0  0  0  0  0  0  0  0  0  0
    0.9930    1.6010   -1.9390 O   0  0  0  0  0  0  0  0  0  0  0  0
    0.4250   -1.3920   -0.0760 C   0  0  1  0  0  0  0  0  0  0  0  0
    0.8670   -2.2010   -1.1380 O   0  0  0  0  0  0  0  0  0  0  0  0
    1.3570   -0.5020    0.3390 O   0  0  0  0  0  0  0  0  0  0  0  0
    2.5550   -0.8860    0.8050 C   0  0  0  0  0  0  0  0  0  0  0  0
    3.3410    0.4170    1.1090 C   0  0  0  0  0  0  0  0  0  0  0  0
    3.4510    1.1430   -0.1100 O   0  0  0  0  0  0  0  0  0  0  0  0
    4.0900    2.3490   -0.2010 C   0  0  0  0  0  0  0  0  0  0  0  0
    4.6020    2.8390    0.8330 O   0  0  0  0  0  0  0  0  0  0  0  0
    4.1550    2.9930   -1.4280 O   0  0  0  0  0  0  0  0  0  0  0  0
    4.7880    4.1780   -1.4940 O   0  0  0  0  0  0  0  0  0  0  0  0
   -0.2060   -2.1660    0.8710 O   0  0  0  0  0  0  0  0  0  0  0  0
    0.7420   -3.2870    1.7200 P   0  0  0  0  0  0  0  0  0  0  0  0
    0.1830   -3.5720    3.3260 O   0  0  0  0  0  0  0  0  0  0  0  0
    0.9970   -4.7760    0.8930 O   0  0  0  0  0  0  0  0  0  0  0  0
   -1.8940   -1.3740   -1.0370 C   0  0  0  0  0  0  0  0  0  0  0  0
   -2.8920   -0.4020   -1.1060 O   0  0  0  0  0  0  0  0  0  0  0  0
  1  2  1  0
  2  3  1  0
  2  7  1  0
  3  4  2  0
  3  5  1  0
  5  6  1  0
  7  6  1  6
  7  8  1  0
  7 28  1  0
  8  9  1  0
  9 10  1  6
  9 13  1  0
  9 27  1  0
 10 11  1  0
 10 12  1  0
 13 14  1  6
 13 15  1  0
 13 23  1  0
 15 16  1  0
 16 17  1  0
 17 18  1  0
 18 19  1  0
 19 20  2  0
 19 21  1  0
 21 22  1  0
 23 24  1  0
 24 25  1  0
 24 26  1  0
 27 28  1  0
M  END
