
     RDKit          3D

 20 19  0  0  0  0  0  0  0  0999 V2000
    6.3610    1.2920    1.1330 O   0  0  0  0  0  0  0  0  0  0  0  0
    6.4370    0.4970    0.1560 C   0  0  0  0  0  0  0  0  0  0  0  0
    7.6710    0.0270   -0.2230 O   0  0  0  0  0  0  0  0  0  0  0  0
    5.3030    0.1000   -0.5280 O   0  0  0  0  0  0  0  0  0  0  0  0
    4.0360    0.5940   -0.1250 C   0  0  0  0  0  0  0  0  0  0  0  0
    3.0750    0.0320   -0.9840 O   0  0  0  0  0  0  0  0  0  0  0  0
    1.7280    0.3190   -0.8520 C   0  0  0  0  0  0  0  0  0  0  0  0
    1.3170    1.0920    0.0420 O   0  0  0  0  0  0  0  0  0  0  0  0
    0.8040   -0.2480   -1.7120 O   0  0  0  0  0  0  0  0  0  0  0  0
   -0.4880    0.0480   -1.5600 O   0  0  0  0  0  0  0  0  0  0  0  0
   -0.9690   -0.6630   -0.4510 C   0  0  0  0  0  0  0  0  0  0  0  0
   -2.4460   -0.3510   -0.2430 C   0  0  1  0  0  0  0  0  0  0  0  0
   -2.6370    1.4620    0.0490 P   0  0  0  0  0  0  0  0  0  0  0  0
   -4.1040    2.0860   -0.5800 O   0  0  0  0  0  0  0  0  0  0  0  0
   -3.2010   -0.7020   -1.4680 C   0  0  0  0  0  0  0  0  0  0  0  0
   -2.6500   -1.1750   -2.4780 O   0  0  0  0  0  0  0  0  0  0  0  0
   -4.5720   -0.4960   -1.4930 O   0  0  0  0  0  0  0  0  0  0  0  0
   -3.0100   -1.3380    1.2210 P   0  0  0  0  0  0  0  0  0  0  0  0
   -4.2550   -0.5270    2.1030 O   0  0  0  0  0  0  0  0  0  0  0  0
   -3.4540   -2.9490    0.7790 O   0  0  0  0  0  0  0  0  0  0  0  0
  1  2  2  0
  2  3  1  0
  2  4  1  0
  4  5  1  0
  5  6  1  0
  6  7  1  0
  7  8  2  0
  7  9  1  0
  9 10  1  0
 10 11  1  0
 12 11  1  6
 12 13  1  0
 12 15  1  0
 12 18  1  0
 13 14  1  0
 15 16  2  0
 15 17  1  0
 18 19  1  0
 18 20  1  0
M  END
