
     RDKit          3D

 39 42  0  0  0  0  0  0  0  0999 V2000
   -9.1590   -1.8930   -0.7330 C   0  0  0  0  0  0  0  0  0  0  0  0
   -8.1650   -1.6310    0.0390 C   0  0  0  0  0  0  0  0  0  0  0  0
   -8.3580   -1.5620    1.4480 O   0  0  0  0  0  0  0  0  0  0  0  0
   -7.3920   -1.8330    2.4040 C   0  0  0  0  0  0  0  0  0  0  0  0
   -5.9860   -1.8000    1.9190 C   0  0  0  0  0  0  0  0  0  0  0  0
   -5.8680   -1.1070    0.6300 N   0  0  0  0  0  0  0  0  0  0  0  0
   -4.8390   -0.1740    0.3370 C   0  0  0  0  0  0  0  0  0  0  0  0
   -5.0340    1.0330   -0.3030 C   0  0  0  0  0  0  0  0  0  0  0  0
   -3.9980    1.8800   -0.5880 C   0  0  0  0  0  0  0  0  0  0  0  0
   -2.6700    1.5880   -0.2530 C   0  0  0  0  0  0  0  0  0  0  0  0
   -1.6430    2.5100   -0.5640 N   0  0  0  0  0  0  0  0  0  0  0  0
   -2.0010    3.8250   -1.0590 C   0  0  0  0  0  0  0  0  0  0  0  0
   -0.2560    2.1730   -0.4330 C   0  0  0  0  0  0  0  0  0  0  0  0
    0.4730    2.9210    0.6560 C   0  0  0  0  0  0  0  0  0  0  0  0
    2.1820    2.3380    0.5960 S   0  0  1  0  0  0  0  0  0  0  0  0
    2.6730    2.6740   -0.7770 O   0  0  0  0  0  0  0  0  0  0  0  0
    2.9280    3.0910    1.6530 O   0  0  0  0  0  0  0  0  0  0  0  0
    2.1910    0.6060    0.8910 C   0  0  0  0  0  0  0  0  0  0  0  0
    3.5490    0.0020    0.8770 C   0  0  0  0  0  0  0  0  0  0  0  0
    4.2520    0.1850   -0.4390 C   0  0  0  0  0  0  0  0  0  0  0  0
    5.5600   -0.4860   -0.3490 N   0  0  0  0  0  0  0  0  0  0  0  0
    6.6660    0.2800    0.1190 C   0  0  0  0  0  0  0  0  0  0  0  0
    7.9570   -0.4140   -0.0100 C   0  0  0  0  0  0  0  0  0  0  0  0
    9.1010    0.2580    0.2980 N   0  0  0  0  0  0  0  0  0  0  0  0
   10.2770   -0.3840    0.2100 C   0  0  0  0  0  0  0  0  0  0  0  0
   11.6200    0.4900    0.5950 S   0  0  0  0  0  0  0  0  0  0  0  0
   10.3760   -1.6640   -0.1680 N   0  0  0  0  0  0  0  0  0  0  0  0
    9.2530   -2.3470   -0.4780 C   0  0  0  0  0  0  0  0  0  0  0  0
    9.3020   -3.5500   -0.8390 O   0  0  0  0  0  0  0  0  0  0  0  0
    8.0250   -1.7160   -0.4000 C   0  0  0  0  0  0  0  0  0  0  0  0
    6.8880   -2.4840   -0.7770 N   0  0  0  0  0  0  0  0  0  0  0  0
    5.6330   -1.8280   -0.7390 C   0  0  0  0  0  0  0  0  0  0  0  0
    4.5720   -2.4290   -1.0510 O   0  0  0  0  0  0  0  0  0  0  0  0
   -2.4720    0.3830    0.3860 C   0  0  0  0  0  0  0  0  0  0  0  0
   -3.5150   -0.4760    0.6760 C   0  0  0  0  0  0  0  0  0  0  0  0
   -6.8220   -1.3900   -0.4560 C   0  0  0  0  0  0  0  0  0  0  0  0
   -6.3390   -1.4190   -1.6350 C   0  0  0  0  0  0  0  0  0  0  0  0
   -6.8720   -1.6930   -2.9490 C   0  0  0  0  0  0  0  0  0  0  0  0
   -6.7130   -0.1280   -4.1200 Br  0  0  0  0  0  0  0  0  0  0  0  0
  1  2  2  0
  2  3  1  0
  2 36  1  0
  3  4  1  0
  4  5  1  0
  5  6  1  0
  6  7  1  0
  6 36  1  0
  7  8  2  0
  7 35  1  0
  8  9  1  0
  9 10  2  0
 10 11  1  0
 10 34  1  0
 11 12  1  0
 11 13  1  0
 13 14  1  0
 15 14  1  6
 15 16  2  0
 15 17  2  0
 15 18  1  0
 18 19  1  0
 19 20  1  0
 20 21  1  0
 21 22  1  0
 21 32  1  0
 22 23  1  0
 23 24  1  0
 23 30  2  0
 24 25  1  0
 25 26  2  0
 25 27  1  0
 27 28  1  0
 28 29  2  0
 28 30  1  0
 30 31  1  0
 31 32  1  0
 32 33  2  0
 34 35  2  0
 36 37  2  3
 37 38  1  0
 38 39  1  0
M  END
