
     RDKit          3D

 39 42  0  0  0  0  0  0  0  0999 V2000
   -9.7970   -0.6950   -2.5480 C   0  0  0  0  0  0  0  0  0  0  0  0
   -8.4080   -1.6980   -3.0420 S   0  0  0  0  0  0  0  0  0  0  0  0
   -7.4290   -2.2660   -1.7030 C   0  0  0  0  0  0  0  0  0  0  0  0
   -6.7480   -3.4290   -1.8920 C   0  0  0  0  0  0  0  0  0  0  0  0
   -5.6390   -4.2070   -0.5730 Br  0  0  0  0  0  0  0  0  0  0  0  0
   -7.3430   -1.7210   -0.3420 C   0  0  0  0  0  0  0  0  0  0  0  0
   -6.7990   -0.5200   -0.1010 O   0  0  0  0  0  0  0  0  0  0  0  0
   -6.9400    0.7720   -0.3770 C   0  0  0  0  0  0  0  0  0  0  0  0
   -7.8770    1.1370   -1.1130 O   0  0  0  0  0  0  0  0  0  0  0  0
   -6.0200    1.7910    0.1620 C   0  0  0  0  0  0  0  0  0  0  0  0
   -6.0150    3.1190   -0.0110 N   0  0  0  0  0  0  0  0  0  0  0  0
   -4.9850    3.6410    0.6740 N   0  0  0  0  0  0  0  0  0  0  0  0
   -4.3250    2.6940    1.2840 N   0  0  0  0  0  0  0  0  0  0  0  0
   -4.9230    1.5380    1.0010 C   0  0  0  0  0  0  0  0  0  0  0  0
   -4.1850    0.5070    1.6800 C   0  0  0  0  0  0  0  0  0  0  0  0
   -3.1310    1.0250    2.3780 C   0  0  0  0  0  0  0  0  0  0  0  0
   -2.2660    0.1220    3.1410 C   0  0  0  0  0  0  0  0  0  0  0  0
   -0.9220    0.0260    2.6800 N   0  0  0  0  0  0  0  0  0  0  0  0
    0.1080    0.9690    2.6770 C   0  0  0  0  0  0  0  0  0  0  0  0
   -0.0200    2.1070    3.1330 O   0  0  0  0  0  0  0  0  0  0  0  0
    1.4280    0.6340    2.1110 C   0  0  0  0  0  0  0  0  0  0  0  0
    1.6280   -0.5010    1.6310 O   0  0  0  0  0  0  0  0  0  0  0  0
    2.4930    1.5520    2.0890 N   0  0  0  0  0  0  0  0  0  0  0  0
    3.7910    1.4010    1.5990 C   0  0  0  0  0  0  0  0  0  0  0  0
    4.6700    2.4780    1.6190 C   0  0  0  0  0  0  0  0  0  0  0  0
    5.9590    2.3910    1.1560 C   0  0  0  0  0  0  0  0  0  0  0  0
    6.3970    1.2020    0.6570 C   0  0  0  0  0  0  0  0  0  0  0  0
    5.5760    0.1080    0.6120 C   0  0  0  0  0  0  0  0  0  0  0  0
    5.9960   -1.1300    0.0750 N   0  0  0  0  0  0  0  0  0  0  0  0
    7.0100   -1.2380   -0.9040 C   0  0  0  0  0  0  0  0  0  0  0  0
    7.7480   -2.4290   -0.9980 C   0  0  0  0  0  0  0  0  0  0  0  0
    8.7240   -2.6160   -1.9410 C   0  0  0  0  0  0  0  0  0  0  0  0
    9.0140   -1.6220   -2.8380 C   0  0  0  0  0  0  0  0  0  0  0  0
    8.3040   -0.4480   -2.7650 C   0  0  0  0  0  0  0  0  0  0  0  0
    8.6710    0.8680   -3.9350 S   0  0  0  0  0  0  0  0  0  0  0  0
    7.3140   -0.2500   -1.8150 C   0  0  0  0  0  0  0  0  0  0  0  0
    4.2710    0.2380    1.0930 C   0  0  0  0  0  0  0  0  0  0  0  0
   -3.1930    2.4410    2.1480 C   0  0  0  0  0  0  0  0  0  0  0  0
   -2.4320    3.3320    2.5940 O   0  0  0  0  0  0  0  0  0  0  0  0
  1  2  1  0
  2  3  1  0
  3  4  2  3
  3  6  1  0
  4  5  1  0
  6  7  1  0
  7  8  1  0
  8  9  2  0
  8 10  1  0
 10 11  1  0
 10 14  2  0
 11 12  2  0
 12 13  1  0
 13 14  1  0
 13 38  1  0
 14 15  1  0
 15 16  2  0
 16 17  1  0
 16 38  1  0
 17 18  1  0
 18 19  1  0
 19 20  2  0
 19 21  1  0
 21 22  2  0
 21 23  1  0
 23 24  1  0
 24 25  2  0
 24 37  1  0
 25 26  1  0
 26 27  2  0
 27 28  1  0
 28 29  1  0
 28 37  2  0
 29 30  1  0
 30 31  2  0
 30 36  1  0
 31 32  1  0
 32 33  2  0
 33 34  1  0
 34 35  1  0
 34 36  2  0
 38 39  2  0
M  END
