
     RDKit          3D

 39 42  0  0  0  0  0  0  0  0999 V2000
    0.9860    0.7970   -1.6820 C   0  0  0  0  0  0  0  0  0  0  0  0
    1.8970   -0.3870   -1.4990 C   0  0  0  0  0  0  0  0  0  0  0  0
    1.2640   -1.9970   -1.9740 S   0  0  0  0  0  0  0  0  0  0  0  0
   -0.4320   -1.8650   -2.6000 C   0  0  0  0  0  0  0  0  0  0  0  0
   -1.3070   -1.4400   -1.4750 C   0  0  0  0  0  0  0  0  0  0  0  0
   -0.8300   -1.2300   -0.3090 O   0  0  0  0  0  0  0  0  0  0  0  0
   -2.7080   -1.2400   -1.6100 N   0  0  0  0  0  0  0  0  0  0  0  0
   -3.4970   -0.8350   -0.5040 C   0  0  0  0  0  0  0  0  0  0  0  0
   -3.7000    0.5330   -0.2380 C   0  0  0  0  0  0  0  0  0  0  0  0
   -3.0950    1.4640   -1.1060 N   0  0  0  0  0  0  0  0  0  0  0  0
   -3.1810    2.8620   -1.0080 C   0  0  0  0  0  0  0  0  0  0  0  0
   -3.9180    3.5740   -0.1060 C   0  0  0  0  0  0  0  0  0  0  0  0
   -3.9500    4.9790   -0.0660 C   0  0  0  0  0  0  0  0  0  0  0  0
   -3.2170    5.6850   -0.9610 C   0  0  0  0  0  0  0  0  0  0  0  0
   -2.4670    4.9940   -1.8800 C   0  0  0  0  0  0  0  0  0  0  0  0
   -2.4350    3.6270   -1.9210 C   0  0  0  0  0  0  0  0  0  0  0  0
   -4.4550    0.8730    0.8240 N   0  0  0  0  0  0  0  0  0  0  0  0
   -5.0060   -0.0470    1.6200 C   0  0  0  0  0  0  0  0  0  0  0  0
   -4.8030   -1.3600    1.3540 N   0  0  0  0  0  0  0  0  0  0  0  0
   -4.0680   -1.7660    0.3190 C   0  0  0  0  0  0  0  0  0  0  0  0
   -3.8490   -3.1060    0.0310 O   0  0  0  0  0  0  0  0  0  0  0  0
   -4.3970   -4.1250    0.8240 C   0  0  0  0  0  0  0  0  0  0  0  0
   -3.5490   -4.7950    1.5730 C   0  0  0  0  0  0  0  0  0  0  0  0
   -3.9700   -5.8850    2.4520 C   0  0  0  0  0  0  0  0  0  0  0  0
   -3.6280   -5.5510    3.7820 O   0  0  0  0  0  0  0  0  0  0  0  0
   -5.8480   -4.3230    0.7280 C   0  0  0  0  0  0  0  0  0  0  0  0
   -6.3660   -4.7790   -1.1020 Br  0  0  0  0  0  0  0  0  0  0  0  0
    3.0890   -0.2110   -1.0110 C   0  0  0  0  0  0  0  0  0  0  0  0
    3.8930    1.2920   -0.4830 S   0  0  0  0  0  0  0  0  0  0  0  0
    5.4360    0.5000    0.0060 C   0  0  0  0  0  0  0  0  0  0  0  0
    6.5510    1.2150    0.5450 N   0  0  0  0  0  0  0  0  0  0  0  0
    6.4350    2.5940    0.8960 C   0  0  0  0  0  0  0  0  0  0  0  0
    7.7560    3.2950    0.9970 C   0  0  0  0  0  0  0  0  0  0  0  0
    8.5650    2.5390    1.8530 O   0  0  0  0  0  0  0  0  0  0  0  0
    8.9310    1.3940    1.1690 C   0  0  0  0  0  0  0  0  0  0  0  0
    7.7980    0.5290    0.7310 C   0  0  0  0  0  0  0  0  0  0  0  0
    5.2880   -0.7240   -0.2270 N   0  0  0  0  0  0  0  0  0  0  0  0
    4.1150   -1.2030   -0.7540 C   0  0  0  0  0  0  0  0  0  0  0  0
    3.9120   -2.4440   -1.0110 O   0  0  0  0  0  0  0  0  0  0  0  0
  1  2  1  0
  2  3  1  0
  2 28  2  3
  3  4  1  0
  4  5  1  0
  5  6  2  0
  5  7  1  0
  7  8  1  0
  8  9  1  0
  8 20  2  0
  9 10  1  0
  9 17  2  0
 10 11  1  0
 11 12  2  0
 11 16  1  0
 12 13  1  0
 13 14  2  0
 14 15  1  0
 15 16  2  0
 17 18  1  0
 18 19  2  0
 19 20  1  0
 20 21  1  0
 21 22  1  0
 22 23  2  3
 22 26  1  0
 23 24  1  0
 24 25  1  0
 26 27  1  0
 28 29  1  0
 28 38  1  0
 29 30  1  0
 30 31  1  0
 30 37  2  0
 31 32  1  0
 31 36  1  0
 32 33  1  0
 33 34  1  0
 34 35  1  0
 35 36  1  0
 37 38  1  0
 38 39  2  0
M  END
