
     RDKit          3D

 39 43  0  0  0  0  0  0  0  0999 V2000
    1.0430   -1.3070    2.0000 O   0  0  0  0  0  0  0  0  0  0  0  0
    0.7270   -0.1110    2.1040 C   0  0  0  0  0  0  0  0  0  0  0  0
   -0.5590    0.1870    2.7960 C   0  0  0  0  0  0  0  0  0  0  0  0
   -1.2300   -1.0320    3.2470 C   0  0  0  0  0  0  0  0  0  0  0  0
   -1.3190   -1.5600    4.5170 C   0  0  0  0  0  0  0  0  0  0  0  0
   -2.0280   -2.6980    4.4890 N   0  0  0  0  0  0  0  0  0  0  0  0
   -2.4140   -2.9390    3.2200 C   0  0  0  0  0  0  0  0  0  0  0  0
   -3.1410   -3.9610    2.7140 N   0  0  0  0  0  0  0  0  0  0  0  0
   -3.4200   -4.0200    1.4150 C   0  0  0  0  0  0  0  0  0  0  0  0
   -2.9630   -3.0280    0.5840 C   0  0  0  0  0  0  0  0  0  0  0  0
   -3.2820   -3.0250   -1.1220 S   0  0  1  0  0  0  0  0  0  0  0  0
   -2.1340   -2.3770   -1.8240 O   0  0  0  0  0  0  0  0  0  0  0  0
   -3.3690   -4.4560   -1.5700 O   0  0  0  0  0  0  0  0  0  0  0  0
   -4.7490   -2.1720   -1.4760 N   0  0  0  0  0  0  0  0  0  0  0  0
   -4.5530   -0.8120   -1.0340 C   0  0  0  0  0  0  0  0  0  0  0  0
   -5.7180    0.0680   -1.2660 C   0  0  0  0  0  0  0  0  0  0  0  0
   -6.7470   -0.4760   -1.8380 C   0  0  0  0  0  0  0  0  0  0  0  0
   -8.3030    0.3210   -2.2520 S   0  0  0  0  0  0  0  0  0  0  0  0
   -7.9150    2.0050   -2.6970 C   0  0  0  0  0  0  0  0  0  0  0  0
   -6.9880    2.8180   -2.2200 C   0  0  0  0  0  0  0  0  0  0  0  0
   -6.0510    2.5350   -1.2060 N   0  0  0  0  0  0  0  0  0  0  0  0
   -5.5290    1.4370   -0.8090 C   0  0  0  0  0  0  0  0  0  0  0  0
   -2.2130   -1.9680    1.0910 C   0  0  0  0  0  0  0  0  0  0  0  0
   -1.9260   -1.9140    2.4470 C   0  0  0  0  0  0  0  0  0  0  0  0
    1.5640    0.8880    1.5810 N   0  0  0  0  0  0  0  0  0  0  0  0
    2.7920    0.7320    0.9120 C   0  0  0  0  0  0  0  0  0  0  0  0
    3.3500   -0.4760    0.6600 C   0  0  0  0  0  0  0  0  0  0  0  0
    4.5690   -0.6090   -0.0080 C   0  0  0  0  0  0  0  0  0  0  0  0
    5.2380    0.5120   -0.4300 C   0  0  0  0  0  0  0  0  0  0  0  0
    4.7020    1.7590   -0.1920 C   0  0  0  0  0  0  0  0  0  0  0  0
    5.4530    2.9350   -0.6630 C   0  0  0  0  0  0  0  0  0  0  0  0
    6.6760    2.5600   -1.3210 N   0  0  0  0  0  0  0  0  0  0  0  0
    6.8500    2.2860   -2.7310 C   0  0  0  0  0  0  0  0  0  0  0  0
    8.1470    1.5060   -2.8190 C   0  0  0  0  0  0  0  0  0  0  0  0
    8.8020    1.7800   -1.5910 O   0  0  0  0  0  0  0  0  0  0  0  0
    7.9330    2.3910   -0.7080 C   0  0  0  0  0  0  0  0  0  0  0  0
    8.2360    2.7350    0.4620 O   0  0  0  0  0  0  0  0  0  0  0  0
    3.5010    1.8470    0.4680 C   0  0  0  0  0  0  0  0  0  0  0  0
    2.7590    3.5630    0.7990 Br  0  0  0  0  0  0  0  0  0  0  0  0
  1  2  2  0
  2  3  1  0
  2 25  1  0
  3  4  1  0
  4  5  2  0
  4 24  1  0
  5  6  1  0
  6  7  1  0
  7  8  2  0
  7 24  1  0
  8  9  1  0
  9 10  2  0
 10 11  1  0
 10 23  1  0
 11 12  2  0
 11 13  2  0
 11 14  1  1
 14 15  1  0
 15 16  1  0
 16 17  2  0
 16 22  1  0
 17 18  1  0
 18 19  1  0
 19 20  2  0
 20 21  1  0
 21 22  2  0
 23 24  2  0
 25 26  1  0
 26 27  2  0
 26 38  1  0
 27 28  1  0
 28 29  2  0
 29 30  1  0
 30 31  1  0
 30 38  2  0
 31 32  1  0
 32 33  1  0
 32 36  1  0
 33 34  1  0
 34 35  1  0
 35 36  1  0
 36 37  2  0
 38 39  1  0
M  END
