
     RDKit          3D

 39 43  0  0  0  0  0  0  0  0999 V2000
   -3.4360    5.0420   -4.8040 C   0  0  0  0  0  0  0  0  0  0  0  0
   -3.8410    4.3510   -3.6370 C   0  0  0  0  0  0  0  0  0  0  0  0
   -4.6120    4.6740   -2.5410 C   0  0  0  0  0  0  0  0  0  0  0  0
   -4.8010    3.7990   -1.6240 N   0  0  0  0  0  0  0  0  0  0  0  0
   -4.3670    2.6380   -1.5780 C   0  0  0  0  0  0  0  0  0  0  0  0
   -4.4180    1.4580   -0.7020 C   0  0  0  0  0  0  0  0  0  0  0  0
   -3.0110    1.5530    0.4620 S   0  0  0  0  0  0  0  0  0  0  0  0
   -1.5280    1.3620   -0.5250 C   0  0  0  0  0  0  0  0  0  0  0  0
   -0.9350    2.4490   -1.0440 N   0  0  0  0  0  0  0  0  0  0  0  0
    0.1690    2.3400   -1.7950 N   0  0  0  0  0  0  0  0  0  0  0  0
    0.7120    1.1520   -2.0470 C   0  0  0  0  0  0  0  0  0  0  0  0
    1.7440    1.0560   -2.7510 O   0  0  0  0  0  0  0  0  0  0  0  0
    0.1080   -0.0100   -1.5110 C   0  0  0  0  0  0  0  0  0  0  0  0
    0.8080   -1.2670   -1.7640 C   0  0  0  0  0  0  0  0  0  0  0  0
    2.0560   -1.3250   -0.8960 C   0  0  0  0  0  0  0  0  0  0  0  0
    2.1380   -1.7240    0.3770 N   0  0  0  0  0  0  0  0  0  0  0  0
    3.4340   -1.6250    0.7880 C   0  0  0  0  0  0  0  0  0  0  0  0
    3.9690   -1.9700    2.1140 C   0  0  0  0  0  0  0  0  0  0  0  0
    3.8190   -1.0730    3.1090 O   0  0  0  0  0  0  0  0  0  0  0  0
    4.3520    0.1680    2.9940 C   0  0  2  0  0  0  0  0  0  0  0  0
    5.8450    0.1730    2.7560 C   0  0  0  0  0  0  0  0  0  0  0  0
    4.2080    0.8090    4.4080 C   0  0  0  0  0  0  0  0  0  0  0  0
    4.2920    2.2580    4.0340 C   0  0  0  0  0  0  0  0  0  0  0  0
    4.1730    2.3860    2.6750 O   0  0  0  0  0  0  0  0  0  0  0  0
    3.5930    1.1780    2.2080 C   0  0  0  0  0  0  0  0  0  0  0  0
    4.1060   -1.1560   -0.2870 N   0  0  0  0  0  0  0  0  0  0  0  0
    3.2540   -0.9980   -1.2410 O   0  0  0  0  0  0  0  0  0  0  0  0
   -1.0100    0.0820   -0.7530 C   0  0  0  0  0  0  0  0  0  0  0  0
   -1.6860   -1.0490   -0.1420 C   0  0  0  0  0  0  0  0  0  0  0  0
   -1.9170   -0.8900    1.1080 O   0  0  0  0  0  0  0  0  0  0  0  0
   -2.0690   -2.2110   -0.8100 N   0  0  0  0  0  0  0  0  0  0  0  0
   -2.6970   -3.3100   -0.2210 C   0  0  0  0  0  0  0  0  0  0  0  0
   -2.9630   -3.4420    1.1030 C   0  0  0  0  0  0  0  0  0  0  0  0
   -3.5860   -4.5890    1.6140 C   0  0  0  0  0  0  0  0  0  0  0  0
   -3.9490   -5.6210    0.7820 C   0  0  0  0  0  0  0  0  0  0  0  0
   -3.6780   -5.4760   -0.5450 C   0  0  0  0  0  0  0  0  0  0  0  0
   -3.0710   -4.3670   -1.0680 C   0  0  0  0  0  0  0  0  0  0  0  0
   -2.7420   -4.2640   -2.9560 Br  0  0  0  0  0  0  0  0  0  0  0  0
   -3.4180    2.6110   -3.1790 S   0  0  0  0  0  0  0  0  0  0  0  0
  1  2  1  0
  2  3  2  0
  2 39  1  0
  3  4  1  0
  4  5  2  0
  5  6  1  0
  5 39  1  0
  6  7  1  0
  7  8  1  0
  8  9  2  0
  8 28  1  0
  9 10  1  0
 10 11  1  0
 11 12  2  0
 11 13  1  0
 13 14  1  0
 13 28  2  0
 14 15  1  0
 15 16  2  0
 15 27  1  0
 16 17  1  0
 17 18  1  0
 17 26  2  0
 18 19  1  0
 19 20  1  0
 20 21  1  6
 20 22  1  0
 20 25  1  0
 22 23  1  0
 23 24  1  0
 24 25  1  0
 26 27  1  0
 28 29  1  0
 29 30  2  0
 29 31  1  0
 31 32  1  0
 32 33  2  0
 32 37  1  0
 33 34  1  0
 34 35  2  0
 35 36  1  0
 36 37  2  0
 37 38  1  0
M  END
