
     RDKit          3D

 39 43  0  0  0  0  0  0  0  0999 V2000
   -8.8350   -2.6110   -0.4140 C   0  0  0  0  0  0  0  0  0  0  0  0
   -7.4280   -2.5290   -1.0090 C   0  0  0  0  0  0  0  0  0  0  0  0
   -6.4890   -1.9920   -0.0220 C   0  0  0  0  0  0  0  0  0  0  0  0
   -6.5900   -2.1510    1.3030 O   0  0  0  0  0  0  0  0  0  0  0  0
   -5.6290   -1.5690    1.8890 N   0  0  0  0  0  0  0  0  0  0  0  0
   -4.7810   -0.9580    1.0080 C   0  0  0  0  0  0  0  0  0  0  0  0
   -3.6280   -0.2030    1.3790 N   0  0  0  0  0  0  0  0  0  0  0  0
   -3.2790   -0.0810    2.7440 C   0  0  0  0  0  0  0  0  0  0  0  0
   -4.0990   -0.7690    3.5350 O   0  0  0  0  0  0  0  0  0  0  0  0
   -2.2630    0.6160    3.4560 C   0  0  0  0  0  0  0  0  0  0  0  0
   -0.6010    0.5450    2.8280 S   0  0  0  0  0  0  0  0  0  0  0  0
   -0.4330    1.6090    1.4130 C   0  0  0  0  0  0  0  0  0  0  0  0
   -0.2860    2.9750    1.5310 N   0  0  0  0  0  0  0  0  0  0  0  0
   -0.1310    3.5260    0.3480 C   0  0  0  0  0  0  0  0  0  0  0  0
    0.0370    4.8230   -0.0670 C   0  0  0  0  0  0  0  0  0  0  0  0
    0.1720    5.1710   -1.4020 C   0  0  0  0  0  0  0  0  0  0  0  0
    0.3190    6.8920   -1.8690 S   0  0  0  0  0  0  0  0  0  0  0  0
    0.1310    7.8690   -0.3300 C   0  0  0  0  0  0  0  0  0  0  0  0
    0.1410    4.1770   -2.3630 C   0  0  0  0  0  0  0  0  0  0  0  0
   -0.0310    2.8580   -1.9400 C   0  0  0  0  0  0  0  0  0  0  0  0
   -0.1690    2.5290   -0.6040 C   0  0  0  0  0  0  0  0  0  0  0  0
   -0.3560    1.3720    0.0990 N   0  0  0  0  0  0  0  0  0  0  0  0
   -0.4530    0.0900   -0.5270 C   0  0  0  0  0  0  0  0  0  0  0  0
    0.9020   -0.4760   -0.7470 C   0  0  0  0  0  0  0  0  0  0  0  0
    1.3540   -0.5230   -1.9300 O   0  0  0  0  0  0  0  0  0  0  0  0
    1.7450   -0.9750    0.2570 N   0  0  0  0  0  0  0  0  0  0  0  0
    3.0390   -1.5500   -0.0060 C   0  0  0  0  0  0  0  0  0  0  0  0
    3.9130   -1.9910    0.9330 N   0  0  0  0  0  0  0  0  0  0  0  0
    5.0340   -2.4730    0.3290 C   0  0  0  0  0  0  0  0  0  0  0  0
    6.2180   -3.0310    0.7970 C   0  0  0  0  0  0  0  0  0  0  0  0
    7.1890   -3.4350   -0.0840 C   0  0  0  0  0  0  0  0  0  0  0  0
    8.4340   -4.0360    0.4750 C   0  0  0  0  0  0  0  0  0  0  0  0
    9.4440   -4.1000   -0.4780 O   0  0  0  0  0  0  0  0  0  0  0  0
    6.9710   -3.2760   -1.4180 C   0  0  0  0  0  0  0  0  0  0  0  0
    5.7910   -2.7170   -1.9040 C   0  0  0  0  0  0  0  0  0  0  0  0
    4.8020   -2.3060   -1.0180 C   0  0  0  0  0  0  0  0  0  0  0  0
    3.6080   -1.7550   -1.1680 O   0  0  0  0  0  0  0  0  0  0  0  0
   -5.3500   -1.2430   -0.2030 C   0  0  0  0  0  0  0  0  0  0  0  0
   -4.6130   -0.6740   -1.8700 Br  0  0  0  0  0  0  0  0  0  0  0  0
  1  2  1  0
  2  3  1  0
  3  4  1  0
  3 38  2  0
  4  5  1  0
  5  6  2  0
  6  7  1  0
  6 38  1  0
  7  8  1  0
  8  9  2  0
  8 10  1  0
 10 11  1  0
 11 12  1  0
 12 13  2  0
 12 22  1  0
 13 14  1  0
 14 15  2  0
 14 21  1  0
 15 16  1  0
 16 17  1  0
 16 19  2  0
 17 18  1  0
 19 20  1  0
 20 21  2  0
 21 22  1  0
 22 23  1  0
 23 24  1  0
 24 25  2  0
 24 26  1  0
 26 27  1  0
 27 28  2  0
 27 37  1  0
 28 29  1  0
 29 30  2  0
 29 36  1  0
 30 31  1  0
 31 32  1  0
 31 34  2  0
 32 33  1  0
 34 35  1  0
 35 36  2  0
 36 37  1  0
 38 39  1  0
M  END
