
     RDKit          3D

 43 46  0  0  0  0  0  0  0  0999 V2000
   -1.0540    6.7460   -2.9360 C   0  0  0  0  0  0  0  0  0  0  0  0
    0.0610    5.9040   -3.4940 C   0  0  0  0  0  0  0  0  0  0  0  0
    0.4770    4.8960   -2.5600 O   0  0  0  0  0  0  0  0  0  0  0  0
   -0.4320    3.9540   -2.1230 C   0  0  0  0  0  0  0  0  0  0  0  0
   -1.6190    4.0400   -2.5890 O   0  0  0  0  0  0  0  0  0  0  0  0
   -0.1180    2.9560   -1.2310 O   0  0  0  0  0  0  0  0  0  0  0  0
   -1.0820    1.9920   -0.7950 C   0  0  0  0  0  0  0  0  0  0  0  0
   -0.4470    1.0210    0.1790 C   0  0  1  0  0  0  0  0  0  0  0  0
   -1.4450   -0.0210    0.6360 C   0  0  0  0  0  0  0  0  0  0  0  0
   -2.0070   -0.8350   -0.4800 C   0  0  0  0  0  0  0  0  0  0  0  0
   -2.9130   -1.7960   -0.0660 O   0  0  0  0  0  0  0  0  0  0  0  0
   -4.0220   -1.3240    0.5930 C   0  0  0  0  0  0  0  0  0  0  0  0
   -4.8750   -0.3740   -0.1820 C   0  0  0  0  0  0  0  0  0  0  0  0
   -5.9750    0.0480    0.5710 O   0  0  0  0  0  0  0  0  0  0  0  0
   -6.9570   -0.7940    1.0550 C   0  0  0  0  0  0  0  0  0  0  0  0
   -6.9140   -2.0210    0.8330 O   0  0  0  0  0  0  0  0  0  0  0  0
   -8.0570   -0.2740    1.8290 N   0  0  0  0  0  0  0  0  0  0  0  0
   -9.0870   -1.1480    2.3370 C   0  0  0  0  0  0  0  0  0  0  0  0
   -9.8360   -1.8880    1.2650 C   0  0  0  0  0  0  0  0  0  0  0  0
  -10.7900   -2.6830    1.9000 O   0  0  0  0  0  0  0  0  0  0  0  0
    0.7740    0.3330   -0.3670 C   0  0  0  0  0  0  0  0  0  0  0  0
    1.8710    0.6510    0.4850 N   0  0  0  0  0  0  0  0  0  0  0  0
    3.1620    0.0880    0.6780 C   0  0  0  0  0  0  0  0  0  0  0  0
    3.9410    0.6070    1.5800 O   0  0  0  0  0  0  0  0  0  0  0  0
    3.7460   -0.9950    0.0100 N   0  0  0  0  0  0  0  0  0  0  0  0
    3.0710   -1.6610   -1.0660 C   0  0  0  0  0  0  0  0  0  0  0  0
    3.9930   -2.3370   -2.0630 C   0  0  0  0  0  0  0  0  0  0  0  0
    5.1650   -2.8110   -1.5590 O   0  0  0  0  0  0  0  0  0  0  0  0
    5.0560   -2.9650   -0.2000 C   0  0  0  0  0  0  0  0  0  0  0  0
    5.0520   -1.5330    0.3650 C   0  0  1  0  0  0  0  0  0  0  0  0
    6.1690   -0.7920   -0.2780 C   0  0  0  0  0  0  0  0  0  0  0  0
    7.3420   -1.6200   -0.4310 O   0  0  0  0  0  0  0  0  0  0  0  0
    8.1630   -2.0890    0.6170 C   0  0  0  0  0  0  0  0  0  0  0  0
    9.4310   -2.5540    0.5540 C   0  0  0  0  0  0  0  0  0  0  0  0
    9.7900   -2.8770    1.7780 O   0  0  0  0  0  0  0  0  0  0  0  0
    8.8190   -2.6450    2.6290 N   0  0  0  0  0  0  0  0  0  0  0  0
    7.7720   -2.1480    1.9490 C   0  0  0  0  0  0  0  0  0  0  0  0
    6.5020   -1.7580    2.4900 N   0  0  0  0  0  0  0  0  0  0  0  0
    5.2550   -1.6900    1.8090 C   0  0  0  0  0  0  0  0  0  0  0  0
    4.2500   -1.7790    2.5660 O   0  0  0  0  0  0  0  0  0  0  0  0
    1.4420    1.8200    1.2460 C   0  0  0  0  0  0  0  0  0  0  0  0
    2.2020    2.6730    1.7710 O   0  0  0  0  0  0  0  0  0  0  0  0
    0.0210    1.8230    1.2890 N   0  0  0  0  0  0  0  0  0  0  0  0
  1  2  1  0
  2  3  1  0
  3  4  1  0
  4  5  2  0
  4  6  1  0
  6  7  1  0
  8  7  1  6
  8  9  1  0
  8 21  1  0
  8 43  1  0
  9 10  1  0
 10 11  1  0
 11 12  1  0
 12 13  1  0
 13 14  1  0
 14 15  1  0
 15 16  2  0
 15 17  1  0
 17 18  1  0
 18 19  1  0
 19 20  1  0
 21 22  1  0
 22 23  1  0
 22 41  1  0
 23 24  2  0
 23 25  1  0
 25 26  1  0
 25 30  1  0
 26 27  1  0
 27 28  1  0
 28 29  1  0
 30 29  1  6
 30 31  1  0
 30 39  1  0
 31 32  1  0
 32 33  1  0
 33 34  2  0
 33 37  1  0
 34 35  1  0
 35 36  1  0
 36 37  2  0
 37 38  1  0
 38 39  1  0
 39 40  2  0
 41 42  2  0
 41 43  1  0
M  END
