
     RDKit          3D

 44 48  0  0  0  0  0  0  0  0999 V2000
  -10.5100    0.8410   -1.0180 N   0  0  0  0  0  0  0  0  0  0  0  0
  -10.2740   -0.6340   -1.0540 C   0  0  0  0  0  0  0  0  0  0  0  0
  -11.0650   -1.4360   -1.1100 O   0  0  0  0  0  0  0  0  0  0  0  0
   -8.7750   -0.7150   -0.9760 C   0  0  0  0  0  0  0  0  0  0  0  0
   -8.2180   -0.8810   -2.2230 C   0  0  0  0  0  0  0  0  0  0  0  0
   -6.8260   -0.8430   -2.3480 C   0  0  0  0  0  0  0  0  0  0  0  0
   -6.0860   -0.6380   -1.2210 C   0  0  0  0  0  0  0  0  0  0  0  0
   -6.6260   -0.4690    0.0080 N   0  0  0  0  0  0  0  0  0  0  0  0
   -5.7610   -0.1030    1.0380 C   0  0  2  0  0  0  0  0  0  0  0  0
   -4.6480   -0.9700    1.2200 O   0  0  0  0  0  0  0  0  0  0  0  0
   -3.9330   -0.0390    2.0400 C   0  0  2  0  0  0  0  0  0  0  0  0
   -2.5000   -0.3420    2.1680 C   0  0  0  0  0  0  0  0  0  0  0  0
   -1.8590    0.8380    2.6710 O   0  0  0  0  0  0  0  0  0  0  0  0
   -0.6150    1.1870    1.5520 P   0  0  1  0  0  0  0  0  0  0  0  0
   -1.0220    2.5580    0.9060 O   0  0  0  0  0  0  0  0  0  0  0  0
    0.8380    1.3370    2.2660 O   0  0  0  0  0  0  0  0  0  0  0  0
   -0.7530    0.1040    0.2590 O   0  0  0  0  0  0  0  0  0  0  0  0
    0.7480   -0.4340   -0.1430 P   0  0  1  0  0  0  0  0  0  0  0  0
    1.2390   -1.2530    1.1170 O   0  0  0  0  0  0  0  0  0  0  0  0
    0.8050   -1.5170   -1.3970 O   0  0  0  0  0  0  0  0  0  0  0  0
    1.8680    0.7990   -0.4000 O   0  0  0  0  0  0  0  0  0  0  0  0
    2.6150    0.4750   -1.5720 C   0  0  0  0  0  0  0  0  0  0  0  0
    3.8540   -0.0440   -1.0010 C   0  0  1  0  0  0  0  0  0  0  0  0
    4.8770   -0.5140   -1.7610 O   0  0  0  0  0  0  0  0  0  0  0  0
    5.5920   -1.2120   -0.6920 C   0  0  1  0  0  0  0  0  0  0  0  0
    6.9010   -1.5160   -1.2370 N   0  0  0  0  0  0  0  0  0  0  0  0
    7.3190   -2.5820   -1.8790 C   0  0  0  0  0  0  0  0  0  0  0  0
    8.6840   -2.4720   -2.2190 N   0  0  0  0  0  0  0  0  0  0  0  0
    9.0980   -1.2720   -1.7100 C   0  0  0  0  0  0  0  0  0  0  0  0
   10.2520   -0.5420   -1.6620 C   0  0  0  0  0  0  0  0  0  0  0  0
   11.3980   -1.2430   -2.2130 N   0  0  0  0  0  0  0  0  0  0  0  0
   10.4230    0.6620   -1.1390 N   0  0  0  0  0  0  0  0  0  0  0  0
    9.2170    1.2450   -0.5350 C   0  0  0  0  0  0  0  0  0  0  0  0
    8.1880    0.4760   -0.6250 N   0  0  0  0  0  0  0  0  0  0  0  0
    7.9550   -0.6920   -1.1120 C   0  0  0  0  0  0  0  0  0  0  0  0
    5.6130   -0.2300    0.4590 C   0  0  2  0  0  0  0  0  0  0  0  0
    5.0000   -0.8290    1.6070 O   0  0  0  0  0  0  0  0  0  0  0  0
    4.5990    0.8330   -0.0200 C   0  0  2  0  0  0  0  0  0  0  0  0
    3.7740    1.2640    1.0140 O   0  0  0  0  0  0  0  0  0  0  0  0
   -4.8570    0.0660    3.1840 C   0  0  1  0  0  0  0  0  0  0  0  0
   -4.6960    1.3240    3.7820 O   0  0  0  0  0  0  0  0  0  0  0  0
   -6.2280    0.0890    2.4290 C   0  0  1  0  0  0  0  0  0  0  0  0
   -6.7770    1.3600    2.5590 O   0  0  0  0  0  0  0  0  0  0  0  0
   -7.9880   -0.5160    0.1130 C   0  0  0  0  0  0  0  0  0  0  0  0
  1  2  1  0
  2  3  2  0
  2  4  1  0
  4  5  2  0
  4 44  1  0
  5  6  1  0
  6  7  2  0
  7  8  1  0
  9  8  1  6
  8 44  2  0
  9 10  1  0
  9 42  1  0
 10 11  1  0
 11 12  1  1
 11 40  1  0
 12 13  1  0
 13 14  1  0
 14 15  2  0
 14 16  1  1
 14 17  1  0
 17 18  1  0
 18 19  2  0
 18 20  1  6
 18 21  1  0
 21 22  1  0
 23 22  1  6
 23 24  1  0
 23 38  1  0
 24 25  1  0
 25 26  1  6
 25 36  1  0
 26 27  1  0
 26 35  1  0
 27 28  2  0
 28 29  1  0
 29 30  2  0
 29 35  1  0
 30 31  1  0
 30 32  1  0
 32 33  2  0
 33 34  1  0
 34 35  2  0
 36 37  1  1
 36 38  1  0
 38 39  1  1
 40 41  1  6
 40 42  1  0
 42 43  1  6
M  CHG  2   8   1  16  -1
M  END
