
     RDKit          3D

 44 48  0  0  0  0  0  0  0  0999 V2000
    3.8890    0.6800   -1.9310 C   0  0  0  0  0  0  0  0  0  0  0  0
    3.0390    0.3040   -0.6890 C   0  0  1  0  0  0  0  0  0  0  0  0
    4.1620   -0.1820    0.2590 C   0  0  0  0  0  0  0  0  0  0  0  0
    4.8880   -1.2200   -0.3290 O   0  0  0  0  0  0  0  0  0  0  0  0
    5.9370   -1.7840    0.3720 C   0  0  0  0  0  0  0  0  0  0  0  0
    6.2000   -1.3440    1.5140 O   0  0  0  0  0  0  0  0  0  0  0  0
    6.6760   -2.7980   -0.1590 O   0  0  0  0  0  0  0  0  0  0  0  0
    2.5430    1.5850   -0.0780 C   0  0  0  0  0  0  0  0  0  0  0  0
    1.1650    2.0120   -0.4930 C   0  0  0  0  0  0  0  0  0  0  0  0
    0.4870    2.7810    0.5340 N   0  0  0  0  0  0  0  0  0  0  0  0
    1.1730    4.0030    0.8970 C   0  0  0  0  0  0  0  0  0  0  0  0
    0.6390    4.7120    1.7760 O   0  0  0  0  0  0  0  0  0  0  0  0
    2.3460    4.3980    0.3330 O   0  0  0  0  0  0  0  0  0  0  0  0
   -0.7600    2.4190    1.1800 C   0  0  2  0  0  0  0  0  0  0  0  0
   -0.7200    0.9600    1.4590 C   0  0  0  0  0  0  0  0  0  0  0  0
    0.2730    0.4830    2.4400 C   0  0  0  0  0  0  0  0  0  0  0  0
    1.0740   -0.4810    1.8760 O   0  0  0  0  0  0  0  0  0  0  0  0
    0.9240   -1.8080    1.6240 C   0  0  0  0  0  0  0  0  0  0  0  0
    1.8880   -2.5550    1.9880 O   0  0  0  0  0  0  0  0  0  0  0  0
   -0.1940   -2.5370    0.9870 C   0  0  0  0  0  0  0  0  0  0  0  0
   -0.6670   -2.2790   -0.2200 C   0  0  0  0  0  0  0  0  0  0  0  0
   -0.0150   -1.5640   -1.2720 N   0  0  0  0  0  0  0  0  0  0  0  0
    1.3380   -1.3970   -1.6380 C   0  0  0  0  0  0  0  0  0  0  0  0
    1.6550   -2.0140   -2.7740 O   0  0  0  0  0  0  0  0  0  0  0  0
    2.2260   -0.7000   -0.9450 O   0  0  0  0  0  0  0  0  0  0  0  0
   -1.9750   -2.9630   -0.2370 C   0  0  2  0  0  0  0  0  0  0  0  0
   -3.0590   -1.9860    0.0680 C   0  0  0  0  0  0  0  0  0  0  0  0
   -4.0420   -2.5540    0.7020 O   0  0  0  0  0  0  0  0  0  0  0  0
   -2.9990   -0.6980   -0.2770 O   0  0  0  0  0  0  0  0  0  0  0  0
   -3.4000    0.1070   -1.3170 C   0  0  1  0  0  0  0  0  0  0  0  0
   -3.3840   -0.5970   -2.6570 C   0  0  0  0  0  0  0  0  0  0  0  0
   -4.8620    0.5070   -1.0990 C   0  0  0  0  0  0  0  0  0  0  0  0
   -5.0410    1.9110   -1.0640 O   0  0  0  0  0  0  0  0  0  0  0  0
   -4.2190    2.5930   -0.1640 C   0  0  0  0  0  0  0  0  0  0  0  0
   -4.6220    3.3940    0.7150 O   0  0  0  0  0  0  0  0  0  0  0  0
   -2.7790    2.2910   -0.3300 N   0  0  0  0  0  0  0  0  0  0  0  0
   -1.9810    2.9800    0.6210 C   0  0  0  0  0  0  0  0  0  0  0  0
   -2.5570    1.3890   -1.3610 C   0  0  0  0  0  0  0  0  0  0  0  0
   -1.7870    1.3950   -2.3630 O   0  0  0  0  0  0  0  0  0  0  0  0
   -1.9250   -3.9830    0.8100 N   0  0  0  0  0  0  0  0  0  0  0  0
   -2.6110   -5.0520    1.2610 C   0  0  0  0  0  0  0  0  0  0  0  0
   -2.0440   -5.3610    2.4420 N   0  0  0  0  0  0  0  0  0  0  0  0
   -1.0700   -4.5140    2.6710 N   0  0  0  0  0  0  0  0  0  0  0  0
   -0.9610   -3.6170    1.6400 C   0  0  0  0  0  0  0  0  0  0  0  0
  2  1  1  6
  2  3  1  0
  2  8  1  0
  2 25  1  0
  3  4  1  0
  4  5  1  0
  5  6  2  0
  5  7  1  0
  8  9  1  0
  9 10  1  0
 10 11  1  0
 10 14  1  0
 11 12  2  0
 11 13  1  0
 14 15  1  0
 14 37  1  6
 15 16  1  0
 16 17  1  0
 17 18  1  0
 18 19  2  0
 18 20  1  0
 20 21  2  0
 20 44  1  0
 21 22  1  0
 21 26  1  0
 22 23  1  0
 23 24  2  0
 23 25  1  0
 26 27  1  0
 26 40  1  1
 27 28  2  0
 27 29  1  0
 29 30  1  0
 30 31  1  6
 30 32  1  0
 30 38  1  0
 32 33  1  0
 33 34  1  0
 34 35  2  0
 34 36  1  0
 36 37  1  0
 36 38  1  0
 38 39  2  0
 40 41  1  0
 40 44  1  0
 41 42  2  0
 42 43  1  0
 43 44  2  0
M  END
