
     RDKit          3D

 43 46  0  0  0  0  0  0  0  0999 V2000
  -10.1010    4.7010    0.0260 C   0  0  0  0  0  0  0  0  0  0  0  0
  -10.5170    3.3050    0.3760 C   0  0  0  0  0  0  0  0  0  0  0  0
   -9.4040    2.5410    0.8650 O   0  0  0  0  0  0  0  0  0  0  0  0
   -8.2950    2.3390    0.0750 C   0  0  0  0  0  0  0  0  0  0  0  0
   -8.3010    2.8510   -1.0920 O   0  0  0  0  0  0  0  0  0  0  0  0
   -7.1800    1.6320    0.4340 O   0  0  0  0  0  0  0  0  0  0  0  0
   -6.0910    1.4880   -0.4640 C   0  0  0  0  0  0  0  0  0  0  0  0
   -5.0050    0.6820    0.1550 C   0  0  0  0  0  0  0  0  0  0  0  0
   -4.9070    0.1300    1.3140 O   0  0  0  0  0  0  0  0  0  0  0  0
   -3.7310   -0.5010    1.4280 C   0  0  0  0  0  0  0  0  0  0  0  0
   -3.4010   -1.1200    2.4860 N   0  0  0  0  0  0  0  0  0  0  0  0
   -3.0080   -0.3680    0.3010 N   0  0  0  0  0  0  0  0  0  0  0  0
   -1.7880   -0.7970   -0.0930 C   0  0  0  0  0  0  0  0  0  0  0  0
   -1.0580   -1.6030    0.5980 C   0  0  0  0  0  0  0  0  0  0  0  0
   -1.1250   -2.2980    1.8570 C   0  0  0  0  0  0  0  0  0  0  0  0
   -1.6760   -3.5820    2.0370 C   0  0  0  0  0  0  0  0  0  0  0  0
   -1.5430   -3.8750    3.3270 N   0  0  0  0  0  0  0  0  0  0  0  0
   -0.9480   -2.8500    3.9340 C   0  0  0  0  0  0  0  0  0  0  0  0
   -0.7120   -1.9340    3.0470 O   0  0  0  0  0  0  0  0  0  0  0  0
   -1.3390   -0.4400   -1.3800 C   0  0  0  0  0  0  0  0  0  0  0  0
   -0.1190   -0.5320   -1.8370 C   0  0  0  0  0  0  0  0  0  0  0  0
    1.1600   -0.9310   -1.3940 C   0  0  0  0  0  0  0  0  0  0  0  0
    2.2150   -0.9210   -2.2360 C   0  0  0  0  0  0  0  0  0  0  0  0
    3.5560   -1.3140   -1.8600 N   0  0  0  0  0  0  0  0  0  0  0  0
    4.3430   -1.2050   -2.8600 C   0  0  0  0  0  0  0  0  0  0  0  0
    5.7350   -1.5370   -2.7460 N   0  0  0  0  0  0  0  0  0  0  0  0
    6.4720   -1.3170   -1.5240 C   0  0  2  0  0  0  0  0  0  0  0  0
    6.5050    0.1140   -1.1120 C   0  0  0  0  0  0  0  0  0  0  0  0
    7.2280    0.2740    0.0460 O   0  0  0  0  0  0  0  0  0  0  0  0
    6.7920   -0.3640    1.1640 C   0  0  0  0  0  0  0  0  0  0  0  0
    7.7730    0.0210    2.2900 C   0  0  0  0  0  0  0  0  0  0  0  0
    7.7260    1.4130    2.4260 O   0  0  0  0  0  0  0  0  0  0  0  0
    8.5340    1.8080    3.3650 O   0  0  0  0  0  0  0  0  0  0  0  0
    7.8720   -1.7570   -1.7410 C   0  0  0  0  0  0  0  0  0  0  0  0
    8.2380   -2.2300   -2.8540 O   0  0  0  0  0  0  0  0  0  0  0  0
    8.8460   -1.6760   -0.7550 O   0  0  0  0  0  0  0  0  0  0  0  0
    3.6730   -0.7500   -3.9800 O   0  0  0  0  0  0  0  0  0  0  0  0
    2.3220   -0.5590   -3.6210 C   0  0  0  0  0  0  0  0  0  0  0  0
    1.4230   -0.1480   -4.4080 O   0  0  0  0  0  0  0  0  0  0  0  0
   -2.2400    0.3330   -2.1510 C   0  0  0  0  0  0  0  0  0  0  0  0
   -2.0120    0.7310   -3.3260 N   0  0  0  0  0  0  0  0  0  0  0  0
   -3.3770    0.6680   -1.6520 O   0  0  0  0  0  0  0  0  0  0  0  0
   -3.8110    0.3740   -0.4920 C   0  0  0  0  0  0  0  0  0  0  0  0
  1  2  1  0
  2  3  1  0
  3  4  1  0
  4  5  2  0
  4  6  1  0
  6  7  1  0
  7  8  1  0
  8  9  1  0
  8 43  2  0
  9 10  1  0
 10 11  2  0
 10 12  1  0
 12 13  1  0
 12 43  1  0
 13 14  2  3
 13 20  1  0
 14 15  1  0
 15 16  2  0
 15 19  1  0
 16 17  1  0
 17 18  2  0
 18 19  1  0
 20 21  2  3
 20 40  1  0
 21 22  1  0
 22 23  2  3
 23 24  1  0
 23 38  1  0
 24 25  2  0
 25 26  1  0
 25 37  1  0
 26 27  1  0
 27 28  1  6
 27 34  1  0
 28 29  1  0
 29 30  1  0
 30 31  1  0
 31 32  1  0
 32 33  1  0
 34 35  2  0
 34 36  1  0
 37 38  1  0
 38 39  2  0
 40 41  2  0
 40 42  1  0
 42 43  1  0
M  END
