
     RDKit          3D

 43 45  0  0  0  0  0  0  0  0999 V2000
   -7.2920   -3.6900    1.1000 C   0  0  0  0  0  0  0  0  0  0  0  0
   -6.9390   -2.7570   -0.0150 C   0  0  0  0  0  0  0  0  0  0  0  0
   -6.1530   -1.6650    0.5570 N   0  0  0  0  0  0  0  0  0  0  0  0
   -6.6830   -0.4240    1.0770 C   0  0  0  0  0  0  0  0  0  0  0  0
   -5.5130    0.2130    1.7370 C   0  0  0  0  0  0  0  0  0  0  0  0
   -4.3750   -0.2970    0.9630 N   0  0  0  0  0  0  0  0  0  0  0  0
   -3.3250    0.4830    0.6660 O   0  0  0  0  0  0  0  0  0  0  0  0
   -2.0660    0.1080    0.1700 C   0  0  0  0  0  0  0  0  0  0  0  0
   -1.9860   -1.1340    0.0090 O   0  0  0  0  0  0  0  0  0  0  0  0
   -1.0810    1.0620   -0.0870 N   0  0  0  0  0  0  0  0  0  0  0  0
   -1.3920    2.4620    0.1310 C   0  0  0  0  0  0  0  0  0  0  0  0
   -1.0410    3.1730   -1.1660 C   0  0  0  0  0  0  0  0  0  0  0  0
   -0.7480    2.2800   -2.2610 N   0  0  0  0  0  0  0  0  0  0  0  0
    0.0570    1.1040   -2.0560 C   0  0  0  0  0  0  0  0  0  0  0  0
    0.5510    0.4330   -2.9850 O   0  0  0  0  0  0  0  0  0  0  0  0
    0.2250    0.7850   -0.5980 C   0  0  1  0  0  0  0  0  0  0  0  0
    1.1900    1.8620   -0.1180 C   0  0  0  0  0  0  0  0  0  0  0  0
    1.1970    2.2190    1.0750 O   0  0  0  0  0  0  0  0  0  0  0  0
    2.0940    2.4860   -1.0120 N   0  0  0  0  0  0  0  0  0  0  0  0
    3.0430    3.4850   -0.6690 C   0  0  0  0  0  0  0  0  0  0  0  0
    3.6420    4.1660   -1.7390 C   0  0  0  0  0  0  0  0  0  0  0  0
    4.5770    5.1430   -1.5950 C   0  0  0  0  0  0  0  0  0  0  0  0
    4.9690    5.4950   -0.3170 C   0  0  0  0  0  0  0  0  0  0  0  0
    4.3830    4.8260    0.7470 C   0  0  0  0  0  0  0  0  0  0  0  0
    3.4360    3.8380    0.5780 C   0  0  0  0  0  0  0  0  0  0  0  0
    0.7820   -0.5450   -0.3050 C   0  0  2  0  0  0  0  0  0  0  0  0
    0.9500   -0.8740    1.1340 C   0  0  0  0  0  0  0  0  0  0  0  0
    0.4100   -1.9090    1.5840 O   0  0  0  0  0  0  0  0  0  0  0  0
    1.6740   -0.1030    2.0090 O   0  0  0  0  0  0  0  0  0  0  0  0
    1.7920   -0.4780    3.3550 C   0  0  0  0  0  0  0  0  0  0  0  0
    2.0650   -0.9100   -0.9300 C   0  0  0  0  0  0  0  0  0  0  0  0
    2.7260   -0.2430   -1.7090 O   0  0  0  0  0  0  0  0  0  0  0  0
    2.5900   -2.1750   -0.5890 O   0  0  0  0  0  0  0  0  0  0  0  0
    3.7850   -2.6390   -1.1080 C   0  0  0  0  0  0  0  0  0  0  0  0
    4.4200   -1.9060   -1.9120 O   0  0  0  0  0  0  0  0  0  0  0  0
    4.3300   -3.9510   -0.7530 C   0  0  0  0  0  0  0  0  0  0  0  0
    3.7300   -4.7080    0.0460 O   0  0  0  0  0  0  0  0  0  0  0  0
    5.5590   -4.4070   -1.3070 N   0  0  0  0  0  0  0  0  0  0  0  0
    6.0710   -5.6860   -0.9450 C   0  0  0  0  0  0  0  0  0  0  0  0
    5.4510   -6.4350   -0.1310 O   0  0  0  0  0  0  0  0  0  0  0  0
    7.2490   -6.1660   -1.4570 O   0  0  0  0  0  0  0  0  0  0  0  0
   -4.7140   -1.6450    0.6910 C   0  0  0  0  0  0  0  0  0  0  0  0
   -3.9620   -2.6250    0.5830 O   0  0  0  0  0  0  0  0  0  0  0  0
  1  2  1  0
  2  3  1  0
  3  4  1  0
  3 42  1  0
  4  5  1  0
  5  6  1  0
  6  7  1  0
  6 42  1  0
  7  8  1  0
  8  9  2  0
  8 10  1  0
 10 11  1  0
 10 16  1  0
 11 12  1  0
 12 13  1  0
 13 14  1  0
 14 15  2  0
 14 16  1  0
 16 17  1  1
 16 26  1  0
 17 18  2  0
 17 19  1  0
 19 20  1  0
 20 21  2  0
 20 25  1  0
 21 22  1  0
 22 23  2  0
 23 24  1  0
 24 25  2  0
 26 27  1  1
 26 31  1  0
 27 28  2  0
 27 29  1  0
 29 30  1  0
 31 32  2  0
 31 33  1  0
 33 34  1  0
 34 35  2  0
 34 36  1  0
 36 37  2  0
 36 38  1  0
 38 39  1  0
 39 40  2  0
 39 41  1  0
 42 43  2  0
M  END
