
     RDKit          3D

 43 47  0  0  0  0  0  0  0  0999 V2000
   -7.4640    0.9790   -1.9330 O   0  0  0  0  0  0  0  0  0  0  0  0
   -7.1130    1.5390   -0.8770 C   0  0  0  0  0  0  0  0  0  0  0  0
   -6.0090    1.1280   -0.0060 C   0  0  0  0  0  0  0  0  0  0  0  0
   -5.2210   -0.0800   -0.5060 C   0  0  1  0  0  0  0  0  0  0  0  0
   -4.2310   -0.2820    0.4770 O   0  0  0  0  0  0  0  0  0  0  0  0
   -2.8910   -0.0400    0.4680 C   0  0  0  0  0  0  0  0  0  0  0  0
   -2.3000    0.8910    1.3070 C   0  0  0  0  0  0  0  0  0  0  0  0
   -0.9400    1.1420    1.3040 C   0  0  0  0  0  0  0  0  0  0  0  0
   -0.1080    0.4690    0.4570 C   0  0  0  0  0  0  0  0  0  0  0  0
    1.2560    0.5900    0.3510 N   0  0  0  0  0  0  0  0  0  0  0  0
    2.0470    1.5660    1.1340 C   0  0  0  0  0  0  0  0  0  0  0  0
    1.5510    2.3210    1.8870 O   0  0  0  0  0  0  0  0  0  0  0  0
    3.4130    1.3350    0.7470 N   0  0  0  0  0  0  0  0  0  0  0  0
    4.1140    2.5890    1.7610 C   0  0  0  0  0  0  0  0  0  0  0  0
    3.3270    3.1540    2.3890 O   0  0  0  0  0  0  0  0  0  0  0  0
    5.5270    2.6340    1.5740 C   0  0  0  0  0  0  0  0  0  0  0  0
    6.2770    3.7510    1.9820 C   0  0  0  0  0  0  0  0  0  0  0  0
    7.5630    3.5640    1.6600 N   0  0  0  0  0  0  0  0  0  0  0  0
    7.6800    2.3750    1.0620 N   0  0  0  0  0  0  0  0  0  0  0  0
    8.5340    1.5270    0.5000 C   0  0  0  0  0  0  0  0  0  0  0  0
    7.8050    0.4030    0.0890 C   0  0  0  0  0  0  0  0  0  0  0  0
    8.4460   -0.7410   -0.5750 C   0  0  2  0  0  0  0  0  0  0  0  0
    7.9920   -0.9680   -1.9910 C   0  0  0  0  0  0  0  0  0  0  0  0
    8.3890   -2.3000   -2.1920 O   0  0  0  0  0  0  0  0  0  0  0  0
    8.6610   -2.8330   -0.9410 C   0  0  0  0  0  0  0  0  0  0  0  0
    8.0520   -1.9810    0.0010 O   0  0  0  0  0  0  0  0  0  0  0  0
    6.5750    0.6300    0.4180 O   0  0  0  0  0  0  0  0  0  0  0  0
    6.4570    1.8080    1.0080 C   0  0  0  0  0  0  0  0  0  0  0  0
   -0.7390   -0.4770   -0.3920 C   0  0  0  0  0  0  0  0  0  0  0  0
   -2.0710   -0.7280   -0.3940 C   0  0  0  0  0  0  0  0  0  0  0  0
   -2.5350   -1.7880   -1.3530 C   0  0  0  0  0  0  0  0  0  0  0  0
   -2.2330   -3.0630   -0.8370 O   0  0  0  0  0  0  0  0  0  0  0  0
   -3.3740   -3.7900   -0.5140 C   0  0  0  0  0  0  0  0  0  0  0  0
   -3.8200   -3.5720    0.9210 C   0  0  0  0  0  0  0  0  0  0  0  0
   -5.1630   -3.6460    1.1580 O   0  0  0  0  0  0  0  0  0  0  0  0
   -6.2090   -2.7930    1.2240 C   0  0  0  0  0  0  0  0  0  0  0  0
   -6.7850   -2.6340    2.3730 O   0  0  0  0  0  0  0  0  0  0  0  0
   -6.7960   -2.0160    0.1940 N   0  0  0  0  0  0  0  0  0  0  0  0
   -6.1490   -1.1730   -0.7350 C   0  0  0  0  0  0  0  0  0  0  0  0
   -6.4420   -1.4290   -1.9700 O   0  0  0  0  0  0  0  0  0  0  0  0
   -7.8570    2.6990   -0.4620 N   0  0  0  0  0  0  0  0  0  0  0  0
   -8.8980    3.1960   -1.1600 O   0  0  0  0  0  0  0  0  0  0  0  0
   -9.1620    4.4480   -0.7890 O   0  0  0  0  0  0  0  0  0  0  0  0
  1  2  2  0
  2  3  1  0
  2 41  1  0
  4  3  1  1
  4  5  1  0
  4 39  1  0
  5  6  1  0
  6  7  2  0
  6 30  1  0
  7  8  1  0
  8  9  2  0
  9 10  1  0
  9 29  1  0
 10 11  1  0
 11 12  2  0
 11 13  1  0
 13 14  1  0
 14 15  2  0
 14 16  1  0
 16 17  1  0
 16 28  2  0
 17 18  2  0
 18 19  1  0
 19 20  1  0
 19 28  1  0
 20 21  2  0
 22 21  1  1
 21 27  1  0
 22 23  1  0
 22 26  1  0
 23 24  1  0
 24 25  1  0
 25 26  1  0
 27 28  1  0
 29 30  2  0
 30 31  1  0
 31 32  1  0
 32 33  1  0
 33 34  1  0
 34 35  1  0
 35 36  1  0
 36 37  2  0
 36 38  1  0
 38 39  1  0
 39 40  2  0
 41 42  1  0
 42 43  1  0
M  END
