
     RDKit          3D

 43 46  0  0  0  0  0  0  0  0999 V2000
   -7.8540    3.1090    1.7170 C   0  0  0  0  0  0  0  0  0  0  0  0
   -6.4900    2.8130    1.5560 O   0  0  0  0  0  0  0  0  0  0  0  0
   -6.0280    1.7420    0.8080 C   0  0  0  0  0  0  0  0  0  0  0  0
   -6.9140    0.9220    0.1860 C   0  0  0  0  0  0  0  0  0  0  0  0
   -6.4430   -0.1350   -0.5510 C   0  0  0  0  0  0  0  0  0  0  0  0
   -5.0910   -0.3580   -0.6580 C   0  0  0  0  0  0  0  0  0  0  0  0
   -4.1330    0.4650   -0.0340 C   0  0  0  0  0  0  0  0  0  0  0  0
   -2.6890    0.1770   -0.2120 C   0  0  0  0  0  0  0  0  0  0  0  0
   -2.2020   -0.8060    0.6910 C   0  0  2  0  0  0  0  0  0  0  0  0
   -2.2240   -0.5460    2.1830 C   0  0  0  0  0  0  0  0  0  0  0  0
   -2.0030    0.5110    2.8060 N   0  0  0  0  0  0  0  0  0  0  0  0
   -1.6520    1.8330    2.4250 C   0  0  0  0  0  0  0  0  0  0  0  0
   -0.6940    2.2050    1.7040 N   0  0  0  0  0  0  0  0  0  0  0  0
    0.4000    1.7550    0.9660 C   0  0  0  0  0  0  0  0  0  0  0  0
    0.7310    2.6940    0.0970 O   0  0  0  0  0  0  0  0  0  0  0  0
    1.0930    0.6070    1.0150 O   0  0  0  0  0  0  0  0  0  0  0  0
    2.2480   -0.0680    1.1400 C   0  0  0  0  0  0  0  0  0  0  0  0
    3.2120   -0.0330   -0.0640 C   0  0  1  0  0  0  0  0  0  0  0  0
    2.4770    0.5910   -1.0450 O   0  0  0  0  0  0  0  0  0  0  0  0
    3.0120    0.9450   -2.2180 C   0  0  0  0  0  0  0  0  0  0  0  0
    4.1620    1.8930   -2.1390 C   0  0  0  0  0  0  0  0  0  0  0  0
    4.6350    2.2160   -3.4480 O   0  0  0  0  0  0  0  0  0  0  0  0
    5.6330    3.0460   -3.2420 O   0  0  0  0  0  0  0  0  0  0  0  0
    6.7460    2.6670   -3.7950 O   0  0  0  0  0  0  0  0  0  0  0  0
    4.2580    0.8640    0.2650 O   0  0  0  0  0  0  0  0  0  0  0  0
    5.0650    0.6200    1.3400 C   0  0  0  0  0  0  0  0  0  0  0  0
    4.8870   -0.3860    2.0270 O   0  0  0  0  0  0  0  0  0  0  0  0
    6.1240    1.4540    1.7420 O   0  0  0  0  0  0  0  0  0  0  0  0
    3.7090   -1.3240   -0.5410 C   0  0  0  0  0  0  0  0  0  0  0  0
    5.0070   -1.4570   -0.3050 O   0  0  0  0  0  0  0  0  0  0  0  0
    3.1830   -2.4660   -1.1900 N   0  0  0  0  0  0  0  0  0  0  0  0
    3.9300   -2.8930   -2.4190 C   0  0  0  0  0  0  0  0  0  0  0  0
    2.0560   -3.2670   -0.8370 C   0  0  0  0  0  0  0  0  0  0  0  0
    2.1790   -4.5270   -1.2380 O   0  0  0  0  0  0  0  0  0  0  0  0
    0.7940   -2.9550   -0.1080 C   0  0  0  0  0  0  0  0  0  0  0  0
   -0.0520   -1.9670   -0.3090 C   0  0  0  0  0  0  0  0  0  0  0  0
   -1.1200   -1.7420    0.5750 N   0  0  0  0  0  0  0  0  0  0  0  0
   -1.3780   -2.5610    1.7400 C   0  0  0  0  0  0  0  0  0  0  0  0
   -2.4150   -2.0020    2.4330 N   0  0  0  0  0  0  0  0  0  0  0  0
   -0.5190   -3.6560    2.0070 N   0  0  0  0  0  0  0  0  0  0  0  0
    0.5500   -3.8210    1.0670 C   0  0  0  0  0  0  0  0  0  0  0  0
    1.3760   -4.7980    1.2350 O   0  0  0  0  0  0  0  0  0  0  0  0
   -4.6500    1.5010    0.6880 C   0  0  0  0  0  0  0  0  0  0  0  0
  1  2  1  0
  2  3  1  0
  3  4  2  0
  3 43  1  0
  4  5  1  0
  5  6  2  0
  6  7  1  0
  7  8  1  0
  7 43  2  0
  9  8  1  6
  9 10  1  0
  9 37  1  0
 10 11  2  0
 10 39  1  0
 11 12  1  0
 12 13  2  0
 13 14  1  0
 14 15  2  0
 14 16  1  0
 16 17  1  0
 17 18  1  0
 18 19  1  6
 18 25  1  0
 18 29  1  0
 19 20  1  0
 20 21  1  0
 21 22  1  0
 22 23  1  0
 23 24  1  0
 25 26  1  0
 26 27  2  0
 26 28  1  0
 29 30  2  0
 29 31  1  0
 31 32  1  0
 31 33  1  0
 33 34  2  0
 33 35  1  0
 35 36  2  0
 35 41  1  0
 36 37  1  0
 37 38  1  0
 38 39  2  0
 38 40  1  0
 40 41  1  0
 41 42  2  0
M  END
