
     RDKit          3D

 43 45  0  0  0  0  0  0  0  0999 V2000
    0.5330   -2.8770    2.4490 C   0  0  0  0  0  0  0  0  0  0  0  0
    1.1880   -2.1430    1.3070 C   0  0  1  0  0  0  0  0  0  0  0  0
    2.6550   -2.5210    1.3370 C   0  0  0  0  0  0  0  0  0  0  0  0
    3.3910   -2.3550    0.0630 C   0  0  0  0  0  0  0  0  0  0  0  0
    3.7890   -0.9790   -0.1750 N   0  0  0  0  0  0  0  0  0  0  0  0
    5.1270   -0.6390   -0.5190 C   0  0  0  0  0  0  0  0  0  0  0  0
    5.4210   -0.6310   -1.9870 C   0  0  0  0  0  0  0  0  0  0  0  0
    6.8790   -0.2530   -2.1610 C   0  0  0  0  0  0  0  0  0  0  0  0
    7.7130   -1.1860   -1.5090 O   0  0  0  0  0  0  0  0  0  0  0  0
    8.9560   -0.8390   -1.6720 O   0  0  0  0  0  0  0  0  0  0  0  0
    2.8980    0.1510   -0.0930 C   0  0  0  0  0  0  0  0  0  0  0  0
    3.3180    1.2270   -0.5660 O   0  0  0  0  0  0  0  0  0  0  0  0
    1.5310    0.2280    0.4780 N   0  0  0  0  0  0  0  0  0  0  0  0
    0.8510    1.2720   -0.2490 C   0  0  0  0  0  0  0  0  0  0  0  0
    0.7950    2.6120    0.4010 C   0  0  2  0  0  0  0  0  0  0  0  0
    1.9820    2.9440    1.1230 N   0  0  0  0  0  0  0  0  0  0  0  0
    2.7470    4.1030    0.8230 C   0  0  0  0  0  0  0  0  0  0  0  0
    2.3830    4.8700   -0.1020 O   0  0  0  0  0  0  0  0  0  0  0  0
    3.8990    4.3900    1.5530 O   0  0  0  0  0  0  0  0  0  0  0  0
   -0.3950    2.5870    1.3710 C   0  0  0  0  0  0  0  0  0  0  0  0
   -1.4190    3.6370    0.9230 C   0  0  0  0  0  0  0  0  0  0  0  0
   -2.6620    2.9200    0.4990 C   0  0  0  0  0  0  0  0  0  0  0  0
   -3.8280    3.6200    0.7200 O   0  0  0  0  0  0  0  0  0  0  0  0
   -4.8460    2.6940    0.9310 C   0  0  0  0  0  0  0  0  0  0  0  0
   -5.0810    1.8580   -0.3120 C   0  0  0  0  0  0  0  0  0  0  0  0
   -6.1960    0.9620   -0.0810 N   0  0  0  0  0  0  0  0  0  0  0  0
   -6.2650   -0.3560   -0.5850 C   0  0  0  0  0  0  0  0  0  0  0  0
   -7.3920   -0.8000   -0.9260 O   0  0  0  0  0  0  0  0  0  0  0  0
   -5.0690   -1.2190   -0.7210 C   0  0  0  0  0  0  0  0  0  0  0  0
   -4.0270   -1.0420    0.0470 O   0  0  0  0  0  0  0  0  0  0  0  0
   -3.0680   -1.8730   -0.1930 N   0  0  0  0  0  0  0  0  0  0  0  0
   -3.5110   -2.6620   -1.2020 C   0  0  0  0  0  0  0  0  0  0  0  0
   -2.8460   -3.6060   -1.7200 O   0  0  0  0  0  0  0  0  0  0  0  0
   -4.7790   -2.2700   -1.5570 C   0  0  0  0  0  0  0  0  0  0  0  0
   -5.6430   -2.7840   -2.5440 N   0  0  0  0  0  0  0  0  0  0  0  0
   -6.5730   -3.8310   -2.2650 C   0  0  0  0  0  0  0  0  0  0  0  0
   -6.6020   -4.2920   -1.0960 O   0  0  0  0  0  0  0  0  0  0  0  0
   -1.8230   -1.8280    0.5650 C   0  0  0  0  0  0  0  0  0  0  0  0
   -0.6470   -2.0600   -0.3110 C   0  0  0  0  0  0  0  0  0  0  0  0
   -0.8220   -1.7990   -1.5510 O   0  0  0  0  0  0  0  0  0  0  0  0
    0.5650   -2.5190    0.1120 O   0  0  0  0  0  0  0  0  0  0  0  0
    1.0940   -0.6230    1.5030 C   0  0  0  0  0  0  0  0  0  0  0  0
    0.6140   -0.3830    2.6270 O   0  0  0  0  0  0  0  0  0  0  0  0
  2  1  1  1
  2  3  1  0
  2 41  1  0
  2 42  1  0
  3  4  1  0
  4  5  1  0
  5  6  1  0
  5 11  1  0
  6  7  1  0
  7  8  1  0
  8  9  1  0
  9 10  1  0
 11 12  2  0
 11 13  1  0
 13 14  1  0
 13 42  1  0
 14 15  1  0
 15 16  1  1
 15 20  1  0
 16 17  1  0
 17 18  2  0
 17 19  1  0
 20 21  1  0
 21 22  1  0
 22 23  1  0
 23 24  1  0
 24 25  1  0
 25 26  1  0
 26 27  1  0
 27 28  2  0
 27 29  1  0
 29 30  1  0
 29 34  2  0
 30 31  1  0
 31 32  1  0
 31 38  1  0
 32 33  2  0
 32 34  1  0
 34 35  1  0
 35 36  1  0
 36 37  2  0
 38 39  1  0
 39 40  2  0
 39 41  1  0
 42 43  2  0
M  END
