
     RDKit          3D

 43 46  0  0  0  0  0  0  0  0999 V2000
   -6.4070   -3.1130   -0.9000 C   0  0  0  0  0  0  0  0  0  0  0  0
   -5.7270   -3.2090    0.3290 O   0  0  0  0  0  0  0  0  0  0  0  0
   -4.5120   -3.4990    0.5970 N   0  0  0  0  0  0  0  0  0  0  0  0
   -3.6150   -4.1240    1.1030 C   0  0  0  0  0  0  0  0  0  0  0  0
   -2.2030   -3.7420    0.8750 C   0  0  0  0  0  0  0  0  0  0  0  0
   -1.8090   -2.7260    0.1220 C   0  0  0  0  0  0  0  0  0  0  0  0
   -2.8260   -1.9260   -0.5330 C   0  0  0  0  0  0  0  0  0  0  0  0
   -2.9930   -0.6050   -0.4480 C   0  0  0  0  0  0  0  0  0  0  0  0
   -2.1840    0.2230    0.3120 O   0  0  0  0  0  0  0  0  0  0  0  0
   -2.3010    1.5330   -0.2310 C   0  0  2  0  0  0  0  0  0  0  0  0
   -1.8440    2.5450    0.7680 C   0  0  0  0  0  0  0  0  0  0  0  0
   -0.4040    2.1660    1.1220 C   0  0  0  0  0  0  0  0  0  0  0  0
    0.4970    3.3540    1.2070 C   0  0  0  0  0  0  0  0  0  0  0  0
    1.7500    3.0550    1.8750 N   0  0  0  0  0  0  0  0  0  0  0  0
    2.1180    1.8430    2.4970 C   0  0  0  0  0  0  0  0  0  0  0  0
    2.3960    1.9840    3.7630 O   0  0  0  0  0  0  0  0  0  0  0  0
    2.2140    0.6050    1.9750 O   0  0  0  0  0  0  0  0  0  0  0  0
    2.9440    0.0190    0.9590 C   0  0  1  0  0  0  0  0  0  0  0  0
    2.5350   -1.2930    0.8330 O   0  0  0  0  0  0  0  0  0  0  0  0
    1.7880   -1.6530   -0.2320 C   0  0  2  0  0  0  0  0  0  0  0  0
    2.2740   -1.1050   -1.5550 C   0  0  0  0  0  0  0  0  0  0  0  0
    2.3340    0.3760   -1.4760 C   0  0  0  0  0  0  0  0  0  0  0  0
    3.1310    0.7900   -0.2920 C   0  0  2  0  0  0  0  0  0  0  0  0
    4.5340    0.8060   -0.7220 N   0  0  0  0  0  0  0  0  0  0  0  0
    5.3500   -0.3260   -1.1100 C   0  0  0  0  0  0  0  0  0  0  0  0
    6.7580    0.1300   -0.7030 C   0  0  0  0  0  0  0  0  0  0  0  0
    6.7280    1.5500   -0.9910 N   0  0  0  0  0  0  0  0  0  0  0  0
    7.8580    2.3120   -1.3420 C   0  0  0  0  0  0  0  0  0  0  0  0
    8.2430    3.3280   -0.6150 N   0  0  0  0  0  0  0  0  0  0  0  0
    5.3680    1.9460   -0.8410 C   0  0  0  0  0  0  0  0  0  0  0  0
    5.0100    3.1700   -0.8220 O   0  0  0  0  0  0  0  0  0  0  0  0
    0.2910   -1.3470   -0.0290 C   0  0  0  0  0  0  0  0  0  0  0  0
   -0.4680   -2.5010    0.0110 O   0  0  0  0  0  0  0  0  0  0  0  0
   -3.6850    1.6240   -0.6220 N   0  0  0  0  0  0  0  0  0  0  0  0
   -4.5250    2.7790   -0.5640 C   0  0  0  0  0  0  0  0  0  0  0  0
   -4.4530    3.5080   -1.7550 O   0  0  0  0  0  0  0  0  0  0  0  0
   -5.2420    4.5400   -1.6270 O   0  0  0  0  0  0  0  0  0  0  0  0
   -3.9900    0.2960   -1.0720 C   0  0  0  0  0  0  0  0  0  0  0  0
   -4.9180   -0.0190   -1.8380 O   0  0  0  0  0  0  0  0  0  0  0  0
   -3.8400   -5.2260    1.9200 O   0  0  0  0  0  0  0  0  0  0  0  0
   -5.0780   -5.7210    2.2460 C   0  0  0  0  0  0  0  0  0  0  0  0
   -6.0970   -5.1770    1.8040 O   0  0  0  0  0  0  0  0  0  0  0  0
   -5.2140   -6.8280    3.0680 O   0  0  0  0  0  0  0  0  0  0  0  0
  1  2  1  0
  2  3  1  0
  3  4  2  3
  4  5  1  0
  4 40  1  0
  5  6  2  3
  6  7  1  0
  6 33  1  0
  7  8  2  0
  8  9  1  0
  8 38  1  0
  9 10  1  0
 10 11  1  1
 10 34  1  0
 11 12  1  0
 12 13  1  0
 13 14  1  0
 14 15  1  0
 15 16  2  0
 15 17  1  0
 18 17  1  1
 18 19  1  0
 18 23  1  0
 19 20  1  0
 20 21  1  6
 20 32  1  0
 21 22  1  0
 22 23  1  0
 23 24  1  6
 24 25  1  0
 24 30  1  0
 25 26  1  0
 26 27  1  0
 27 28  1  0
 27 30  1  0
 28 29  2  0
 30 31  2  0
 32 33  1  0
 34 35  1  0
 34 38  1  0
 35 36  1  0
 36 37  1  0
 38 39  2  0
 40 41  1  0
 41 42  2  0
 41 43  1  0
M  END
