
     RDKit          3D

 29 32  0  0  0  0  0  0  0  0999 V2000
    1.8710   -1.9070   -2.4780 C   0  0  0  0  0  0  0  0  0  0  0  0
    0.6990   -1.2920   -1.8300 C   0  0  0  0  0  0  0  0  0  0  0  0
    0.8480    0.0590   -1.4220 O   0  0  0  0  0  0  0  0  0  0  0  0
    1.8770    0.4030   -0.4710 C   0  0  0  0  0  0  0  0  0  0  0  0
    3.0220    0.4860   -1.0680 C   0  0  0  0  0  0  0  0  0  0  0  0
    4.3680    0.7690   -0.7740 C   0  0  0  0  0  0  0  0  0  0  0  0
    5.3290    0.7120   -1.7580 C   0  0  0  0  0  0  0  0  0  0  0  0
    5.1710    0.4010   -3.0610 F   0  0  0  0  0  0  0  0  0  0  0  0
    6.6360    1.0750   -1.1910 C   0  0  0  0  0  0  0  0  0  0  0  0
    6.3730    1.3580    0.1640 N   0  0  0  0  0  0  0  0  0  0  0  0
    5.0740    1.1800    0.3950 C   0  0  0  0  0  0  0  0  0  0  0  0
    1.6650    0.5910    0.9130 C   0  0  0  0  0  0  0  0  0  0  0  0
    0.4790    0.6360    1.4720 C   0  0  0  0  0  0  0  0  0  0  0  0
   -0.7730    0.5290    0.7950 C   0  0  0  0  0  0  0  0  0  0  0  0
   -1.0600    0.4060   -0.4030 O   0  0  0  0  0  0  0  0  0  0  0  0
   -1.9870    0.5680    1.5990 N   0  0  0  0  0  0  0  0  0  0  0  0
   -3.2780    0.4630    1.0350 C   0  0  0  0  0  0  0  0  0  0  0  0
   -4.3310    1.1950    1.6210 C   0  0  0  0  0  0  0  0  0  0  0  0
   -5.6090    1.0870    1.1050 C   0  0  0  0  0  0  0  0  0  0  0  0
   -5.8590    0.2820    0.0400 C   0  0  0  0  0  0  0  0  0  0  0  0
   -4.8720   -0.4440   -0.5560 C   0  0  0  0  0  0  0  0  0  0  0  0
   -3.5780   -0.3210   -0.0160 C   0  0  0  0  0  0  0  0  0  0  0  0
   -5.2860   -1.2800   -1.6810 C   0  0  0  0  0  0  0  0  0  0  0  0
   -6.4800   -0.6840   -2.3750 C   0  0  0  0  0  0  0  0  0  0  0  0
   -7.3500   -0.0560   -0.8660 S   0  0  0  0  0  0  0  0  0  0  0  0
    0.5260    0.8110    2.8850 O   0  0  0  0  0  0  0  0  0  0  0  0
    1.4690    0.1080    3.6850 C   0  0  0  0  0  0  0  0  0  0  0  0
    2.8200    0.0910    3.0530 C   0  0  0  0  0  0  0  0  0  0  0  0
    2.7630    0.7370    1.7940 O   0  0  0  0  0  0  0  0  0  0  0  0
  1  2  1  0
  2  3  1  0
  3  4  1  0
  4  5  2  3
  4 12  1  0
  5  6  1  0
  6  7  2  0
  6 11  1  0
  7  8  1  0
  7  9  1  0
  9 10  1  0
 10 11  2  0
 12 13  2  0
 12 29  1  0
 13 14  1  0
 13 26  1  0
 14 15  2  0
 14 16  1  0
 16 17  1  0
 17 18  2  0
 17 22  1  0
 18 19  1  0
 19 20  2  0
 20 21  1  0
 20 25  1  0
 21 22  2  0
 21 23  1  0
 23 24  1  0
 24 25  1  0
 26 27  1  0
 27 28  1  0
 28 29  1  0
M  END
