
     RDKit          3D

 29 32  0  0  0  0  0  0  0  0999 V2000
   -2.2240    3.2630   -0.6850 C   0  0  0  0  0  0  0  0  0  0  0  0
   -3.1110    2.4520    0.1870 C   0  0  0  0  0  0  0  0  0  0  0  0
   -4.4510    2.7090    0.1690 N   0  0  0  0  0  0  0  0  0  0  0  0
   -5.3190    2.0200    0.9270 C   0  0  0  0  0  0  0  0  0  0  0  0
   -6.6880    2.2880    0.9040 C   0  0  0  0  0  0  0  0  0  0  0  0
   -7.5690    1.5820    1.6810 C   0  0  0  0  0  0  0  0  0  0  0  0
   -7.1080    0.5760    2.5150 C   0  0  0  0  0  0  0  0  0  0  0  0
   -5.7530    0.3160    2.5330 C   0  0  0  0  0  0  0  0  0  0  0  0
   -4.8490    1.0130    1.7600 C   0  0  0  0  0  0  0  0  0  0  0  0
   -3.4860    0.7570    1.7750 C   0  0  0  0  0  0  0  0  0  0  0  0
   -3.0390   -0.1450    2.5160 O   0  0  0  0  0  0  0  0  0  0  0  0
   -2.5970    1.4640    0.9960 C   0  0  0  0  0  0  0  0  0  0  0  0
   -1.2350    1.2220    0.9980 O   0  0  0  0  0  0  0  0  0  0  0  0
   -0.6510    0.3150    0.1180 C   0  0  0  0  0  0  0  0  0  0  0  0
   -1.4200   -0.2690   -0.6750 O   0  0  0  0  0  0  0  0  0  0  0  0
    0.7670    0.0880    0.1480 N   0  0  0  0  0  0  0  0  0  0  0  0
    1.2880   -0.8490   -0.7780 C   0  0  0  0  0  0  0  0  0  0  0  0
    2.7250   -1.0870   -0.7550 C   0  0  0  0  0  0  0  0  0  0  0  0
    3.6240   -0.4920    0.0780 C   0  0  0  0  0  0  0  0  0  0  0  0
    5.0100   -0.7570    0.0620 C   0  0  0  0  0  0  0  0  0  0  0  0
    5.4970   -1.6360   -0.8070 C   0  0  0  0  0  0  0  0  0  0  0  0
    4.5960   -2.2780   -1.6930 C   0  0  0  0  0  0  0  0  0  0  0  0
    3.2480   -1.9990   -1.6540 C   0  0  0  0  0  0  0  0  0  0  0  0
    2.3690   -2.6420   -2.5360 O   0  0  0  0  0  0  0  0  0  0  0  0
    2.8950   -3.5800   -3.4620 C   0  0  0  0  0  0  0  0  0  0  0  0
    1.8770   -4.1000   -4.2360 F   0  0  0  0  0  0  0  0  0  0  0  0
    6.9730   -1.8840   -0.7870 C   0  0  0  0  0  0  0  0  0  0  0  0
    7.5260   -0.3340    0.0310 S   0  0  0  0  0  0  0  0  0  0  0  0
    5.9830   -0.0940    0.9860 C   0  0  0  0  0  0  0  0  0  0  0  0
  1  2  1  0
  2  3  1  0
  2 12  2  0
  3  4  1  0
  4  5  2  0
  4  9  1  0
  5  6  1  0
  6  7  2  0
  7  8  1  0
  8  9  2  0
  9 10  1  0
 10 11  2  0
 10 12  1  0
 12 13  1  0
 13 14  1  0
 14 15  2  0
 14 16  1  0
 16 17  1  0
 17 18  1  0
 18 19  2  0
 18 23  1  0
 19 20  1  0
 20 21  2  0
 20 29  1  0
 21 22  1  0
 21 27  1  0
 22 23  2  0
 23 24  1  0
 24 25  1  0
 25 26  1  0
 27 28  1  0
 28 29  1  0
M  END
