
     RDKit          3D

 31 35  0  0  0  0  0  0  0  0999 V2000
    7.9990   -2.2730    0.7590 O   0  0  0  0  0  0  0  0  0  0  0  0
    7.3820   -1.2880    0.4360 C   0  0  0  0  0  0  0  0  0  0  0  0
    6.2790   -1.2830   -0.5760 C   0  0  0  0  0  0  0  0  0  0  0  0
    5.1050   -0.6150    0.0570 C   0  0  0  0  0  0  0  0  0  0  0  0
    3.8090   -0.8350   -0.3520 C   0  0  0  0  0  0  0  0  0  0  0  0
    2.7270   -0.1740    0.2900 C   0  0  0  0  0  0  0  0  0  0  0  0
    1.4380   -0.4930   -0.1970 N   0  0  0  0  0  0  0  0  0  0  0  0
    0.2730    0.2720   -0.0580 C   0  0  0  0  0  0  0  0  0  0  0  0
    0.2150    1.7080    0.6670 S   0  0  0  0  0  0  0  0  0  0  0  0
   -1.0020   -0.2570   -0.6400 C   0  0  2  0  0  0  0  0  0  0  0  0
   -0.8570   -0.4540   -2.1410 C   0  0  0  0  0  0  0  0  0  0  0  0
   -1.1040    0.9320   -2.6790 C   0  0  0  0  0  0  0  0  0  0  0  0
   -1.8230    1.6760   -1.5950 C   0  0  0  0  0  0  0  0  0  0  0  0
   -2.0660    0.7060   -0.5720 N   0  0  0  0  0  0  0  0  0  0  0  0
   -3.1420    0.6830    0.3410 C   0  0  0  0  0  0  0  0  0  0  0  0
   -4.0030    1.5880    0.2900 O   0  0  0  0  0  0  0  0  0  0  0  0
   -3.2560   -0.3880    1.3440 C   0  0  0  0  0  0  0  0  0  0  0  0
   -4.4470   -0.2330    2.0610 O   0  0  0  0  0  0  0  0  0  0  0  0
   -5.6680   -0.3260    1.4350 C   0  0  0  0  0  0  0  0  0  0  0  0
   -5.7520   -0.6000    0.0900 C   0  0  0  0  0  0  0  0  0  0  0  0
   -6.9960   -0.6860   -0.5210 C   0  0  0  0  0  0  0  0  0  0  0  0
   -8.1250   -0.4990    0.2100 C   0  0  0  0  0  0  0  0  0  0  0  0
   -8.0540   -0.2240    1.5580 C   0  0  0  0  0  0  0  0  0  0  0  0
   -6.8330   -0.1360    2.1780 C   0  0  0  0  0  0  0  0  0  0  0  0
    2.9840    0.6850    1.3200 C   0  0  0  0  0  0  0  0  0  0  0  0
    4.2860    0.8970    1.7190 C   0  0  0  0  0  0  0  0  0  0  0  0
    4.9260    1.6660    2.6890 C   0  0  0  0  0  0  0  0  0  0  0  0
    6.2510    1.4520    2.5950 N   0  0  0  0  0  0  0  0  0  0  0  0
    6.5160    0.5800    1.6100 N   0  0  0  0  0  0  0  0  0  0  0  0
    5.3400    0.2400    1.0790 C   0  0  0  0  0  0  0  0  0  0  0  0
    7.7320    0.0050    1.0790 C   0  0  0  0  0  0  0  0  0  0  0  0
  1  2  2  0
  2  3  1  0
  2 31  1  0
  3  4  1  0
  4  5  1  0
  4 30  2  0
  5  6  2  0
  6  7  1  0
  6 25  1  0
  7  8  1  0
  8  9  2  0
 10  8  1  6
 10 11  1  0
 10 14  1  0
 11 12  1  0
 12 13  1  0
 13 14  1  0
 14 15  1  0
 15 16  2  0
 15 17  1  0
 17 18  1  0
 18 19  1  0
 19 20  2  0
 19 24  1  0
 20 21  1  0
 21 22  2  0
 22 23  1  0
 23 24  2  0
 25 26  2  0
 26 27  1  0
 26 30  1  0
 27 28  2  0
 28 29  1  0
 29 30  1  0
 29 31  1  0
M  END
