
     RDKit          3D

 31 35  0  0  0  0  0  0  0  0999 V2000
   -5.0760   -3.2260    1.6410 C   0  0  0  0  0  0  0  0  0  0  0  0
   -4.4830   -1.9990    1.0670 C   0  0  0  0  0  0  0  0  0  0  0  0
   -3.4690   -2.0320    0.1370 C   0  0  0  0  0  0  0  0  0  0  0  0
   -2.9280   -0.8600   -0.3870 C   0  0  0  0  0  0  0  0  0  0  0  0
   -1.8880   -0.8650   -1.3440 N   0  0  0  0  0  0  0  0  0  0  0  0
   -1.2830   -2.0430   -1.8910 C   0  0  0  0  0  0  0  0  0  0  0  0
   -0.9480   -1.6410   -3.3010 C   0  0  0  0  0  0  0  0  0  0  0  0
   -1.0240   -0.1470   -3.3570 C   0  0  0  0  0  0  0  0  0  0  0  0
   -1.2560    0.2750   -1.9300 C   0  0  2  0  0  0  0  0  0  0  0  0
    0.0480    0.6380   -1.3290 C   0  0  0  0  0  0  0  0  0  0  0  0
    0.7060    1.5560   -1.9120 O   0  0  0  0  0  0  0  0  0  0  0  0
    0.6240    0.0690   -0.1820 N   0  0  0  0  0  0  0  0  0  0  0  0
    1.8880    0.4410    0.3710 C   0  0  0  0  0  0  0  0  0  0  0  0
    3.0380    0.2320   -0.5920 C   0  0  0  0  0  0  0  0  0  0  0  0
    4.3320    0.6260    0.0110 C   0  0  0  0  0  0  0  0  0  0  0  0
    4.8570    1.8960   -0.0810 C   0  0  0  0  0  0  0  0  0  0  0  0
    6.0650    2.2010    0.5020 C   0  0  0  0  0  0  0  0  0  0  0  0
    6.7740    1.2440    1.1910 C   0  0  0  0  0  0  0  0  0  0  0  0
    6.2650   -0.0290    1.2920 C   0  0  0  0  0  0  0  0  0  0  0  0
    5.0520   -0.3200    0.7020 C   0  0  0  0  0  0  0  0  0  0  0  0
    7.1930   -0.7610    2.0340 O   0  0  0  0  0  0  0  0  0  0  0  0
    8.3610   -0.0220    2.2520 C   0  0  0  0  0  0  0  0  0  0  0  0
    7.9930    1.2840    1.8610 O   0  0  0  0  0  0  0  0  0  0  0  0
   -3.4850    0.2790    0.0980 N   0  0  0  0  0  0  0  0  0  0  0  0
   -4.4600    0.3180    0.9920 C   0  0  0  0  0  0  0  0  0  0  0  0
   -5.0210    1.5410    1.4790 N   0  0  0  0  0  0  0  0  0  0  0  0
   -5.7040    1.7360    2.6140 C   0  0  0  0  0  0  0  0  0  0  0  0
   -6.0810    3.0610    2.7290 C   0  0  0  0  0  0  0  0  0  0  0  0
   -5.6040    3.6680    1.6250 N   0  0  0  0  0  0  0  0  0  0  0  0
   -4.9670    2.7490    0.8750 C   0  0  0  0  0  0  0  0  0  0  0  0
   -4.9600   -0.8160    1.4780 N   0  0  0  0  0  0  0  0  0  0  0  0
  1  2  1  0
  2  3  2  0
  2 31  1  0
  3  4  1  0
  4  5  1  0
  4 24  2  0
  5  6  1  0
  5  9  1  0
  6  7  1  0
  7  8  1  0
  8  9  1  0
  9 10  1  1
 10 11  2  0
 10 12  1  0
 12 13  1  0
 13 14  1  0
 14 15  1  0
 15 16  2  0
 15 20  1  0
 16 17  1  0
 17 18  2  0
 18 19  1  0
 18 23  1  0
 19 20  2  0
 19 21  1  0
 21 22  1  0
 22 23  1  0
 24 25  1  0
 25 26  1  0
 25 31  2  0
 26 27  1  0
 26 30  1  0
 27 28  2  0
 28 29  1  0
 29 30  2  0
M  END
