
     RDKit          3D

 28 31  0  0  0  0  0  0  0  0999 V2000
   -7.3570   -1.6330    0.8180 C   0  0  0  0  0  0  0  0  0  0  0  0
   -6.1540   -0.8010    0.5390 C   0  0  0  0  0  0  0  0  0  0  0  0
   -4.8950   -1.3050    0.9070 C   0  0  0  0  0  0  0  0  0  0  0  0
   -3.7550   -0.5450    0.6120 C   0  0  0  0  0  0  0  0  0  0  0  0
   -3.9020    0.6510   -0.0260 C   0  0  0  0  0  0  0  0  0  0  0  0
   -5.1720    1.1090   -0.3710 C   0  0  0  0  0  0  0  0  0  0  0  0
   -6.3230    0.3970   -0.0960 C   0  0  0  0  0  0  0  0  0  0  0  0
   -7.6800    0.9090   -0.4330 C   0  0  0  0  0  0  0  0  0  0  0  0
   -2.6540    1.2270   -0.2200 O   0  0  0  0  0  0  0  0  0  0  0  0
   -1.6330    0.3490    0.1680 C   0  0  1  0  0  0  0  0  0  0  0  0
   -0.5500    1.0250    1.0010 C   0  0  0  0  0  0  0  0  0  0  0  0
    0.2770    2.3130    0.0410 S   0  0  0  0  0  0  0  0  0  0  0  0
    1.1980    1.7510   -1.3660 C   0  0  0  0  0  0  0  0  0  0  0  0
    2.5450    1.2410   -1.2230 C   0  0  0  0  0  0  0  0  0  0  0  0
    3.5290    1.7900   -2.0200 N   0  0  0  0  0  0  0  0  0  0  0  0
    4.7780    1.3170   -2.0530 C   0  0  0  0  0  0  0  0  0  0  0  0
    5.1580    0.2610   -1.3010 C   0  0  0  0  0  0  0  0  0  0  0  0
    4.1980   -0.3190   -0.4800 C   0  0  0  0  0  0  0  0  0  0  0  0
    2.8710    0.1760   -0.4410 C   0  0  0  0  0  0  0  0  0  0  0  0
    2.0010   -0.4920    0.4110 O   0  0  0  0  0  0  0  0  0  0  0  0
    1.3350   -1.6300   -0.0640 C   0  0  0  0  0  0  0  0  0  0  0  0
    0.5270   -2.1940    0.8960 F   0  0  0  0  0  0  0  0  0  0  0  0
    4.7600   -1.3870    0.2260 O   0  0  0  0  0  0  0  0  0  0  0  0
    6.1610   -1.2040    0.2190 C   0  0  2  0  0  0  0  0  0  0  0  0
    6.6500   -0.2170    1.2730 C   0  0  0  0  0  0  0  0  0  0  0  0
    6.0370    1.0750    0.9860 N   0  0  0  0  0  0  0  0  0  0  0  0
    6.4130   -0.5460   -1.1280 C   0  0  0  0  0  0  0  0  0  0  0  0
   -2.2960   -0.7520    0.8840 C   0  0  0  0  0  0  0  0  0  0  0  0
  1  2  1  0
  2  3  2  0
  2  7  1  0
  3  4  1  0
  4  5  2  0
  4 28  1  0
  5  6  1  0
  5  9  1  0
  6  7  2  0
  7  8  1  0
  9 10  1  0
 10 11  1  1
 10 28  1  0
 11 12  1  0
 12 13  1  0
 13 14  1  0
 14 15  2  0
 14 19  1  0
 15 16  1  0
 16 17  2  0
 17 18  1  0
 17 27  1  0
 18 19  2  0
 18 23  1  0
 19 20  1  0
 20 21  1  0
 21 22  1  0
 23 24  1  0
 24 25  1  1
 24 27  1  0
 25 26  1  0
M  END
