
     RDKit          3D

 31 35  0  0  0  0  0  0  0  0999 V2000
    5.4870    3.8000    1.9980 C   0  0  0  0  0  0  0  0  0  0  0  0
    5.7750    2.9310    0.9370 O   0  0  0  0  0  0  0  0  0  0  0  0
    4.8630    1.9770    0.5560 C   0  0  0  0  0  0  0  0  0  0  0  0
    3.6600    1.8670    1.2110 C   0  0  0  0  0  0  0  0  0  0  0  0
    2.7300    0.9020    0.8290 C   0  0  0  0  0  0  0  0  0  0  0  0
    3.0040    0.0460   -0.2080 C   0  0  0  0  0  0  0  0  0  0  0  0
    4.2270    0.1780   -0.8550 C   0  0  0  0  0  0  0  0  0  0  0  0
    5.1510    1.1270   -0.4850 C   0  0  0  0  0  0  0  0  0  0  0  0
    4.2630   -0.7800   -1.8440 C   0  0  0  0  0  0  0  0  0  0  0  0
    5.3570   -1.0540   -2.8160 C   0  0  0  0  0  0  0  0  0  0  0  0
    3.1000   -1.4380   -1.7670 N   0  0  0  0  0  0  0  0  0  0  0  0
    2.3340   -0.9710   -0.8080 N   0  0  0  0  0  0  0  0  0  0  0  0
    1.0370   -1.3910   -0.4070 C   0  0  0  0  0  0  0  0  0  0  0  0
   -0.0330   -0.4840   -0.2890 C   0  0  0  0  0  0  0  0  0  0  0  0
   -1.2950   -0.8690    0.0960 C   0  0  0  0  0  0  0  0  0  0  0  0
   -2.3750    0.0090    0.2360 N   0  0  0  0  0  0  0  0  0  0  0  0
   -2.3030    1.3830   -0.0610 C   0  0  0  0  0  0  0  0  0  0  0  0
   -1.2970    1.9490   -0.4710 O   0  0  0  0  0  0  0  0  0  0  0  0
   -3.5330    2.2110    0.1350 C   0  0  2  0  0  0  0  0  0  0  0  0
   -4.6710    1.7350   -0.7080 C   0  0  0  0  0  0  0  0  0  0  0  0
   -5.7870    2.7540   -0.6220 C   0  0  0  0  0  0  0  0  0  0  0  0
   -5.4900    3.8430    0.8230 S   0  0  0  0  0  0  0  0  0  0  0  0
   -3.8640    4.4420    0.7380 O   0  0  0  0  0  0  0  0  0  0  0  0
   -3.2220    3.6420   -0.2240 C   0  0  0  0  0  0  0  0  0  0  0  0
   -1.4920   -2.2080    0.3740 C   0  0  0  0  0  0  0  0  0  0  0  0
   -0.4420   -3.0900    0.2580 C   0  0  0  0  0  0  0  0  0  0  0  0
    0.7450   -2.6590   -0.1170 N   0  0  0  0  0  0  0  0  0  0  0  0
   -0.5870   -4.5470    0.5490 C   0  0  0  0  0  0  0  0  0  0  0  0
   -1.9610   -5.0790    0.3050 C   0  0  0  0  0  0  0  0  0  0  0  0
   -2.9490   -4.0480   -0.1170 C   0  0  0  0  0  0  0  0  0  0  0  0
   -2.7740   -2.8210    0.7980 C   0  0  0  0  0  0  0  0  0  0  0  0
  1  2  1  0
  2  3  1  0
  3  4  2  0
  3  8  1  0
  4  5  1  0
  5  6  2  0
  6  7  1  0
  6 12  1  0
  7  8  2  0
  7  9  1  0
  9 10  1  0
  9 11  2  0
 11 12  1  0
 12 13  1  0
 13 14  2  0
 13 27  1  0
 14 15  1  0
 15 16  1  0
 15 25  2  0
 16 17  1  0
 17 18  2  0
 19 17  1  6
 19 20  1  0
 19 24  1  0
 20 21  1  0
 21 22  1  0
 22 23  1  0
 23 24  1  0
 25 26  1  0
 25 31  1  0
 26 27  2  0
 26 28  1  0
 28 29  1  0
 29 30  1  0
 30 31  1  0
M  END
