
     RDKit          3D

 44 47  0  0  0  0  0  0  0  0999 V2000
    6.0050    1.2390    2.3110 O   0  0  0  0  0  0  0  0  0  0  0  0
    6.1940    0.0510    2.6240 C   0  0  0  0  0  0  0  0  0  0  0  0
    7.1130   -0.2670    3.6020 O   0  0  0  0  0  0  0  0  0  0  0  0
    5.4520   -0.9260    1.9580 O   0  0  0  0  0  0  0  0  0  0  0  0
    4.5240   -0.6280    0.9730 C   0  0  0  0  0  0  0  0  0  0  0  0
    4.8490   -0.5470   -0.3620 C   0  0  0  0  0  0  0  0  0  0  0  0
    3.9230   -0.2560   -1.2850 N   0  0  0  0  0  0  0  0  0  0  0  0
    2.6150   -0.0250   -0.9720 C   0  0  0  0  0  0  0  0  0  0  0  0
    1.6810    0.2710   -1.9200 O   0  0  0  0  0  0  0  0  0  0  0  0
    2.0240    0.3540   -3.2800 C   0  0  0  0  0  0  0  0  0  0  0  0
    3.0480    1.4090   -3.5730 C   0  0  0  0  0  0  0  0  0  0  0  0
    2.5890    2.6810   -3.1990 O   0  0  0  0  0  0  0  0  0  0  0  0
    2.2400   -0.0950    0.3390 C   0  0  0  0  0  0  0  0  0  0  0  0
    0.8200    0.1250    0.8170 C   0  0  1  0  0  0  0  0  0  0  0  0
    0.2770   -1.1160    1.3380 N   0  0  0  0  0  0  0  0  0  0  0  0
   -0.9430   -1.7550    1.1260 C   0  0  0  0  0  0  0  0  0  0  0  0
   -1.7710   -1.6750    2.1090 O   0  0  0  0  0  0  0  0  0  0  0  0
   -1.4520   -2.5120   -0.0260 C   0  0  2  0  0  0  0  0  0  0  0  0
   -1.1040   -3.9770    0.2290 C   0  0  0  0  0  0  0  0  0  0  0  0
   -0.9890   -4.7640   -1.0240 C   0  0  0  0  0  0  0  0  0  0  0  0
   -1.2040   -4.1350   -2.1990 O   0  0  0  0  0  0  0  0  0  0  0  0
   -0.9260   -2.9080   -2.3450 O   0  0  0  0  0  0  0  0  0  0  0  0
   -0.5640   -2.1940   -1.2200 C   0  0  0  0  0  0  0  0  0  0  0  0
   -2.8410   -2.2790   -0.4630 C   0  0  0  0  0  0  0  0  0  0  0  0
   -3.5790   -1.1050   -0.1340 N   0  0  0  0  0  0  0  0  0  0  0  0
   -4.4380   -1.3810    0.9020 C   0  0  0  0  0  0  0  0  0  0  0  0
   -4.5210   -2.5590    1.4230 O   0  0  0  0  0  0  0  0  0  0  0  0
   -5.2530   -0.4740    1.4550 N   0  0  0  0  0  0  0  0  0  0  0  0
   -5.1920    0.7450    0.9370 C   0  0  0  0  0  0  0  0  0  0  0  0
   -5.9840    1.5850    1.4880 O   0  0  0  0  0  0  0  0  0  0  0  0
   -4.3470    1.0940   -0.1140 N   0  0  0  0  0  0  0  0  0  0  0  0
   -3.5420    0.1710   -0.6500 C   0  0  0  0  0  0  0  0  0  0  0  0
   -2.7160    0.4540   -1.6610 O   0  0  0  0  0  0  0  0  0  0  0  0
   -4.5680    2.4870   -0.3960 C   0  0  0  0  0  0  0  0  0  0  0  0
   -3.7880    3.4960   -0.7310 C   0  0  0  0  0  0  0  0  0  0  0  0
   -2.3180    3.3750   -0.9100 C   0  0  0  0  0  0  0  0  0  0  0  0
   -1.8080    3.9300   -1.9620 O   0  0  0  0  0  0  0  0  0  0  0  0
   -1.5060    2.7090   -0.0160 O   0  0  0  0  0  0  0  0  0  0  0  0
   -1.1260    3.1190    1.2760 C   0  0  0  0  0  0  0  0  0  0  0  0
    0.3580    3.4180    1.2030 C   0  0  0  0  0  0  0  0  0  0  0  0
    1.1720    2.4510    1.8970 N   0  0  0  0  0  0  0  0  0  0  0  0
    1.0110    1.0790    1.9810 C   0  0  0  0  0  0  0  0  0  0  0  0
    1.0170    0.5250    3.1280 O   0  0  0  0  0  0  0  0  0  0  0  0
    3.1840   -0.3910    1.2870 C   0  0  0  0  0  0  0  0  0  0  0  0
  1  2  2  0
  2  3  1  0
  2  4  1  0
  4  5  1  0
  5  6  2  0
  5 44  1  0
  6  7  1  0
  7  8  2  0
  8  9  1  0
  8 13  1  0
  9 10  1  0
 10 11  1  0
 11 12  1  0
 14 13  1  1
 13 44  2  0
 14 15  1  0
 14 42  1  0
 15 16  1  0
 16 17  2  0
 16 18  1  0
 18 19  1  1
 18 23  1  0
 18 24  1  0
 19 20  1  0
 20 21  1  0
 21 22  1  0
 22 23  1  0
 24 25  1  0
 25 26  1  0
 25 32  1  0
 26 27  2  0
 26 28  1  0
 28 29  1  0
 29 30  2  0
 29 31  1  0
 31 32  1  0
 31 34  1  0
 32 33  2  0
 34 35  2  0
 35 36  1  0
 36 37  2  0
 36 38  1  0
 38 39  1  0
 39 40  1  0
 40 41  1  0
 41 42  1  0
 42 43  2  0
M  END
