
     RDKit          3D

 43 46  0  0  0  0  0  0  0  0999 V2000
   -4.7190    1.8980    4.3270 C   0  0  0  0  0  0  0  0  0  0  0  0
   -4.2300    1.3700    3.1120 O   0  0  0  0  0  0  0  0  0  0  0  0
   -3.7000    0.0760    3.0150 C   0  0  0  0  0  0  0  0  0  0  0  0
   -3.7090   -0.5330    4.0880 O   0  0  0  0  0  0  0  0  0  0  0  0
   -3.2150   -0.4050    1.7080 C   0  0  0  0  0  0  0  0  0  0  0  0
   -3.1270   -0.0310    0.4610 C   0  0  0  0  0  0  0  0  0  0  0  0
   -2.6840   -0.8680   -0.5210 N   0  0  0  0  0  0  0  0  0  0  0  0
   -2.2580   -2.0880   -0.4110 C   0  0  0  0  0  0  0  0  0  0  0  0
   -2.2730   -2.5220    0.8600 C   0  0  0  0  0  0  0  0  0  0  0  0
   -2.7320   -1.7970    1.9360 C   0  0  0  0  0  0  0  0  0  0  0  0
   -2.8070   -2.2150    3.2350 O   0  0  0  0  0  0  0  0  0  0  0  0
   -1.6620   -3.8480    0.9340 O   0  0  0  0  0  0  0  0  0  0  0  0
   -0.1920   -3.7450    1.0880 C   0  0  0  0  0  0  0  0  0  0  0  0
    0.5470   -3.0160    0.0520 C   0  0  1  0  0  0  0  0  0  0  0  0
    0.3940   -3.4750   -1.3470 C   0  0  0  0  0  0  0  0  0  0  0  0
    0.6880   -1.5290    0.2540 C   0  0  0  0  0  0  0  0  0  0  0  0
    0.2570   -1.1960    1.4250 O   0  0  0  0  0  0  0  0  0  0  0  0
    1.1670   -0.6060   -0.5610 O   0  0  0  0  0  0  0  0  0  0  0  0
    2.1170    0.2170   -1.0680 C   0  0  0  0  0  0  0  0  0  0  0  0
    1.9870    1.5400   -1.3080 C   0  0  0  0  0  0  0  0  0  0  0  0
    3.1570    2.3240   -1.8830 C   0  0  0  0  0  0  0  0  0  0  0  0
    4.3500    1.7460   -2.1420 N   0  0  0  0  0  0  0  0  0  0  0  0
    4.5300    0.3840   -1.9250 C   0  0  0  0  0  0  0  0  0  0  0  0
    5.6420   -0.1730   -2.1930 O   0  0  0  0  0  0  0  0  0  0  0  0
    3.4270   -0.3370   -1.4010 N   0  0  0  0  0  0  0  0  0  0  0  0
    3.7720   -1.7740   -1.2330 C   0  0  0  0  0  0  0  0  0  0  0  0
    4.3420   -2.0090    0.1380 C   0  0  0  0  0  0  0  0  0  0  0  0
    4.7410   -3.4460    0.3790 C   0  0  0  0  0  0  0  0  0  0  0  0
    5.2500   -3.5220    1.6890 O   0  0  0  0  0  0  0  0  0  0  0  0
    5.6180   -4.7790    1.9500 O   0  0  0  0  0  0  0  0  0  0  0  0
    0.8350    2.4560   -1.1210 C   0  0  0  0  0  0  0  0  0  0  0  0
    1.2530    3.7320   -1.2340 O   0  0  0  0  0  0  0  0  0  0  0  0
   -0.5940    2.3070   -0.8580 C   0  0  0  0  0  0  0  0  0  0  0  0
   -1.2140    1.4560   -0.0900 C   0  0  0  0  0  0  0  0  0  0  0  0
   -2.6540    1.3230   -0.1650 N   0  0  0  0  0  0  0  0  0  0  0  0
   -3.3830    2.1160   -0.9890 N   0  0  0  0  0  0  0  0  0  0  0  0
   -2.8710    3.0500   -1.7730 C   0  0  0  0  0  0  0  0  0  0  0  0
   -3.7320    3.8990   -2.5880 C   0  0  0  0  0  0  0  0  0  0  0  0
   -4.1930    4.9940   -1.8640 O   0  0  0  0  0  0  0  0  0  0  0  0
   -3.4760    5.9860   -1.2750 C   0  0  0  0  0  0  0  0  0  0  0  0
   -2.2280    5.9830   -1.3520 O   0  0  0  0  0  0  0  0  0  0  0  0
   -4.1230    7.0120   -0.5840 O   0  0  0  0  0  0  0  0  0  0  0  0
   -1.4670    3.1220   -1.7010 N   0  0  0  0  0  0  0  0  0  0  0  0
  1  2  1  0
  2  3  1  0
  3  4  2  0
  3  5  1  0
  5  6  2  0
  5 10  1  0
  6  7  1  0
  6 35  1  0
  7  8  2  0
  8  9  1  0
  9 10  2  0
  9 12  1  0
 10 11  1  0
 12 13  1  0
 13 14  1  0
 14 15  1  6
 14 16  1  0
 16 17  2  0
 16 18  1  0
 18 19  1  0
 19 20  2  0
 19 25  1  0
 20 21  1  0
 20 31  1  0
 21 22  1  0
 22 23  1  0
 23 24  2  0
 23 25  1  0
 25 26  1  0
 26 27  1  0
 27 28  1  0
 28 29  1  0
 29 30  1  0
 31 32  2  0
 31 33  1  0
 33 34  2  0
 33 43  1  0
 34 35  1  0
 35 36  1  0
 36 37  2  0
 37 38  1  0
 37 43  1  0
 38 39  1  0
 39 40  1  0
 40 41  2  0
 40 42  1  0
M  END
