
     RDKit          3D

 44 47  0  0  0  0  0  0  0  0999 V2000
   -4.4160    7.4640   -0.1510 C   0  0  0  0  0  0  0  0  0  0  0  0
   -5.7920    6.2600   -0.4700 P   0  0  0  0  0  0  0  0  0  0  0  0
   -6.9190    6.9470   -1.5830 O   0  0  0  0  0  0  0  0  0  0  0  0
   -5.1490    4.6160   -1.0440 C   0  0  1  0  0  0  0  0  0  0  0  0
   -5.0800    4.6460   -2.4240 O   0  0  0  0  0  0  0  0  0  0  0  0
   -3.8100    4.3040   -0.4090 C   0  0  0  0  0  0  0  0  0  0  0  0
   -3.2850    3.0380   -0.8100 N   0  0  0  0  0  0  0  0  0  0  0  0
   -2.4170    2.8480   -1.9670 C   0  0  0  0  0  0  0  0  0  0  0  0
   -2.1990    1.3540   -2.0690 C   0  0  0  0  0  0  0  0  0  0  0  0
   -2.2150    0.9440   -0.6060 C   0  0  1  0  0  0  0  0  0  0  0  0
   -2.5870   -0.4590   -0.3510 C   0  0  0  0  0  0  0  0  0  0  0  0
   -1.7640   -1.5270   -0.9620 C   0  0  0  0  0  0  0  0  0  0  0  0
   -2.2730   -2.8540   -0.6220 N   0  0  0  0  0  0  0  0  0  0  0  0
   -2.3780   -3.3510    0.6920 C   0  0  0  0  0  0  0  0  0  0  0  0
   -2.0250   -2.6510    1.6580 O   0  0  0  0  0  0  0  0  0  0  0  0
   -2.9090   -4.7140    0.9650 C   0  0  1  0  0  0  0  0  0  0  0  0
   -2.0270   -5.7370    0.2840 C   0  0  0  0  0  0  0  0  0  0  0  0
   -2.8940   -5.0080    2.4370 C   0  0  0  0  0  0  0  0  0  0  0  0
   -4.3530   -4.8350    0.5030 C   0  0  0  0  0  0  0  0  0  0  0  0
   -1.1580    1.5360    0.1940 C   0  0  0  0  0  0  0  0  0  0  0  0
   -1.4500    2.0530    1.3350 O   0  0  0  0  0  0  0  0  0  0  0  0
    0.2050    1.6280   -0.1220 O   0  0  0  0  0  0  0  0  0  0  0  0
    1.0720    2.2720    0.7990 C   0  0  0  0  0  0  0  0  0  0  0  0
    0.6710    3.6010    1.0510 C   0  0  0  0  0  0  0  0  0  0  0  0
    1.4160    4.3520    1.9260 C   0  0  0  0  0  0  0  0  0  0  0  0
    2.5220    3.7810    2.5210 C   0  0  0  0  0  0  0  0  0  0  0  0
    2.8960    2.5010    2.2690 C   0  0  0  0  0  0  0  0  0  0  0  0
    2.1550    1.6970    1.3740 C   0  0  0  0  0  0  0  0  0  0  0  0
    2.5530    0.4370    1.1440 O   0  0  0  0  0  0  0  0  0  0  0  0
    2.1400   -0.6030    0.3820 C   0  0  2  0  0  0  0  0  0  0  0  0
    1.8250   -1.7870    1.2790 C   0  0  0  0  0  0  0  0  0  0  0  0
    2.9370   -2.7280    1.5190 C   0  0  0  0  0  0  0  0  0  0  0  0
    4.2640   -2.2050    1.1650 C   0  0  0  0  0  0  0  0  0  0  0  0
    4.4560   -1.4010    0.1330 C   0  0  0  0  0  0  0  0  0  0  0  0
    5.7200   -0.8770   -0.2420 N   0  0  0  0  0  0  0  0  0  0  0  0
    6.7620   -1.7290   -0.6230 C   0  0  0  0  0  0  0  0  0  0  0  0
    6.5710   -3.0890   -0.6490 C   0  0  0  0  0  0  0  0  0  0  0  0
    7.6140   -3.9200   -1.0280 C   0  0  0  0  0  0  0  0  0  0  0  0
    8.8390   -3.4200   -1.3800 C   0  0  0  0  0  0  0  0  0  0  0  0
    9.0440   -2.0440   -1.3580 C   0  0  0  0  0  0  0  0  0  0  0  0
    7.9950   -1.2310   -0.9780 C   0  0  0  0  0  0  0  0  0  0  0  0
    3.2090   -1.0470   -0.6370 C   0  0  0  0  0  0  0  0  0  0  0  0
   -3.4710    1.7640   -0.2150 C   0  0  0  0  0  0  0  0  0  0  0  0
   -4.4310    1.4020    0.4640 O   0  0  0  0  0  0  0  0  0  0  0  0
  1  2  1  0
  2  3  1  0
  2  4  1  0
  4  5  1  6
  4  6  1  0
  6  7  1  0
  7  8  1  0
  7 43  1  0
  8  9  1  0
  9 10  1  0
 10 11  1  6
 10 20  1  0
 10 43  1  0
 11 12  1  0
 12 13  1  0
 13 14  1  0
 14 15  2  0
 14 16  1  0
 16 17  1  6
 16 18  1  0
 16 19  1  0
 20 21  2  0
 20 22  1  0
 22 23  1  0
 23 24  2  0
 23 28  1  0
 24 25  1  0
 25 26  2  0
 26 27  1  0
 27 28  2  0
 28 29  1  0
 30 29  1  1
 30 31  1  0
 30 42  1  0
 31 32  1  0
 32 33  1  0
 33 34  2  0
 34 35  1  0
 34 42  1  0
 35 36  1  0
 36 37  2  0
 36 41  1  0
 37 38  1  0
 38 39  2  0
 39 40  1  0
 40 41  2  0
 43 44  2  0
M  END
