
     RDKit          3D

 43 46  0  0  0  0  0  0  0  0999 V2000
    3.9790   -1.4980   -1.3730 C   0  0  0  0  0  0  0  0  0  0  0  0
    2.8590   -0.7990   -0.9280 O   0  0  0  0  0  0  0  0  0  0  0  0
    1.5730   -0.8580   -1.3480 C   0  0  0  0  0  0  0  0  0  0  0  0
    0.5670   -0.1600   -0.9840 C   0  0  0  0  0  0  0  0  0  0  0  0
   -0.6810   -0.4780   -1.7040 N   0  0  0  0  0  0  0  0  0  0  0  0
   -0.3430    1.0200   -2.7530 C   0  0  0  0  0  0  0  0  0  0  0  0
    0.7250    0.4460   -3.5460 C   0  0  0  0  0  0  0  0  0  0  0  0
    1.2000    1.3220   -4.5770 O   0  0  0  0  0  0  0  0  0  0  0  0
    2.1930    0.6440   -5.2030 O   0  0  0  0  0  0  0  0  0  0  0  0
    0.3500    0.7450    0.1160 C   0  0  1  0  0  0  0  0  0  0  0  0
   -1.0650    1.1240    0.2550 N   0  0  0  0  0  0  0  0  0  0  0  0
   -2.3410    0.5940    0.0500 C   0  0  0  0  0  0  0  0  0  0  0  0
   -2.8190    1.4800   -0.9490 O   0  0  0  0  0  0  0  0  0  0  0  0
   -3.3350   -0.3880    0.3970 C   0  0  0  0  0  0  0  0  0  0  0  0
   -4.4750   -0.0180    0.9940 O   0  0  0  0  0  0  0  0  0  0  0  0
   -3.5040   -1.8550    0.2860 N   0  0  0  0  0  0  0  0  0  0  0  0
   -4.9680   -2.2700    0.1060 C   0  0  0  0  0  0  0  0  0  0  0  0
   -2.3410   -2.7420    0.4070 C   0  0  0  0  0  0  0  0  0  0  0  0
   -1.7200   -3.1310    1.6030 C   0  0  0  0  0  0  0  0  0  0  0  0
   -0.4630   -3.6560    1.7720 C   0  0  0  0  0  0  0  0  0  0  0  0
    0.3600   -3.8460    0.6550 C   0  0  0  0  0  0  0  0  0  0  0  0
   -0.2750   -3.4850   -0.5130 C   0  0  0  0  0  0  0  0  0  0  0  0
   -1.5490   -2.9650   -0.6800 C   0  0  0  0  0  0  0  0  0  0  0  0
    1.8470   -4.0100    0.8200 N   0  0  0  0  0  0  0  0  0  0  0  0
    2.4430   -2.9780    1.7010 C   0  0  0  0  0  0  0  0  0  0  0  0
    3.3910   -3.5080    2.4840 O   0  0  0  0  0  0  0  0  0  0  0  0
    2.1730   -1.5940    1.8250 N   0  0  0  0  0  0  0  0  0  0  0  0
    0.8390   -1.0630    1.6160 C   0  0  0  0  0  0  0  0  0  0  0  0
    1.0390    0.4440    1.4290 C   0  0  2  0  0  0  0  0  0  0  0  0
    0.5790    1.1580    2.6490 C   0  0  0  0  0  0  0  0  0  0  0  0
    0.3430    2.5910    2.6250 C   0  0  0  0  0  0  0  0  0  0  0  0
    0.7830    3.3030    3.5370 O   0  0  0  0  0  0  0  0  0  0  0  0
   -0.3830    3.2840    1.5960 N   0  0  0  0  0  0  0  0  0  0  0  0
   -0.1640    4.6840    1.4460 C   0  0  0  0  0  0  0  0  0  0  0  0
    0.4280    5.2270    2.4440 O   0  0  0  0  0  0  0  0  0  0  0  0
   -0.5500    5.4400    0.2600 C   0  0  0  0  0  0  0  0  0  0  0  0
   -0.3210    6.8180    0.3750 O   0  0  0  0  0  0  0  0  0  0  0  0
   -0.6200    7.3620   -0.8520 O   0  0  0  0  0  0  0  0  0  0  0  0
   -1.2020    2.5810    0.6730 C   0  0  0  0  0  0  0  0  0  0  0  0
   -2.1330    3.2230    0.1500 O   0  0  0  0  0  0  0  0  0  0  0  0
    2.4330    0.6180    1.3960 O   0  0  0  0  0  0  0  0  0  0  0  0
    2.9460   -0.4380    2.1880 C   0  0  0  0  0  0  0  0  0  0  0  0
    3.8690   -0.4340    3.0390 O   0  0  0  0  0  0  0  0  0  0  0  0
  1  2  1  0
  2  3  1  0
  3  4  2  3
  4  5  1  0
 10  4  1  6
  5  6  1  0
  6  7  1  0
  7  8  1  0
  8  9  1  0
 10 11  1  0
 10 29  1  0
 11 12  1  0
 11 39  1  0
 12 13  2  0
 12 14  1  0
 14 15  2  0
 14 16  1  0
 16 17  1  0
 16 18  1  0
 18 19  2  0
 18 23  1  0
 19 20  1  0
 20 21  2  0
 21 22  1  0
 21 24  1  0
 22 23  2  0
 24 25  1  0
 25 26  2  0
 25 27  1  0
 27 28  1  0
 27 42  1  0
 28 29  1  0
 29 30  1  1
 29 41  1  0
 30 31  1  0
 31 32  2  0
 31 33  1  0
 33 34  1  0
 33 39  1  0
 34 35  2  0
 34 36  1  0
 36 37  1  0
 37 38  1  0
 39 40  2  0
 41 42  1  0
 42 43  2  0
M  END
