
     RDKit          3D

 43 45  0  0  0  0  0  0  0  0999 V2000
   -6.3200    4.2260    1.4590 C   0  0  0  0  0  0  0  0  0  0  0  0
   -5.1460    3.3790    0.9140 C   0  0  2  0  0  0  0  0  0  0  0  0
   -5.6550    2.1100    0.7280 O   0  0  0  0  0  0  0  0  0  0  0  0
   -5.2150    1.1350   -0.1270 C   0  0  0  0  0  0  0  0  0  0  0  0
   -5.5170   -0.0480    0.1220 O   0  0  0  0  0  0  0  0  0  0  0  0
   -4.4110    1.4920   -1.2970 C   0  0  2  0  0  0  0  0  0  0  0  0
   -5.3320    1.8860   -2.3300 O   0  0  0  0  0  0  0  0  0  0  0  0
   -5.9320    0.8730   -3.0410 C   0  0  0  0  0  0  0  0  0  0  0  0
   -6.9970    1.1330   -3.6440 O   0  0  0  0  0  0  0  0  0  0  0  0
   -5.3750   -0.4800   -3.1170 C   0  0  0  0  0  0  0  0  0  0  0  0
   -3.9960   -0.6190   -2.6470 C   0  0  0  0  0  0  0  0  0  0  0  0
   -3.4650    0.5030   -1.8260 C   0  0  2  0  0  0  0  0  0  0  0  0
   -2.4300    0.0720   -0.9590 O   0  0  0  0  0  0  0  0  0  0  0  0
   -2.3850   -0.2980    0.4000 C   0  0  0  0  0  0  0  0  0  0  0  0
   -1.9710    0.7210    1.1810 C   0  0  0  0  0  0  0  0  0  0  0  0
   -1.6400    1.9740    0.5750 C   0  0  0  0  0  0  0  0  0  0  0  0
   -1.9500    3.2530    0.7170 C   0  0  0  0  0  0  0  0  0  0  0  0
   -2.8480    3.8040    1.6660 O   0  0  0  0  0  0  0  0  0  0  0  0
   -4.0810    3.3280    1.9800 C   0  0  0  0  0  0  0  0  0  0  0  0
   -4.4650    2.8420    3.0690 O   0  0  0  0  0  0  0  0  0  0  0  0
   -0.6630    1.8890   -0.5740 N   0  0  0  0  0  0  0  0  0  0  0  0
    0.5030    1.0950   -0.5890 C   0  0  0  0  0  0  0  0  0  0  0  0
    0.6230    0.2600   -1.5770 O   0  0  0  0  0  0  0  0  0  0  0  0
    1.5430    1.1310    0.3670 N   0  0  0  0  0  0  0  0  0  0  0  0
    2.5780    2.1490    0.4840 C   0  0  0  0  0  0  0  0  0  0  0  0
    3.9130    1.5990    0.0140 C   0  0  0  0  0  0  0  0  0  0  0  0
    3.7690    0.1700   -0.0900 O   0  0  0  0  0  0  0  0  0  0  0  0
    4.7790   -0.6910    0.0180 N   0  0  0  0  0  0  0  0  0  0  0  0
    4.8800   -1.9330    0.1350 C   0  0  0  0  0  0  0  0  0  0  0  0
    6.2250   -2.4870    0.2250 N   0  0  0  0  0  0  0  0  0  0  0  0
    7.3220   -1.6250    0.5450 C   0  0  0  0  0  0  0  0  0  0  0  0
    8.6540   -2.3200    0.6350 C   0  0  0  0  0  0  0  0  0  0  0  0
    9.6690   -1.4000    0.9560 O   0  0  0  0  0  0  0  0  0  0  0  0
   10.8470   -1.9260    1.0610 O   0  0  0  0  0  0  0  0  0  0  0  0
    3.7480   -2.9310    0.2040 C   0  0  0  0  0  0  0  0  0  0  0  0
    2.4750   -2.2340    0.5210 C   0  0  0  0  0  0  0  0  0  0  0  0
    1.2290   -3.0620    0.7130 C   0  0  0  0  0  0  0  0  0  0  0  0
    0.3390   -2.4280    1.6580 N   0  0  0  0  0  0  0  0  0  0  0  0
   -0.9750   -2.6980    2.0540 C   0  0  0  0  0  0  0  0  0  0  0  0
   -1.1450   -3.1390    3.3020 O   0  0  0  0  0  0  0  0  0  0  0  0
   -2.2390   -2.5900    1.3540 C   0  0  0  0  0  0  0  0  0  0  0  0
   -2.9980   -3.8330    1.4330 O   0  0  0  0  0  0  0  0  0  0  0  0
   -2.7500   -1.6210    0.7200 N   0  0  0  0  0  0  0  0  0  0  0  0
  2  1  1  1
  2  3  1  0
  2 19  1  0
  3  4  1  0
  4  5  2  0
  4  6  1  0
  6  7  1  6
  6 12  1  0
  7  8  1  0
  8  9  2  0
  8 10  1  0
 10 11  1  0
 12 11  1  1
 12 13  1  0
 13 14  1  0
 14 15  2  0
 14 43  1  0
 15 16  1  0
 16 17  2  0
 16 21  1  0
 17 18  1  0
 18 19  1  0
 19 20  2  0
 21 22  1  0
 22 23  2  0
 22 24  1  0
 24 25  1  0
 25 26  1  0
 26 27  1  0
 27 28  1  0
 28 29  2  0
 29 30  1  0
 29 35  1  0
 30 31  1  0
 31 32  1  0
 32 33  1  0
 33 34  1  0
 35 36  1  0
 36 37  1  0
 37 38  1  0
 38 39  1  0
 39 40  2  0
 39 41  1  0
 41 42  1  0
 41 43  2  0
M  END
