
     RDKit          3D

 44 47  0  0  0  0  0  0  0  0999 V2000
    0.2940    6.4360   -1.4380 N   0  0  0  0  0  0  0  0  0  0  0  0
   -0.1160    5.2020   -1.2370 C   0  0  0  0  0  0  0  0  0  0  0  0
    0.1640    4.5320   -0.0150 N   0  0  0  0  0  0  0  0  0  0  0  0
   -0.8990    4.0820    0.8140 C   0  0  0  0  0  0  0  0  0  0  0  0
   -1.9180    3.1890    0.2670 C   0  0  1  0  0  0  0  0  0  0  0  0
   -3.0250    3.7000   -0.3460 O   0  0  0  0  0  0  0  0  0  0  0  0
   -3.4110    3.1610   -1.5400 C   0  0  0  0  0  0  0  0  0  0  0  0
   -3.4400    1.6480   -1.5790 C   0  0  0  0  0  0  0  0  0  0  0  0
   -4.2850    0.9600   -2.1360 O   0  0  0  0  0  0  0  0  0  0  0  0
   -2.2780    1.1050   -0.8340 N   0  0  0  0  0  0  0  0  0  0  0  0
   -1.3300    2.0870   -0.6590 C   0  0  0  0  0  0  0  0  0  0  0  0
   -0.1800    2.3960   -0.9860 O   0  0  0  0  0  0  0  0  0  0  0  0
   -2.4820   -0.2730   -0.4400 C   0  0  0  0  0  0  0  0  0  0  0  0
   -3.7910   -0.6440    0.0590 C   0  0  0  0  0  0  0  0  0  0  0  0
   -4.3200   -1.9210    0.4640 C   0  0  0  0  0  0  0  0  0  0  0  0
   -5.7780   -1.8240    0.8150 N   0  0  0  0  0  0  0  0  0  0  0  0
   -4.6580    0.3460    0.1540 N   0  0  0  0  0  0  0  0  0  0  0  0
   -5.9160    0.2230    0.5890 O   0  0  0  0  0  0  0  0  0  0  0  0
   -6.9740    0.3540   -0.2340 O   0  0  0  0  0  0  0  0  0  0  0  0
   -1.5110   -1.1660   -0.4830 C   0  0  0  0  0  0  0  0  0  0  0  0
   -1.5260   -2.5590   -0.1380 C   0  0  0  0  0  0  0  0  0  0  0  0
   -0.4350   -3.3310   -0.2190 C   0  0  0  0  0  0  0  0  0  0  0  0
   -0.5770   -4.7650    0.1640 C   0  0  0  0  0  0  0  0  0  0  0  0
   -1.8850   -5.0670    0.5600 O   0  0  0  0  0  0  0  0  0  0  0  0
   -0.1310   -0.6660   -0.9800 C   0  0  0  0  0  0  0  0  0  0  0  0
    0.6150   -0.2080    0.0750 O   0  0  0  0  0  0  0  0  0  0  0  0
    1.5820   -0.7210    0.8620 C   0  0  0  0  0  0  0  0  0  0  0  0
    1.2770   -1.1880    2.0260 O   0  0  0  0  0  0  0  0  0  0  0  0
    3.0180   -0.8320    0.5710 C   0  0  0  0  0  0  0  0  0  0  0  0
    3.7220    0.1280   -0.0160 C   0  0  0  0  0  0  0  0  0  0  0  0
    5.0770   -0.0610   -0.2540 O   0  0  0  0  0  0  0  0  0  0  0  0
    5.8000   -1.1910    0.0720 C   0  0  0  0  0  0  0  0  0  0  0  0
    7.0570   -1.5720   -0.0590 C   0  0  0  0  0  0  0  0  0  0  0  0
    7.3040   -2.9210    0.4760 C   0  0  0  0  0  0  0  0  0  0  0  0
    5.9560   -3.3530    0.9860 C   0  0  0  0  0  0  0  0  0  0  0  0
    5.1080   -2.2490    0.7010 N   0  0  0  0  0  0  0  0  0  0  0  0
    3.6980   -2.0640    0.9530 C   0  0  0  0  0  0  0  0  0  0  0  0
    3.0440   -2.9900    1.5170 O   0  0  0  0  0  0  0  0  0  0  0  0
    3.1320    1.4280   -0.4440 C   0  0  0  0  0  0  0  0  0  0  0  0
    3.5150    1.7370   -1.6400 O   0  0  0  0  0  0  0  0  0  0  0  0
    2.3310    2.0910    0.3800 O   0  0  0  0  0  0  0  0  0  0  0  0
    2.1010    3.2520    0.9140 O   0  0  0  0  0  0  0  0  0  0  0  0
    1.5300    4.3600    0.3490 C   0  0  0  0  0  0  0  0  0  0  0  0
    2.3370    5.3640    0.1270 O   0  0  0  0  0  0  0  0  0  0  0  0
  1  2  2  0
  2  3  1  0
  3  4  1  0
  3 43  1  0
  5  4  1  6
  5  6  1  0
  5 11  1  0
  6  7  1  0
  7  8  1  0
  8  9  2  0
  8 10  1  0
 10 11  1  0
 10 13  1  0
 11 12  2  0
 13 14  1  0
 13 20  2  0
 14 15  1  0
 14 17  2  3
 15 16  1  0
 17 18  1  0
 18 19  1  0
 20 21  1  0
 20 25  1  0
 21 22  2  3
 22 23  1  0
 23 24  1  0
 25 26  1  0
 26 27  1  0
 27 28  2  0
 27 29  1  0
 29 30  2  0
 29 37  1  0
 30 31  1  0
 30 39  1  0
 31 32  1  0
 32 33  2  0
 32 36  1  0
 33 34  1  0
 34 35  1  0
 35 36  1  0
 36 37  1  0
 37 38  2  0
 39 40  2  0
 39 41  1  0
 41 42  1  0
 42 43  1  0
 43 44  2  0
M  END
