
     RDKit          3D

 44 48  0  0  0  0  0  0  0  0999 V2000
   -4.6170   -6.2310   -2.5230 C   0  0  0  0  0  0  0  0  0  0  0  0
   -3.3740   -5.4290   -2.2870 C   0  0  0  0  0  0  0  0  0  0  0  0
   -3.6630   -4.1210   -1.8330 O   0  0  0  0  0  0  0  0  0  0  0  0
   -2.6150   -3.2370   -1.5630 C   0  0  0  0  0  0  0  0  0  0  0  0
   -2.8910   -2.1240   -0.9310 C   0  0  0  0  0  0  0  0  0  0  0  0
   -1.9390   -1.0790   -0.5550 C   0  0  0  0  0  0  0  0  0  0  0  0
   -2.2540   -0.1100    0.2740 C   0  0  0  0  0  0  0  0  0  0  0  0
   -1.6260    1.0220    0.7350 C   0  0  0  0  0  0  0  0  0  0  0  0
   -0.5230    1.6370    0.0900 O   0  0  0  0  0  0  0  0  0  0  0  0
    0.0080    2.7960    0.6660 C   0  0  0  0  0  0  0  0  0  0  0  0
   -1.0000    3.8760    0.7040 C   0  0  0  0  0  0  0  0  0  0  0  0
   -0.8070    4.9760    1.5240 C   0  0  0  0  0  0  0  0  0  0  0  0
   -1.7600    5.9740    1.5320 C   0  0  0  0  0  0  0  0  0  0  0  0
   -2.8950    5.9090    0.7480 C   0  0  0  0  0  0  0  0  0  0  0  0
   -3.0610    4.8030   -0.0580 C   0  0  0  0  0  0  0  0  0  0  0  0
   -2.1130    3.7870   -0.0790 C   0  0  0  0  0  0  0  0  0  0  0  0
   -2.2050    1.4820    1.8510 C   0  0  0  0  0  0  0  0  0  0  0  0
   -3.2090    0.6790    2.1400 N   0  0  0  0  0  0  0  0  0  0  0  0
   -3.3130   -0.3460    1.2160 C   0  0  0  0  0  0  0  0  0  0  0  0
   -4.0650   -1.3980    1.5740 C   0  0  0  0  0  0  0  0  0  0  0  0
   -4.0490   -2.6600    1.1510 O   0  0  0  0  0  0  0  0  0  0  0  0
   -5.0310   -3.6140    1.2300 C   0  0  0  0  0  0  0  0  0  0  0  0
   -5.9740   -3.2800    2.3650 C   0  0  0  0  0  0  0  0  0  0  0  0
   -6.2450   -1.9150    2.3850 O   0  0  0  0  0  0  0  0  0  0  0  0
   -5.1430   -1.1470    2.6430 C   0  0  1  0  0  0  0  0  0  0  0  0
   -4.3570   -1.4320    4.2680 P   0  0  0  0  0  0  0  0  0  0  0  0
   -3.2570   -2.4970    4.4670 O   0  0  0  0  0  0  0  0  0  0  0  0
   -0.5780   -1.4330   -0.9860 C   0  0  0  0  0  0  0  0  0  0  0  0
    0.5310   -0.7020   -0.7020 C   0  0  0  0  0  0  0  0  0  0  0  0
    1.8570   -1.0240   -1.0330 C   0  0  0  0  0  0  0  0  0  0  0  0
    2.8970   -0.1460   -0.6350 N   0  0  0  0  0  0  0  0  0  0  0  0
    3.7770    0.4940   -1.5770 C   0  0  2  0  0  0  0  0  0  0  0  0
    4.5060   -0.4220   -2.4970 C   0  0  0  0  0  0  0  0  0  0  0  0
    4.6820    1.4810   -0.8550 C   0  0  0  0  0  0  0  0  0  0  0  0
    5.6380    2.2130   -1.7410 C   0  0  0  0  0  0  0  0  0  0  0  0
    6.3940    3.1190   -0.9130 O   0  0  0  0  0  0  0  0  0  0  0  0
    7.2170    2.7280    0.1020 C   0  0  0  0  0  0  0  0  0  0  0  0
    7.3760    1.5210    0.3860 O   0  0  0  0  0  0  0  0  0  0  0  0
    7.9570    3.7550    0.9070 C   0  0  0  0  0  0  0  0  0  0  0  0
    8.8160    3.0690    1.9660 C   0  0  0  0  0  0  0  0  0  0  0  0
    2.0630   -2.1980   -1.7060 C   0  0  0  0  0  0  0  0  0  0  0  0
    1.0060   -2.9960   -2.0240 C   0  0  0  0  0  0  0  0  0  0  0  0
   -0.2910   -2.6290   -1.6710 C   0  0  0  0  0  0  0  0  0  0  0  0
   -1.3110   -3.5590   -1.9730 N   0  0  0  0  0  0  0  0  0  0  0  0
  1  2  1  0
  2  3  1  0
  3  4  1  0
  4  5  2  0
  4 44  1  0
  5  6  1  0
  6  7  2  3
  6 28  1  0
  7  8  1  0
  7 19  1  0
  8  9  1  0
  8 17  2  0
  9 10  1  0
 10 11  1  0
 11 12  2  0
 11 16  1  0
 12 13  1  0
 13 14  2  0
 14 15  1  0
 15 16  2  0
 17 18  1  0
 18 19  1  0
 19 20  2  3
 20 21  1  0
 20 25  1  0
 21 22  1  0
 22 23  1  0
 23 24  1  0
 24 25  1  0
 25 26  1  1
 26 27  2  0
 28 29  2  0
 28 43  1  0
 29 30  1  0
 30 31  1  0
 30 41  2  0
 31 32  1  0
 32 33  1  1
 32 34  1  0
 34 35  1  0
 35 36  1  0
 36 37  1  0
 37 38  2  0
 37 39  1  0
 39 40  1  0
 41 42  1  0
 42 43  2  0
 43 44  1  0
M  END
