
     RDKit          3D

 28 30  0  0  0  0  0  0  0  0999 V2000
    4.3200   -1.8110    0.8150 C   0  0  0  0  0  0  0  0  0  0  0  0
    3.0850   -1.4870   -0.0090 C   0  0  0  0  0  0  0  0  0  0  0  0
    2.4620   -0.3140    0.4910 N   0  0  0  0  0  0  0  0  0  0  0  0
    3.1680    0.5080    1.2250 O   0  0  0  0  0  0  0  0  0  0  0  0
    1.4060    0.2360   -0.3080 C   0  0  1  0  0  0  0  0  0  0  0  0
    2.0800    0.6130   -1.6130 C   0  0  0  0  0  0  0  0  0  0  0  0
    1.6360    0.3030   -2.7570 N   0  0  0  0  0  0  0  0  0  0  0  0
    3.2430    1.3360   -1.5680 F   0  0  0  0  0  0  0  0  0  0  0  0
    0.3730   -0.7510   -0.5500 N   0  0  0  0  0  0  0  0  0  0  0  0
    0.3080   -1.5210    0.5870 F   0  0  0  0  0  0  0  0  0  0  0  0
   -0.8920   -0.0050   -0.5360 C   0  0  2  0  0  0  0  0  0  0  0  0
   -1.0670    0.9270   -2.1010 S   0  0  0  0  0  0  0  0  0  0  0  0
   -2.0580    2.3670   -1.6490 C   0  0  0  0  0  0  0  0  0  0  0  0
   -2.3600    3.2410   -2.4790 O   0  0  0  0  0  0  0  0  0  0  0  0
   -2.4270    2.3760   -0.3030 O   0  0  0  0  0  0  0  0  0  0  0  0
   -1.5510    2.0890    0.7300 C   0  0  1  0  0  0  0  0  0  0  0  0
   -2.3380    2.0130    1.9070 O   0  0  0  0  0  0  0  0  0  0  0  0
   -0.6850    0.9140    0.6190 C   0  0  1  0  0  0  0  0  0  0  0  0
   -0.7830    0.0910    1.8730 C   0  0  0  0  0  0  0  0  0  0  0  0
    0.1250    0.0020    2.7130 O   0  0  0  0  0  0  0  0  0  0  0  0
   -2.0500   -0.5940    2.0050 N   0  0  0  0  0  0  0  0  0  0  0  0
   -2.8490   -0.8200    0.8450 C   0  0  0  0  0  0  0  0  0  0  0  0
   -2.0560   -0.9430   -0.4250 C   0  0  2  0  0  0  0  0  0  0  0  0
   -1.6480   -2.4170   -0.5530 C   0  0  0  0  0  0  0  0  0  0  0  0
   -3.0400   -0.7260   -1.5770 C   0  0  0  0  0  0  0  0  0  0  0  0
    0.7620    1.3790    0.3790 C   0  0  2  0  0  0  0  0  0  0  0  0
    0.6250    2.4420   -0.5360 O   0  0  0  0  0  0  0  0  0  0  0  0
    1.3600    1.7610    1.5530 O   0  0  0  0  0  0  0  0  0  0  0  0
  1  2  1  0
  2  3  1  0
  3  4  1  0
  5  3  1  1
  5  6  1  0
  5  9  1  0
  5 26  1  0
  6  7  2  0
  6  8  1  0
  9 10  1  0
  9 11  1  0
 11 12  1  6
 11 18  1  0
 11 23  1  0
 12 13  1  0
 13 14  2  0
 13 15  1  0
 15 16  1  0
 16 17  1  1
 16 18  1  0
 18 19  1  1
 18 26  1  0
 19 20  2  0
 19 21  1  0
 21 22  1  0
 22 23  1  0
 23 24  1  6
 23 25  1  0
 26 27  1  6
 26 28  1  0
M  END
