
     RDKit          3D

 28 30  0  0  0  0  0  0  0  0999 V2000
   -4.0250    3.6080   -0.0890 C   0  0  0  0  0  0  0  0  0  0  0  0
   -4.1470    2.2300   -0.2800 O   0  0  0  0  0  0  0  0  0  0  0  0
   -3.2310    1.5140    0.4650 C   0  0  1  0  0  0  0  0  0  0  0  0
   -3.9660    0.7540    1.3980 O   0  0  0  0  0  0  0  0  0  0  0  0
   -2.4340    0.5960   -0.4500 C   0  0  2  0  0  0  0  0  0  0  0  0
   -3.3550   -0.4200   -0.8210 O   0  0  0  0  0  0  0  0  0  0  0  0
   -3.3730   -1.1520    0.3000 O   0  0  0  0  0  0  0  0  0  0  0  0
   -2.0530   -1.4010    0.4380 N   0  0  0  0  0  0  0  0  0  0  0  0
   -1.6540   -2.1640   -0.7530 C   0  0  0  0  0  0  0  0  0  0  0  0
   -2.4560   -3.4710   -0.8220 C   0  0  0  0  0  0  0  0  0  0  0  0
   -2.0360   -4.1440   -1.9630 O   0  0  0  0  0  0  0  0  0  0  0  0
   -1.4890   -0.1390    0.3260 N   0  0  0  0  0  0  0  0  0  0  0  0
   -0.2510   -0.1740   -0.2150 O   0  0  0  0  0  0  0  0  0  0  0  0
    0.5390    0.7300    0.4410 C   0  0  2  0  0  0  0  0  0  0  0  0
   -0.0090    2.0070    0.2930 F   0  0  0  0  0  0  0  0  0  0  0  0
    1.9470    0.8040   -0.0810 C   0  0  2  0  0  0  0  0  0  0  0  0
    2.1080    0.0780   -1.3680 C   0  0  0  0  0  0  0  0  0  0  0  0
    0.9490   -0.0130   -2.2190 S   0  0  0  0  0  0  0  0  0  0  0  0
    3.3530   -0.5420   -1.8230 C   0  0  0  0  0  0  0  0  0  0  0  0
    4.1900   -1.1210   -0.7130 C   0  0  0  0  0  0  0  0  0  0  0  0
    4.0770   -0.3870    0.5740 C   0  0  1  0  0  0  0  0  0  0  0  0
    4.9090    0.8850    0.4730 C   0  0  0  0  0  0  0  0  0  0  0  0
    6.2510    0.6060    0.2290 O   0  0  0  0  0  0  0  0  0  0  0  0
    2.7010    0.0340    0.9370 C   0  0  0  0  0  0  0  0  0  0  0  0
    2.0080   -0.1320    1.9920 N   0  0  0  0  0  0  0  0  0  0  0  0
    0.7290    0.4610    1.8910 C   0  0  1  0  0  0  0  0  0  0  0  0
    0.5610    1.5700    2.6960 F   0  0  0  0  0  0  0  0  0  0  0  0
   -0.2300   -0.4620    2.2910 F   0  0  0  0  0  0  0  0  0  0  0  0
  1  2  1  0
  2  3  1  0
  3  4  1  1
  3  5  1  0
  5  6  1  1
  5 12  1  0
  6  7  1  0
  7  8  1  0
  8  9  1  0
  8 12  1  0
  9 10  1  0
 10 11  1  0
 12 13  1  0
 13 14  1  0
 14 15  1  1
 14 16  1  0
 14 26  1  0
 16 17  1  6
 16 24  1  0
 17 18  2  0
 17 19  1  0
 19 20  1  0
 20 21  1  0
 21 22  1  6
 21 24  1  0
 22 23  1  0
 24 25  2  0
 25 26  1  0
 26 27  1  1
 26 28  1  0
M  CHG  1  23  -1
M  END
