
     RDKit          3D

 28 30  0  0  0  0  0  0  0  0999 V2000
    3.7740    0.1940   -0.2590 C   0  0  0  0  0  0  0  0  0  0  0  0
    2.8250   -0.7130   -0.1170 C   0  0  0  0  0  0  0  0  0  0  0  0
    2.5950   -1.9190   -0.8210 N   0  0  0  0  0  0  0  0  0  0  0  0
    1.3900   -2.3330   -0.6790 C   0  0  0  0  0  0  0  0  0  0  0  0
    0.3600   -3.3280   -0.9730 C   0  0  0  0  0  0  0  0  0  0  0  0
    0.2760   -3.9990   -2.0370 O   0  0  0  0  0  0  0  0  0  0  0  0
   -0.4740   -3.3540    0.1670 O   0  0  0  0  0  0  0  0  0  0  0  0
    0.0220   -2.4330    1.0920 C   0  0  0  0  0  0  0  0  0  0  0  0
    0.0110   -2.4370    2.3450 O   0  0  0  0  0  0  0  0  0  0  0  0
    0.6170   -1.3590    0.2160 C   0  0  2  0  0  0  0  0  0  0  0  0
   -0.2470   -0.6590   -0.5810 N   0  0  0  0  0  0  0  0  0  0  0  0
   -1.3130   -0.0630   -0.6610 C   0  0  0  0  0  0  0  0  0  0  0  0
   -2.3290    0.1790    0.3570 C   0  0  0  0  0  0  0  0  0  0  0  0
   -1.9090    0.1960    1.9090 S   0  0  0  0  0  0  0  0  0  0  0  0
   -3.7520    0.4160    0.0070 C   0  0  1  0  0  0  0  0  0  0  0  0
   -4.3200   -0.8160   -0.3310 O   0  0  0  0  0  0  0  0  0  0  0  0
   -4.4060    0.9630    1.0890 F   0  0  0  0  0  0  0  0  0  0  0  0
   -3.7770    1.3860   -1.1530 C   0  0  1  0  0  0  0  0  0  0  0  0
   -3.6140    2.6590   -0.6020 F   0  0  0  0  0  0  0  0  0  0  0  0
   -2.7660    1.1320   -2.1200 N   0  0  0  0  0  0  0  0  0  0  0  0
   -1.6700    0.5130   -1.9900 C   0  0  0  0  0  0  0  0  0  0  0  0
   -0.7470    0.3620   -3.1480 C   0  0  0  0  0  0  0  0  0  0  0  0
    1.7340   -0.6350    0.8870 C   0  0  1  0  0  0  0  0  0  0  0  0
    2.1170   -1.2230    2.1510 N   0  0  0  0  0  0  0  0  0  0  0  0
    1.3880    0.7900    1.0030 C   0  0  0  0  0  0  0  0  0  0  0  0
    1.0420    1.4170   -0.0090 O   0  0  0  0  0  0  0  0  0  0  0  0
    1.4480    1.4230    2.2160 O   0  0  0  0  0  0  0  0  0  0  0  0
    1.1240    2.8060    2.3910 C   0  0  0  0  0  0  0  0  0  0  0  0
  1  2  2  0
  2  3  1  0
  2 23  1  0
  3  4  2  0
  4  5  1  0
  4 10  1  0
  5  6  2  0
  5  7  1  0
  7  8  1  0
  8  9  2  0
  8 10  1  0
 10 11  1  6
 10 23  1  0
 11 12  2  3
 12 13  1  0
 12 21  1  0
 13 14  2  0
 13 15  1  0
 15 16  1  6
 15 17  1  0
 15 18  1  0
 18 19  1  1
 18 20  1  0
 20 21  2  0
 21 22  1  0
 23 24  1  1
 23 25  1  0
 25 26  2  0
 25 27  1  0
 27 28  1  0
M  CHG  1  16  -1
M  END
