
     RDKit          3D

 31 34  0  0  0  0  0  0  0  0999 V2000
   -3.3160   -0.5660   -3.0960 C   0  0  0  0  0  0  0  0  0  0  0  0
   -2.2480    0.5570   -2.7110 C   0  0  0  0  0  0  0  0  0  0  0  0
   -1.8140    0.1070   -1.3940 O   0  0  0  0  0  0  0  0  0  0  0  0
   -2.8990    0.2320   -0.4530 C   0  0  0  0  0  0  0  0  0  0  0  0
   -4.0400    0.9290   -0.6840 C   0  0  0  0  0  0  0  0  0  0  0  0
   -5.0310    0.9350    0.3220 C   0  0  0  0  0  0  0  0  0  0  0  0
   -6.1670    1.8140    0.0600 C   0  0  0  0  0  0  0  0  0  0  0  0
   -4.8770    0.2510    1.5110 C   0  0  0  0  0  0  0  0  0  0  0  0
   -5.9590    0.2320    2.5660 C   0  0  0  0  0  0  0  0  0  0  0  0
   -6.2230   -1.2610    2.7990 N   0  0  0  0  0  0  0  0  0  0  0  0
   -3.6970   -0.4470    1.6940 C   0  0  0  0  0  0  0  0  0  0  0  0
   -2.7320   -0.4460    0.7380 C   0  0  0  0  0  0  0  0  0  0  0  0
   -1.4750   -1.1180    0.8990 O   0  0  0  0  0  0  0  0  0  0  0  0
   -0.4250   -0.1510    0.7310 C   0  0  0  0  0  0  0  0  0  0  0  0
   -0.6490    1.1640    0.9230 C   0  0  0  0  0  0  0  0  0  0  0  0
    0.3190    2.1380    0.7470 N   0  0  0  0  0  0  0  0  0  0  0  0
    1.5640    1.6840    0.3520 C   0  0  0  0  0  0  0  0  0  0  0  0
    1.8010    0.3580    0.1630 C   0  0  0  0  0  0  0  0  0  0  0  0
    0.8160   -0.5980    0.3510 C   0  0  0  0  0  0  0  0  0  0  0  0
    3.1060   -0.0900   -0.3850 C   0  0  0  0  0  0  0  0  0  0  0  0
    3.5560   -1.3070   -0.2860 C   0  0  0  0  0  0  0  0  0  0  0  0
    4.9200   -1.6330   -0.9160 C   0  0  0  0  0  0  0  0  0  0  0  0
    5.2240   -2.9950   -0.6090 N   0  0  0  0  0  0  0  0  0  0  0  0
    3.9580   -3.6330   -0.3580 C   0  0  1  0  0  0  0  0  0  0  0  0
    4.1420   -4.8510    0.5410 C   0  0  0  0  0  0  0  0  0  0  0  0
    3.2560   -2.5190    0.4540 C   0  0  0  0  0  0  0  0  0  0  0  0
    4.0400    0.9660   -0.6950 N   0  0  0  0  0  0  0  0  0  0  0  0
    3.7720    2.2400   -0.4910 C   0  0  0  0  0  0  0  0  0  0  0  0
    4.7700    3.2810   -0.8140 C   0  0  0  0  0  0  0  0  0  0  0  0
    5.0770    4.1150    0.3660 C   0  0  0  0  0  0  0  0  0  0  0  0
    2.5500    2.7030    0.0340 N   0  0  0  0  0  0  0  0  0  0  0  0
  1  2  1  0
  2  3  1  0
  3  4  1  0
  4  5  2  0
  4 12  1  0
  5  6  1  0
  6  7  1  0
  6  8  2  0
  8  9  1  0
  8 11  1  0
  9 10  1  0
 11 12  2  0
 12 13  1  0
 13 14  1  0
 14 15  2  0
 14 19  1  0
 15 16  1  0
 16 17  2  0
 17 18  1  0
 17 31  1  0
 18 19  2  0
 18 20  1  0
 20 21  2  3
 20 27  1  0
 21 22  1  0
 21 26  1  0
 22 23  1  0
 23 24  1  0
 24 25  1  1
 24 26  1  0
 27 28  2  0
 28 29  1  0
 28 31  1  0
 29 30  1  0
M  END
