
     RDKit          3D

 28 30  0  0  0  0  0  0  0  0999 V2000
   -2.6140    2.3740    0.0240 C   0  0  0  0  0  0  0  0  0  0  0  0
   -2.2790    0.9840   -0.4610 C   0  0  1  0  0  0  0  0  0  0  0  0
   -0.9880    1.0940   -1.2910 C   0  0  0  0  0  0  0  0  0  0  0  0
    0.0100    0.1510   -0.6000 C   0  0  2  0  0  0  0  0  0  0  0  0
    0.7290   -0.5800   -1.5410 O   0  0  0  0  0  0  0  0  0  0  0  0
    2.0430   -0.1920   -1.5280 C   0  0  0  0  0  0  0  0  0  0  0  0
    2.6870   -0.3030   -0.2520 N   0  0  0  0  0  0  0  0  0  0  0  0
    4.0650    0.0010   -0.0710 C   0  0  0  0  0  0  0  0  0  0  0  0
    5.0000   -0.8620   -0.4350 C   0  0  0  0  0  0  0  0  0  0  0  0
    6.4140   -0.4430   -0.2010 C   0  0  0  0  0  0  0  0  0  0  0  0
    6.4400    0.9480   -0.4330 O   0  0  0  0  0  0  0  0  0  0  0  0
    5.7950    1.5090    0.5470 O   0  0  0  0  0  0  0  0  0  0  0  0
    4.4340    1.2970    0.5290 C   0  0  0  0  0  0  0  0  0  0  0  0
   -0.8020   -0.7310    0.1740 N   0  0  0  0  0  0  0  0  0  0  0  0
   -0.6310   -2.1000    0.3680 C   0  0  0  0  0  0  0  0  0  0  0  0
    0.5860   -2.9130   -0.3270 S   0  0  0  0  0  0  0  0  0  0  0  0
   -1.5000   -2.8200    1.1630 O   0  0  0  0  0  0  0  0  0  0  0  0
   -1.1800   -3.9760    1.7400 F   0  0  0  0  0  0  0  0  0  0  0  0
   -1.8960    0.0930    0.6880 C   0  0  1  0  0  0  0  0  0  0  0  0
   -1.4190    0.8280    1.8270 N   0  0  0  0  0  0  0  0  0  0  0  0
   -0.4080    1.6410    1.6570 F   0  0  0  0  0  0  0  0  0  0  0  0
   -2.9340   -0.7690    1.1610 N   0  0  0  0  0  0  0  0  0  0  0  0
   -2.9490   -1.1250    2.4650 O   0  0  0  0  0  0  0  0  0  0  0  0
   -3.9340   -1.2360    0.2910 C   0  0  0  0  0  0  0  0  0  0  0  0
   -4.4560   -2.3700    0.4210 O   0  0  0  0  0  0  0  0  0  0  0  0
   -4.3910   -0.3700   -0.8100 C   0  0  2  0  0  0  0  0  0  0  0  0
   -4.8390   -1.2110   -1.8450 O   0  0  0  0  0  0  0  0  0  0  0  0
   -3.3270    0.4950   -1.3740 C   0  0  0  0  0  0  0  0  0  0  0  0
  2  1  1  1
  2  3  1  0
  2 19  1  0
  2 28  1  0
  3  4  1  0
  4  5  1  6
  4 14  1  0
  5  6  1  0
  6  7  1  0
  7  8  1  0
  8  9  2  0
  8 13  1  0
  9 10  1  0
 10 11  1  0
 11 12  1  0
 12 13  1  0
 14 15  1  0
 14 19  1  0
 15 16  2  0
 15 17  1  0
 17 18  1  0
 19 20  1  1
 19 22  1  0
 20 21  1  0
 22 23  1  0
 22 24  1  0
 24 25  2  0
 24 26  1  0
 26 27  1  6
 26 28  1  0
M  END
