
     RDKit          3D

 31 34  0  0  0  0  0  0  0  0999 V2000
    7.1600   -1.9050    0.5040 C   0  0  0  0  0  0  0  0  0  0  0  0
    6.4160   -2.0480   -0.7630 C   0  0  0  0  0  0  0  0  0  0  0  0
    5.6160   -1.1180   -1.2360 C   0  0  0  0  0  0  0  0  0  0  0  0
    5.3780    0.1780   -0.5430 C   0  0  1  0  0  0  0  0  0  0  0  0
    4.9760    1.1400   -1.5900 N   0  0  0  0  0  0  0  0  0  0  0  0
    3.5650    1.0290   -1.7490 C   0  0  0  0  0  0  0  0  0  0  0  0
    2.6730    1.3760   -2.7420 C   0  0  0  0  0  0  0  0  0  0  0  0
    1.3390    1.0990   -2.5180 C   0  0  0  0  0  0  0  0  0  0  0  0
    0.8630    0.5070   -1.3800 C   0  0  0  0  0  0  0  0  0  0  0  0
   -0.5510    0.2030   -1.1120 C   0  0  0  0  0  0  0  0  0  0  0  0
   -0.8910   -0.3210   -0.0200 O   0  0  0  0  0  0  0  0  0  0  0  0
   -1.5760    0.4740   -2.0400 N   0  0  0  0  0  0  0  0  0  0  0  0
   -2.9540    0.2470   -1.9160 C   0  0  0  0  0  0  0  0  0  0  0  0
   -3.7300    0.3160   -3.0850 C   0  0  0  0  0  0  0  0  0  0  0  0
   -5.0930    0.1300   -3.0880 C   0  0  0  0  0  0  0  0  0  0  0  0
   -5.7030   -0.1340   -1.8780 C   0  0  0  0  0  0  0  0  0  0  0  0
   -7.0690   -0.3260   -1.8240 C   0  0  0  0  0  0  0  0  0  0  0  0
   -7.6840   -0.5850   -0.6370 C   0  0  0  0  0  0  0  0  0  0  0  0
   -6.9350   -0.6550    0.5180 C   0  0  0  0  0  0  0  0  0  0  0  0
   -5.5870   -0.4740    0.5270 C   0  0  0  0  0  0  0  0  0  0  0  0
   -4.7940   -0.5330    1.6380 O   0  0  0  0  0  0  0  0  0  0  0  0
   -5.3510   -0.7820    2.9050 C   0  0  0  0  0  0  0  0  0  0  0  0
   -6.3330    0.2610    3.3660 C   0  0  0  0  0  0  0  0  0  0  0  0
   -4.9700   -0.2090   -0.7020 C   0  0  0  0  0  0  0  0  0  0  0  0
   -3.5980   -0.0150   -0.7450 C   0  0  0  0  0  0  0  0  0  0  0  0
    1.7700    0.1850   -0.4370 N   0  0  0  0  0  0  0  0  0  0  0  0
    3.0960    0.4290   -0.5940 C   0  0  0  0  0  0  0  0  0  0  0  0
    4.1970    0.1590    0.2990 N   0  0  0  0  0  0  0  0  0  0  0  0
    4.0500   -0.0570    1.7200 C   0  0  0  0  0  0  0  0  0  0  0  0
    4.6090    1.0840    2.5460 C   0  0  0  0  0  0  0  0  0  0  0  0
    6.0110    1.2280    2.2560 N   0  0  0  0  0  0  0  0  0  0  0  0
  1  2  1  0
  2  3  2  3
  4  3  1  6
  4  5  1  0
  4 28  1  0
  5  6  1  0
  6  7  2  0
  6 27  1  0
  7  8  1  0
  8  9  2  0
  9 10  1  0
  9 26  1  0
 10 11  2  0
 10 12  1  0
 12 13  1  0
 13 14  2  0
 13 25  1  0
 14 15  1  0
 15 16  2  0
 16 17  1  0
 16 24  1  0
 17 18  2  0
 18 19  1  0
 19 20  2  0
 20 21  1  0
 20 24  1  0
 21 22  1  0
 22 23  1  0
 24 25  2  0
 26 27  2  0
 27 28  1  0
 28 29  1  0
 29 30  1  0
 30 31  1  0
M  END
