
     RDKit          3D

 30 34  0  0  0  0  0  0  0  0999 V2000
   -8.1120   -0.6060   -1.3200 C   0  0  0  0  0  0  0  0  0  0  0  0
   -6.7880   -1.0540   -1.4350 O   0  0  0  0  0  0  0  0  0  0  0  0
   -5.6750   -0.3460   -1.0800 C   0  0  0  0  0  0  0  0  0  0  0  0
   -5.7040    0.9290   -0.5490 C   0  0  0  0  0  0  0  0  0  0  0  0
   -4.5600    1.6130   -0.2030 C   0  0  0  0  0  0  0  0  0  0  0  0
   -4.6000    2.8350    0.3080 N   0  0  0  0  0  0  0  0  0  0  0  0
   -3.4900    3.5100    0.6540 C   0  0  0  0  0  0  0  0  0  0  0  0
   -2.2940    2.9280    0.4750 N   0  0  0  0  0  0  0  0  0  0  0  0
   -2.1510    1.6720   -0.0440 C   0  0  0  0  0  0  0  0  0  0  0  0
   -0.8920    1.0840   -0.2340 N   0  0  0  0  0  0  0  0  0  0  0  0
   -0.3050    0.7200   -1.5040 C   0  0  0  0  0  0  0  0  0  0  0  0
    1.0900    1.3570   -1.2940 C   0  0  0  0  0  0  0  0  0  0  0  0
    1.4370    0.6920    0.0530 C   0  0  1  0  0  0  0  0  0  0  0  0
    2.4300    1.3620    0.7240 O   0  0  0  0  0  0  0  0  0  0  0  0
    3.6330    0.8460    1.0550 C   0  0  0  0  0  0  0  0  0  0  0  0
    4.5310    1.6570    1.7360 C   0  0  0  0  0  0  0  0  0  0  0  0
    5.7810    1.2430    2.1250 C   0  0  0  0  0  0  0  0  0  0  0  0
    6.1510   -0.0610    1.8120 C   0  0  0  0  0  0  0  0  0  0  0  0
    7.3950   -0.5410    2.1740 C   0  0  0  0  0  0  0  0  0  0  0  0
    7.8080   -1.8170    1.8900 C   0  0  0  0  0  0  0  0  0  0  0  0
    6.9420   -2.6690    1.2080 C   0  0  0  0  0  0  0  0  0  0  0  0
    5.6890   -2.1880    0.8430 C   0  0  0  0  0  0  0  0  0  0  0  0
    5.2950   -0.9020    1.1390 C   0  0  0  0  0  0  0  0  0  0  0  0
    4.0370   -0.4220    0.7700 C   0  0  0  0  0  0  0  0  0  0  0  0
    0.0950    0.7260    0.7630 C   0  0  0  0  0  0  0  0  0  0  0  0
   -3.3040    1.0120   -0.3850 C   0  0  0  0  0  0  0  0  0  0  0  0
   -3.2670   -0.2560   -0.9120 C   0  0  0  0  0  0  0  0  0  0  0  0
   -4.4370   -0.9300   -1.2560 C   0  0  0  0  0  0  0  0  0  0  0  0
   -4.3710   -2.2060   -1.7840 O   0  0  0  0  0  0  0  0  0  0  0  0
   -3.0990   -2.7940   -1.9600 C   0  0  0  0  0  0  0  0  0  0  0  0
  1  2  1  0
  2  3  1  0
  3  4  2  0
  3 28  1  0
  4  5  1  0
  5  6  2  0
  5 26  1  0
  6  7  1  0
  7  8  2  0
  8  9  1  0
  9 10  1  0
  9 26  2  0
 10 11  1  0
 10 25  1  0
 11 12  1  0
 12 13  1  0
 13 14  1  1
 13 25  1  0
 14 15  1  0
 15 16  2  0
 15 24  1  0
 16 17  1  0
 17 18  2  0
 18 19  1  0
 18 23  1  0
 19 20  2  0
 20 21  1  0
 21 22  2  0
 22 23  1  0
 23 24  2  0
 26 27  1  0
 27 28  2  0
 28 29  1  0
 29 30  1  0
M  END
