
     RDKit          3D

 28 29  0  0  0  0  0  0  0  0999 V2000
    5.5420    3.2430   -0.8580 C   0  0  0  0  0  0  0  0  0  0  0  0
    4.4370    2.7290   -0.3350 C   0  0  0  0  0  0  0  0  0  0  0  0
    4.3890    1.4300    0.3600 C   0  0  0  0  0  0  0  0  0  0  0  0
    3.4100    0.5240   -0.3460 C   0  0  0  0  0  0  0  0  0  0  0  0
    2.3110    0.2070    0.2200 N   0  0  0  0  0  0  0  0  0  0  0  0
    1.3870   -0.6490   -0.4500 C   0  0  1  0  0  0  0  0  0  0  0  0
    1.2110   -0.3800   -1.7700 O   0  0  0  0  0  0  0  0  0  0  0  0
    0.7800    0.8170   -2.0630 F   0  0  0  0  0  0  0  0  0  0  0  0
    1.9990   -2.4000   -0.3710 S   0  0  0  0  0  0  0  0  0  0  0  0
    0.4420   -3.0670    0.3600 C   0  0  2  0  0  0  0  0  0  0  0  0
    0.1240   -4.4030   -0.2260 C   0  0  0  0  0  0  0  0  0  0  0  0
    1.0270   -5.3230    0.2930 O   0  0  0  0  0  0  0  0  0  0  0  0
   -0.4330   -2.0660   -0.1070 O   0  0  0  0  0  0  0  0  0  0  0  0
    0.1320   -0.8720    0.3600 C   0  0  1  0  0  0  0  0  0  0  0  0
    0.5550   -1.1790    1.6610 F   0  0  0  0  0  0  0  0  0  0  0  0
   -0.7910    0.1980    0.3940 N   0  0  0  0  0  0  0  0  0  0  0  0
   -0.9530    0.8750    1.6330 N   0  0  0  0  0  0  0  0  0  0  0  0
   -1.9400    0.5720    2.5750 C   0  0  0  0  0  0  0  0  0  0  0  0
   -2.0120    1.3540    3.8490 C   0  0  0  0  0  0  0  0  0  0  0  0
   -2.7550   -0.3370    2.3690 O   0  0  0  0  0  0  0  0  0  0  0  0
   -1.5730    0.6940   -0.6690 C   0  0  0  0  0  0  0  0  0  0  0  0
   -1.8220    1.9460   -0.8700 N   0  0  0  0  0  0  0  0  0  0  0  0
   -2.6520    2.1370   -2.0380 C   0  0  2  0  0  0  0  0  0  0  0  0
   -3.9620    2.3970   -1.6330 O   0  0  0  0  0  0  0  0  0  0  0  0
   -2.5590    0.9230   -2.7130 O   0  0  0  0  0  0  0  0  0  0  0  0
   -2.2590   -0.0330   -1.7390 C   0  0  2  0  0  0  0  0  0  0  0  0
   -3.5910   -0.6250   -1.3260 C   0  0  0  0  0  0  0  0  0  0  0  0
   -3.4860   -1.6050   -0.3600 O   0  0  0  0  0  0  0  0  0  0  0  0
  1  2  2  0
  2  3  1  0
  3  4  1  0
  4  5  2  3
  5  6  1  0
  6  7  1  6
  6  9  1  0
  6 14  1  0
  7  8  1  0
  9 10  1  0
 10 11  1  6
 10 13  1  0
 11 12  1  0
 13 14  1  0
 14 15  1  1
 14 16  1  0
 16 17  1  0
 16 21  1  0
 17 18  1  0
 18 19  1  0
 18 20  2  0
 21 22  2  0
 21 26  1  0
 22 23  1  0
 23 24  1  1
 23 25  1  0
 25 26  1  0
 26 27  1  1
 27 28  1  0
M  END
