
     RDKit          3D

 31 34  0  0  0  0  0  0  0  0999 V2000
   -5.8870    3.2590    0.1770 C   0  0  0  0  0  0  0  0  0  0  0  0
   -5.2780    2.0290    0.7880 C   0  0  0  0  0  0  0  0  0  0  0  0
   -5.3140    1.9250    2.1530 C   0  0  0  0  0  0  0  0  0  0  0  0
   -4.8650    0.7280    2.7430 C   0  0  0  0  0  0  0  0  0  0  0  0
   -4.4010   -0.3040    1.9060 C   0  0  0  0  0  0  0  0  0  0  0  0
   -4.3640   -0.2010    0.5490 C   0  0  0  0  0  0  0  0  0  0  0  0
   -3.8990   -1.2770   -0.3280 C   0  0  2  0  0  0  0  0  0  0  0  0
   -4.9530   -2.4860   -0.0870 C   0  0  0  0  0  0  0  0  0  0  0  0
   -4.5690   -3.5840   -0.9410 N   0  0  0  0  0  0  0  0  0  0  0  0
   -2.6310   -1.9180   -0.0170 C   0  0  0  0  0  0  0  0  0  0  0  0
   -1.3060   -1.5850    0.0730 N   0  0  0  0  0  0  0  0  0  0  0  0
   -0.4160   -1.0690   -0.9180 C   0  0  0  0  0  0  0  0  0  0  0  0
   -0.8630   -0.7820   -2.0400 O   0  0  0  0  0  0  0  0  0  0  0  0
    1.0060   -0.9090   -0.6240 C   0  0  0  0  0  0  0  0  0  0  0  0
    1.8540   -1.8490   -1.2470 C   0  0  0  0  0  0  0  0  0  0  0  0
    3.2030   -1.9200   -1.0370 C   0  0  0  0  0  0  0  0  0  0  0  0
    3.7940   -1.0240   -0.1680 C   0  0  0  0  0  0  0  0  0  0  0  0
    2.9820   -0.0870    0.4520 C   0  0  0  0  0  0  0  0  0  0  0  0
    1.6060   -0.0380    0.2230 C   0  0  0  0  0  0  0  0  0  0  0  0
    3.6280    0.7910    1.3040 O   0  0  0  0  0  0  0  0  0  0  0  0
    4.9770    1.2060    1.0230 C   0  0  0  0  0  0  0  0  0  0  0  0
    5.8390    0.1550    0.4490 C   0  0  2  0  0  0  0  0  0  0  0  0
    6.5730    0.5420   -0.7940 C   0  0  0  0  0  0  0  0  0  0  0  0
    7.5230    1.6670   -0.7640 C   0  0  2  0  0  0  0  0  0  0  0  0
    8.6660    1.4620    0.2400 C   0  0  0  0  0  0  0  0  0  0  0  0
    7.7590    2.6410    0.2860 C   0  0  0  0  0  0  0  0  0  0  0  0
    5.1240   -1.0250    0.1110 O   0  0  0  0  0  0  0  0  0  0  0  0
   -4.8210    1.0270   -0.0190 C   0  0  0  0  0  0  0  0  0  0  0  0
   -4.8280    1.1420   -1.4500 C   0  0  0  0  0  0  0  0  0  0  0  0
   -3.8930    1.6310   -2.1100 O   0  0  0  0  0  0  0  0  0  0  0  0
   -5.9520    0.6660   -2.1150 O   0  0  0  0  0  0  0  0  0  0  0  0
  1  2  1  0
  2  3  2  0
  2 28  1  0
  3  4  1  0
  4  5  2  0
  5  6  1  0
  6  7  1  0
  6 28  2  0
  7  8  1  1
  7 10  1  0
  8  9  1  0
 10 11  1  0
 11 12  1  0
 12 13  2  0
 12 14  1  0
 14 15  2  0
 14 19  1  0
 15 16  1  0
 16 17  2  0
 17 18  1  0
 17 27  1  0
 18 19  2  0
 18 20  1  0
 20 21  1  0
 21 22  1  0
 22 23  1  6
 22 27  1  0
 24 23  1  1
 24 25  1  0
 24 26  1  0
 25 26  1  0
 28 29  1  0
 29 30  2  0
 29 31  1  0
M  CHG  1   9   1
M  END
