
     RDKit          3D

 30 32  0  0  0  0  0  0  0  0999 V2000
    8.0170    1.3220   -0.5930 C   0  0  0  0  0  0  0  0  0  0  0  0
    7.1910    0.1110   -0.3000 C   0  0  0  0  0  0  0  0  0  0  0  0
    7.7430   -1.1640   -0.3950 C   0  0  0  0  0  0  0  0  0  0  0  0
    6.9980   -2.2960   -0.1280 C   0  0  0  0  0  0  0  0  0  0  0  0
    5.6790   -2.1220    0.2390 C   0  0  0  0  0  0  0  0  0  0  0  0
    5.1100   -0.8560    0.3390 C   0  0  0  0  0  0  0  0  0  0  0  0
    3.7900   -0.6720    0.7060 O   0  0  0  0  0  0  0  0  0  0  0  0
    2.7950   -0.6320   -0.2230 C   0  0  0  0  0  0  0  0  0  0  0  0
    3.1910   -0.7770   -1.4380 O   0  0  0  0  0  0  0  0  0  0  0  0
    1.3760   -0.4480   -0.0070 C   0  0  0  0  0  0  0  0  0  0  0  0
    0.5500   -0.4440   -1.1290 C   0  0  0  0  0  0  0  0  0  0  0  0
   -0.8220   -0.2750   -1.0250 C   0  0  0  0  0  0  0  0  0  0  0  0
   -1.4010   -0.1080    0.1930 C   0  0  0  0  0  0  0  0  0  0  0  0
   -2.7840    0.0620    0.4380 N   0  0  0  0  0  0  0  0  0  0  0  0
   -3.8360   -0.0460   -0.4870 C   0  0  0  0  0  0  0  0  0  0  0  0
   -3.5860   -0.3240   -1.6750 O   0  0  0  0  0  0  0  0  0  0  0  0
   -5.2470    0.1590   -0.1030 C   0  0  0  0  0  0  0  0  0  0  0  0
   -6.1990    0.0500   -0.9910 C   0  0  0  0  0  0  0  0  0  0  0  0
   -7.5790    0.2440   -0.6450 C   0  0  0  0  0  0  0  0  0  0  0  0
   -8.0750    0.5540    0.5960 C   0  0  0  0  0  0  0  0  0  0  0  0
   -9.4440    0.7250    0.8410 C   0  0  0  0  0  0  0  0  0  0  0  0
  -10.3170    0.5840   -0.1660 N   0  0  0  0  0  0  0  0  0  0  0  0
   -9.8450    0.2860   -1.3600 N   0  0  0  0  0  0  0  0  0  0  0  0
   -8.5480    0.1110   -1.6520 C   0  0  0  0  0  0  0  0  0  0  0  0
   -0.5590   -0.1160    1.2890 C   0  0  0  0  0  0  0  0  0  0  0  0
    0.8140   -0.2810    1.2310 C   0  0  0  0  0  0  0  0  0  0  0  0
    1.5990   -0.2780    2.4050 N   0  0  0  0  0  0  0  0  0  0  0  0
    0.9590   -0.1040    3.5960 O   0  0  0  0  0  0  0  0  0  0  0  0
    5.8750    0.2680    0.0670 C   0  0  0  0  0  0  0  0  0  0  0  0
    5.2970    1.6290    0.1660 C   0  0  0  0  0  0  0  0  0  0  0  0
  1  2  1  0
  2  3  2  0
  2 29  1  0
  3  4  1  0
  4  5  2  0
  5  6  1  0
  6  7  1  0
  6 29  2  0
  7  8  1  0
  8  9  2  0
  8 10  1  0
 10 11  2  0
 10 26  1  0
 11 12  1  0
 12 13  2  0
 13 14  1  0
 13 25  1  0
 14 15  1  0
 15 16  2  0
 15 17  1  0
 17 18  2  3
 18 19  1  0
 19 20  2  0
 19 24  1  0
 20 21  1  0
 21 22  2  0
 22 23  1  0
 23 24  2  0
 25 26  2  0
 26 27  1  0
 27 28  1  0
 29 30  1  0
M  CHG  2  22   1  28  -1
M  END
