
     RDKit          3D

 29 30  0  0  0  0  0  0  0  0999 V2000
    6.0200   -0.7860    2.5960 C   0  0  0  0  0  0  0  0  0  0  0  0
    4.6130   -1.0210    2.2820 C   0  0  0  0  0  0  0  0  0  0  0  0
    3.8560   -0.7200    1.2920 C   0  0  0  0  0  0  0  0  0  0  0  0
    4.1720    0.0030    0.0790 C   0  0  0  0  0  0  0  0  0  0  0  0
    5.4180    0.5260   -0.2100 C   0  0  0  0  0  0  0  0  0  0  0  0
    5.7090    1.2280   -1.3600 C   0  0  0  0  0  0  0  0  0  0  0  0
    6.9580    1.7490   -1.6440 O   0  0  0  0  0  0  0  0  0  0  0  0
    8.0970    1.6640   -0.8570 C   0  0  0  0  0  0  0  0  0  0  0  0
    4.7000    1.4190   -2.2720 C   0  0  0  0  0  0  0  0  0  0  0  0
    3.4280    0.8970   -1.9990 C   0  0  0  0  0  0  0  0  0  0  0  0
    2.3410    1.0550   -3.0240 C   0  0  0  0  0  0  0  0  0  0  0  0
    3.1320    0.2000   -0.8590 C   0  0  0  0  0  0  0  0  0  0  0  0
    1.8330   -0.3940   -0.6130 C   0  0  0  0  0  0  0  0  0  0  0  0
    1.6630   -1.6160   -0.3110 O   0  0  0  0  0  0  0  0  0  0  0  0
    0.6020    0.3490   -0.6770 N   0  0  0  0  0  0  0  0  0  0  0  0
   -0.6200   -0.2610   -0.4330 N   0  0  0  0  0  0  0  0  0  0  0  0
   -1.7730    0.5680   -0.1670 C   0  0  0  0  0  0  0  0  0  0  0  0
   -1.6310    1.8010   -0.1570 O   0  0  0  0  0  0  0  0  0  0  0  0
   -3.0380   -0.0210    0.0740 N   0  0  0  0  0  0  0  0  0  0  0  0
   -4.2600    0.6570    0.3470 C   0  0  0  0  0  0  0  0  0  0  0  0
   -4.3230    2.0230    0.4930 C   0  0  0  0  0  0  0  0  0  0  0  0
   -5.5320    2.6560    0.7330 C   0  0  0  0  0  0  0  0  0  0  0  0
   -6.6780    1.8990    0.8250 C   0  0  0  0  0  0  0  0  0  0  0  0
   -6.5950    0.5780    0.6820 N   0  0  0  0  0  0  0  0  0  0  0  0
   -5.4310   -0.0840    0.4460 C   0  0  0  0  0  0  0  0  0  0  0  0
   -5.4290   -1.5690    0.3420 C   0  0  1  0  0  0  0  0  0  0  0  0
   -4.6460   -2.2680    1.3960 C   0  0  0  0  0  0  0  0  0  0  0  0
   -6.8930   -2.0290    0.4480 C   0  0  0  0  0  0  0  0  0  0  0  0
   -5.0060   -2.0130   -1.0680 C   0  0  0  0  0  0  0  0  0  0  0  0
  1  2  1  0
  2  3  2  3
  3  4  1  0
  4  5  2  0
  4 12  1  0
  5  6  1  0
  6  7  1  0
  6  9  2  0
  7  8  1  0
  9 10  1  0
 10 11  1  0
 10 12  2  0
 12 13  1  0
 13 14  2  0
 13 15  1  0
 15 16  1  0
 16 17  1  0
 17 18  2  0
 17 19  1  0
 19 20  1  0
 20 21  2  0
 20 25  1  0
 21 22  1  0
 22 23  2  0
 23 24  1  0
 24 25  2  0
 25 26  1  0
 26 27  1  1
 26 28  1  0
 26 29  1  0
M  END
