
     RDKit          3D

 30 32  0  0  0  0  0  0  0  0999 V2000
   -7.7200    0.4170    1.9390 C   0  0  0  0  0  0  0  0  0  0  0  0
   -7.4000    1.2640    0.7410 C   0  0  0  0  0  0  0  0  0  0  0  0
   -6.6650    0.5120   -0.3170 C   0  0  0  0  0  0  0  0  0  0  0  0
   -7.1850    0.0530   -1.4690 N   0  0  0  0  0  0  0  0  0  0  0  0
   -6.2690   -0.5640   -2.1730 N   0  0  0  0  0  0  0  0  0  0  0  0
   -5.1290   -0.5240   -1.5020 C   0  0  0  0  0  0  0  0  0  0  0  0
   -3.8770   -1.0820   -1.9190 N   0  0  0  0  0  0  0  0  0  0  0  0
   -5.3420    0.1490   -0.3220 C   0  0  0  0  0  0  0  0  0  0  0  0
   -4.3410    0.4150    0.7130 C   0  0  0  0  0  0  0  0  0  0  0  0
   -3.0590   -0.1220    0.3510 O   0  0  0  0  0  0  0  0  0  0  0  0
   -1.9820    0.0300    1.2100 C   0  0  0  0  0  0  0  0  0  0  0  0
   -2.1850    0.6440    2.2860 O   0  0  0  0  0  0  0  0  0  0  0  0
   -0.6530   -0.4960    0.8950 C   0  0  0  0  0  0  0  0  0  0  0  0
   -0.3900   -1.1720   -0.2760 C   0  0  0  0  0  0  0  0  0  0  0  0
    0.8480   -1.6670   -0.5770 C   0  0  0  0  0  0  0  0  0  0  0  0
    1.9280   -1.5040    0.3090 C   0  0  0  0  0  0  0  0  0  0  0  0
    3.2460   -2.0600   -0.0830 C   0  0  0  0  0  0  0  0  0  0  0  0
    4.2120   -1.0790   -0.5680 C   0  0  0  0  0  0  0  0  0  0  0  0
    4.1320   -0.6050   -1.8560 C   0  0  0  0  0  0  0  0  0  0  0  0
    5.0330    0.3070   -2.3470 C   0  0  0  0  0  0  0  0  0  0  0  0
    6.0720    0.7840   -1.5380 C   0  0  0  0  0  0  0  0  0  0  0  0
    7.0490    1.7760   -2.0750 C   0  0  0  0  0  0  0  0  0  0  0  0
    6.1670    0.3250   -0.2560 C   0  0  0  0  0  0  0  0  0  0  0  0
    7.2110    0.7940    0.5860 N   0  0  0  0  0  0  0  0  0  0  0  0
    7.0210    0.8050    1.8090 O   0  0  0  0  0  0  0  0  0  0  0  0
    8.3990    1.2260    0.0840 O   0  0  0  0  0  0  0  0  0  0  0  0
    5.2380   -0.5970    0.2080 C   0  0  0  0  0  0  0  0  0  0  0  0
    1.6740   -0.8350    1.4710 C   0  0  0  0  0  0  0  0  0  0  0  0
    2.7790   -0.6390    2.4480 C   0  0  0  0  0  0  0  0  0  0  0  0
    0.3960   -0.3320    1.7670 C   0  0  0  0  0  0  0  0  0  0  0  0
  1  2  1  0
  2  3  1  0
  3  4  2  0
  3  8  1  0
  4  5  1  0
  5  6  1  0
  6  7  1  0
  6  8  2  0
  8  9  1  0
  9 10  1  0
 10 11  1  0
 11 12  2  0
 11 13  1  0
 13 14  2  0
 13 30  1  0
 14 15  1  0
 15 16  2  0
 16 17  1  0
 16 28  1  0
 17 18  1  0
 18 19  2  0
 18 27  1  0
 19 20  1  0
 20 21  2  0
 21 22  1  0
 21 23  1  0
 23 24  1  0
 23 27  2  0
 24 25  2  0
 24 26  1  0
 28 29  1  0
 28 30  2  0
M  CHG  2  24   1  26  -1
M  END
