
     RDKit          3D

 30 34  0  0  0  0  0  0  0  0999 V2000
    7.6670   -1.6000    0.9900 C   0  0  0  0  0  0  0  0  0  0  0  0
    6.7670   -0.8780    0.1740 O   0  0  0  0  0  0  0  0  0  0  0  0
    5.4220   -0.9120    0.4940 C   0  0  0  0  0  0  0  0  0  0  0  0
    4.9710   -1.6310    1.5830 C   0  0  0  0  0  0  0  0  0  0  0  0
    3.6290   -1.6420    1.8720 C   0  0  0  0  0  0  0  0  0  0  0  0
    3.1120   -2.3230    2.9090 N   0  0  0  0  0  0  0  0  0  0  0  0
    1.7930   -2.3040    3.1380 C   0  0  0  0  0  0  0  0  0  0  0  0
    0.9310   -1.6160    2.3590 N   0  0  0  0  0  0  0  0  0  0  0  0
    1.4000   -0.9180    1.3100 C   0  0  0  0  0  0  0  0  0  0  0  0
    0.4800   -0.1800    0.5310 N   0  0  0  0  0  0  0  0  0  0  0  0
    0.3980    1.2690    0.5440 C   0  0  0  0  0  0  0  0  0  0  0  0
   -0.4230    1.6110   -0.7050 C   0  0  0  0  0  0  0  0  0  0  0  0
   -1.3890    0.4390   -0.6720 C   0  0  1  0  0  0  0  0  0  0  0  0
   -2.2070    0.3440   -1.7880 O   0  0  0  0  0  0  0  0  0  0  0  0
   -3.5910    0.4700   -1.6380 C   0  0  0  0  0  0  0  0  0  0  0  0
   -4.4010    0.3700   -2.7460 C   0  0  0  0  0  0  0  0  0  0  0  0
   -5.7520    0.4940   -2.5960 N   0  0  0  0  0  0  0  0  0  0  0  0
   -6.2860    0.7090   -1.3830 C   0  0  0  0  0  0  0  0  0  0  0  0
   -7.6550    0.8300   -1.2710 C   0  0  0  0  0  0  0  0  0  0  0  0
   -8.2150    1.0560   -0.0120 C   0  0  0  0  0  0  0  0  0  0  0  0
   -7.4490    1.1630    1.1210 C   0  0  0  0  0  0  0  0  0  0  0  0
   -6.0840    1.0360    0.9670 C   0  0  0  0  0  0  0  0  0  0  0  0
   -5.4930    0.8120   -0.2600 C   0  0  0  0  0  0  0  0  0  0  0  0
   -4.1670    0.6860   -0.4460 N   0  0  0  0  0  0  0  0  0  0  0  0
   -0.5200   -0.7290   -0.4030 C   0  0  0  0  0  0  0  0  0  0  0  0
    2.7480   -0.9260    1.0580 C   0  0  0  0  0  0  0  0  0  0  0  0
    3.2280   -0.2190   -0.0230 C   0  0  0  0  0  0  0  0  0  0  0  0
    4.5700   -0.2020   -0.3200 C   0  0  0  0  0  0  0  0  0  0  0  0
    5.0400    0.5110   -1.4050 O   0  0  0  0  0  0  0  0  0  0  0  0
    4.1440    1.2190   -2.2080 C   0  0  0  0  0  0  0  0  0  0  0  0
  1  2  1  0
  2  3  1  0
  3  4  2  0
  3 28  1  0
  4  5  1  0
  5  6  2  0
  5 26  1  0
  6  7  1  0
  7  8  2  0
  8  9  1  0
  9 10  1  0
  9 26  2  0
 10 11  1  0
 10 25  1  0
 11 12  1  0
 12 13  1  0
 13 14  1  6
 13 25  1  0
 14 15  1  0
 15 16  2  0
 15 24  1  0
 16 17  1  0
 17 18  2  0
 18 19  1  0
 18 23  1  0
 19 20  2  0
 20 21  1  0
 21 22  2  0
 22 23  1  0
 23 24  2  0
 26 27  1  0
 27 28  2  0
 28 29  1  0
 29 30  1  0
M  END
