
     RDKit          3D

 31 33  0  0  0  0  0  0  0  0999 V2000
   -6.9020   -2.7920   -2.7270 C   0  0  0  0  0  0  0  0  0  0  0  0
   -7.0470   -1.2950   -2.8770 C   0  0  0  0  0  0  0  0  0  0  0  0
   -5.8270   -0.7110   -2.5520 O   0  0  0  0  0  0  0  0  0  0  0  0
   -5.1480   -0.7670   -1.3650 C   0  0  0  0  0  0  0  0  0  0  0  0
   -5.6430   -1.4600   -0.2430 C   0  0  0  0  0  0  0  0  0  0  0  0
   -4.9030   -1.4690    0.9180 C   0  0  0  0  0  0  0  0  0  0  0  0
   -5.4020   -2.1910    2.1420 C   0  0  0  0  0  0  0  0  0  0  0  0
   -6.1800   -1.3150    2.9290 O   0  0  0  0  0  0  0  0  0  0  0  0
   -3.7070   -0.8020    0.9360 C   0  0  0  0  0  0  0  0  0  0  0  0
   -3.1820   -0.1020   -0.1530 C   0  0  0  0  0  0  0  0  0  0  0  0
   -1.9430    0.5460    0.0290 N   0  0  0  0  0  0  0  0  0  0  0  0
   -1.2430    1.1600   -1.0650 C   0  0  2  0  0  0  0  0  0  0  0  0
   -0.7170    0.2270   -2.0980 C   0  0  0  0  0  0  0  0  0  0  0  0
    0.4880   -0.5860   -1.6730 C   0  0  0  0  0  0  0  0  0  0  0  0
    1.5160    0.2010   -0.9540 C   0  0  0  0  0  0  0  0  0  0  0  0
    1.2300    1.6730   -1.0390 C   0  0  2  0  0  0  0  0  0  0  0  0
    2.2350    2.4740   -0.4290 N   0  0  0  0  0  0  0  0  0  0  0  0
    2.0330    2.4910    1.0180 C   0  0  0  0  0  0  0  0  0  0  0  0
    3.2720    2.9500    1.7130 C   0  0  0  0  0  0  0  0  0  0  0  0
    4.3520    2.1550    1.4800 O   0  0  0  0  0  0  0  0  0  0  0  0
    4.6820    0.8780    1.7540 C   0  0  0  0  0  0  0  0  0  0  0  0
    3.8300    0.0260    2.4060 C   0  0  0  0  0  0  0  0  0  0  0  0
    4.2560   -1.2810    2.6450 C   0  0  0  0  0  0  0  0  0  0  0  0
    5.4910   -1.7440    2.2520 C   0  0  0  0  0  0  0  0  0  0  0  0
    5.9100   -3.0470    2.4870 O   0  0  0  0  0  0  0  0  0  0  0  0
    6.3340   -0.8520    1.5920 C   0  0  0  0  0  0  0  0  0  0  0  0
    5.9430    0.4320    1.3450 C   0  0  0  0  0  0  0  0  0  0  0  0
    6.7830    1.3390    0.6860 O   0  0  0  0  0  0  0  0  0  0  0  0
    8.0820    0.8690    0.2830 C   0  0  0  0  0  0  0  0  0  0  0  0
   -0.1240    2.0510   -0.5540 C   0  0  0  0  0  0  0  0  0  0  0  0
   -3.9400   -0.1140   -1.2830 C   0  0  0  0  0  0  0  0  0  0  0  0
  1  2  1  0
  2  3  1  0
  3  4  1  0
  4  5  2  0
  4 31  1  0
  5  6  1  0
  6  7  1  0
  6  9  2  0
  7  8  1  0
  9 10  1  0
 10 11  1  0
 10 31  2  0
 12 11  1  1
 12 13  1  0
 12 30  1  0
 13 14  1  0
 14 15  1  0
 15 16  1  0
 16 17  1  1
 16 30  1  0
 17 18  1  0
 18 19  1  0
 19 20  1  0
 20 21  1  0
 21 22  2  0
 21 27  1  0
 22 23  1  0
 23 24  2  0
 24 25  1  0
 24 26  1  0
 26 27  2  0
 27 28  1  0
 28 29  1  0
M  CHG  1  17   1
M  END
