
     RDKit          3D

 29 31  0  0  0  0  0  0  0  0999 V2000
   -3.2140    5.6230   -0.2180 C   0  0  0  0  0  0  0  0  0  0  0  0
   -4.3910    4.8440   -0.0610 O   0  0  0  0  0  0  0  0  0  0  0  0
   -4.4020    3.4780   -0.0670 C   0  0  0  0  0  0  0  0  0  0  0  0
   -3.2730    2.7450   -0.0960 C   0  0  0  0  0  0  0  0  0  0  0  0
   -3.3890    1.3180   -0.1000 C   0  0  0  0  0  0  0  0  0  0  0  0
   -2.4480    0.3860   -0.1260 C   0  0  0  0  0  0  0  0  0  0  0  0
   -1.0640    0.7800   -0.1610 C   0  0  0  0  0  0  0  0  0  0  0  0
   -0.7430    2.0230   -0.2780 O   0  0  0  0  0  0  0  0  0  0  0  0
    0.0520   -0.0930   -0.0650 N   0  0  0  0  0  0  0  0  0  0  0  0
    1.4010    0.4500   -0.1110 C   0  0  0  0  0  0  0  0  0  0  0  0
    1.6240    1.7630   -0.2430 N   0  0  0  0  0  0  0  0  0  0  0  0
    2.8500    2.3010   -0.2900 C   0  0  0  0  0  0  0  0  0  0  0  0
    3.0930    3.6850   -0.4290 N   0  0  0  0  0  0  0  0  0  0  0  0
    3.9300    1.4220   -0.1930 C   0  0  0  0  0  0  0  0  0  0  0  0
    3.7270    0.0800   -0.0580 C   0  0  0  0  0  0  0  0  0  0  0  0
    4.8540   -0.8480    0.0440 C   0  0  0  0  0  0  0  0  0  0  0  0
    6.1080   -0.5010    0.0170 C   0  0  0  0  0  0  0  0  0  0  0  0
    7.2670   -1.4410    0.1210 C   0  0  0  0  0  0  0  0  0  0  0  0
    6.8890   -2.7700    0.2530 O   0  0  0  0  0  0  0  0  0  0  0  0
    5.5570   -3.1480    0.2830 C   0  0  0  0  0  0  0  0  0  0  0  0
    4.5670   -2.2970    0.1890 C   0  0  0  0  0  0  0  0  0  0  0  0
    2.4530   -0.3760   -0.0200 N   0  0  0  0  0  0  0  0  0  0  0  0
   -2.8910   -1.0070   -0.0680 C   0  0  0  0  0  0  0  0  0  0  0  0
   -4.0810   -1.3280    0.5810 C   0  0  0  0  0  0  0  0  0  0  0  0
   -4.6120   -2.6120    0.5710 C   0  0  0  0  0  0  0  0  0  0  0  0
   -3.9560   -3.6200   -0.0970 C   0  0  0  0  0  0  0  0  0  0  0  0
   -4.5190   -5.0160   -0.1150 C   0  0  0  0  0  0  0  0  0  0  0  0
   -2.7830   -3.3440   -0.7480 C   0  0  0  0  0  0  0  0  0  0  0  0
   -2.2690   -2.0340   -0.7230 C   0  0  0  0  0  0  0  0  0  0  0  0
  1  2  1  0
  2  3  1  0
  3  4  2  3
  4  5  1  0
  5  6  2  3
  6  7  1  0
  6 23  1  0
  7  8  2  0
  7  9  1  0
  9 10  1  0
 10 11  2  0
 10 22  1  0
 11 12  1  0
 12 13  1  0
 12 14  2  0
 14 15  1  0
 15 16  1  0
 15 22  2  0
 16 17  2  0
 16 21  1  0
 17 18  1  0
 18 19  1  0
 19 20  1  0
 20 21  2  0
 23 24  2  0
 23 29  1  0
 24 25  1  0
 25 26  2  0
 26 27  1  0
 26 28  1  0
 28 29  2  0
M  END
