
     RDKit          3D

 30 32  0  0  0  0  0  0  0  0999 V2000
   -1.8050    4.2400   -3.4340 C   0  0  0  0  0  0  0  0  0  0  0  0
   -0.6080    3.8450   -3.8080 C   0  0  0  0  0  0  0  0  0  0  0  0
   -0.0170    2.6970   -3.0970 C   0  0  0  0  0  0  0  0  0  0  0  0
    1.1400    2.2650   -3.4120 N   0  0  0  0  0  0  0  0  0  0  0  0
    1.7480    1.1630   -2.7540 C   0  0  0  0  0  0  0  0  0  0  0  0
    2.8910    0.7860   -3.1120 O   0  0  0  0  0  0  0  0  0  0  0  0
    0.9850    0.5040   -1.6620 C   0  0  0  0  0  0  0  0  0  0  0  0
    1.4910   -0.4420   -0.9700 C   0  0  0  0  0  0  0  0  0  0  0  0
    2.7130   -1.1880   -0.8880 C   0  0  0  0  0  0  0  0  0  0  0  0
    2.7640   -2.1520    0.0740 C   0  0  0  0  0  0  0  0  0  0  0  0
    3.9560   -2.9380    0.2130 C   0  0  0  0  0  0  0  0  0  0  0  0
    4.0060   -4.2990    0.5450 C   0  0  0  0  0  0  0  0  0  0  0  0
    5.3260   -4.6920    0.5810 C   0  0  0  0  0  0  0  0  0  0  0  0
    6.0400   -3.5550    0.2690 C   0  0  0  0  0  0  0  0  0  0  0  0
    5.2220   -2.5810    0.0670 O   0  0  0  0  0  0  0  0  0  0  0  0
    3.8890   -1.0980   -1.6310 N   0  0  0  0  0  0  0  0  0  0  0  0
    4.8310   -0.3610   -1.2890 O   0  0  0  0  0  0  0  0  0  0  0  0
    4.0550   -1.8720   -2.7490 O   0  0  0  0  0  0  0  0  0  0  0  0
   -0.3210    1.0360   -1.3630 C   0  0  0  0  0  0  0  0  0  0  0  0
   -1.2380    0.5820   -0.3790 C   0  0  0  0  0  0  0  0  0  0  0  0
   -1.4440   -0.6560    0.1320 C   0  0  0  0  0  0  0  0  0  0  0  0
   -2.2900   -0.9880    1.1720 C   0  0  0  0  0  0  0  0  0  0  0  0
   -2.3980   -2.3740    1.6080 C   0  0  0  0  0  0  0  0  0  0  0  0
   -3.0030    0.0410    1.7520 C   0  0  0  0  0  0  0  0  0  0  0  0
   -3.8970   -0.1960    2.8250 N   0  0  0  0  0  0  0  0  0  0  0  0
   -2.8660    1.3410    1.3010 C   0  0  0  0  0  0  0  0  0  0  0  0
   -3.6480    2.4140    1.9510 C   0  0  0  0  0  0  0  0  0  0  0  0
   -3.0190    2.7430    3.2740 C   0  0  0  0  0  0  0  0  0  0  0  0
   -2.0150    1.6030    0.2740 C   0  0  0  0  0  0  0  0  0  0  0  0
   -0.7310    2.0760   -2.0790 N   0  0  0  0  0  0  0  0  0  0  0  0
  1  2  2  0
  2  3  1  0
  3  4  2  0
  3 30  1  0
  4  5  1  0
  5  6  2  0
  5  7  1  0
  7  8  2  3
  7 19  1  0
  8  9  1  0
  9 10  2  3
  9 16  1  0
 10 11  1  0
 11 12  2  0
 11 15  1  0
 12 13  1  0
 13 14  2  0
 14 15  1  0
 16 17  2  0
 16 18  1  0
 19 20  1  0
 19 30  2  0
 20 21  2  0
 20 29  1  0
 21 22  1  0
 22 23  1  0
 22 24  2  0
 24 25  1  0
 24 26  1  0
 26 27  1  0
 26 29  2  0
 27 28  1  0
M  CHG  2  16   1  18  -1
M  END
