
     RDKit          3D

 20 20  0  0  0  0  0  0  0  0999 V2000
    5.6880    2.4650   -1.3760 N   0  0  0  0  0  0  0  0  0  0  0  0
    4.7080    1.5890   -1.7040 O   0  0  0  0  0  0  0  0  0  0  0  0
    3.8850    1.4670   -0.5910 C   0  0  0  0  0  0  0  0  0  0  0  0
    2.7390    0.5060   -0.8320 C   0  0  2  0  0  0  0  0  0  0  0  0
    1.9660    0.9660   -1.8950 O   0  0  0  0  0  0  0  0  0  0  0  0
    1.9550    0.4300    0.4510 C   0  0  0  0  0  0  0  0  0  0  0  0
    0.7690   -0.5070    0.3450 C   0  0  1  0  0  0  0  0  0  0  0  0
   -0.1110   -0.0970   -0.6450 O   0  0  0  0  0  0  0  0  0  0  0  0
   -1.2990    0.2800   -0.0810 C   0  0  2  0  0  0  0  0  0  0  0  0
   -2.5170   -0.4140   -0.5920 C   0  0  0  0  0  0  0  0  0  0  0  0
   -3.6170    0.5970   -0.3410 C   0  0  1  0  0  0  0  0  0  0  0  0
   -4.1390    1.1290   -1.4990 O   0  0  0  0  0  0  0  0  0  0  0  0
   -4.6930    0.0400    0.5690 C   0  0  0  0  0  0  0  0  0  0  0  0
   -4.1390   -0.4880    1.7250 O   0  0  0  0  0  0  0  0  0  0  0  0
   -2.8480    1.7180    0.3670 C   0  0  0  0  0  0  0  0  0  0  0  0
   -1.6110    1.6230   -0.3100 O   0  0  0  0  0  0  0  0  0  0  0  0
    1.2140   -1.9460    0.2030 C   0  0  1  0  0  0  0  0  0  0  0  0
    2.0930   -2.1940    1.2720 O   0  0  0  0  0  0  0  0  0  0  0  0
    0.0380   -2.8790    0.3980 C   0  0  0  0  0  0  0  0  0  0  0  0
    0.4390   -4.2140    0.3970 O   0  0  0  0  0  0  0  0  0  0  0  0
  1  2  1  0
  2  3  1  0
  3  4  1  0
  4  5  1  6
  4  6  1  0
  7  6  1  6
  7  8  1  0
  7 17  1  0
  9  8  1  6
  9 10  1  0
  9 16  1  0
 10 11  1  0
 11 12  1  6
 11 13  1  0
 11 15  1  0
 13 14  1  0
 15 16  1  0
 17 18  1  1
 17 19  1  0
 19 20  1  0
M  END
