
     RDKit          3D

 20 19  0  0  0  0  0  0  0  0999 V2000
    7.2730    0.3300   -0.4150 C   0  0  0  0  0  0  0  0  0  0  0  0
    6.2640   -0.2720   -1.1060 O   0  0  0  0  0  0  0  0  0  0  0  0
    4.9790    0.1260   -0.8180 C   0  0  0  0  0  0  0  0  0  0  0  0
    4.6310   -0.1330    0.6090 C   0  0  0  0  0  0  0  0  0  0  0  0
    3.3450    0.2410    0.9740 O   0  0  0  0  0  0  0  0  0  0  0  0
    2.4130   -0.4360    0.2410 C   0  0  0  0  0  0  0  0  0  0  0  0
    0.9810   -0.0450    0.6510 C   0  0  2  0  0  0  0  0  0  0  0  0
    0.8460   -0.3630    1.9860 O   0  0  0  0  0  0  0  0  0  0  0  0
    0.0700   -0.8670   -0.2240 C   0  0  2  0  0  0  0  0  0  0  0  0
    0.2360   -0.5170   -1.5440 O   0  0  0  0  0  0  0  0  0  0  0  0
   -1.3670   -0.8310    0.2210 C   0  0  1  0  0  0  0  0  0  0  0  0
   -1.4610   -1.1910    1.5480 O   0  0  0  0  0  0  0  0  0  0  0  0
   -2.0450    0.4690   -0.0680 C   0  0  0  0  0  0  0  0  0  0  0  0
   -3.4850    0.4330    0.4080 C   0  0  1  0  0  0  0  0  0  0  0  0
   -3.4600    0.2010    1.7820 O   0  0  0  0  0  0  0  0  0  0  0  0
   -4.1350    1.7780    0.2060 C   0  0  0  0  0  0  0  0  0  0  0  0
   -4.2350    2.1360   -1.1170 O   0  0  0  0  0  0  0  0  0  0  0  0
   -4.2910   -0.6130   -0.2820 C   0  0  0  0  0  0  0  0  0  0  0  0
   -5.6610   -0.6390    0.1810 N   0  0  0  0  0  0  0  0  0  0  0  0
   -6.3760   -1.6120   -0.4590 O   0  0  0  0  0  0  0  0  0  0  0  0
  1  2  1  0
  2  3  1  0
  3  4  1  0
  4  5  1  0
  5  6  1  0
  6  7  1  0
  7  8  1  1
  7  9  1  0
  9 10  1  6
  9 11  1  0
 11 12  1  1
 11 13  1  0
 13 14  1  0
 14 15  1  1
 14 16  1  0
 14 18  1  0
 16 17  1  0
 18 19  1  0
 19 20  1  0
M  END
