
     RDKit          3D

 20 19  0  0  0  0  0  0  0  0999 V2000
   -6.5790    0.7150   -0.0530 N   0  0  0  0  0  0  0  0  0  0  0  0
   -5.5790    0.4220    0.9210 C   0  0  0  0  0  0  0  0  0  0  0  0
   -4.2140    0.9400    0.5880 C   0  0  2  0  0  0  0  0  0  0  0  0
   -4.2540    2.3280    0.4600 O   0  0  0  0  0  0  0  0  0  0  0  0
   -3.6430    0.3770   -0.6770 C   0  0  0  0  0  0  0  0  0  0  0  0
   -3.5410   -0.9820   -0.7020 O   0  0  0  0  0  0  0  0  0  0  0  0
   -2.7560   -1.5450    0.2640 C   0  0  0  0  0  0  0  0  0  0  0  0
   -1.3130   -1.0850    0.2280 C   0  0  1  0  0  0  0  0  0  0  0  0
   -0.6450   -1.7540    1.2810 O   0  0  0  0  0  0  0  0  0  0  0  0
   -0.6250   -1.5360   -1.0420 C   0  0  0  0  0  0  0  0  0  0  0  0
    0.7250   -1.2220   -1.0520 O   0  0  0  0  0  0  0  0  0  0  0  0
    0.9970    0.1240   -0.9530 C   0  0  0  0  0  0  0  0  0  0  0  0
    2.5240    0.2620   -0.9910 C   0  0  2  0  0  0  0  0  0  0  0  0
    2.9880   -0.2650   -2.2000 O   0  0  0  0  0  0  0  0  0  0  0  0
    3.0150   -0.4310    0.0840 O   0  0  0  0  0  0  0  0  0  0  0  0
    3.7420    0.3880    0.9140 C   0  0  0  0  0  0  0  0  0  0  0  0
    4.9450    0.9280    0.1930 C   0  0  1  0  0  0  0  0  0  0  0  0
    5.6410    1.7620    1.0840 O   0  0  0  0  0  0  0  0  0  0  0  0
    5.8120   -0.2660   -0.1760 C   0  0  0  0  0  0  0  0  0  0  0  0
    6.9950    0.1050   -0.7860 O   0  0  0  0  0  0  0  0  0  0  0  0
  1  2  1  0
  2  3  1  0
  3  4  1  6
  3  5  1  0
  5  6  1  0
  6  7  1  0
  7  8  1  0
  8  9  1  1
  8 10  1  0
 10 11  1  0
 11 12  1  0
 12 13  1  0
 13 14  1  6
 13 15  1  0
 15 16  1  0
 16 17  1  0
 17 18  1  1
 17 19  1  0
 19 20  1  0
M  END
