
     RDKit          3D

 15 16  0  0  0  0  0  0  0  0999 V2000
    2.4350    0.4510    1.8100 C   0  0  0  0  0  0  0  0  0  0  0  0
    2.5960    0.6310    0.3070 C   0  0  2  0  0  0  0  0  0  0  0  0
    3.5050   -0.4910   -0.2210 C   0  0  0  0  0  0  0  0  0  0  0  0
    3.1630    1.8940    0.0640 O   0  0  0  0  0  0  0  0  0  0  0  0
    1.2530    0.5620   -0.3220 C   0  0  0  0  0  0  0  0  0  0  0  0
    0.1490    0.0290    0.2820 N   0  0  0  0  0  0  0  0  0  0  0  0
   -0.9010    0.1290   -0.5540 C   0  0  0  0  0  0  0  0  0  0  0  0
   -2.2760   -0.3450   -0.2720 C   0  0  0  0  0  0  0  0  0  0  0  0
   -2.5590   -0.9820    0.8890 C   0  0  0  0  0  0  0  0  0  0  0  0
   -3.8600   -1.3940    1.1210 C   0  0  0  0  0  0  0  0  0  0  0  0
   -4.8440   -1.1740    0.2220 N   0  0  0  0  0  0  0  0  0  0  0  0
   -4.5810   -0.5430   -0.9380 C   0  0  0  0  0  0  0  0  0  0  0  0
   -3.2870   -0.1280   -1.1830 C   0  0  0  0  0  0  0  0  0  0  0  0
   -0.4480    0.7210   -1.6710 N   0  0  0  0  0  0  0  0  0  0  0  0
    0.8580    0.9860   -1.5400 N   0  0  0  0  0  0  0  0  0  0  0  0
  2  1  1  1
  2  3  1  0
  2  4  1  0
  2  5  1  0
  5  6  2  0
  5 15  1  0
  6  7  1  0
  7  8  1  0
  7 14  2  0
  8  9  2  0
  8 13  1  0
  9 10  1  0
 10 11  2  0
 11 12  1  0
 12 13  2  0
 14 15  1  0
M  END
