
     RDKit          3D

 20 19  0  0  0  0  0  0  0  0999 V2000
   -2.2950    0.1360   -4.6130 N   0  0  0  0  0  0  0  0  0  0  0  0
   -0.9370   -0.1860   -4.3390 C   0  0  0  0  0  0  0  0  0  0  0  0
   -0.3570    0.4570   -3.1310 C   0  0  2  0  0  0  0  0  0  0  0  0
    1.0060   -0.0230   -3.1180 O   0  0  0  0  0  0  0  0  0  0  0  0
   -0.9590    0.1640   -1.8100 C   0  0  2  0  0  0  0  0  0  0  0  0
   -2.3330    0.8580   -1.7410 C   0  0  0  0  0  0  0  0  0  0  0  0
   -2.1890    2.2150   -1.8910 O   0  0  0  0  0  0  0  0  0  0  0  0
   -0.1680    0.6970   -0.7790 O   0  0  0  0  0  0  0  0  0  0  0  0
    0.0310   -0.1980    0.2860 C   0  0  2  0  0  0  0  0  0  0  0  0
   -0.5390    0.1820    1.4090 O   0  0  0  0  0  0  0  0  0  0  0  0
   -1.6000   -0.1580    2.0520 C   0  0  0  0  0  0  0  0  0  0  0  0
   -1.7100   -1.5790    2.5230 C   0  0  0  0  0  0  0  0  0  0  0  0
   -0.6920   -1.9600    3.3850 O   0  0  0  0  0  0  0  0  0  0  0  0
    1.4100   -0.6990    0.4400 C   0  0  1  0  0  0  0  0  0  0  0  0
    1.8720   -1.4690   -0.6320 O   0  0  0  0  0  0  0  0  0  0  0  0
    2.4120    0.4210    0.7290 C   0  0  0  0  0  0  0  0  0  0  0  0
    2.1450    1.1650    1.9950 C   0  0  2  0  0  0  0  0  0  0  0  0
    3.1340    2.1550    2.1020 O   0  0  0  0  0  0  0  0  0  0  0  0
    2.2890    0.2650    3.2150 C   0  0  0  0  0  0  0  0  0  0  0  0
    3.5570   -0.3260    3.2300 O   0  0  0  0  0  0  0  0  0  0  0  0
  1  2  1  0
  2  3  1  0
  3  4  1  1
  3  5  1  0
  5  6  1  6
  5  8  1  0
  6  7  1  0
  9  8  1  6
  9 10  1  0
  9 14  1  0
 10 11  1  0
 11 12  1  0
 12 13  1  0
 14 15  1  6
 14 16  1  0
 16 17  1  0
 17 18  1  1
 17 19  1  0
 19 20  1  0
M  END
