
     RDKit          3D

 21 20  0  0  0  0  0  0  0  0999 V2000
    5.1080    0.3010   -1.2720 C   0  0  0  0  0  0  0  0  0  0  0  0
    4.2220    0.1550   -0.2010 O   0  0  0  0  0  0  0  0  0  0  0  0
    3.1730   -0.7590   -0.2710 C   0  0  0  0  0  0  0  0  0  0  0  0
    3.0670   -1.4340   -1.3310 O   0  0  0  0  0  0  0  0  0  0  0  0
    2.2130   -0.9470    0.8360 C   0  0  2  0  0  0  0  0  0  0  0  0
    3.0870   -1.5310    1.9800 C   0  0  0  0  0  0  0  0  0  0  0  0
    4.0180   -0.5340    2.2710 O   0  0  0  0  0  0  0  0  0  0  0  0
    1.2590   -1.8390    0.4650 O   0  0  0  0  0  0  0  0  0  0  0  0
   -0.0510   -1.5200    0.6430 C   0  0  0  0  0  0  0  0  0  0  0  0
   -0.4740   -0.3090   -0.1000 C   0  0  1  0  0  0  0  0  0  0  0  0
   -0.2630   -0.6070   -1.4720 O   0  0  0  0  0  0  0  0  0  0  0  0
   -1.8560    0.1620    0.1320 C   0  0  2  0  0  0  0  0  0  0  0  0
   -2.0270    0.4710    1.6340 C   0  0  0  0  0  0  0  0  0  0  0  0
   -3.3110    0.9250    1.9040 O   0  0  0  0  0  0  0  0  0  0  0  0
   -2.9370   -0.7080   -0.2880 C   0  0  0  0  0  0  0  0  0  0  0  0
   -4.2820   -0.2950   -0.0850 N   0  0  0  0  0  0  0  0  0  0  0  0
   -2.8370   -1.8330   -0.8350 O   0  0  0  0  0  0  0  0  0  0  0  0
   -2.0500    1.5180   -0.5290 C   0  0  2  0  0  0  0  0  0  0  0  0
   -3.3680    1.9630   -0.3000 O   0  0  0  0  0  0  0  0  0  0  0  0
   -1.7340    1.5510   -1.9880 C   0  0  0  0  0  0  0  0  0  0  0  0
   -2.5380    0.7080   -2.7480 O   0  0  0  0  0  0  0  0  0  0  0  0
  1  2  1  0
  2  3  1  0
  3  4  2  0
  3  5  1  0
  5  6  1  1
  5  8  1  0
  6  7  1  0
  8  9  1  0
  9 10  1  0
 10 11  1  6
 10 12  1  0
 12 13  1  1
 12 15  1  0
 12 18  1  0
 13 14  1  0
 15 16  1  0
 15 17  2  0
 18 19  1  6
 18 20  1  0
 20 21  1  0
M  END
