
     RDKit          3D

 25 26  0  0  0  0  0  0  0  0999 V2000
    5.7970   -0.0940   -0.0040 C   0  0  0  0  0  0  0  0  0  0  0  0
    4.3540   -0.3230   -0.3500 C   0  0  1  0  0  0  0  0  0  0  0  0
    3.6550   -1.0430    0.6320 O   0  0  0  0  0  0  0  0  0  0  0  0
    2.3270   -0.6610    0.5550 C   0  0  0  0  0  0  0  0  0  0  0  0
    1.1660   -1.4580    1.0920 C   0  0  1  0  0  0  0  0  0  0  0  0
    1.3800   -1.6220    2.5920 C   0  0  0  0  0  0  0  0  0  0  0  0
    1.4380   -0.3520    3.1840 O   0  0  0  0  0  0  0  0  0  0  0  0
   -0.0700   -0.7540    0.9150 N   0  0  0  0  0  0  0  0  0  0  0  0
   -1.1200   -1.3850    0.2090 C   0  0  0  0  0  0  0  0  0  0  0  0
   -1.0300   -2.5410   -0.2780 O   0  0  0  0  0  0  0  0  0  0  0  0
   -2.3830   -0.6680    0.0280 C   0  0  0  0  0  0  0  0  0  0  0  0
   -2.5540    0.4970    0.4870 O   0  0  0  0  0  0  0  0  0  0  0  0
   -3.4800   -1.2430   -0.6720 N   0  0  0  0  0  0  0  0  0  0  0  0
   -4.6900   -0.5170   -0.8280 C   0  0  0  0  0  0  0  0  0  0  0  0
   -5.8160   -1.0100   -0.3390 C   0  0  0  0  0  0  0  0  0  0  0  0
   -7.0870   -0.2700   -0.4900 C   0  0  0  0  0  0  0  0  0  0  0  0
   -8.1670   -0.7650   -0.1250 O   0  0  0  0  0  0  0  0  0  0  0  0
   -6.9560    1.0880   -1.1050 C   0  0  0  0  0  0  0  0  0  0  0  0
   -5.9780    1.0050   -2.0910 O   0  0  0  0  0  0  0  0  0  0  0  0
   -4.7250    0.7810   -1.5260 C   0  0  0  0  0  0  0  0  0  0  0  0
    2.2190    0.5100   -0.0590 C   0  0  0  0  0  0  0  0  0  0  0  0
    3.5680    0.9360   -0.4160 C   0  0  0  0  0  0  0  0  0  0  0  0
    3.9520    2.1650   -0.7200 C   0  0  0  0  0  0  0  0  0  0  0  0
    5.2890    2.4930   -1.0570 N   0  0  0  0  0  0  0  0  0  0  0  0
    5.7940    2.3360   -2.3040 O   0  0  0  0  0  0  0  0  0  0  0  0
  2  1  1  1
  2  3  1  0
  2 22  1  0
  3  4  1  0
  4  5  1  0
  4 21  2  0
  5  6  1  1
  5  8  1  0
  6  7  1  0
  8  9  1  0
  9 10  2  0
  9 11  1  0
 11 12  2  0
 11 13  1  0
 13 14  1  0
 14 15  2  0
 14 20  1  0
 15 16  1  0
 16 17  2  0
 16 18  1  0
 18 19  1  0
 19 20  1  0
 21 22  1  0
 22 23  2  3
 23 24  1  0
 24 25  1  0
M  END
