
     RDKit          3D

 25 26  0  0  0  0  0  0  0  0999 V2000
   -0.2900   -3.5700    0.4850 C   0  0  0  0  0  0  0  0  0  0  0  0
   -0.8280   -2.1750    0.6320 C   0  0  0  0  0  0  0  0  0  0  0  0
   -0.7650   -1.5710    1.7430 O   0  0  0  0  0  0  0  0  0  0  0  0
   -1.4010   -1.5550   -0.4860 N   0  0  0  0  0  0  0  0  0  0  0  0
   -1.9490   -0.2150   -0.4560 C   0  0  1  0  0  0  0  0  0  0  0  0
   -1.2920    0.6800   -1.4370 C   0  0  0  0  0  0  0  0  0  0  0  0
   -0.0210    0.6710   -1.6660 N   0  0  0  0  0  0  0  0  0  0  0  0
    0.7280   -0.2280   -0.9450 O   0  0  0  0  0  0  0  0  0  0  0  0
    2.0030    0.1180   -0.4920 C   0  0  0  0  0  0  0  0  0  0  0  0
    2.4010    1.2500   -0.7740 O   0  0  0  0  0  0  0  0  0  0  0  0
    2.6980   -0.8590    0.2370 N   0  0  0  0  0  0  0  0  0  0  0  0
    3.9980   -0.6590    0.7560 C   0  0  0  0  0  0  0  0  0  0  0  0
    4.4930   -1.5750    1.6770 C   0  0  0  0  0  0  0  0  0  0  0  0
    5.7430   -1.4450    2.2020 C   0  0  0  0  0  0  0  0  0  0  0  0
    6.5430   -0.3930    1.8240 C   0  0  0  0  0  0  0  0  0  0  0  0
    6.0650    0.5170    0.9160 C   0  0  0  0  0  0  0  0  0  0  0  0
    4.7900    0.3720    0.3890 C   0  0  0  0  0  0  0  0  0  0  0  0
   -2.1000    1.5650   -2.1330 O   0  0  0  0  0  0  0  0  0  0  0  0
   -3.2940    2.1050   -1.6120 C   0  0  2  0  0  0  0  0  0  0  0  0
   -3.0410    3.4720   -1.0140 C   0  0  0  0  0  0  0  0  0  0  0  0
   -4.2100    3.9980   -0.5050 O   0  0  0  0  0  0  0  0  0  0  0  0
   -3.9020    1.2330   -0.5420 C   0  0  1  0  0  0  0  0  0  0  0  0
   -5.2800    1.3230   -0.5140 O   0  0  0  0  0  0  0  0  0  0  0  0
   -3.4310   -0.2090   -0.7660 C   0  0  2  0  0  0  0  0  0  0  0  0
   -4.1500   -1.1010   -0.0040 O   0  0  0  0  0  0  0  0  0  0  0  0
  1  2  1  0
  2  3  2  0
  2  4  1  0
  5  4  1  6
  5  6  1  0
  5 24  1  0
  6  7  2  3
  6 18  1  0
  7  8  1  0
  8  9  1  0
  9 10  2  0
  9 11  1  0
 11 12  1  0
 12 13  2  0
 12 17  1  0
 13 14  1  0
 14 15  2  0
 15 16  1  0
 16 17  2  0
 18 19  1  0
 19 20  1  1
 19 22  1  0
 20 21  1  0
 22 23  1  6
 22 24  1  0
 24 25  1  1
M  END
