
     RDKit          3D

 25 26  0  0  0  0  0  0  0  0999 V2000
    7.9850   -0.2870    2.0410 C   0  0  0  0  0  0  0  0  0  0  0  0
    7.0010   -1.2520    1.4110 C   0  0  0  0  0  0  0  0  0  0  0  0
    5.7820   -0.5550    1.2490 O   0  0  0  0  0  0  0  0  0  0  0  0
    4.6450   -1.0910    0.7100 C   0  0  0  0  0  0  0  0  0  0  0  0
    4.6860   -2.2910    0.3310 O   0  0  0  0  0  0  0  0  0  0  0  0
    3.4060   -0.2860    0.5770 C   0  0  1  0  0  0  0  0  0  0  0  0
    3.5920    0.8380   -0.4430 C   0  0  0  0  0  0  0  0  0  0  0  0
    2.1450    1.2420   -0.6410 C   0  0  0  0  0  0  0  0  0  0  0  0
    1.4100   -0.0290   -0.2810 C   0  0  2  0  0  0  0  0  0  0  0  0
    0.5520    0.1470    0.9470 C   0  0  0  0  0  0  0  0  0  0  0  0
   -0.4980    1.1280    0.7740 N   0  0  0  0  0  0  0  0  0  0  0  0
   -1.5150    1.0370   -0.1940 C   0  0  0  0  0  0  0  0  0  0  0  0
   -1.5220    0.0310   -0.9720 O   0  0  0  0  0  0  0  0  0  0  0  0
   -2.4920    2.0560   -0.2750 N   0  0  0  0  0  0  0  0  0  0  0  0
   -3.5260    1.9030   -1.3060 C   0  0  0  0  0  0  0  0  0  0  0  0
   -4.2750    0.6220   -1.0470 C   0  0  0  0  0  0  0  0  0  0  0  0
   -4.2870   -0.3150   -1.9540 C   0  0  0  0  0  0  0  0  0  0  0  0
   -4.9960   -1.5880   -1.7700 C   0  0  2  0  0  0  0  0  0  0  0  0
   -6.0520   -1.6110   -2.8050 N   0  0  0  0  0  0  0  0  0  0  0  0
   -5.6330   -1.6710   -0.5480 O   0  0  0  0  0  0  0  0  0  0  0  0
   -5.6160   -0.6840    0.3970 C   0  0  0  0  0  0  0  0  0  0  0  0
   -6.2750   -0.7980    1.6320 O   0  0  0  0  0  0  0  0  0  0  0  0
   -4.9660    0.4720    0.2160 C   0  0  0  0  0  0  0  0  0  0  0  0
   -4.9470    1.4750    1.1740 O   0  0  0  0  0  0  0  0  0  0  0  0
    2.3680   -0.9870    0.0160 O   0  0  0  0  0  0  0  0  0  0  0  0
  1  2  1  0
  2  3  1  0
  3  4  1  0
  4  5  2  0
  6  4  1  6
  6  7  1  0
  6 25  1  0
  7  8  1  0
  8  9  1  0
  9 10  1  1
  9 25  1  0
 10 11  1  0
 11 12  1  0
 12 13  2  0
 12 14  1  0
 14 15  1  0
 15 16  1  0
 16 17  2  0
 16 23  1  0
 17 18  1  0
 18 19  1  6
 18 20  1  0
 20 21  1  0
 21 22  1  0
 21 23  2  0
 23 24  1  0
M  END
