
     RDKit          3D

 25 26  0  0  0  0  0  0  0  0999 V2000
   -4.7110   -2.7840   -0.5710 C   0  0  0  0  0  0  0  0  0  0  0  0
   -4.7480   -1.5210   -1.0620 O   0  0  0  0  0  0  0  0  0  0  0  0
   -3.7860   -0.6270   -0.5600 C   0  0  2  0  0  0  0  0  0  0  0  0
   -2.4170   -1.1760   -0.9010 C   0  0  0  0  0  0  0  0  0  0  0  0
   -1.3310   -0.3620   -0.4480 N   0  0  0  0  0  0  0  0  0  0  0  0
    0.0340   -0.7420   -0.7030 C   0  0  0  0  0  0  0  0  0  0  0  0
    0.2440   -1.7960   -1.3280 O   0  0  0  0  0  0  0  0  0  0  0  0
    1.1160    0.0510   -0.2620 N   0  0  0  0  0  0  0  0  0  0  0  0
    2.4990   -0.1830   -0.4310 C   0  0  0  0  0  0  0  0  0  0  0  0
    2.9490   -1.2650   -1.0800 C   0  0  0  0  0  0  0  0  0  0  0  0
    4.4120   -1.4470   -1.2260 C   0  0  2  0  0  0  0  0  0  0  0  0
    4.7450   -2.7870   -1.4310 O   0  0  0  0  0  0  0  0  0  0  0  0
    5.1250   -0.9140   -0.0190 C   0  0  0  0  0  0  0  0  0  0  0  0
    4.8150    0.4940    0.0030 O   0  0  0  0  0  0  0  0  0  0  0  0
    3.4320    0.7650    0.1480 C   0  0  0  0  0  0  0  0  0  0  0  0
    3.0730    1.8350    0.7850 C   0  0  0  0  0  0  0  0  0  0  0  0
    4.0700    2.7680    1.3570 C   0  0  0  0  0  0  0  0  0  0  0  0
    3.6550    3.7820    1.9590 O   0  0  0  0  0  0  0  0  0  0  0  0
    5.4300    2.5590    1.2490 O   0  0  0  0  0  0  0  0  0  0  0  0
    6.2960    3.4650    1.8030 N   0  0  0  0  0  0  0  0  0  0  0  0
   -4.0210   -0.5160    0.9000 C   0  0  0  0  0  0  0  0  0  0  0  0
   -4.0160    0.8610    1.4760 C   0  0  0  0  0  0  0  0  0  0  0  0
   -4.6210    1.7880    0.6260 O   0  0  0  0  0  0  0  0  0  0  0  0
   -3.9230    1.9150   -0.5510 C   0  0  0  0  0  0  0  0  0  0  0  0
   -3.9910    0.6490   -1.3310 C   0  0  0  0  0  0  0  0  0  0  0  0
  1  2  1  0
  2  3  1  0
  3  4  1  1
  3 21  1  0
  3 25  1  0
  4  5  1  0
  5  6  1  0
  6  7  2  0
  6  8  1  0
  8  9  1  0
  9 10  2  0
  9 15  1  0
 10 11  1  0
 11 12  1  1
 11 13  1  0
 13 14  1  0
 14 15  1  0
 15 16  2  3
 16 17  1  0
 17 18  2  0
 17 19  1  0
 19 20  1  0
 21 22  1  0
 22 23  1  0
 23 24  1  0
 24 25  1  0
M  END
