
     RDKit          3D

 14 15  0  0  0  0  0  0  0  0999 V2000
   -4.0110   -0.8420   -0.2320 S   0  0  0  0  0  0  0  0  0  0  0  0
   -2.3990   -0.5120   -0.1370 C   0  0  0  0  0  0  0  0  0  0  0  0
   -1.8180    0.6880   -0.3140 N   0  0  0  0  0  0  0  0  0  0  0  0
   -0.4690    0.5840   -0.1600 C   0  0  0  0  0  0  0  0  0  0  0  0
    0.5550    1.5020   -0.2390 C   0  0  0  0  0  0  0  0  0  0  0  0
    0.2060    3.3270   -0.6300 Br  0  0  0  0  0  0  0  0  0  0  0  0
    1.8540    1.0940   -0.0300 C   0  0  0  0  0  0  0  0  0  0  0  0
    3.2910    2.3490   -0.1340 Br  0  0  0  0  0  0  0  0  0  0  0  0
    2.0660   -0.2380    0.2510 C   0  0  0  0  0  0  0  0  0  0  0  0
    3.8740   -0.7870    0.5370 Br  0  0  0  0  0  0  0  0  0  0  0  0
    1.0460   -1.1620    0.3300 C   0  0  0  0  0  0  0  0  0  0  0  0
    1.3760   -3.0030    0.7230 Br  0  0  0  0  0  0  0  0  0  0  0  0
   -0.2500   -0.7500    0.1220 C   0  0  0  0  0  0  0  0  0  0  0  0
   -1.4300   -1.4130    0.1350 N   0  0  0  0  0  0  0  0  0  0  0  0
  1  2  2  0
  2  3  1  0
  2 14  1  0
  3  4  1  0
  4  5  2  0
  4 13  1  0
  5  6  1  0
  5  7  1  0
  7  8  1  0
  7  9  2  0
  9 10  1  0
  9 11  1  0
 11 12  1  0
 11 13  2  0
 13 14  1  0
M  END
