
     RDKit          3D

 14 14  0  0  0  0  0  0  0  0999 V2000
   -2.8550   -1.4370    0.0820 N   0  0  0  0  0  0  0  0  0  0  0  0
   -1.7890   -0.5710   -0.2450 C   0  0  0  0  0  0  0  0  0  0  0  0
   -1.9840    0.7260   -0.0780 C   0  0  0  0  0  0  0  0  0  0  0  0
   -3.7220    1.2090    0.5950 Br  0  0  0  0  0  0  0  0  0  0  0  0
   -1.0490    1.7890   -0.3420 C   0  0  0  0  0  0  0  0  0  0  0  0
    0.2630    1.8420   -0.3570 C   0  0  0  0  0  0  0  0  0  0  0  0
    1.0600    3.5180   -0.7730 Br  0  0  0  0  0  0  0  0  0  0  0  0
    1.1950    0.8010   -0.1010 N   0  0  0  0  0  0  0  0  0  0  0  0
    1.0990   -0.4760   -0.2480 C   0  0  0  0  0  0  0  0  0  0  0  0
    2.2420   -1.2950    0.1070 C   0  0  0  0  0  0  0  0  0  0  0  0
    3.3590   -0.7700    0.5710 C   0  0  0  0  0  0  0  0  0  0  0  0
    4.8470   -1.8730    1.0300 Br  0  0  0  0  0  0  0  0  0  0  0  0
    3.5070    1.0960    0.7940 Br  0  0  0  0  0  0  0  0  0  0  0  0
   -0.3060   -1.3990   -0.8500 S   0  0  0  0  0  0  0  0  0  0  0  0
  1  2  1  0
  2  3  2  0
  2 14  1  0
  3  4  1  0
  3  5  1  0
  5  6  2  0
  6  7  1  0
  6  8  1  0
  8  9  2  0
  9 10  1  0
  9 14  1  0
 10 11  2  3
 11 12  1  0
 11 13  1  0
M  END
