
     RDKit          3D

 14 15  0  0  0  0  0  0  0  0999 V2000
   -3.5870   -1.2070   -2.5030 Br  0  0  0  0  0  0  0  0  0  0  0  0
   -3.3200   -0.5420   -0.6900 C   0  0  0  0  0  0  0  0  0  0  0  0
   -2.3260    0.5490   -0.7490 C   0  0  0  0  0  0  0  0  0  0  0  0
   -1.1740    0.6100   -0.1470 C   0  0  0  0  0  0  0  0  0  0  0  0
   -0.7910   -0.4930    0.6810 C   0  0  0  0  0  0  0  0  0  0  0  0
    0.4260   -0.9900    0.8870 C   0  0  0  0  0  0  0  0  0  0  0  0
    0.4250   -2.4760    2.0840 Br  0  0  0  0  0  0  0  0  0  0  0  0
    1.6980   -0.5780    0.3600 C   0  0  0  0  0  0  0  0  0  0  0  0
    2.9810   -2.0260    0.3200 Br  0  0  0  0  0  0  0  0  0  0  0  0
    2.1480    0.5670   -0.0890 C   0  0  0  0  0  0  0  0  0  0  0  0
    3.5050    0.5830   -0.5400 N   0  0  0  0  0  0  0  0  0  0  0  0
    4.3600   -0.9700   -1.1510 Br  0  0  0  0  0  0  0  0  0  0  0  0
    1.4450    1.7970   -0.1780 N   0  0  0  0  0  0  0  0  0  0  0  0
   -0.2470    2.1100   -0.4900 S   0  0  0  0  0  0  0  0  0  0  0  0
  1  2  1  0
  2  3  1  0
  3  4  2  3
  4  5  1  0
  4 14  1  0
  5  6  2  0
  6  7  1  0
  6  8  1  0
  8  9  1  0
  8 10  2  0
 10 11  1  0
 10 13  1  0
 11 12  1  0
 13 14  1  0
 12  9  1  0
M  END
