
     RDKit          3D

 14 14  0  0  0  0  0  0  0  0999 V2000
    2.6010    1.3430   -1.0930 N   0  0  0  0  0  0  0  0  0  0  0  0
    3.0730    0.3230   -0.4530 C   0  0  0  0  0  0  0  0  0  0  0  0
    4.9360    0.1230   -0.1600 Br  0  0  0  0  0  0  0  0  0  0  0  0
    2.1640   -0.6960    0.0540 C   0  0  0  0  0  0  0  0  0  0  0  0
    0.8750   -0.5690   -0.1420 C   0  0  0  0  0  0  0  0  0  0  0  0
   -0.2340   -1.3590    0.2130 N   0  0  0  0  0  0  0  0  0  0  0  0
   -1.4730   -0.6970    0.2510 C   0  0  0  0  0  0  0  0  0  0  0  0
   -2.6310   -1.2670    0.5520 C   0  0  0  0  0  0  0  0  0  0  0  0
   -2.6390   -3.1260    0.9710 Br  0  0  0  0  0  0  0  0  0  0  0  0
   -1.4040    0.7280   -0.0870 C   0  0  0  0  0  0  0  0  0  0  0  0
   -2.1530    1.7510    0.1590 C   0  0  0  0  0  0  0  0  0  0  0  0
   -3.7830    1.7290    1.1640 Br  0  0  0  0  0  0  0  0  0  0  0  0
   -1.6180    3.4720   -0.5310 Br  0  0  0  0  0  0  0  0  0  0  0  0
    0.1580    0.8250   -1.0230 S   0  0  0  0  0  0  0  0  0  0  0  0
  1  2  2  0
  2  3  1  0
  2  4  1  0
  4  5  2  3
  5  6  1  0
  5 14  1  0
  6  7  1  0
  7  8  2  3
  7 10  1  0
  8  9  1  0
 10 11  2  3
 10 14  1  0
 11 12  1  0
 11 13  1  0
M  END
