
     RDKit          3D

 14 14  0  0  0  0  0  0  0  0999 V2000
    1.9410   -1.1790   -1.6600 N   0  0  0  0  0  0  0  0  0  0  0  0
    1.4170   -0.3470   -0.7930 C   0  0  0  0  0  0  0  0  0  0  0  0
    0.2740   -0.7720   -0.0910 N   0  0  0  0  0  0  0  0  0  0  0  0
   -0.8230   -0.0320    0.4200 C   0  0  0  0  0  0  0  0  0  0  0  0
   -2.1720   -0.5500    0.2440 C   0  0  0  0  0  0  0  0  0  0  0  0
   -3.6170    0.4670    1.0320 Br  0  0  0  0  0  0  0  0  0  0  0  0
   -2.5190   -1.6330   -0.3850 C   0  0  0  0  0  0  0  0  0  0  0  0
   -4.4140   -2.0650   -0.4450 Br  0  0  0  0  0  0  0  0  0  0  0  0
   -1.4090   -2.8560   -1.3090 Br  0  0  0  0  0  0  0  0  0  0  0  0
   -0.7730    1.1350    1.0970 C   0  0  0  0  0  0  0  0  0  0  0  0
    0.7040    2.0450    1.5180 S   0  0  0  0  0  0  0  0  0  0  0  0
    1.9060    1.9150    0.1890 C   0  0  0  0  0  0  0  0  0  0  0  0
    2.1090    0.9400   -0.6630 C   0  0  0  0  0  0  0  0  0  0  0  0
    3.5140    1.2730   -1.8980 Br  0  0  0  0  0  0  0  0  0  0  0  0
  1  2  2  0
  2  3  1  0
  2 13  1  0
  3  4  1  0
  4  5  1  0
  4 10  2  0
  5  6  1  0
  5  7  2  3
  7  8  1  0
  7  9  1  0
 10 11  1  0
 11 12  1  0
 12 13  2  0
 13 14  1  0
M  END
