
     RDKit          3D

 14 14  0  0  0  0  0  0  0  0999 V2000
   -2.6210   -1.9870    0.3670 N   0  0  0  0  0  0  0  0  0  0  0  0
   -1.6400   -0.9930    0.1940 C   0  0  0  0  0  0  0  0  0  0  0  0
   -0.3480   -1.2240    0.1870 C   0  0  0  0  0  0  0  0  0  0  0  0
    0.1170   -3.0900    0.4390 Br  0  0  0  0  0  0  0  0  0  0  0  0
    0.7220   -0.2780    0.0170 C   0  0  0  0  0  0  0  0  0  0  0  0
    2.1260   -0.7670    0.0430 C   0  0  0  0  0  0  0  0  0  0  0  0
    3.1310    0.0620   -0.1070 C   0  0  0  0  0  0  0  0  0  0  0  0
    4.9060   -0.6040   -0.0680 Br  0  0  0  0  0  0  0  0  0  0  0  0
    2.8470    1.9200   -0.3650 Br  0  0  0  0  0  0  0  0  0  0  0  0
    0.5240    0.9860   -0.1570 N   0  0  0  0  0  0  0  0  0  0  0  0
   -0.7130    1.6380   -0.2120 C   0  0  0  0  0  0  0  0  0  0  0  0
   -0.7900    2.9160   -0.3920 C   0  0  0  0  0  0  0  0  0  0  0  0
   -2.4880    3.8020   -0.4660 Br  0  0  0  0  0  0  0  0  0  0  0  0
   -2.1970    0.6860   -0.0290 S   0  0  0  0  0  0  0  0  0  0  0  0
  1  2  1  0
  2  3  2  0
  2 14  1  0
  3  4  1  0
  3  5  1  0
  5  6  1  0
  5 10  2  0
  6  7  2  3
  7  8  1  0
  7  9  1  0
 10 11  1  0
 11 12  2  3
 11 14  1  0
 12 13  1  0
M  END
