
     RDKit          3D

 14 15  0  0  0  0  0  0  0  0999 V2000
   -4.3750   -0.2160    0.4700 Br  0  0  0  0  0  0  0  0  0  0  0  0
   -2.5740    0.2560    0.1040 C   0  0  0  0  0  0  0  0  0  0  0  0
   -1.6410   -0.5990   -0.2660 C   0  0  0  0  0  0  0  0  0  0  0  0
   -1.2690   -2.3190   -0.6410 S   0  0  0  0  0  0  0  0  0  0  0  0
    0.4360   -1.9940   -1.2770 C   0  0  0  0  0  0  0  0  0  0  0  0
    0.7230   -0.7780   -0.4030 C   0  0  0  0  0  0  0  0  0  0  0  0
    1.8840   -0.6940    0.2330 C   0  0  0  0  0  0  0  0  0  0  0  0
    2.3080    0.4090    1.1100 C   0  0  1  0  0  0  0  0  0  0  0  0
    3.7570   -0.2820    2.2380 Br  0  0  0  0  0  0  0  0  0  0  0  0
    3.0490    1.8420    0.0420 Br  0  0  0  0  0  0  0  0  0  0  0  0
    0.9230    1.0230    2.3030 Br  0  0  0  0  0  0  0  0  0  0  0  0
   -0.3870    0.0840   -0.4470 N   0  0  0  0  0  0  0  0  0  0  0  0
   -0.6970    1.4400   -0.6160 N   0  0  0  0  0  0  0  0  0  0  0  0
   -1.9250    1.5870    0.1390 C   0  0  0  0  0  0  0  0  0  0  0  0
  1  2  1  0
  2  3  2  0
  2 14  1  0
  3  4  1  0
  3 12  1  0
  4  5  1  0
  5  6  1  0
  6  7  2  3
  6 12  1  0
  7  8  1  0
  8  9  1  1
  8 10  1  0
  8 11  1  0
 12 13  1  0
 13 14  1  0
M  END
