
     RDKit          3D

 13 13  0  0  0  0  0  0  0  0999 V2000
    4.4000   -0.8590   -0.0880 Br  0  0  0  0  0  0  0  0  0  0  0  0
    2.5650   -0.3500   -0.0110 C   0  0  0  0  0  0  0  0  0  0  0  0
    2.2340    0.8780   -0.3770 C   0  0  0  0  0  0  0  0  0  0  0  0
    0.9050    1.5060   -0.4080 C   0  0  0  0  0  0  0  0  0  0  0  0
   -0.2490    0.9580   -0.1530 N   0  0  0  0  0  0  0  0  0  0  0  0
   -0.5680   -0.3650    0.2200 C   0  0  0  0  0  0  0  0  0  0  0  0
   -1.8380   -0.7260    0.2800 C   0  0  0  0  0  0  0  0  0  0  0  0
   -2.9640    0.1720   -0.0200 C   0  0  1  0  0  0  0  0  0  0  0  0
   -3.6370    0.8670    1.6490 Br  0  0  0  0  0  0  0  0  0  0  0  0
   -2.5140    1.5620   -1.2640 Br  0  0  0  0  0  0  0  0  0  0  0  0
   -4.4010   -0.8780   -0.8060 Br  0  0  0  0  0  0  0  0  0  0  0  0
    0.3750   -1.3780    0.5470 N   0  0  0  0  0  0  0  0  0  0  0  0
    1.6630   -1.3790    0.4550 C   0  0  0  0  0  0  0  0  0  0  0  0
  1  2  1  0
  2  3  2  0
  2 13  1  0
  3  4  1  0
  4  5  2  0
  5  6  1  0
  6  7  2  3
  6 12  1  0
  7  8  1  0
  8  9  1  1
  8 10  1  0
  8 11  1  0
 12 13  2  0
M  END
