
     RDKit          3D

 13 13  0  0  0  0  0  0  0  0999 V2000
    4.5200   -0.6030    0.5060 Br  0  0  0  0  0  0  0  0  0  0  0  0
    2.6750   -0.0830    0.3300 C   0  0  0  0  0  0  0  0  0  0  0  0
    2.2140    0.7480    1.2060 N   0  0  0  0  0  0  0  0  0  0  0  0
    0.8850    1.2930    1.3030 C   0  0  0  0  0  0  0  0  0  0  0  0
   -0.2000    0.9740    0.6840 N   0  0  0  0  0  0  0  0  0  0  0  0
   -0.3860   -0.0370   -0.2970 C   0  0  0  0  0  0  0  0  0  0  0  0
   -1.6020   -0.4560   -0.5480 C   0  0  0  0  0  0  0  0  0  0  0  0
   -2.8030    0.0880    0.1570 C   0  0  2  0  0  0  0  0  0  0  0  0
   -2.2800    0.5340    1.9630 Br  0  0  0  0  0  0  0  0  0  0  0  0
   -4.2320   -1.1900    0.1260 Br  0  0  0  0  0  0  0  0  0  0  0  0
   -3.3910    1.6630   -0.8000 Br  0  0  0  0  0  0  0  0  0  0  0  0
    0.6580   -0.6830   -1.0830 C   0  0  0  0  0  0  0  0  0  0  0  0
    1.9700   -0.6950   -0.8010 C   0  0  0  0  0  0  0  0  0  0  0  0
  1  2  1  0
  2  3  2  0
  2 13  1  0
  3  4  1  0
  4  5  2  0
  5  6  1  0
  6  7  2  3
  6 12  1  0
  7  8  1  0
  8  9  1  1
  8 10  1  0
  8 11  1  0
 12 13  2  0
M  END
