
     RDKit          3D

 13 13  0  0  0  0  0  0  0  0999 V2000
   -1.7060    2.0720    1.4380 C   0  0  0  0  0  0  0  0  0  0  0  0
   -1.1310    1.2610    0.5730 C   0  0  0  0  0  0  0  0  0  0  0  0
   -1.7590    0.0980   -0.1830 C   0  0  0  0  0  0  0  0  0  0  0  0
   -0.6390   -0.8700   -0.0340 N   0  0  0  0  0  0  0  0  0  0  0  0
   -0.7880   -2.2390    0.2930 C   0  0  1  0  0  0  0  0  0  0  0  0
   -2.2170   -2.3720    1.6600 Br  0  0  0  0  0  0  0  0  0  0  0  0
   -1.2780   -3.4040   -1.1310 Br  0  0  0  0  0  0  0  0  0  0  0  0
    0.7600   -2.9960    1.2060 Br  0  0  0  0  0  0  0  0  0  0  0  0
    0.5390   -0.1190   -0.2890 C   0  0  0  0  0  0  0  0  0  0  0  0
    1.6810   -0.4520   -0.8240 C   0  0  0  0  0  0  0  0  0  0  0  0
    2.7680    0.5370   -0.9710 C   0  0  0  0  0  0  0  0  0  0  0  0
    1.9660   -2.1990   -1.4960 Br  0  0  0  0  0  0  0  0  0  0  0  0
    0.2140    1.2430    0.1080 N   0  0  0  0  0  0  0  0  0  0  0  0
  1  2  2  0
  2  3  1  0
  2 13  1  0
  3  4  1  0
  4  5  1  0
  4  9  1  0
  5  6  1  1
  5  7  1  0
  5  8  1  0
  9 10  2  3
  9 13  1  0
 10 11  1  0
 10 12  1  0
M  END
