
     RDKit          3D

 13 13  0  0  0  0  0  0  0  0999 V2000
    0.6230   -1.4980   -1.3220 N   0  0  0  0  0  0  0  0  0  0  0  0
   -0.2730   -0.8570   -0.6100 C   0  0  0  0  0  0  0  0  0  0  0  0
   -1.6150   -1.3280   -0.6030 N   0  0  0  0  0  0  0  0  0  0  0  0
   -2.5460   -0.7590    0.0650 C   0  0  0  0  0  0  0  0  0  0  0  0
   -4.3480   -1.4350    0.0410 Br  0  0  0  0  0  0  0  0  0  0  0  0
   -2.1920    0.4160    0.8420 C   0  0  0  0  0  0  0  0  0  0  0  0
   -1.0010    0.9510    0.9240 C   0  0  0  0  0  0  0  0  0  0  0  0
   -0.6190    2.4950    1.9670 Br  0  0  0  0  0  0  0  0  0  0  0  0
    0.1000    0.3170    0.1620 C   0  0  0  0  0  0  0  0  0  0  0  0
    1.2970    0.8110    0.2100 C   0  0  0  0  0  0  0  0  0  0  0  0
    2.4700    0.2910   -0.4870 C   0  0  2  0  0  0  0  0  0  0  0  0
    3.0440   -1.3630    0.3300 Br  0  0  0  0  0  0  0  0  0  0  0  0
    3.9560    1.5640   -0.3550 Br  0  0  0  0  0  0  0  0  0  0  0  0
  1  2  2  0
  2  3  1  0
  2  9  1  0
  3  4  2  0
  4  5  1  0
  4  6  1  0
  6  7  2  0
  7  8  1  0
  7  9  1  0
  9 10  2  3
 10 11  1  0
 11 12  1  1
 11 13  1  0
M  END
