
     RDKit          3D

 13 14  0  0  0  0  0  0  0  0999 V2000
   -3.6350    1.4830   -0.0790 Br  0  0  0  0  0  0  0  0  0  0  0  0
   -1.9150    0.6500   -0.0210 C   0  0  0  0  0  0  0  0  0  0  0  0
   -1.7790   -0.7060    0.1870 C   0  0  0  0  0  0  0  0  0  0  0  0
   -3.3550   -1.7740    0.4230 Br  0  0  0  0  0  0  0  0  0  0  0  0
   -0.5200   -1.2660    0.2220 C   0  0  0  0  0  0  0  0  0  0  0  0
   -0.3710   -3.1580    0.5140 Br  0  0  0  0  0  0  0  0  0  0  0  0
    0.6100   -0.4950    0.0520 C   0  0  0  0  0  0  0  0  0  0  0  0
    1.9340   -0.7820    0.0410 N   0  0  0  0  0  0  0  0  0  0  0  0
    2.5930    0.3710   -0.1690 C   0  0  0  0  0  0  0  0  0  0  0  0
    1.7220    1.3890   -0.2930 N   0  0  0  0  0  0  0  0  0  0  0  0
    0.4690    0.8620   -0.1560 C   0  0  0  0  0  0  0  0  0  0  0  0
   -0.7920    1.4320   -0.1920 C   0  0  0  0  0  0  0  0  0  0  0  0
   -0.9430    3.3270   -0.4850 Br  0  0  0  0  0  0  0  0  0  0  0  0
  1  2  1  0
  2  3  2  0
  2 12  1  0
  3  4  1  0
  3  5  1  0
  5  6  1  0
  5  7  2  0
  7  8  1  0
  7 11  1  0
  8  9  1  0
  9 10  2  0
 10 11  1  0
 11 12  2  0
 12 13  1  0
M  END
