
     RDKit          3D

 24 25  0  0  0  0  0  0  0  0999 V2000
    3.7450   -1.0750    0.3660 O   0  0  0  0  0  0  0  0  0  0  0  0
    4.4130   -0.9990   -0.6820 C   0  0  0  0  0  0  0  0  0  0  0  0
    3.6800   -1.0010   -1.9030 N   0  0  0  0  0  0  0  0  0  0  0  0
    2.2850   -1.0830   -1.9270 N   0  0  0  0  0  0  0  0  0  0  0  0
    1.5740   -0.0390   -1.2250 C   0  0  0  0  0  0  0  0  0  0  0  0
    2.1890    0.8750   -0.6370 O   0  0  0  0  0  0  0  0  0  0  0  0
    0.2110   -0.0470   -1.2000 O   0  0  0  0  0  0  0  0  0  0  0  0
   -0.5910    0.8910   -0.5750 C   0  0  1  0  0  0  0  0  0  0  0  0
   -0.2940    0.9550    0.8070 O   0  0  0  0  0  0  0  0  0  0  0  0
   -0.5440    2.2880   -1.1160 C   0  0  0  0  0  0  0  0  0  0  0  0
    0.6830    2.9010   -1.0840 O   0  0  0  0  0  0  0  0  0  0  0  0
   -2.0370    0.3420   -0.7190 C   0  0  2  0  0  0  0  0  0  0  0  0
   -3.0280    1.2590   -0.0830 C   0  0  0  0  0  0  0  0  0  0  0  0
   -4.3790    0.6010   -0.0640 C   0  0  2  0  0  0  0  0  0  0  0  0
   -4.6260    0.0910    1.3390 C   0  0  0  0  0  0  0  0  0  0  0  0
   -4.1120   -1.3370    1.3570 C   0  0  0  0  0  0  0  0  0  0  0  0
   -3.4900   -1.5460   -0.0330 C   0  0  1  0  0  0  0  0  0  0  0  0
   -3.5710   -2.8590   -0.4290 O   0  0  0  0  0  0  0  0  0  0  0  0
   -4.4350   -0.6690   -0.8530 C   0  0  0  0  0  0  0  0  0  0  0  0
   -2.1080   -1.0000    0.0030 C   0  0  0  0  0  0  0  0  0  0  0  0
    5.7780   -0.9180   -0.7030 O   0  0  0  0  0  0  0  0  0  0  0  0
    6.5240   -0.9130    0.4790 C   0  0  0  0  0  0  0  0  0  0  0  0
    6.2120    0.2290    1.4030 C   0  0  0  0  0  0  0  0  0  0  0  0
    6.4500    1.4600    0.8060 O   0  0  0  0  0  0  0  0  0  0  0  0
  1  2  2  0
  2  3  1  0
  2 21  1  0
  3  4  1  0
  4  5  1  0
  5  6  2  0
  5  7  1  0
  7  8  1  0
  8  9  1  1
  8 10  1  0
  8 12  1  0
 10 11  1  0
 12 13  1  1
 12 20  1  0
 14 13  1  1
 14 15  1  0
 14 19  1  0
 15 16  1  0
 16 17  1  0
 17 18  1  6
 17 19  1  0
 17 20  1  0
 21 22  1  0
 22 23  1  0
 23 24  1  0
M  END
