
     RDKit          3D

 25 26  0  0  0  0  0  0  0  0999 V2000
   -1.2430    2.7120    1.0380 O   0  0  0  0  0  0  0  0  0  0  0  0
   -1.4620    1.6780    0.3560 C   0  0  0  0  0  0  0  0  0  0  0  0
   -0.4860    1.1280   -0.5110 N   0  0  0  0  0  0  0  0  0  0  0  0
   -0.3680   -0.2960   -0.5880 C   0  0  2  0  0  0  0  0  0  0  0  0
    0.2650   -0.7290   -1.7360 O   0  0  0  0  0  0  0  0  0  0  0  0
    1.4760   -1.3610   -1.4990 C   0  0  0  0  0  0  0  0  0  0  0  0
    2.5030   -0.4700   -0.8370 C   0  0  2  0  0  0  0  0  0  0  0  0
    2.7090    0.6120   -1.6970 O   0  0  0  0  0  0  0  0  0  0  0  0
    3.8370   -1.1970   -0.7810 C   0  0  0  0  0  0  0  0  0  0  0  0
    4.8850   -0.3310   -0.2780 N   0  0  0  0  0  0  0  0  0  0  0  0
    4.6900   -0.0080    1.1260 C   0  0  0  0  0  0  0  0  0  0  0  0
    5.8630    0.9080    1.5030 C   0  0  0  0  0  0  0  0  0  0  0  0
    5.7390    2.0190    0.6530 O   0  0  0  0  0  0  0  0  0  0  0  0
   -1.6460   -1.0640   -0.4190 C   0  0  1  0  0  0  0  0  0  0  0  0
   -1.2920   -2.3540   -0.0670 O   0  0  0  0  0  0  0  0  0  0  0  0
   -2.0860   -2.9740    0.8430 C   0  0  0  0  0  0  0  0  0  0  0  0
   -2.4730   -2.1800    2.0520 C   0  0  0  0  0  0  0  0  0  0  0  0
   -2.2860   -0.8210    1.8140 O   0  0  0  0  0  0  0  0  0  0  0  0
   -2.6460   -0.4810    0.5050 C   0  0  2  0  0  0  0  0  0  0  0  0
   -3.8950   -1.0230    0.1740 O   0  0  0  0  0  0  0  0  0  0  0  0
   -2.7740    1.0000    0.4470 C   0  0  2  0  0  0  0  0  0  0  0  0
   -3.6280    1.5000   -0.6840 C   0  0  1  0  0  0  0  0  0  0  0  0
   -4.8910    0.9300   -0.7020 O   0  0  0  0  0  0  0  0  0  0  0  0
   -3.7120    3.0130   -0.5770 C   0  0  0  0  0  0  0  0  0  0  0  0
   -4.3620    3.3850    0.5890 O   0  0  0  0  0  0  0  0  0  0  0  0
  1  2  2  0
  2  3  1  0
 21  2  1  6
  3  4  1  0
  4  5  1  6
  4 14  1  0
  5  6  1  0
  6  7  1  0
  7  8  1  6
  7  9  1  0
  9 10  1  0
 10 11  1  0
 11 12  1  0
 12 13  1  0
 14 15  1  1
 14 19  1  0
 15 16  1  0
 16 17  1  0
 17 18  1  0
 18 19  1  0
 19 20  1  6
 19 21  1  0
 21 22  1  0
 22 23  1  1
 22 24  1  0
 24 25  1  0
M  END
