
     RDKit          3D

 25 27  0  0  0  0  0  0  0  0999 V2000
    4.5450    2.4210   -0.3290 O   0  0  0  0  0  0  0  0  0  0  0  0
    4.1270    1.5940    0.6880 C   0  0  0  0  0  0  0  0  0  0  0  0
    3.1660    0.5350    0.2210 C   0  0  1  0  0  0  0  0  0  0  0  0
    2.0150    1.0470   -0.3370 O   0  0  0  0  0  0  0  0  0  0  0  0
    1.0600    0.0130   -0.3480 C   0  0  1  0  0  0  0  0  0  0  0  0
   -0.2130    0.5250   -0.5630 O   0  0  0  0  0  0  0  0  0  0  0  0
   -1.0870    0.2630    0.4750 C   0  0  1  0  0  0  0  0  0  0  0  0
   -1.6050    1.4780    1.1580 C   0  0  2  0  0  0  0  0  0  0  0  0
   -2.5170    1.0710    2.1350 O   0  0  0  0  0  0  0  0  0  0  0  0
   -2.3960    2.2850    0.1440 C   0  0  1  0  0  0  0  0  0  0  0  0
   -1.6820    2.4940   -1.0220 O   0  0  0  0  0  0  0  0  0  0  0  0
   -3.5730    1.4310   -0.2210 C   0  0  0  0  0  0  0  0  0  0  0  0
   -4.8260    1.8100   -0.5200 N   0  0  0  0  0  0  0  0  0  0  0  0
   -5.4920    0.6590   -0.7730 C   0  0  0  0  0  0  0  0  0  0  0  0
   -4.6190   -0.3870   -0.6200 C   0  0  0  0  0  0  0  0  0  0  0  0
   -3.4210    0.1180   -0.2740 N   0  0  0  0  0  0  0  0  0  0  0  0
   -2.1960   -0.6000   -0.0070 C   0  0  2  0  0  0  0  0  0  0  0  0
   -2.5030   -1.6760    1.0150 C   0  0  0  0  0  0  0  0  0  0  0  0
   -1.3990   -2.4900    1.2540 O   0  0  0  0  0  0  0  0  0  0  0  0
    1.4920   -0.9480   -1.4360 C   0  0  2  0  0  0  0  0  0  0  0  0
    0.6010   -2.0050   -1.5680 O   0  0  0  0  0  0  0  0  0  0  0  0
    2.8120   -1.5620   -0.9580 C   0  0  1  0  0  0  0  0  0  0  0  0
    3.2780   -2.5310   -1.8060 O   0  0  0  0  0  0  0  0  0  0  0  0
    3.7910   -0.4010   -0.7930 C   0  0  2  0  0  0  0  0  0  0  0  0
    5.0460   -0.8280   -0.4360 O   0  0  0  0  0  0  0  0  0  0  0  0
  1  2  1  0
  3  2  1  6
  3  4  1  0
  3 24  1  0
  4  5  1  0
  5  6  1  6
  5 20  1  0
  7  6  1  6
  7  8  1  0
  7 17  1  0
  8  9  1  1
  8 10  1  0
 10 11  1  6
 10 12  1  0
 12 13  2  0
 12 16  1  0
 13 14  1  0
 14 15  2  0
 15 16  1  0
 16 17  1  0
 17 18  1  1
 18 19  1  0
 20 21  1  1
 20 22  1  0
 22 23  1  6
 22 24  1  0
 24 25  1  1
M  END
