
     RDKit          3D

 24 25  0  0  0  0  0  0  0  0999 V2000
   -5.6050    3.3860    0.5680 C   0  0  0  0  0  0  0  0  0  0  0  0
   -4.5710    2.5720    1.1240 N   0  0  0  0  0  0  0  0  0  0  0  0
   -3.9280    1.5010    0.4200 C   0  0  0  0  0  0  0  0  0  0  0  0
   -4.3260    1.2900   -0.7690 O   0  0  0  0  0  0  0  0  0  0  0  0
   -2.9090    0.7340    1.0320 N   0  0  0  0  0  0  0  0  0  0  0  0
   -2.2790   -0.3230    0.3260 C   0  0  2  0  0  0  0  0  0  0  0  0
   -2.1700   -1.5720    1.1590 C   0  0  0  0  0  0  0  0  0  0  0  0
   -0.8050   -1.7950    0.5630 C   0  0  2  0  0  0  0  0  0  0  0  0
    0.1780   -2.1880    1.4350 O   0  0  0  0  0  0  0  0  0  0  0  0
   -0.7660   -0.2870    0.2750 C   0  0  1  0  0  0  0  0  0  0  0  0
   -0.1700   -0.2730   -1.0880 C   0  0  1  0  0  0  0  0  0  0  0  0
   -0.6760    0.8460   -1.7630 O   0  0  0  0  0  0  0  0  0  0  0  0
    1.3170   -0.2680   -1.0160 C   0  0  0  0  0  0  0  0  0  0  0  0
    1.9080    0.9000   -0.3050 C   0  0  0  0  0  0  0  0  0  0  0  0
    3.3920    0.7870   -0.3080 C   0  0  0  0  0  0  0  0  0  0  0  0
    3.9420   -0.1970   -0.8620 O   0  0  0  0  0  0  0  0  0  0  0  0
    4.2120    1.7360    0.2840 O   0  0  0  0  0  0  0  0  0  0  0  0
    5.6060    1.6670    0.3030 C   0  0  0  0  0  0  0  0  0  0  0  0
    6.1290    0.4270    1.0010 C   0  0  0  0  0  0  0  0  0  0  0  0
    7.5180    0.4430    0.9720 O   0  0  0  0  0  0  0  0  0  0  0  0
   -0.6810   -1.3900   -1.7370 O   0  0  0  0  0  0  0  0  0  0  0  0
   -0.7830   -2.4030   -0.8020 C   0  0  2  0  0  0  0  0  0  0  0  0
   -1.9260   -3.3400   -1.0720 C   0  0  0  0  0  0  0  0  0  0  0  0
   -1.7320   -3.9170   -2.3200 O   0  0  0  0  0  0  0  0  0  0  0  0
  1  2  1  0
  2  3  1  0
  3  4  2  0
  3  5  1  0
  6  5  1  1
  6  7  1  0
 10  6  1  6
  7  8  1  0
  8  9  1  1
  8 10  1  0
  8 22  1  0
 10 11  1  0
 11 12  1  6
 11 13  1  0
 11 21  1  0
 13 14  1  0
 14 15  1  0
 15 16  2  0
 15 17  1  0
 17 18  1  0
 18 19  1  0
 19 20  1  0
 21 22  1  0
 22 23  1  6
 23 24  1  0
M  END
