
     RDKit          3D

 24 25  0  0  0  0  0  0  0  0999 V2000
   -6.1580   -0.5960    3.1550 C   0  0  0  0  0  0  0  0  0  0  0  0
   -4.8720   -0.8870    2.5850 O   0  0  0  0  0  0  0  0  0  0  0  0
   -4.1540    0.0580    1.8790 C   0  0  0  0  0  0  0  0  0  0  0  0
   -4.6890    1.2010    1.7590 O   0  0  0  0  0  0  0  0  0  0  0  0
   -2.8770   -0.1860    1.2980 N   0  0  0  0  0  0  0  0  0  0  0  0
   -2.2240    0.8590    0.5910 C   0  0  1  0  0  0  0  0  0  0  0  0
   -0.8900    1.1780    1.2670 C   0  0  0  0  0  0  0  0  0  0  0  0
   -0.1770    0.5520    0.0710 C   0  0  1  0  0  0  0  0  0  0  0  0
    0.2370   -0.7270    0.4310 O   0  0  0  0  0  0  0  0  0  0  0  0
    0.6140   -1.5140   -0.6290 C   0  0  2  0  0  0  0  0  0  0  0  0
    2.0400   -1.3130   -0.9510 C   0  0  0  0  0  0  0  0  0  0  0  0
    2.5180   -1.9730   -1.9110 O   0  0  0  0  0  0  0  0  0  0  0  0
    2.8990   -0.4280   -0.2480 N   0  0  0  0  0  0  0  0  0  0  0  0
    4.2810   -0.2300   -0.5550 C   0  0  2  0  0  0  0  0  0  0  0  0
    5.1860   -0.6300    0.6050 C   0  0  0  0  0  0  0  0  0  0  0  0
    6.5200   -0.4330    0.2940 O   0  0  0  0  0  0  0  0  0  0  0  0
    4.5720    1.1910   -0.9320 C   0  0  0  0  0  0  0  0  0  0  0  0
    3.6180    1.9880   -0.9310 O   0  0  0  0  0  0  0  0  0  0  0  0
    5.8540    1.5880   -1.2660 O   0  0  0  0  0  0  0  0  0  0  0  0
   -0.2950   -1.2090   -1.8070 C   0  0  0  0  0  0  0  0  0  0  0  0
   -1.6790   -0.8020   -1.2780 C   0  0  2  0  0  0  0  0  0  0  0  0
   -2.5350   -0.8150   -2.3760 O   0  0  0  0  0  0  0  0  0  0  0  0
   -1.5090    0.5460   -0.6620 C   0  0  1  0  0  0  0  0  0  0  0  0
   -1.6670    1.6490   -1.6920 C   0  0  0  0  0  0  0  0  0  0  0  0
  1  2  1  0
  2  3  1  0
  3  4  2  0
  3  5  1  0
  6  5  1  1
  6  7  1  0
  6 23  1  0
  8  7  1  1
  8  9  1  0
  8 23  1  0
  9 10  1  0
 10 11  1  6
 10 20  1  0
 11 12  2  0
 11 13  1  0
 13 14  1  0
 14 15  1  1
 14 17  1  0
 15 16  1  0
 17 18  2  0
 17 19  1  0
 20 21  1  0
 21 22  1  6
 21 23  1  0
 23 24  1  6
M  END
