
     RDKit          3D

 24 25  0  0  0  0  0  0  0  0999 V2000
   -1.0360   -2.7750    2.7160 N   0  0  0  0  0  0  0  0  0  0  0  0
    0.1680   -2.2830    2.1380 C   0  0  0  0  0  0  0  0  0  0  0  0
    0.0920   -1.5280    1.0530 C   0  0  0  0  0  0  0  0  0  0  0  0
    1.3000   -1.0900    0.5510 O   0  0  0  0  0  0  0  0  0  0  0  0
    1.7240   -0.8960   -0.7620 C   0  0  2  0  0  0  0  0  0  0  0  0
    2.2540   -2.0590   -1.4140 N   0  0  0  0  0  0  0  0  0  0  0  0
    2.7310    0.2400   -0.7450 C   0  0  1  0  0  0  0  0  0  0  0  0
    3.2150    0.4240   -2.1690 C   0  0  0  0  0  0  0  0  0  0  0  0
    4.1940    1.4050   -2.2630 O   0  0  0  0  0  0  0  0  0  0  0  0
    2.1870    1.3820   -0.2170 O   0  0  0  0  0  0  0  0  0  0  0  0
    2.5230    1.6540    1.0960 C   0  0  0  0  0  0  0  0  0  0  0  0
    1.7630    1.0250    2.0410 O   0  0  0  0  0  0  0  0  0  0  0  0
    0.5070    1.5190    2.2510 C   0  0  0  0  0  0  0  0  0  0  0  0
   -0.2290    2.0000    1.0620 C   0  0  0  0  0  0  0  0  0  0  0  0
   -0.7100    1.1060    0.1500 O   0  0  0  0  0  0  0  0  0  0  0  0
   -1.5400    0.0430    0.0540 C   0  0  0  0  0  0  0  0  0  0  0  0
   -1.2200   -1.2060    0.4610 C   0  0  0  0  0  0  0  0  0  0  0  0
   -2.3410   -2.1330    0.2470 C   0  0  2  0  0  0  0  0  0  0  0  0
   -2.0540   -3.1940   -0.6200 O   0  0  0  0  0  0  0  0  0  0  0  0
   -3.3200   -1.3630   -0.3530 O   0  0  0  0  0  0  0  0  0  0  0  0
   -2.9000   -0.0630   -0.4730 C   0  0  0  0  0  0  0  0  0  0  0  0
   -3.7340    0.8350   -1.0130 C   0  0  0  0  0  0  0  0  0  0  0  0
   -3.3730    2.2720   -1.1900 C   0  0  0  0  0  0  0  0  0  0  0  0
   -3.4450    2.5660   -2.5610 O   0  0  0  0  0  0  0  0  0  0  0  0
  1  2  1  0
  2  3  2  3
  3  4  1  0
  3 17  1  0
  4  5  1  0
  5  6  1  1
  5  7  1  0
  7  8  1  6
  7 10  1  0
  8  9  1  0
 10 11  1  0
 11 12  1  0
 12 13  1  0
 13 14  1  0
 14 15  1  0
 15 16  1  0
 16 17  2  0
 16 21  1  0
 17 18  1  0
 18 19  1  6
 18 20  1  0
 20 21  1  0
 21 22  2  3
 22 23  1  0
 23 24  1  0
M  END
