
     RDKit          3D

 25 26  0  0  0  0  0  0  0  0999 V2000
    3.0500   -0.7350    1.7360 O   0  0  0  0  0  0  0  0  0  0  0  0
    3.2470   -0.5780    0.5110 C   0  0  0  0  0  0  0  0  0  0  0  0
    4.5220   -0.4140    0.0490 O   0  0  0  0  0  0  0  0  0  0  0  0
    5.6750   -0.4070    0.8630 C   0  0  0  0  0  0  0  0  0  0  0  0
    5.6340    0.6980    1.8940 C   0  0  0  0  0  0  0  0  0  0  0  0
    6.8210    0.6020    2.6320 O   0  0  0  0  0  0  0  0  0  0  0  0
    2.0350   -0.5810   -0.3850 C   0  0  1  0  0  0  0  0  0  0  0  0
    1.1380    0.5670   -0.0420 C   0  0  0  0  0  0  0  0  0  0  0  0
   -0.2500    0.2810   -0.1170 N   0  0  0  0  0  0  0  0  0  0  0  0
   -0.7480   -0.2740   -1.3230 C   0  0  2  0  0  0  0  0  0  0  0  0
   -1.7400   -1.1610   -0.9820 O   0  0  0  0  0  0  0  0  0  0  0  0
   -3.0010   -0.8500   -1.3660 C   0  0  0  0  0  0  0  0  0  0  0  0
   -3.5520    0.4320   -0.8360 C   0  0  1  0  0  0  0  0  0  0  0  0
   -4.8660    0.6120   -1.3390 O   0  0  0  0  0  0  0  0  0  0  0  0
   -3.6940    0.4880    0.6280 C   0  0  0  0  0  0  0  0  0  0  0  0
   -3.3680   -0.5460    1.3650 C   0  0  0  0  0  0  0  0  0  0  0  0
   -3.4880   -0.5570    2.8590 C   0  0  0  0  0  0  0  0  0  0  0  0
   -3.9890    0.6400    3.3640 O   0  0  0  0  0  0  0  0  0  0  0  0
   -4.3160    1.6870    2.5790 N   0  0  0  0  0  0  0  0  0  0  0  0
   -4.2010    1.6800    1.2860 C   0  0  0  0  0  0  0  0  0  0  0  0
   -4.5690    2.8220    0.5730 O   0  0  0  0  0  0  0  0  0  0  0  0
    0.2380   -0.8850   -2.2410 C   0  0  1  0  0  0  0  0  0  0  0  0
   -0.4060   -1.0660   -3.4910 O   0  0  0  0  0  0  0  0  0  0  0  0
    1.4520   -0.0730   -2.5230 C   0  0  0  0  0  0  0  0  0  0  0  0
    2.5020   -0.3940   -1.6690 O   0  0  0  0  0  0  0  0  0  0  0  0
  1  2  2  0
  2  3  1  0
  7  2  1  1
  3  4  1  0
  4  5  1  0
  5  6  1  0
  7  8  1  0
  7 25  1  0
  8  9  1  0
  9 10  1  0
 10 11  1  1
 10 22  1  0
 11 12  1  0
 12 13  1  0
 13 14  1  6
 13 15  1  0
 15 16  2  0
 15 20  1  0
 16 17  1  0
 17 18  1  0
 18 19  1  0
 19 20  2  0
 20 21  1  0
 22 23  1  6
 22 24  1  0
 24 25  1  0
M  END
