
     RDKit          3D

 25 26  0  0  0  0  0  0  0  0999 V2000
    6.0300   -1.7200   -1.0280 C   0  0  0  0  0  0  0  0  0  0  0  0
    4.8540   -2.3410   -1.4040 O   0  0  0  0  0  0  0  0  0  0  0  0
    3.8280   -1.4740   -1.6490 C   0  0  0  0  0  0  0  0  0  0  0  0
    3.2590   -0.8660   -0.4070 C   0  0  0  0  0  0  0  0  0  0  0  0
    3.6920   -1.1620    0.7990 C   0  0  0  0  0  0  0  0  0  0  0  0
    3.1010   -0.5320    1.9620 C   0  0  0  0  0  0  0  0  0  0  0  0
    2.1490    0.3280    1.8710 C   0  0  0  0  0  0  0  0  0  0  0  0
    1.5580    0.9550    2.9820 O   0  0  0  0  0  0  0  0  0  0  0  0
    1.6110    0.7120    0.5450 C   0  0  2  0  0  0  0  0  0  0  0  0
    0.2150    0.4930    0.6050 O   0  0  0  0  0  0  0  0  0  0  0  0
   -0.7360    1.4760    0.5400 C   0  0  0  0  0  0  0  0  0  0  0  0
   -0.3500    2.6680    0.4180 O   0  0  0  0  0  0  0  0  0  0  0  0
   -2.2020    1.2400    0.6030 C   0  0  2  0  0  0  0  0  0  0  0  0
   -2.4390   -0.0990    0.7320 O   0  0  0  0  0  0  0  0  0  0  0  0
   -3.7040   -0.5340    0.4730 C   0  0  1  0  0  0  0  0  0  0  0  0
   -4.3180   -1.3340    1.5970 C   0  0  0  0  0  0  0  0  0  0  0  0
   -5.5980   -1.7030    1.1870 O   0  0  0  0  0  0  0  0  0  0  0  0
   -4.6750    0.5090    0.0860 C   0  0  0  0  0  0  0  0  0  0  0  0
   -5.8860    0.4590    0.4460 O   0  0  0  0  0  0  0  0  0  0  0  0
   -4.2020    1.5860   -0.7150 N   0  0  0  0  0  0  0  0  0  0  0  0
   -2.7800    1.8440   -0.6790 C   0  0  2  0  0  0  0  0  0  0  0  0
   -2.1620    1.2460   -1.8700 C   0  0  0  0  0  0  0  0  0  0  0  0
   -0.7650    1.3350   -2.1170 N   0  0  0  0  0  0  0  0  0  0  0  0
   -2.8570    0.6340   -2.7130 O   0  0  0  0  0  0  0  0  0  0  0  0
    2.2240    0.0590   -0.5170 O   0  0  0  0  0  0  0  0  0  0  0  0
  1  2  1  0
  2  3  1  0
  3  4  1  0
  4  5  2  0
  4 25  1  0
  5  6  1  0
  6  7  2  0
  7  8  1  0
  7  9  1  0
  9 10  1  1
  9 25  1  0
 10 11  1  0
 11 12  2  0
 13 11  1  6
 13 14  1  0
 13 21  1  0
 14 15  1  0
 15 16  1  1
 15 18  1  0
 16 17  1  0
 18 19  2  0
 18 20  1  0
 20 21  1  0
 21 22  1  6
 22 23  1  0
 22 24  2  0
M  END
