
     RDKit          3D

 24 25  0  0  0  0  0  0  0  0999 V2000
    3.9020   -0.7790   -0.4210 C   0  0  0  0  0  0  0  0  0  0  0  0
    2.6220   -0.3970    0.2120 C   0  0  0  0  0  0  0  0  0  0  0  0
    2.2780    0.8740    0.2740 C   0  0  0  0  0  0  0  0  0  0  0  0
    3.0760    2.0020   -0.2460 C   0  0  0  0  0  0  0  0  0  0  0  0
    4.2670    1.6740   -0.8390 O   0  0  0  0  0  0  0  0  0  0  0  0
    0.9650    1.1980    0.9390 C   0  0  0  0  0  0  0  0  0  0  0  0
    0.5730    2.4960    0.5540 O   0  0  0  0  0  0  0  0  0  0  0  0
   -0.6970    3.0230    0.7250 C   0  0  0  0  0  0  0  0  0  0  0  0
   -0.7560    4.2410    1.1210 O   0  0  0  0  0  0  0  0  0  0  0  0
   -1.8860    2.2800    0.4850 N   0  0  0  0  0  0  0  0  0  0  0  0
   -2.0730    1.3560   -0.6130 C   0  0  2  0  0  0  0  0  0  0  0  0
   -2.9620    1.9920   -1.5110 O   0  0  0  0  0  0  0  0  0  0  0  0
   -2.7060    0.0720   -0.1980 C   0  0  1  0  0  0  0  0  0  0  0  0
   -2.6180   -0.1900    1.2800 C   0  0  0  0  0  0  0  0  0  0  0  0
   -3.9200   -0.0720    1.7320 O   0  0  0  0  0  0  0  0  0  0  0  0
   -4.6980   -0.4390    0.6570 C   0  0  0  0  0  0  0  0  0  0  0  0
   -4.0880    0.0500   -0.4750 O   0  0  0  0  0  0  0  0  0  0  0  0
   -2.0970   -1.0600   -0.9830 C   0  0  0  0  0  0  0  0  0  0  0  0
   -1.1270   -1.7380   -0.2520 O   0  0  0  0  0  0  0  0  0  0  0  0
    0.0080   -1.8450   -1.0210 C   0  0  0  0  0  0  0  0  0  0  0  0
    1.1990   -2.3960   -0.2920 C   0  0  1  0  0  0  0  0  0  0  0  0
    2.1510   -2.7190   -1.2400 O   0  0  0  0  0  0  0  0  0  0  0  0
    1.7690   -1.5060    0.7580 C   0  0  1  0  0  0  0  0  0  0  0  0
    2.6610   -2.3050    1.5140 O   0  0  0  0  0  0  0  0  0  0  0  0
  1  2  1  0
  2  3  2  0
  2 23  1  0
  3  4  1  0
  3  6  1  0
  4  5  1  0
  6  7  1  0
  7  8  1  0
  8  9  2  0
  8 10  1  0
 10 11  1  0
 11 12  1  6
 11 13  1  0
 13 14  1  1
 13 17  1  0
 13 18  1  0
 14 15  1  0
 15 16  1  0
 16 17  1  0
 18 19  1  0
 19 20  1  0
 20 21  1  0
 21 22  1  6
 21 23  1  0
 23 24  1  1
M  END
