
     RDKit          3D

 22 23  0  0  0  0  0  0  0  0999 V2000
    6.9130    0.7340    0.7900 C   0  0  0  0  0  0  0  0  0  0  0  0
    5.8970    0.7740   -0.2320 N   0  0  0  0  0  0  0  0  0  0  0  0
    6.2570    1.1950   -1.5710 C   0  0  0  0  0  0  0  0  0  0  0  0
    4.5690    0.4020    0.0910 C   0  0  0  0  0  0  0  0  0  0  0  0
    3.5740    0.4290   -0.8630 C   0  0  0  0  0  0  0  0  0  0  0  0
    2.2750    0.0570   -0.5120 C   0  0  0  0  0  0  0  0  0  0  0  0
    1.9330   -0.3410    0.7570 C   0  0  0  0  0  0  0  0  0  0  0  0
    0.5940   -0.7310    1.1420 C   0  0  0  0  0  0  0  0  0  0  0  0
    0.3670   -1.0850    2.3360 O   0  0  0  0  0  0  0  0  0  0  0  0
   -0.4850   -0.7360    0.2390 N   0  0  0  0  0  0  0  0  0  0  0  0
   -1.8110   -1.1460    0.7120 C   0  0  0  0  0  0  0  0  0  0  0  0
   -2.7860   -1.0630   -0.4480 C   0  0  1  0  0  0  0  0  0  0  0  0
   -4.0880   -1.4780    0.0700 N   0  0  0  0  0  0  0  0  0  0  0  0
   -4.6940   -0.2360    0.4610 C   0  0  2  0  0  0  0  0  0  0  0  0
   -6.1470   -0.3430    0.8110 C   0  0  0  0  0  0  0  0  0  0  0  0
   -6.9280   -0.8060   -0.2370 O   0  0  0  0  0  0  0  0  0  0  0  0
   -4.4210    0.6340   -0.7460 C   0  0  1  0  0  0  0  0  0  0  0  0
   -4.6130    1.9740   -0.4190 O   0  0  0  0  0  0  0  0  0  0  0  0
   -2.9260    0.3390   -0.9430 C   0  0  2  0  0  0  0  0  0  0  0  0
   -2.5510    0.5150   -2.2560 O   0  0  0  0  0  0  0  0  0  0  0  0
    2.9500   -0.3620    1.7060 C   0  0  0  0  0  0  0  0  0  0  0  0
    4.2330    0.0040    1.3650 C   0  0  0  0  0  0  0  0  0  0  0  0
  1  2  1  0
  2  3  1  0
  2  4  1  0
  4  5  2  0
  4 22  1  0
  5  6  1  0
  6  7  2  0
  7  8  1  0
  7 21  1  0
  8  9  2  0
  8 10  1  0
 10 11  1  0
 12 11  1  1
 12 13  1  0
 12 19  1  0
 13 14  1  0
 14 15  1  6
 14 17  1  0
 15 16  1  0
 17 18  1  1
 17 19  1  0
 19 20  1  6
 21 22  2  0
M  CHG  1  13   1
M  END
