
     RDKit          3D

 24 26  0  0  0  0  0  0  0  0999 V2000
    2.0610   -0.1480    3.2660 O   0  0  0  0  0  0  0  0  0  0  0  0
    1.0540   -0.2480    2.4200 C   0  0  0  0  0  0  0  0  0  0  0  0
   -0.2720   -0.2680    2.9940 C   0  0  0  0  0  0  0  0  0  0  0  0
   -1.4770   -0.2650    2.6810 C   0  0  0  0  0  0  0  0  0  0  0  0
   -2.2310   -0.2180    1.4630 C   0  0  0  0  0  0  0  0  0  0  0  0
   -3.5450   -0.7520    1.4370 C   0  0  0  0  0  0  0  0  0  0  0  0
   -4.3610   -0.6540    0.3510 C   0  0  0  0  0  0  0  0  0  0  0  0
   -3.9620   -0.0260   -0.7980 C   0  0  0  0  0  0  0  0  0  0  0  0
   -2.6970    0.5030   -0.8060 C   0  0  0  0  0  0  0  0  0  0  0  0
   -1.8710    0.4060    0.2910 C   0  0  0  0  0  0  0  0  0  0  0  0
   -2.4450    1.1410   -2.1320 C   0  0  1  0  0  0  0  0  0  0  0  0
   -1.1490    0.8500   -2.5630 O   0  0  0  0  0  0  0  0  0  0  0  0
   -3.4940    0.5140   -3.0240 C   0  0  0  0  0  0  0  0  0  0  0  0
   -4.6340    0.2150   -2.0940 C   0  0  0  0  0  0  0  0  0  0  0  0
    1.4710   -0.3290    1.0950 N   0  0  0  0  0  0  0  0  0  0  0  0
    2.8000   -0.2770    0.6040 C   0  0  0  0  0  0  0  0  0  0  0  0
    3.9490   -0.1400    1.3060 C   0  0  0  0  0  0  0  0  0  0  0  0
    5.2130   -0.1030    0.6980 C   0  0  0  0  0  0  0  0  0  0  0  0
    6.3600    0.0400    1.4670 O   0  0  0  0  0  0  0  0  0  0  0  0
    5.3400   -0.2060   -0.6640 C   0  0  0  0  0  0  0  0  0  0  0  0
    6.6030   -0.1690   -1.2770 O   0  0  0  0  0  0  0  0  0  0  0  0
    4.1880   -0.3470   -1.4050 C   0  0  0  0  0  0  0  0  0  0  0  0
    2.9600   -0.3810   -0.7880 C   0  0  0  0  0  0  0  0  0  0  0  0
    1.8780   -0.5230   -1.6120 F   0  0  0  0  0  0  0  0  0  0  0  0
  1  2  2  0
  2  3  1  0
  2 15  1  0
  3  4  2  3
  4  5  1  0
  5  6  2  0
  5 10  1  0
  6  7  1  0
  7  8  2  0
  8  9  1  0
  8 14  1  0
  9 10  2  0
  9 11  1  0
 11 12  1  6
 11 13  1  0
 13 14  1  0
 15 16  1  0
 16 17  2  0
 16 23  1  0
 17 18  1  0
 18 19  1  0
 18 20  2  0
 20 21  1  0
 20 22  1  0
 22 23  2  0
 23 24  1  0
M  END
