
     RDKit          3D

 24 26  0  0  0  0  0  0  0  0999 V2000
    0.6610   -2.0950   -0.8560 O   0  0  0  0  0  0  0  0  0  0  0  0
    0.6480   -0.9430   -0.4150 C   0  0  0  0  0  0  0  0  0  0  0  0
    1.9600   -0.2640   -0.1560 C   0  0  0  0  0  0  0  0  0  0  0  0
    3.0380   -1.1170   -0.4840 O   0  0  0  0  0  0  0  0  0  0  0  0
    4.3240   -0.6360   -0.3020 C   0  0  0  0  0  0  0  0  0  0  0  0
    5.4400   -1.4120   -0.6000 C   0  0  0  0  0  0  0  0  0  0  0  0
    6.7150   -0.9350   -0.4190 C   0  0  0  0  0  0  0  0  0  0  0  0
    6.9210    0.3420    0.0690 C   0  0  0  0  0  0  0  0  0  0  0  0
    5.8350    1.1290    0.3720 C   0  0  0  0  0  0  0  0  0  0  0  0
    6.0210    2.3800    0.8510 F   0  0  0  0  0  0  0  0  0  0  0  0
    4.5690    0.6230    0.1800 C   0  0  0  0  0  0  0  0  0  0  0  0
   -0.5780   -0.2790   -0.1590 N   0  0  0  0  0  0  0  0  0  0  0  0
   -1.8780   -0.8100   -0.3600 C   0  0  0  0  0  0  0  0  0  0  0  0
   -2.0990   -2.0750   -0.8440 C   0  0  0  0  0  0  0  0  0  0  0  0
   -3.3900   -2.5430   -1.0220 C   0  0  0  0  0  0  0  0  0  0  0  0
   -4.4680   -1.7550   -0.7190 C   0  0  0  0  0  0  0  0  0  0  0  0
   -4.2440   -0.4860   -0.2340 C   0  0  0  0  0  0  0  0  0  0  0  0
   -5.3230    0.3290    0.0800 C   0  0  0  0  0  0  0  0  0  0  0  0
   -5.1490    1.6020    0.5670 C   0  0  0  0  0  0  0  0  0  0  0  0
   -6.2610    2.3850    0.8680 O   0  0  0  0  0  0  0  0  0  0  0  0
   -3.8990    2.1220    0.7640 C   0  0  0  0  0  0  0  0  0  0  0  0
   -3.7140    3.4090    1.2570 O   0  0  0  0  0  0  0  0  0  0  0  0
   -2.8080    1.3060    0.4500 C   0  0  0  0  0  0  0  0  0  0  0  0
   -2.9590    0.0340   -0.0360 C   0  0  0  0  0  0  0  0  0  0  0  0
  1  2  2  0
  2  3  1  0
  2 12  1  0
  3  4  1  0
  4  5  1  0
  5  6  2  0
  5 11  1  0
  6  7  1  0
  7  8  2  0
  8  9  1  0
  9 10  1  0
  9 11  2  0
 12 13  1  0
 13 14  2  0
 13 24  1  0
 14 15  1  0
 15 16  2  0
 16 17  1  0
 17 18  2  0
 17 24  1  0
 18 19  1  0
 19 20  1  0
 19 21  2  0
 21 22  1  0
 21 23  1  0
 23 24  2  0
M  END
