
     RDKit          3D

 17 18  0  0  0  0  0  0  0  0999 V2000
    5.3260   -0.6280   -1.0810 O   0  0  0  0  0  0  0  0  0  0  0  0
    5.9650   -0.0590   -0.1650 C   0  0  0  0  0  0  0  0  0  0  0  0
    7.3610   -0.0900   -0.2160 O   0  0  0  0  0  0  0  0  0  0  0  0
    5.2460    0.5780    0.8640 N   0  0  0  0  0  0  0  0  0  0  0  0
    3.8360    0.5930    0.8890 C   0  0  0  0  0  0  0  0  0  0  0  0
    2.9560    1.0940    1.6990 N   0  0  0  0  0  0  0  0  0  0  0  0
    1.7160    0.9620    1.4870 N   0  0  0  0  0  0  0  0  0  0  0  0
    1.2030    0.3770    0.5440 C   0  0  0  0  0  0  0  0  0  0  0  0
   -0.0630    0.0320   -0.0100 N   0  0  0  0  0  0  0  0  0  0  0  0
   -1.2630    0.4400    0.6490 C   0  0  0  0  0  0  0  0  0  0  0  0
   -1.1680    1.0950    1.7050 O   0  0  0  0  0  0  0  0  0  0  0  0
   -2.5440    0.0600    0.0370 C   0  0  0  0  0  0  0  0  0  0  0  0
   -2.7280   -0.6220   -1.0630 C   0  0  0  0  0  0  0  0  0  0  0  0
   -4.1910   -0.7830   -1.3200 C   0  0  0  0  0  0  0  0  0  0  0  0
   -4.7650   -0.5030   -0.0050 N   0  0  0  0  0  0  0  0  0  0  0  0
   -3.8500    0.4230    0.6150 C   0  0  0  0  0  0  0  0  0  0  0  0
    2.7680   -0.1680   -0.3360 S   0  0  0  0  0  0  0  0  0  0  0  0
  1  2  2  0
  2  3  1  0
  2  4  1  0
  4  5  1  0
  5  6  2  0
  5 17  1  0
  6  7  1  0
  7  8  2  0
  8  9  1  0
  8 17  1  0
  9 10  1  0
 10 11  2  0
 10 12  1  0
 12 13  2  0
 12 16  1  0
 13 14  1  0
 14 15  1  0
 15 16  1  0
M  CHG  1  15   1
M  END
