
     RDKit          3D

 24 26  0  0  0  0  0  0  0  0999 V2000
   -5.8170   -0.9450   -0.0950 C   0  0  0  0  0  0  0  0  0  0  0  0
   -4.8050    0.1240   -0.2310 C   0  0  0  0  0  0  0  0  0  0  0  0
   -5.0010    1.2810   -0.8270 C   0  0  0  0  0  0  0  0  0  0  0  0
   -6.1630    1.7080   -1.4260 F   0  0  0  0  0  0  0  0  0  0  0  0
   -3.7930    2.1020   -0.7820 C   0  0  0  0  0  0  0  0  0  0  0  0
   -2.8120    1.2630   -0.0560 C   0  0  0  0  0  0  0  0  0  0  0  0
   -3.4070    0.1330    0.2530 C   0  0  0  0  0  0  0  0  0  0  0  0
   -2.8300   -1.0310    0.9680 C   0  0  0  0  0  0  0  0  0  0  0  0
   -1.4920   -0.8320    1.3150 O   0  0  0  0  0  0  0  0  0  0  0  0
   -0.4810   -0.6810    0.3340 C   0  0  0  0  0  0  0  0  0  0  0  0
   -0.9040   -0.7520   -0.8280 O   0  0  0  0  0  0  0  0  0  0  0  0
    0.8840   -0.4680    0.7720 C   0  0  0  0  0  0  0  0  0  0  0  0
    1.1250   -0.3930    2.1500 C   0  0  0  0  0  0  0  0  0  0  0  0
    2.3820   -0.1910    2.6660 C   0  0  0  0  0  0  0  0  0  0  0  0
    3.4360   -0.0570    1.8010 C   0  0  0  0  0  0  0  0  0  0  0  0
    3.2340   -0.1260    0.4410 C   0  0  0  0  0  0  0  0  0  0  0  0
    4.3520    0.0180   -0.3660 C   0  0  0  0  0  0  0  0  0  0  0  0
    5.7050    0.2350    0.1760 C   0  0  0  0  0  0  0  0  0  0  0  0
    4.1500   -0.0520   -1.7260 C   0  0  0  0  0  0  0  0  0  0  0  0
    5.1930    0.0780   -2.6280 O   0  0  0  0  0  0  0  0  0  0  0  0
    2.8830   -0.2550   -2.2170 C   0  0  0  0  0  0  0  0  0  0  0  0
    2.6550   -0.3260   -3.4630 O   0  0  0  0  0  0  0  0  0  0  0  0
    1.7930   -0.3950   -1.4080 N   0  0  0  0  0  0  0  0  0  0  0  0
    1.9510   -0.3330   -0.0810 C   0  0  0  0  0  0  0  0  0  0  0  0
  1  2  1  0
  2  3  2  0
  2  7  1  0
  3  4  1  0
  3  5  1  0
  5  6  1  0
  6  7  2  0
  7  8  1  0
  8  9  1  0
  9 10  1  0
 10 11  2  0
 10 12  1  0
 12 13  2  0
 12 24  1  0
 13 14  1  0
 14 15  2  0
 15 16  1  0
 16 17  1  0
 16 24  2  0
 17 18  1  0
 17 19  2  0
 19 20  1  0
 19 21  1  0
 21 22  2  0
 21 23  1  0
 23 24  1  0
M  END
