
     RDKit          3D

 17 18  0  0  0  0  0  0  0  0999 V2000
    2.9810    0.9550    2.0080 N   0  0  0  0  0  0  0  0  0  0  0  0
    3.3060    0.6070    0.6740 C   0  0  0  0  0  0  0  0  0  0  0  0
    4.5070    0.2220    0.2270 N   0  0  0  0  0  0  0  0  0  0  0  0
    4.3960   -0.0140   -1.0810 N   0  0  0  0  0  0  0  0  0  0  0  0
    3.1400    0.2130   -1.4840 C   0  0  0  0  0  0  0  0  0  0  0  0
    2.7220    0.0780   -2.6640 O   0  0  0  0  0  0  0  0  0  0  0  0
    2.4570    0.6000   -0.3920 N   0  0  0  0  0  0  0  0  0  0  0  0
    1.0680    0.9550   -0.3210 C   0  0  0  0  0  0  0  0  0  0  0  0
    0.2240   -0.2710   -0.0210 C   0  0  0  0  0  0  0  0  0  0  0  0
   -1.2330    0.1230    0.0500 C   0  0  0  0  0  0  0  0  0  0  0  0
   -1.5570    1.3170   -0.1310 O   0  0  0  0  0  0  0  0  0  0  0  0
   -2.2270   -0.8300    0.3150 N   0  0  0  0  0  0  0  0  0  0  0  0
   -3.6470   -0.5780    0.4080 C   0  0  0  0  0  0  0  0  0  0  0  0
   -4.2810    0.5420    0.2700 C   0  0  0  0  0  0  0  0  0  0  0  0
   -5.6570    0.5550    0.4000 O   0  0  0  0  0  0  0  0  0  0  0  0
   -6.0940   -1.1190    0.0450 S   0  0  0  0  0  0  0  0  0  0  0  0
   -4.5320   -1.7760    0.7090 C   0  0  0  0  0  0  0  0  0  0  0  0
  1  2  1  0
  2  3  2  0
  2  7  1  0
  3  4  1  0
  4  5  1  0
  5  6  2  0
  5  7  1  0
  7  8  1  0
  8  9  1  0
  9 10  1  0
 10 11  2  0
 10 12  1  0
 12 13  1  0
 13 14  2  0
 13 17  1  0
 14 15  1  0
 15 16  1  0
 16 17  1  0
M  CHG  1   3   1
M  END
