
     RDKit          3D

 24 26  0  0  0  0  0  0  0  0999 V2000
    6.1740   -0.2570   -0.9730 C   0  0  0  0  0  0  0  0  0  0  0  0
    4.7370    0.0540   -0.7190 C   0  0  0  0  0  0  0  0  0  0  0  0
    4.3080    1.3000   -0.3150 C   0  0  0  0  0  0  0  0  0  0  0  0
    2.9310    1.2000   -0.1840 C   0  0  0  0  0  0  0  0  0  0  0  0
    2.1510    2.2170    0.1960 F   0  0  0  0  0  0  0  0  0  0  0  0
    2.5920   -0.0800   -0.5090 C   0  0  0  0  0  0  0  0  0  0  0  0
    1.2470   -0.6430   -0.5140 C   0  0  0  0  0  0  0  0  0  0  0  0
    1.1270   -1.8700   -0.8430 O   0  0  0  0  0  0  0  0  0  0  0  0
    0.0970    0.0720   -0.1850 N   0  0  0  0  0  0  0  0  0  0  0  0
   -1.2510   -0.3720   -0.1650 C   0  0  0  0  0  0  0  0  0  0  0  0
   -1.6390   -1.4490   -0.9920 C   0  0  0  0  0  0  0  0  0  0  0  0
   -2.9570   -1.8210   -1.1380 C   0  0  0  0  0  0  0  0  0  0  0  0
   -3.3030   -2.9480   -2.0100 C   0  0  0  0  0  0  0  0  0  0  0  0
   -2.4180   -3.5880   -2.6330 O   0  0  0  0  0  0  0  0  0  0  0  0
   -4.6130   -3.3610   -2.1910 O   0  0  0  0  0  0  0  0  0  0  0  0
   -3.9030   -1.1070   -0.4490 C   0  0  0  0  0  0  0  0  0  0  0  0
   -3.5380   -0.0550    0.3640 C   0  0  0  0  0  0  0  0  0  0  0  0
   -2.1960    0.3350    0.5260 C   0  0  0  0  0  0  0  0  0  0  0  0
   -1.8790    1.3530    1.5210 C   0  0  0  0  0  0  0  0  0  0  0  0
   -0.7810    1.6620    2.1670 C   0  0  0  0  0  0  0  0  0  0  0  0
   -1.0550    2.8140    3.0700 C   0  0  0  0  0  0  0  0  0  0  0  0
   -2.2520    3.1820    2.7110 C   0  0  0  0  0  0  0  0  0  0  0  0
   -2.8970    2.3250    2.0010 C   0  0  0  0  0  0  0  0  0  0  0  0
    3.7020   -0.7100   -0.8170 O   0  0  0  0  0  0  0  0  0  0  0  0
  1  2  1  0
  2  3  2  0
  2 24  1  0
  3  4  1  0
  4  5  1  0
  4  6  2  0
  6  7  1  0
  6 24  1  0
  7  8  2  0
  7  9  1  0
  9 10  1  0
 10 11  2  0
 10 18  1  0
 11 12  1  0
 12 13  1  0
 12 16  2  0
 13 14  2  0
 13 15  1  0
 16 17  1  0
 17 18  2  0
 18 19  1  0
 19 20  2  0
 19 23  1  0
 20 21  1  0
 21 22  2  0
 22 23  2  0
M  END
