
     RDKit          3D

 17 18  0  0  0  0  0  0  0  0999 V2000
   -3.8720    1.2090   -1.0070 N   0  0  0  0  0  0  0  0  0  0  0  0
   -2.8200    1.2850   -0.0560 C   0  0  0  0  0  0  0  0  0  0  0  0
   -1.9220    0.3220   -0.0290 C   0  0  0  0  0  0  0  0  0  0  0  0
   -0.8450    0.4290    0.9670 C   0  0  0  0  0  0  0  0  0  0  0  0
    0.4710    0.4800    0.4130 N   0  0  0  0  0  0  0  0  0  0  0  0
    1.0330   -0.6530   -0.2370 C   0  0  0  0  0  0  0  0  0  0  0  0
    2.4850   -0.5240   -0.5810 C   0  0  2  0  0  0  0  0  0  0  0  0
    3.2460   -1.6790   -0.5530 O   0  0  0  0  0  0  0  0  0  0  0  0
    4.3550   -1.4660    0.2360 C   0  0  0  0  0  0  0  0  0  0  0  0
    5.2690   -2.3030    0.4710 O   0  0  0  0  0  0  0  0  0  0  0  0
    4.2520   -0.1360    0.7160 N   0  0  0  0  0  0  0  0  0  0  0  0
    3.1980    0.4350    0.2770 C   0  0  0  0  0  0  0  0  0  0  0  0
    2.6200    1.7490    0.4840 N   0  0  0  0  0  0  0  0  0  0  0  0
    1.1770    1.7000    0.5440 C   0  0  0  0  0  0  0  0  0  0  0  0
    0.4160    3.1340    0.7700 S   0  0  0  0  0  0  0  0  0  0  0  0
   -2.0360   -0.7260   -0.9270 O   0  0  0  0  0  0  0  0  0  0  0  0
   -2.5910   -1.9060   -0.5480 N   0  0  0  0  0  0  0  0  0  0  0  0
  1  2  1  0
  2  3  2  3
  3  4  1  0
  3 16  1  0
  4  5  1  0
  5  6  1  0
  5 14  1  0
  7  6  1  1
  7  8  1  0
  7 12  1  0
  8  9  1  0
  9 10  2  0
  9 11  1  0
 11 12  2  0
 12 13  1  0
 13 14  1  0
 14 15  2  0
 16 17  1  0
M  CHG  1  17   1
M  END
