
     RDKit          3D

 21 22  0  0  0  0  0  0  0  0999 V2000
    3.0410    1.2230    0.4750 C   0  0  0  0  0  0  0  0  0  0  0  0
    2.9380   -0.0230    0.1690 C   0  0  0  0  0  0  0  0  0  0  0  0
    4.1230   -0.8290    0.1080 O   0  0  0  0  0  0  0  0  0  0  0  0
    5.5940   -0.0400   -0.4050 P   0  0  0  0  0  0  0  0  0  0  0  0
    6.3150    0.8890    0.8580 O   0  0  0  0  0  0  0  0  0  0  0  0
    5.3190    0.9070   -1.8090 O   0  0  0  0  0  0  0  0  0  0  0  0
    1.7120   -0.7450   -0.1360 C   0  0  0  0  0  0  0  0  0  0  0  0
    1.8650   -2.0240   -0.4210 C   0  0  0  0  0  0  0  0  0  0  0  0
    0.4260   -0.0900   -0.1010 C   0  0  0  0  0  0  0  0  0  0  0  0
    0.3960    1.1600    0.1560 O   0  0  0  0  0  0  0  0  0  0  0  0
   -0.8540   -0.6720   -0.3230 N   0  0  0  0  0  0  0  0  0  0  0  0
   -1.2990   -2.0090   -0.5700 C   0  0  0  0  0  0  0  0  0  0  0  0
   -2.8380   -1.9280   -0.4710 C   0  0  0  0  0  0  0  0  0  0  0  0
   -3.0380   -0.6630    0.2510 N   0  0  0  0  0  0  0  0  0  0  0  0
   -3.8970   -0.2540    1.2750 C   0  0  0  0  0  0  0  0  0  0  0  0
   -4.9060   -0.9110    1.5670 O   0  0  0  0  0  0  0  0  0  0  0  0
   -3.5120    1.0180    1.9820 C   0  0  0  0  0  0  0  0  0  0  0  0
   -3.0420    1.9750    0.9300 C   0  0  0  0  0  0  0  0  0  0  0  0
   -1.8570    1.4290    0.2970 N   0  0  0  0  0  0  0  0  0  0  0  0
   -2.0530    0.1870   -0.3680 C   0  0  1  0  0  0  0  0  0  0  0  0
   -2.3230    0.3480   -1.7410 O   0  0  0  0  0  0  0  0  0  0  0  0
  1  2  2  0
  2  3  1  0
  2  7  1  0
  3  4  1  0
  4  5  1  0
  4  6  1  0
  7  8  2  0
  7  9  1  0
  9 10  2  0
  9 11  1  0
 11 12  1  0
 11 20  1  0
 12 13  1  0
 13 14  1  0
 14 15  1  0
 14 20  1  0
 15 16  2  0
 15 17  1  0
 17 18  1  0
 18 19  1  0
 19 20  1  0
 20 21  1  6
M  END
