
     RDKit          3D

 21 22  0  0  0  0  0  0  0  0999 V2000
   -4.6020    2.2100   -2.4440 O   0  0  0  0  0  0  0  0  0  0  0  0
   -4.6930    1.4030   -1.1400 P   0  0  0  0  0  0  0  0  0  0  0  0
   -3.4100    1.4370    0.1820 C   0  0  0  0  0  0  0  0  0  0  0  0
   -2.4440    0.3830    0.0600 N   0  0  0  0  0  0  0  0  0  0  0  0
   -2.5610   -0.9420    0.6710 C   0  0  0  0  0  0  0  0  0  0  0  0
   -1.0880   -1.2650    0.7680 C   0  0  1  0  0  0  0  0  0  0  0  0
   -0.7100   -2.6020    1.1200 C   0  0  0  0  0  0  0  0  0  0  0  0
    0.3380   -3.1860    0.5740 C   0  0  0  0  0  0  0  0  0  0  0  0
    1.1330   -2.4450   -0.4270 C   0  0  0  0  0  0  0  0  0  0  0  0
    2.1200   -2.9870   -0.9360 O   0  0  0  0  0  0  0  0  0  0  0  0
    0.7030   -1.1020   -0.7620 N   0  0  0  0  0  0  0  0  0  0  0  0
    1.6780   -0.1530   -1.1590 C   0  0  0  0  0  0  0  0  0  0  0  0
    2.2440    0.6100   -0.0000 C   0  0  0  0  0  0  0  0  0  0  0  0
    1.9070    0.4400    1.1870 O   0  0  0  0  0  0  0  0  0  0  0  0
    3.2320    1.5910   -0.2990 N   0  0  0  0  0  0  0  0  0  0  0  0
    3.8210    2.3630    0.7580 C   0  0  0  0  0  0  0  0  0  0  0  0
    3.4770    2.1860    1.9530 O   0  0  0  0  0  0  0  0  0  0  0  0
    4.7780    3.3120    0.4700 O   0  0  0  0  0  0  0  0  0  0  0  0
   -0.6920   -0.9160   -0.6520 C   0  0  2  0  0  0  0  0  0  0  0  0
   -1.2100    0.4650   -0.6820 C   0  0  0  0  0  0  0  0  0  0  0  0
   -0.7670    1.5120   -1.1930 O   0  0  0  0  0  0  0  0  0  0  0  0
  1  2  2  0
  2  3  1  0
  3  4  1  0
  4  5  1  0
  4 20  1  0
  6  5  1  6
  6  7  1  0
  6 19  1  0
  7  8  2  0
  8  9  1  0
  9 10  2  0
  9 11  1  0
 11 12  1  0
 19 11  1  1
 12 13  1  0
 13 14  2  0
 13 15  1  0
 15 16  1  0
 16 17  2  0
 16 18  1  0
 19 20  1  0
 20 21  2  0
M  END
