
     RDKit          3D

 21 21  0  0  0  0  0  0  0  0999 V2000
   -0.2020   -1.9110    0.1150 N   0  0  0  0  0  0  0  0  0  0  0  0
   -0.8490   -0.7740    0.2120 C   0  0  0  0  0  0  0  0  0  0  0  0
   -0.3380    0.1150    1.1900 N   0  0  0  0  0  0  0  0  0  0  0  0
    1.0230    0.0140    1.6250 C   0  0  0  0  0  0  0  0  0  0  0  0
    2.0070    0.2170    0.7800 C   0  0  0  0  0  0  0  0  0  0  0  0
    3.4200    0.1420    1.1010 C   0  0  0  0  0  0  0  0  0  0  0  0
    4.1140    0.1060   -0.0280 C   0  0  0  0  0  0  0  0  0  0  0  0
    5.5680    0.0280   -0.0650 C   0  0  0  0  0  0  0  0  0  0  0  0
    6.2300   -0.0070    0.9790 O   0  0  0  0  0  0  0  0  0  0  0  0
    6.2080   -0.0050   -1.2890 O   0  0  0  0  0  0  0  0  0  0  0  0
    3.2390    0.1520   -1.1110 O   0  0  0  0  0  0  0  0  0  0  0  0
    1.9630    0.5620   -0.6600 C   0  0  2  0  0  0  0  0  0  0  0  0
    1.7780    1.9390   -0.8430 O   0  0  0  0  0  0  0  0  0  0  0  0
   -1.9610   -0.4810   -0.6070 N   0  0  0  0  0  0  0  0  0  0  0  0
   -1.8890    0.5740   -1.6030 C   0  0  0  0  0  0  0  0  0  0  0  0
   -2.8350    1.7190   -1.2390 C   0  0  0  0  0  0  0  0  0  0  0  0
   -2.5480    2.2990   -0.0220 O   0  0  0  0  0  0  0  0  0  0  0  0
   -3.1760   -1.2480   -0.4950 C   0  0  0  0  0  0  0  0  0  0  0  0
   -3.2280   -2.1910    0.6680 C   0  0  0  0  0  0  0  0  0  0  0  0
   -3.1200   -1.2400    2.2850 P   0  0  0  0  0  0  0  0  0  0  0  0
   -4.3200   -0.2840    2.6200 O   0  0  0  0  0  0  0  0  0  0  0  0
  1  2  2  0
  2  3  1  0
  2 14  1  0
  3  4  1  0
  4  5  2  3
  5  6  1  0
  5 12  1  0
  6  7  2  0
  7  8  1  0
  7 11  1  0
  8  9  2  0
  8 10  1  0
 11 12  1  0
 12 13  1  1
 14 15  1  0
 14 18  1  0
 15 16  1  0
 16 17  1  0
 18 19  1  0
 19 20  1  0
 20 21  2  0
M  END
