
     RDKit          3D

 22 23  0  0  0  0  0  0  0  0999 V2000
    3.3160    3.2840   -0.4360 C   0  0  0  0  0  0  0  0  0  0  0  0
    2.4120    2.0730   -0.2050 C   0  0  0  0  0  0  0  0  0  0  0  0
    2.9700    0.9100   -0.2890 C   0  0  0  0  0  0  0  0  0  0  0  0
    2.4830   -0.4360   -0.1430 C   0  0  0  0  0  0  0  0  0  0  0  0
    1.1890   -0.7010    0.2700 C   0  0  0  0  0  0  0  0  0  0  0  0
    0.1830    0.3460    0.6150 C   0  0  0  0  0  0  0  0  0  0  0  0
   -1.0160   -0.3310    1.0040 O   0  0  0  0  0  0  0  0  0  0  0  0
   -1.8930    0.5910    1.3050 O   0  0  0  0  0  0  0  0  0  0  0  0
   -3.2430    0.5540    0.2240 P   0  0  0  0  0  0  0  0  0  0  0  0
   -4.3710    1.7680    0.6680 O   0  0  0  0  0  0  0  0  0  0  0  0
   -5.5970    1.5080    0.0690 C   0  0  0  0  0  0  0  0  0  0  0  0
   -6.0460    0.1190    0.4180 C   0  0  0  0  0  0  0  0  0  0  0  0
   -5.2710   -0.8790   -0.2920 N   0  0  0  0  0  0  0  0  0  0  0  0
   -4.0330   -0.9780    0.2420 O   0  0  0  0  0  0  0  0  0  0  0  0
    0.7760   -2.0010    0.3840 N   0  0  0  0  0  0  0  0  0  0  0  0
    1.5660   -3.0410    0.1140 C   0  0  0  0  0  0  0  0  0  0  0  0
    1.1200   -4.3650    0.2390 O   0  0  0  0  0  0  0  0  0  0  0  0
    2.8010   -2.7790   -0.2800 N   0  0  0  0  0  0  0  0  0  0  0  0
    3.3090   -1.5010   -0.4260 C   0  0  0  0  0  0  0  0  0  0  0  0
    4.6730   -1.3940   -0.8910 C   0  0  0  0  0  0  0  0  0  0  0  0
    5.2770   -0.3570   -1.1120 O   0  0  0  0  0  0  0  0  0  0  0  0
    5.4290   -2.5710   -1.1310 O   0  0  0  0  0  0  0  0  0  0  0  0
  1  2  1  0
  2  3  2  3
  3  4  1  0
  4  5  2  0
  4 19  1  0
  5  6  1  0
  5 15  1  0
  6  7  1  0
  7  8  1  0
  8  9  1  0
  9 10  1  0
  9 14  1  0
 10 11  1  0
 11 12  1  0
 12 13  1  0
 13 14  1  0
 15 16  2  0
 16 17  1  0
 16 18  1  0
 18 19  2  0
 19 20  1  0
 20 21  2  0
 20 22  1  0
M  END
