
     RDKit          3D

 26 27  0  0  0  0  0  0  0  0999 V2000
   -5.7080    3.5710   -0.1410 C   0  0  0  0  0  0  0  0  0  0  0  0
   -4.9980    2.3110    0.1230 C   0  0  0  0  0  0  0  0  0  0  0  0
   -3.9260    2.2620    0.9660 N   0  0  0  0  0  0  0  0  0  0  0  0
   -3.2260    1.1390    1.1750 C   0  0  0  0  0  0  0  0  0  0  0  0
   -3.5690   -0.0200    0.5490 C   0  0  0  0  0  0  0  0  0  0  0  0
   -2.7610   -1.2160    0.4540 C   0  0  0  0  0  0  0  0  0  0  0  0
   -1.5460   -0.9080   -0.4000 N   0  0  0  0  0  0  0  0  0  0  0  0
   -1.6530    0.0050   -1.3830 C   0  0  0  0  0  0  0  0  0  0  0  0
    0.0460    0.1540   -2.0160 S   0  0  0  0  0  0  0  0  0  0  0  0
    0.7330   -1.0090   -0.9010 C   0  0  0  0  0  0  0  0  0  0  0  0
    2.1170   -1.4670   -0.8050 C   0  0  0  0  0  0  0  0  0  0  0  0
    3.1260   -0.3550   -1.0600 C   0  0  0  0  0  0  0  0  0  0  0  0
    4.3590   -0.9910   -1.1150 O   0  0  0  0  0  0  0  0  0  0  0  0
    5.3700   -1.0380    0.1190 P   0  0  2  0  0  0  0  0  0  0  0  0
    6.3190   -2.2770   -0.1570 O   0  0  0  0  0  0  0  0  0  0  0  0
    4.6180   -1.5250    1.5880 O   0  0  0  0  0  0  0  0  0  0  0  0
    6.3720    0.1920    0.4500 O   0  0  0  0  0  0  0  0  0  0  0  0
    5.6720    1.6810    0.2620 P   0  0  1  0  0  0  0  0  0  0  0  0
    4.5510    1.8370    1.2220 O   0  0  0  0  0  0  0  0  0  0  0  0
    6.7810    2.9370    0.5970 O   0  0  0  0  0  0  0  0  0  0  0  0
    5.2370    1.8290   -1.3640 O   0  0  0  0  0  0  0  0  0  0  0  0
   -0.3650   -1.4100   -0.1550 C   0  0  0  0  0  0  0  0  0  0  0  0
   -0.1850   -2.5510    0.8480 C   0  0  0  0  0  0  0  0  0  0  0  0
   -4.7020    0.0280   -0.3370 C   0  0  0  0  0  0  0  0  0  0  0  0
   -5.1530   -1.1930   -0.8940 N   0  0  0  0  0  0  0  0  0  0  0  0
   -5.3580    1.1480   -0.5160 N   0  0  0  0  0  0  0  0  0  0  0  0
  1  2  1  0
  2  3  2  0
  2 26  1  0
  3  4  1  0
  4  5  2  0
  5  6  1  0
  5 24  1  0
  6  7  1  0
  7  8  2  0
  7 22  1  0
  8  9  1  0
  9 10  1  0
 10 11  1  0
 10 22  2  0
 11 12  1  0
 12 13  1  0
 13 14  1  0
 14 15  2  0
 14 16  1  1
 14 17  1  0
 17 18  1  0
 18 19  2  0
 18 20  1  1
 18 21  1  0
 22 23  1  0
 24 25  1  0
 24 26  2  0
M  CHG  1   7   1
M  END
