
     RDKit          3D

 21 22  0  0  0  0  0  0  0  0999 V2000
   -5.8170   -1.6490   -0.5060 C   0  0  0  0  0  0  0  0  0  0  0  0
   -5.0000   -0.5000   -0.4450 O   0  0  0  0  0  0  0  0  0  0  0  0
   -3.6410   -0.5240   -0.1970 C   0  0  0  0  0  0  0  0  0  0  0  0
   -2.8820    0.5170   -0.2920 C   0  0  0  0  0  0  0  0  0  0  0  0
   -3.2620    1.8180   -0.6380 O   0  0  0  0  0  0  0  0  0  0  0  0
   -2.2930    2.7590   -0.3800 C   0  0  0  0  0  0  0  0  0  0  0  0
   -1.0400    1.9950   -0.2160 C   0  0  0  0  0  0  0  0  0  0  0  0
    0.1390    2.4810   -0.2550 O   0  0  0  0  0  0  0  0  0  0  0  0
   -1.4690    0.6270   -0.0280 N   0  0  0  0  0  0  0  0  0  0  0  0
   -0.5870   -0.4310    0.1980 C   0  0  0  0  0  0  0  0  0  0  0  0
   -1.0700   -1.6630    0.0230 O   0  0  0  0  0  0  0  0  0  0  0  0
    0.7730   -0.4710    0.6070 C   0  0  0  0  0  0  0  0  0  0  0  0
    1.2940   -0.8020    1.8600 C   0  0  0  0  0  0  0  0  0  0  0  0
    2.6240   -0.8090    1.8450 N   0  0  0  0  0  0  0  0  0  0  0  0
    3.0530   -0.5000    0.6000 C   0  0  0  0  0  0  0  0  0  0  0  0
    4.4450   -0.7320    0.2160 C   0  0  0  0  0  0  0  0  0  0  0  0
    5.2220    0.3600   -0.3470 N   0  0  0  0  0  0  0  0  0  0  0  0
    1.9350   -0.2770   -0.2040 C   0  0  0  0  0  0  0  0  0  0  0  0
    1.8200    0.0530   -1.4940 O   0  0  0  0  0  0  0  0  0  0  0  0
    3.0090    0.5550   -2.6060 P   0  0  0  0  0  0  0  0  0  0  0  0
    3.7510    1.9450   -2.5140 O   0  0  0  0  0  0  0  0  0  0  0  0
  1  2  1  0
  2  3  1  0
  3  4  2  3
  4  5  1  0
  4  9  1  0
  5  6  1  0
  6  7  1  0
  7  8  2  0
  7  9  1  0
  9 10  1  0
 10 11  2  0
 10 12  1  0
 12 13  2  0
 12 18  1  0
 13 14  1  0
 14 15  1  0
 15 16  1  0
 15 18  2  0
 16 17  1  0
 18 19  1  0
 19 20  1  0
 20 21  2  0
M  END
