
     RDKit          3D

 22 23  0  0  0  0  0  0  0  0999 V2000
   -3.3240    0.7350    1.3430 C   0  0  0  0  0  0  0  0  0  0  0  0
   -3.7720   -0.4760    0.8970 O   0  0  0  0  0  0  0  0  0  0  0  0
   -2.8410   -1.2060   -0.3230 P   0  0  0  0  0  0  0  0  0  0  0  0
   -3.4260   -0.8650   -1.9210 O   0  0  0  0  0  0  0  0  0  0  0  0
   -4.0930    0.3560   -1.8720 C   0  0  0  0  0  0  0  0  0  0  0  0
   -5.1450    0.2030   -0.9560 O   0  0  0  0  0  0  0  0  0  0  0  0
   -5.9160   -0.7770   -1.4330 O   0  0  0  0  0  0  0  0  0  0  0  0
   -1.0770   -0.8270   -0.2510 C   0  0  0  0  0  0  0  0  0  0  0  0
   -0.4550   -0.4430    0.9140 C   0  0  0  0  0  0  0  0  0  0  0  0
    0.9010   -0.1750    0.8630 C   0  0  0  0  0  0  0  0  0  0  0  0
    1.6320   -0.2790   -0.2920 C   0  0  0  0  0  0  0  0  0  0  0  0
    3.0130    0.0130   -0.2540 N   0  0  0  0  0  0  0  0  0  0  0  0
    3.8740   -0.9170    0.1870 C   0  0  0  0  0  0  0  0  0  0  0  0
    3.4730   -2.0480    0.5690 O   0  0  0  0  0  0  0  0  0  0  0  0
    5.1870   -0.6530    0.2290 N   0  0  0  0  0  0  0  0  0  0  0  0
    5.6750    0.5470   -0.1690 C   0  0  0  0  0  0  0  0  0  0  0  0
    6.9020    0.7440   -0.1120 O   0  0  0  0  0  0  0  0  0  0  0  0
    4.7900    1.4650   -0.6080 N   0  0  0  0  0  0  0  0  0  0  0  0
    3.4710    1.2200   -0.6580 C   0  0  0  0  0  0  0  0  0  0  0  0
    2.6230    2.0610   -1.0650 O   0  0  0  0  0  0  0  0  0  0  0  0
    1.0250   -0.6610   -1.4570 C   0  0  0  0  0  0  0  0  0  0  0  0
   -0.3380   -0.9310   -1.4120 C   0  0  0  0  0  0  0  0  0  0  0  0
  1  2  1  0
  2  3  1  0
  3  4  1  0
  3  8  1  0
  4  5  1  0
  5  6  1  0
  6  7  1  0
  8  9  2  0
  8 22  1  0
  9 10  1  0
 10 11  2  0
 11 12  1  0
 11 21  1  0
 12 13  1  0
 12 19  1  0
 13 14  2  0
 13 15  1  0
 15 16  1  0
 16 17  2  0
 16 18  1  0
 18 19  1  0
 19 20  2  0
 21 22  2  0
M  END
