
     RDKit          3D

 33 35  0  0  0  0  0  0  0  0999 V2000
   -6.2850    2.1860    1.2640 C   0  0  0  0  0  0  0  0  0  0  0  0
   -6.5710    2.2940   -0.2120 C   0  0  1  0  0  0  0  0  0  0  0  0
   -6.3570    3.7270   -0.6280 C   0  0  0  0  0  0  0  0  0  0  0  0
   -5.6990    1.3300   -1.0120 C   0  0  1  0  0  0  0  0  0  0  0  0
   -4.3020    1.7150   -0.7440 C   0  0  0  0  0  0  0  0  0  0  0  0
   -3.7090    0.6500   -0.1610 C   0  0  0  0  0  0  0  0  0  0  0  0
   -2.2700    0.6940    0.2490 C   0  0  0  0  0  0  0  0  0  0  0  0
   -1.4510   -0.2030   -0.5860 C   0  0  0  0  0  0  0  0  0  0  0  0
   -0.0690   -0.1640   -0.1660 N   0  0  0  0  0  0  0  0  0  0  0  0
    0.7730   -0.9490   -0.8850 C   0  0  0  0  0  0  0  0  0  0  0  0
    0.3090   -1.6900   -1.8790 O   0  0  0  0  0  0  0  0  0  0  0  0
    2.0890   -1.1480   -0.7900 N   0  0  0  0  0  0  0  0  0  0  0  0
    3.4120   -1.3040   -0.6440 C   0  0  0  0  0  0  0  0  0  0  0  0
    3.8190   -2.1470   -1.5440 O   0  0  0  0  0  0  0  0  0  0  0  0
    4.3130   -0.7670    0.2210 N   0  0  0  0  0  0  0  0  0  0  0  0
    5.6480   -1.1360    0.1260 N   0  0  0  0  0  0  0  0  0  0  0  0
    6.4830   -0.6230   -0.9030 C   0  0  0  0  0  0  0  0  0  0  0  0
    5.9860    0.1670   -1.7320 O   0  0  0  0  0  0  0  0  0  0  0  0
    7.9340   -0.9850   -1.0400 C   0  0  0  0  0  0  0  0  0  0  0  0
    8.6680    0.0970   -0.4100 N   0  0  0  0  0  0  0  0  0  0  0  0
    9.0270    0.1880    0.8500 N   0  0  0  0  0  0  0  0  0  0  0  0
    9.7000    1.3560    1.0580 C   0  0  0  0  0  0  0  0  0  0  0  0
   10.1760    1.7350    2.1670 O   0  0  0  0  0  0  0  0  0  0  0  0
    9.7450    1.9890   -0.1210 N   0  0  0  0  0  0  0  0  0  0  0  0
    9.1070    1.2070   -1.0200 C   0  0  0  0  0  0  0  0  0  0  0  0
    8.9840    1.5340   -2.2260 O   0  0  0  0  0  0  0  0  0  0  0  0
   -4.6500   -0.4260    0.0020 C   0  0  0  0  0  0  0  0  0  0  0  0
   -4.5250   -1.7360    0.6290 C   0  0  0  0  0  0  0  0  0  0  0  0
   -3.5100   -2.2800    1.2140 C   0  0  0  0  0  0  0  0  0  0  0  0
   -3.8370   -3.6560    1.7150 C   0  0  0  0  0  0  0  0  0  0  0  0
   -5.2410   -3.8170    1.3130 C   0  0  0  0  0  0  0  0  0  0  0  0
   -5.6010   -2.7250    0.7060 C   0  0  0  0  0  0  0  0  0  0  0  0
   -5.8110   -0.0080   -0.5040 N   0  0  0  0  0  0  0  0  0  0  0  0
  2  1  1  1
  2  3  1  0
  2  4  1  0
  4  5  1  1
  4 33  1  0
  5  6  2  0
  6  7  1  0
  6 27  1  0
  7  8  1  0
  8  9  1  0
  9 10  1  0
 10 11  2  0
 10 12  1  0
 12 13  1  0
 13 14  2  0
 13 15  1  0
 15 16  1  0
 16 17  1  0
 17 18  2  0
 17 19  1  0
 19 20  1  0
 20 21  1  0
 20 25  1  0
 21 22  1  0
 22 23  2  0
 22 24  1  0
 24 25  1  0
 25 26  2  0
 27 28  1  0
 27 33  2  0
 28 29  2  0
 28 32  1  0
 29 30  1  0
 30 31  1  0
 31 32  2  0
M  END
