
     RDKit          3D

 31 34  0  0  0  0  0  0  0  0999 V2000
    1.1700    1.4770   -0.1390 C   0  0  0  0  0  0  0  0  0  0  0  0
    1.3000    0.0710    0.3560 C   0  0  0  0  0  0  0  0  0  0  0  0
    0.2930   -0.8460    0.5950 C   0  0  0  0  0  0  0  0  0  0  0  0
   -1.1340   -0.5900    0.3960 C   0  0  0  0  0  0  0  0  0  0  0  0
   -1.5130    0.5190   -0.0160 O   0  0  0  0  0  0  0  0  0  0  0  0
   -2.0720   -1.6020    0.6730 N   0  0  0  0  0  0  0  0  0  0  0  0
   -3.4760   -1.4500    0.5110 C   0  0  0  0  0  0  0  0  0  0  0  0
   -4.1610   -0.3510    0.0790 C   0  0  0  0  0  0  0  0  0  0  0  0
   -5.4840   -0.6290    0.0720 N   0  0  0  0  0  0  0  0  0  0  0  0
   -6.5090    0.2760   -0.3190 C   0  0  0  0  0  0  0  0  0  0  0  0
   -7.7180    0.3500    0.3420 C   0  0  0  0  0  0  0  0  0  0  0  0
   -8.7070    1.2350   -0.0490 C   0  0  0  0  0  0  0  0  0  0  0  0
   -8.5160    2.0780   -1.1200 C   0  0  0  0  0  0  0  0  0  0  0  0
   -7.3100    2.0230   -1.8030 C   0  0  0  0  0  0  0  0  0  0  0  0
   -6.3360    1.1350   -1.3990 C   0  0  0  0  0  0  0  0  0  0  0  0
   -5.5810   -1.8570    0.4890 N   0  0  0  0  0  0  0  0  0  0  0  0
   -4.4200   -2.4010    0.7660 N   0  0  0  0  0  0  0  0  0  0  0  0
    0.8230   -2.0010    1.0350 N   0  0  0  0  0  0  0  0  0  0  0  0
    2.1590   -1.8710    1.0930 C   0  0  0  0  0  0  0  0  0  0  0  0
    2.4650   -0.5940    0.6760 C   0  0  0  0  0  0  0  0  0  0  0  0
    3.8830   -0.1210    0.6220 C   0  0  0  0  0  0  0  0  0  0  0  0
    4.8260   -1.2500    0.4520 C   0  0  0  0  0  0  0  0  0  0  0  0
    6.0780   -1.0030    0.1740 C   0  0  0  0  0  0  0  0  0  0  0  0
    6.5540    0.3570    0.0310 C   0  0  0  0  0  0  0  0  0  0  0  0
    7.8150    0.6450   -0.2500 C   0  0  0  0  0  0  0  0  0  0  0  0
    8.2080    2.0590   -0.3760 C   0  0  2  0  0  0  0  0  0  0  0  0
    9.4580    2.1920    0.2260 F   0  0  0  0  0  0  0  0  0  0  0  0
    7.2800    2.8700    0.2460 F   0  0  0  0  0  0  0  0  0  0  0  0
    8.3350    2.4630   -1.6890 F   0  0  0  0  0  0  0  0  0  0  0  0
    4.3460   -2.5450    0.5930 O   0  0  0  0  0  0  0  0  0  0  0  0
    3.2720   -2.7790    1.4920 C   0  0  0  0  0  0  0  0  0  0  0  0
  1  2  1  0
  2  3  2  0
  2 20  1  0
  3  4  1  0
  3 18  1  0
  4  5  2  0
  4  6  1  0
  6  7  1  0
  7  8  2  0
  7 17  1  0
  8  9  1  0
  9 10  1  0
  9 16  1  0
 10 11  2  0
 10 15  1  0
 11 12  1  0
 12 13  2  0
 13 14  1  0
 14 15  2  0
 16 17  2  0
 18 19  1  0
 19 20  2  0
 19 31  1  0
 20 21  1  0
 21 22  1  0
 22 23  2  3
 22 30  1  0
 23 24  1  0
 24 25  2  3
 25 26  1  0
 26 27  1  1
 26 28  1  0
 26 29  1  0
 30 31  1  0
M  END
