
     RDKit          3D

 33 35  0  0  0  0  0  0  0  0999 V2000
   -4.7970    2.8960   -2.0330 C   0  0  0  0  0  0  0  0  0  0  0  0
   -5.2920    2.2230   -0.7680 C   0  0  0  0  0  0  0  0  0  0  0  0
   -5.0980    0.8150   -0.9160 N   0  0  0  0  0  0  0  0  0  0  0  0
   -5.5410    0.0500    0.2550 C   0  0  0  0  0  0  0  0  0  0  0  0
   -4.6440    0.3260    1.4410 C   0  0  0  0  0  0  0  0  0  0  0  0
   -3.2190   -0.0600    1.1650 C   0  0  0  0  0  0  0  0  0  0  0  0
   -2.2420    0.7160    0.7440 N   0  0  0  0  0  0  0  0  0  0  0  0
   -1.0650    0.0360    0.5480 C   0  0  0  0  0  0  0  0  0  0  0  0
    0.1240    0.7790    0.1980 C   0  0  0  0  0  0  0  0  0  0  0  0
    0.0200    2.0560    0.4370 O   0  0  0  0  0  0  0  0  0  0  0  0
    1.3500    0.4230   -0.3410 N   0  0  0  0  0  0  0  0  0  0  0  0
    1.5760   -0.8430   -0.8890 N   0  0  0  0  0  0  0  0  0  0  0  0
    2.8270   -1.2970   -1.3580 C   0  0  0  0  0  0  0  0  0  0  0  0
    2.9350   -2.4930   -1.8080 O   0  0  0  0  0  0  0  0  0  0  0  0
    3.9980   -0.3990   -1.3300 C   0  0  2  0  0  0  0  0  0  0  0  0
    5.1340   -1.0140   -0.6590 N   0  0  0  0  0  0  0  0  0  0  0  0
    6.3300   -1.3810   -1.3620 C   0  0  0  0  0  0  0  0  0  0  0  0
    7.4280   -1.9780   -0.6890 N   0  0  0  0  0  0  0  0  0  0  0  0
    6.3650   -1.1520   -2.5970 O   0  0  0  0  0  0  0  0  0  0  0  0
    3.6400    0.8280   -0.7530 N   0  0  0  0  0  0  0  0  0  0  0  0
    2.5390    1.2610   -0.3060 C   0  0  0  0  0  0  0  0  0  0  0  0
    2.4810    2.5960    0.2650 C   0  0  0  0  0  0  0  0  0  0  0  0
    3.4740    3.4440    0.3640 C   0  0  0  0  0  0  0  0  0  0  0  0
    4.8450    3.3800   -0.0140 C   0  0  0  0  0  0  0  0  0  0  0  0
    5.6140    2.3900   -0.6260 N   0  0  0  0  0  0  0  0  0  0  0  0
    5.5120    4.4850    0.2770 O   0  0  0  0  0  0  0  0  0  0  0  0
   -1.3350   -1.2720    0.8810 C   0  0  0  0  0  0  0  0  0  0  0  0
   -2.6830   -1.3230    1.2630 C   0  0  0  0  0  0  0  0  0  0  0  0
   -3.2360   -2.6030    1.6820 C   0  0  0  0  0  0  0  0  0  0  0  0
   -4.5040   -2.6880    1.7230 O   0  0  0  0  0  0  0  0  0  0  0  0
   -2.3730   -3.7270    2.0380 C   0  0  0  0  0  0  0  0  0  0  0  0
   -0.9330   -3.4080    2.0820 C   0  0  0  0  0  0  0  0  0  0  0  0
   -0.4960   -2.4590    0.9840 C   0  0  0  0  0  0  0  0  0  0  0  0
  1  2  1  0
  2  3  1  0
  3  4  1  0
  4  5  1  0
  5  6  1  0
  6  7  1  0
  6 28  2  0
  7  8  1  0
  8  9  1  0
  8 27  2  0
  9 10  2  0
  9 11  1  0
 11 12  1  0
 11 21  1  0
 12 13  1  0
 13 14  2  0
 13 15  1  0
 15 16  1  1
 15 20  1  0
 16 17  1  0
 17 18  1  0
 17 19  2  0
 20 21  2  0
 21 22  1  0
 22 23  2  3
 23 24  1  0
 24 25  1  0
 24 26  2  0
 27 28  1  0
 27 33  1  0
 28 29  1  0
 29 30  2  0
 29 31  1  0
 31 32  1  0
 32 33  1  0
M  END
