
     RDKit          3D

 33 35  0  0  0  0  0  0  0  0999 V2000
   10.1480    1.1190    0.5090 N   0  0  0  0  0  0  0  0  0  0  0  0
    8.7330    0.9160    0.5390 C   0  0  0  0  0  0  0  0  0  0  0  0
    8.1190    1.6840    1.3680 O   0  0  0  0  0  0  0  0  0  0  0  0
    8.0680   -0.0420   -0.2480 N   0  0  0  0  0  0  0  0  0  0  0  0
    6.6810   -0.2320   -0.1780 C   0  0  0  0  0  0  0  0  0  0  0  0
    6.0160   -1.0680   -0.8650 C   0  0  0  0  0  0  0  0  0  0  0  0
    4.6300   -1.5160   -1.0310 C   0  0  0  0  0  0  0  0  0  0  0  0
    3.6850   -0.8730   -0.1870 N   0  0  0  0  0  0  0  0  0  0  0  0
    3.2670   -1.4010    1.1370 C   0  0  0  0  0  0  0  0  0  0  0  0
    1.7670   -1.6650    0.8800 C   0  0  0  0  0  0  0  0  0  0  0  0
    1.1220   -0.4000    0.8730 N   0  0  0  0  0  0  0  0  0  0  0  0
   -0.2920   -0.4740    0.9560 C   0  0  0  0  0  0  0  0  0  0  0  0
   -0.8190    0.8880    1.2040 C   0  0  0  0  0  0  0  0  0  0  0  0
   -2.2050    0.9690    1.2990 N   0  0  0  0  0  0  0  0  0  0  0  0
   -3.0730    0.6150    0.1060 C   0  0  0  0  0  0  0  0  0  0  0  0
   -2.5310    0.2260   -0.8990 O   0  0  0  0  0  0  0  0  0  0  0  0
   -4.3380    0.8790    0.4760 N   0  0  0  0  0  0  0  0  0  0  0  0
   -5.1380   -0.2730   -0.5340 C   0  0  0  0  0  0  0  0  0  0  0  0
   -4.3650   -0.9770   -1.1050 O   0  0  0  0  0  0  0  0  0  0  0  0
   -6.5170   -0.2110   -0.5210 N   0  0  0  0  0  0  0  0  0  0  0  0
   -7.3060   -1.3990   -1.0330 C   0  0  0  0  0  0  0  0  0  0  0  0
   -8.4290   -0.7720   -1.7630 C   0  0  0  0  0  0  0  0  0  0  0  0
   -8.7620    0.4640   -0.9740 C   0  0  0  0  0  0  0  0  0  0  0  0
   -9.6730    1.3410   -0.6700 C   0  0  0  0  0  0  0  0  0  0  0  0
   -9.0970    2.2990    0.2810 C   0  0  0  0  0  0  0  0  0  0  0  0
   -7.7230    1.8220    0.5120 C   0  0  0  0  0  0  0  0  0  0  0  0
   -7.5230    0.7440   -0.2230 C   0  0  0  0  0  0  0  0  0  0  0  0
    1.6890    0.6040    0.0770 C   0  0  0  0  0  0  0  0  0  0  0  0
    2.9990    0.3500   -0.5890 C   0  0  0  0  0  0  0  0  0  0  0  0
    3.5390    1.0750   -1.4340 O   0  0  0  0  0  0  0  0  0  0  0  0
    6.7860   -1.3320   -2.2240 C   0  0  0  0  0  0  0  0  0  0  0  0
    7.8850   -0.5580   -2.6270 N   0  0  0  0  0  0  0  0  0  0  0  0
    6.4160   -2.2410   -2.9550 O   0  0  0  0  0  0  0  0  0  0  0  0
  1  2  1  0
  2  3  2  0
  2  4  1  0
  4  5  1  0
  5  6  2  3
  6  7  1  0
  6 31  1  0
  7  8  1  0
  8  9  1  0
  8 29  1  0
  9 10  1  0
 10 11  1  0
 11 12  1  0
 11 28  1  0
 12 13  1  0
 13 14  1  0
 14 15  1  0
 15 16  2  0
 15 17  1  0
 17 18  1  0
 18 19  2  0
 18 20  1  0
 20 21  1  0
 20 27  1  0
 21 22  1  0
 22 23  1  0
 23 24  2  0
 23 27  1  0
 24 25  1  0
 25 26  1  0
 26 27  2  0
 28 29  1  0
 29 30  2  0
 31 32  1  0
 31 33  2  0
M  END
