
     RDKit          3D

 32 34  0  0  0  0  0  0  0  0999 V2000
   -4.7510    0.7950   -2.3870 C   0  0  0  0  0  0  0  0  0  0  0  0
   -4.8910   -0.2800   -1.3470 C   0  0  0  0  0  0  0  0  0  0  0  0
   -5.8580   -1.2310   -1.3710 N   0  0  0  0  0  0  0  0  0  0  0  0
   -5.6920   -2.0080   -0.3550 O   0  0  0  0  0  0  0  0  0  0  0  0
   -4.6540   -1.6500    0.3830 C   0  0  0  0  0  0  0  0  0  0  0  0
   -4.1730   -2.3180    1.6260 C   0  0  0  0  0  0  0  0  0  0  0  0
   -5.0940   -3.5440    1.8190 C   0  0  0  0  0  0  0  0  0  0  0  0
   -6.4020   -3.1490    1.9500 O   0  0  0  0  0  0  0  0  0  0  0  0
   -4.1230   -0.5420   -0.2340 C   0  0  0  0  0  0  0  0  0  0  0  0
   -2.9740    0.3200    0.1390 C   0  0  2  0  0  0  0  0  0  0  0  0
   -1.9950   -0.3030    1.0900 C   0  0  0  0  0  0  0  0  0  0  0  0
   -0.9340    0.6460    1.3370 N   0  0  0  0  0  0  0  0  0  0  0  0
   -0.1240    1.0830    0.2610 C   0  0  0  0  0  0  0  0  0  0  0  0
   -0.2360    0.7050   -0.9310 O   0  0  0  0  0  0  0  0  0  0  0  0
    0.9360    2.0410    0.4790 N   0  0  0  0  0  0  0  0  0  0  0  0
    1.7730    2.5200   -0.5880 C   0  0  0  0  0  0  0  0  0  0  0  0
    2.8000    1.5410   -1.0110 C   0  0  0  0  0  0  0  0  0  0  0  0
    4.0300    1.2180   -0.4740 C   0  0  0  0  0  0  0  0  0  0  0  0
    4.6270    0.2470   -1.2550 C   0  0  0  0  0  0  0  0  0  0  0  0
    5.9230   -0.3990   -1.0810 C   0  0  0  0  0  0  0  0  0  0  0  0
    6.7660   -0.1580   -0.0250 C   0  0  0  0  0  0  0  0  0  0  0  0
    8.0010   -0.8200    0.0630 C   0  0  0  0  0  0  0  0  0  0  0  0
    8.3880   -1.7180   -0.9030 C   0  0  0  0  0  0  0  0  0  0  0  0
    9.6270   -2.4100   -0.8470 N   0  0  0  0  0  0  0  0  0  0  0  0
    7.5400   -1.9410   -1.9390 N   0  0  0  0  0  0  0  0  0  0  0  0
    6.3560   -1.3140   -2.0340 C   0  0  0  0  0  0  0  0  0  0  0  0
    3.7570    0.0110   -2.2260 O   0  0  0  0  0  0  0  0  0  0  0  0
    2.7020    0.7500   -2.0960 N   0  0  0  0  0  0  0  0  0  0  0  0
   -3.5570    1.4330    0.9220 N   0  0  0  0  0  0  0  0  0  0  0  0
   -3.4040    2.7720    0.5940 C   0  0  0  0  0  0  0  0  0  0  0  0
   -4.0200    3.7780    1.4260 N   0  0  0  0  0  0  0  0  0  0  0  0
   -2.7450    3.1860   -0.4100 O   0  0  0  0  0  0  0  0  0  0  0  0
  1  2  1  0
  2  3  2  0
  2  9  1  0
  3  4  1  0
  4  5  1  0
  5  6  1  0
  5  9  2  0
  6  7  1  0
  7  8  1  0
  9 10  1  0
 10 11  1  1
 10 29  1  0
 11 12  1  0
 12 13  1  0
 13 14  2  0
 13 15  1  0
 15 16  1  0
 16 17  1  0
 17 18  1  0
 17 28  2  0
 18 19  2  0
 19 20  1  0
 19 27  1  0
 20 21  2  0
 20 26  1  0
 21 22  1  0
 22 23  2  0
 23 24  1  0
 23 25  1  0
 25 26  2  0
 27 28  1  0
 29 30  1  0
 30 31  1  0
 30 32  2  0
M  END
