
     RDKit          3D

 32 35  0  0  0  0  0  0  0  0999 V2000
   -5.9080    0.3100    0.8090 C   0  0  0  0  0  0  0  0  0  0  0  0
   -4.5120    0.3070    0.3580 C   0  0  0  0  0  0  0  0  0  0  0  0
   -4.0400    1.4440   -0.3020 C   0  0  0  0  0  0  0  0  0  0  0  0
   -2.7080    1.4680   -0.7320 C   0  0  0  0  0  0  0  0  0  0  0  0
   -1.8620    0.4140   -0.5180 C   0  0  0  0  0  0  0  0  0  0  0  0
   -2.3590   -0.7170    0.1380 C   0  0  0  0  0  0  0  0  0  0  0  0
   -3.6550   -0.7050    0.5400 C   0  0  0  0  0  0  0  0  0  0  0  0
   -4.1410   -1.8950    1.3430 C   0  0  0  0  0  0  0  0  0  0  0  0
   -4.8470   -2.7700    0.3680 N   0  0  0  0  0  0  0  0  0  0  0  0
   -4.2970   -3.9960    0.2210 F   0  0  0  0  0  0  0  0  0  0  0  0
   -0.6330    0.7120   -0.9760 C   0  0  0  0  0  0  0  0  0  0  0  0
    0.6900    0.1730   -0.8770 C   0  0  0  0  0  0  0  0  0  0  0  0
    1.3430    0.5240    0.3240 C   0  0  0  0  0  0  0  0  0  0  0  0
    0.7210    1.2210    1.4610 C   0  0  2  0  0  0  0  0  0  0  0  0
   -0.2800    0.4430    1.9960 F   0  0  0  0  0  0  0  0  0  0  0  0
    0.3230    2.4800    1.1710 F   0  0  0  0  0  0  0  0  0  0  0  0
    1.6930    1.3710    2.4670 F   0  0  0  0  0  0  0  0  0  0  0  0
    2.6520    0.1130    0.4500 C   0  0  0  0  0  0  0  0  0  0  0  0
    3.3440   -0.6190   -0.5490 C   0  0  0  0  0  0  0  0  0  0  0  0
    4.7770   -0.8770   -0.2610 C   0  0  0  0  0  0  0  0  0  0  0  0
    5.2710   -0.6460    0.9890 C   0  0  0  0  0  0  0  0  0  0  0  0
    6.6090   -0.7770    1.2700 C   0  0  0  0  0  0  0  0  0  0  0  0
    7.3870   -1.1500    0.2350 C   0  0  0  0  0  0  0  0  0  0  0  0
    6.9360   -1.3840   -0.9850 N   0  0  0  0  0  0  0  0  0  0  0  0
    5.6090   -1.2580   -1.2570 C   0  0  0  0  0  0  0  0  0  0  0  0
    5.2400   -1.5090   -2.4730 O   0  0  0  0  0  0  0  0  0  0  0  0
    2.7060   -0.9300   -1.6560 N   0  0  0  0  0  0  0  0  0  0  0  0
    1.3910   -0.5250   -1.7890 C   0  0  0  0  0  0  0  0  0  0  0  0
    0.7990   -0.8360   -2.8640 O   0  0  0  0  0  0  0  0  0  0  0  0
   -0.7510    2.0030   -1.5160 N   0  0  0  0  0  0  0  0  0  0  0  0
   -1.9710    2.4030   -1.3590 N   0  0  0  0  0  0  0  0  0  0  0  0
   -2.5830    3.6580   -1.8960 C   0  0  0  0  0  0  0  0  0  0  0  0
  1  2  1  0
  2  3  2  0
  2  7  1  0
  3  4  1  0
  4  5  2  0
  4 31  1  0
  5  6  1  0
  5 11  1  0
  6  7  2  0
  7  8  1  0
  8  9  1  0
  9 10  1  0
 11 12  1  0
 11 30  2  0
 12 13  2  0
 12 28  1  0
 13 14  1  0
 13 18  1  0
 14 15  1  1
 14 16  1  0
 14 17  1  0
 18 19  2  0
 19 20  1  0
 19 27  1  0
 20 21  2  0
 20 25  1  0
 21 22  1  0
 22 23  2  0
 23 24  1  0
 24 25  1  0
 25 26  2  0
 27 28  1  0
 28 29  2  0
 30 31  1  0
 31 32  1  0
M  END
