
     RDKit          3D

 32 35  0  0  0  0  0  0  0  0999 V2000
    8.2550   -1.1200    2.4710 C   0  0  0  0  0  0  0  0  0  0  0  0
    7.1230   -0.3760    1.9400 N   0  0  0  0  0  0  0  0  0  0  0  0
    6.6690   -0.5490    0.7590 C   0  0  0  0  0  0  0  0  0  0  0  0
    7.2670   -1.4760   -0.0540 O   0  0  0  0  0  0  0  0  0  0  0  0
    5.5300    0.2420    0.3110 C   0  0  0  0  0  0  0  0  0  0  0  0
    5.0520    0.0370   -0.9760 C   0  0  0  0  0  0  0  0  0  0  0  0
    3.9750    0.7890   -1.3890 C   0  0  0  0  0  0  0  0  0  0  0  0
    3.3560    1.7340   -0.5780 C   0  0  0  0  0  0  0  0  0  0  0  0
    2.2750    2.4390   -1.0960 O   0  0  0  0  0  0  0  0  0  0  0  0
    1.0180    1.8770   -0.8960 C   0  0  0  0  0  0  0  0  0  0  0  0
    0.5340    0.9230   -1.7530 C   0  0  0  0  0  0  0  0  0  0  0  0
   -0.7370    0.3730   -1.5280 C   0  0  0  0  0  0  0  0  0  0  0  0
   -1.4990    0.7770   -0.4630 C   0  0  0  0  0  0  0  0  0  0  0  0
   -0.9640    1.7500    0.3790 C   0  0  0  0  0  0  0  0  0  0  0  0
    0.2570    2.2580    0.1370 N   0  0  0  0  0  0  0  0  0  0  0  0
   -1.8880    1.9860    1.3380 N   0  0  0  0  0  0  0  0  0  0  0  0
   -2.9390    1.1880    1.0860 C   0  0  0  0  0  0  0  0  0  0  0  0
   -2.7090    0.4380   -0.0270 N   0  0  0  0  0  0  0  0  0  0  0  0
   -3.7750   -0.4260   -0.4770 C   0  0  0  0  0  0  0  0  0  0  0  0
   -3.6040   -1.2180   -1.4680 C   0  0  0  0  0  0  0  0  0  0  0  0
   -4.5330   -2.1890   -2.1000 C   0  0  2  0  0  0  0  0  0  0  0  0
   -5.1410   -1.7710   -3.2330 F   0  0  0  0  0  0  0  0  0  0  0  0
   -5.3160   -2.8350   -1.1750 F   0  0  0  0  0  0  0  0  0  0  0  0
   -3.6790   -3.2550   -2.5580 F   0  0  0  0  0  0  0  0  0  0  0  0
   -5.0290   -0.4120    0.2870 C   0  0  0  0  0  0  0  0  0  0  0  0
   -6.1650   -0.4730   -0.2960 C   0  0  0  0  0  0  0  0  0  0  0  0
   -7.4720   -0.4730    0.3860 C   0  0  0  0  0  0  0  0  0  0  0  0
   -8.1840   -1.6530    0.0780 F   0  0  0  0  0  0  0  0  0  0  0  0
   -4.9210   -0.1820    1.7620 C   0  0  0  0  0  0  0  0  0  0  0  0
   -4.1050    1.0660    1.8920 N   0  0  0  0  0  0  0  0  0  0  0  0
    3.8430    1.9220    0.6910 C   0  0  0  0  0  0  0  0  0  0  0  0
    4.9200    1.1780    1.1220 C   0  0  0  0  0  0  0  0  0  0  0  0
  1  2  1  0
  2  3  2  3
  3  4  1  0
  3  5  1  0
  5  6  2  0
  5 32  1  0
  6  7  1  0
  7  8  2  0
  8  9  1  0
  8 31  1  0
  9 10  1  0
 10 11  2  0
 10 15  1  0
 11 12  1  0
 12 13  2  0
 13 14  1  0
 13 18  1  0
 14 15  2  0
 14 16  1  0
 16 17  2  0
 17 18  1  0
 17 30  1  0
 18 19  1  0
 19 20  2  3
 19 25  1  0
 20 21  1  0
 21 22  1  6
 21 23  1  0
 21 24  1  0
 25 26  2  3
 25 29  1  0
 26 27  1  0
 27 28  1  0
 29 30  1  0
 31 32  2  0
M  END
