
     RDKit          3D

 33 35  0  0  0  0  0  0  0  0999 V2000
   11.1570    0.9940    0.1460 N   0  0  0  0  0  0  0  0  0  0  0  0
   10.4410    0.1890   -0.7920 C   0  0  0  0  0  0  0  0  0  0  0  0
    8.9770    0.2120   -0.4940 C   0  0  0  0  0  0  0  0  0  0  0  0
    8.3350   -0.9100   -0.2540 C   0  0  0  0  0  0  0  0  0  0  0  0
    6.9090   -1.0740    0.0540 C   0  0  0  0  0  0  0  0  0  0  0  0
    6.1910    0.1660    0.1460 N   0  0  0  0  0  0  0  0  0  0  0  0
    4.7470    0.1600    0.1080 C   0  0  0  0  0  0  0  0  0  0  0  0
    3.9720    0.7540    1.0660 C   0  0  0  0  0  0  0  0  0  0  0  0
    2.6030    0.7110    0.9340 C   0  0  0  0  0  0  0  0  0  0  0  0
    1.9690    0.1000   -0.1130 C   0  0  0  0  0  0  0  0  0  0  0  0
    0.6130    0.0400   -0.2990 N   0  0  0  0  0  0  0  0  0  0  0  0
   -0.4370    0.3680    0.6790 C   0  0  0  0  0  0  0  0  0  0  0  0
   -0.1150    0.7260    1.7560 O   0  0  0  0  0  0  0  0  0  0  0  0
   -1.6790    0.1530    0.0540 N   0  0  0  0  0  0  0  0  0  0  0  0
   -2.6810    0.3190    1.4770 C   0  0  0  0  0  0  0  0  0  0  0  0
   -2.1060    0.5180    2.4470 O   0  0  0  0  0  0  0  0  0  0  0  0
   -4.0510    0.1630    1.1540 C   0  0  0  0  0  0  0  0  0  0  0  0
   -4.6110    0.5170   -0.0390 N   0  0  0  0  0  0  0  0  0  0  0  0
   -5.8670    0.2490   -0.2870 N   0  0  0  0  0  0  0  0  0  0  0  0
   -6.4860    0.6410   -1.5610 C   0  0  0  0  0  0  0  0  0  0  0  0
   -7.1350    1.9970   -1.3780 C   0  0  0  0  0  0  0  0  0  0  0  0
   -7.1090    2.6640   -0.1470 N   0  0  0  0  0  0  0  0  0  0  0  0
   -7.7160    2.5490   -2.3350 O   0  0  0  0  0  0  0  0  0  0  0  0
   -6.6450   -0.3790    0.6150 C   0  0  0  0  0  0  0  0  0  0  0  0
   -8.0650   -0.6800    0.2430 C   0  0  1  0  0  0  0  0  0  0  0  0
   -8.2190   -2.1770   -0.1630 C   0  0  0  0  0  0  0  0  0  0  0  0
   -8.8170   -1.6100    1.1010 C   0  0  0  0  0  0  0  0  0  0  0  0
   -6.1480   -0.7550    1.8230 N   0  0  0  0  0  0  0  0  0  0  0  0
   -4.8620   -0.4900    2.0990 C   0  0  0  0  0  0  0  0  0  0  0  0
   -4.3570   -0.8180    3.2030 O   0  0  0  0  0  0  0  0  0  0  0  0
    2.7950   -0.5060   -1.0930 C   0  0  0  0  0  0  0  0  0  0  0  0
    2.1360   -1.1170   -2.1480 O   0  0  0  0  0  0  0  0  0  0  0  0
    4.1440   -0.4700   -0.9710 C   0  0  0  0  0  0  0  0  0  0  0  0
  1  2  1  0
  2  3  1  0
  3  4  2  3
  4  5  1  0
  5  6  1  0
  6  7  1  0
  7  8  2  0
  7 33  1  0
  8  9  1  0
  9 10  2  0
 10 11  1  0
 10 31  1  0
 11 12  1  0
 12 13  2  0
 12 14  1  0
 14 15  1  0
 15 16  2  0
 15 17  1  0
 17 18  2  0
 17 29  1  0
 18 19  1  0
 19 20  1  0
 19 24  1  0
 20 21  1  0
 21 22  1  0
 21 23  2  0
 25 24  1  1
 24 28  2  0
 25 26  1  0
 25 27  1  0
 26 27  1  0
 28 29  1  0
 29 30  2  0
 31 32  1  0
 31 33  2  0
M  END
