
     RDKit          3D

 31 34  0  0  0  0  0  0  0  0999 V2000
    9.4570    1.4770   -0.5340 O   0  0  0  0  0  0  0  0  0  0  0  0
    9.0480    0.8120    0.4450 C   0  0  0  0  0  0  0  0  0  0  0  0
    7.6770    0.4490    0.5470 N   0  0  0  0  0  0  0  0  0  0  0  0
    6.7990    0.8790   -0.5160 C   0  0  0  0  0  0  0  0  0  0  0  0
    5.3930    0.4110   -0.2470 C   0  0  0  0  0  0  0  0  0  0  0  0
    4.3370    0.6460   -1.0460 N   0  0  0  0  0  0  0  0  0  0  0  0
    3.2310    0.0860   -0.5070 C   0  0  0  0  0  0  0  0  0  0  0  0
    1.8960    0.0110   -0.8830 C   0  0  0  0  0  0  0  0  0  0  0  0
    0.9650   -0.6440   -0.1170 C   0  0  0  0  0  0  0  0  0  0  0  0
   -0.4160   -0.7410   -0.4710 N   0  0  0  0  0  0  0  0  0  0  0  0
   -0.8870   -1.3520   -1.5730 C   0  0  0  0  0  0  0  0  0  0  0  0
   -2.2820   -1.2610   -1.6070 C   0  0  0  0  0  0  0  0  0  0  0  0
   -2.6400   -0.5650   -0.4750 C   0  0  0  0  0  0  0  0  0  0  0  0
   -4.0270   -0.2180   -0.0760 C   0  0  0  0  0  0  0  0  0  0  0  0
   -5.0420   -0.5760   -0.8220 C   0  0  0  0  0  0  0  0  0  0  0  0
   -6.4180   -0.2820   -0.5100 C   0  0  0  0  0  0  0  0  0  0  0  0
   -7.3280   -0.7000   -1.3660 N   0  0  0  0  0  0  0  0  0  0  0  0
   -8.7420   -0.5540   -1.3170 C   0  0  0  0  0  0  0  0  0  0  0  0
   -9.4740    0.2740   -0.5500 C   0  0  0  0  0  0  0  0  0  0  0  0
   -9.0150    1.2490    0.4430 C   0  0  0  0  0  0  0  0  0  0  0  0
   -7.8020    1.3020    0.9710 C   0  0  0  0  0  0  0  0  0  0  0  0
   -6.6880    0.4200    0.6820 N   0  0  0  0  0  0  0  0  0  0  0  0
   -1.4760   -0.2700    0.1850 C   0  0  0  0  0  0  0  0  0  0  0  0
    1.4040   -1.2340    1.0540 C   0  0  0  0  0  0  0  0  0  0  0  0
    2.7270   -1.1590    1.4250 C   0  0  0  0  0  0  0  0  0  0  0  0
    3.6690   -0.5060    0.6670 C   0  0  0  0  0  0  0  0  0  0  0  0
    4.9620   -0.2830    0.7750 O   0  0  0  0  0  0  0  0  0  0  0  0
   10.0000    0.3900    1.5240 C   0  0  1  0  0  0  0  0  0  0  0  0
    9.9920   -1.0010    1.5850 F   0  0  0  0  0  0  0  0  0  0  0  0
   11.2650    0.8540    1.2050 F   0  0  0  0  0  0  0  0  0  0  0  0
    9.5930    0.9000    2.7400 F   0  0  0  0  0  0  0  0  0  0  0  0
  1  2  2  0
  2  3  1  0
  2 28  1  0
  3  4  1  0
  4  5  1  0
  5  6  2  0
  5 27  1  0
  6  7  1  0
  7  8  2  0
  7 26  1  0
  8  9  1  0
  9 10  1  0
  9 24  2  0
 10 11  1  0
 10 23  1  0
 11 12  2  0
 12 13  1  0
 13 14  1  0
 13 23  2  0
 14 15  2  3
 15 16  1  0
 16 17  2  0
 16 22  1  0
 17 18  1  0
 18 19  2  0
 19 20  1  0
 20 21  2  0
 21 22  1  0
 24 25  1  0
 25 26  2  0
 26 27  1  0
 28 29  1  1
 28 30  1  0
 28 31  1  0
M  END
