
     RDKit          3D

 31 34  0  0  0  0  0  0  0  0999 V2000
    1.9560   -2.3320    0.4540 C   0  0  0  0  0  0  0  0  0  0  0  0
    3.2620   -1.6990    0.1800 C   0  0  0  0  0  0  0  0  0  0  0  0
    4.4140   -2.3780    0.2050 O   0  0  0  0  0  0  0  0  0  0  0  0
    5.4170   -1.6010   -0.0650 C   0  0  0  0  0  0  0  0  0  0  0  0
    6.8630   -1.9010   -0.1560 C   0  0  0  0  0  0  0  0  0  0  0  0
    7.2990   -2.9240   -0.9270 F   0  0  0  0  0  0  0  0  0  0  0  0
    7.6520   -1.1280    0.5380 C   0  0  0  0  0  0  0  0  0  0  0  0
    9.0030   -1.3400    0.4980 F   0  0  0  0  0  0  0  0  0  0  0  0
    7.1730   -0.1300    1.2910 F   0  0  0  0  0  0  0  0  0  0  0  0
    4.8990   -0.3300   -0.2830 C   0  0  0  0  0  0  0  0  0  0  0  0
    3.5270   -0.3820   -0.1310 C   0  0  0  0  0  0  0  0  0  0  0  0
    2.6420    0.7520   -0.3240 C   0  0  0  0  0  0  0  0  0  0  0  0
    3.2210    1.8650   -0.5780 O   0  0  0  0  0  0  0  0  0  0  0  0
    1.2240    0.7070   -0.2540 N   0  0  0  0  0  0  0  0  0  0  0  0
    0.4910    1.9020   -0.5360 C   0  0  0  0  0  0  0  0  0  0  0  0
    1.0840    3.0740   -0.9390 N   0  0  0  0  0  0  0  0  0  0  0  0
    0.1430    4.0010   -1.1450 C   0  0  0  0  0  0  0  0  0  0  0  0
    0.4170    5.3920   -1.5900 C   0  0  0  0  0  0  0  0  0  0  0  0
   -1.0410    3.3770   -0.8590 C   0  0  0  0  0  0  0  0  0  0  0  0
   -2.3140    3.8800   -0.9090 C   0  0  0  0  0  0  0  0  0  0  0  0
   -3.3940    3.0790   -0.5760 C   0  0  0  0  0  0  0  0  0  0  0  0
   -3.1290    1.8190   -0.2100 N   0  0  0  0  0  0  0  0  0  0  0  0
   -1.8880    1.2960   -0.1520 C   0  0  0  0  0  0  0  0  0  0  0  0
   -1.6450   -0.0850    0.3000 C   0  0  0  0  0  0  0  0  0  0  0  0
   -2.8840   -0.7060    0.8080 N   0  0  0  0  0  0  0  0  0  0  0  0
   -3.9110   -0.8540   -0.1550 C   0  0  0  0  0  0  0  0  0  0  0  0
   -4.3170   -2.3000   -0.3660 C   0  0  0  0  0  0  0  0  0  0  0  0
   -4.5990   -3.0000    0.9410 C   0  0  0  0  0  0  0  0  0  0  0  0
   -3.5650   -2.7080    1.9940 C   0  0  0  0  0  0  0  0  0  0  0  0
   -2.4350   -1.9690    1.3630 C   0  0  0  0  0  0  0  0  0  0  0  0
   -0.8420    2.0820   -0.4810 N   0  0  0  0  0  0  0  0  0  0  0  0
  1  2  1  0
  2  3  1  0
  2 11  2  0
  3  4  1  0
  4  5  1  0
  4 10  2  0
  5  6  1  0
  5  7  2  3
  7  8  1  0
  7  9  1  0
 10 11  1  0
 11 12  1  0
 12 13  2  0
 12 14  1  0
 14 15  1  0
 15 16  2  0
 15 31  1  0
 16 17  1  0
 17 18  1  0
 17 19  2  0
 19 20  1  0
 19 31  1  0
 20 21  2  0
 21 22  1  0
 22 23  2  0
 23 24  1  0
 23 31  1  0
 24 25  1  0
 25 26  1  0
 25 30  1  0
 26 27  1  0
 27 28  1  0
 28 29  1  0
 29 30  1  0
M  END
