
     RDKit          3D

 26 27  0  0  0  0  0  0  0  0999 V2000
   -2.9360   -2.7520    0.5250 N   0  0  0  0  0  0  0  0  0  0  0  0
   -1.7640   -2.6960   -0.0220 C   0  0  0  0  0  0  0  0  0  0  0  0
   -1.2900   -3.8030   -0.8850 C   0  0  0  0  0  0  0  0  0  0  0  0
   -0.1070   -4.3570   -0.3420 O   0  0  0  0  0  0  0  0  0  0  0  0
   -0.8990   -1.5420    0.2030 C   0  0  0  0  0  0  0  0  0  0  0  0
    0.2560   -1.5280   -0.3600 N   0  0  0  0  0  0  0  0  0  0  0  0
    1.1670   -0.4620   -0.2070 C   0  0  0  0  0  0  0  0  0  0  0  0
    2.4830   -0.4750   -0.8660 C   0  0  0  0  0  0  0  0  0  0  0  0
    2.8460   -1.4190   -1.5800 O   0  0  0  0  0  0  0  0  0  0  0  0
    3.3410    0.6000   -0.6810 O   0  0  0  0  0  0  0  0  0  0  0  0
    4.9340    0.6820   -1.4220 P   0  0  0  0  0  0  0  0  0  0  0  0
    6.2020    0.5790   -0.0540 C   0  0  0  0  0  0  0  0  0  0  0  0
    6.6850    1.9180    0.2530 N   0  0  0  0  0  0  0  0  0  0  0  0
    5.7410    2.7920   -0.1650 O   0  0  0  0  0  0  0  0  0  0  0  0
    5.8800    3.0220   -1.4480 O   0  0  0  0  0  0  0  0  0  0  0  0
    5.0880    2.2460   -2.1550 O   0  0  0  0  0  0  0  0  0  0  0  0
    0.8160    0.5610    0.5460 C   0  0  0  0  0  0  0  0  0  0  0  0
   -0.4860    0.6640    1.2480 C   0  0  0  0  0  0  0  0  0  0  0  0
   -1.3320   -0.4670    1.0270 N   0  0  0  0  0  0  0  0  0  0  0  0
   -2.5780   -0.5100    1.6180 N   0  0  0  0  0  0  0  0  0  0  0  0
   -3.9120    0.1810    1.0040 P   0  0  0  0  0  0  0  0  0  0  0  0
   -3.8070    1.0970   -0.5880 C   0  0  0  0  0  0  0  0  0  0  0  0
   -4.6910    2.2460   -0.6270 N   0  0  0  0  0  0  0  0  0  0  0  0
   -6.4060    1.7670   -0.4180 P   0  0  0  0  0  0  0  0  0  0  0  0
   -4.2060    3.5010    0.5520 P   0  0  0  0  0  0  0  0  0  0  0  0
   -4.1210    4.9850    0.0600 O   0  0  0  0  0  0  0  0  0  0  0  0
  1  2  2  0
  2  3  1  0
  2  5  1  0
  3  4  1  0
  5  6  2  0
  5 19  1  0
  6  7  1  0
  7  8  1  0
  7 17  2  0
  8  9  2  0
  8 10  1  0
 10 11  1  0
 11 12  1  0
 11 16  1  0
 12 13  1  0
 13 14  1  0
 14 15  1  0
 15 16  1  0
 17 18  1  0
 18 19  1  0
 19 20  1  0
 20 21  2  3
 21 22  1  0
 22 23  1  0
 23 24  1  0
 23 25  1  0
 25 26  2  0
M  END
