
     RDKit          3D

 24 24  0  0  0  0  0  0  0  0999 V2000
    5.1210    2.4460   -0.4160 C   0  0  0  0  0  0  0  0  0  0  0  0
    3.7700    1.9900   -0.4410 O   0  0  0  0  0  0  0  0  0  0  0  0
    3.4150    0.7190   -0.0470 C   0  0  0  0  0  0  0  0  0  0  0  0
    4.2890   -0.0720    0.3470 O   0  0  0  0  0  0  0  0  0  0  0  0
    1.9530    0.3580   -0.1210 C   0  0  1  0  0  0  0  0  0  0  0  0
    1.5050    0.4910   -1.5270 C   0  0  0  0  0  0  0  0  0  0  0  0
    2.2110    0.1490   -2.4550 O   0  0  0  0  0  0  0  0  0  0  0  0
    1.8400   -1.0510    0.3860 C   0  0  0  0  0  0  0  0  0  0  0  0
    0.4640   -1.6120    0.4020 C   0  0  1  0  0  0  0  0  0  0  0  0
   -0.1930   -1.6750   -0.8700 N   0  0  0  0  0  0  0  0  0  0  0  0
    0.5670   -2.9800    0.9320 N   0  0  0  0  0  0  0  0  0  0  0  0
   -0.4110   -0.8890    1.4090 C   0  0  0  0  0  0  0  0  0  0  0  0
   -1.5080   -0.2620    1.1210 C   0  0  0  0  0  0  0  0  0  0  0  0
   -2.1880   -0.1470   -0.5640 P   0  0  0  0  0  0  0  0  0  0  0  0
   -3.4890   -1.3080   -0.9740 C   0  0  0  0  0  0  0  0  0  0  0  0
   -2.2160    1.4380   -1.2480 N   0  0  0  0  0  0  0  0  0  0  0  0
   -2.6720    1.6850   -2.3950 C   0  0  0  0  0  0  0  0  0  0  0  0
   -2.6690    3.0350   -2.9140 C   0  0  0  0  0  0  0  0  0  0  0  0
   -3.1090    3.3450   -4.0490 O   0  0  0  0  0  0  0  0  0  0  0  0
   -2.1780    0.3420    2.1680 O   0  0  0  0  0  0  0  0  0  0  0  0
   -1.0640    0.2510    3.5310 P   0  0  0  0  0  0  0  0  0  0  0  0
   -2.0900   -0.7230    5.1960 P   0  0  0  0  0  0  0  0  0  0  0  0
   -3.6180   -0.4110    5.5980 N   0  0  0  0  0  0  0  0  0  0  0  0
   -0.0030   -0.9030    2.7240 O   0  0  0  0  0  0  0  0  0  0  0  0
  1  2  1  0
  2  3  1  0
  3  4  2  0
  3  5  1  0
  5  6  1  0
  5  8  1  6
  6  7  2  0
  8  9  1  0
  9 10  1  6
  9 11  1  0
  9 12  1  0
 12 13  2  0
 12 24  1  0
 13 14  1  0
 13 20  1  0
 14 15  1  0
 14 16  1  0
 16 17  2  3
 17 18  1  0
 18 19  2  0
 20 21  1  0
 21 22  1  0
 21 24  1  0
 22 23  2  0
M  END
