
     RDKit          3D

 26 28  0  0  0  0  0  0  0  0999 V2000
   -5.9990    0.9230   -2.6810 C   0  0  0  0  0  0  0  0  0  0  0  0
   -5.2480    0.4920   -1.4650 C   0  0  0  0  0  0  0  0  0  0  0  0
   -5.8790    0.3410   -0.3240 C   0  0  0  0  0  0  0  0  0  0  0  0
   -5.2360   -0.0790    0.9300 C   0  0  2  0  0  0  0  0  0  0  0  0
   -5.8840   -1.2230    1.3920 O   0  0  0  0  0  0  0  0  0  0  0  0
   -5.3840    0.9410    1.8600 O   0  0  0  0  0  0  0  0  0  0  0  0
   -3.8270   -0.3020    0.7400 N   0  0  0  0  0  0  0  0  0  0  0  0
   -3.2000   -0.1610   -0.3560 C   0  0  0  0  0  0  0  0  0  0  0  0
   -1.7530   -0.4340   -0.3670 C   0  0  0  0  0  0  0  0  0  0  0  0
   -1.1710   -0.2690   -1.5300 N   0  0  0  0  0  0  0  0  0  0  0  0
    0.5920   -0.5990   -1.5550 P   0  0  0  0  0  0  0  0  0  0  0  0
    1.1890   -1.0670   -0.0620 C   0  0  0  0  0  0  0  0  0  0  0  0
    2.6100   -1.3940    0.1780 C   0  0  0  0  0  0  0  0  0  0  0  0
    3.1840   -0.5640    1.1360 O   0  0  0  0  0  0  0  0  0  0  0  0
    4.5210   -0.9180    1.3210 C   0  0  0  0  0  0  0  0  0  0  0  0
    5.2830   -0.7950    0.0990 N   0  0  0  0  0  0  0  0  0  0  0  0
    5.4140    0.4780   -0.5920 C   0  0  0  0  0  0  0  0  0  0  0  0
    4.5740    1.3790   -0.4430 N   0  0  0  0  0  0  0  0  0  0  0  0
    4.7170    2.5550   -1.0960 O   0  0  0  0  0  0  0  0  0  0  0  0
    6.3480    2.4550   -1.7680 P   0  0  0  0  0  0  0  0  0  0  0  0
    7.4860    3.2520   -0.7120 O   0  0  0  0  0  0  0  0  0  0  0  0
    6.4850    0.7190   -1.4370 O   0  0  0  0  0  0  0  0  0  0  0  0
    0.1970   -1.1180    0.9520 N   0  0  0  0  0  0  0  0  0  0  0  0
    0.7900   -1.6210    2.5960 P   0  0  0  0  0  0  0  0  0  0  0  0
   -1.1030   -0.8260    0.7660 O   0  0  0  0  0  0  0  0  0  0  0  0
   -3.8860    0.2390   -1.4920 O   0  0  0  0  0  0  0  0  0  0  0  0
  1  2  1  0
  2  3  2  0
  2 26  1  0
  3  4  1  0
  4  5  1  1
  4  6  1  0
  4  7  1  0
  7  8  2  0
  8  9  1  0
  8 26  1  0
  9 10  2  0
  9 25  1  0
 10 11  1  0
 11 12  2  0
 12 13  1  0
 12 23  1  0
 13 14  1  0
 14 15  1  0
 15 16  1  0
 16 17  1  0
 17 18  2  0
 17 22  1  0
 18 19  1  0
 19 20  1  0
 20 21  1  0
 20 22  1  0
 23 24  1  0
 23 25  1  0
M  END
