
     RDKit          3D

 26 27  0  0  0  0  0  0  0  0999 V2000
    4.0310   -1.5690   -2.7450 C   0  0  0  0  0  0  0  0  0  0  0  0
    3.1060   -1.5200   -1.8170 C   0  0  0  0  0  0  0  0  0  0  0  0
    3.0100   -0.4050   -0.8960 C   0  0  0  0  0  0  0  0  0  0  0  0
    3.8600    0.5530   -1.0020 N   0  0  0  0  0  0  0  0  0  0  0  0
    3.8510    1.6740   -0.1610 N   0  0  0  0  0  0  0  0  0  0  0  0
    4.9640    2.3110    0.1040 C   0  0  0  0  0  0  0  0  0  0  0  0
    6.1520    1.8830   -0.4440 O   0  0  0  0  0  0  0  0  0  0  0  0
    1.9630   -0.4300    0.0930 N   0  0  0  0  0  0  0  0  0  0  0  0
    0.7560   -0.1000   -0.2630 O   0  0  0  0  0  0  0  0  0  0  0  0
   -0.4060   -0.1490    0.9240 P   0  0  0  0  0  0  0  0  0  0  0  0
   -2.1330   -0.2640    0.4640 N   0  0  0  0  0  0  0  0  0  0  0  0
   -2.9470   -1.7610    0.5040 P   0  0  0  0  0  0  0  0  0  0  0  0
   -1.9060   -3.6440    0.9070 P   0  0  0  0  0  0  0  0  0  0  0  0
   -3.1750   -4.9280    1.4110 C   0  0  0  0  0  0  0  0  0  0  0  0
   -4.5470   -1.6250    0.0340 O   0  0  0  0  0  0  0  0  0  0  0  0
   -5.1620   -0.5850   -0.3240 O   0  0  0  0  0  0  0  0  0  0  0  0
   -4.7460    0.6280   -0.4250 C   0  0  0  0  0  0  0  0  0  0  0  0
   -5.5020    1.5900   -0.8080 O   0  0  0  0  0  0  0  0  0  0  0  0
   -3.1070    1.0270   -0.0390 P   0  0  0  0  0  0  0  0  0  0  0  0
   -2.4050    2.6030   -0.1260 O   0  0  0  0  0  0  0  0  0  0  0  0
   -3.4000    3.5740   -0.2340 C   0  0  0  0  0  0  0  0  0  0  0  0
   -2.8110    4.9660   -0.3120 C   0  0  0  0  0  0  0  0  0  0  0  0
    0.2270   -0.6320    2.3990 O   0  0  0  0  0  0  0  0  0  0  0  0
    1.4920   -0.8840    2.3830 N   0  0  0  0  0  0  0  0  0  0  0  0
    2.3190   -0.8010    1.3390 C   0  0  0  0  0  0  0  0  0  0  0  0
    3.7010   -1.1420    1.5900 N   0  0  0  0  0  0  0  0  0  0  0  0
  1  2  2  0
  2  3  1  0
  3  4  2  3
  3  8  1  0
  4  5  1  0
  5  6  2  3
  6  7  1  0
  8  9  1  0
  8 25  1  0
  9 10  1  0
 10 11  1  0
 10 23  1  0
 11 12  1  0
 11 19  1  0
 12 13  1  0
 12 15  1  0
 13 14  1  0
 15 16  1  0
 16 17  1  0
 17 18  2  0
 17 19  1  0
 19 20  1  0
 20 21  1  0
 21 22  1  0
 23 24  1  0
 24 25  2  0
 25 26  1  0
M  END
