
     RDKit          3D

 26 27  0  0  0  0  0  0  0  0999 V2000
   -4.7610    1.9470   -1.2250 C   0  0  0  0  0  0  0  0  0  0  0  0
   -4.0440    1.6280   -0.1820 C   0  0  0  0  0  0  0  0  0  0  0  0
   -3.0680    0.6220   -0.2810 O   0  0  0  0  0  0  0  0  0  0  0  0
   -2.1030    0.4810    0.7320 C   0  0  0  0  0  0  0  0  0  0  0  0
   -2.1870    1.2890    1.6980 N   0  0  0  0  0  0  0  0  0  0  0  0
   -1.3490    1.3740    2.8520 C   0  0  0  0  0  0  0  0  0  0  0  0
   -1.1010   -0.5310    0.6350 N   0  0  0  0  0  0  0  0  0  0  0  0
   -0.2420   -1.1120    1.6360 C   0  0  0  0  0  0  0  0  0  0  0  0
    0.3950   -2.0250    0.6490 C   0  0  0  0  0  0  0  0  0  0  0  0
   -0.5190   -1.3740   -0.3530 C   0  0  1  0  0  0  0  0  0  0  0  0
   -1.4730   -2.3650   -0.8280 N   0  0  0  0  0  0  0  0  0  0  0  0
   -2.0750   -3.5220    0.0870 P   0  0  0  0  0  0  0  0  0  0  0  0
    0.2550   -0.7420   -1.4730 C   0  0  2  0  0  0  0  0  0  0  0  0
   -0.6350   -0.1410   -2.3950 O   0  0  0  0  0  0  0  0  0  0  0  0
    1.1260   -1.7040   -2.1170 N   0  0  0  0  0  0  0  0  0  0  0  0
    0.4190   -2.7860   -2.7340 C   0  0  0  0  0  0  0  0  0  0  0  0
    1.1170    0.3490   -0.9570 C   0  0  0  0  0  0  0  0  0  0  0  0
    0.9350    1.5400   -1.3600 O   0  0  0  0  0  0  0  0  0  0  0  0
    2.1290    0.1810   -0.0530 O   0  0  0  0  0  0  0  0  0  0  0  0
    2.9540    1.2140    0.4290 C   0  0  2  0  0  0  0  0  0  0  0  0
    3.9060    2.0340   -0.9360 P   0  0  0  0  0  0  0  0  0  0  0  0
    3.9180    0.6600    1.4240 C   0  0  0  0  0  0  0  0  0  0  0  0
    3.7990    1.2640    2.5520 N   0  0  0  0  0  0  0  0  0  0  0  0
    2.8180    2.2250    2.4690 O   0  0  0  0  0  0  0  0  0  0  0  0
    2.2660    2.2460    1.2030 C   0  0  0  0  0  0  0  0  0  0  0  0
    1.3570    3.0080    0.8160 O   0  0  0  0  0  0  0  0  0  0  0  0
  1  2  2  0
  2  3  1  0
  3  4  1  0
  4  5  2  3
  4  7  1  0
  5  6  1  0
  7  8  1  0
  7 10  1  0
  8  9  1  0
  9 10  1  0
 10 11  1  6
 10 13  1  0
 11 12  2  0
 13 14  1  6
 13 15  1  0
 13 17  1  0
 15 16  1  0
 17 18  2  0
 17 19  1  0
 19 20  1  0
 20 21  1  6
 20 22  1  0
 20 25  1  0
 22 23  2  0
 23 24  1  0
 24 25  1  0
 25 26  2  0
M  END
