
     RDKit          3D

 24 24  0  0  0  0  0  0  0  0999 V2000
   -1.3460    1.5160   -0.7710 C   0  0  0  0  0  0  0  0  0  0  0  0
   -0.9930    0.2550   -0.2470 N   0  0  0  0  0  0  0  0  0  0  0  0
    0.3690   -0.0780   -0.4720 C   0  0  0  0  0  0  0  0  0  0  0  0
    1.3770    0.7280    0.2700 C   0  0  0  0  0  0  0  0  0  0  0  0
    2.7530    0.1800   -0.1310 C   0  0  0  0  0  0  0  0  0  0  0  0
    3.8710    0.9350    0.5770 C   0  0  0  0  0  0  0  0  0  0  0  0
    5.1430    0.3400    0.1510 C   0  0  0  0  0  0  0  0  0  0  0  0
    5.6810   -0.7030    0.8650 C   0  0  0  0  0  0  0  0  0  0  0  0
    6.8900   -1.2940    0.4870 C   0  0  0  0  0  0  0  0  0  0  0  0
    7.5580   -0.8240   -0.6230 C   0  0  0  0  0  0  0  0  0  0  0  0
    7.0280    0.2140   -1.3370 C   0  0  0  0  0  0  0  0  0  0  0  0
    5.8310    0.7880   -0.9500 C   0  0  0  0  0  0  0  0  0  0  0  0
   -1.6000   -0.2510    0.8960 C   0  0  0  0  0  0  0  0  0  0  0  0
   -2.9600   -0.7910    0.9280 C   0  0  0  0  0  0  0  0  0  0  0  0
   -4.1390   -0.0120    0.5030 C   0  0  1  0  0  0  0  0  0  0  0  0
   -4.3160    1.1970    1.1470 O   0  0  0  0  0  0  0  0  0  0  0  0
   -4.3620    0.0870   -1.2600 P   0  0  1  0  0  0  0  0  0  0  0  0
   -3.3050   -0.6810   -2.0290 O   0  0  0  0  0  0  0  0  0  0  0  0
   -5.8550   -0.6480   -1.6770 O   0  0  0  0  0  0  0  0  0  0  0  0
   -4.3810    1.7000   -1.7820 O   0  0  0  0  0  0  0  0  0  0  0  0
   -5.6560   -0.9880    1.1100 P   0  0  1  0  0  0  0  0  0  0  0  0
   -5.4950   -1.0960    2.5840 O   0  0  0  0  0  0  0  0  0  0  0  0
   -7.0370   -0.1910    0.6120 O   0  0  0  0  0  0  0  0  0  0  0  0
   -5.6200   -2.5200    0.4120 O   0  0  0  0  0  0  0  0  0  0  0  0
  1  2  1  0
  2  3  1  0
  2 13  1  0
  3  4  1  0
  4  5  1  0
  5  6  1  0
  6  7  1  0
  7  8  2  0
  7 12  1  0
  8  9  1  0
  9 10  2  0
 10 11  1  0
 11 12  2  0
 13 14  1  0
 14 15  1  0
 15 16  1  1
 15 17  1  0
 15 21  1  0
 17 18  2  0
 17 19  1  1
 17 20  1  0
 21 22  2  0
 21 23  1  1
 21 24  1  0
M  END
