
     RDKit          3D

 25 26  0  0  0  0  0  0  0  0999 V2000
    4.1760   -2.8550   -1.3740 C   0  0  0  0  0  0  0  0  0  0  0  0
    4.3220   -1.7060   -0.7500 C   0  0  0  0  0  0  0  0  0  0  0  0
    5.5470   -1.0530   -0.3130 C   0  0  0  0  0  0  0  0  0  0  0  0
    5.2000    0.0840    0.2710 C   0  0  0  0  0  0  0  0  0  0  0  0
    6.1170    1.1080    0.8840 C   0  0  0  0  0  0  0  0  0  0  0  0
    3.7770    0.1900    0.2270 N   0  0  0  0  0  0  0  0  0  0  0  0
    3.2420   -0.8250   -0.3550 C   0  0  0  0  0  0  0  0  0  0  0  0
    1.4350   -1.1210   -0.6380 P   0  0  0  0  0  0  0  0  0  0  0  0
    0.8480    0.0240   -1.8120 O   0  0  0  0  0  0  0  0  0  0  0  0
    0.6280   -0.8270    0.9370 N   0  0  0  0  0  0  0  0  0  0  0  0
    0.7790    0.5940    1.2410 C   0  0  0  0  0  0  0  0  0  0  0  0
   -1.1340   -1.1130    0.7290 P   0  0  0  0  0  0  0  0  0  0  0  0
   -2.0000   -0.7490    2.1870 O   0  0  0  0  0  0  0  0  0  0  0  0
   -1.6830   -0.1420   -0.5940 O   0  0  0  0  0  0  0  0  0  0  0  0
   -2.7040    0.6640   -0.2630 N   0  0  0  0  0  0  0  0  0  0  0  0
   -3.6950    0.2380    0.5240 O   0  0  0  0  0  0  0  0  0  0  0  0
   -5.0040   -0.4540   -0.3840 P   0  0  0  0  0  0  0  0  0  0  0  0
   -4.9130   -2.2360   -0.3750 N   0  0  0  0  0  0  0  0  0  0  0  0
   -5.3000   -2.1390    1.0000 C   0  0  0  0  0  0  0  0  0  0  0  0
   -6.1910   -1.1420    0.6730 O   0  0  0  0  0  0  0  0  0  0  0  0
   -2.7320    1.9860   -0.7620 C   0  0  0  0  0  0  0  0  0  0  0  0
   -1.7930    2.3710   -1.5070 O   0  0  0  0  0  0  0  0  0  0  0  0
   -3.8460    2.8880   -0.4080 C   0  0  0  0  0  0  0  0  0  0  0  0
   -3.6240    4.1510   -1.0430 N   0  0  0  0  0  0  0  0  0  0  0  0
   -2.8910    4.9760   -0.6140 O   0  0  0  0  0  0  0  0  0  0  0  0
  1  2  2  0
  2  3  1  0
  2  7  1  0
  3  4  2  0
  4  5  1  0
  4  6  1  0
  6  7  2  0
  7  8  1  0
  8  9  1  0
  8 10  1  0
 10 11  1  0
 10 12  1  0
 12 13  1  0
 12 14  1  0
 14 15  1  0
 15 16  1  0
 15 21  1  0
 16 17  1  0
 17 18  1  0
 17 20  1  0
 18 19  1  0
 19 20  1  0
 21 22  2  0
 21 23  1  0
 23 24  1  0
 24 25  2  0
M  END
