
     RDKit          3D

 23 25  0  0  0  0  0  0  0  0999 V2000
    1.6810   -0.9590   -1.5930 N   0  0  0  0  0  0  0  0  0  0  0  0
    2.8110   -0.4310   -0.9230 C   0  0  0  0  0  0  0  0  0  0  0  0
    4.0030   -1.1120   -1.0460 C   0  0  0  0  0  0  0  0  0  0  0  0
    5.1410   -0.6570   -0.4150 C   0  0  0  0  0  0  0  0  0  0  0  0
    5.0730    0.4910    0.3460 C   0  0  0  0  0  0  0  0  0  0  0  0
    3.8710    1.1530    0.4550 C   0  0  0  0  0  0  0  0  0  0  0  0
    2.6990    0.7260   -0.1700 C   0  0  0  0  0  0  0  0  0  0  0  0
    1.4880    1.5380   -0.1130 C   0  0  0  0  0  0  0  0  0  0  0  0
    0.2720    0.8330    0.1350 O   0  0  0  0  0  0  0  0  0  0  0  0
   -0.9070    1.5580    0.1940 C   0  0  0  0  0  0  0  0  0  0  0  0
   -0.7500    2.8330    0.0440 O   0  0  0  0  0  0  0  0  0  0  0  0
   -2.2680    1.1260    0.3860 C   0  0  0  0  0  0  0  0  0  0  0  0
   -2.5910   -0.3190    0.1970 C   0  0  0  0  0  0  0  0  0  0  0  0
   -4.0880   -0.4390    0.3870 C   0  0  0  0  0  0  0  0  0  0  0  0
   -4.6380   -0.9270    1.5510 C   0  0  0  0  0  0  0  0  0  0  0  0
   -6.0190   -1.0140    1.7480 C   0  0  0  0  0  0  0  0  0  0  0  0
   -6.8440   -0.5950    0.7410 C   0  0  0  0  0  0  0  0  0  0  0  0
   -6.3550   -0.1010   -0.4370 C   0  0  0  0  0  0  0  0  0  0  0  0
   -4.9620   -0.0300   -0.6020 C   0  0  0  0  0  0  0  0  0  0  0  0
   -4.4920    0.4660   -1.8000 O   0  0  0  0  0  0  0  0  0  0  0  0
    6.3900    0.7360    0.8580 N   0  0  0  0  0  0  0  0  0  0  0  0
    7.2800    0.0480   -0.0330 C   0  0  0  0  0  0  0  0  0  0  0  0
    6.4720   -1.1030   -0.3420 O   0  0  0  0  0  0  0  0  0  0  0  0
  1  2  1  0
  2  3  2  0
  2  7  1  0
  3  4  1  0
  4  5  2  0
  4 23  1  0
  5  6  1  0
  5 21  1  0
  6  7  2  0
  7  8  1  0
  8  9  1  0
  9 10  1  0
 10 11  2  0
 10 12  1  0
 12 13  1  0
 13 14  1  0
 14 15  2  0
 14 19  1  0
 15 16  1  0
 16 17  2  0
 17 18  1  0
 18 19  2  0
 19 20  1  0
 21 22  1  0
 22 23  1  0
M  END
