
     RDKit          3D

 24 26  0  0  0  0  0  0  0  0999 V2000
    1.6580   -1.9480   -0.6480 N   0  0  0  0  0  0  0  0  0  0  0  0
    2.9410   -1.5230   -1.0750 C   0  0  1  0  0  0  0  0  0  0  0  0
    3.1330   -0.0990   -1.4290 C   0  0  0  0  0  0  0  0  0  0  0  0
    2.8730    0.8980   -0.4090 C   0  0  0  0  0  0  0  0  0  0  0  0
    1.6920    1.4660   -0.0360 C   0  0  0  0  0  0  0  0  0  0  0  0
    0.3670    1.2660   -0.6010 C   0  0  0  0  0  0  0  0  0  0  0  0
    0.0080    0.5300   -1.6460 N   0  0  0  0  0  0  0  0  0  0  0  0
   -1.3030    0.6220   -1.8210 N   0  0  0  0  0  0  0  0  0  0  0  0
   -1.8050    1.4300   -0.8770 N   0  0  0  0  0  0  0  0  0  0  0  0
   -3.2270    1.7820   -0.7350 C   0  0  0  0  0  0  0  0  0  0  0  0
   -3.8100    0.7560    0.1600 C   0  0  0  0  0  0  0  0  0  0  0  0
   -3.8620    0.9090    1.5250 C   0  0  0  0  0  0  0  0  0  0  0  0
   -4.4200   -0.0910    2.3240 C   0  0  0  0  0  0  0  0  0  0  0  0
   -4.9130   -1.2260    1.7160 C   0  0  0  0  0  0  0  0  0  0  0  0
   -4.8690   -1.3950    0.3540 C   0  0  0  0  0  0  0  0  0  0  0  0
   -4.3140   -0.3930   -0.4100 C   0  0  0  0  0  0  0  0  0  0  0  0
   -0.7830    1.8130   -0.1450 N   0  0  0  0  0  0  0  0  0  0  0  0
    1.9670    2.2900    0.9890 O   0  0  0  0  0  0  0  0  0  0  0  0
    3.2060    2.2840    1.2800 N   0  0  0  0  0  0  0  0  0  0  0  0
    3.8260    1.4320    0.4400 C   0  0  0  0  0  0  0  0  0  0  0  0
    5.0360    1.1840    0.4430 O   0  0  0  0  0  0  0  0  0  0  0  0
    3.9540   -2.0270   -0.1020 C   0  0  0  0  0  0  0  0  0  0  0  0
    3.6160   -2.6780    0.9140 O   0  0  0  0  0  0  0  0  0  0  0  0
    5.3200   -1.7990   -0.2790 O   0  0  0  0  0  0  0  0  0  0  0  0
  2  1  1  1
  2  3  1  0
  2 22  1  0
  3  4  1  0
  4  5  2  0
  4 20  1  0
  5  6  1  0
  5 18  1  0
  6  7  1  0
  6 17  2  0
  7  8  2  0
  8  9  1  0
  9 10  1  0
  9 17  1  0
 10 11  1  0
 11 12  2  0
 11 16  1  0
 12 13  1  0
 13 14  2  0
 14 15  1  0
 15 16  2  0
 18 19  1  0
 19 20  1  0
 20 21  2  0
 22 23  2  0
 22 24  1  0
M  CHG  1   1   1
M  END
