
     RDKit          3D

 23 25  0  0  0  0  0  0  0  0999 V2000
   -2.8960    1.0800    0.6890 O   0  0  0  0  0  0  0  0  0  0  0  0
   -2.8290    0.0040    0.0780 C   0  0  0  0  0  0  0  0  0  0  0  0
   -4.0910   -0.6570   -0.3390 C   0  0  0  0  0  0  0  0  0  0  0  0
   -5.2440    0.1750    0.0980 C   0  0  0  0  0  0  0  0  0  0  0  0
   -6.5790   -0.3870   -0.2650 C   0  0  0  0  0  0  0  0  0  0  0  0
   -7.6440    0.5820    0.2530 C   0  0  0  0  0  0  0  0  0  0  0  0
   -7.4180    1.8010   -0.3660 O   0  0  0  0  0  0  0  0  0  0  0  0
   -1.6090   -0.6350   -0.2470 N   0  0  0  0  0  0  0  0  0  0  0  0
   -0.3390   -0.1380    0.0830 C   0  0  0  0  0  0  0  0  0  0  0  0
   -0.1190    0.9080    0.9370 C   0  0  0  0  0  0  0  0  0  0  0  0
    1.1570    1.3720    1.2200 C   0  0  0  0  0  0  0  0  0  0  0  0
    2.2440    0.7700    0.6290 C   0  0  0  0  0  0  0  0  0  0  0  0
    3.5740    0.9630    0.6820 N   0  0  0  0  0  0  0  0  0  0  0  0
    4.1970    0.0760   -0.1090 C   0  0  0  0  0  0  0  0  0  0  0  0
    5.6510   -0.0270   -0.3130 C   0  0  0  0  0  0  0  0  0  0  0  0
    6.5660    0.7370    0.2500 C   0  0  0  0  0  0  0  0  0  0  0  0
    7.9250    0.3020   -0.2240 C   0  0  0  0  0  0  0  0  0  0  0  0
    7.6280   -0.8130   -1.1290 C   0  0  0  0  0  0  0  0  0  0  0  0
    6.3020   -0.9980   -1.1760 C   0  0  0  0  0  0  0  0  0  0  0  0
    5.7350   -1.9950   -1.9610 O   0  0  0  0  0  0  0  0  0  0  0  0
    3.2630   -0.6610   -0.6470 O   0  0  0  0  0  0  0  0  0  0  0  0
    2.0710   -0.3040   -0.2520 C   0  0  0  0  0  0  0  0  0  0  0  0
    0.7880   -0.7170   -0.4920 C   0  0  0  0  0  0  0  0  0  0  0  0
  1  2  2  0
  2  3  1  0
  2  8  1  0
  3  4  1  0
  4  5  1  0
  5  6  1  0
  6  7  1  0
  8  9  1  0
  9 10  2  0
  9 23  1  0
 10 11  1  0
 11 12  2  0
 12 13  1  0
 12 22  1  0
 13 14  2  0
 14 15  1  0
 14 21  1  0
 15 16  2  0
 15 19  1  0
 16 17  1  0
 17 18  1  0
 18 19  2  0
 19 20  1  0
 21 22  1  0
 22 23  2  0
M  END
