
     RDKit          3D

 23 25  0  0  0  0  0  0  0  0999 V2000
   -2.0900    3.9170    0.0910 C   0  0  0  0  0  0  0  0  0  0  0  0
   -1.0360    3.7000    1.1480 C   0  0  0  0  0  0  0  0  0  0  0  0
   -0.2280    2.6340    0.7780 O   0  0  0  0  0  0  0  0  0  0  0  0
   -0.6010    1.3280    0.5600 C   0  0  0  0  0  0  0  0  0  0  0  0
   -1.8960    0.8740    0.6890 C   0  0  0  0  0  0  0  0  0  0  0  0
   -2.2160   -0.4690    0.4520 C   0  0  0  0  0  0  0  0  0  0  0  0
   -1.2560   -1.3790    0.0850 C   0  0  0  0  0  0  0  0  0  0  0  0
    0.0420   -0.9280   -0.0450 C   0  0  0  0  0  0  0  0  0  0  0  0
    0.3510    0.3930    0.1880 C   0  0  0  0  0  0  0  0  0  0  0  0
    1.6680    0.8600    0.0580 O   0  0  0  0  0  0  0  0  0  0  0  0
    2.7170    0.0370   -0.3060 C   0  0  0  0  0  0  0  0  0  0  0  0
    3.4960   -0.6620    0.5870 C   0  0  0  0  0  0  0  0  0  0  0  0
    4.5430   -1.4790    0.1830 C   0  0  0  0  0  0  0  0  0  0  0  0
    4.8240   -1.6040   -1.1790 C   0  0  0  0  0  0  0  0  0  0  0  0
    5.8630   -2.4100   -1.6400 O   0  0  0  0  0  0  0  0  0  0  0  0
    4.0430   -0.9040   -2.0710 C   0  0  0  0  0  0  0  0  0  0  0  0
    3.0070   -0.0960   -1.6510 C   0  0  0  0  0  0  0  0  0  0  0  0
   -1.5990   -2.7730   -0.1590 C   0  0  0  0  0  0  0  0  0  0  0  0
   -3.0280   -3.1160    0.0180 C   0  0  0  0  0  0  0  0  0  0  0  0
   -3.4270   -4.3160   -0.1730 O   0  0  0  0  0  0  0  0  0  0  0  0
   -3.9470   -2.1130    0.3990 N   0  0  0  0  0  0  0  0  0  0  0  0
   -3.6010   -0.8950    0.6030 C   0  0  0  0  0  0  0  0  0  0  0  0
   -4.5480    0.1060    0.9890 N   0  0  0  0  0  0  0  0  0  0  0  0
  1  2  1  0
  2  3  1  0
  3  4  1  0
  4  5  2  0
  4  9  1  0
  5  6  1  0
  6  7  2  0
  6 22  1  0
  7  8  1  0
  7 18  1  0
  8  9  2  0
  9 10  1  0
 10 11  1  0
 11 12  2  0
 11 17  1  0
 12 13  1  0
 13 14  2  0
 14 15  1  0
 14 16  1  0
 16 17  2  0
 18 19  1  0
 19 20  2  0
 19 21  1  0
 21 22  2  0
 22 23  1  0
M  END
