
     RDKit          3D

 23 25  0  0  0  0  0  0  0  0999 V2000
   -5.5670    2.1820   -1.9020 C   0  0  0  0  0  0  0  0  0  0  0  0
   -4.1870    2.1690   -1.6860 O   0  0  0  0  0  0  0  0  0  0  0  0
   -3.5490    1.1740   -0.9650 C   0  0  0  0  0  0  0  0  0  0  0  0
   -4.2820    0.1410   -0.4270 C   0  0  0  0  0  0  0  0  0  0  0  0
   -3.6650   -0.8470    0.2850 C   0  0  0  0  0  0  0  0  0  0  0  0
   -2.2780   -0.8320    0.4800 C   0  0  0  0  0  0  0  0  0  0  0  0
   -1.5450    0.2060   -0.0560 C   0  0  0  0  0  0  0  0  0  0  0  0
   -0.1140    0.2930    0.1050 C   0  0  0  0  0  0  0  0  0  0  0  0
    0.4780    1.2780   -0.4910 O   0  0  0  0  0  0  0  0  0  0  0  0
    0.7560   -0.5310    0.8250 N   0  0  0  0  0  0  0  0  0  0  0  0
    2.1960   -0.2590    0.8340 C   0  0  0  0  0  0  0  0  0  0  0  0
    2.8380   -0.3190   -0.5000 C   0  0  0  0  0  0  0  0  0  0  0  0
    4.3050   -0.0220   -0.3090 C   0  0  0  0  0  0  0  0  0  0  0  0
    4.8680    1.0070   -0.9080 C   0  0  0  0  0  0  0  0  0  0  0  0
    6.3000    1.3330   -0.7470 C   0  0  0  0  0  0  0  0  0  0  0  0
    6.9770    0.4470    0.0930 O   0  0  0  0  0  0  0  0  0  0  0  0
    6.4190   -0.6350    0.7320 C   0  0  0  0  0  0  0  0  0  0  0  0
    5.1320   -0.8650    0.5410 C   0  0  0  0  0  0  0  0  0  0  0  0
   -2.1910    1.2170   -0.7870 C   0  0  0  0  0  0  0  0  0  0  0  0
   -1.4090    2.2320   -1.3060 O   0  0  0  0  0  0  0  0  0  0  0  0
   -1.9500   -2.0520    1.1800 N   0  0  0  0  0  0  0  0  0  0  0  0
   -3.1230   -2.3710    1.9970 C   0  0  0  0  0  0  0  0  0  0  0  0
   -4.2360   -2.0370    0.9980 C   0  0  0  0  0  0  0  0  0  0  0  0
  1  2  1  0
  2  3  1  0
  3  4  2  0
  3 19  1  0
  4  5  1  0
  5  6  2  0
  5 23  1  0
  6  7  1  0
  6 21  1  0
  7  8  1  0
  7 19  2  0
  8  9  2  0
  8 10  1  0
 10 11  1  0
 11 12  1  0
 12 13  1  0
 13 14  2  0
 13 18  1  0
 14 15  1  0
 15 16  1  0
 16 17  1  0
 17 18  2  0
 19 20  1  0
 21 22  1  0
 22 23  1  0
M  END
