
     RDKit          3D

 22 22  0  0  0  0  0  0  0  0999 V2000
   -2.7090   -2.7710   -1.2290 C   0  0  0  0  0  0  0  0  0  0  0  0
   -1.5150   -2.1380   -1.1270 O   0  0  0  0  0  0  0  0  0  0  0  0
   -1.0730   -1.7880    0.1330 C   0  0  2  0  0  0  0  0  0  0  0  0
   -0.8330   -3.0280    0.9390 C   0  0  0  0  0  0  0  0  0  0  0  0
   -0.9900   -4.1920    0.5060 O   0  0  0  0  0  0  0  0  0  0  0  0
   -0.4040   -2.9290    2.2720 O   0  0  0  0  0  0  0  0  0  0  0  0
   -2.0390   -0.9510    0.8820 C   0  0  0  0  0  0  0  0  0  0  0  0
   -2.1470    0.4640    0.3610 C   0  0  2  0  0  0  0  0  0  0  0  0
   -3.0260    0.5630   -0.7060 O   0  0  0  0  0  0  0  0  0  0  0  0
   -0.7840    0.9910   -0.0550 C   0  0  1  0  0  0  0  0  0  0  0  0
   -0.6010    2.3370    0.4430 N   0  0  0  0  0  0  0  0  0  0  0  0
   -0.3370    3.4090   -0.4480 C   0  0  0  0  0  0  0  0  0  0  0  0
   -0.1440    4.8140    0.0580 C   0  0  0  0  0  0  0  0  0  0  0  0
   -0.2700    3.1470   -1.6770 O   0  0  0  0  0  0  0  0  0  0  0  0
    0.2990    0.0670    0.5020 C   0  0  2  0  0  0  0  0  0  0  0  0
    1.6240    0.6550    0.0710 C   0  0  2  0  0  0  0  0  0  0  0  0
    1.7310    0.8110   -1.2970 O   0  0  0  0  0  0  0  0  0  0  0  0
    2.8160   -0.0330    0.6640 C   0  0  2  0  0  0  0  0  0  0  0  0
    3.9370    0.7800    0.3710 O   0  0  0  0  0  0  0  0  0  0  0  0
    3.1050   -1.3730    0.0010 C   0  0  0  0  0  0  0  0  0  0  0  0
    4.2980   -1.8830    0.5570 O   0  0  0  0  0  0  0  0  0  0  0  0
    0.1580   -1.1560   -0.0800 O   0  0  0  0  0  0  0  0  0  0  0  0
  1  2  1  0
  3  2  1  6
  3  4  1  0
  3  7  1  0
  3 22  1  0
  4  5  2  0
  4  6  1  0
  7  8  1  0
  8  9  1  6
  8 10  1  0
 10 11  1  1
 10 15  1  0
 11 12  1  0
 12 13  1  0
 12 14  2  0
 15 16  1  0
 15 22  1  6
 16 17  1  6
 16 18  1  0
 18 19  1  6
 18 20  1  0
 20 21  1  0
M  END
