
     RDKit          3D

 22 22  0  0  0  0  0  0  0  0999 V2000
    7.7490    1.2580    1.4950 N   0  0  0  0  0  0  0  0  0  0  0  0
    6.4410    0.8330    1.4250 O   0  0  0  0  0  0  0  0  0  0  0  0
    6.0930   -0.1980    0.5420 C   0  0  0  0  0  0  0  0  0  0  0  0
    7.0120   -0.6880   -0.1500 O   0  0  0  0  0  0  0  0  0  0  0  0
    4.6760   -0.6570    0.4670 C   0  0  0  0  0  0  0  0  0  0  0  0
    4.0720   -0.0320   -0.7640 C   0  0  1  0  0  0  0  0  0  0  0  0
    4.7280   -0.4010   -1.9120 O   0  0  0  0  0  0  0  0  0  0  0  0
    2.6300   -0.3980   -0.7980 C   0  0  0  0  0  0  0  0  0  0  0  0
    2.2010   -0.9630   -1.8240 O   0  0  0  0  0  0  0  0  0  0  0  0
    1.7930   -0.1320    0.2440 O   0  0  0  0  0  0  0  0  0  0  0  0
    0.4310   -0.4020    0.3510 C   0  0  0  0  0  0  0  0  0  0  0  0
   -0.3650    0.3600   -0.6190 C   0  0  1  0  0  0  0  0  0  0  0  0
   -0.0550    0.0890   -1.9180 O   0  0  0  0  0  0  0  0  0  0  0  0
   -1.8570    0.3310   -0.3940 C   0  0  1  0  0  0  0  0  0  0  0  0
   -2.5130   -0.9170   -0.8600 C   0  0  0  0  0  0  0  0  0  0  0  0
   -3.9140   -1.0300   -0.2960 C   0  0  0  0  0  0  0  0  0  0  0  0
   -4.4560    0.3020    0.1560 C   0  0  1  0  0  0  0  0  0  0  0  0
   -4.5970    1.1040   -0.9960 O   0  0  0  0  0  0  0  0  0  0  0  0
   -5.8190    0.0350    0.7790 C   0  0  0  0  0  0  0  0  0  0  0  0
   -5.6040   -0.7600    1.9030 O   0  0  0  0  0  0  0  0  0  0  0  0
   -3.5030    0.9070    1.1420 C   0  0  0  0  0  0  0  0  0  0  0  0
   -2.1780    0.6060    0.9340 O   0  0  0  0  0  0  0  0  0  0  0  0
  1  2  1  0
  2  3  1  0
  3  4  2  0
  3  5  1  0
  5  6  1  0
  6  7  1  6
  6  8  1  0
  8  9  2  0
  8 10  1  0
 10 11  1  0
 11 12  1  0
 12 13  1  6
 12 14  1  0
 14 15  1  1
 14 22  1  0
 15 16  1  0
 16 17  1  0
 17 18  1  6
 17 19  1  0
 17 21  1  0
 19 20  1  0
 21 22  1  0
M  END
