
     RDKit          3D

 22 22  0  0  0  0  0  0  0  0999 V2000
    3.5440    3.2790   -0.9260 C   0  0  0  0  0  0  0  0  0  0  0  0
    2.7700    2.3530   -0.2300 O   0  0  0  0  0  0  0  0  0  0  0  0
    3.3510    1.0880   -0.2900 C   0  0  0  0  0  0  0  0  0  0  0  0
    2.5060    0.0740    0.4710 C   0  0  2  0  0  0  0  0  0  0  0  0
    3.1810   -1.1370    0.3400 O   0  0  0  0  0  0  0  0  0  0  0  0
    1.0920    0.0510   -0.0440 C   0  0  0  0  0  0  0  0  0  0  0  0
    0.2450   -0.9020    0.6750 C   0  0  2  0  0  0  0  0  0  0  0  0
    0.2240   -0.5390    2.0450 O   0  0  0  0  0  0  0  0  0  0  0  0
    0.7780   -2.3000    0.5860 C   0  0  2  0  0  0  0  0  0  0  0  0
    1.2950   -2.6140   -0.6730 O   0  0  0  0  0  0  0  0  0  0  0  0
   -0.2180   -3.2840    0.9960 N   0  0  0  0  0  0  0  0  0  0  0  0
   -1.3630   -2.8370    1.6990 C   0  0  0  0  0  0  0  0  0  0  0  0
   -1.9080   -3.5560    2.6060 O   0  0  0  0  0  0  0  0  0  0  0  0
   -1.8710   -1.5810    1.3600 O   0  0  0  0  0  0  0  0  0  0  0  0
   -1.2030   -0.9320    0.2550 C   0  0  2  0  0  0  0  0  0  0  0  0
   -1.4650   -1.7740   -0.9500 C   0  0  0  0  0  0  0  0  0  0  0  0
   -1.7940    0.3940    0.0310 C   0  0  0  0  0  0  0  0  0  0  0  0
   -1.3950    1.1270   -0.8830 O   0  0  0  0  0  0  0  0  0  0  0  0
   -2.8070    0.8530    0.8360 O   0  0  0  0  0  0  0  0  0  0  0  0
   -3.3960    2.1160    0.6520 C   0  0  0  0  0  0  0  0  0  0  0  0
   -4.0320    2.2730   -0.7100 C   0  0  0  0  0  0  0  0  0  0  0  0
   -5.0220    1.3170   -0.8730 O   0  0  0  0  0  0  0  0  0  0  0  0
  1  2  1  0
  2  3  1  0
  3  4  1  0
  4  5  1  6
  4  6  1  0
  6  7  1  0
  7  8  1  1
  7  9  1  0
  7 15  1  0
  9 10  1  6
  9 11  1  0
 11 12  1  0
 12 13  2  0
 12 14  1  0
 14 15  1  0
 15 16  1  6
 15 17  1  0
 17 18  2  0
 17 19  1  0
 19 20  1  0
 20 21  1  0
 21 22  1  0
M  END
