
     RDKit          3D

 22 23  0  0  0  0  0  0  0  0999 V2000
   -0.3270   -0.9820   -1.0030 O   0  0  0  0  0  0  0  0  0  0  0  0
   -0.3320   -0.5650    0.1840 C   0  0  0  0  0  0  0  0  0  0  0  0
    0.8450   -0.0700    0.7160 O   0  0  0  0  0  0  0  0  0  0  0  0
    2.0210   -0.0410   -0.0720 C   0  0  2  0  0  0  0  0  0  0  0  0
    3.0610   -0.9450    0.5480 C   0  0  0  0  0  0  0  0  0  0  0  0
    4.2020   -1.0770   -0.4460 C   0  0  1  0  0  0  0  0  0  0  0  0
    5.3460   -1.5540    0.2050 O   0  0  0  0  0  0  0  0  0  0  0  0
    3.8000   -1.9990   -1.4390 O   0  0  0  0  0  0  0  0  0  0  0  0
    4.4160    0.1910   -1.0880 N   0  0  0  0  0  0  0  0  0  0  0  0
    4.0340    1.3180   -0.2780 C   0  0  0  0  0  0  0  0  0  0  0  0
    2.5160    1.3690   -0.2440 C   0  0  2  0  0  0  0  0  0  0  0  0
    2.0480    2.2240    0.7570 O   0  0  0  0  0  0  0  0  0  0  0  0
   -1.6090   -0.6340    0.9320 C   0  0  1  0  0  0  0  0  0  0  0  0
   -1.4050   -0.1360    2.1930 O   0  0  0  0  0  0  0  0  0  0  0  0
   -2.6530    0.0840    0.1440 C   0  0  2  0  0  0  0  0  0  0  0  0
   -2.2930    1.5270   -0.1370 C   0  0  0  0  0  0  0  0  0  0  0  0
   -2.1680    2.2920    0.9970 O   0  0  0  0  0  0  0  0  0  0  0  0
   -4.0260   -0.0340    0.7630 C   0  0  0  0  0  0  0  0  0  0  0  0
   -4.6080   -1.3610    0.3530 C   0  0  0  0  0  0  0  0  0  0  0  0
   -4.8650   -1.3820   -1.0120 O   0  0  0  0  0  0  0  0  0  0  0  0
   -4.0080   -0.4850   -1.6460 C   0  0  0  0  0  0  0  0  0  0  0  0
   -2.7380   -0.5470   -1.1150 O   0  0  0  0  0  0  0  0  0  0  0  0
  1  2  2  0
  2  3  1  0
  2 13  1  0
  4  3  1  1
  4  5  1  0
  4 11  1  0
  5  6  1  0
  6  7  1  1
  6  8  1  0
  6  9  1  0
  9 10  1  0
 10 11  1  0
 11 12  1  1
 13 14  1  1
 13 15  1  0
 15 16  1  6
 15 18  1  0
 15 22  1  0
 16 17  1  0
 18 19  1  0
 19 20  1  0
 20 21  1  0
 21 22  1  0
M  END
