
     RDKit          3D

 22 22  0  0  0  0  0  0  0  0999 V2000
   -5.0450    1.8380   -1.0100 C   0  0  0  0  0  0  0  0  0  0  0  0
   -4.4420    0.4510   -0.9860 C   0  0  0  0  0  0  0  0  0  0  0  0
   -3.8370    0.2800    0.2580 O   0  0  0  0  0  0  0  0  0  0  0  0
   -3.2650   -0.9580    0.3590 C   0  0  2  0  0  0  0  0  0  0  0  0
   -4.0020   -1.6640    1.3410 O   0  0  0  0  0  0  0  0  0  0  0  0
   -1.8420   -0.9990    0.7990 C   0  0  1  0  0  0  0  0  0  0  0  0
   -1.7450   -0.5260    2.2320 C   0  0  0  0  0  0  0  0  0  0  0  0
   -1.4830   -2.3720    0.8290 O   0  0  0  0  0  0  0  0  0  0  0  0
   -0.8520   -0.3340   -0.0940 C   0  0  2  0  0  0  0  0  0  0  0  0
   -0.9050   -0.9200   -1.3790 O   0  0  0  0  0  0  0  0  0  0  0  0
    0.5370   -0.6750    0.4660 C   0  0  0  0  0  0  0  0  0  0  0  0
    1.6250   -0.0360   -0.3460 C   0  0  2  0  0  0  0  0  0  0  0  0
    1.8260   -0.8170   -1.4790 O   0  0  0  0  0  0  0  0  0  0  0  0
    2.9090   -0.1310    0.4850 C   0  0  0  0  0  0  0  0  0  0  0  0
    3.9260    0.3610   -0.3270 O   0  0  0  0  0  0  0  0  0  0  0  0
    5.1640    0.3210    0.3380 C   0  0  0  0  0  0  0  0  0  0  0  0
    6.2470    0.8590   -0.5630 C   0  0  0  0  0  0  0  0  0  0  0  0
    7.4610    0.8200    0.0910 O   0  0  0  0  0  0  0  0  0  0  0  0
    1.4280    1.3150   -0.6330 O   0  0  0  0  0  0  0  0  0  0  0  0
    0.1180    1.8190   -0.7320 C   0  0  0  0  0  0  0  0  0  0  0  0
   -0.0660    2.9580   -1.2320 O   0  0  0  0  0  0  0  0  0  0  0  0
   -1.0000    1.0690   -0.2780 N   0  0  0  0  0  0  0  0  0  0  0  0
  1  2  1  0
  2  3  1  0
  3  4  1  0
  4  5  1  1
  4  6  1  0
  6  7  1  1
  6  8  1  0
  6  9  1  0
  9 10  1  6
  9 11  1  0
  9 22  1  0
 11 12  1  0
 12 13  1  6
 12 14  1  0
 12 19  1  0
 14 15  1  0
 15 16  1  0
 16 17  1  0
 17 18  1  0
 19 20  1  0
 20 21  2  0
 20 22  1  0
M  END
