
     RDKit          3D

 21 21  0  0  0  0  0  0  0  0999 V2000
   -2.3270   -0.1220   -1.2760 C   0  0  0  0  0  0  0  0  0  0  0  0
   -0.9530   -0.6550   -0.8340 C   0  0  2  0  0  0  0  0  0  0  0  0
   -0.1530   -0.7400   -2.1010 C   0  0  0  0  0  0  0  0  0  0  0  0
   -1.0750   -1.9240   -0.2940 O   0  0  0  0  0  0  0  0  0  0  0  0
   -1.6200   -2.8840   -1.0860 C   0  0  0  0  0  0  0  0  0  0  0  0
   -1.6280   -4.0700   -0.3010 O   0  0  0  0  0  0  0  0  0  0  0  0
   -0.3780    0.2100    0.2380 C   0  0  2  0  0  0  0  0  0  0  0  0
    0.9470   -0.3410    0.7130 C   0  0  2  0  0  0  0  0  0  0  0  0
    1.3600    0.5840    1.7450 O   0  0  0  0  0  0  0  0  0  0  0  0
    2.0710   -0.3370   -0.2500 C   0  0  0  0  0  0  0  0  0  0  0  0
    3.2440   -0.7120    0.5340 O   0  0  0  0  0  0  0  0  0  0  0  0
    4.4530   -0.7840   -0.1460 C   0  0  0  0  0  0  0  0  0  0  0  0
    5.6500   -1.1360    0.5160 N   0  0  0  0  0  0  0  0  0  0  0  0
    4.5040   -0.5320   -1.3780 O   0  0  0  0  0  0  0  0  0  0  0  0
   -1.3000    0.0720    1.4560 C   0  0  0  0  0  0  0  0  0  0  0  0
   -2.4050    0.8620    1.4320 O   0  0  0  0  0  0  0  0  0  0  0  0
   -2.2280    2.1910    1.1810 C   0  0  1  0  0  0  0  0  0  0  0  0
   -2.8230    3.0310    2.1110 O   0  0  0  0  0  0  0  0  0  0  0  0
   -0.7330    2.4780    1.0680 C   0  0  2  0  0  0  0  0  0  0  0  0
   -0.6460    3.8460    0.7340 O   0  0  0  0  0  0  0  0  0  0  0  0
   -0.2520    1.6720   -0.1200 C   0  0  0  0  0  0  0  0  0  0  0  0
  2  1  1  6
  2  3  1  0
  2  4  1  0
  2  7  1  0
  4  5  1  0
  5  6  1  0
  7  8  1  0
  7 15  1  1
  7 21  1  0
  8  9  1  1
  8 10  1  0
 10 11  1  0
 11 12  1  0
 12 13  1  0
 12 14  2  0
 15 16  1  0
 16 17  1  0
 17 18  1  1
 17 19  1  0
 19 20  1  6
 19 21  1  0
M  END
