
     RDKit          3D

 21 21  0  0  0  0  0  0  0  0999 V2000
    5.6750    0.0120    0.1110 C   0  0  0  0  0  0  0  0  0  0  0  0
    4.3750    0.4530    0.2520 O   0  0  0  0  0  0  0  0  0  0  0  0
    3.7210   -0.1350    1.3200 C   0  0  0  0  0  0  0  0  0  0  0  0
    2.3110    0.3560    1.4570 C   0  0  2  0  0  0  0  0  0  0  0  0
    1.7360   -0.2860    2.5500 O   0  0  0  0  0  0  0  0  0  0  0  0
    1.5190   -0.0200    0.2230 C   0  0  2  0  0  0  0  0  0  0  0  0
    1.6870   -1.4960   -0.0170 C   0  0  0  0  0  0  0  0  0  0  0  0
    1.9780    0.7280   -0.9880 C   0  0  0  0  0  0  0  0  0  0  0  0
    0.8250    1.0900   -1.6490 O   0  0  0  0  0  0  0  0  0  0  0  0
   -0.2320    0.4370   -0.9630 C   0  0  2  0  0  0  0  0  0  0  0  0
   -1.5070    1.1560   -1.2300 C   0  0  1  0  0  0  0  0  0  0  0  0
   -1.6990    1.1330   -2.6420 O   0  0  0  0  0  0  0  0  0  0  0  0
   -2.7520    0.6100   -0.6490 C   0  0  1  0  0  0  0  0  0  0  0  0
   -3.7710    1.5000   -1.1100 O   0  0  0  0  0  0  0  0  0  0  0  0
   -3.1000   -0.7260   -1.3100 C   0  0  0  0  0  0  0  0  0  0  0  0
   -4.3730   -1.2970   -0.7250 C   0  0  0  0  0  0  0  0  0  0  0  0
   -4.2670   -1.5230    0.6370 O   0  0  0  0  0  0  0  0  0  0  0  0
   -2.8270    0.5220    0.8160 C   0  0  0  0  0  0  0  0  0  0  0  0
   -3.7460    1.2780    1.5740 N   0  0  0  0  0  0  0  0  0  0  0  0
   -2.0680   -0.2370    1.4470 O   0  0  0  0  0  0  0  0  0  0  0  0
    0.1850    0.3680    0.3330 O   0  0  0  0  0  0  0  0  0  0  0  0
  1  2  1  0
  2  3  1  0
  3  4  1  0
  4  5  1  1
  4  6  1  0
  6  7  1  6
  6  8  1  0
  6 21  1  0
  8  9  1  0
 10  9  1  6
 10 11  1  0
 10 21  1  0
 11 12  1  6
 11 13  1  0
 13 14  1  6
 13 15  1  0
 13 18  1  0
 15 16  1  0
 16 17  1  0
 18 19  1  0
 18 20  2  0
M  END
