
     RDKit          3D

 22 22  0  0  0  0  0  0  0  0999 V2000
    0.5680    2.7510    0.9900 N   0  0  0  0  0  0  0  0  0  0  0  0
   -0.1230    1.6780    0.3070 C   0  0  2  0  0  0  0  0  0  0  0  0
    0.7030    1.0690   -0.7890 C   0  0  0  0  0  0  0  0  0  0  0  0
    1.5770   -0.0680   -0.2730 C   0  0  2  0  0  0  0  0  0  0  0  0
    2.9520    0.1410   -0.8140 C   0  0  1  0  0  0  0  0  0  0  0  0
    3.3950    1.4020   -0.4260 O   0  0  0  0  0  0  0  0  0  0  0  0
    3.9550   -0.8630   -0.3260 C   0  0  0  0  0  0  0  0  0  0  0  0
    4.1270   -0.8740    1.0310 O   0  0  0  0  0  0  0  0  0  0  0  0
    1.0180   -1.2820   -0.5850 O   0  0  0  0  0  0  0  0  0  0  0  0
    0.6130   -1.9880    0.5400 C   0  0  0  0  0  0  0  0  0  0  0  0
   -0.4690   -2.9760    0.2830 C   0  0  2  0  0  0  0  0  0  0  0  0
   -0.2520   -3.7070   -0.8790 O   0  0  0  0  0  0  0  0  0  0  0  0
   -1.8460   -2.4010    0.2400 C   0  0  1  0  0  0  0  0  0  0  0  0
   -2.7830   -3.3640    0.6410 O   0  0  0  0  0  0  0  0  0  0  0  0
   -2.0200   -1.2850    1.0170 O   0  0  0  0  0  0  0  0  0  0  0  0
   -3.1960   -0.6490    0.6230 C   0  0  0  0  0  0  0  0  0  0  0  0
   -2.9590    0.8400    0.7800 C   0  0  0  0  0  0  0  0  0  0  0  0
   -2.3860    1.2860   -0.4040 O   0  0  0  0  0  0  0  0  0  0  0  0
   -1.4360    2.2580   -0.2170 C   0  0  2  0  0  0  0  0  0  0  0  0
   -1.2350    3.0050   -1.4710 C   0  0  0  0  0  0  0  0  0  0  0  0
   -1.9030    2.6890   -2.4840 O   0  0  0  0  0  0  0  0  0  0  0  0
   -0.3380    4.0560   -1.6140 O   0  0  0  0  0  0  0  0  0  0  0  0
  2  1  1  6
  2  3  1  0
  2 19  1  0
  4  3  1  6
  4  5  1  0
  4  9  1  0
  5  6  1  1
  5  7  1  0
  7  8  1  0
  9 10  1  0
 10 11  1  0
 11 12  1  6
 11 13  1  0
 13 14  1  1
 13 15  1  0
 15 16  1  0
 16 17  1  0
 17 18  1  0
 18 19  1  0
 19 20  1  6
 20 21  2  0
 20 22  1  0
M  END
