
     RDKit          3D

 23 24  0  0  0  0  0  0  0  0999 V2000
    4.6160    1.0570    2.1560 C   0  0  0  0  0  0  0  0  0  0  0  0
    4.3760    0.9350    0.7980 O   0  0  0  0  0  0  0  0  0  0  0  0
    3.7190   -0.0020    0.0810 C   0  0  0  0  0  0  0  0  0  0  0  0
    4.4000   -1.1850   -0.2830 C   0  0  0  0  0  0  0  0  0  0  0  0
    5.7270   -1.2700    0.1420 O   0  0  0  0  0  0  0  0  0  0  0  0
    3.7410   -2.1520   -1.0130 C   0  0  0  0  0  0  0  0  0  0  0  0
    2.4070   -1.9530   -1.3840 C   0  0  0  0  0  0  0  0  0  0  0  0
    1.7380   -0.7880   -1.0290 C   0  0  0  0  0  0  0  0  0  0  0  0
    0.4410   -0.4620   -1.5910 C   0  0  0  0  0  0  0  0  0  0  0  0
   -0.6100   -0.2410   -0.6710 O   0  0  0  0  0  0  0  0  0  0  0  0
   -1.9020   -0.0380   -1.1390 C   0  0  0  0  0  0  0  0  0  0  0  0
   -1.9550   -0.1620   -2.4150 O   0  0  0  0  0  0  0  0  0  0  0  0
   -3.0890    0.2680   -0.3790 C   0  0  0  0  0  0  0  0  0  0  0  0
   -2.9460    0.4060    1.0100 C   0  0  0  0  0  0  0  0  0  0  0  0
   -1.7760    0.3360    1.6800 O   0  0  0  0  0  0  0  0  0  0  0  0
   -4.1140    0.6360    1.7370 C   0  0  0  0  0  0  0  0  0  0  0  0
   -5.3550    0.7270    1.1780 C   0  0  0  0  0  0  0  0  0  0  0  0
   -6.4920    0.9600    1.9650 O   0  0  0  0  0  0  0  0  0  0  0  0
   -5.4390    0.5850   -0.1790 C   0  0  0  0  0  0  0  0  0  0  0  0
   -4.2900    0.3560   -0.9680 C   0  0  0  0  0  0  0  0  0  0  0  0
   -4.5530    0.2370   -2.3230 O   0  0  0  0  0  0  0  0  0  0  0  0
    2.3960    0.1960   -0.2920 C   0  0  0  0  0  0  0  0  0  0  0  0
    1.6500    1.3190    0.0180 O   0  0  0  0  0  0  0  0  0  0  0  0
  1  2  1  0
  2  3  1  0
  3  4  2  0
  3 22  1  0
  4  5  1  0
  4  6  1  0
  6  7  2  0
  7  8  1  0
  8  9  1  0
  8 22  2  0
  9 10  1  0
 10 11  1  0
 11 12  2  0
 11 13  1  0
 13 14  2  0
 13 20  1  0
 14 15  1  0
 14 16  1  0
 16 17  2  0
 17 18  1  0
 17 19  1  0
 19 20  2  0
 20 21  1  0
 22 23  1  0
M  END
