
     RDKit          3D

 14 14  0  0  0  0  0  0  0  0999 V2000
   -4.6150    0.8510   -0.6270 O   0  0  0  0  0  0  0  0  0  0  0  0
   -3.5420    0.3020    0.0430 C   0  0  0  0  0  0  0  0  0  0  0  0
   -2.3900    1.0650    0.1090 N   0  0  0  0  0  0  0  0  0  0  0  0
   -1.1560    0.6080   -0.4170 C   0  0  0  0  0  0  0  0  0  0  0  0
   -0.6200   -0.6650    0.0730 C   0  0  1  0  0  0  0  0  0  0  0  0
   -0.9560   -0.8350    1.4360 O   0  0  0  0  0  0  0  0  0  0  0  0
   -0.8890   -1.8980   -0.6850 C   0  0  0  0  0  0  0  0  0  0  0  0
   -0.2410   -2.9540   -0.0080 O   0  0  0  0  0  0  0  0  0  0  0  0
    0.9570   -0.5610    0.1860 C   0  0  1  0  0  0  0  0  0  0  0  0
    1.5740   -0.0970   -1.0790 C   0  0  0  0  0  0  0  0  0  0  0  0
    2.7230    0.7740   -0.9270 N   0  0  0  0  0  0  0  0  0  0  0  0
    3.2820    0.7020    0.4170 C   0  0  0  0  0  0  0  0  0  0  0  0
    2.1350    1.1470    1.3010 C   0  0  0  0  0  0  0  0  0  0  0  0
    1.0860    0.3290    1.2360 O   0  0  0  0  0  0  0  0  0  0  0  0
  1  2  1  0
  2  3  1  0
  3  4  1  0
  4  5  1  0
  5  6  1  1
  5  7  1  0
  5  9  1  0
  7  8  1  0
  9 10  1  6
  9 14  1  0
 10 11  1  0
 11 12  1  0
 12 13  1  0
 13 14  1  0
M  CHG  1  11   1
M  END
