
     RDKit          3D

 23 24  0  0  0  0  0  0  0  0999 V2000
   -1.2390    4.2610    1.2270 C   0  0  0  0  0  0  0  0  0  0  0  0
   -2.2380    3.5280    0.4560 C   0  0  0  0  0  0  0  0  0  0  0  0
   -2.2910    2.2890    0.0810 C   0  0  0  0  0  0  0  0  0  0  0  0
   -3.4040    1.6240   -0.7300 C   0  0  0  0  0  0  0  0  0  0  0  0
   -3.4460    0.3570   -0.0200 O   0  0  0  0  0  0  0  0  0  0  0  0
   -2.1240    0.0190    0.2210 C   0  0  0  0  0  0  0  0  0  0  0  0
   -1.5060   -1.2050    0.3860 C   0  0  0  0  0  0  0  0  0  0  0  0
   -2.3340   -2.3960    0.3100 C   0  0  0  0  0  0  0  0  0  0  0  0
   -1.8410   -3.5220    0.4510 O   0  0  0  0  0  0  0  0  0  0  0  0
   -3.7180   -2.3010    0.0730 O   0  0  0  0  0  0  0  0  0  0  0  0
   -4.4730   -3.5160    0.0100 C   0  0  0  0  0  0  0  0  0  0  0  0
   -0.1510   -1.2740    0.6160 C   0  0  0  0  0  0  0  0  0  0  0  0
    0.5210   -2.4510    0.7890 O   0  0  0  0  0  0  0  0  0  0  0  0
    0.6000   -0.1040    0.6820 C   0  0  0  0  0  0  0  0  0  0  0  0
    1.9600   -0.1860    0.9130 O   0  0  0  0  0  0  0  0  0  0  0  0
    2.8430   -0.2880   -0.1810 C   0  0  0  0  0  0  0  0  0  0  0  0
    4.2860   -0.3670    0.2730 C   0  0  1  0  0  0  0  0  0  0  0  0
    4.4540   -1.4790    1.0760 O   0  0  0  0  0  0  0  0  0  0  0  0
    5.1590   -0.5690   -0.9560 C   0  0  0  0  0  0  0  0  0  0  0  0
    4.7380   -1.7410   -1.6160 O   0  0  0  0  0  0  0  0  0  0  0  0
   -0.0240    1.1060    0.5170 C   0  0  0  0  0  0  0  0  0  0  0  0
    0.6960    2.2870    0.5730 O   0  0  0  0  0  0  0  0  0  0  0  0
   -1.3740    1.1810    0.2890 C   0  0  0  0  0  0  0  0  0  0  0  0
  1  2  1  0
  2  3  2  3
  3  4  1  0
  3 23  1  0
  4  5  1  0
  5  6  1  0
  6  7  2  0
  6 23  1  0
  7  8  1  0
  7 12  1  0
  8  9  2  0
  8 10  1  0
 10 11  1  0
 12 13  1  0
 12 14  2  0
 14 15  1  0
 14 21  1  0
 15 16  1  0
 16 17  1  0
 17 18  1  1
 17 19  1  0
 19 20  1  0
 21 22  1  0
 21 23  2  0
M  END
