
     RDKit          3D

 22 23  0  0  0  0  0  0  0  0999 V2000
   -1.7800    3.0770    2.1460 C   0  0  0  0  0  0  0  0  0  0  0  0
   -1.9310    2.2070    1.0380 O   0  0  0  0  0  0  0  0  0  0  0  0
   -1.1000    1.0410    1.0200 C   0  0  0  0  0  0  0  0  0  0  0  0
    0.1770    1.2440    1.0300 C   0  0  0  0  0  0  0  0  0  0  0  0
    1.3000    0.2900    1.0220 C   0  0  0  0  0  0  0  0  0  0  0  0
    2.4410    0.8580    0.4570 O   0  0  0  0  0  0  0  0  0  0  0  0
    2.3090    1.3360   -0.8070 C   0  0  0  0  0  0  0  0  0  0  0  0
    2.6790    0.2060   -1.7780 C   0  0  1  0  0  0  0  0  0  0  0  0
    2.8080    0.7670   -3.0250 O   0  0  0  0  0  0  0  0  0  0  0  0
    3.9740   -0.3840   -1.2620 C   0  0  0  0  0  0  0  0  0  0  0  0
    3.7690   -0.9270   -0.0100 O   0  0  0  0  0  0  0  0  0  0  0  0
    1.6690   -0.7510   -1.7030 O   0  0  0  0  0  0  0  0  0  0  0  0
    0.6480   -0.5140   -2.6030 C   0  0  0  0  0  0  0  0  0  0  0  0
   -0.6800   -0.2110   -1.9450 C   0  0  0  0  0  0  0  0  0  0  0  0
   -0.8930   -1.2260   -0.9970 O   0  0  0  0  0  0  0  0  0  0  0  0
   -1.7480   -1.2250    0.0880 C   0  0  0  0  0  0  0  0  0  0  0  0
   -2.5450   -2.3600    0.2400 C   0  0  0  0  0  0  0  0  0  0  0  0
   -3.4590   -2.5220    1.2630 C   0  0  0  0  0  0  0  0  0  0  0  0
   -4.2360   -3.6750    1.3770 O   0  0  0  0  0  0  0  0  0  0  0  0
   -3.5800   -1.5050    2.1720 C   0  0  0  0  0  0  0  0  0  0  0  0
   -2.7970   -0.3890    2.0250 C   0  0  0  0  0  0  0  0  0  0  0  0
   -1.8620   -0.2090    0.9930 C   0  0  0  0  0  0  0  0  0  0  0  0
  1  2  1  0
  2  3  1  0
  3  4  2  0
  3 22  1  0
  4  5  1  0
  5  6  1  0
  6  7  1  0
  7  8  1  0
  8  9  1  6
  8 10  1  0
  8 12  1  0
 10 11  1  0
 12 13  1  0
 13 14  1  0
 14 15  1  0
 15 16  1  0
 16 17  2  0
 16 22  1  0
 17 18  1  0
 18 19  1  0
 18 20  2  0
 20 21  1  0
 21 22  2  0
M  END
