
     RDKit          3D

 23 24  0  0  0  0  0  0  0  0999 V2000
    7.0190    1.7590   -0.9630 O   0  0  0  0  0  0  0  0  0  0  0  0
    6.4890    0.6370   -0.7700 C   0  0  0  0  0  0  0  0  0  0  0  0
    7.3070   -0.4820   -0.8340 O   0  0  0  0  0  0  0  0  0  0  0  0
    5.0620    0.5050   -0.4860 C   0  0  0  0  0  0  0  0  0  0  0  0
    4.5330   -0.7470   -0.2820 C   0  0  0  0  0  0  0  0  0  0  0  0
    3.1840   -0.8380   -0.0170 C   0  0  0  0  0  0  0  0  0  0  0  0
    2.3570    0.2400    0.0530 C   0  0  0  0  0  0  0  0  0  0  0  0
    0.9970    0.1560    0.3190 O   0  0  0  0  0  0  0  0  0  0  0  0
    0.4320   -1.1010    0.5300 C   0  0  0  0  0  0  0  0  0  0  0  0
   -1.0540   -1.0350    0.8090 C   0  0  0  0  0  0  0  0  0  0  0  0
   -1.7690   -0.4550   -0.2510 O   0  0  0  0  0  0  0  0  0  0  0  0
   -3.1430   -0.3400   -0.1100 C   0  0  0  0  0  0  0  0  0  0  0  0
   -3.9990   -1.3400   -0.5230 C   0  0  0  0  0  0  0  0  0  0  0  0
   -3.4920   -2.4930   -1.0940 O   0  0  0  0  0  0  0  0  0  0  0  0
   -5.3740   -1.2310   -0.3840 C   0  0  0  0  0  0  0  0  0  0  0  0
   -5.9280   -0.1050    0.1770 C   0  0  0  0  0  0  0  0  0  0  0  0
   -5.0540    0.9020    0.5920 C   0  0  0  0  0  0  0  0  0  0  0  0
   -5.6310    2.0450    1.1620 O   0  0  0  0  0  0  0  0  0  0  0  0
   -3.6870    0.7940    0.4540 C   0  0  0  0  0  0  0  0  0  0  0  0
   -2.8310    1.8010    0.8700 O   0  0  0  0  0  0  0  0  0  0  0  0
    2.9040    1.4990   -0.1550 C   0  0  0  0  0  0  0  0  0  0  0  0
    2.0960    2.6250   -0.0940 O   0  0  0  0  0  0  0  0  0  0  0  0
    4.2700    1.6310   -0.4270 C   0  0  0  0  0  0  0  0  0  0  0  0
  1  2  2  0
  2  3  1  0
  2  4  1  0
  4  5  2  0
  4 23  1  0
  5  6  1  0
  6  7  2  0
  7  8  1  0
  7 21  1  0
  8  9  1  0
  9 10  1  0
 10 11  1  0
 11 12  1  0
 12 13  2  0
 12 19  1  0
 13 14  1  0
 13 15  1  0
 15 16  2  0
 16 17  1  0
 17 18  1  0
 17 19  2  0
 19 20  1  0
 21 22  1  0
 21 23  2  0
M  END
