
     RDKit          3D

 19 21  0  0  0  0  0  0  0  0999 V2000
    5.7620   -1.2730    0.7440 O   0  0  0  0  0  0  0  0  0  0  0  0
    4.9000   -0.4370    0.4150 C   0  0  0  0  0  0  0  0  0  0  0  0
    5.2690    0.8260    0.1360 N   0  0  0  0  0  0  0  0  0  0  0  0
    4.3820    1.7590   -0.2210 C   0  0  0  0  0  0  0  0  0  0  0  0
    3.0790    1.4330   -0.3080 N   0  0  0  0  0  0  0  0  0  0  0  0
    2.6090    0.2070   -0.0530 C   0  0  0  0  0  0  0  0  0  0  0  0
    1.3640   -0.3860   -0.0630 C   0  0  0  0  0  0  0  0  0  0  0  0
    0.1090    0.3120   -0.4080 C   0  0  0  0  0  0  0  0  0  0  0  0
   -1.0490   -0.5070   -0.3490 N   0  0  1  0  0  0  0  0  0  0  0  0
   -1.6090   -0.6710    0.9600 C   0  0  0  0  0  0  0  0  0  0  0  0
   -3.0770   -0.8710    0.6940 C   0  0  2  0  0  0  0  0  0  0  0  0
   -3.3420   -2.1130    0.1270 O   0  0  0  0  0  0  0  0  0  0  0  0
   -3.3280    0.1700   -0.3970 C   0  0  1  0  0  0  0  0  0  0  0  0
   -3.4990    1.4920    0.3140 C   0  0  0  0  0  0  0  0  0  0  0  0
   -3.7360    2.5380   -0.5730 O   0  0  0  0  0  0  0  0  0  0  0  0
   -2.0650    0.0920   -1.1910 C   0  0  0  0  0  0  0  0  0  0  0  0
    1.5630   -1.6890    0.3000 C   0  0  0  0  0  0  0  0  0  0  0  0
    2.8910   -1.9080    0.5310 N   0  0  0  0  0  0  0  0  0  0  0  0
    3.5550   -0.7540    0.3200 C   0  0  0  0  0  0  0  0  0  0  0  0
  1  2  2  0
  2  3  1  0
  2 19  1  0
  3  4  1  0
  4  5  2  0
  5  6  1  0
  6  7  1  0
  6 19  2  0
  7  8  1  0
  7 17  2  0
  9  8  1  1
  9 10  1  0
  9 16  1  0
 10 11  1  0
 11 12  1  6
 11 13  1  0
 13 14  1  1
 13 16  1  0
 14 15  1  0
 17 18  1  0
 18 19  1  0
M  CHG  1   9   1
M  END
