
     RDKit          3D

 40 43  0  0  0  0  0  0  0  0999 V2000
   -5.8960   -4.0560   -0.8390 C   0  0  0  0  0  0  0  0  0  0  0  0
   -4.7150   -4.4200    0.0290 C   0  0  0  0  0  0  0  0  0  0  0  0
   -4.8000   -3.7490    1.3740 C   0  0  0  0  0  0  0  0  0  0  0  0
   -4.8180   -2.3530    1.2250 O   0  0  0  0  0  0  0  0  0  0  0  0
   -3.8270   -1.5920    0.6420 C   0  0  0  0  0  0  0  0  0  0  0  0
   -2.8100   -2.1750    0.1980 O   0  0  0  0  0  0  0  0  0  0  0  0
   -3.9010   -0.1430    0.5160 C   0  0  0  0  0  0  0  0  0  0  0  0
   -5.0010    0.5710    0.9870 C   0  0  0  0  0  0  0  0  0  0  0  0
   -5.0760    1.9440    0.8700 C   0  0  0  0  0  0  0  0  0  0  0  0
   -6.0210    2.8900    1.2370 C   0  0  0  0  0  0  0  0  0  0  0  0
   -7.2960    2.5390    1.9160 C   0  0  0  0  0  0  0  0  0  0  0  0
   -5.5440    4.1220    0.8580 C   0  0  0  0  0  0  0  0  0  0  0  0
   -6.2570    5.4290    1.0680 C   0  0  0  0  0  0  0  0  0  0  0  0
   -4.3470    3.9270    0.2800 N   0  0  0  0  0  0  0  0  0  0  0  0
   -4.0350    2.6210    0.2710 C   0  0  0  0  0  0  0  0  0  0  0  0
   -2.9160    1.9340   -0.2130 C   0  0  0  0  0  0  0  0  0  0  0  0
   -1.8200    2.7060   -0.8510 C   0  0  0  0  0  0  0  0  0  0  0  0
   -2.8850    0.5660   -0.0740 C   0  0  0  0  0  0  0  0  0  0  0  0
   -1.6990   -0.0930   -0.5950 N   0  0  0  0  0  0  0  0  0  0  0  0
   -1.6260   -0.5490   -1.9200 C   0  0  0  0  0  0  0  0  0  0  0  0
   -2.7610   -0.3120   -2.5570 O   0  0  0  0  0  0  0  0  0  0  0  0
   -0.5930   -1.1820   -2.6600 C   0  0  0  0  0  0  0  0  0  0  0  0
    0.6210   -1.5470   -2.5630 C   0  0  0  0  0  0  0  0  0  0  0  0
    1.6910   -1.5070   -1.6000 C   0  0  0  0  0  0  0  0  0  0  0  0
    1.7820   -0.6430   -0.5440 C   0  0  0  0  0  0  0  0  0  0  0  0
    2.7880   -0.7270    0.3830 C   0  0  0  0  0  0  0  0  0  0  0  0
    3.7470   -1.7020    0.2640 C   0  0  0  0  0  0  0  0  0  0  0  0
    4.7820   -1.8270    1.1760 O   0  0  0  0  0  0  0  0  0  0  0  0
    5.9510   -1.1300    0.9300 C   0  0  0  0  0  0  0  0  0  0  0  0
    7.0150   -1.2260    1.8210 C   0  0  0  0  0  0  0  0  0  0  0  0
    8.1940   -0.5460    1.6050 C   0  0  0  0  0  0  0  0  0  0  0  0
    8.3580    0.2560    0.4960 C   0  0  0  0  0  0  0  0  0  0  0  0
    9.5930    0.9910    0.2380 C   0  0  0  0  0  0  0  0  0  0  0  0
    9.6830    1.7060   -0.7920 O   0  0  0  0  0  0  0  0  0  0  0  0
   10.6810    0.9340    1.0860 O   0  0  0  0  0  0  0  0  0  0  0  0
   11.8880    1.6100    0.8960 C   0  0  0  0  0  0  0  0  0  0  0  0
    7.2960    0.3410   -0.3770 C   0  0  0  0  0  0  0  0  0  0  0  0
    6.1130   -0.3290   -0.1790 C   0  0  0  0  0  0  0  0  0  0  0  0
    3.6810   -2.5800   -0.7860 C   0  0  0  0  0  0  0  0  0  0  0  0
    2.6870   -2.4960   -1.6990 C   0  0  0  0  0  0  0  0  0  0  0  0
  1  2  1  0
  2  3  1  0
  3  4  1  0
  4  5  1  0
  5  6  2  0
  5  7  1  0
  7  8  2  0
  7 18  1  0
  8  9  1  0
  9 10  1  0
  9 15  2  0
 10 11  1  0
 10 12  2  0
 12 13  1  0
 12 14  1  0
 14 15  1  0
 15 16  1  0
 16 17  1  0
 16 18  2  0
 18 19  1  0
 19 20  1  0
 20 21  2  0
 20 22  1  0
 22 23  2  3
 23 24  1  0
 24 25  2  0
 24 40  1  0
 25 26  1  0
 26 27  2  0
 27 28  1  0
 27 39  1  0
 28 29  1  0
 29 30  2  0
 29 38  1  0
 30 31  1  0
 31 32  2  0
 32 33  1  0
 32 37  1  0
 33 34  2  0
 33 35  1  0
 35 36  1  0
 37 38  2  0
 39 40  2  0
M  END
