
     RDKit          3D

 40 43  0  0  0  0  0  0  0  0999 V2000
   11.4610    1.4190    0.3250 C   0  0  0  0  0  0  0  0  0  0  0  0
   10.1420    2.0280    0.7200 C   0  0  0  0  0  0  0  0  0  0  0  0
    9.0290    1.3240    0.5670 C   0  0  0  0  0  0  0  0  0  0  0  0
    9.0840   -0.0060    0.0290 C   0  0  0  0  0  0  0  0  0  0  0  0
    8.1770   -0.8760   -0.2140 C   0  0  0  0  0  0  0  0  0  0  0  0
    6.7450   -0.8220   -0.0260 C   0  0  0  0  0  0  0  0  0  0  0  0
    5.9620   -1.8540   -0.3500 C   0  0  0  0  0  0  0  0  0  0  0  0
    4.4960   -1.8570   -0.1800 C   0  0  0  0  0  0  0  0  0  0  0  0
    3.7480   -3.0590   -0.4900 C   0  0  0  0  0  0  0  0  0  0  0  0
    4.4280   -4.1290   -0.8090 O   0  0  0  0  0  0  0  0  0  0  0  0
    2.3850   -3.2160   -0.4900 N   0  0  0  0  0  0  0  0  0  0  0  0
    1.6290   -4.4880   -0.2320 C   0  0  0  0  0  0  0  0  0  0  0  0
    0.6350   -3.9050    0.7940 C   0  0  0  0  0  0  0  0  0  0  0  0
    0.2560   -2.6200    0.0940 C   0  0  0  0  0  0  0  0  0  0  0  0
   -0.9030   -1.8490    0.0660 C   0  0  0  0  0  0  0  0  0  0  0  0
   -1.0150   -0.7250   -0.6910 C   0  0  0  0  0  0  0  0  0  0  0  0
   -2.1870    0.0420   -0.7480 N   0  0  0  0  0  0  0  0  0  0  0  0
   -3.4800   -0.3880   -0.4050 C   0  0  0  0  0  0  0  0  0  0  0  0
   -3.5890   -1.5770   -0.0200 O   0  0  0  0  0  0  0  0  0  0  0  0
   -4.6800    0.4860   -0.4800 C   0  0  0  0  0  0  0  0  0  0  0  0
   -4.5590    1.7850   -0.8990 C   0  0  0  0  0  0  0  0  0  0  0  0
   -5.6450    2.6240   -0.9800 C   0  0  0  0  0  0  0  0  0  0  0  0
   -6.9350    2.1870   -0.6360 C   0  0  0  0  0  0  0  0  0  0  0  0
   -8.0310    3.1730   -0.7770 C   0  0  0  0  0  0  0  0  0  0  0  0
   -7.0720    0.8940   -0.2150 C   0  0  0  0  0  0  0  0  0  0  0  0
   -8.3360    0.3190    0.1630 C   0  0  0  0  0  0  0  0  0  0  0  0
   -8.2560   -0.9390    0.5160 O   0  0  0  0  0  0  0  0  0  0  0  0
   -9.6860    0.8210    0.2460 C   0  0  1  0  0  0  0  0  0  0  0  0
  -10.6570   -0.3400    0.6800 C   0  0  0  0  0  0  0  0  0  0  0  0
   -9.9310    1.8990    1.2470 C   0  0  0  0  0  0  0  0  0  0  0  0
   -5.9250    0.0360   -0.1380 C   0  0  0  0  0  0  0  0  0  0  0  0
   -6.1150   -1.2470    0.2870 O   0  0  0  0  0  0  0  0  0  0  0  0
    0.1040   -0.3590   -1.4610 C   0  0  0  0  0  0  0  0  0  0  0  0
    1.2410   -1.1060   -1.4390 C   0  0  0  0  0  0  0  0  0  0  0  0
    1.3400   -2.2500   -0.6620 C   0  0  0  0  0  0  0  0  0  0  0  0
    3.9360   -0.7920    0.3140 C   0  0  0  0  0  0  0  0  0  0  0  0
    4.7280    0.4130    0.6990 C   0  0  0  0  0  0  0  0  0  0  0  0
    6.0770    0.2690    0.4900 O   0  0  0  0  0  0  0  0  0  0  0  0
    7.8570    1.9210    0.9400 O   0  0  0  0  0  0  0  0  0  0  0  0
    7.7820    3.1090    1.7050 C   0  0  0  0  0  0  0  0  0  0  0  0
  1  2  1  0
  2  3  2  3
  3  4  1  0
  3 39  1  0
  4  5  2  3
  5  6  1  0
  6  7  2  0
  6 38  1  0
  7  8  1  0
  8  9  1  0
  8 36  2  0
  9 10  2  0
  9 11  1  0
 11 12  1  0
 11 35  1  0
 12 13  1  0
 13 14  1  0
 14 15  2  0
 14 35  1  0
 15 16  1  0
 16 17  1  0
 16 33  2  0
 17 18  1  0
 18 19  2  0
 18 20  1  0
 20 21  2  0
 20 31  1  0
 21 22  1  0
 22 23  2  0
 23 24  1  0
 23 25  1  0
 25 26  1  0
 25 31  2  0
 26 27  2  0
 26 28  1  0
 28 29  1  1
 28 30  1  0
 31 32  1  0
 33 34  1  0
 34 35  2  0
 36 37  1  0
 37 38  1  0
 39 40  1  0
M  END
