
     RDKit          3D

 39 42  0  0  0  0  0  0  0  0999 V2000
    9.3730   -1.9650   -1.6590 C   0  0  0  0  0  0  0  0  0  0  0  0
    8.1070   -1.4530   -1.3080 O   0  0  0  0  0  0  0  0  0  0  0  0
    7.9430   -0.7560   -0.1240 C   0  0  0  0  0  0  0  0  0  0  0  0
    9.0190   -0.5580    0.7180 C   0  0  0  0  0  0  0  0  0  0  0  0
    8.8560    0.1390    1.8990 C   0  0  0  0  0  0  0  0  0  0  0  0
    7.6270    0.6230    2.2150 C   0  0  0  0  0  0  0  0  0  0  0  0
    6.5500    0.4080    1.3390 C   0  0  0  0  0  0  0  0  0  0  0  0
    6.6780   -0.2760    0.1670 C   0  0  0  0  0  0  0  0  0  0  0  0
    5.6070   -0.4960   -0.7060 N   0  0  0  0  0  0  0  0  0  0  0  0
    4.2790   -0.0860   -0.6090 C   0  0  0  0  0  0  0  0  0  0  0  0
    3.9090    0.5800    0.3680 O   0  0  0  0  0  0  0  0  0  0  0  0
    3.2240   -0.4060   -1.6450 C   0  0  1  0  0  0  0  0  0  0  0  0
    3.9190   -1.2020   -2.6120 O   0  0  0  0  0  0  0  0  0  0  0  0
    2.1790   -1.2040   -0.9990 C   0  0  0  0  0  0  0  0  0  0  0  0
    1.0270   -0.4580   -0.3670 C   0  0  2  0  0  0  0  0  0  0  0  0
   -0.0540   -1.4280    0.0420 C   0  0  0  0  0  0  0  0  0  0  0  0
   -1.2200   -0.8430    0.6850 C   0  0  0  0  0  0  0  0  0  0  0  0
   -1.2820    0.3640    0.9550 O   0  0  0  0  0  0  0  0  0  0  0  0
   -2.3580   -1.5690    1.0480 O   0  0  0  0  0  0  0  0  0  0  0  0
   -3.4630   -0.9320    1.6640 C   0  0  2  0  0  0  0  0  0  0  0  0
   -3.6220   -1.5940    3.0120 C   0  0  1  0  0  0  0  0  0  0  0  0
   -2.4740   -1.3550    3.8110 O   0  0  0  0  0  0  0  0  0  0  0  0
   -4.8480   -1.1550    3.7580 C   0  0  0  0  0  0  0  0  0  0  0  0
   -6.0690   -1.5220    2.9880 C   0  0  0  0  0  0  0  0  0  0  0  0
   -5.6920   -2.0180    1.6180 C   0  0  0  0  0  0  0  0  0  0  0  0
   -4.7430   -1.1140    0.8970 C   0  0  1  0  0  0  0  0  0  0  0  0
   -5.4130    0.1840    0.5530 C   0  0  2  0  0  0  0  0  0  0  0  0
   -5.7410    0.9340    1.6700 O   0  0  0  0  0  0  0  0  0  0  0  0
   -6.6930   -0.1030   -0.1760 C   0  0  0  0  0  0  0  0  0  0  0  0
   -7.3080    1.1850   -0.5270 N   0  0  0  0  0  0  0  0  0  0  0  0
   -6.5380    1.7240   -1.6210 C   0  0  0  0  0  0  0  0  0  0  0  0
   -5.1980    2.1340   -1.0420 C   0  0  2  0  0  0  0  0  0  0  0  0
   -4.3910    2.4790   -2.1470 O   0  0  0  0  0  0  0  0  0  0  0  0
   -4.5230    1.0450   -0.3100 C   0  0  0  0  0  0  0  0  0  0  0  0
    0.4720    0.5740   -1.3160 C   0  0  0  0  0  0  0  0  0  0  0  0
    1.5620    1.5170   -1.7850 C   0  0  1  0  0  0  0  0  0  0  0  0
    0.8980    2.3440   -2.9090 C   0  0  0  0  0  0  0  0  0  0  0  0
    1.7910    2.5050   -0.6560 C   0  0  0  0  0  0  0  0  0  0  0  0
    2.7940    0.8650   -2.2660 C   0  0  0  0  0  0  0  0  0  0  0  0
  1  2  1  0
  2  3  1  0
  3  4  2  0
  3  8  1  0
  4  5  1  0
  5  6  2  0
  6  7  1  0
  7  8  2  0
  8  9  1  0
  9 10  1  0
 10 11  2  0
 10 12  1  0
 12 13  1  6
 12 14  1  0
 12 39  1  0
 14 15  1  0
 15 16  1  6
 15 35  1  0
 16 17  1  0
 17 18  2  0
 17 19  1  0
 20 19  1  6
 20 21  1  0
 20 26  1  0
 21 22  1  1
 21 23  1  0
 23 24  1  0
 24 25  1  0
 26 25  1  1
 26 27  1  0
 27 28  1  1
 27 29  1  0
 27 34  1  0
 29 30  1  0
 30 31  1  0
 31 32  1  0
 32 33  1  6
 32 34  1  0
 35 36  1  0
 36 37  1  6
 36 38  1  0
 36 39  1  0
M  END
