
     RDKit          3D

 40 43  0  0  0  0  0  0  0  0999 V2000
   -3.3900    1.9440   -1.4000 C   0  0  0  0  0  0  0  0  0  0  0  0
   -4.1230    0.7850   -1.6610 O   0  0  0  0  0  0  0  0  0  0  0  0
   -4.7270   -0.0330   -0.7530 C   0  0  0  0  0  0  0  0  0  0  0  0
   -6.0280    0.1650   -0.3460 C   0  0  0  0  0  0  0  0  0  0  0  0
   -6.7720    1.3100   -0.9270 C   0  0  0  0  0  0  0  0  0  0  0  0
   -6.6240   -0.6770    0.5770 C   0  0  0  0  0  0  0  0  0  0  0  0
   -5.9180   -1.7350    1.1060 C   0  0  0  0  0  0  0  0  0  0  0  0
   -4.6010   -1.9450    0.7010 C   0  0  0  0  0  0  0  0  0  0  0  0
   -4.0400   -1.0860   -0.2200 C   0  0  0  0  0  0  0  0  0  0  0  0
   -2.7150   -1.3380   -0.5950 O   0  0  0  0  0  0  0  0  0  0  0  0
   -2.3850   -2.1200   -1.6790 C   0  0  0  0  0  0  0  0  0  0  0  0
   -3.3480   -2.6010   -2.3230 O   0  0  0  0  0  0  0  0  0  0  0  0
   -1.0350   -2.4240   -2.1270 C   0  0  0  0  0  0  0  0  0  0  0  0
   -0.8890   -3.2110   -3.2480 C   0  0  0  0  0  0  0  0  0  0  0  0
    0.3700   -3.5170   -3.7170 C   0  0  0  0  0  0  0  0  0  0  0  0
    1.4500   -3.0250   -3.0450 C   0  0  0  0  0  0  0  0  0  0  0  0
    1.3020   -2.2140   -1.8870 C   0  0  0  0  0  0  0  0  0  0  0  0
    2.5310   -1.8150   -1.1960 C   0  0  0  0  0  0  0  0  0  0  0  0
    3.5950   -1.6670   -1.9150 O   0  0  0  0  0  0  0  0  0  0  0  0
    2.6730   -1.5790    0.1820 N   0  0  0  0  0  0  0  0  0  0  0  0
    3.8410   -1.1780    0.8740 C   0  0  0  0  0  0  0  0  0  0  0  0
    3.7330   -1.0310    2.2620 C   0  0  0  0  0  0  0  0  0  0  0  0
    4.7930   -0.6430    3.0520 C   0  0  0  0  0  0  0  0  0  0  0  0
    6.0250   -0.3780    2.4990 C   0  0  0  0  0  0  0  0  0  0  0  0
    6.1590   -0.5130    1.1430 C   0  0  0  0  0  0  0  0  0  0  0  0
    5.0700   -0.9090    0.3570 C   0  0  0  0  0  0  0  0  0  0  0  0
    7.5060   -0.1840    0.8460 N   0  0  0  0  0  0  0  0  0  0  0  0
    8.2690   -0.0410    2.0610 C   0  0  0  0  0  0  0  0  0  0  0  0
    7.2520    0.0240    3.0410 O   0  0  0  0  0  0  0  0  0  0  0  0
    0.0810   -1.9240   -1.4470 C   0  0  0  0  0  0  0  0  0  0  0  0
   -0.2080   -1.1180   -0.2860 C   0  0  0  0  0  0  0  0  0  0  0  0
    0.0650    0.2070   -0.2660 C   0  0  0  0  0  0  0  0  0  0  0  0
    0.6710    0.7550   -1.5090 C   0  0  0  0  0  0  0  0  0  0  0  0
   -0.2420    1.0530    0.8590 C   0  0  0  0  0  0  0  0  0  0  0  0
   -1.0030    0.3870    1.9980 C   0  0  0  0  0  0  0  0  0  0  0  0
   -0.0210    2.3190    1.0370 C   0  0  0  0  0  0  0  0  0  0  0  0
    0.6430    3.1940    0.0200 C   0  0  0  0  0  0  0  0  0  0  0  0
   -0.3560    3.0060    2.2860 C   0  0  0  0  0  0  0  0  0  0  0  0
   -0.0960    4.4900    2.4210 C   0  0  0  0  0  0  0  0  0  0  0  0
   -0.8540    2.4730    3.2900 O   0  0  0  0  0  0  0  0  0  0  0  0
  1  2  1  0
  2  3  1  0
  3  4  2  0
  3  9  1  0
  4  5  1  0
  4  6  1  0
  6  7  2  0
  7  8  1  0
  8  9  2  0
  9 10  1  0
 10 11  1  0
 11 12  2  0
 11 13  1  0
 13 14  2  0
 13 30  1  0
 14 15  1  0
 15 16  2  0
 16 17  1  0
 17 18  1  0
 17 30  2  0
 18 19  2  0
 18 20  1  0
 20 21  1  0
 21 22  2  0
 21 26  1  0
 22 23  1  0
 23 24  2  0
 24 25  1  0
 24 29  1  0
 25 26  2  0
 25 27  1  0
 27 28  1  0
 28 29  1  0
 30 31  1  0
 31 32  2  3
 32 33  1  0
 32 34  1  0
 34 35  1  0
 34 36  2  3
 36 37  1  0
 36 38  1  0
 38 39  1  0
 38 40  2  0
M  END
