
     RDKit          3D

 40 41  0  0  0  0  0  0  0  0999 V2000
    3.6690    0.3930   -3.7160 C   0  0  0  0  0  0  0  0  0  0  0  0
    3.8430    0.3530   -2.1810 C   0  0  0  0  0  0  0  0  0  0  0  0
    2.4960    0.0340   -1.6380 C   0  0  1  0  0  0  0  0  0  0  0  0
    2.1170   -1.2090   -2.1780 O   0  0  0  0  0  0  0  0  0  0  0  0
    2.3380    0.0090   -0.1580 C   0  0  2  0  0  0  0  0  0  0  0  0
    2.6660    1.2940    0.5130 C   0  0  0  0  0  0  0  0  0  0  0  0
    3.9810    1.5540    0.6400 C   0  0  0  0  0  0  0  0  0  0  0  0
    4.4720    2.8130    1.2930 C   0  0  2  0  0  0  0  0  0  0  0  0
    3.9850    4.0320    0.5400 C   0  0  0  0  0  0  0  0  0  0  0  0
    5.8810    2.7830    1.1740 O   0  0  0  0  0  0  0  0  0  0  0  0
    1.7410    2.2510    1.0600 C   0  0  0  0  0  0  0  0  0  0  0  0
    0.4910    2.4850    0.8660 C   0  0  0  0  0  0  0  0  0  0  0  0
   -0.1030    3.5500    1.6140 O   0  0  0  0  0  0  0  0  0  0  0  0
   -0.4840    1.8250   -0.0290 C   0  0  0  0  0  0  0  0  0  0  0  0
   -1.7000    2.6860   -0.2370 C   0  0  0  0  0  0  0  0  0  0  0  0
   -2.9300    2.0860    0.3060 N   0  0  0  0  0  0  0  0  0  0  0  0
   -3.8080    3.0640    0.9120 C   0  0  0  0  0  0  0  0  0  0  0  0
   -3.5540    3.4200    2.3230 C   0  0  0  0  0  0  0  0  0  0  0  0
   -3.6340    2.3770    3.3020 N   0  0  0  0  0  0  0  0  0  0  0  0
   -3.2060    0.7120    0.2540 C   0  0  0  0  0  0  0  0  0  0  0  0
   -3.7100    0.1780    1.2720 O   0  0  0  0  0  0  0  0  0  0  0  0
   -2.9650   -0.2210   -0.9050 C   0  0  2  0  0  0  0  0  0  0  0  0
   -3.2640    0.5340   -2.2220 C   0  0  0  0  0  0  0  0  0  0  0  0
   -3.9060   -1.2220   -0.8430 O   0  0  0  0  0  0  0  0  0  0  0  0
   -4.0100   -2.5520   -0.8950 C   0  0  0  0  0  0  0  0  0  0  0  0
   -4.8310   -3.1220   -1.8580 C   0  0  0  0  0  0  0  0  0  0  0  0
   -5.0280   -4.4780   -2.0160 C   0  0  0  0  0  0  0  0  0  0  0  0
   -4.3870   -5.3330   -1.1840 C   0  0  0  0  0  0  0  0  0  0  0  0
   -3.5600   -4.8300   -0.2090 C   0  0  0  0  0  0  0  0  0  0  0  0
   -3.3510   -3.4580   -0.0400 C   0  0  0  0  0  0  0  0  0  0  0  0
   -2.5170   -3.0560    0.9500 O   0  0  0  0  0  0  0  0  0  0  0  0
   -1.3120   -2.3840    1.0240 C   0  0  0  0  0  0  0  0  0  0  0  0
   -0.3490   -2.6780   -0.0700 C   0  0  0  0  0  0  0  0  0  0  0  0
   -0.8300   -3.4600   -0.9660 O   0  0  0  0  0  0  0  0  0  0  0  0
    0.8780   -2.1620   -0.0810 O   0  0  0  0  0  0  0  0  0  0  0  0
    2.0530   -2.3620    0.6160 C   0  0  1  0  0  0  0  0  0  0  0  0
    1.8600   -2.7750    2.0740 C   0  0  0  0  0  0  0  0  0  0  0  0
    2.7680   -3.5740   -0.0150 C   0  0  0  0  0  0  0  0  0  0  0  0
    2.9960   -1.1600    0.5350 C   0  0  1  0  0  0  0  0  0  0  0  0
    4.2200   -1.5100    0.0290 O   0  0  0  0  0  0  0  0  0  0  0  0
  1  2  1  0
  2  3  1  0
  3  4  1  1
  3  5  1  0
  5  6  1  1
  5 39  1  0
  6  7  2  3
  6 11  1  0
  7  8  1  0
  8  9  1  6
  8 10  1  0
 11 12  2  0
 12 13  1  0
 12 14  1  0
 14 15  1  0
 15 16  1  0
 16 17  1  0
 16 20  1  0
 17 18  1  0
 18 19  1  0
 20 21  2  0
 20 22  1  0
 22 23  1  6
 22 24  1  0
 24 25  1  0
 25 26  2  0
 25 30  1  0
 26 27  1  0
 27 28  2  0
 28 29  1  0
 29 30  2  0
 30 31  1  0
 31 32  1  0
 32 33  1  0
 33 34  2  0
 33 35  1  0
 35 36  1  0
 36 37  1  1
 36 38  1  0
 36 39  1  0
 39 40  1  6
M  CHG  1  19   1
M  END
