
     RDKit          3D

 22 22  0  0  0  0  0  0  0  0999 V2000
    3.7240   -0.8440   -1.7320 C   0  0  0  0  0  0  0  0  0  0  0  0
    3.1910   -0.2290   -0.4500 C   0  0  1  0  0  0  0  0  0  0  0  0
    1.7410    0.1080   -0.7220 C   0  0  0  0  0  0  0  0  0  0  0  0
    1.0730    0.7310    0.4660 C   0  0  0  0  0  0  0  0  0  0  0  0
   -0.2790    1.0590    0.2480 O   0  0  0  0  0  0  0  0  0  0  0  0
   -1.2260    0.1050   -0.0690 C   0  0  0  0  0  0  0  0  0  0  0  0
   -0.8910   -1.0990   -0.1690 O   0  0  0  0  0  0  0  0  0  0  0  0
   -2.5810    0.4980   -0.2810 N   0  0  0  0  0  0  0  0  0  0  0  0
   -3.6000   -0.4300   -0.6090 C   0  0  0  0  0  0  0  0  0  0  0  0
   -3.3070   -1.6360   -0.7170 O   0  0  0  0  0  0  0  0  0  0  0  0
   -5.0140   -0.0230   -0.8300 C   0  0  1  0  0  0  0  0  0  0  0  0
   -5.8490   -0.8150    0.1750 C   0  0  0  0  0  0  0  0  0  0  0  0
   -7.0190   -0.0650    0.5450 N   0  0  0  0  0  0  0  0  0  0  0  0
   -7.4340    1.0130   -0.2910 C   0  0  0  0  0  0  0  0  0  0  0  0
   -8.6380    1.3720   -0.3500 O   0  0  0  0  0  0  0  0  0  0  0  0
   -6.4310    1.6480   -1.0400 O   0  0  0  0  0  0  0  0  0  0  0  0
   -5.1610    1.3400   -0.6720 O   0  0  0  0  0  0  0  0  0  0  0  0
    3.4120   -0.9610    0.6530 O   0  0  0  0  0  0  0  0  0  0  0  0
    4.1800   -0.5180    1.6600 C   0  0  0  0  0  0  0  0  0  0  0  0
    5.6260   -0.2370    1.3680 C   0  0  0  0  0  0  0  0  0  0  0  0
    5.8460    0.7150    0.4110 O   0  0  0  0  0  0  0  0  0  0  0  0
    7.1260    0.8730    0.2430 O   0  0  0  0  0  0  0  0  0  0  0  0
  2  1  1  6
  2  3  1  0
  2 18  1  0
  3  4  1  0
  4  5  1  0
  5  6  1  0
  6  7  2  0
  6  8  1  0
  8  9  1  0
  9 10  2  0
 11  9  1  1
 11 12  1  0
 11 17  1  0
 12 13  1  0
 13 14  1  0
 14 15  2  0
 14 16  1  0
 16 17  1  0
 18 19  1  0
 19 20  1  0
 20 21  1  0
 21 22  1  0
M  END
