
     RDKit          3D

 15 16  0  0  0  0  0  0  0  0999 V2000
   -4.2190   -0.0960   -0.8250 C   0  0  0  0  0  0  0  0  0  0  0  0
   -3.7960   -1.0950    0.2190 C   0  0  0  0  0  0  0  0  0  0  0  0
   -2.8930   -0.3420    1.1900 C   0  0  0  0  0  0  0  0  0  0  0  0
   -2.5010    0.8750    0.4660 C   0  0  1  0  0  0  0  0  0  0  0  0
   -1.3150    0.7850   -0.3990 C   0  0  0  0  0  0  0  0  0  0  0  0
   -0.0840    0.5230    0.1230 N   0  0  0  0  0  0  0  0  0  0  0  0
    0.4230   -0.6300    0.6700 C   0  0  0  0  0  0  0  0  0  0  0  0
    1.9410   -0.4240    0.9760 C   0  0  0  0  0  0  0  0  0  0  0  0
    2.7630   -0.0100   -0.6160 P   0  0  0  0  0  0  0  0  0  0  0  0
    3.6030   -1.3740   -1.3090 O   0  0  0  0  0  0  0  0  0  0  0  0
    4.9130   -0.8900   -1.5570 C   0  0  0  0  0  0  0  0  0  0  0  0
    5.4590   -0.5670   -0.3400 O   0  0  0  0  0  0  0  0  0  0  0  0
    5.0950    0.6390    0.1880 C   0  0  0  0  0  0  0  0  0  0  0  0
    3.9520    1.2140   -0.3480 O   0  0  0  0  0  0  0  0  0  0  0  0
   -3.7580    1.2500   -0.3210 C   0  0  0  0  0  0  0  0  0  0  0  0
  1  2  1  0
  1 15  1  0
  2  3  1  0
  3  4  1  0
  4  5  1  6
  4 15  1  0
  5  6  1  0
  6  7  1  0
  7  8  1  0
  8  9  1  0
  9 10  1  0
  9 14  1  0
 10 11  1  0
 11 12  1  0
 12 13  1  0
 13 14  1  0
M  END
