
     RDKit          3D

 20 20  0  0  0  0  0  0  0  0999 V2000
   -5.2320    1.0550    0.0440 C   0  0  0  0  0  0  0  0  0  0  0  0
   -3.7910    0.2380   -0.3940 P   0  0  0  0  0  0  0  0  0  0  0  0
   -3.3530    0.1400   -2.0510 O   0  0  0  0  0  0  0  0  0  0  0  0
   -4.3170   -1.1860   -0.5820 O   0  0  0  0  0  0  0  0  0  0  0  0
   -2.6250   -0.2030    0.7550 N   0  0  0  0  0  0  0  0  0  0  0  0
   -1.4860   -0.7910    0.1290 C   0  0  1  0  0  0  0  0  0  0  0  0
   -0.7270    0.0950   -0.8130 C   0  0  1  0  0  0  0  0  0  0  0  0
   -0.7720    1.4450   -0.5030 O   0  0  0  0  0  0  0  0  0  0  0  0
    0.6540   -0.2360   -0.7860 O   0  0  0  0  0  0  0  0  0  0  0  0
    1.1180    0.4080    0.3850 C   0  0  2  0  0  0  0  0  0  0  0  0
    2.5720    0.0480    0.6420 C   0  0  0  0  0  0  0  0  0  0  0  0
    3.3060    0.4590   -0.4370 O   0  0  0  0  0  0  0  0  0  0  0  0
    4.8920    0.1020   -0.2290 P   0  0  0  0  0  0  0  0  0  0  0  0
    5.2500    1.5800   -0.4020 O   0  0  0  0  0  0  0  0  0  0  0  0
    5.8070   -0.2500   -1.5760 O   0  0  0  0  0  0  0  0  0  0  0  0
    4.6310   -1.3990   -0.0530 O   0  0  0  0  0  0  0  0  0  0  0  0
    0.3020   -0.0090    1.5890 C   0  0  1  0  0  0  0  0  0  0  0  0
   -0.5160    1.0210    2.0710 O   0  0  0  0  0  0  0  0  0  0  0  0
   -0.5360   -1.2140    1.2310 C   0  0  2  0  0  0  0  0  0  0  0  0
    0.3140   -2.2220    0.7640 O   0  0  0  0  0  0  0  0  0  0  0  0
  1  2  1  0
  2  3  1  0
  2  4  1  0
  2  5  1  0
  6  5  1  1
  6  7  1  0
  6 19  1  0
  7  8  1  1
  7  9  1  0
  9 10  1  0
 10 11  1  1
 10 17  1  0
 11 12  1  0
 12 13  1  0
 13 14  1  0
 13 15  1  0
 13 16  1  0
 17 18  1  6
 17 19  1  0
 19 20  1  6
M  END
