
     RDKit          3D

 22 24  0  0  0  0  0  0  0  0999 V2000
    8.2140    1.0450    0.2710 O   0  0  0  0  0  0  0  0  0  0  0  0
    6.9360    0.8830    0.4650 O   0  0  0  0  0  0  0  0  0  0  0  0
    6.7190   -0.1660    1.2260 O   0  0  0  0  0  0  0  0  0  0  0  0
    5.5630   -0.0060    1.8510 O   0  0  0  0  0  0  0  0  0  0  0  0
    4.3700   -0.0900    1.1200 C   0  0  0  0  0  0  0  0  0  0  0  0
    3.1190    0.0480    1.6030 N   0  0  0  0  0  0  0  0  0  0  0  0
    2.2970   -0.1060    0.5650 C   0  0  0  0  0  0  0  0  0  0  0  0
    0.7920   -0.0450    0.5640 C   0  0  1  0  0  0  0  0  0  0  0  0
    0.4110    1.2850   -0.0050 C   0  0  0  0  0  0  0  0  0  0  0  0
    0.0610    1.1000   -1.4680 C   0  0  0  0  0  0  0  0  0  0  0  0
   -1.2960    0.8090   -1.5270 O   0  0  0  0  0  0  0  0  0  0  0  0
   -1.5550   -0.5560   -1.4860 C   0  0  2  0  0  0  0  0  0  0  0  0
   -2.9500   -0.7230   -1.5560 O   0  0  0  0  0  0  0  0  0  0  0  0
   -3.7810   -0.1700   -0.5800 C   0  0  0  0  0  0  0  0  0  0  0  0
   -4.7810   -0.8420   -0.0560 C   0  0  0  0  0  0  0  0  0  0  0  0
   -5.4400    0.0410    0.9340 C   0  0  0  0  0  0  0  0  0  0  0  0
   -4.9750    1.3040    0.6640 O   0  0  0  0  0  0  0  0  0  0  0  0
   -3.7450    1.1550    0.0340 C   0  0  0  0  0  0  0  0  0  0  0  0
   -1.0080   -1.2120   -0.2470 C   0  0  0  0  0  0  0  0  0  0  0  0
    0.3610   -1.1230   -0.1960 O   0  0  0  0  0  0  0  0  0  0  0  0
    3.0200   -0.3340   -0.5370 N   0  0  0  0  0  0  0  0  0  0  0  0
    4.2580   -0.3170   -0.1620 O   0  0  0  0  0  0  0  0  0  0  0  0
  1  2  1  0
  2  3  1  0
  3  4  1  0
  4  5  1  0
  5  6  2  0
  5 22  1  0
  6  7  1  0
  8  7  1  6
  7 21  2  0
  8  9  1  0
  8 20  1  0
  9 10  1  0
 10 11  1  0
 11 12  1  0
 12 13  1  1
 12 19  1  0
 13 14  1  0
 14 15  2  0
 14 18  1  0
 15 16  1  0
 16 17  1  0
 17 18  1  0
 19 20  1  0
 21 22  1  0
M  END
