
     RDKit          3D

 22 23  0  0  0  0  0  0  0  0999 V2000
    3.4980    2.2900    0.6810 C   0  0  0  0  0  0  0  0  0  0  0  0
    3.7230    1.1090   -0.0970 N   0  0  0  0  0  0  0  0  0  0  0  0
    4.9860    0.8710   -0.7220 C   0  0  0  0  0  0  0  0  0  0  0  0
    5.1770   -0.1680   -1.4040 O   0  0  0  0  0  0  0  0  0  0  0  0
    6.0420    1.7630   -0.6060 O   0  0  0  0  0  0  0  0  0  0  0  0
    2.6690    0.1670   -0.2430 C   0  0  0  0  0  0  0  0  0  0  0  0
    2.8370   -0.8860   -0.9240 O   0  0  0  0  0  0  0  0  0  0  0  0
    1.4390    0.3500    0.3380 O   0  0  0  0  0  0  0  0  0  0  0  0
    0.4260   -0.5840    0.1800 C   0  0  0  0  0  0  0  0  0  0  0  0
    0.2710   -1.5890    1.0180 C   0  0  0  0  0  0  0  0  0  0  0  0
   -0.8040   -2.6070    0.8780 C   0  0  2  0  0  0  0  0  0  0  0  0
   -1.0490   -3.2360   -0.4330 C   0  0  0  0  0  0  0  0  0  0  0  0
   -1.9580   -2.1740    0.0830 C   0  0  2  0  0  0  0  0  0  0  0  0
   -1.8230   -0.8450   -0.4770 N   0  0  0  0  0  0  0  0  0  0  0  0
   -2.9270    0.0430   -0.5450 C   0  0  0  0  0  0  0  0  0  0  0  0
   -2.7510    1.1860   -1.0420 O   0  0  0  0  0  0  0  0  0  0  0  0
   -4.1890   -0.2640   -0.1000 O   0  0  0  0  0  0  0  0  0  0  0  0
   -5.2480    0.5900   -0.1670 O   0  0  0  0  0  0  0  0  0  0  0  0
   -5.2000    1.8160    0.4760 C   0  0  0  0  0  0  0  0  0  0  0  0
   -4.1350    2.0790    1.1110 O   0  0  0  0  0  0  0  0  0  0  0  0
   -6.2580    2.7250    0.4370 O   0  0  0  0  0  0  0  0  0  0  0  0
   -0.5190   -0.4590   -0.9620 C   0  0  0  0  0  0  0  0  0  0  0  0
  1  2  1  0
  2  3  1  0
  2  6  1  0
  3  4  2  0
  3  5  1  0
  6  7  2  0
  6  8  1  0
  8  9  1  0
  9 10  2  0
  9 22  1  0
 10 11  1  0
 11 12  1  6
 11 13  1  0
 13 12  1  6
 13 14  1  0
 14 15  1  0
 14 22  1  0
 15 16  2  0
 15 17  1  0
 17 18  1  0
 18 19  1  0
 19 20  2  0
 19 21  1  0
M  END
