
     RDKit          3D

 22 22  0  0  0  0  0  0  0  0999 V2000
    4.7940    0.6430    0.7670 C   0  0  0  0  0  0  0  0  0  0  0  0
    4.3380   -0.5070    0.3140 C   0  0  0  0  0  0  0  0  0  0  0  0
    5.2570   -1.6260    0.1090 C   0  0  0  0  0  0  0  0  0  0  0  0
    2.9160   -0.6630    0.0160 C   0  0  0  0  0  0  0  0  0  0  0  0
    2.4440   -1.7390   -0.4160 O   0  0  0  0  0  0  0  0  0  0  0  0
    2.0080    0.3820    0.1990 O   0  0  0  0  0  0  0  0  0  0  0  0
    0.6190    0.2250   -0.0940 C   0  0  2  0  0  0  0  0  0  0  0  0
    0.3210    1.2250   -1.2090 C   0  0  0  0  0  0  0  0  0  0  0  0
   -1.0000    1.1330   -1.5660 O   0  0  0  0  0  0  0  0  0  0  0  0
   -1.6270    2.3110   -1.5870 O   0  0  0  0  0  0  0  0  0  0  0  0
   -2.9920    2.4550   -1.6490 C   0  0  0  0  0  0  0  0  0  0  0  0
   -3.4390    3.4690   -2.2700 O   0  0  0  0  0  0  0  0  0  0  0  0
   -3.9190    1.5480   -1.0670 N   0  0  0  0  0  0  0  0  0  0  0  0
   -3.7490    0.9290    0.2330 C   0  0  0  0  0  0  0  0  0  0  0  0
   -3.8450   -0.5640    0.1030 C   0  0  0  0  0  0  0  0  0  0  0  0
   -2.7030   -1.1910   -0.3550 O   0  0  0  0  0  0  0  0  0  0  0  0
   -1.7800   -1.9800    0.2160 C   0  0  0  0  0  0  0  0  0  0  0  0
   -1.4270   -3.0630   -0.3270 O   0  0  0  0  0  0  0  0  0  0  0  0
   -1.1310   -1.6900    1.4460 N   0  0  0  0  0  0  0  0  0  0  0  0
   -0.7450   -0.3910    1.8740 C   0  0  0  0  0  0  0  0  0  0  0  0
   -0.8870   -0.0020    3.0750 O   0  0  0  0  0  0  0  0  0  0  0  0
   -0.1780    0.5600    1.0120 O   0  0  0  0  0  0  0  0  0  0  0  0
  1  2  2  0
  2  3  1  0
  2  4  1  0
  4  5  2  0
  4  6  1  0
  7  6  1  1
  7  8  1  0
  7 22  1  0
  8  9  1  0
  9 10  1  0
 10 11  1  0
 11 12  2  0
 11 13  1  0
 13 14  1  0
 14 15  1  0
 15 16  1  0
 16 17  1  0
 17 18  2  0
 17 19  1  0
 19 20  1  0
 20 21  2  0
 20 22  1  0
M  END
