
     RDKit          3D

 21 21  0  0  0  0  0  0  0  0999 V2000
    3.8300   -2.0980    0.1730 C   0  0  0  0  0  0  0  0  0  0  0  0
    2.6360   -1.9190   -0.6280 N   0  0  0  0  0  0  0  0  0  0  0  0
    1.6160   -2.8130   -0.1490 C   0  0  0  0  0  0  0  0  0  0  0  0
    0.2440   -2.4880   -0.6590 C   0  0  0  0  0  0  0  0  0  0  0  0
   -0.3300   -1.3120   -0.0750 N   0  0  0  0  0  0  0  0  0  0  0  0
   -1.6440   -1.0090   -0.4880 C   0  0  0  0  0  0  0  0  0  0  0  0
   -2.1970   -1.7830   -1.3240 O   0  0  0  0  0  0  0  0  0  0  0  0
   -2.3490    0.0940   -0.0200 O   0  0  0  0  0  0  0  0  0  0  0  0
   -3.6570    0.2750   -0.5200 C   0  0  0  0  0  0  0  0  0  0  0  0
   -4.3050    1.4810    0.0500 C   0  0  0  0  0  0  0  0  0  0  0  0
   -3.7870    2.2270    0.8480 O   0  0  0  0  0  0  0  0  0  0  0  0
   -5.6920    1.7880   -0.3970 C   0  0  0  0  0  0  0  0  0  0  0  0
   -6.1790    2.9430    0.2120 O   0  0  0  0  0  0  0  0  0  0  0  0
    0.2160   -0.3790    0.8740 C   0  0  0  0  0  0  0  0  0  0  0  0
    1.6690   -0.0910    0.6930 C   0  0  2  0  0  0  0  0  0  0  0  0
    1.8260    1.3140    0.7390 O   0  0  0  0  0  0  0  0  0  0  0  0
    2.6190    1.6920    1.6900 O   0  0  0  0  0  0  0  0  0  0  0  0
    3.5570    3.0450    1.1400 P   0  0  0  0  0  0  0  0  0  0  0  0
    2.6160    4.4740    0.9650 O   0  0  0  0  0  0  0  0  0  0  0  0
    4.4890    2.6740   -0.2590 O   0  0  0  0  0  0  0  0  0  0  0  0
    2.2260   -0.5350   -0.6320 C   0  0  0  0  0  0  0  0  0  0  0  0
  1  2  1  0
  2  3  1  0
  2 21  1  0
  3  4  1  0
  4  5  1  0
  5  6  1  0
  5 14  1  0
  6  7  2  0
  6  8  1  0
  8  9  1  0
  9 10  1  0
 10 11  2  0
 10 12  1  0
 12 13  1  0
 14 15  1  0
 15 16  1  6
 15 21  1  0
 16 17  1  0
 17 18  1  0
 18 19  1  0
 18 20  1  0
M  END
