
     RDKit          3D

 22 23  0  0  0  0  0  0  0  0999 V2000
    2.7870   -2.1910   -0.6720 O   0  0  0  0  0  0  0  0  0  0  0  0
    2.3200   -0.9960   -0.4770 C   0  0  0  0  0  0  0  0  0  0  0  0
    2.8540    0.0350   -1.3370 C   0  0  0  0  0  0  0  0  0  0  0  0
    2.4230    1.3020   -1.1020 O   0  0  0  0  0  0  0  0  0  0  0  0
    2.9270    2.2010   -1.8980 O   0  0  0  0  0  0  0  0  0  0  0  0
    4.1610    2.4450   -1.4900 O   0  0  0  0  0  0  0  0  0  0  0  0
    1.3290   -0.8810    0.5820 N   0  0  0  0  0  0  0  0  0  0  0  0
    0.8520    0.4600    0.7400 C   0  0  0  0  0  0  0  0  0  0  0  0
   -0.2720    0.7970    1.6150 C   0  0  0  0  0  0  0  0  0  0  0  0
   -1.1580    1.7610    1.2820 O   0  0  0  0  0  0  0  0  0  0  0  0
   -1.5200    2.1870    0.0780 C   0  0  0  0  0  0  0  0  0  0  0  0
   -2.7640    1.4150   -0.4770 C   0  0  1  0  0  0  0  0  0  0  0  0
   -2.9760    1.5650   -1.7960 O   0  0  0  0  0  0  0  0  0  0  0  0
   -2.5810   -0.0050    0.0200 C   0  0  0  0  0  0  0  0  0  0  0  0
   -1.6830   -0.9500   -0.3550 C   0  0  0  0  0  0  0  0  0  0  0  0
   -1.9480   -2.0170    0.4720 C   0  0  0  0  0  0  0  0  0  0  0  0
   -2.9950   -1.6740    1.2780 N   0  0  0  0  0  0  0  0  0  0  0  0
   -3.3640   -0.4880    1.0070 O   0  0  0  0  0  0  0  0  0  0  0  0
   -1.1370   -3.2400    0.7510 C   0  0  0  0  0  0  0  0  0  0  0  0
   -0.0450   -2.8010    1.6030 O   0  0  0  0  0  0  0  0  0  0  0  0
    1.0460   -2.0680    1.2940 C   0  0  0  0  0  0  0  0  0  0  0  0
    2.1480   -2.6390    1.8120 O   0  0  0  0  0  0  0  0  0  0  0  0
  1  2  2  0
  2  3  1  0
  2  7  1  0
  3  4  1  0
  4  5  1  0
  5  6  1  0
  7  8  1  0
  7 21  1  0
  8  9  1  0
  9 10  1  0
 10 11  1  0
 11 12  1  0
 12 13  1  6
 12 14  1  0
 14 15  2  0
 14 18  1  0
 15 16  1  0
 16 17  2  0
 16 19  1  0
 17 18  1  0
 19 20  1  0
 20 21  1  0
 21 22  2  0
M  END
