
     RDKit          3D

 15 16  0  0  0  0  0  0  0  0999 V2000
   -3.3200   -1.3530   -0.7310 C   0  0  0  0  0  0  0  0  0  0  0  0
   -1.9410   -0.7360   -0.6740 C   0  0  0  0  0  0  0  0  0  0  0  0
   -1.8260    0.0950    0.5890 C   0  0  1  0  0  0  0  0  0  0  0  0
   -0.7930    1.1810    0.4500 C   0  0  0  0  0  0  0  0  0  0  0  0
    0.5870    0.5790    0.1600 C   0  0  0  0  0  0  0  0  0  0  0  0
    1.4570    1.6640    0.0520 O   0  0  0  0  0  0  0  0  0  0  0  0
    3.0780    1.1480   -0.2780 P   0  0  0  0  0  0  0  0  0  0  0  0
    3.9090    0.6700    1.3220 C   0  0  0  0  0  0  0  0  0  0  0  0
    5.0240   -0.1100    1.1140 O   0  0  0  0  0  0  0  0  0  0  0  0
    5.0850   -0.6830   -0.1400 C   0  0  0  0  0  0  0  0  0  0  0  0
    3.7570   -1.2730   -0.5720 C   0  0  0  0  0  0  0  0  0  0  0  0
    3.0790   -0.2800   -1.2850 O   0  0  0  0  0  0  0  0  0  0  0  0
   -3.1250    0.6790    1.0260 C   0  0  0  0  0  0  0  0  0  0  0  0
   -4.1470    0.8060   -0.0500 C   0  0  0  0  0  0  0  0  0  0  0  0
   -4.2760   -0.3170   -0.9080 N   0  0  0  0  0  0  0  0  0  0  0  0
  1  2  1  0
  1 15  1  0
  2  3  1  0
  3  4  1  6
  3 13  1  0
  4  5  1  0
  5  6  1  0
  6  7  1  0
  7  8  1  0
  7 12  1  0
  8  9  1  0
  9 10  1  0
 10 11  1  0
 11 12  1  0
 13 14  1  0
 14 15  1  0
M  END
