
     RDKit          3D

  8  8  0  0  0  0  0  0  0  0999 V2000
   -1.6620    0.9920    0.6690 C   0  0  0  0  0  0  0  0  0  0  0  0
   -0.7140   -0.0230    0.0690 C   0  0  1  0  0  0  0  0  0  0  0  0
   -1.5450   -1.2570   -0.2480 C   0  0  0  0  0  0  0  0  0  0  0  0
   -0.0980    0.5860   -1.1500 C   0  0  0  0  0  0  0  0  0  0  0  0
    1.3930    0.6560   -0.8330 C   0  0  0  0  0  0  0  0  0  0  0  0
    1.6400   -0.4540    0.1480 C   0  0  1  0  0  0  0  0  0  0  0  0
    2.7360   -0.1770    0.9730 O   0  0  0  0  0  0  0  0  0  0  0  0
    0.3840   -0.4270    0.9990 C   0  0  0  0  0  0  0  0  0  0  0  0
  2  1  1  1
  2  3  1  0
  2  4  1  0
  2  8  1  0
  4  5  1  0
  5  6  1  0
  6  7  1  1
  6  8  1  0
M  END
