
     RDKit          3D

  9  9  0  0  0  0  0  0  0  0999 V2000
    3.0000    0.7630    0.7540 O   0  0  0  0  0  0  0  0  0  0  0  0
    2.6830   -0.3980    0.0910 C   0  0  0  0  0  0  0  0  0  0  0  0
    1.3030   -0.3110   -0.5650 C   0  0  0  0  0  0  0  0  0  0  0  0
    0.2440   -0.0640    0.4880 C   0  0  0  0  0  0  0  0  0  0  0  0
   -1.0920    0.0140   -0.1940 C   0  0  2  0  0  0  0  0  0  0  0  0
   -1.2410    1.0990   -1.2220 C   0  0  0  0  0  0  0  0  0  0  0  0
   -0.9700    2.6550   -0.3880 Cl  0  0  0  0  0  0  0  0  0  0  0  0
   -2.3310   -0.1700    0.6920 C   0  0  0  0  0  0  0  0  0  0  0  0
   -1.8990   -1.2240   -0.2440 C   0  0  0  0  0  0  0  0  0  0  0  0
  1  2  1  0
  2  3  1  0
  3  4  1  0
  5  4  1  1
  5  6  1  0
  5  8  1  0
  5  9  1  0
  6  7  1  0
  8  9  1  0
M  END
