
     RDKit          3D

  9  8  0  0  0  0  0  0  0  0999 V2000
    1.4950    0.0690   -1.2860 C   0  0  0  0  0  0  0  0  0  0  0  0
    0.7810    0.1410    0.0250 C   0  0  1  0  0  0  0  0  0  0  0  0
    1.4390   -0.8440    1.0060 C   0  0  0  0  0  0  0  0  0  0  0  0
    1.0630    1.4050    0.5510 O   0  0  0  0  0  0  0  0  0  0  0  0
   -0.6820   -0.0090   -0.0190 C   0  0  1  0  0  0  0  0  0  0  0  0
   -1.2290   -1.2730   -0.5680 C   0  0  0  0  0  0  0  0  0  0  0  0
   -1.2140    0.1400    1.4050 C   0  0  0  0  0  0  0  0  0  0  0  0
   -1.2800    1.1320   -0.8150 C   0  0  0  0  0  0  0  0  0  0  0  0
   -0.8320    2.6370    0.0140 Cl  0  0  0  0  0  0  0  0  0  0  0  0
  2  1  1  6
  2  3  1  0
  2  4  1  0
  2  5  1  0
  5  6  1  6
  5  7  1  0
  5  8  1  0
  8  9  1  0
M  END
