
     RDKit          3D

  8  8  0  0  0  0  0  0  0  0999 V2000
    0.7520    1.3220   -0.6060 C   0  0  0  0  0  0  0  0  0  0  0  0
    0.5920   -0.0390    0.0240 C   0  0  2  0  0  0  0  0  0  0  0  0
    1.3220    0.0030    1.3520 C   0  0  0  0  0  0  0  0  0  0  0  0
    1.2480   -1.0420   -0.9140 C   0  0  0  0  0  0  0  0  0  0  0  0
   -0.8490   -0.3770    0.2960 C   0  0  1  0  0  0  0  0  0  0  0  0
   -1.0170   -1.6390    0.8820 O   0  0  0  0  0  0  0  0  0  0  0  0
   -1.7810    0.6950    0.6520 C   0  0  0  0  0  0  0  0  0  0  0  0
   -1.9150   -0.0120   -0.6800 C   0  0  0  0  0  0  0  0  0  0  0  0
  2  1  1  6
  2  3  1  0
  2  4  1  0
  2  5  1  0
  5  6  1  1
  5  7  1  0
  5  8  1  0
  7  8  1  0
M  END
