
     RDKit          3D

  9  8  0  0  0  0  0  0  0  0999 V2000
    2.6250   -1.7500   -0.5460 C   0  0  0  0  0  0  0  0  0  0  0  0
    1.6510   -0.8720    0.2320 C   0  0  0  0  0  0  0  0  0  0  0  0
    0.6710   -0.3460   -0.7910 C   0  0  0  0  0  0  0  0  0  0  0  0
   -0.3790    0.5510   -0.1590 C   0  0  0  0  0  0  0  0  0  0  0  0
   -1.6080    0.2020   -0.2640 C   0  0  0  0  0  0  0  0  0  0  0  0
   -2.8680    0.7800    0.1940 C   0  0  0  0  0  0  0  0  0  0  0  0
   -3.4680   -0.1930    1.0450 O   0  0  0  0  0  0  0  0  0  0  0  0
    0.1530    1.7310    0.5010 C   0  0  0  0  0  0  0  0  0  0  0  0
   -0.9360    2.8510    1.2510 Cl  0  0  0  0  0  0  0  0  0  0  0  0
  1  2  1  0
  2  3  1  0
  3  4  1  0
  4  5  2  3
  4  8  1  0
  5  6  1  0
  6  7  1  0
  8  9  1  0
M  END
