
     RDKit          3D

 17 18  0  0  0  0  0  0  0  0999 V2000
    0.0610   -2.3640   -0.0690 C   0  0  0  0  0  0  0  0  0  0  0  0
    0.0200   -0.9380    0.4350 C   0  0  2  0  0  0  0  0  0  0  0  0
    0.0640   -1.0310    1.9720 C   0  0  0  0  0  0  0  0  0  0  0  0
   -1.2420   -0.2960   -0.0010 C   0  0  0  0  0  0  0  0  0  0  0  0
   -1.9030    0.6000    0.8070 C   0  0  0  0  0  0  0  0  0  0  0  0
   -3.0760    1.1780    0.3590 C   0  0  0  0  0  0  0  0  0  0  0  0
   -3.6100    0.8900   -0.8690 C   0  0  0  0  0  0  0  0  0  0  0  0
   -4.7950    1.4720   -1.3260 O   0  0  0  0  0  0  0  0  0  0  0  0
   -2.9570    0.0010   -1.6760 C   0  0  0  0  0  0  0  0  0  0  0  0
   -1.7740   -0.5900   -1.2370 C   0  0  0  0  0  0  0  0  0  0  0  0
    1.2280   -0.1910    0.0590 C   0  0  0  0  0  0  0  0  0  0  0  0
    2.1780   -0.7820   -0.7320 C   0  0  0  0  0  0  0  0  0  0  0  0
    3.3290   -0.0650   -1.0890 C   0  0  0  0  0  0  0  0  0  0  0  0
    3.5140    1.2420   -0.6470 C   0  0  0  0  0  0  0  0  0  0  0  0
    4.6720    1.9490   -1.0120 O   0  0  0  0  0  0  0  0  0  0  0  0
    2.5550    1.8170    0.1430 C   0  0  0  0  0  0  0  0  0  0  0  0
    1.4280    1.0990    0.4870 C   0  0  0  0  0  0  0  0  0  0  0  0
  2  1  1  6
  2  3  1  0
  2  4  1  0
  2 11  1  0
  4  5  2  0
  4 10  1  0
  5  6  1  0
  6  7  2  0
  7  8  1  0
  7  9  1  0
  9 10  2  0
 11 12  2  0
 11 17  1  0
 12 13  1  0
 13 14  2  0
 14 15  1  0
 14 16  1  0
 16 17  2  0
M  END
