
     RDKit          3D

  9  9  0  0  0  0  0  0  0  0999 V2000
    3.1730    0.1330   -0.6350 O   0  0  0  0  0  0  0  0  0  0  0  0
    2.3580   -0.2910    0.4010 C   0  0  0  0  0  0  0  0  0  0  0  0
    0.9270    0.1950    0.1960 C   0  0  1  0  0  0  0  0  0  0  0  0
    0.3560   -0.3380   -1.0970 C   0  0  0  0  0  0  0  0  0  0  0  0
   -0.9920    0.3160   -1.3090 C   0  0  0  0  0  0  0  0  0  0  0  0
   -1.7520    0.5130   -0.0330 C   0  0  1  0  0  0  0  0  0  0  0  0
   -3.1210    0.5100   -0.2030 O   0  0  0  0  0  0  0  0  0  0  0  0
   -1.2910   -0.5620    0.9420 C   0  0  0  0  0  0  0  0  0  0  0  0
    0.0960   -0.1820    1.3960 C   0  0  0  0  0  0  0  0  0  0  0  0
  1  2  1  0
  3  2  1  1
  3  4  1  0
  3  9  1  0
  4  5  1  0
  5  6  1  0
  6  7  1  6
  6  8  1  0
  8  9  1  0
M  END
