
     RDKit          3D

  9  8  0  0  0  0  0  0  0  0999 V2000
    3.3220    0.7900   -1.1570 C   0  0  0  0  0  0  0  0  0  0  0  0
    2.6170    0.0710   -0.0720 C   0  0  0  0  0  0  0  0  0  0  0  0
    1.3850   -0.3600   -0.2780 C   0  0  0  0  0  0  0  0  0  0  0  0
    0.5990   -1.0890    0.7480 C   0  0  0  0  0  0  0  0  0  0  0  0
   -0.6710   -0.4250    1.1480 C   0  0  0  0  0  0  0  0  0  0  0  0
   -1.6420   -0.2320    0.0480 C   0  0  0  0  0  0  0  0  0  0  0  0
   -1.3410   -0.6460   -1.0950 O   0  0  0  0  0  0  0  0  0  0  0  0
   -2.8580    0.3800    0.2230 O   0  0  0  0  0  0  0  0  0  0  0  0
   -3.8080    0.5800   -0.8050 C   0  0  0  0  0  0  0  0  0  0  0  0
  1  2  1  0
  2  3  2  3
  3  4  1  0
  4  5  1  0
  5  6  1  0
  6  7  2  0
  6  8  1  0
  8  9  1  0
M  END
