
     RDKit          3D

 12 12  0  0  0  0  0  0  0  0999 V2000
   -0.3180    2.5800   -0.4020 O   0  0  0  0  0  0  0  0  0  0  0  0
    0.2260    1.6370   -1.2580 C   0  0  0  0  0  0  0  0  0  0  0  0
    0.5540    0.3530   -0.5460 C   0  0  1  0  0  0  0  0  0  0  0  0
    1.4740    0.6220    0.4580 O   0  0  0  0  0  0  0  0  0  0  0  0
    1.9390   -0.5170    1.0350 C   0  0  2  0  0  0  0  0  0  0  0  0
    3.0450   -0.9580    0.2710 O   0  0  0  0  0  0  0  0  0  0  0  0
    1.1060   -1.5420    1.2200 O   0  0  0  0  0  0  0  0  0  0  0  0
   -0.1870   -1.4670    0.8850 C   0  0  0  0  0  0  0  0  0  0  0  0
   -0.6380   -0.2630    0.1340 C   0  0  1  0  0  0  0  0  0  0  0  0
   -1.1590    0.6980    1.0310 O   0  0  0  0  0  0  0  0  0  0  0  0
   -1.7290   -0.6500   -0.8150 C   0  0  0  0  0  0  0  0  0  0  0  0
   -2.7760   -1.1830   -0.0550 O   0  0  0  0  0  0  0  0  0  0  0  0
  1  2  1  0
  3  2  1  1
  3  4  1  0
  3  9  1  0
  4  5  1  0
  5  6  1  6
  5  7  1  0
  7  8  1  0
  8  9  1  0
  9 10  1  1
  9 11  1  0
 11 12  1  0
M  END
