
     RDKit          3D

 29 31  0  0  0  0  0  0  0  0999 V2000
    5.0330    3.0960    1.1580 C   0  0  0  0  0  0  0  0  0  0  0  0
    5.9840    2.0500    0.6830 C   0  0  0  0  0  0  0  0  0  0  0  0
    5.2900    0.8350    0.1890 C   0  0  0  0  0  0  0  0  0  0  0  0
    3.9560    0.7030    0.1750 N   0  0  0  0  0  0  0  0  0  0  0  0
    3.3030   -0.3880   -0.2670 C   0  0  0  0  0  0  0  0  0  0  0  0
    1.8460   -0.4080   -0.2290 C   0  0  0  0  0  0  0  0  0  0  0  0
    1.1860    0.7200    0.2700 C   0  0  0  0  0  0  0  0  0  0  0  0
   -0.2000    0.7770    0.3390 C   0  0  0  0  0  0  0  0  0  0  0  0
   -0.9620   -0.2850   -0.0880 C   0  0  0  0  0  0  0  0  0  0  0  0
   -2.3200   -0.2380   -0.0250 O   0  0  0  0  0  0  0  0  0  0  0  0
   -3.0410    0.8980    0.4800 C   0  0  0  0  0  0  0  0  0  0  0  0
   -4.5010    0.4950    0.3560 C   0  0  1  0  0  0  0  0  0  0  0  0
   -5.3330    1.5310    1.0290 C   0  0  0  0  0  0  0  0  0  0  0  0
   -5.2460    2.9180    0.5110 C   0  0  0  0  0  0  0  0  0  0  0  0
   -3.9790    3.4880    0.5770 O   0  0  0  0  0  0  0  0  0  0  0  0
   -4.7860    0.3020   -1.0850 C   0  0  0  0  0  0  0  0  0  0  0  0
   -5.9240   -0.6000   -1.4090 C   0  0  0  0  0  0  0  0  0  0  0  0
   -6.1740   -1.6260   -0.3220 C   0  0  0  0  0  0  0  0  0  0  0  0
   -4.8230   -1.8000    0.3770 C   0  0  0  0  0  0  0  0  0  0  0  0
   -4.6170   -0.6600    1.1260 O   0  0  0  0  0  0  0  0  0  0  0  0
   -0.3090   -1.3880   -0.5770 C   0  0  0  0  0  0  0  0  0  0  0  0
   -1.0970   -2.5370   -1.0400 C   0  0  0  0  0  0  0  0  0  0  0  0
   -0.2830   -3.5690   -1.5040 O   0  0  0  0  0  0  0  0  0  0  0  0
    1.0760   -1.4610   -0.6520 C   0  0  0  0  0  0  0  0  0  0  0  0
    4.0250   -1.4560   -0.7440 C   0  0  0  0  0  0  0  0  0  0  0  0
    5.4180   -1.3840   -0.7580 C   0  0  0  0  0  0  0  0  0  0  0  0
    6.1600   -2.5450   -1.2750 C   0  0  0  0  0  0  0  0  0  0  0  0
    6.0070   -0.2480   -0.2940 C   0  0  0  0  0  0  0  0  0  0  0  0
    7.4800   -0.1480   -0.2980 C   0  0  0  0  0  0  0  0  0  0  0  0
  1  2  1  0
  2  3  1  0
  3  4  2  0
  3 28  1  0
  4  5  1  0
  5  6  1  0
  5 25  2  0
  6  7  2  0
  6 24  1  0
  7  8  1  0
  8  9  2  0
  9 10  1  0
  9 21  1  0
 10 11  1  0
 12 11  1  6
 12 13  1  0
 12 16  1  0
 12 20  1  0
 13 14  1  0
 14 15  1  0
 16 17  1  0
 17 18  1  0
 18 19  1  0
 19 20  1  0
 21 22  1  0
 21 24  2  0
 22 23  1  0
 25 26  1  0
 26 27  1  0
 26 28  2  0
 28 29  1  0
M  END
