
     RDKit          3D

 29 31  0  0  0  0  0  0  0  0999 V2000
   -5.1010   -0.9980    0.3040 C   0  0  0  0  0  0  0  0  0  0  0  0
   -4.2690   -0.0310   -0.5660 C   0  0  0  0  0  0  0  0  0  0  0  0
   -2.8560   -0.2260   -0.1310 C   0  0  0  0  0  0  0  0  0  0  0  0
   -2.1660    0.8120    0.3240 C   0  0  0  0  0  0  0  0  0  0  0  0
   -2.7970    2.1460    0.3980 C   0  0  0  0  0  0  0  0  0  0  0  0
   -3.1940    2.7390   -0.8070 C   0  0  0  0  0  0  0  0  0  0  0  0
   -3.8180    3.9630   -0.8770 C   0  0  0  0  0  0  0  0  0  0  0  0
   -4.0790    4.6650    0.2840 C   0  0  0  0  0  0  0  0  0  0  0  0
   -4.7070    5.8970    0.2100 O   0  0  0  0  0  0  0  0  0  0  0  0
   -3.6940    4.0930    1.4730 C   0  0  0  0  0  0  0  0  0  0  0  0
   -3.0570    2.8420    1.5400 C   0  0  0  0  0  0  0  0  0  0  0  0
   -0.7670    0.5660    0.6150 C   0  0  0  0  0  0  0  0  0  0  0  0
   -0.1860    0.9780    1.7690 C   0  0  0  0  0  0  0  0  0  0  0  0
    1.1660    0.7830    2.0440 C   0  0  0  0  0  0  0  0  0  0  0  0
    1.9920    0.1420    1.1190 C   0  0  0  0  0  0  0  0  0  0  0  0
    3.2890    0.0010    1.4820 O   0  0  0  0  0  0  0  0  0  0  0  0
    4.3940   -0.5350    0.8800 C   0  0  0  0  0  0  0  0  0  0  0  0
    4.8620    0.0850   -0.3940 C   0  0  0  0  0  0  0  0  0  0  0  0
    6.0510   -0.6240   -0.8840 N   0  0  1  0  0  0  0  0  0  0  0  0
    7.2610   -0.1970   -0.2160 C   0  0  0  0  0  0  0  0  0  0  0  0
    5.8740   -2.0660   -0.8030 C   0  0  0  0  0  0  0  0  0  0  0  0
    1.3960   -0.2690   -0.0380 C   0  0  0  0  0  0  0  0  0  0  0  0
    0.0580   -0.0730   -0.3050 C   0  0  0  0  0  0  0  0  0  0  0  0
   -2.2910   -1.5590   -0.1800 C   0  0  0  0  0  0  0  0  0  0  0  0
   -1.5430   -2.1600    0.7920 C   0  0  0  0  0  0  0  0  0  0  0  0
   -1.0820   -3.4400    0.5730 C   0  0  0  0  0  0  0  0  0  0  0  0
   -1.3460   -4.1290   -0.5760 C   0  0  0  0  0  0  0  0  0  0  0  0
   -2.0960   -3.5520   -1.5730 C   0  0  0  0  0  0  0  0  0  0  0  0
   -2.5580   -2.2730   -1.3580 C   0  0  0  0  0  0  0  0  0  0  0  0
  1  2  1  0
  2  3  1  0
  3  4  2  3
  3 24  1  0
  4  5  1  0
  4 12  1  0
  5  6  2  0
  5 11  1  0
  6  7  1  0
  7  8  2  0
  8  9  1  0
  8 10  1  0
 10 11  2  0
 12 13  2  0
 12 23  1  0
 13 14  1  0
 14 15  2  0
 15 16  1  0
 15 22  1  0
 16 17  1  0
 17 18  1  0
 18 19  1  0
 19 20  1  1
 19 21  1  0
 22 23  2  0
 24 25  2  0
 24 29  1  0
 25 26  1  0
 26 27  2  0
 27 28  1  0
 28 29  2  0
M  CHG  1  19   1
M  END
