
     RDKit          3D

 29 31  0  0  0  0  0  0  0  0999 V2000
   -5.4140   -0.9210   -2.2590 C   0  0  0  0  0  0  0  0  0  0  0  0
   -4.2820   -1.3810   -1.7800 C   0  0  0  0  0  0  0  0  0  0  0  0
   -4.0580   -1.4130   -0.3570 C   0  0  0  0  0  0  0  0  0  0  0  0
   -5.0450   -1.7580    0.5310 C   0  0  0  0  0  0  0  0  0  0  0  0
   -6.3870   -2.2180    0.1010 C   0  0  0  0  0  0  0  0  0  0  0  0
   -4.8310   -1.7310    1.8960 C   0  0  0  0  0  0  0  0  0  0  0  0
   -3.5930   -1.3480    2.3470 C   0  0  0  0  0  0  0  0  0  0  0  0
   -3.2650   -1.2870    3.7760 C   0  0  0  0  0  0  0  0  0  0  0  0
   -2.5870   -0.9980    1.4390 C   0  0  0  0  0  0  0  0  0  0  0  0
   -2.7850   -1.0200    0.0780 C   0  0  0  0  0  0  0  0  0  0  0  0
   -1.7720   -0.6780   -0.9390 C   0  0  0  0  0  0  0  0  0  0  0  0
   -0.5560   -0.2770   -0.5050 O   0  0  0  0  0  0  0  0  0  0  0  0
   -0.4430    0.8430    0.2440 C   0  0  1  0  0  0  0  0  0  0  0  0
    0.6310    0.9140    1.3070 C   0  0  0  0  0  0  0  0  0  0  0  0
    1.6080    1.2500    0.2620 C   0  0  1  0  0  0  0  0  0  0  0  0
    2.3730    0.2290   -0.3600 N   0  0  0  0  0  0  0  0  0  0  0  0
    3.7650    0.2510   -0.5530 C   0  0  0  0  0  0  0  0  0  0  0  0
    4.3910    1.2540   -0.1450 O   0  0  0  0  0  0  0  0  0  0  0  0
    4.5070   -0.8410   -1.2070 C   0  0  0  0  0  0  0  0  0  0  0  0
    5.9970   -0.6150   -1.2650 C   0  0  0  0  0  0  0  0  0  0  0  0
    6.6460   -0.4880    0.0400 C   0  0  0  0  0  0  0  0  0  0  0  0
    6.7660    0.6000    0.6320 O   0  0  0  0  0  0  0  0  0  0  0  0
    7.1610   -1.6320    0.6680 O   0  0  0  0  0  0  0  0  0  0  0  0
    7.8000   -1.5240    1.9480 C   0  0  0  0  0  0  0  0  0  0  0  0
    0.4660    1.8310   -0.5420 C   0  0  1  0  0  0  0  0  0  0  0  0
    0.5090    1.5850   -2.0080 C   0  0  0  0  0  0  0  0  0  0  0  0
   -0.3260    2.6930   -2.5890 C   0  0  0  0  0  0  0  0  0  0  0  0
   -0.2640    3.8390   -1.6050 C   0  0  0  0  0  0  0  0  0  0  0  0
    0.1490    3.2660   -0.2910 C   0  0  0  0  0  0  0  0  0  0  0  0
  1  2  2  0
  2  3  1  0
  3  4  2  0
  3 10  1  0
  4  5  1  0
  4  6  1  0
  6  7  2  0
  7  8  1  0
  7  9  1  0
  9 10  2  0
 10 11  1  0
 11 12  1  0
 13 12  1  6
 13 14  1  0
 13 25  1  0
 14 15  1  0
 15 16  1  6
 15 25  1  0
 16 17  1  0
 17 18  2  0
 17 19  1  0
 19 20  1  0
 20 21  1  0
 21 22  2  0
 21 23  1  0
 23 24  1  0
 25 26  1  6
 25 29  1  0
 26 27  1  0
 27 28  1  0
 28 29  1  0
M  END
