
     RDKit          3D

 29 31  0  0  0  0  0  0  0  0999 V2000
   -5.4520    2.7110   -0.5350 C   0  0  0  0  0  0  0  0  0  0  0  0
   -4.1500    2.5460   -0.5750 C   0  0  0  0  0  0  0  0  0  0  0  0
   -3.2450    3.6760   -0.9340 C   0  0  0  0  0  0  0  0  0  0  0  0
   -2.1090    3.5830   -0.0470 N   0  0  0  0  0  0  0  0  0  0  0  0
   -1.5110    2.3320    0.2680 C   0  0  0  0  0  0  0  0  0  0  0  0
   -2.1300    1.1730    0.1750 C   0  0  0  0  0  0  0  0  0  0  0  0
   -1.5540   -0.1500    0.4890 C   0  0  2  0  0  0  0  0  0  0  0  0
   -0.1120    0.0300    0.8540 C   0  0  0  0  0  0  0  0  0  0  0  0
    0.5070   -0.3750    2.0220 C   0  0  0  0  0  0  0  0  0  0  0  0
    1.8560   -0.0100    1.9430 C   0  0  0  0  0  0  0  0  0  0  0  0
    2.8960   -0.2420    2.9780 C   0  0  0  0  0  0  0  0  0  0  0  0
    2.3090   -0.9020    4.0760 O   0  0  0  0  0  0  0  0  0  0  0  0
    1.9860    0.5990    0.7240 C   0  0  0  0  0  0  0  0  0  0  0  0
    3.2220    1.1740    0.1380 C   0  0  0  0  0  0  0  0  0  0  0  0
    4.1180    0.0910   -0.4030 C   0  0  0  0  0  0  0  0  0  0  0  0
    5.3490    0.6400   -0.9950 C   0  0  0  0  0  0  0  0  0  0  0  0
    6.3320   -0.3110   -1.5780 C   0  0  0  0  0  0  0  0  0  0  0  0
    5.5740    1.8270   -1.0170 O   0  0  0  0  0  0  0  0  0  0  0  0
    0.8170    0.5970    0.1330 O   0  0  0  0  0  0  0  0  0  0  0  0
   -1.5550   -1.0000   -0.7230 C   0  0  0  0  0  0  0  0  0  0  0  0
   -1.0660   -0.4310   -1.8860 C   0  0  0  0  0  0  0  0  0  0  0  0
   -1.0490   -1.1890   -3.0460 C   0  0  0  0  0  0  0  0  0  0  0  0
   -1.5180   -2.4900   -3.0160 C   0  0  0  0  0  0  0  0  0  0  0  0
   -1.9970   -3.0230   -1.8440 C   0  0  0  0  0  0  0  0  0  0  0  0
   -2.0250   -2.2790   -0.6580 C   0  0  0  0  0  0  0  0  0  0  0  0
   -2.5250   -2.8000    0.6190 C   0  0  0  0  0  0  0  0  0  0  0  0
   -1.4680   -3.1660    1.6080 C   0  0  0  0  0  0  0  0  0  0  0  0
   -3.5400    1.2590   -0.2730 C   0  0  0  0  0  0  0  0  0  0  0  0
   -4.2490    0.2320   -0.4050 O   0  0  0  0  0  0  0  0  0  0  0  0
  1  2  2  0
  2  3  1  0
  2 28  1  0
  3  4  1  0
  4  5  1  0
  5  6  2  0
  7  6  1  6
  6 28  1  0
  7  8  1  0
  7 20  1  0
  8  9  2  0
  8 19  1  0
  9 10  1  0
 10 11  1  0
 10 13  2  0
 11 12  1  0
 13 14  1  0
 13 19  1  0
 14 15  1  0
 15 16  1  0
 16 17  1  0
 16 18  2  0
 20 21  2  0
 20 25  1  0
 21 22  1  0
 22 23  2  0
 23 24  1  0
 24 25  2  0
 25 26  1  0
 26 27  1  0
 28 29  2  0
M  END
