
     RDKit          3D

 29 31  0  0  0  0  0  0  0  0999 V2000
    8.0680   -0.4930   -3.0070 C   0  0  0  0  0  0  0  0  0  0  0  0
    7.4500   -1.2830   -4.1580 C   0  0  0  0  0  0  0  0  0  0  0  0
    6.7610   -2.4520   -3.6260 N   0  0  0  0  0  0  0  0  0  0  0  0
    5.6030   -2.2880   -2.8200 C   0  0  0  0  0  0  0  0  0  0  0  0
    4.3700   -2.3020   -3.2300 C   0  0  0  0  0  0  0  0  0  0  0  0
    3.2510   -2.1260   -2.3260 C   0  0  0  0  0  0  0  0  0  0  0  0
    1.9540   -2.0620   -2.8370 C   0  0  0  0  0  0  0  0  0  0  0  0
    0.8820   -1.8940   -2.0170 C   0  0  0  0  0  0  0  0  0  0  0  0
    0.9920   -1.7750   -0.6200 C   0  0  0  0  0  0  0  0  0  0  0  0
   -0.1860   -1.4230    0.1780 C   0  0  0  0  0  0  0  0  0  0  0  0
   -1.0460   -0.7460   -0.5330 O   0  0  0  0  0  0  0  0  0  0  0  0
   -0.4930   -1.6970    1.5280 C   0  0  0  0  0  0  0  0  0  0  0  0
    0.3240   -2.6860    2.3320 C   0  0  0  0  0  0  0  0  0  0  0  0
    1.2380   -3.3590    1.8780 O   0  0  0  0  0  0  0  0  0  0  0  0
   -1.4090   -1.1060    2.2580 C   0  0  0  0  0  0  0  0  0  0  0  0
   -2.2730   -0.0630    1.8200 C   0  0  0  0  0  0  0  0  0  0  0  0
   -3.2320    0.5130    2.5180 C   0  0  0  0  0  0  0  0  0  0  0  0
   -3.6130    0.2020    3.8950 C   0  0  0  0  0  0  0  0  0  0  0  0
   -2.9300   -0.7610    4.5390 O   0  0  0  0  0  0  0  0  0  0  0  0
   -4.0330    1.5860    1.8180 C   0  0  0  0  0  0  0  0  0  0  0  0
   -3.7590    2.1210    0.5870 C   0  0  0  0  0  0  0  0  0  0  0  0
   -4.7700    3.0650    0.3500 C   0  0  0  0  0  0  0  0  0  0  0  0
   -5.6000    3.0490    1.4470 C   0  0  0  0  0  0  0  0  0  0  0  0
   -5.1050    2.1650    2.2610 O   0  0  0  0  0  0  0  0  0  0  0  0
   -6.7170    4.0330    1.2570 C   0  0  0  0  0  0  0  0  0  0  0  0
   -6.3450    4.7830    0.0240 C   0  0  0  0  0  0  0  0  0  0  0  0
   -5.2290    4.0610   -0.6440 C   0  0  0  0  0  0  0  0  0  0  0  0
    2.2660   -1.8380   -0.1390 C   0  0  0  0  0  0  0  0  0  0  0  0
    3.3760   -2.0110   -0.9730 C   0  0  0  0  0  0  0  0  0  0  0  0
  1  2  1  0
  2  3  1  0
  3  4  1  0
  4  5  2  3
  5  6  1  0
  6  7  2  0
  6 29  1  0
  7  8  1  0
  8  9  2  0
  9 10  1  0
  9 28  1  0
 10 11  2  0
 10 12  1  0
 12 13  1  0
 12 15  2  3
 13 14  2  0
 15 16  1  0
 16 17  2  3
 17 18  1  0
 17 20  1  0
 18 19  1  0
 20 21  2  0
 20 24  1  0
 21 22  1  0
 22 23  2  0
 22 27  1  0
 23 24  1  0
 23 25  1  0
 25 26  1  0
 26 27  1  0
 28 29  2  0
M  END
