
     RDKit          3D

 28 29  0  0  0  0  0  0  0  0999 V2000
    4.7300   -0.0960    1.1540 C   0  0  0  0  0  0  0  0  0  0  0  0
    4.1720   -0.1430   -0.0440 C   0  0  0  0  0  0  0  0  0  0  0  0
    4.9360    0.2870   -1.1370 O   0  0  0  0  0  0  0  0  0  0  0  0
    2.8830   -0.5860   -0.3110 N   0  0  0  0  0  0  0  0  0  0  0  0
    1.7640   -0.0820    0.0190 C   0  0  0  0  0  0  0  0  0  0  0  0
    1.7220    1.1500    0.7970 C   0  0  1  0  0  0  0  0  0  0  0  0
    2.9190    1.8720    0.6040 O   0  0  0  0  0  0  0  0  0  0  0  0
    0.6170    2.0970    0.3770 C   0  0  0  0  0  0  0  0  0  0  0  0
   -0.5690    1.4340   -0.0120 N   0  0  0  0  0  0  0  0  0  0  0  0
   -1.1370    1.7410   -1.2550 C   0  0  0  0  0  0  0  0  0  0  0  0
   -1.7070    3.1500   -1.2350 C   0  0  0  0  0  0  0  0  0  0  0  0
   -0.7440    4.1130   -0.9700 O   0  0  0  0  0  0  0  0  0  0  0  0
   -0.5720    0.0480    0.4210 C   0  0  1  0  0  0  0  0  0  0  0  0
   -1.8830   -0.4640    0.5420 N   0  0  0  0  0  0  0  0  0  0  0  0
   -2.7310   -0.7320   -0.4660 O   0  0  0  0  0  0  0  0  0  0  0  0
   -3.0360   -2.0790   -0.5510 C   0  0  0  0  0  0  0  0  0  0  0  0
   -2.4150   -0.7230    1.8590 C   0  0  0  0  0  0  0  0  0  0  0  0
   -3.7740   -1.2430    2.1060 C   0  0  0  0  0  0  0  0  0  0  0  0
   -1.7000   -0.5000    2.8680 O   0  0  0  0  0  0  0  0  0  0  0  0
    0.4460   -0.7330   -0.3680 C   0  0  1  0  0  0  0  0  0  0  0  0
    0.3430   -0.4070   -1.7290 O   0  0  0  0  0  0  0  0  0  0  0  0
    1.0920   -1.6040   -2.7080 S   0  0  0  0  0  0  0  0  0  0  0  0
    0.2560   -3.0970   -2.2250 N   0  0  0  0  0  0  0  0  0  0  0  0
    0.1000   -3.1770   -0.9690 C   0  0  0  0  0  0  0  0  0  0  0  0
   -0.5350   -4.2880   -0.4720 F   0  0  0  0  0  0  0  0  0  0  0  0
    0.5770   -2.1620   -0.0510 C   0  0  2  0  0  0  0  0  0  0  0  0
    0.0660   -2.3630    1.2550 O   0  0  0  0  0  0  0  0  0  0  0  0
    1.9560   -2.4540    0.1250 F   0  0  0  0  0  0  0  0  0  0  0  0
  1  2  2  0
  2  3  1  0
  2  4  1  0
  4  5  2  3
  5  6  1  0
  5 20  1  0
  6  7  1  6
  6  8  1  0
  8  9  1  0
  9 10  1  0
  9 13  1  0
 10 11  1  0
 11 12  1  0
 13 14  1  6
 13 20  1  0
 14 15  1  0
 14 17  1  0
 15 16  1  0
 17 18  1  0
 17 19  2  0
 20 21  1  6
 20 26  1  0
 21 22  1  0
 22 23  1  0
 23 24  2  0
 24 25  1  0
 24 26  1  0
 26 27  1  1
 26 28  1  0
M  CHG  1  27  -1
M  END
