
     RDKit          3D

 30 32  0  0  0  0  0  0  0  0999 V2000
    7.5630    0.8860   -0.3030 C   0  0  0  0  0  0  0  0  0  0  0  0
    6.5380   -0.1430   -0.5280 C   0  0  0  0  0  0  0  0  0  0  0  0
    5.2520   -0.0720   -0.2710 C   0  0  0  0  0  0  0  0  0  0  0  0
    4.4550   -1.1330   -0.5480 N   0  0  0  0  0  0  0  0  0  0  0  0
    3.1330   -1.1380   -0.3140 C   0  0  0  0  0  0  0  0  0  0  0  0
    2.5230   -2.1780   -0.6160 O   0  0  0  0  0  0  0  0  0  0  0  0
    2.4880   -0.0520    0.2300 C   0  0  0  0  0  0  0  0  0  0  0  0
    1.2090    0.0540    0.5000 C   0  0  0  0  0  0  0  0  0  0  0  0
    0.1390   -0.8830    0.3200 C   0  0  0  0  0  0  0  0  0  0  0  0
    0.2940   -2.0110   -0.1590 O   0  0  0  0  0  0  0  0  0  0  0  0
   -1.1880   -0.5490    0.6930 N   0  0  0  0  0  0  0  0  0  0  0  0
   -1.4820    0.7080    1.3090 C   0  0  0  0  0  0  0  0  0  0  0  0
   -1.7930    1.7650    0.3110 C   0  0  0  0  0  0  0  0  0  0  0  0
   -1.8390    1.7100   -1.0490 C   0  0  0  0  0  0  0  0  0  0  0  0
   -2.1760    2.9620   -1.5170 C   0  0  0  0  0  0  0  0  0  0  0  0
   -2.3240    3.7400   -0.3900 C   0  0  0  0  0  0  0  0  0  0  0  0
   -2.6940    5.2010   -0.3850 C   0  0  0  0  0  0  0  0  0  0  0  0
   -2.0880    2.9870    0.6530 O   0  0  0  0  0  0  0  0  0  0  0  0
   -2.2300   -1.4750    0.4650 C   0  0  0  0  0  0  0  0  0  0  0  0
   -3.1960   -1.7640    1.4330 C   0  0  0  0  0  0  0  0  0  0  0  0
   -4.2110   -2.6780    1.1870 C   0  0  0  0  0  0  0  0  0  0  0  0
   -5.1200   -2.9170    2.1660 F   0  0  0  0  0  0  0  0  0  0  0  0
   -4.3080   -3.3320   -0.0100 C   0  0  0  0  0  0  0  0  0  0  0  0
   -5.3910   -4.3180   -0.2980 C   0  0  0  0  0  0  0  0  0  0  0  0
   -3.3650   -3.0590   -0.9760 C   0  0  0  0  0  0  0  0  0  0  0  0
   -3.4650   -3.7080   -2.1590 F   0  0  0  0  0  0  0  0  0  0  0  0
   -2.3740   -2.1650   -0.7320 C   0  0  0  0  0  0  0  0  0  0  0  0
    3.3240    1.0450    0.5150 C   0  0  0  0  0  0  0  0  0  0  0  0
    4.6780    1.0360    0.2700 C   0  0  0  0  0  0  0  0  0  0  0  0
    5.6310    2.6240    0.7290 Br  0  0  0  0  0  0  0  0  0  0  0  0
  1  2  1  0
  2  3  2  3
  3  4  1  0
  3 29  1  0
  4  5  1  0
  5  6  2  0
  5  7  1  0
  7  8  2  3
  7 28  1  0
  8  9  1  0
  9 10  2  0
  9 11  1  0
 11 12  1  0
 11 19  1  0
 12 13  1  0
 13 14  2  0
 13 18  1  0
 14 15  1  0
 15 16  2  0
 16 17  1  0
 16 18  1  0
 19 20  2  0
 19 27  1  0
 20 21  1  0
 21 22  1  0
 21 23  2  0
 23 24  1  0
 23 25  1  0
 25 26  1  0
 25 27  2  0
 28 29  2  0
 29 30  1  0
M  END
