
     RDKit          3D

 30 31  0  0  0  0  0  0  0  0999 V2000
    5.9680    0.8310   -1.3890 C   0  0  0  0  0  0  0  0  0  0  0  0
    6.0680    0.8060    0.0900 C   0  0  0  0  0  0  0  0  0  0  0  0
    4.9340    0.5580    0.7910 C   0  0  0  0  0  0  0  0  0  0  0  0
    3.7680    0.3470    0.0540 N   0  0  0  0  0  0  0  0  0  0  0  0
    2.5090    0.0800    0.5750 C   0  0  0  0  0  0  0  0  0  0  0  0
    2.2410   -0.0080    1.7830 O   0  0  0  0  0  0  0  0  0  0  0  0
    1.3250   -0.1330   -0.3090 C   0  0  0  0  0  0  0  0  0  0  0  0
    1.5280   -0.0590   -1.5420 O   0  0  0  0  0  0  0  0  0  0  0  0
    0.0410   -0.4030    0.1630 N   0  0  0  0  0  0  0  0  0  0  0  0
   -1.0890   -0.6080   -0.6540 N   0  0  0  0  0  0  0  0  0  0  0  0
   -1.6820   -1.8150   -1.0680 C   0  0  0  0  0  0  0  0  0  0  0  0
   -1.1630   -2.9650   -1.0040 O   0  0  0  0  0  0  0  0  0  0  0  0
   -3.0370   -1.5710   -1.6060 C   0  0  1  0  0  0  0  0  0  0  0  0
   -3.8860   -2.2750   -0.7170 O   0  0  0  0  0  0  0  0  0  0  0  0
   -3.2470   -0.1000   -1.5090 C   0  0  1  0  0  0  0  0  0  0  0  0
   -4.1770    0.2070   -0.3240 C   0  0  0  0  0  0  0  0  0  0  0  0
   -3.6090    0.7240    0.6850 C   0  0  0  0  0  0  0  0  0  0  0  0
   -3.9560    1.2000    2.0130 C   0  0  0  0  0  0  0  0  0  0  0  0
   -5.6480    1.1090    2.5220 S   0  0  0  0  0  0  0  0  0  0  0  0
   -5.5550   -0.1610   -0.5100 C   0  0  0  0  0  0  0  0  0  0  0  0
   -6.5280   -0.0230    0.5150 O   0  0  0  0  0  0  0  0  0  0  0  0
   -6.0910   -0.6620   -1.6200 C   0  0  0  0  0  0  0  0  0  0  0  0
   -5.4870   -0.9370   -2.8140 O   0  0  0  0  0  0  0  0  0  0  0  0
   -1.8730    0.4090   -1.2320 C   0  0  0  0  0  0  0  0  0  0  0  0
   -1.4690    1.5950   -1.4830 O   0  0  0  0  0  0  0  0  0  0  0  0
    5.1150    0.5580    2.2250 C   0  0  0  0  0  0  0  0  0  0  0  0
    4.1400    0.3400    2.9890 O   0  0  0  0  0  0  0  0  0  0  0  0
    6.3790    0.7980    2.8130 O   0  0  0  0  0  0  0  0  0  0  0  0
    7.5340    0.4660    2.0770 C   0  0  0  0  0  0  0  0  0  0  0  0
    7.3170    1.0270    0.7420 N   0  0  0  0  0  0  0  0  0  0  0  0
  1  2  1  0
  2  3  2  0
  2 30  1  0
  3  4  1  0
  3 26  1  0
  4  5  1  0
  5  6  2  0
  5  7  1  0
  7  8  2  0
  7  9  1  0
  9 10  1  0
 10 11  1  0
 10 24  1  0
 11 12  2  0
 11 13  1  0
 13 14  1  1
 13 15  1  0
 15 16  1  1
 15 24  1  0
 16 17  2  3
 16 20  1  0
 17 18  1  0
 18 19  1  0
 20 21  1  0
 20 22  2  3
 22 23  1  0
 24 25  2  0
 26 27  2  0
 26 28  1  0
 28 29  1  0
 29 30  1  0
M  END
