
     RDKit          3D

 30 31  0  0  0  0  0  0  0  0999 V2000
   -3.5480    4.0440   -1.0610 N   0  0  0  0  0  0  0  0  0  0  0  0
   -3.7290    3.1830    0.0500 C   0  0  0  0  0  0  0  0  0  0  0  0
   -4.5700    3.5310    0.9100 O   0  0  0  0  0  0  0  0  0  0  0  0
   -2.9520    1.9080    0.1970 C   0  0  2  0  0  0  0  0  0  0  0  0
   -3.2410    1.0570   -0.9590 C   0  0  0  0  0  0  0  0  0  0  0  0
   -2.3440    0.5270   -1.7860 C   0  0  0  0  0  0  0  0  0  0  0  0
   -0.9110    0.7640   -1.5960 C   0  0  0  0  0  0  0  0  0  0  0  0
   -0.3050   -0.1210   -0.5270 C   0  0  2  0  0  0  0  0  0  0  0  0
    1.0890    0.3660   -0.2980 C   0  0  0  0  0  0  0  0  0  0  0  0
    1.5730    1.3150   -0.9670 O   0  0  0  0  0  0  0  0  0  0  0  0
    1.9370   -0.2160    0.6850 N   0  0  0  0  0  0  0  0  0  0  0  0
    3.2620    0.2620    0.8840 C   0  0  0  0  0  0  0  0  0  0  0  0
    3.6630    1.2160    0.1710 O   0  0  0  0  0  0  0  0  0  0  0  0
    4.3280   -0.4520    2.0980 S   0  0  0  0  0  0  0  0  0  0  0  0
    5.9580    0.3090    2.1520 C   0  0  0  0  0  0  0  0  0  0  0  0
    6.7840    0.0790    0.9280 C   0  0  0  0  0  0  0  0  0  0  0  0
    6.1750    0.5840   -0.2160 O   0  0  0  0  0  0  0  0  0  0  0  0
   -0.3260   -1.5520   -0.9200 C   0  0  0  0  0  0  0  0  0  0  0  0
    0.0940   -2.1130   -2.0680 N   0  0  0  0  0  0  0  0  0  0  0  0
   -0.0930   -3.4440   -2.0290 C   0  0  0  0  0  0  0  0  0  0  0  0
    0.1750   -4.3020   -2.9090 O   0  0  0  0  0  0  0  0  0  0  0  0
   -0.6450   -3.7260   -0.8270 N   0  0  0  0  0  0  0  0  0  0  0  0
   -0.7940   -2.5790   -0.1380 C   0  0  0  0  0  0  0  0  0  0  0  0
   -1.3520   -2.3890    1.2080 C   0  0  0  0  0  0  0  0  0  0  0  0
   -0.9290   -3.2360    2.0820 O   0  0  0  0  0  0  0  0  0  0  0  0
   -2.2520   -1.4110    1.5670 O   0  0  0  0  0  0  0  0  0  0  0  0
   -3.5510   -1.2150    1.0580 C   0  0  0  0  0  0  0  0  0  0  0  0
   -4.0280    0.1160    1.5540 C   0  0  0  0  0  0  0  0  0  0  0  0
   -5.1390    0.1980    2.1980 O   0  0  0  0  0  0  0  0  0  0  0  0
   -3.3510    1.2990    1.3720 O   0  0  0  0  0  0  0  0  0  0  0  0
  1  2  1  0
  2  3  2  0
  4  2  1  6
  4  5  1  0
  4 30  1  0
  5  6  2  0
  6  7  1  0
  7  8  1  0
  8  9  1  6
  8 18  1  0
  9 10  2  0
  9 11  1  0
 11 12  1  0
 12 13  2  0
 12 14  1  0
 14 15  1  0
 15 16  1  0
 16 17  1  0
 18 19  1  0
 18 23  2  0
 19 20  1  0
 20 21  2  0
 20 22  1  0
 22 23  1  0
 23 24  1  0
 24 25  2  0
 24 26  1  0
 26 27  1  0
 27 28  1  0
 28 29  2  0
 28 30  1  0
M  END
