
     RDKit          3D

 30 33  0  0  0  0  0  0  0  0999 V2000
   -0.3290   -2.5500   -2.1860 O   0  0  0  0  0  0  0  0  0  0  0  0
   -0.2160   -1.4320   -1.5770 C   0  0  0  0  0  0  0  0  0  0  0  0
    1.1190   -1.0320   -1.3250 N   0  0  0  0  0  0  0  0  0  0  0  0
    2.2690   -1.8110   -1.7180 C   0  0  1  0  0  0  0  0  0  0  0  0
    3.1450   -1.1170   -2.7280 C   0  0  0  0  0  0  0  0  0  0  0  0
    4.5550   -1.2360   -2.2000 C   0  0  0  0  0  0  0  0  0  0  0  0
    4.5160   -2.4080   -1.2580 C   0  0  0  0  0  0  0  0  0  0  0  0
    3.1370   -2.2580   -0.5980 C   0  0  1  0  0  0  0  0  0  0  0  0
    3.3110   -1.2850    0.4580 N   0  0  0  0  0  0  0  0  0  0  0  0
    3.1940   -1.5610    1.8190 C   0  0  0  0  0  0  0  0  0  0  0  0
    2.9220   -2.7130    2.2100 O   0  0  0  0  0  0  0  0  0  0  0  0
    3.3810   -0.5200    2.8930 C   0  0  0  0  0  0  0  0  0  0  0  0
    3.6780    0.7900    2.6900 C   0  0  0  0  0  0  0  0  0  0  0  0
    3.8110    1.5890    3.7560 C   0  0  0  0  0  0  0  0  0  0  0  0
    3.6420    1.0490    5.0040 C   0  0  0  0  0  0  0  0  0  0  0  0
    3.7190    1.6950    6.6240 Cl  0  0  0  0  0  0  0  0  0  0  0  0
    3.2740   -0.7010    4.5650 S   0  0  0  0  0  0  0  0  0  0  0  0
   -1.3960   -0.6700   -1.1950 C   0  0  0  0  0  0  0  0  0  0  0  0
   -1.2790    0.5080   -0.5310 C   0  0  0  0  0  0  0  0  0  0  0  0
   -2.4290    1.2140   -0.1820 C   0  0  0  0  0  0  0  0  0  0  0  0
   -3.6860    0.7430   -0.4960 C   0  0  0  0  0  0  0  0  0  0  0  0
   -4.8240    1.5050   -0.1160 N   0  0  0  0  0  0  0  0  0  0  0  0
   -5.8710    0.9660    0.5320 C   0  0  0  0  0  0  0  0  0  0  0  0
   -6.9800    1.6800    0.9090 C   0  0  0  0  0  0  0  0  0  0  0  0
   -7.0520    3.0310    0.6200 C   0  0  0  0  0  0  0  0  0  0  0  0
   -5.9830    3.5970   -0.0450 C   0  0  0  0  0  0  0  0  0  0  0  0
   -4.8950    2.8250   -0.3970 C   0  0  0  0  0  0  0  0  0  0  0  0
   -3.9100    3.3290   -1.0050 O   0  0  0  0  0  0  0  0  0  0  0  0
   -3.8010   -0.4570   -1.1730 C   0  0  0  0  0  0  0  0  0  0  0  0
   -2.6380   -1.1560   -1.5170 C   0  0  0  0  0  0  0  0  0  0  0  0
  1  2  2  0
  2  3  1  0
  2 18  1  0
  4  3  1  1
  4  5  1  0
  4  8  1  0
  5  6  1  0
  6  7  1  0
  7  8  1  0
  8  9  1  1
  9 10  1  0
 10 11  2  0
 10 12  1  0
 12 13  2  0
 12 17  1  0
 13 14  1  0
 14 15  2  0
 15 16  1  0
 15 17  1  0
 18 19  2  0
 18 30  1  0
 19 20  1  0
 20 21  2  0
 21 22  1  0
 21 29  1  0
 22 23  1  0
 22 27  1  0
 23 24  2  0
 24 25  1  0
 25 26  2  0
 26 27  1  0
 27 28  2  0
 29 30  2  0
M  END
