
     RDKit          3D

 30 32  0  0  0  0  0  0  0  0999 V2000
   -2.3020   -3.4820    2.6350 C   0  0  0  0  0  0  0  0  0  0  0  0
   -3.1840   -2.5640    1.8210 C   0  0  0  0  0  0  0  0  0  0  0  0
   -2.4190   -1.7880    0.8740 N   0  0  0  0  0  0  0  0  0  0  0  0
   -3.0310   -0.8780    0.0230 C   0  0  0  0  0  0  0  0  0  0  0  0
   -4.2580   -0.6960    0.0440 O   0  0  0  0  0  0  0  0  0  0  0  0
   -2.2490   -0.0470   -0.9870 C   0  0  0  0  0  0  0  0  0  0  0  0
   -2.9790    0.7350   -1.6790 C   0  0  0  0  0  0  0  0  0  0  0  0
   -2.9630    1.7180   -2.6930 C   0  0  0  0  0  0  0  0  0  0  0  0
   -4.1630    2.1950   -3.1530 C   0  0  0  0  0  0  0  0  0  0  0  0
   -4.2910    3.2180   -4.2050 C   0  0  0  0  0  0  0  0  0  0  0  0
   -3.1100    3.8020   -4.6010 O   0  0  0  0  0  0  0  0  0  0  0  0
   -1.9030    3.3720   -4.1680 C   0  0  0  0  0  0  0  0  0  0  0  0
   -1.8150    2.3780   -3.2560 C   0  0  0  0  0  0  0  0  0  0  0  0
   -0.0240    2.0630   -2.6730 Br  0  0  0  0  0  0  0  0  0  0  0  0
   -0.8500   -0.4370   -1.0700 C   0  0  0  0  0  0  0  0  0  0  0  0
   -0.0100   -0.0350    0.0990 C   0  0  0  0  0  0  0  0  0  0  0  0
   -0.6260    0.6640    0.8890 O   0  0  0  0  0  0  0  0  0  0  0  0
    1.3090   -0.5040    0.1130 N   0  0  0  0  0  0  0  0  0  0  0  0
    1.8710   -1.3220   -0.9470 C   0  0  0  0  0  0  0  0  0  0  0  0
    3.1120   -0.6360   -1.4770 C   0  0  0  0  0  0  0  0  0  0  0  0
    4.0910   -0.2800   -0.4250 C   0  0  0  0  0  0  0  0  0  0  0  0
    3.5430   -0.0660    0.9130 C   0  0  0  0  0  0  0  0  0  0  0  0
    4.3880    0.2580    1.9530 C   0  0  0  0  0  0  0  0  0  0  0  0
    3.9100    0.4660    3.2320 C   0  0  0  0  0  0  0  0  0  0  0  0
    4.8380    0.8140    4.3440 C   0  0  1  0  0  0  0  0  0  0  0  0
    5.7720   -0.2190    4.4940 F   0  0  0  0  0  0  0  0  0  0  0  0
    5.5710    1.9190    3.9560 F   0  0  0  0  0  0  0  0  0  0  0  0
    2.5500    0.3430    3.4620 C   0  0  0  0  0  0  0  0  0  0  0  0
    1.6750    0.0210    2.4450 C   0  0  0  0  0  0  0  0  0  0  0  0
    2.1910   -0.1780    1.1890 C   0  0  0  0  0  0  0  0  0  0  0  0
  1  2  1  0
  2  3  1  0
  3  4  1  0
  4  5  2  0
  4  6  1  0
  6  7  2  3
  6 15  1  0
  7  8  1  0
  8  9  2  0
  8 13  1  0
  9 10  1  0
 10 11  1  0
 11 12  1  0
 12 13  2  0
 13 14  1  0
 15 16  1  0
 16 17  2  0
 16 18  1  0
 18 19  1  0
 18 30  1  0
 19 20  1  0
 20 21  1  0
 21 22  1  0
 22 23  2  0
 22 30  1  0
 23 24  1  0
 24 25  1  0
 24 28  2  0
 25 26  1  6
 25 27  1  0
 28 29  1  0
 29 30  2  0
M  END
