
     RDKit          3D

 30 32  0  0  0  0  0  0  0  0999 V2000
   -4.8010   -2.6320   -1.7020 C   0  0  0  0  0  0  0  0  0  0  0  0
   -3.6500   -2.3840   -1.1130 C   0  0  0  0  0  0  0  0  0  0  0  0
   -3.6180   -2.0270    0.3170 C   0  0  0  0  0  0  0  0  0  0  0  0
   -3.0260   -0.6890    0.5460 N   0  0  0  0  0  0  0  0  0  0  0  0
   -1.6940   -0.4120    0.1650 C   0  0  0  0  0  0  0  0  0  0  0  0
   -1.1350   -1.4860   -0.3300 O   0  0  0  0  0  0  0  0  0  0  0  0
   -0.9340    0.8080    0.2080 C   0  0  0  0  0  0  0  0  0  0  0  0
    0.5430    0.6820    0.3010 C   0  0  0  0  0  0  0  0  0  0  0  0
    1.1010    1.8380    0.1110 O   0  0  0  0  0  0  0  0  0  0  0  0
    1.3980   -0.3660    0.5460 N   0  0  0  0  0  0  0  0  0  0  0  0
    1.2250   -1.7410    0.9110 C   0  0  0  0  0  0  0  0  0  0  0  0
    1.7690   -2.6610   -0.1680 C   0  0  0  0  0  0  0  0  0  0  0  0
    3.2540   -2.4850   -0.3260 C   0  0  0  0  0  0  0  0  0  0  0  0
    3.6960   -1.0760   -0.2330 C   0  0  0  0  0  0  0  0  0  0  0  0
    4.9090   -0.8800   -0.7540 C   0  0  0  0  0  0  0  0  0  0  0  0
    5.7290    0.3300   -0.8780 C   0  0  0  0  0  0  0  0  0  0  0  0
    5.5380    1.3500    0.1470 C   0  0  0  0  0  0  0  0  0  0  0  0
    4.5210    1.7180    0.9130 C   0  0  0  0  0  0  0  0  0  0  0  0
    3.1860    1.0920    0.8920 C   0  0  0  0  0  0  0  0  0  0  0  0
    2.8520   -0.0770    0.3850 C   0  0  0  0  0  0  0  0  0  0  0  0
   -1.4860    2.0040    0.3680 C   0  0  0  0  0  0  0  0  0  0  0  0
   -2.9520    2.1850    0.5000 C   0  0  0  0  0  0  0  0  0  0  0  0
   -3.9040    1.9190   -0.5000 C   0  0  0  0  0  0  0  0  0  0  0  0
   -5.1320    2.2260    0.0410 C   0  0  0  0  0  0  0  0  0  0  0  0
   -4.8870    2.6600    1.3260 C   0  0  0  0  0  0  0  0  0  0  0  0
   -3.6030    2.6130    1.5330 O   0  0  0  0  0  0  0  0  0  0  0  0
   -0.7460    3.2940    0.4270 C   0  0  2  0  0  0  0  0  0  0  0  0
   -1.7450    4.3390    0.4080 F   0  0  0  0  0  0  0  0  0  0  0  0
   -0.0100    3.6070   -0.6690 F   0  0  0  0  0  0  0  0  0  0  0  0
    0.0960    3.4810    2.1270 Br  0  0  0  0  0  0  0  0  0  0  0  0
  1  2  2  0
  2  3  1  0
  3  4  1  0
  4  5  1  0
  5  6  2  0
  5  7  1  0
  7  8  1  0
  7 21  2  3
  8  9  2  0
  8 10  1  0
 10 11  1  0
 10 20  1  0
 11 12  1  0
 12 13  1  0
 13 14  1  0
 14 15  2  0
 14 20  1  0
 15 16  1  0
 16 17  1  0
 17 18  2  0
 18 19  1  0
 19 20  2  0
 21 22  1  0
 21 27  1  0
 22 23  2  0
 22 26  1  0
 23 24  1  0
 24 25  2  0
 25 26  1  0
 27 28  1  1
 27 29  1  0
 27 30  1  0
M  END
