
     RDKit          3D

 30 31  0  0  0  0  0  0  0  0999 V2000
    0.9470   -4.9550    0.4500 C   0  0  0  0  0  0  0  0  0  0  0  0
    1.3970   -3.7500    0.1150 C   0  0  0  0  0  0  0  0  0  0  0  0
    2.6310   -3.5150   -0.4230 O   0  0  0  0  0  0  0  0  0  0  0  0
    2.7540   -2.1410   -0.6490 C   0  0  0  0  0  0  0  0  0  0  0  0
    1.4880   -1.5180   -0.2020 C   0  0  0  0  0  0  0  0  0  0  0  0
    0.6850   -2.4380    0.2450 C   0  0  0  0  0  0  0  0  0  0  0  0
   -0.5670   -2.2900    0.7440 O   0  0  0  0  0  0  0  0  0  0  0  0
   -1.4060   -1.3680    1.1910 C   0  0  0  0  0  0  0  0  0  0  0  0
   -1.4540   -0.8610    2.3880 O   0  0  0  0  0  0  0  0  0  0  0  0
   -2.4210   -0.7870    0.3610 N   0  0  0  0  0  0  0  0  0  0  0  0
   -2.3250   -0.5440   -1.0440 C   0  0  0  0  0  0  0  0  0  0  0  0
   -2.9470    0.8140   -1.3610 C   0  0  1  0  0  0  0  0  0  0  0  0
   -4.4100    0.7850   -1.1560 C   0  0  0  0  0  0  0  0  0  0  0  0
   -5.1310   -0.3630   -1.6570 N   0  0  0  0  0  0  0  0  0  0  0  0
   -5.1050    1.6410   -0.5960 O   0  0  0  0  0  0  0  0  0  0  0  0
   -2.2870    1.8860   -0.8630 O   0  0  0  0  0  0  0  0  0  0  0  0
   -2.4390    2.2040    0.4510 C   0  0  0  0  0  0  0  0  0  0  0  0
   -1.7040    3.3790    0.7340 O   0  0  0  0  0  0  0  0  0  0  0  0
   -0.4030    2.9830    1.0150 C   0  0  0  0  0  0  0  0  0  0  0  0
   -0.2900    2.1490    2.2230 C   0  0  0  0  0  0  0  0  0  0  0  0
   -1.1930    2.2050    3.0870 O   0  0  0  0  0  0  0  0  0  0  0  0
    0.8490    1.2690    2.4250 N   0  0  0  0  0  0  0  0  0  0  0  0
    1.9420    1.3110    1.6020 N   0  0  0  0  0  0  0  0  0  0  0  0
    2.1590    0.7880    0.4550 C   0  0  0  0  0  0  0  0  0  0  0  0
    3.4920    1.0650   -0.1450 C   0  0  0  0  0  0  0  0  0  0  0  0
    3.7920    0.5380   -1.3950 O   0  0  0  0  0  0  0  0  0  0  0  0
    4.3780    1.8040    0.5080 C   0  0  0  0  0  0  0  0  0  0  0  0
    5.9630    2.1510   -0.1690 S   0  0  0  0  0  0  0  0  0  0  0  0
    1.1800   -0.0520   -0.2730 C   0  0  1  0  0  0  0  0  0  0  0  0
    1.1730    0.4030   -1.5940 O   0  0  0  0  0  0  0  0  0  0  0  0
  1  2  2  0
  2  3  1  0
  2  6  1  0
  3  4  1  0
  4  5  1  0
  5  6  2  0
  5 29  1  0
  6  7  1  0
  7  8  1  0
  8  9  2  0
  8 10  1  0
 10 11  1  0
 11 12  1  0
 12 13  1  1
 12 16  1  0
 13 14  1  0
 13 15  2  0
 16 17  1  0
 17 18  1  0
 18 19  1  0
 19 20  1  0
 20 21  2  0
 20 22  1  0
 22 23  1  0
 23 24  2  0
 24 25  1  0
 24 29  1  0
 25 26  1  0
 25 27  2  3
 27 28  1  0
 29 30  1  6
M  END
