
     RDKit          3D

 30 32  0  0  0  0  0  0  0  0999 V2000
   -7.7380    1.5420    0.2500 C   0  0  0  0  0  0  0  0  0  0  0  0
   -6.4400    0.8140    0.0650 C   0  0  0  0  0  0  0  0  0  0  0  0
   -6.4510   -0.4510   -0.4920 C   0  0  0  0  0  0  0  0  0  0  0  0
   -5.2820   -1.1430   -0.6760 C   0  0  0  0  0  0  0  0  0  0  0  0
   -5.2360   -2.5200   -1.2760 C   0  0  0  0  0  0  0  0  0  0  0  0
   -4.1010   -0.5220   -0.2810 C   0  0  0  0  0  0  0  0  0  0  0  0
   -4.0210    0.7210    0.2730 C   0  0  0  0  0  0  0  0  0  0  0  0
   -2.8150    1.4000    0.6890 C   0  0  0  0  0  0  0  0  0  0  0  0
   -2.9040    3.1400    1.4550 Br  0  0  0  0  0  0  0  0  0  0  0  0
   -1.6240    0.8410    0.5560 C   0  0  0  0  0  0  0  0  0  0  0  0
   -0.4120    1.5230    0.9740 C   0  0  0  0  0  0  0  0  0  0  0  0
   -0.5160    2.6710    1.4690 O   0  0  0  0  0  0  0  0  0  0  0  0
    0.8800    0.8870    0.8180 C   0  0  0  0  0  0  0  0  0  0  0  0
    2.0370    1.5890    1.2050 C   0  0  0  0  0  0  0  0  0  0  0  0
    3.2710    1.0120    1.0730 C   0  0  0  0  0  0  0  0  0  0  0  0
    3.3530   -0.2780    0.5480 C   0  0  0  0  0  0  0  0  0  0  0  0
    2.2280   -0.9960    0.1620 C   0  0  0  0  0  0  0  0  0  0  0  0
    0.9970   -0.3810    0.3090 C   0  0  0  0  0  0  0  0  0  0  0  0
    2.3470   -2.3390   -0.2890 N   0  0  0  0  0  0  0  0  0  0  0  0
    3.6320   -2.9200   -0.3270 C   0  0  0  0  0  0  0  0  0  0  0  0
    3.9050   -3.8840   -1.0330 O   0  0  0  0  0  0  0  0  0  0  0  0
    4.6940   -2.3110    0.5460 C   0  0  0  0  0  0  0  0  0  0  0  0
    4.6330   -0.8460    0.3490 N   0  0  0  0  0  0  0  0  0  0  0  0
    5.7550   -0.1370   -0.1000 C   0  0  0  0  0  0  0  0  0  0  0  0
    6.8850   -0.7830    0.0200 O   0  0  0  0  0  0  0  0  0  0  0  0
    5.8830    1.1830   -0.6870 C   0  0  0  0  0  0  0  0  0  0  0  0
    7.3600    1.4510   -1.0830 C   0  0  2  0  0  0  0  0  0  0  0  0
    7.7850    0.5250   -1.9920 F   0  0  0  0  0  0  0  0  0  0  0  0
    8.1530    1.3130    0.0570 F   0  0  0  0  0  0  0  0  0  0  0  0
   -5.2500    1.3870    0.4400 C   0  0  0  0  0  0  0  0  0  0  0  0
  1  2  1  0
  2  3  2  0
  2 30  1  0
  3  4  1  0
  4  5  1  0
  4  6  2  0
  6  7  1  0
  7  8  1  0
  7 30  2  0
  8  9  1  0
  8 10  2  3
 10 11  1  0
 11 12  2  0
 11 13  1  0
 13 14  2  0
 13 18  1  0
 14 15  1  0
 15 16  2  0
 16 17  1  0
 16 23  1  0
 17 18  2  0
 17 19  1  0
 19 20  1  0
 20 21  2  0
 20 22  1  0
 22 23  1  0
 23 24  1  0
 24 25  2  0
 24 26  1  0
 26 27  1  0
 27 28  1  6
 27 29  1  0
M  END
