
     RDKit          3D

 30 32  0  0  0  0  0  0  0  0999 V2000
   -4.7320   -0.7540    2.3460 C   0  0  0  0  0  0  0  0  0  0  0  0
   -4.4980   -0.2880    0.9650 C   0  0  0  0  0  0  0  0  0  0  0  0
   -5.5600    0.1280    0.2140 C   0  0  0  0  0  0  0  0  0  0  0  0
   -5.3000    0.5490   -1.0670 C   0  0  0  0  0  0  0  0  0  0  0  0
   -4.0240    0.5470   -1.5650 N   0  0  0  0  0  0  0  0  0  0  0  0
   -3.8390    1.0000   -2.8140 C   0  0  0  0  0  0  0  0  0  0  0  0
   -4.8650    1.3780   -3.4630 O   0  0  0  0  0  0  0  0  0  0  0  0
   -2.5950    1.0530   -3.3680 C   0  0  0  0  0  0  0  0  0  0  0  0
   -1.4620    0.6380   -2.6650 C   0  0  0  0  0  0  0  0  0  0  0  0
   -0.1740    0.7390   -3.3070 C   0  0  2  0  0  0  0  0  0  0  0  0
    0.6850   -0.2790   -3.2810 F   0  0  0  0  0  0  0  0  0  0  0  0
    0.4340    2.0260   -3.1480 F   0  0  0  0  0  0  0  0  0  0  0  0
   -1.6710    0.1690   -1.3740 C   0  0  0  0  0  0  0  0  0  0  0  0
   -0.5570   -0.3210   -0.6410 C   0  0  0  0  0  0  0  0  0  0  0  0
    0.6440    0.1920   -0.5830 C   0  0  0  0  0  0  0  0  0  0  0  0
    1.7250   -0.4050    0.2050 C   0  0  0  0  0  0  0  0  0  0  0  0
    1.4760   -1.4270    0.8300 O   0  0  0  0  0  0  0  0  0  0  0  0
    2.9980    0.1800    0.2360 N   0  0  0  0  0  0  0  0  0  0  0  0
    4.1260   -0.2820    0.9400 C   0  0  0  0  0  0  0  0  0  0  0  0
    4.1640   -1.5000    1.5570 C   0  0  0  0  0  0  0  0  0  0  0  0
    5.3140   -1.9480    2.2160 C   0  0  0  0  0  0  0  0  0  0  0  0
    6.4330   -1.1560    2.2490 C   0  0  0  0  0  0  0  0  0  0  0  0
    8.0040   -1.7890    3.1580 Br  0  0  0  0  0  0  0  0  0  0  0  0
    6.4270    0.0690    1.6400 C   0  0  0  0  0  0  0  0  0  0  0  0
    5.2680    0.5340    0.9700 C   0  0  0  0  0  0  0  0  0  0  0  0
    5.3720    1.8500    0.3920 C   0  0  0  0  0  0  0  0  0  0  0  0
    4.5120    2.4990   -0.2040 O   0  0  0  0  0  0  0  0  0  0  0  0
   -2.9670    0.1270   -0.8080 C   0  0  0  0  0  0  0  0  0  0  0  0
   -3.1620   -0.3010    0.4780 C   0  0  0  0  0  0  0  0  0  0  0  0
   -2.0910   -0.6730    1.3950 C   0  0  0  0  0  0  0  0  0  0  0  0
  1  2  1  0
  2  3  1  0
  2 29  2  0
  3  4  2  0
  4  5  1  0
  5  6  1  0
  5 28  1  0
  6  7  2  0
  6  8  1  0
  8  9  2  0
  9 10  1  0
  9 13  1  0
 10 11  1  1
 10 12  1  0
 13 14  1  0
 13 28  2  0
 14 15  2  3
 15 16  1  0
 16 17  2  0
 16 18  1  0
 18 19  1  0
 19 20  2  0
 19 25  1  0
 20 21  1  0
 21 22  2  0
 22 23  1  0
 22 24  1  0
 24 25  2  0
 25 26  1  0
 26 27  2  0
 28 29  1  0
 29 30  1  0
M  END
