
     RDKit          3D

 16 17  0  0  0  0  0  0  0  0999 V2000
    1.5440   -2.3420    0.6500 C   0  0  0  0  0  0  0  0  0  0  0  0
    1.6360   -0.9210    0.5240 N   0  0  0  0  0  0  0  0  0  0  0  0
    0.7340   -0.0790    1.2030 C   0  0  0  0  0  0  0  0  0  0  0  0
   -0.5060    0.1420    0.7810 C   0  0  0  0  0  0  0  0  0  0  0  0
   -0.8210   -0.5860   -0.4610 C   0  0  0  0  0  0  0  0  0  0  0  0
   -1.9230    0.0310   -1.2670 C   0  0  0  0  0  0  0  0  0  0  0  0
   -3.2060    0.1830   -0.4930 C   0  0  0  0  0  0  0  0  0  0  0  0
   -3.1710    1.5200    0.2390 C   0  0  0  0  0  0  0  0  0  0  0  0
   -2.7310    1.2160    1.6530 C   0  0  0  0  0  0  0  0  0  0  0  0
   -1.2610    1.0410    1.6300 C   0  0  0  0  0  0  0  0  0  0  0  0
   -0.5560    1.7350    2.4250 O   0  0  0  0  0  0  0  0  0  0  0  0
    2.6430   -0.3510   -0.2920 C   0  0  0  0  0  0  0  0  0  0  0  0
    3.4540    0.5760    0.0670 N   0  0  0  0  0  0  0  0  0  0  0  0
    4.3340    0.9020   -1.0220 C   0  0  0  0  0  0  0  0  0  0  0  0
    3.9060    0.0230   -2.0620 N   0  0  0  0  0  0  0  0  0  0  0  0
    2.9330   -0.7090   -1.6650 C   0  0  0  0  0  0  0  0  0  0  0  0
  1  2  1  0
  2  3  1  0
  2 12  1  0
  3  4  2  3
  4  5  1  0
  4 10  1  0
  5  6  1  0
  6  7  1  0
  7  8  1  0
  8  9  1  0
  9 10  1  0
 10 11  2  0
 12 13  2  0
 12 16  1  0
 13 14  1  0
 14 15  1  0
 15 16  2  0
M  END
