
     RDKit          3D

 22 22  0  0  0  0  0  0  0  0999 V2000
    4.8870    2.4480   -0.6440 C   0  0  0  0  0  0  0  0  0  0  0  0
    4.6980    1.2570    0.2440 C   0  0  1  0  0  0  0  0  0  0  0  0
    3.3550    0.6410   -0.0680 C   0  0  0  0  0  0  0  0  0  0  0  0
    3.3220   -0.8370    0.2050 C   0  0  2  0  0  0  0  0  0  0  0  0
    1.9320   -1.2930    0.4960 C   0  0  2  0  0  0  0  0  0  0  0  0
    1.7890   -2.6880    0.7700 N   0  0  0  0  0  0  0  0  0  0  0  0
    0.9810   -0.9300   -0.5830 C   0  0  0  0  0  0  0  0  0  0  0  0
    0.2390   -1.8130   -1.1120 O   0  0  0  0  0  0  0  0  0  0  0  0
    0.8260    0.3530   -1.0880 O   0  0  0  0  0  0  0  0  0  0  0  0
   -0.0850    0.6480   -2.1080 C   0  0  0  0  0  0  0  0  0  0  0  0
   -1.4960    0.3200   -1.7140 C   0  0  0  0  0  0  0  0  0  0  0  0
   -2.3740    0.5580   -2.5770 O   0  0  0  0  0  0  0  0  0  0  0  0
   -1.8160   -0.2100   -0.4850 O   0  0  0  0  0  0  0  0  0  0  0  0
   -3.1460   -0.5100   -0.1350 C   0  0  0  0  0  0  0  0  0  0  0  0
   -4.0320    0.7120   -0.1540 C   0  0  0  0  0  0  0  0  0  0  0  0
   -5.4540    0.3480    0.2300 C   0  0  1  0  0  0  0  0  0  0  0  0
   -6.3170    1.5900    0.2020 C   0  0  0  0  0  0  0  0  0  0  0  0
   -6.0130   -0.6430   -0.7460 C   0  0  0  0  0  0  0  0  0  0  0  0
   -5.4370   -0.2010    1.5260 O   0  0  0  0  0  0  0  0  0  0  0  0
    4.3220   -1.1800    1.2700 C   0  0  0  0  0  0  0  0  0  0  0  0
    5.6640   -0.5620    1.1120 C   0  0  0  0  0  0  0  0  0  0  0  0
    5.6430    0.2450   -0.0440 O   0  0  0  0  0  0  0  0  0  0  0  0
  2  1  1  6
  2  3  1  0
  2 22  1  0
  4  3  1  1
  4  5  1  0
  4 20  1  0
  5  6  1  6
  5  7  1  0
  7  8  2  0
  7  9  1  0
  9 10  1  0
 10 11  1  0
 11 12  2  0
 11 13  1  0
 13 14  1  0
 14 15  1  0
 15 16  1  0
 16 17  1  1
 16 18  1  0
 16 19  1  0
 20 21  1  0
 21 22  1  0
M  CHG  1   6   1
M  END
