
     RDKit          3D

 22 23  0  0  0  0  0  0  0  0999 V2000
   -4.8210    0.5230   -0.0650 C   0  0  0  0  0  0  0  0  0  0  0  0
   -3.3700    0.0460    0.1120 C   0  0  2  0  0  0  0  0  0  0  0  0
   -3.3420   -1.3770   -0.2850 C   0  0  0  0  0  0  0  0  0  0  0  0
   -4.2420   -2.0610    0.5730 O   0  0  0  0  0  0  0  0  0  0  0  0
   -3.0210    0.2950    1.5560 C   0  0  0  0  0  0  0  0  0  0  0  0
   -2.9100    1.7900    1.6130 C   0  0  0  0  0  0  0  0  0  0  0  0
   -2.8240    2.2880    0.1910 C   0  0  0  0  0  0  0  0  0  0  0  0
   -2.5130    1.0010   -0.6170 C   0  0  2  0  0  0  0  0  0  0  0  0
   -2.8920    1.2290   -1.9380 O   0  0  0  0  0  0  0  0  0  0  0  0
   -1.0420    0.8630   -0.5010 C   0  0  0  0  0  0  0  0  0  0  0  0
   -0.3980   -0.1660   -1.2340 N   0  0  0  0  0  0  0  0  0  0  0  0
    0.3510   -1.0130   -0.3200 C   0  0  0  0  0  0  0  0  0  0  0  0
    1.6970   -0.4590    0.0340 C   0  0  2  0  0  0  0  0  0  0  0  0
    1.6080    0.7920    0.6540 O   0  0  0  0  0  0  0  0  0  0  0  0
    2.6470   -0.3960   -1.1260 C   0  0  0  0  0  0  0  0  0  0  0  0
    3.8080   -1.3540   -0.9450 C   0  0  0  0  0  0  0  0  0  0  0  0
    4.4560   -1.2450    0.3980 C   0  0  1  0  0  0  0  0  0  0  0  0
    5.5630   -0.1920    0.4130 C   0  0  0  0  0  0  0  0  0  0  0  0
    4.9410    1.0430    0.2300 O   0  0  0  0  0  0  0  0  0  0  0  0
    5.8620    1.9780    0.2370 O   0  0  0  0  0  0  0  0  0  0  0  0
    3.5910   -0.9500    1.4270 O   0  0  0  0  0  0  0  0  0  0  0  0
    2.3110   -1.3920    1.0610 C   0  0  0  0  0  0  0  0  0  0  0  0
  2  1  1  1
  2  3  1  0
  2  5  1  0
  2  8  1  0
  3  4  1  0
  5  6  1  0
  6  7  1  0
  7  8  1  0
  8  9  1  6
  8 10  1  0
 10 11  1  0
 11 12  1  0
 12 13  1  0
 13 14  1  1
 13 15  1  0
 13 22  1  0
 15 16  1  0
 16 17  1  0
 17 18  1  6
 17 21  1  0
 18 19  1  0
 19 20  1  0
 21 22  1  0
M  CHG  1  11   1
M  END
