
     RDKit          3D

 22 22  0  0  0  0  0  0  0  0999 V2000
   -6.8500   -0.8800   -0.2030 C   0  0  0  0  0  0  0  0  0  0  0  0
   -5.9320    0.2560   -0.3140 C   0  0  0  0  0  0  0  0  0  0  0  0
   -6.4560    1.6290   -0.4620 C   0  0  0  0  0  0  0  0  0  0  0  0
   -7.2540    2.0000    0.6200 O   0  0  0  0  0  0  0  0  0  0  0  0
   -4.6250    0.0730   -0.2850 C   0  0  0  0  0  0  0  0  0  0  0  0
   -4.0770   -1.3200   -0.1350 C   0  0  0  0  0  0  0  0  0  0  0  0
   -2.8190   -1.1910    0.7260 C   0  0  0  0  0  0  0  0  0  0  0  0
   -1.8090   -0.4410   -0.1030 C   0  0  2  0  0  0  0  0  0  0  0  0
   -1.5770   -1.1990   -1.2520 O   0  0  0  0  0  0  0  0  0  0  0  0
   -0.4870   -0.2920    0.6030 C   0  0  0  0  0  0  0  0  0  0  0  0
    0.4310    0.3810   -0.2940 N   0  0  0  0  0  0  0  0  0  0  0  0
    1.6770   -0.3730   -0.2590 C   0  0  0  0  0  0  0  0  0  0  0  0
    2.8070    0.6300   -0.1290 C   0  0  1  0  0  0  0  0  0  0  0  0
    2.6110    1.3310    1.0380 O   0  0  0  0  0  0  0  0  0  0  0  0
    4.1070   -0.1220   -0.1610 C   0  0  0  0  0  0  0  0  0  0  0  0
    5.1920    0.7360   -0.0320 O   0  0  0  0  0  0  0  0  0  0  0  0
    6.4050    0.1140   -0.0530 C   0  0  2  0  0  0  0  0  0  0  0  0
    7.1920    0.2760    1.2270 C   0  0  0  0  0  0  0  0  0  0  0  0
    7.2880    0.5190   -1.2070 C   0  0  0  0  0  0  0  0  0  0  0  0
   -2.3330    0.9110   -0.4180 C   0  0  0  0  0  0  0  0  0  0  0  0
   -1.5780    1.8870   -0.7130 O   0  0  0  0  0  0  0  0  0  0  0  0
   -3.7080    1.0970   -0.3840 O   0  0  0  0  0  0  0  0  0  0  0  0
  1  2  1  0
  2  3  1  0
  2  5  2  3
  3  4  1  0
  5  6  1  0
  5 22  1  0
  6  7  1  0
  7  8  1  0
  8  9  1  6
  8 10  1  0
  8 20  1  0
 10 11  1  0
 11 12  1  0
 12 13  1  0
 13 14  1  1
 13 15  1  0
 15 16  1  0
 16 17  1  0
 17 18  1  1
 17 19  1  0
 20 21  2  0
 20 22  1  0
M  CHG  1  11   1
M  END
