
     RDKit          3D

 22 23  0  0  0  0  0  0  0  0999 V2000
    5.2150   -0.8990   -1.3990 C   0  0  0  0  0  0  0  0  0  0  0  0
    4.2470   -0.4710   -0.3060 C   0  0  1  0  0  0  0  0  0  0  0  0
    3.1190    0.0720   -0.9020 O   0  0  0  0  0  0  0  0  0  0  0  0
    2.0240    0.5690   -0.2220 C   0  0  0  0  0  0  0  0  0  0  0  0
    2.0890    0.5090    1.0520 O   0  0  0  0  0  0  0  0  0  0  0  0
    0.8390    1.1410   -0.9080 C   0  0  0  0  0  0  0  0  0  0  0  0
   -0.1800    1.5950    0.1180 C   0  0  0  0  0  0  0  0  0  0  0  0
   -1.4050    2.1850   -0.5450 C   0  0  0  0  0  0  0  0  0  0  0  0
   -2.0640    1.3190   -1.3710 O   0  0  0  0  0  0  0  0  0  0  0  0
   -2.5510    0.1710   -0.8200 C   0  0  0  0  0  0  0  0  0  0  0  0
   -3.5630    0.3160    0.2620 C   0  0  1  0  0  0  0  0  0  0  0  0
   -3.1640    0.9950    1.3820 O   0  0  0  0  0  0  0  0  0  0  0  0
   -4.8370    1.0050   -0.2440 C   0  0  0  0  0  0  0  0  0  0  0  0
   -5.9490    0.5890    0.6930 C   0  0  0  0  0  0  0  0  0  0  0  0
   -6.3560   -0.7050    0.3750 O   0  0  0  0  0  0  0  0  0  0  0  0
   -5.2770   -1.5010   -0.0000 C   0  0  1  0  0  0  0  0  0  0  0  0
   -5.1360   -1.5970   -1.3800 O   0  0  0  0  0  0  0  0  0  0  0  0
   -3.9960   -1.0740    0.6840 C   0  0  0  0  0  0  0  0  0  0  0  0
    3.9920   -1.6570    0.5660 C   0  0  0  0  0  0  0  0  0  0  0  0
    5.1370   -1.6280    1.5380 C   0  0  0  0  0  0  0  0  0  0  0  0
    5.8970   -0.4330    1.2870 N   0  0  0  0  0  0  0  0  0  0  0  0
    4.9910    0.4700    0.6010 C   0  0  0  0  0  0  0  0  0  0  0  0
  2  1  1  6
  2  3  1  0
  2 19  1  0
  2 22  1  0
  3  4  1  0
  4  5  2  0
  4  6  1  0
  6  7  1  0
  7  8  1  0
  8  9  1  0
  9 10  1  0
 10 11  1  0
 11 12  1  1
 11 13  1  0
 11 18  1  0
 13 14  1  0
 14 15  1  0
 15 16  1  0
 16 17  1  6
 16 18  1  0
 19 20  1  0
 20 21  1  0
 21 22  1  0
M  CHG  1  21   1
M  END
