
     RDKit          3D

 11 11  0  0  0  0  0  0  0  0999 V2000
   -2.0410    1.5990   -0.0130 N   0  0  0  0  0  0  0  0  0  0  0  0
   -1.6830    0.3310   -0.5630 C   0  0  2  0  0  0  0  0  0  0  0  0
   -2.3840   -0.8230    0.1120 C   0  0  0  0  0  0  0  0  0  0  0  0
   -2.1110   -0.9130    1.4530 O   0  0  0  0  0  0  0  0  0  0  0  0
   -0.2070    0.0700   -0.5000 C   0  0  0  0  0  0  0  0  0  0  0  0
    0.6150    0.2890    0.5620 N   0  0  0  0  0  0  0  0  0  0  0  0
    1.8660   -0.0650    0.2420 C   0  0  0  0  0  0  0  0  0  0  0  0
    3.0700    0.0080    1.0990 C   0  0  0  0  0  0  0  0  0  0  0  0
    4.2060   -0.4350    0.4650 O   0  0  0  0  0  0  0  0  0  0  0  0
    1.8540   -0.5200   -1.0480 C   0  0  0  0  0  0  0  0  0  0  0  0
    0.5690   -0.4250   -1.4760 N   0  0  0  0  0  0  0  0  0  0  0  0
  2  1  1  1
  2  3  1  0
  2  5  1  0
  3  4  1  0
  5  6  2  0
  5 11  1  0
  6  7  1  0
  7  8  1  0
  7 10  2  0
  8  9  1  0
 10 11  1  0
M  CHG  1   1   1
M  END
