
     RDKit          3D

 11 11  0  0  0  0  0  0  0  0999 V2000
   -1.3370   -2.6460    0.0330 N   0  0  0  0  0  0  0  0  0  0  0  0
   -0.6650   -1.7200    0.9000 C   0  0  0  0  0  0  0  0  0  0  0  0
   -0.6850   -0.3230    0.3480 C   0  0  0  0  0  0  0  0  0  0  0  0
    0.3370    0.4420    0.0340 C   0  0  0  0  0  0  0  0  0  0  0  0
    1.7030    0.1000    0.1530 N   0  0  0  0  0  0  0  0  0  0  0  0
    2.7520    0.9920   -0.2120 C   0  0  0  0  0  0  0  0  0  0  0  0
    2.4380    2.1250   -0.6560 O   0  0  0  0  0  0  0  0  0  0  0  0
    4.0700    0.6350   -0.0870 O   0  0  0  0  0  0  0  0  0  0  0  0
   -0.1420    1.7450   -0.4750 C   0  0  0  0  0  0  0  0  0  0  0  0
   -1.6340    1.7140   -0.3960 C   0  0  0  0  0  0  0  0  0  0  0  0
   -1.9100    0.3900    0.0810 N   0  0  0  0  0  0  0  0  0  0  0  0
  1  2  1  0
  2  3  1  0
  3  4  2  0
  3 11  1  0
  4  5  1  0
  4  9  1  0
  5  6  1  0
  6  7  2  0
  6  8  1  0
  9 10  1  0
 10 11  1  0
M  CHG  1   1   1
M  END
