
     RDKit          3D

 11 11  0  0  0  0  0  0  0  0999 V2000
   -1.7190   -1.5000    0.6270 N   0  0  0  0  0  0  0  0  0  0  0  0
   -2.1680   -0.2000    0.2440 C   0  0  0  0  0  0  0  0  0  0  0  0
   -3.4380    0.1490   -0.1010 C   0  0  0  0  0  0  0  0  0  0  0  0
   -3.3910    1.4890   -0.4280 N   0  0  0  0  0  0  0  0  0  0  0  0
   -2.1160    1.9000   -0.2680 N   0  0  0  0  0  0  0  0  0  0  0  0
   -1.3480    0.8710    0.1450 C   0  0  0  0  0  0  0  0  0  0  0  0
    0.0760    0.9920    0.4730 C   0  0  0  0  0  0  0  0  0  0  0  0
    0.8620    0.0290   -0.1350 O   0  0  0  0  0  0  0  0  0  0  0  0
    2.1680    0.3080    0.2150 C   0  0  0  0  0  0  0  0  0  0  0  0
    3.1380   -0.7450   -0.2960 C   0  0  0  0  0  0  0  0  0  0  0  0
    3.1230   -0.9040   -1.6670 O   0  0  0  0  0  0  0  0  0  0  0  0
  1  2  1  0
  2  3  1  0
  2  6  2  0
  3  4  2  0
  4  5  1  0
  5  6  1  0
  6  7  1  0
  7  8  1  0
  8  9  1  0
  9 10  1  0
 10 11  1  0
M  CHG  1   1   1
M  END
