
     RDKit          3D

 11 11  0  0  0  0  0  0  0  0999 V2000
   -0.6890   -1.4590    0.5790 N   0  0  0  0  0  0  0  0  0  0  0  0
    0.0680   -0.4840   -0.1040 C   0  0  0  0  0  0  0  0  0  0  0  0
   -0.4140    0.6530   -0.5520 C   0  0  0  0  0  0  0  0  0  0  0  0
   -1.8080    1.1320   -0.4370 C   0  0  0  0  0  0  0  0  0  0  0  0
   -2.7050    0.2580    0.2310 N   0  0  0  0  0  0  0  0  0  0  0  0
    0.5960    1.4080   -1.1900 N   0  0  0  0  0  0  0  0  0  0  0  0
    1.6930    0.7820   -1.1550 C   0  0  0  0  0  0  0  0  0  0  0  0
    1.5040   -0.4990   -0.4630 C   0  0  1  0  0  0  0  0  0  0  0  0
    2.3710   -0.4630    0.7390 C   0  0  0  0  0  0  0  0  0  0  0  0
    1.8690   -0.4270    1.8750 O   0  0  0  0  0  0  0  0  0  0  0  0
    3.7320   -0.4720    0.5770 O   0  0  0  0  0  0  0  0  0  0  0  0
  1  2  1  0
  2  3  2  0
  2  8  1  0
  3  4  1  0
  3  6  1  0
  4  5  1  0
  6  7  2  0
  7  8  1  0
  8  9  1  1
  9 10  2  0
  9 11  1  0
M  CHG  1   5   1
M  END
