
     RDKit          3D

 11 11  0  0  0  0  0  0  0  0999 V2000
    0.6340   -1.0490    1.8960 N   0  0  0  0  0  0  0  0  0  0  0  0
    0.2560   -0.9860    0.4960 C   0  0  2  0  0  0  0  0  0  0  0  0
    1.4240   -0.6360   -0.3770 C   0  0  0  0  0  0  0  0  0  0  0  0
    2.0360    0.6990   -0.0440 C   0  0  0  0  0  0  0  0  0  0  0  0
    3.1110    0.8840   -0.9420 O   0  0  0  0  0  0  0  0  0  0  0  0
   -0.9140   -0.1080    0.2780 C   0  0  0  0  0  0  0  0  0  0  0  0
   -1.5210    0.6740    1.1440 C   0  0  0  0  0  0  0  0  0  0  0  0
   -2.5890    1.3230    0.4920 N   0  0  0  0  0  0  0  0  0  0  0  0
   -2.5760    0.8770   -0.8090 N   0  0  0  0  0  0  0  0  0  0  0  0
   -1.6290    0.0520   -0.9760 C   0  0  0  0  0  0  0  0  0  0  0  0
   -1.2940   -0.6190   -2.1660 O   0  0  0  0  0  0  0  0  0  0  0  0
  2  1  1  1
  2  3  1  0
  2  6  1  0
  3  4  1  0
  4  5  1  0
  6  7  2  0
  6 10  1  0
  7  8  1  0
  8  9  1  0
  9 10  2  0
 10 11  1  0
M  CHG  1   8   1
M  END
