
     RDKit          3D

 11 11  0  0  0  0  0  0  0  0999 V2000
    3.3670   -0.4790    0.0370 N   0  0  0  0  0  0  0  0  0  0  0  0
    2.0790   -0.6450    0.0070 C   0  0  0  0  0  0  0  0  0  0  0  0
    1.3510   -1.8450    0.0310 N   0  0  0  0  0  0  0  0  0  0  0  0
   -0.0320   -1.5090   -0.0210 C   0  0  0  0  0  0  0  0  0  0  0  0
   -0.2400   -0.2280   -0.0740 C   0  0  0  0  0  0  0  0  0  0  0  0
   -1.4750    0.5530   -0.1370 C   0  0  0  0  0  0  0  0  0  0  0  0
   -2.7340   -0.1700   -0.1460 C   0  0  0  0  0  0  0  0  0  0  0  0
   -2.8150   -1.4070   -0.1030 O   0  0  0  0  0  0  0  0  0  0  0  0
   -3.9130    0.5500   -0.2060 O   0  0  0  0  0  0  0  0  0  0  0  0
    1.1020    0.4620   -0.0610 C   0  0  2  0  0  0  0  0  0  0  0  0
    1.2570    1.2300   -1.2670 N   0  0  0  0  0  0  0  0  0  0  0  0
  1  2  2  0
  2  3  1  0
  2 10  1  0
  3  4  1  0
  4  5  2  0
  5  6  1  0
  5 10  1  0
  6  7  1  0
  7  8  2  0
  7  9  1  0
 10 11  1  6
M  CHG  1  11   1
M  END
