
     RDKit          3D

 11 11  0  0  0  0  0  0  0  0999 V2000
    3.7570    0.8820   -0.1330 C   0  0  0  0  0  0  0  0  0  0  0  0
    2.5780    0.3000    0.3490 O   0  0  0  0  0  0  0  0  0  0  0  0
    1.4030    0.1770   -0.3770 C   0  0  0  0  0  0  0  0  0  0  0  0
    1.1260    0.5640   -1.6310 N   0  0  0  0  0  0  0  0  0  0  0  0
   -0.1380    0.2380   -1.9030 N   0  0  0  0  0  0  0  0  0  0  0  0
   -0.7000   -0.3650   -0.8310 C   0  0  0  0  0  0  0  0  0  0  0  0
   -2.0970   -0.8740   -0.7250 C   0  0  0  0  0  0  0  0  0  0  0  0
   -2.9670    0.0890    0.0640 C   0  0  0  0  0  0  0  0  0  0  0  0
   -2.9870    1.3300   -0.6130 O   0  0  0  0  0  0  0  0  0  0  0  0
    0.2720   -0.4130    0.1580 C   0  0  0  0  0  0  0  0  0  0  0  0
    0.1410   -0.9650    1.4710 N   0  0  0  0  0  0  0  0  0  0  0  0
  1  2  1  0
  2  3  1  0
  3  4  1  0
  3 10  2  0
  4  5  1  0
  5  6  2  0
  6  7  1  0
  6 10  1  0
  7  8  1  0
  8  9  1  0
 10 11  1  0
M  CHG  1  11   1
M  END
