
     RDKit          3D

 22 22  0  0  0  0  0  0  0  0999 V2000
   -1.2660    1.9260    2.7990 O   0  0  0  0  0  0  0  0  0  0  0  0
   -1.1860    0.7040    2.5730 C   0  0  0  0  0  0  0  0  0  0  0  0
   -1.3130   -0.1750    3.6210 O   0  0  0  0  0  0  0  0  0  0  0  0
   -0.9630    0.2120    1.2250 C   0  0  2  0  0  0  0  0  0  0  0  0
   -0.7490   -1.1690    1.2680 O   0  0  0  0  0  0  0  0  0  0  0  0
    0.2910    0.8170    0.5970 C   0  0  0  0  0  0  0  0  0  0  0  0
    0.6180    0.0930   -0.6460 C   0  0  2  0  0  0  0  0  0  0  0  0
    1.5940    0.8040   -1.3450 O   0  0  0  0  0  0  0  0  0  0  0  0
    2.7220    0.0300   -1.5220 C   0  0  1  0  0  0  0  0  0  0  0  0
    2.7810   -0.1820   -2.9350 O   0  0  0  0  0  0  0  0  0  0  0  0
    3.8960    0.6500   -1.2010 O   0  0  0  0  0  0  0  0  0  0  0  0
    4.7390   -0.0560   -0.3790 C   0  0  0  0  0  0  0  0  0  0  0  0
    4.1390   -0.3510    0.9610 C   0  0  0  0  0  0  0  0  0  0  0  0
    3.8090    0.8030    1.6600 O   0  0  0  0  0  0  0  0  0  0  0  0
   -0.5220   -0.1120   -1.5910 C   0  0  0  0  0  0  0  0  0  0  0  0
   -1.8320   -0.4320   -0.9150 C   0  0  2  0  0  0  0  0  0  0  0  0
   -1.8440   -1.7400   -0.4350 O   0  0  0  0  0  0  0  0  0  0  0  0
   -2.9090   -0.3560   -1.9620 C   0  0  0  0  0  0  0  0  0  0  0  0
   -4.1680   -0.6960   -1.5500 O   0  0  0  0  0  0  0  0  0  0  0  0
   -2.0640    0.5130    0.2250 C   0  0  1  0  0  0  0  0  0  0  0  0
   -3.4390    0.4930    0.7750 C   0  0  0  0  0  0  0  0  0  0  0  0
   -3.5500    1.4390    1.8030 O   0  0  0  0  0  0  0  0  0  0  0  0
  1  2  2  0
  2  3  1  0
  2  4  1  0
  4  5  1  1
  4  6  1  0
  4 20  1  0
  6  7  1  0
  7  8  1  6
  7 15  1  0
  8  9  1  0
  9 10  1  6
  9 11  1  0
 11 12  1  0
 12 13  1  0
 13 14  1  0
 15 16  1  0
 16 17  1  1
 16 18  1  0
 16 20  1  0
 18 19  1  0
 20 21  1  1
 21 22  1  0
M  END
