
     RDKit          3D

 22 22  0  0  0  0  0  0  0  0999 V2000
   -1.3480    0.7840   -3.9240 O   0  0  0  0  0  0  0  0  0  0  0  0
   -1.5710    0.2100   -2.6890 C   0  0  0  0  0  0  0  0  0  0  0  0
   -2.0020    1.1430   -1.6220 C   0  0  1  0  0  0  0  0  0  0  0  0
   -1.0680    2.1350   -1.3870 O   0  0  0  0  0  0  0  0  0  0  0  0
   -0.6000    2.0610   -0.0980 C   0  0  0  0  0  0  0  0  0  0  0  0
    0.1520    0.7860    0.2240 C   0  0  1  0  0  0  0  0  0  0  0  0
    1.2410    0.7630   -0.6390 O   0  0  0  0  0  0  0  0  0  0  0  0
    0.5390    0.7990    1.6880 C   0  0  0  0  0  0  0  0  0  0  0  0
    1.2400   -0.2390    2.1560 O   0  0  0  0  0  0  0  0  0  0  0  0
    2.4520   -0.5740    1.6730 C   0  0  1  0  0  0  0  0  0  0  0  0
    3.5590   -0.5790    2.7080 C   0  0  0  0  0  0  0  0  0  0  0  0
    4.4610   -1.5570    2.4150 O   0  0  0  0  0  0  0  0  0  0  0  0
    4.7490   -1.5760    1.0570 C   0  0  0  0  0  0  0  0  0  0  0  0
    3.6180   -2.2830    0.2900 C   0  0  1  0  0  0  0  0  0  0  0  0
    3.8660   -3.6430    0.3830 O   0  0  0  0  0  0  0  0  0  0  0  0
    2.3710   -2.0000    1.1390 C   0  0  2  0  0  0  0  0  0  0  0  0
    1.1990   -2.3000    0.5090 O   0  0  0  0  0  0  0  0  0  0  0  0
   -3.2120    1.7630   -1.8060 O   0  0  0  0  0  0  0  0  0  0  0  0
   -4.1830    1.5500   -0.9020 C   0  0  1  0  0  0  0  0  0  0  0  0
   -4.6400    2.7970   -0.4360 O   0  0  0  0  0  0  0  0  0  0  0  0
   -5.3690    0.9070   -1.5970 C   0  0  0  0  0  0  0  0  0  0  0  0
   -4.9500   -0.3010   -2.1500 O   0  0  0  0  0  0  0  0  0  0  0  0
  1  2  1  0
  3  2  1  6
  3  4  1  0
  3 18  1  0
  4  5  1  0
  5  6  1  0
  6  7  1  6
  6  8  1  0
  8  9  1  0
 10  9  1  1
 10 11  1  0
 10 16  1  0
 11 12  1  0
 12 13  1  0
 13 14  1  0
 14 15  1  1
 14 16  1  0
 16 17  1  6
 18 19  1  0
 19 20  1  6
 19 21  1  0
 21 22  1  0
M  END
