
     RDKit          3D

 23 24  0  0  0  0  0  0  0  0999 V2000
   -3.2050   -1.1230    3.0020 O   0  0  0  0  0  0  0  0  0  0  0  0
   -3.4140   -1.3910    1.6530 C   0  0  0  0  0  0  0  0  0  0  0  0
   -2.9740   -0.2010    0.7890 C   0  0  1  0  0  0  0  0  0  0  0  0
   -1.6490    0.0030    1.0210 O   0  0  0  0  0  0  0  0  0  0  0  0
   -0.8880    0.3480   -0.0610 C   0  0  2  0  0  0  0  0  0  0  0  0
    0.2430    1.1070    0.2920 O   0  0  0  0  0  0  0  0  0  0  0  0
    1.4260    0.4740    0.0070 C   0  0  2  0  0  0  0  0  0  0  0  0
    2.1970    0.1620    1.2940 C   0  0  1  0  0  0  0  0  0  0  0  0
    1.8670   -1.2300    1.7790 C   0  0  0  0  0  0  0  0  0  0  0  0
    2.4550   -1.3800    3.0370 O   0  0  0  0  0  0  0  0  0  0  0  0
    3.5370    0.4040    1.1780 O   0  0  0  0  0  0  0  0  0  0  0  0
    4.1330   -0.1120    0.0530 C   0  0  1  0  0  0  0  0  0  0  0  0
    4.2440   -1.5080    0.0770 O   0  0  0  0  0  0  0  0  0  0  0  0
    3.5120    0.3520   -1.2380 C   0  0  1  0  0  0  0  0  0  0  0  0
    2.9520   -0.7320   -1.8940 O   0  0  0  0  0  0  0  0  0  0  0  0
    2.3640    1.2890   -0.8540 C   0  0  1  0  0  0  0  0  0  0  0  0
    1.7810    1.7730   -2.0000 O   0  0  0  0  0  0  0  0  0  0  0  0
   -1.6080    1.0990   -1.1320 C   0  0  2  0  0  0  0  0  0  0  0  0
   -1.8240    2.4130   -0.7350 O   0  0  0  0  0  0  0  0  0  0  0  0
   -2.8520    0.4460   -1.6260 C   0  0  2  0  0  0  0  0  0  0  0  0
   -3.8090    1.4540   -1.8340 O   0  0  0  0  0  0  0  0  0  0  0  0
   -3.3300   -0.5570   -0.6220 C   0  0  2  0  0  0  0  0  0  0  0  0
   -4.7410   -0.5680   -0.7000 O   0  0  0  0  0  0  0  0  0  0  0  0
  1  2  1  0
  3  2  1  1
  3  4  1  0
  3 22  1  0
  4  5  1  0
  5  6  1  1
  5 18  1  0
  7  6  1  1
  7  8  1  0
  7 16  1  0
  8  9  1  6
  8 11  1  0
  9 10  1  0
 11 12  1  0
 12 13  1  1
 12 14  1  0
 14 15  1  1
 14 16  1  0
 16 17  1  6
 18 19  1  1
 18 20  1  0
 20 21  1  1
 20 22  1  0
 22 23  1  1
M  END
