
     RDKit          3D

 23 23  0  0  0  0  0  0  0  0999 V2000
    2.4060   -1.0270    1.7640 O   0  0  0  0  0  0  0  0  0  0  0  0
    2.4320   -0.2720    0.7500 C   0  0  0  0  0  0  0  0  0  0  0  0
    3.6180   -0.2510    0.0360 O   0  0  0  0  0  0  0  0  0  0  0  0
    4.7530   -1.0120    0.3870 C   0  0  0  0  0  0  0  0  0  0  0  0
    5.8380   -0.7000   -0.6520 C   0  0  2  0  0  0  0  0  0  0  0  0
    6.9950   -1.4230   -0.3640 O   0  0  0  0  0  0  0  0  0  0  0  0
    6.1330    0.6520   -0.6940 O   0  0  0  0  0  0  0  0  0  0  0  0
    1.2790    0.5440    0.3370 C   0  0  1  0  0  0  0  0  0  0  0  0
    1.6310    1.2550   -0.8070 O   0  0  0  0  0  0  0  0  0  0  0  0
    0.0850   -0.3330   -0.0650 C   0  0  0  0  0  0  0  0  0  0  0  0
   -1.0020    0.6460    0.2950 C   0  0  1  0  0  0  0  0  0  0  0  0
   -0.8550    1.7980   -0.5250 O   0  0  0  0  0  0  0  0  0  0  0  0
   -2.3910    0.1570    0.2540 C   0  0  2  0  0  0  0  0  0  0  0  0
   -3.4030    1.2300    0.6320 C   0  0  0  0  0  0  0  0  0  0  0  0
   -3.3550    2.3210   -0.2090 O   0  0  0  0  0  0  0  0  0  0  0  0
   -2.7120   -1.0370    1.1080 C   0  0  0  0  0  0  0  0  0  0  0  0
   -1.9980   -2.1630    0.7930 O   0  0  0  0  0  0  0  0  0  0  0  0
   -2.6600   -0.2370   -1.1950 C   0  0  0  0  0  0  0  0  0  0  0  0
   -4.0210   -0.7610   -1.4540 C   0  0  0  0  0  0  0  0  0  0  0  0
   -4.0750   -1.0570   -2.8400 O   0  0  0  0  0  0  0  0  0  0  0  0
   -0.4870    1.0850    1.6440 C   0  0  2  0  0  0  0  0  0  0  0  0
   -1.0730    2.2940    1.9800 O   0  0  0  0  0  0  0  0  0  0  0  0
    0.8540    1.3350    1.3710 O   0  0  0  0  0  0  0  0  0  0  0  0
  1  2  2  0
  2  3  1  0
  2  8  1  0
  3  4  1  0
  4  5  1  0
  5  6  1  1
  5  7  1  0
  8  9  1  6
  8 10  1  0
  8 23  1  0
 10 11  1  0
 11 12  1  6
 11 13  1  0
 11 21  1  0
 13 14  1  1
 13 16  1  0
 13 18  1  0
 14 15  1  0
 16 17  1  0
 18 19  1  0
 19 20  1  0
 21 22  1  6
 21 23  1  0
M  END
