
     RDKit          3D

 23 23  0  0  0  0  0  0  0  0999 V2000
   -1.5750    1.8520   -0.7030 C   0  0  0  0  0  0  0  0  0  0  0  0
   -1.7860    0.5290    0.0050 C   0  0  1  0  0  0  0  0  0  0  0  0
   -2.2110    0.9180    1.3020 O   0  0  0  0  0  0  0  0  0  0  0  0
   -2.8820   -0.2590   -0.6030 C   0  0  2  0  0  0  0  0  0  0  0  0
   -4.2370    0.4620   -0.5600 C   0  0  0  0  0  0  0  0  0  0  0  0
   -5.1690   -0.4130   -1.1690 O   0  0  0  0  0  0  0  0  0  0  0  0
   -3.1220   -1.6210    0.0010 C   0  0  0  0  0  0  0  0  0  0  0  0
   -3.4390   -1.5750    1.3530 O   0  0  0  0  0  0  0  0  0  0  0  0
   -0.5330   -0.2460    0.1960 C   0  0  2  0  0  0  0  0  0  0  0  0
   -0.8360   -1.3290    1.0290 O   0  0  0  0  0  0  0  0  0  0  0  0
    0.5480    0.5340    0.9070 C   0  0  0  0  0  0  0  0  0  0  0  0
    1.5660    0.8160   -0.1550 C   0  0  1  0  0  0  0  0  0  0  0  0
    1.7510    2.2120   -0.1790 O   0  0  0  0  0  0  0  0  0  0  0  0
    2.9060    0.2530    0.1540 C   0  0  0  0  0  0  0  0  0  0  0  0
    3.0370   -0.9920    0.2470 O   0  0  0  0  0  0  0  0  0  0  0  0
    4.0340    1.0140    0.3480 O   0  0  0  0  0  0  0  0  0  0  0  0
    5.3080    0.5340    0.6380 C   0  0  0  0  0  0  0  0  0  0  0  0
    5.8600   -0.3610   -0.3870 C   0  0  0  0  0  0  0  0  0  0  0  0
    5.2180   -0.6480   -1.4180 O   0  0  0  0  0  0  0  0  0  0  0  0
    7.1230   -0.8970   -0.2010 O   0  0  0  0  0  0  0  0  0  0  0  0
    1.0620    0.3370   -1.3310 O   0  0  0  0  0  0  0  0  0  0  0  0
    0.1460   -0.6650   -1.0640 C   0  0  1  0  0  0  0  0  0  0  0  0
    0.8340   -1.8450   -0.8720 O   0  0  0  0  0  0  0  0  0  0  0  0
  2  1  1  6
  2  3  1  0
  2  4  1  0
  2  9  1  0
  4  5  1  1
  4  7  1  0
  5  6  1  0
  7  8  1  0
  9 10  1  1
  9 11  1  0
  9 22  1  0
 11 12  1  0
 12 13  1  6
 12 14  1  0
 12 21  1  0
 14 15  2  0
 14 16  1  0
 16 17  1  0
 17 18  1  0
 18 19  2  0
 18 20  1  0
 21 22  1  0
 22 23  1  1
M  END
