
     RDKit          3D

 22 23  0  0  0  0  0  0  0  0999 V2000
   -4.8650   -0.6610    1.2550 O   0  0  0  0  0  0  0  0  0  0  0  0
   -4.4890    0.3360    0.5860 C   0  0  0  0  0  0  0  0  0  0  0  0
   -5.1590    1.5360    0.5520 O   0  0  0  0  0  0  0  0  0  0  0  0
   -4.8250    2.1770   -0.6670 C   0  0  0  0  0  0  0  0  0  0  0  0
   -3.3890    1.8120   -0.8690 C   0  0  0  0  0  0  0  0  0  0  0  0
   -3.2830    0.4320   -0.2820 C   0  0  1  0  0  0  0  0  0  0  0  0
   -2.1860    0.2530    0.5210 O   0  0  0  0  0  0  0  0  0  0  0  0
   -1.3890   -0.8250    0.2000 C   0  0  1  0  0  0  0  0  0  0  0  0
   -0.1890   -0.3290   -0.2230 O   0  0  0  0  0  0  0  0  0  0  0  0
    0.9330   -0.6530    0.4500 C   0  0  2  0  0  0  0  0  0  0  0  0
    1.1200    0.2540    1.4950 O   0  0  0  0  0  0  0  0  0  0  0  0
    2.1150   -0.3900   -0.5030 C   0  0  0  0  0  0  0  0  0  0  0  0
    2.0780    0.9590   -0.8310 O   0  0  0  0  0  0  0  0  0  0  0  0
    3.0620    1.3780   -1.6850 C   0  0  0  0  0  0  0  0  0  0  0  0
    4.4480    1.1700   -1.1490 C   0  0  2  0  0  0  0  0  0  0  0  0
    4.6360    1.8640    0.0490 O   0  0  0  0  0  0  0  0  0  0  0  0
    5.3610    1.6530   -2.1150 O   0  0  0  0  0  0  0  0  0  0  0  0
    1.0660   -2.0580    0.9210 C   0  0  1  0  0  0  0  0  0  0  0  0
    1.5630   -2.0930    2.2260 O   0  0  0  0  0  0  0  0  0  0  0  0
   -0.2170   -2.8430    0.8830 C   0  0  0  0  0  0  0  0  0  0  0  0
   -1.3130   -1.8690    1.2660 C   0  0  1  0  0  0  0  0  0  0  0  0
   -0.9960   -1.3690    2.5190 O   0  0  0  0  0  0  0  0  0  0  0  0
  1  2  2  0
  2  3  1  0
  2  6  1  0
  3  4  1  0
  4  5  1  0
  5  6  1  0
  6  7  1  1
  8  7  1  1
  8  9  1  0
  8 21  1  0
  9 10  1  0
 10 11  1  1
 10 12  1  0
 10 18  1  0
 12 13  1  0
 13 14  1  0
 14 15  1  0
 15 16  1  1
 15 17  1  0
 18 19  1  1
 18 20  1  0
 20 21  1  0
 21 22  1  1
M  END
