
     RDKit          3D

 22 23  0  0  0  0  0  0  0  0999 V2000
    5.2560    0.3480   -0.3220 C   0  0  0  0  0  0  0  0  0  0  0  0
    3.8690    0.5820   -0.4080 O   0  0  0  0  0  0  0  0  0  0  0  0
    2.9670   -0.2600   -0.9950 C   0  0  0  0  0  0  0  0  0  0  0  0
    3.4160   -1.3240   -1.4940 O   0  0  0  0  0  0  0  0  0  0  0  0
    1.5260    0.0950   -1.0260 C   0  0  2  0  0  0  0  0  0  0  0  0
    1.3540    1.3000   -0.4090 O   0  0  0  0  0  0  0  0  0  0  0  0
    0.0200    1.6720   -0.2440 C   0  0  2  0  0  0  0  0  0  0  0  0
   -0.0600    2.9830    0.4130 C   0  0  0  0  0  0  0  0  0  0  0  0
    0.9370    3.6360    0.7580 O   0  0  0  0  0  0  0  0  0  0  0  0
   -1.3140    3.5250    0.6650 O   0  0  0  0  0  0  0  0  0  0  0  0
   -0.6310    0.5650    0.5020 C   0  0  1  0  0  0  0  0  0  0  0  0
    0.1710    0.2840    1.7490 C   0  0  0  0  0  0  0  0  0  0  0  0
   -2.0810    0.6520    0.7170 C   0  0  1  0  0  0  0  0  0  0  0  0
   -2.7740    1.4830   -0.1360 O   0  0  0  0  0  0  0  0  0  0  0  0
   -2.5890   -0.7890    0.6650 C   0  0  0  0  0  0  0  0  0  0  0  0
   -1.3680   -1.6390    0.2970 C   0  0  1  0  0  0  0  0  0  0  0  0
   -0.7900   -2.1840    1.4290 O   0  0  0  0  0  0  0  0  0  0  0  0
   -1.8730   -2.7630   -0.5630 C   0  0  0  0  0  0  0  0  0  0  0  0
   -2.4780   -2.3340   -1.7340 O   0  0  0  0  0  0  0  0  0  0  0  0
   -0.5130   -0.6630   -0.4170 C   0  0  1  0  0  0  0  0  0  0  0  0
   -1.0030   -0.4040   -1.6810 O   0  0  0  0  0  0  0  0  0  0  0  0
    0.8380   -0.9620   -0.4420 O   0  0  0  0  0  0  0  0  0  0  0  0
  1  2  1  0
  2  3  1  0
  3  4  2  0
  5  3  1  1
  5  6  1  0
  5 22  1  0
  6  7  1  0
  7  8  1  1
  7 11  1  0
  8  9  2  0
  8 10  1  0
 11 12  1  1
 11 13  1  0
 11 20  1  0
 13 14  1  6
 13 15  1  0
 15 16  1  0
 16 17  1  1
 16 18  1  0
 16 20  1  0
 18 19  1  0
 20 21  1  6
 20 22  1  0
M  END
