
     RDKit          3D

 15 15  0  0  0  0  0  0  0  0999 V2000
    3.7040   -1.0900    0.3330 C   0  0  0  0  0  0  0  0  0  0  0  0
    2.2110   -1.2800    0.3850 C   0  0  0  0  0  0  0  0  0  0  0  0
    1.5300   -0.1470   -0.0540 O   0  0  0  0  0  0  0  0  0  0  0  0
    0.1590   -0.0680   -0.1020 C   0  0  0  0  0  0  0  0  0  0  0  0
   -0.5670   -1.1920    0.3150 C   0  0  0  0  0  0  0  0  0  0  0  0
   -1.9440   -1.1560    0.2840 C   0  0  0  0  0  0  0  0  0  0  0  0
   -2.6540   -2.3130    0.7130 N   0  0  0  0  0  0  0  0  0  0  0  0
   -2.5840   -0.0240   -0.1540 C   0  0  0  0  0  0  0  0  0  0  0  0
   -4.3720    0.0360   -0.2010 S   0  0  0  0  0  0  0  0  0  0  0  0
   -1.8520    1.0950   -0.5700 C   0  0  0  0  0  0  0  0  0  0  0  0
   -0.4860    1.0600   -0.5390 C   0  0  0  0  0  0  0  0  0  0  0  0
    0.2480    2.1450   -0.9410 O   0  0  0  0  0  0  0  0  0  0  0  0
    0.6160    3.1340   -0.0350 C   0  0  0  0  0  0  0  0  0  0  0  0
    0.2590    3.0040    1.1520 O   0  0  0  0  0  0  0  0  0  0  0  0
    1.3530    4.2480   -0.3760 O   0  0  0  0  0  0  0  0  0  0  0  0
  1  2  1  0
  2  3  1  0
  3  4  1  0
  4  5  2  0
  4 11  1  0
  5  6  1  0
  6  7  1  0
  6  8  2  0
  8  9  1  0
  8 10  1  0
 10 11  2  0
 11 12  1  0
 12 13  1  0
 13 14  2  0
 13 15  1  0
M  END
