
     RDKit          3D

 15 15  0  0  0  0  0  0  0  0999 V2000
    4.1220    1.1850    0.1280 C   0  0  0  0  0  0  0  0  0  0  0  0
    3.3400    0.1130    0.7050 N   0  0  0  0  0  0  0  0  0  0  0  0
    2.0840   -0.3250    0.1900 C   0  0  0  0  0  0  0  0  0  0  0  0
    1.6810    0.2980   -0.8320 O   0  0  0  0  0  0  0  0  0  0  0  0
    1.3140   -1.4300    0.8140 C   0  0  0  0  0  0  0  0  0  0  0  0
    0.1070   -1.6440    0.1840 O   0  0  0  0  0  0  0  0  0  0  0  0
   -0.9700   -0.8200    0.0310 C   0  0  0  0  0  0  0  0  0  0  0  0
   -0.9450    0.4430    0.5750 C   0  0  0  0  0  0  0  0  0  0  0  0
   -2.0080    1.3120    0.4450 C   0  0  0  0  0  0  0  0  0  0  0  0
   -1.9830    2.9360    1.1400 S   0  0  0  0  0  0  0  0  0  0  0  0
   -3.1350    0.9140   -0.2480 C   0  0  0  0  0  0  0  0  0  0  0  0
   -3.1690   -0.3490   -0.7950 C   0  0  0  0  0  0  0  0  0  0  0  0
   -4.2860   -0.7980   -1.5050 O   0  0  0  0  0  0  0  0  0  0  0  0
   -2.1120   -1.2080   -0.6640 C   0  0  0  0  0  0  0  0  0  0  0  0
   -2.1160   -2.4880   -1.2050 O   0  0  0  0  0  0  0  0  0  0  0  0
  1  2  1  0
  2  3  1  0
  3  4  2  0
  3  5  1  0
  5  6  1  0
  6  7  1  0
  7  8  2  0
  7 14  1  0
  8  9  1  0
  9 10  1  0
  9 11  2  0
 11 12  1  0
 12 13  1  0
 12 14  2  0
 14 15  1  0
M  END
