
     RDKit          3D

 15 15  0  0  0  0  0  0  0  0999 V2000
    5.6710    1.4530   -0.4910 N   0  0  0  0  0  0  0  0  0  0  0  0
    4.9880    0.5040    0.2670 C   0  0  0  0  0  0  0  0  0  0  0  0
    5.6050   -0.1570    1.1320 O   0  0  0  0  0  0  0  0  0  0  0  0
    3.5550    0.2230    0.1100 C   0  0  0  0  0  0  0  0  0  0  0  0
    2.7630   -0.7070    0.7920 C   0  0  0  0  0  0  0  0  0  0  0  0
    1.4750   -0.7570    0.4650 C   0  0  0  0  0  0  0  0  0  0  0  0
    0.9770    0.0760   -0.4970 C   0  0  0  0  0  0  0  0  0  0  0  0
   -0.3810    0.2400   -1.0240 C   0  0  0  0  0  0  0  0  0  0  0  0
   -1.2910   -0.4510   -0.2000 O   0  0  0  0  0  0  0  0  0  0  0  0
   -2.6330   -0.4270   -0.4700 C   0  0  0  0  0  0  0  0  0  0  0  0
   -3.0420    0.2250   -1.4680 O   0  0  0  0  0  0  0  0  0  0  0  0
   -3.5970   -1.1670    0.4150 C   0  0  0  0  0  0  0  0  0  0  0  0
   -4.6210   -0.1510    0.9150 C   0  0  0  0  0  0  0  0  0  0  0  0
   -5.2730    0.3960   -0.1910 O   0  0  0  0  0  0  0  0  0  0  0  0
    2.4170    1.0060   -0.9920 S   0  0  0  0  0  0  0  0  0  0  0  0
  1  2  1  0
  2  3  2  0
  2  4  1  0
  4  5  2  0
  4 15  1  0
  5  6  1  0
  6  7  2  0
  7  8  1  0
  7 15  1  0
  8  9  1  0
  9 10  1  0
 10 11  2  0
 10 12  1  0
 12 13  1  0
 13 14  1  0
M  END
