
     RDKit          3D

 15 15  0  0  0  0  0  0  0  0999 V2000
   -3.4460   -2.4940   -0.3070 C   0  0  0  0  0  0  0  0  0  0  0  0
   -2.6190   -1.2350   -0.1500 C   0  0  0  0  0  0  0  0  0  0  0  0
   -1.3210   -1.1240    0.0550 C   0  0  0  0  0  0  0  0  0  0  0  0
   -0.8180    0.1440    0.2080 C   0  0  0  0  0  0  0  0  0  0  0  0
    0.6570    0.2590    0.4460 C   0  0  0  0  0  0  0  0  0  0  0  0
    1.0680   -0.2820    1.4510 O   0  0  0  0  0  0  0  0  0  0  0  0
    1.3440    0.8820   -0.5250 O   0  0  0  0  0  0  0  0  0  0  0  0
    2.7930    0.8800   -0.4020 C   0  0  0  0  0  0  0  0  0  0  0  0
    3.1840   -0.5410   -0.6230 C   0  0  0  0  0  0  0  0  0  0  0  0
    4.5330   -0.9410   -0.6010 N   0  0  0  0  0  0  0  0  0  0  0  0
    2.2780   -1.4340   -0.8110 O   0  0  0  0  0  0  0  0  0  0  0  0
   -1.6250    1.1390    0.1210 C   0  0  0  0  0  0  0  0  0  0  0  0
   -1.4080    2.6320    0.3120 C   0  0  0  0  0  0  0  0  0  0  0  0
   -1.9960    3.1950   -0.8930 O   0  0  0  0  0  0  0  0  0  0  0  0
   -3.1920    0.3940   -0.1740 S   0  0  0  0  0  0  0  0  0  0  0  0
  1  2  1  0
  2  3  2  0
  2 15  1  0
  3  4  1  0
  4  5  1  0
  4 12  2  0
  5  6  2  0
  5  7  1  0
  7  8  1  0
  8  9  1  0
  9 10  1  0
  9 11  2  0
 12 13  1  0
 12 15  1  0
 13 14  1  0
M  END
