
     RDKit          3D

 15 15  0  0  0  0  0  0  0  0999 V2000
    5.6970    0.3620   -0.0170 C   0  0  0  0  0  0  0  0  0  0  0  0
    4.3390    0.6680    0.2220 O   0  0  0  0  0  0  0  0  0  0  0  0
    3.3010   -0.1920   -0.1520 C   0  0  0  0  0  0  0  0  0  0  0  0
    3.5730   -1.2700   -0.7170 O   0  0  0  0  0  0  0  0  0  0  0  0
    1.9250    0.2630    0.1640 C   0  0  0  0  0  0  0  0  0  0  0  0
    0.9450   -0.6440   -0.2380 O   0  0  0  0  0  0  0  0  0  0  0  0
   -0.3810   -0.3550   -0.0090 C   0  0  0  0  0  0  0  0  0  0  0  0
   -0.7360    0.8110    0.6060 C   0  0  0  0  0  0  0  0  0  0  0  0
   -2.0630    1.0860    0.8270 C   0  0  0  0  0  0  0  0  0  0  0  0
   -3.0280    0.1800    0.4250 C   0  0  0  0  0  0  0  0  0  0  0  0
   -4.7740    0.5090    0.7000 S   0  0  0  0  0  0  0  0  0  0  0  0
   -5.4390    1.3390   -0.6260 O   0  0  0  0  0  0  0  0  0  0  0  0
   -2.6970   -0.9980   -0.1940 C   0  0  0  0  0  0  0  0  0  0  0  0
   -3.6710   -1.9480   -0.6180 N   0  0  0  0  0  0  0  0  0  0  0  0
   -1.3510   -1.2440   -0.4020 C   0  0  0  0  0  0  0  0  0  0  0  0
  1  2  1  0
  2  3  1  0
  3  4  2  0
  3  5  1  0
  5  6  1  0
  6  7  1  0
  7  8  2  0
  7 15  1  0
  8  9  1  0
  9 10  2  0
 10 11  1  0
 10 13  1  0
 11 12  1  0
 13 14  1  0
 13 15  2  0
M  END
