
     RDKit          3D

 35 38  0  0  0  0  0  0  0  0999 V2000
   -0.3720   -0.9410   -0.8220 O   0  0  0  0  0  0  0  0  0  0  0  0
   -0.6370    0.0740   -0.1490 C   0  0  0  0  0  0  0  0  0  0  0  0
   -1.9760    0.3270    0.2800 N   0  0  0  0  0  0  0  0  0  0  0  0
   -3.0050   -0.5830   -0.0630 C   0  0  0  0  0  0  0  0  0  0  0  0
   -2.9310   -1.7190   -0.7700 N   0  0  0  0  0  0  0  0  0  0  0  0
   -4.1270   -2.2740   -0.8640 N   0  0  0  0  0  0  0  0  0  0  0  0
   -5.0280   -1.4770   -0.1930 C   0  0  0  0  0  0  0  0  0  0  0  0
   -4.3210   -0.4570    0.2840 N   0  0  0  0  0  0  0  0  0  0  0  0
   -4.9820    0.5570    1.0370 C   0  0  0  0  0  0  0  0  0  0  0  0
   -6.2810    0.4430    1.2340 C   0  0  0  0  0  0  0  0  0  0  0  0
   -6.6340    1.6580    2.0470 C   0  0  0  0  0  0  0  0  0  0  0  0
   -5.5500    2.4880    1.9210 O   0  0  0  0  0  0  0  0  0  0  0  0
   -4.4910    1.6900    1.6270 O   0  0  0  0  0  0  0  0  0  0  0  0
   -7.0190   -0.6080    0.7450 O   0  0  0  0  0  0  0  0  0  0  0  0
   -6.4860   -1.6310    0.0120 C   0  0  1  0  0  0  0  0  0  0  0  0
   -7.1460   -1.8250   -1.3440 C   0  0  0  0  0  0  0  0  0  0  0  0
   -6.9790   -0.6420   -2.0450 O   0  0  0  0  0  0  0  0  0  0  0  0
   -7.5410   -0.7560   -3.2460 O   0  0  0  0  0  0  0  0  0  0  0  0
    0.4110    0.9310    0.1580 O   0  0  0  0  0  0  0  0  0  0  0  0
    1.7500    0.6730   -0.2740 C   0  0  2  0  0  0  0  0  0  0  0  0
    2.5590    0.5060    1.0190 C   0  0  0  0  0  0  0  0  0  0  0  0
    2.5820   -0.9260    1.4770 C   0  0  0  0  0  0  0  0  0  0  0  0
    4.3860   -1.3860    1.7190 P   0  0  0  0  0  0  0  0  0  0  0  0
    5.2940    0.0460    2.0940 O   0  0  0  0  0  0  0  0  0  0  0  0
    4.9970   -1.9900    0.2090 O   0  0  0  0  0  0  0  0  0  0  0  0
    6.6780   -1.5650    0.1290 P   0  0  0  0  0  0  0  0  0  0  0  0
    7.3950   -1.9910    1.6540 O   0  0  0  0  0  0  0  0  0  0  0  0
    6.7410    0.1840    0.0080 O   0  0  0  0  0  0  0  0  0  0  0  0
    6.6980    0.5830   -1.3210 C   0  0  0  0  0  0  0  0  0  0  0  0
    5.6440    1.6400   -1.5780 C   0  0  2  0  0  0  0  0  0  0  0  0
    5.4920    2.3970   -0.4380 O   0  0  0  0  0  0  0  0  0  0  0  0
    4.3490    0.9620   -2.0100 C   0  0  0  0  0  0  0  0  0  0  0  0
    3.2490    1.8220   -1.9570 O   0  0  0  0  0  0  0  0  0  0  0  0
    2.2880    1.8450   -0.9800 C   0  0  0  0  0  0  0  0  0  0  0  0
    1.8130    2.9820   -0.6500 O   0  0  0  0  0  0  0  0  0  0  0  0
  1  2  2  0
  2  3  1  0
  2 19  1  0
  3  4  1  0
  4  5  2  0
  4  8  1  0
  5  6  1  0
  6  7  2  0
  7  8  1  0
  7 15  1  0
  8  9  1  0
  9 10  2  0
  9 13  1  0
 10 11  1  0
 10 14  1  0
 11 12  1  0
 12 13  1  0
 14 15  1  0
 15 16  1  6
 16 17  1  0
 17 18  1  0
 20 19  1  1
 20 21  1  0
 20 34  1  0
 21 22  1  0
 22 23  1  0
 23 24  1  0
 23 25  1  0
 25 26  1  0
 26 27  1  0
 26 28  1  0
 28 29  1  0
 29 30  1  0
 30 31  1  1
 30 32  1  0
 32 33  1  0
 33 34  1  0
 34 35  2  0
M  END
