
     RDKit          3D

 34 36  0  0  0  0  0  0  0  0999 V2000
    8.1430    2.1690   -0.0110 O   0  0  0  0  0  0  0  0  0  0  0  0
    8.0750    0.7700    0.6960 P   0  0  0  0  0  0  0  0  0  0  0  0
    7.3930   -0.5580   -0.2020 O   0  0  0  0  0  0  0  0  0  0  0  0
    6.9820   -1.8780    0.8220 P   0  0  0  0  0  0  0  0  0  0  0  0
    7.3100   -3.4020    0.1080 O   0  0  0  0  0  0  0  0  0  0  0  0
    5.3640   -1.7550    1.4640 O   0  0  0  0  0  0  0  0  0  0  0  0
    4.3580   -1.0630    0.8060 C   0  0  0  0  0  0  0  0  0  0  0  0
    4.6980   -0.5240   -0.3010 O   0  0  0  0  0  0  0  0  0  0  0  0
    3.0630   -0.9480    1.2930 O   0  0  0  0  0  0  0  0  0  0  0  0
    2.1380   -0.2150    0.5200 C   0  0  2  0  0  0  0  0  0  0  0  0
    1.5710    0.9650    1.2730 C   0  0  0  0  0  0  0  0  0  0  0  0
    0.7040    1.7780    0.3550 C   0  0  1  0  0  0  0  0  0  0  0  0
    0.2850    1.0660   -0.8710 C   0  0  0  0  0  0  0  0  0  0  0  0
    0.0590   -0.3670   -0.7880 N   0  0  0  0  0  0  0  0  0  0  0  0
   -0.9640   -1.0960   -1.4970 C   0  0  0  0  0  0  0  0  0  0  0  0
   -2.3040   -1.2300   -0.8510 C   0  0  2  0  0  0  0  0  0  0  0  0
   -2.4210   -2.2730    0.1570 C   0  0  0  0  0  0  0  0  0  0  0  0
   -2.0640   -2.0700    1.5210 N   0  0  0  0  0  0  0  0  0  0  0  0
   -1.6450   -1.0540    2.3710 C   0  0  0  0  0  0  0  0  0  0  0  0
   -0.5110   -1.4190    2.9820 O   0  0  0  0  0  0  0  0  0  0  0  0
   -2.0140    0.2170    2.8010 N   0  0  0  0  0  0  0  0  0  0  0  0
   -2.2130    1.4600    2.1450 C   0  0  0  0  0  0  0  0  0  0  0  0
   -3.0410    2.3350    2.6060 O   0  0  0  0  0  0  0  0  0  0  0  0
   -1.5310    1.8980    0.9010 C   0  0  2  0  0  0  0  0  0  0  0  0
   -0.2980    2.4970    1.0400 O   0  0  0  0  0  0  0  0  0  0  0  0
   -2.4820    2.5880    0.0030 C   0  0  0  0  0  0  0  0  0  0  0  0
   -2.6980    3.8150    0.3640 O   0  0  0  0  0  0  0  0  0  0  0  0
   -3.1380    2.0850   -1.1340 N   0  0  0  0  0  0  0  0  0  0  0  0
   -4.0540    0.9950   -1.2870 C   0  0  2  0  0  0  0  0  0  0  0  0
   -4.6030    0.5130   -0.0990 O   0  0  0  0  0  0  0  0  0  0  0  0
   -3.7000   -0.0390   -2.2870 C   0  0  0  0  0  0  0  0  0  0  0  0
   -3.2420   -1.2570   -1.8770 O   0  0  0  0  0  0  0  0  0  0  0  0
    1.0040   -1.0530    0.0660 C   0  0  0  0  0  0  0  0  0  0  0  0
    0.8400   -2.2410    0.3640 O   0  0  0  0  0  0  0  0  0  0  0  0
  1  2  2  0
  2  3  1  0
  3  4  1  0
  4  5  1  0
  4  6  1  0
  6  7  1  0
  7  8  2  0
  7  9  1  0
 10  9  1  1
 10 11  1  0
 10 33  1  0
 12 11  1  1
 12 13  1  0
 12 25  1  0
 13 14  1  0
 14 15  1  0
 14 33  1  0
 15 16  1  0
 16 17  1  6
 16 32  1  0
 17 18  1  0
 18 19  1  0
 19 20  2  0
 19 21  1  0
 21 22  1  0
 22 23  2  0
 24 22  1  1
 24 25  1  0
 24 26  1  0
 26 27  2  0
 26 28  1  0
 28 29  1  0
 29 30  1  1
 29 31  1  0
 31 32  1  0
 33 34  2  0
M  END
