
     RDKit          3D

 35 39  0  0  0  0  0  0  0  0999 V2000
    1.6180   -4.1990   -0.7930 O   0  0  0  0  0  0  0  0  0  0  0  0
    1.1190   -3.0560   -0.3970 C   0  0  0  0  0  0  0  0  0  0  0  0
   -0.2210   -3.0880   -0.8550 C   0  0  0  0  0  0  0  0  0  0  0  0
   -0.9990   -3.9440   -1.5340 N   0  0  0  0  0  0  0  0  0  0  0  0
   -2.2450   -3.3830   -1.6700 C   0  0  0  0  0  0  0  0  0  0  0  0
   -2.2400   -2.1810   -1.0760 N   0  0  0  0  0  0  0  0  0  0  0  0
   -1.0300   -2.0210   -0.5970 C   0  0  0  0  0  0  0  0  0  0  0  0
   -0.5540   -0.9870    0.0700 N   0  0  0  0  0  0  0  0  0  0  0  0
    0.7490   -0.9540    0.5170 C   0  0  0  0  0  0  0  0  0  0  0  0
    1.5670   -1.9860    0.2780 N   0  0  0  0  0  0  0  0  0  0  0  0
    2.9630   -1.9420    0.7610 C   0  0  2  0  0  0  0  0  0  0  0  0
    3.4230   -0.9060    1.4850 O   0  0  0  0  0  0  0  0  0  0  0  0
    3.9470    0.0510    0.7080 C   0  0  2  0  0  0  0  0  0  0  0  0
    3.3220    1.4000    0.8080 C   0  0  0  0  0  0  0  0  0  0  0  0
    2.5270    1.7080   -0.3030 O   0  0  0  0  0  0  0  0  0  0  0  0
    1.5340    3.0400    0.0100 P   0  0  2  0  0  0  0  0  0  0  0  0
    0.9270    3.5910   -1.2450 O   0  0  0  0  0  0  0  0  0  0  0  0
    2.5350    4.2680    0.6540 O   0  0  0  0  0  0  0  0  0  0  0  0
    0.3310    2.7280    1.1220 O   0  0  0  0  0  0  0  0  0  0  0  0
   -1.1600    3.3760    0.7550 P   0  0  1  0  0  0  0  0  0  0  0  0
   -1.9510    3.4930    2.0410 O   0  0  0  0  0  0  0  0  0  0  0  0
   -0.9080    4.9820    0.2180 O   0  0  0  0  0  0  0  0  0  0  0  0
   -2.0070    2.5200   -0.4180 O   0  0  0  0  0  0  0  0  0  0  0  0
   -3.2970    2.2550    0.0400 C   0  0  0  0  0  0  0  0  0  0  0  0
   -3.6880    0.8780   -0.4130 C   0  0  1  0  0  0  0  0  0  0  0  0
   -2.5810    0.0650   -0.6450 O   0  0  0  0  0  0  0  0  0  0  0  0
   -3.2250   -1.1690   -0.9040 C   0  0  2  0  0  0  0  0  0  0  0  0
   -4.0510   -1.3310    0.3490 C   0  0  2  0  0  0  0  0  0  0  0  0
   -5.2000   -2.0650   -0.0100 O   0  0  0  0  0  0  0  0  0  0  0  0
   -4.4030    0.1040    0.6820 C   0  0  1  0  0  0  0  0  0  0  0  0
   -3.9090    0.4900    1.9260 O   0  0  0  0  0  0  0  0  0  0  0  0
    3.9620   -0.4860   -0.7380 C   0  0  1  0  0  0  0  0  0  0  0  0
    5.1410   -0.1150   -1.3290 O   0  0  0  0  0  0  0  0  0  0  0  0
    4.0120   -1.9770   -0.3490 C   0  0  1  0  0  0  0  0  0  0  0  0
    5.2420   -2.3520    0.1160 O   0  0  0  0  0  0  0  0  0  0  0  0
  1  2  2  0
  2  3  1  0
  2 10  1  0
  3  4  1  0
  3  7  2  0
  4  5  2  0
  5  6  1  0
  6  7  1  0
 27  6  1  1
  7  8  1  0
  8  9  2  0
  9 10  1  0
 11 10  1  6
 11 12  1  0
 11 34  1  0
 12 13  1  0
 13 14  1  6
 13 32  1  0
 14 15  1  0
 15 16  1  0
 16 17  2  0
 16 18  1  1
 16 19  1  0
 19 20  1  0
 20 21  2  0
 20 22  1  6
 20 23  1  0
 23 24  1  0
 25 24  1  1
 25 26  1  0
 25 30  1  0
 26 27  1  0
 27 28  1  0
 28 29  1  6
 28 30  1  0
 30 31  1  1
 32 33  1  6
 32 34  1  0
 34 35  1  1
M  END
