
     RDKit          3D

 35 37  0  0  0  0  0  0  0  0999 V2000
   -5.7950    0.0880   -1.2190 N   0  0  0  0  0  0  0  0  0  0  0  0
   -4.4580   -0.4000   -1.4780 C   0  0  0  0  0  0  0  0  0  0  0  0
   -3.5910   -0.3150   -0.2260 C   0  0  2  0  0  0  0  0  0  0  0  0
   -3.5550    1.0950    0.3140 C   0  0  0  0  0  0  0  0  0  0  0  0
   -3.2110    2.0540   -0.7120 N   0  0  0  0  0  0  0  0  0  0  0  0
   -3.3130    3.4610   -0.5820 C   0  0  0  0  0  0  0  0  0  0  0  0
   -3.7910    4.0710   -1.6040 O   0  0  0  0  0  0  0  0  0  0  0  0
   -2.9170    4.0950    0.5720 O   0  0  0  0  0  0  0  0  0  0  0  0
   -1.3550    4.1370    1.2960 P   0  0  0  0  0  0  0  0  0  0  0  0
   -0.3250    5.3640    0.6330 O   0  0  0  0  0  0  0  0  0  0  0  0
   -0.5080    2.6240    1.2720 O   0  0  0  0  0  0  0  0  0  0  0  0
    0.2050    2.5520    0.1050 C   0  0  0  0  0  0  0  0  0  0  0  0
    1.5350    1.8400    0.2400 C   0  0  1  0  0  0  0  0  0  0  0  0
    2.3990    2.7170    0.8890 O   0  0  0  0  0  0  0  0  0  0  0  0
    1.4010    0.5960    1.0290 C   0  0  2  0  0  0  0  0  0  0  0  0
    1.7960    0.8320    2.3610 O   0  0  0  0  0  0  0  0  0  0  0  0
    2.6050   -0.1170    2.7060 O   0  0  0  0  0  0  0  0  0  0  0  0
    2.4530   -1.1360    1.9110 O   0  0  0  0  0  0  0  0  0  0  0  0
    2.4070   -0.4890    0.6390 C   0  0  2  0  0  0  0  0  0  0  0  0
    3.7410    0.0890    0.4230 C   0  0  0  0  0  0  0  0  0  0  0  0
    4.9010   -0.7200    0.0480 C   0  0  0  0  0  0  0  0  0  0  0  0
    4.7930   -1.5800   -1.5830 P   0  0  0  0  0  0  0  0  0  0  0  0
    5.9440   -2.8710   -1.6820 O   0  0  0  0  0  0  0  0  0  0  0  0
    5.0710   -0.4420   -2.8610 O   0  0  0  0  0  0  0  0  0  0  0  0
    1.8480   -1.4700   -0.3090 C   0  0  1  0  0  0  0  0  0  0  0  0
    1.9630   -2.9190    0.1390 C   0  0  0  0  0  0  0  0  0  0  0  0
    1.4360   -2.9760    1.4740 O   0  0  0  0  0  0  0  0  0  0  0  0
    0.1100   -2.5740    1.5930 C   0  0  0  0  0  0  0  0  0  0  0  0
   -0.6100   -2.7950    2.5880 O   0  0  0  0  0  0  0  0  0  0  0  0
   -0.4560   -1.8620    0.4990 N   0  0  0  0  0  0  0  0  0  0  0  0
    0.3490   -1.2820   -0.5560 C   0  0  0  0  0  0  0  0  0  0  0  0
   -1.8960   -1.7240    0.4560 C   0  0  1  0  0  0  0  0  0  0  0  0
   -2.4050   -3.0160   -0.0200 N   0  0  0  0  0  0  0  0  0  0  0  0
   -2.4010   -1.5180    1.7180 O   0  0  0  0  0  0  0  0  0  0  0  0
   -2.3230   -0.7770   -0.4680 O   0  0  0  0  0  0  0  0  0  0  0  0
  1  2  1  0
  3  2  1  6
  3  4  1  0
  3 35  1  0
  4  5  1  0
  5  6  1  0
  6  7  2  0
  6  8  1  0
  8  9  1  0
  9 10  1  0
  9 11  1  0
 11 12  1  0
 12 13  1  0
 13 14  1  1
 13 15  1  0
 15 16  1  1
 15 19  1  0
 16 17  1  0
 17 18  1  0
 18 19  1  0
 19 20  1  6
 19 25  1  0
 20 21  1  0
 21 22  1  0
 22 23  1  0
 22 24  1  0
 25 26  1  1
 25 31  1  0
 26 27  1  0
 27 28  1  0
 28 29  2  0
 28 30  1  0
 30 31  1  0
 30 32  1  0
 32 33  1  6
 32 34  1  0
 32 35  1  0
M  END
