
     RDKit          3D

 22 24  0  0  0  0  0  0  0  0999 V2000
   -1.5140    3.9260    1.2870 C   0  0  0  0  0  0  0  0  0  0  0  0
   -1.9170    2.7100    0.6700 O   0  0  0  0  0  0  0  0  0  0  0  0
   -1.0410    1.8980   -0.0330 C   0  0  0  0  0  0  0  0  0  0  0  0
    0.1530    2.2820   -0.1090 O   0  0  0  0  0  0  0  0  0  0  0  0
   -1.4940    0.6490   -0.6560 C   0  0  1  0  0  0  0  0  0  0  0  0
   -0.3840   -0.0650   -1.3600 C   0  0  1  0  0  0  0  0  0  0  0  0
    0.8130   -0.1260   -0.6250 O   0  0  0  0  0  0  0  0  0  0  0  0
    2.0230    0.3910   -1.0520 C   0  0  0  0  0  0  0  0  0  0  0  0
    2.0420    0.9500   -2.1740 O   0  0  0  0  0  0  0  0  0  0  0  0
    3.2480    0.3200   -0.2800 C   0  0  0  0  0  0  0  0  0  0  0  0
    4.3930    0.8700   -0.8070 C   0  0  0  0  0  0  0  0  0  0  0  0
    5.6070    0.8550   -0.1540 C   0  0  0  0  0  0  0  0  0  0  0  0
    5.6810    0.2540    1.0990 C   0  0  0  0  0  0  0  0  0  0  0  0
    4.5560   -0.2970    1.6390 C   0  0  0  0  0  0  0  0  0  0  0  0
    3.3360   -0.2680    0.9550 C   0  0  0  0  0  0  0  0  0  0  0  0
   -0.7640   -1.4840   -1.7200 C   0  0  0  0  0  0  0  0  0  0  0  0
   -1.7280   -2.1040   -0.7640 C   0  0  2  0  0  0  0  0  0  0  0  0
   -3.1550   -1.7400   -1.1800 C   0  0  0  0  0  0  0  0  0  0  0  0
   -3.5710   -0.6770   -0.1800 C   0  0  0  0  0  0  0  0  0  0  0  0
   -2.2190   -0.2230    0.3500 C   0  0  1  0  0  0  0  0  0  0  0  0
   -1.5500   -1.5010    0.5350 N   0  0  1  0  0  0  0  0  0  0  0  0
   -2.2400   -2.2050    1.5880 C   0  0  0  0  0  0  0  0  0  0  0  0
  1  2  1  0
  2  3  1  0
  3  4  2  0
  5  3  1  1
  5  6  1  0
  5 20  1  0
  6  7  1  1
  6 16  1  0
  7  8  1  0
  8  9  2  0
  8 10  1  0
 10 11  2  0
 10 15  1  0
 11 12  1  0
 12 13  2  0
 13 14  1  0
 14 15  2  0
 17 16  1  6
 17 18  1  0
 17 21  1  0
 18 19  1  0
 20 19  1  6
 20 21  1  0
 21 22  1  1
M  CHG  1  21   1
M  END
