
     RDKit          3D

 11 12  0  0  0  0  0  0  0  0999 V2000
    3.0250   -2.3240    0.0100 Cl  0  0  0  0  0  0  0  0  0  0  0  0
    1.7270   -1.1560    0.0150 C   0  0  0  0  0  0  0  0  0  0  0  0
    2.0200    0.1890    0.1070 C   0  0  0  0  0  0  0  0  0  0  0  0
    1.0180    1.1280    0.1130 C   0  0  0  0  0  0  0  0  0  0  0  0
    1.3870    2.8380    0.2290 Cl  0  0  0  0  0  0  0  0  0  0  0  0
   -0.3000    0.7410    0.0280 C   0  0  0  0  0  0  0  0  0  0  0  0
   -1.4770    1.3520    0.0080 N   0  0  0  0  0  0  0  0  0  0  0  0
   -2.4740    0.5110   -0.0880 N   0  0  0  0  0  0  0  0  0  0  0  0
   -1.9330   -0.7260   -0.1340 C   0  0  0  0  0  0  0  0  0  0  0  0
   -0.5580   -0.6320   -0.0630 C   0  0  0  0  0  0  0  0  0  0  0  0
    0.4540   -1.5240   -0.0660 N   0  0  0  0  0  0  0  0  0  0  0  0
  1  2  1  0
  2  3  1  0
  2 11  2  0
  3  4  2  0
  4  5  1  0
  4  6  1  0
  6  7  2  0
  6 10  1  0
  7  8  1  0
  8  9  1  0
  9 10  2  0
 10 11  1  0
M  END
