
     RDKit          3D

 11 12  0  0  0  0  0  0  0  0999 V2000
    3.9860   -0.2970    0.0390 Cl  0  0  0  0  0  0  0  0  0  0  0  0
    2.2450   -0.0240    0.0250 C   0  0  0  0  0  0  0  0  0  0  0  0
    1.3410   -1.0670   -0.0060 C   0  0  0  0  0  0  0  0  0  0  0  0
   -0.0290   -0.8440   -0.0170 C   0  0  0  0  0  0  0  0  0  0  0  0
   -1.1220   -1.6170   -0.0450 N   0  0  0  0  0  0  0  0  0  0  0  0
   -2.2270   -0.8870   -0.0430 N   0  0  0  0  0  0  0  0  0  0  0  0
   -1.8380    0.4040   -0.0130 C   0  0  0  0  0  0  0  0  0  0  0  0
   -0.4580    0.4670    0.0040 C   0  0  0  0  0  0  0  0  0  0  0  0
    0.4650    1.5040    0.0350 C   0  0  0  0  0  0  0  0  0  0  0  0
   -0.1660    3.1330    0.0600 Cl  0  0  0  0  0  0  0  0  0  0  0  0
    1.7760    1.2420    0.0450 N   0  0  0  0  0  0  0  0  0  0  0  0
  1  2  1  0
  2  3  2  0
  2 11  1  0
  3  4  1  0
  4  5  2  0
  4  8  1  0
  5  6  1  0
  6  7  1  0
  7  8  2  0
  8  9  1  0
  9 10  1  0
  9 11  2  0
M  END
