
     RDKit          3D

 11 12  0  0  0  0  0  0  0  0999 V2000
    2.9900   -1.9600    0.4020 Cl  0  0  0  0  0  0  0  0  0  0  0  0
    2.0320   -0.5140    0.1760 C   0  0  0  0  0  0  0  0  0  0  0  0
    0.7150   -0.4490    0.0970 C   0  0  0  0  0  0  0  0  0  0  0  0
   -0.3450   -1.4000    0.1550 N   0  0  0  0  0  0  0  0  0  0  0  0
   -1.7380   -1.0690    0.1650 C   0  0  0  0  0  0  0  0  0  0  0  0
   -2.0620    0.2820   -0.3560 C   0  0  0  0  0  0  0  0  0  0  0  0
   -1.0220    1.2560   -0.2030 N   0  0  0  0  0  0  0  0  0  0  0  0
   -1.4850    2.9350   -0.1510 Cl  0  0  0  0  0  0  0  0  0  0  0  0
    0.3540    0.9440   -0.0910 C   0  0  0  0  0  0  0  0  0  0  0  0
    1.4230    1.6650   -0.1210 N   0  0  0  0  0  0  0  0  0  0  0  0
    2.6050    0.8470    0.0420 C   0  0  0  0  0  0  0  0  0  0  0  0
  1  2  1  0
  2  3  2  0
  2 11  1  0
  3  4  1  0
  3  9  1  0
  4  5  1  0
  5  6  1  0
  6  7  1  0
  7  8  1  0
  7  9  1  0
  9 10  2  0
 10 11  1  0
M  END
