
     RDKit          3D

 11 12  0  0  0  0  0  0  0  0999 V2000
    3.2980   -1.6200    0.1220 Cl  0  0  0  0  0  0  0  0  0  0  0  0
    1.8130   -0.6510    0.0580 C   0  0  0  0  0  0  0  0  0  0  0  0
    1.8620    0.7140    0.0060 C   0  0  0  0  0  0  0  0  0  0  0  0
    0.7370    1.4410   -0.0420 N   0  0  0  0  0  0  0  0  0  0  0  0
   -0.4670    0.8460   -0.0410 C   0  0  0  0  0  0  0  0  0  0  0  0
   -1.7320    1.3820   -0.0840 C   0  0  0  0  0  0  0  0  0  0  0  0
   -2.2460    3.0490   -0.1580 Cl  0  0  0  0  0  0  0  0  0  0  0  0
   -2.5840    0.3380   -0.0600 N   0  0  0  0  0  0  0  0  0  0  0  0
   -1.8480   -0.7940   -0.0030 C   0  0  0  0  0  0  0  0  0  0  0  0
   -0.5410   -0.5050    0.0100 N   0  0  0  0  0  0  0  0  0  0  0  0
    0.5740   -1.2550    0.0590 C   0  0  0  0  0  0  0  0  0  0  0  0
  1  2  1  0
  2  3  1  0
  2 11  2  0
  3  4  2  0
  4  5  1  0
  5  6  2  0
  5 10  1  0
  6  7  1  0
  6  8  1  0
  8  9  2  0
  9 10  1  0
 10 11  1  0
M  END
