
     RDKit          3D

 20 22  0  0  0  0  0  0  0  0999 V2000
   -4.4570    1.6480   -1.2310 C   0  0  0  0  0  0  0  0  0  0  0  0
   -4.5410    0.5610   -0.3580 O   0  0  0  0  0  0  0  0  0  0  0  0
   -3.4180   -0.1130    0.0990 C   0  0  0  0  0  0  0  0  0  0  0  0
   -2.1310    0.2240   -0.2620 C   0  0  0  0  0  0  0  0  0  0  0  0
   -1.1030   -0.5260    0.2620 C   0  0  0  0  0  0  0  0  0  0  0  0
    0.2660   -0.2150   -0.0840 C   0  0  0  0  0  0  0  0  0  0  0  0
    1.2540   -0.1690    0.8790 C   0  0  0  0  0  0  0  0  0  0  0  0
    2.5810    0.1290    0.5650 C   0  0  0  0  0  0  0  0  0  0  0  0
    2.9090    0.3830   -0.7370 C   0  0  0  0  0  0  0  0  0  0  0  0
    1.9190    0.3360   -1.6910 C   0  0  0  0  0  0  0  0  0  0  0  0
    0.6020    0.0440   -1.4040 C   0  0  0  0  0  0  0  0  0  0  0  0
   -0.3870    0.0030   -2.3960 O   0  0  0  0  0  0  0  0  0  0  0  0
    4.2260    0.6810   -1.0580 O   0  0  0  0  0  0  0  0  0  0  0  0
    5.1110    1.0020   -0.0090 C   0  0  0  0  0  0  0  0  0  0  0  0
    4.9050   -0.0180    1.0930 C   0  0  0  0  0  0  0  0  0  0  0  0
    3.5630    0.1690    1.5560 O   0  0  0  0  0  0  0  0  0  0  0  0
   -1.3180   -1.5860    1.1230 C   0  0  0  0  0  0  0  0  0  0  0  0
   -2.5950   -1.9150    1.4770 C   0  0  0  0  0  0  0  0  0  0  0  0
   -3.6440   -1.1840    0.9690 C   0  0  0  0  0  0  0  0  0  0  0  0
   -4.9360   -1.5180    1.3280 O   0  0  0  0  0  0  0  0  0  0  0  0
  1  2  1  0
  2  3  1  0
  3  4  2  0
  3 19  1  0
  4  5  1  0
  5  6  1  0
  5 17  2  0
  6  7  2  0
  6 11  1  0
  7  8  1  0
  8  9  2  0
  8 16  1  0
  9 10  1  0
  9 13  1  0
 10 11  2  0
 11 12  1  0
 13 14  1  0
 14 15  1  0
 15 16  1  0
 17 18  1  0
 18 19  2  0
 19 20  1  0
M  END
