
     RDKit          3D

 21 22  0  0  0  0  0  0  0  0999 V2000
   -1.0960    2.2810    1.2240 C   0  0  0  0  0  0  0  0  0  0  0  0
   -0.6100    1.6070    0.0730 O   0  0  0  0  0  0  0  0  0  0  0  0
   -1.0630    0.2900   -0.1210 C   0  0  0  0  0  0  0  0  0  0  0  0
   -2.2250    0.0540   -0.8570 C   0  0  0  0  0  0  0  0  0  0  0  0
   -2.9500    1.2080   -1.4230 C   0  0  0  0  0  0  0  0  0  0  0  0
   -4.0700    0.7590   -2.1140 O   0  0  0  0  0  0  0  0  0  0  0  0
   -2.6750   -1.2340   -1.0430 C   0  0  0  0  0  0  0  0  0  0  0  0
   -1.9350   -2.2510   -0.4780 C   0  0  0  0  0  0  0  0  0  0  0  0
   -2.3640   -3.5510   -0.6480 O   0  0  0  0  0  0  0  0  0  0  0  0
   -0.7890   -2.0350    0.2480 C   0  0  0  0  0  0  0  0  0  0  0  0
   -0.0510   -3.0640    0.8120 O   0  0  0  0  0  0  0  0  0  0  0  0
   -0.3290   -0.7290    0.4370 C   0  0  0  0  0  0  0  0  0  0  0  0
    0.9040   -0.5320    1.1600 C   0  0  0  0  0  0  0  0  0  0  0  0
    2.0360   -0.0680    0.7100 C   0  0  0  0  0  0  0  0  0  0  0  0
    3.2030    0.0760    1.5960 C   0  0  0  0  0  0  0  0  0  0  0  0
    4.3740    0.5020    1.1620 C   0  0  0  0  0  0  0  0  0  0  0  0
    5.7430    0.6580    2.2650 Cl  0  0  0  0  0  0  0  0  0  0  0  0
    4.6030    0.8620   -0.2320 C   0  0  0  0  0  0  0  0  0  0  0  0
    3.6010    0.7580   -1.0860 C   0  0  0  0  0  0  0  0  0  0  0  0
    2.2610    0.2890   -0.6810 C   0  0  0  0  0  0  0  0  0  0  0  0
    1.3920    0.2230   -1.5640 O   0  0  0  0  0  0  0  0  0  0  0  0
  1  2  1  0
  2  3  1  0
  3  4  2  0
  3 12  1  0
  4  5  1  0
  4  7  1  0
  5  6  1  0
  7  8  2  0
  8  9  1  0
  8 10  1  0
 10 11  1  0
 10 12  2  0
 12 13  1  0
 13 14  2  3
 14 15  1  0
 14 20  1  0
 15 16  2  0
 16 17  1  0
 16 18  1  0
 18 19  2  0
 19 20  1  0
 20 21  2  0
M  END
