
     RDKit          3D

 21 22  0  0  0  0  0  0  0  0999 V2000
   -2.9080   -1.2110    1.2800 N   0  0  0  0  0  0  0  0  0  0  0  0
   -2.3340   -0.0670    0.5800 C   0  0  2  0  0  0  0  0  0  0  0  0
   -3.0430    1.1590    1.0980 C   0  0  0  0  0  0  0  0  0  0  0  0
   -2.7920    1.1970    2.4880 O   0  0  0  0  0  0  0  0  0  0  0  0
   -2.5690   -0.2970   -0.8910 C   0  0  1  0  0  0  0  0  0  0  0  0
   -3.9400   -0.3930   -1.1450 O   0  0  0  0  0  0  0  0  0  0  0  0
   -1.9700    0.7490   -1.7720 C   0  0  0  0  0  0  0  0  0  0  0  0
   -0.6370    0.9460   -1.6480 O   0  0  0  0  0  0  0  0  0  0  0  0
    0.2080   -0.0740   -1.9050 C   0  0  1  0  0  0  0  0  0  0  0  0
    1.1520    0.1280   -3.0560 C   0  0  0  0  0  0  0  0  0  0  0  0
    2.2630    0.9530   -2.7100 O   0  0  0  0  0  0  0  0  0  0  0  0
    2.8190    0.8860   -1.4500 C   0  0  0  0  0  0  0  0  0  0  0  0
    3.9460    1.4680   -1.1210 C   0  0  0  0  0  0  0  0  0  0  0  0
    4.4680    1.3740    0.1590 O   0  0  0  0  0  0  0  0  0  0  0  0
    3.8470    0.6610    1.1920 C   0  0  0  0  0  0  0  0  0  0  0  0
    2.5720    0.0050    0.8140 C   0  0  0  0  0  0  0  0  0  0  0  0
    1.7970   -0.7960    1.8320 C   0  0  2  0  0  0  0  0  0  0  0  0
    1.4260   -0.0230    2.9050 O   0  0  0  0  0  0  0  0  0  0  0  0
    2.5960   -1.8780    2.1890 O   0  0  0  0  0  0  0  0  0  0  0  0
    2.1340    0.1340   -0.4160 C   0  0  0  0  0  0  0  0  0  0  0  0
    0.9410   -0.4810   -0.7650 O   0  0  0  0  0  0  0  0  0  0  0  0
  2  1  1  1
  2  3  1  0
  2  5  1  0
  3  4  1  0
  5  6  1  1
  5  7  1  0
  7  8  1  0
  9  8  1  1
  9 10  1  0
  9 21  1  0
 10 11  1  0
 11 12  1  0
 12 13  2  0
 12 20  1  0
 13 14  1  0
 14 15  1  0
 15 16  1  0
 16 17  1  0
 16 20  2  0
 17 18  1  1
 17 19  1  0
 20 21  1  0
M  CHG  1   1   1
M  END
