
     RDKit          3D

 21 21  0  0  0  0  0  0  0  0999 V2000
    6.7550    1.1570   -0.5750 C   0  0  0  0  0  0  0  0  0  0  0  0
    5.4290    1.2600   -0.1290 O   0  0  0  0  0  0  0  0  0  0  0  0
    4.6440    0.3770   -0.8690 C   0  0  0  0  0  0  0  0  0  0  0  0
    3.2090    0.5250   -0.3480 C   0  0  2  0  0  0  0  0  0  0  0  0
    3.2700    0.1910    0.9910 O   0  0  0  0  0  0  0  0  0  0  0  0
    2.2680   -0.2520   -1.1860 C   0  0  0  0  0  0  0  0  0  0  0  0
    0.9330   -0.1870   -0.9130 O   0  0  0  0  0  0  0  0  0  0  0  0
    0.6120   -0.6210    0.3260 C   0  0  0  0  0  0  0  0  0  0  0  0
   -0.8990   -0.6150    0.5840 C   0  0  2  0  0  0  0  0  0  0  0  0
   -1.0510   -1.0860    1.8930 O   0  0  0  0  0  0  0  0  0  0  0  0
   -1.5330   -1.5860   -0.3400 C   0  0  0  0  0  0  0  0  0  0  0  0
   -2.9910   -1.7430   -0.2540 C   0  0  1  0  0  0  0  0  0  0  0  0
   -3.3820   -3.1450   -0.0320 N   0  0  0  0  0  0  0  0  0  0  0  0
   -3.7060   -0.9210    0.7520 C   0  0  0  0  0  0  0  0  0  0  0  0
   -3.7260    0.4300    0.5100 O   0  0  0  0  0  0  0  0  0  0  0  0
   -2.7190    0.8700   -0.3110 C   0  0  1  0  0  0  0  0  0  0  0  0
   -2.9600    2.3680   -0.5410 C   0  0  0  0  0  0  0  0  0  0  0  0
   -4.2280    2.4990   -1.1480 O   0  0  0  0  0  0  0  0  0  0  0  0
   -4.4530    3.7820   -1.3530 O   0  0  0  0  0  0  0  0  0  0  0  0
   -1.3650    0.7910    0.4030 C   0  0  2  0  0  0  0  0  0  0  0  0
   -0.4900    1.5610   -0.3730 O   0  0  0  0  0  0  0  0  0  0  0  0
  1  2  1  0
  2  3  1  0
  3  4  1  0
  4  5  1  1
  4  6  1  0
  6  7  1  0
  7  8  1  0
  8  9  1  0
  9 10  1  1
  9 11  1  0
  9 20  1  0
 11 12  1  0
 12 13  1  1
 12 14  1  0
 14 15  1  0
 15 16  1  0
 16 17  1  1
 16 20  1  0
 17 18  1  0
 18 19  1  0
 20 21  1  6
M  CHG  1  13   1
M  END
