
     RDKit          3D

 20 21  0  0  0  0  0  0  0  0999 V2000
   -0.6780    0.6610   -2.5310 N   0  0  0  0  0  0  0  0  0  0  0  0
   -0.9570   -0.3480   -1.5690 C   0  0  0  0  0  0  0  0  0  0  0  0
   -0.5050   -0.0750   -0.1640 C   0  0  1  0  0  0  0  0  0  0  0  0
   -1.0110    1.1300    0.5110 C   0  0  0  0  0  0  0  0  0  0  0  0
   -2.2890    1.3850    0.7360 O   0  0  0  0  0  0  0  0  0  0  0  0
   -3.2360    1.5780   -0.1790 C   0  0  0  0  0  0  0  0  0  0  0  0
   -4.4510    1.8360    0.5410 O   0  0  0  0  0  0  0  0  0  0  0  0
   -0.7090   -1.3120    0.7140 C   0  0  2  0  0  0  0  0  0  0  0  0
   -1.6110   -1.1850    1.8580 C   0  0  0  0  0  0  0  0  0  0  0  0
   -1.2190   -1.2620    3.0760 O   0  0  0  0  0  0  0  0  0  0  0  0
   -2.9700   -0.9690    1.7140 O   0  0  0  0  0  0  0  0  0  0  0  0
    0.7250   -1.2110    1.2200 C   0  0  2  0  0  0  0  0  0  0  0  0
    0.9010   -0.5320    2.3970 O   0  0  0  0  0  0  0  0  0  0  0  0
    0.9840   -0.3390    0.0150 C   0  0  1  0  0  0  0  0  0  0  0  0
    1.6280   -1.1940   -1.0530 C   0  0  0  0  0  0  0  0  0  0  0  0
    3.0950   -1.3770   -0.6090 C   0  0  0  0  0  0  0  0  0  0  0  0
    3.2140   -1.0420    0.7440 O   0  0  0  0  0  0  0  0  0  0  0  0
    3.1850    0.3390    0.8290 C   0  0  0  0  0  0  0  0  0  0  0  0
    1.8540    0.8380    0.3020 C   0  0  1  0  0  0  0  0  0  0  0  0
    2.1330    1.6130   -0.7970 O   0  0  0  0  0  0  0  0  0  0  0  0
  1  2  1  0
  3  2  1  6
  3  4  1  0
  3  8  1  0
  3 14  1  0
  4  5  1  0
  5  6  1  0
  6  7  1  0
  8  9  1  1
  8 12  1  0
  9 10  2  0
  9 11  1  0
 12 13  1  1
 12 14  1  0
 14 15  1  6
 14 19  1  0
 15 16  1  0
 16 17  1  0
 17 18  1  0
 18 19  1  0
 19 20  1  6
M  CHG  1   1   1
M  END
