
     RDKit          3D

 21 22  0  0  0  0  0  0  0  0999 V2000
   -4.1750   -0.1450    1.7220 N   0  0  0  0  0  0  0  0  0  0  0  0
   -2.9830    0.3460    1.0510 C   0  0  1  0  0  0  0  0  0  0  0  0
   -1.7270   -0.1400    1.6930 C   0  0  0  0  0  0  0  0  0  0  0  0
   -0.6630   -0.1480    0.5870 C   0  0  1  0  0  0  0  0  0  0  0  0
    0.1240   -1.2460    0.7940 O   0  0  0  0  0  0  0  0  0  0  0  0
    1.4610   -0.9580    1.0030 C   0  0  0  0  0  0  0  0  0  0  0  0
    2.1210   -0.2440   -0.1280 C   0  0  0  0  0  0  0  0  0  0  0  0
    3.4470   -0.0190    0.2110 O   0  0  0  0  0  0  0  0  0  0  0  0
    4.1700    0.6370   -0.7540 C   0  0  1  0  0  0  0  0  0  0  0  0
    4.9490    1.8190   -0.1990 C   0  0  1  0  0  0  0  0  0  0  0  0
    4.1730    2.6270    0.6100 O   0  0  0  0  0  0  0  0  0  0  0  0
    6.0010    1.2210    0.4200 O   0  0  0  0  0  0  0  0  0  0  0  0
    6.2100    0.0440   -0.0230 O   0  0  0  0  0  0  0  0  0  0  0  0
    5.3850   -0.2540   -1.0670 C   0  0  1  0  0  0  0  0  0  0  0  0
    4.9940   -1.5780   -1.1330 O   0  0  0  0  0  0  0  0  0  0  0  0
   -1.4470   -0.2040   -0.7060 C   0  0  0  0  0  0  0  0  0  0  0  0
   -2.9000   -0.1540   -0.3710 C   0  0  1  0  0  0  0  0  0  0  0  0
   -3.4970   -1.5460   -0.4690 C   0  0  0  0  0  0  0  0  0  0  0  0
   -3.4500   -2.0530   -1.7420 O   0  0  0  0  0  0  0  0  0  0  0  0
   -3.6650    0.8330   -1.2290 C   0  0  0  0  0  0  0  0  0  0  0  0
   -3.6750    0.5030   -2.5660 O   0  0  0  0  0  0  0  0  0  0  0  0
  2  1  1  1
  2  3  1  0
  2 17  1  0
  3  4  1  0
  4  5  1  1
  4 16  1  0
  5  6  1  0
  6  7  1  0
  7  8  1  0
  9  8  1  1
  9 10  1  0
  9 14  1  0
 10 11  1  1
 10 12  1  0
 12 13  1  0
 13 14  1  0
 14 15  1  1
 16 17  1  0
 17 18  1  1
 17 20  1  0
 18 19  1  0
 20 21  1  0
M  CHG  1   1   1
M  END
