
     RDKit          3D

 25 28  0  0  0  0  0  0  0  0999 V2000
    8.3560    0.0050   -0.3430 C   0  0  0  0  0  0  0  0  0  0  0  0
    6.8960   -0.2920   -0.1290 C   0  0  0  0  0  0  0  0  0  0  0  0
    6.4080   -1.4270    0.4430 C   0  0  0  0  0  0  0  0  0  0  0  0
    5.0150   -1.6220    0.6200 C   0  0  0  0  0  0  0  0  0  0  0  0
    4.1300   -0.6950    0.2250 C   0  0  0  0  0  0  0  0  0  0  0  0
    2.7000   -0.7030    0.3190 N   0  0  0  0  0  0  0  0  0  0  0  0
    1.7720   -1.6110   -0.0120 C   0  0  0  0  0  0  0  0  0  0  0  0
    0.5070   -1.0790    0.0400 C   0  0  0  0  0  0  0  0  0  0  0  0
   -0.7400   -1.5360   -0.5250 C   0  0  0  0  0  0  0  0  0  0  0  0
   -1.8820   -1.6240    0.4430 N   0  0  0  0  0  0  0  0  0  0  0  0
   -2.8560   -0.9180   -0.4130 C   0  0  0  0  0  0  0  0  0  0  0  0
   -4.0200   -0.2400    0.0870 C   0  0  2  0  0  0  0  0  0  0  0  0
   -5.1570   -1.0140    0.5790 C   0  0  0  0  0  0  0  0  0  0  0  0
   -6.1370   -1.0510   -0.6400 C   0  0  0  0  0  0  0  0  0  0  0  0
   -6.6860    0.3300   -0.7940 C   0  0  0  0  0  0  0  0  0  0  0  0
   -5.6730    1.4420   -0.7550 C   0  0  0  0  0  0  0  0  0  0  0  0
   -4.2810    0.9800   -0.7650 C   0  0  0  0  0  0  0  0  0  0  0  0
    0.6720    0.2780    0.4570 C   0  0  0  0  0  0  0  0  0  0  0  0
   -0.2560    1.2600    0.6980 C   0  0  0  0  0  0  0  0  0  0  0  0
    0.1640    2.5220    1.1420 C   0  0  0  0  0  0  0  0  0  0  0  0
    1.4960    2.7000    1.3050 C   0  0  0  0  0  0  0  0  0  0  0  0
    2.4270    1.6920    1.0530 C   0  0  0  0  0  0  0  0  0  0  0  0
    1.9970    0.4530    0.6170 C   0  0  0  0  0  0  0  0  0  0  0  0
    4.6470    0.4770   -0.3680 C   0  0  0  0  0  0  0  0  0  0  0  0
    5.9810    0.6650   -0.5330 C   0  0  0  0  0  0  0  0  0  0  0  0
  1  2  1  0
  2  3  2  0
  2 25  1  0
  3  4  1  0
  4  5  2  0
  5  6  1  0
  5 24  1  0
  6  7  1  0
  6 23  1  0
  7  8  2  0
  8  9  1  0
  8 18  1  0
  9 10  1  0
 10 11  1  0
 12 11  1  6
 12 13  1  0
 12 17  1  0
 13 14  1  0
 14 15  1  0
 15 16  1  0
 16 17  1  0
 18 19  2  0
 18 23  1  0
 19 20  1  0
 20 21  2  0
 21 22  1  0
 22 23  2  0
 24 25  2  0
M  END
