
     RDKit          3D

 20 21  0  0  0  0  0  0  0  0999 V2000
    1.9620    1.6970    1.1150 C   0  0  0  0  0  0  0  0  0  0  0  0
    1.8690    0.4760    0.2470 C   0  0  2  0  0  0  0  0  0  0  0  0
    1.1070    0.6370   -1.0260 C   0  0  2  0  0  0  0  0  0  0  0  0
    1.7490    1.3840   -1.9880 O   0  0  0  0  0  0  0  0  0  0  0  0
   -0.2270    1.2950   -0.6840 C   0  0  0  0  0  0  0  0  0  0  0  0
   -1.3030    0.5510   -1.1710 O   0  0  0  0  0  0  0  0  0  0  0  0
   -2.4300    1.3550   -1.0620 C   0  0  2  0  0  0  0  0  0  0  0  0
   -2.2260    2.3360   -0.0820 O   0  0  0  0  0  0  0  0  0  0  0  0
   -3.6780    0.6180   -0.7370 C   0  0  2  0  0  0  0  0  0  0  0  0
   -4.5030    1.3860    0.0890 O   0  0  0  0  0  0  0  0  0  0  0  0
   -3.4830   -0.7070   -0.0860 C   0  0  0  0  0  0  0  0  0  0  0  0
   -2.2710   -1.2620   -0.4090 O   0  0  0  0  0  0  0  0  0  0  0  0
   -1.9340   -2.2790    0.4990 C   0  0  0  0  0  0  0  0  0  0  0  0
   -0.3990   -2.2900    0.5370 C   0  0  0  0  0  0  0  0  0  0  0  0
    0.0070   -0.9790    0.5280 O   0  0  0  0  0  0  0  0  0  0  0  0
    1.2830   -0.7560    0.9550 C   0  0  2  0  0  0  0  0  0  0  0  0
    1.5100   -0.6550    2.3070 O   0  0  0  0  0  0  0  0  0  0  0  0
    2.3690   -1.5540    0.2200 C   0  0  0  0  0  0  0  0  0  0  0  0
    3.1530   -0.2700    0.1980 C   0  0  1  0  0  0  0  0  0  0  0  0
    4.0130   -0.0640   -0.9160 N   0  0  0  0  0  0  0  0  0  0  0  0
  2  1  1  1
  2  3  1  0
  2 16  1  0
  2 19  1  0
  3  4  1  6
  3  5  1  0
  5  6  1  0
  6  7  1  0
  7  8  1  1
  7  9  1  0
  9 10  1  1
  9 11  1  0
 11 12  1  0
 12 13  1  0
 13 14  1  0
 14 15  1  0
 15 16  1  0
 16 17  1  1
 16 18  1  0
 18 19  1  0
 19 20  1  6
M  CHG  1  20   1
M  END
