
     RDKit          3D

 20 21  0  0  0  0  0  0  0  0999 V2000
    2.9020    1.8230   -0.4260 C   0  0  0  0  0  0  0  0  0  0  0  0
    2.4180    0.6360    0.3300 C   0  0  2  0  0  0  0  0  0  0  0  0
    1.3450    0.8270    1.1700 O   0  0  0  0  0  0  0  0  0  0  0  0
    0.3770   -0.1460    1.0830 C   0  0  0  0  0  0  0  0  0  0  0  0
   -0.2670   -0.1550   -0.2550 C   0  0  1  0  0  0  0  0  0  0  0  0
   -1.2980   -1.3070   -0.3320 C   0  0  2  0  0  0  0  0  0  0  0  0
   -2.1370   -0.9430   -1.5200 C   0  0  0  0  0  0  0  0  0  0  0  0
   -1.8340    0.4900   -1.8570 C   0  0  1  0  0  0  0  0  0  0  0  0
   -2.9430    1.2270   -2.1870 O   0  0  0  0  0  0  0  0  0  0  0  0
   -1.1860    0.9890   -0.5470 C   0  0  1  0  0  0  0  0  0  0  0  0
   -2.2870    1.1110    0.3910 N   0  0  0  0  0  0  0  0  0  0  0  0
   -0.5510    2.3160   -0.7470 C   0  0  0  0  0  0  0  0  0  0  0  0
   -0.0440    2.8730    0.4200 O   0  0  0  0  0  0  0  0  0  0  0  0
   -1.9940   -1.4460    0.8460 O   0  0  0  0  0  0  0  0  0  0  0  0
   -2.3380   -2.8030    0.8310 C   0  0  0  0  0  0  0  0  0  0  0  0
   -1.0750   -3.4340    0.3070 C   0  0  0  0  0  0  0  0  0  0  0  0
   -0.5460   -2.4600   -0.5220 O   0  0  0  0  0  0  0  0  0  0  0  0
    3.5830    0.2570    1.2940 C   0  0  2  0  0  0  0  0  0  0  0  0
    4.7410    0.0330    0.5720 O   0  0  0  0  0  0  0  0  0  0  0  0
    3.2090   -0.8260    2.0820 O   0  0  0  0  0  0  0  0  0  0  0  0
  2  1  1  1
  2  3  1  0
  2 18  1  0
  3  4  1  0
  5  4  1  1
  5  6  1  0
  5 10  1  0
  6  7  1  6
  6 14  1  0
  6 17  1  0
  7  8  1  0
  8  9  1  1
  8 10  1  0
 10 11  1  1
 10 12  1  0
 12 13  1  0
 14 15  1  0
 15 16  1  0
 16 17  1  0
 18 19  1  6
 18 20  1  0
M  CHG  1  11   1
M  END
