
     RDKit          3D

 10 10  0  0  0  0  0  0  0  0999 V2000
    2.9680   -0.0260    0.0790 C   0  0  0  0  0  0  0  0  0  0  0  0
    1.8220   -0.8520    0.3150 N   0  0  0  0  0  0  0  0  0  0  0  0
    0.4830   -0.4150    0.1410 C   0  0  0  0  0  0  0  0  0  0  0  0
   -0.5890   -1.2480    0.3810 C   0  0  0  0  0  0  0  0  0  0  0  0
   -1.8960   -0.8350    0.2150 C   0  0  0  0  0  0  0  0  0  0  0  0
   -2.9740   -1.6670    0.4550 O   0  0  0  0  0  0  0  0  0  0  0  0
   -2.1640    0.4490   -0.2050 C   0  0  0  0  0  0  0  0  0  0  0  0
   -1.0880    1.2800   -0.4440 C   0  0  0  0  0  0  0  0  0  0  0  0
   -1.3410    2.5810   -0.8680 O   0  0  0  0  0  0  0  0  0  0  0  0
    0.2260    0.8710   -0.2790 C   0  0  0  0  0  0  0  0  0  0  0  0
  1  2  1  0
  2  3  1  0
  3  4  2  0
  3 10  1  0
  4  5  1  0
  5  6  1  0
  5  7  2  0
  7  8  1  0
  8  9  1  0
  8 10  2  0
M  END
