
     RDKit          3D

 12 13  0  0  0  0  0  0  0  0999 V2000
   -1.1760   -0.0060   -2.0000 N   0  0  0  0  0  0  0  0  0  0  0  0
   -1.2100   -0.7540   -0.8040 C   0  0  0  0  0  0  0  0  0  0  0  0
   -2.1500   -1.7500   -0.7320 N   0  0  0  0  0  0  0  0  0  0  0  0
   -2.2690   -2.5190    0.3530 C   0  0  0  0  0  0  0  0  0  0  0  0
   -1.4080   -2.2680    1.3950 C   0  0  0  0  0  0  0  0  0  0  0  0
   -0.4930   -1.2940    1.3190 N   0  0  0  0  0  0  0  0  0  0  0  0
   -0.3570   -0.4970    0.2130 C   0  0  0  0  0  0  0  0  0  0  0  0
    0.6960    0.5570    0.2380 C   0  0  0  0  0  0  0  0  0  0  0  0
    0.9880    1.4030   -0.6820 C   0  0  0  0  0  0  0  0  0  0  0  0
    2.0830    2.3720   -0.4440 C   0  0  0  0  0  0  0  0  0  0  0  0
    2.0710    2.3850    1.3940 S   0  0  0  0  0  0  0  0  0  0  0  0
    1.5360    0.6520    1.5000 C   0  0  0  0  0  0  0  0  0  0  0  0
  1  2  1  0
  2  3  2  0
  2  7  1  0
  3  4  1  0
  4  5  2  0
  5  6  1  0
  6  7  2  0
  7  8  1  0
  8  9  2  0
  8 12  1  0
  9 10  1  0
 10 11  1  0
 11 12  1  0
M  END
