
     RDKit          3D

 11 11  0  0  0  0  0  0  0  0999 V2000
    2.8900   -0.2930    0.2120 C   0  0  0  0  0  0  0  0  0  0  0  0
    1.9360    0.7110    0.0460 O   0  0  0  0  0  0  0  0  0  0  0  0
    0.5710    0.5140   -0.0190 C   0  0  0  0  0  0  0  0  0  0  0  0
   -0.0050   -0.7480    0.0780 C   0  0  0  0  0  0  0  0  0  0  0  0
   -1.3700   -0.9330    0.0120 C   0  0  0  0  0  0  0  0  0  0  0  0
   -1.9400   -2.2400    0.1140 N   0  0  0  0  0  0  0  0  0  0  0  0
   -2.1690    0.1790   -0.1560 C   0  0  0  0  0  0  0  0  0  0  0  0
   -1.5850    1.4320   -0.2520 C   0  0  0  0  0  0  0  0  0  0  0  0
   -2.3690    2.5270   -0.4170 F   0  0  0  0  0  0  0  0  0  0  0  0
   -0.2210    1.6310   -0.1870 C   0  0  0  0  0  0  0  0  0  0  0  0
    0.3150    2.9110   -0.2890 O   0  0  0  0  0  0  0  0  0  0  0  0
  1  2  1  0
  2  3  1  0
  3  4  2  0
  3 10  1  0
  4  5  1  0
  5  6  1  0
  5  7  2  0
  7  8  1  0
  8  9  1  0
  8 10  2  0
 10 11  1  0
M  END
