
     RDKit          3D

 10 10  0  0  0  0  0  0  0  0999 V2000
   -3.4180    0.0330    1.5910 O   0  0  0  0  0  0  0  0  0  0  0  0
   -2.5650    0.3270    0.7740 C   0  0  0  0  0  0  0  0  0  0  0  0
   -1.4880   -0.6380    0.5130 C   0  0  0  0  0  0  0  0  0  0  0  0
   -0.5010   -0.1380   -0.5250 C   0  0  1  0  0  0  0  0  0  0  0  0
   -1.2530    0.0740   -1.7020 O   0  0  0  0  0  0  0  0  0  0  0  0
    0.1100    1.1650   -0.1490 C   0  0  0  0  0  0  0  0  0  0  0  0
    1.2190    1.0680    0.8520 C   0  0  0  0  0  0  0  0  0  0  0  0
    1.8980   -0.2100    0.8310 N   0  0  0  0  0  0  0  0  0  0  0  0
    1.9310   -0.7540   -0.5180 C   0  0  0  0  0  0  0  0  0  0  0  0
    0.5230   -1.1870   -0.8590 C   0  0  0  0  0  0  0  0  0  0  0  0
  1  2  2  0
  2  3  1  0
  3  4  1  0
  4  5  1  6
  4  6  1  0
  4 10  1  0
  6  7  1  0
  7  8  1  0
  8  9  1  0
  9 10  1  0
M  END
