
     RDKit          3D

 21 24  0  0  0  0  0  0  0  0999 V2000
    5.9450   -0.5250   -0.6510 O   0  0  0  0  0  0  0  0  0  0  0  0
    4.5870   -0.2960   -0.7450 C   0  0  0  0  0  0  0  0  0  0  0  0
    3.9370   -0.3160   -1.9510 C   0  0  0  0  0  0  0  0  0  0  0  0
    2.5870   -0.0870   -2.0380 C   0  0  0  0  0  0  0  0  0  0  0  0
    1.8140    0.1770   -0.9010 C   0  0  0  0  0  0  0  0  0  0  0  0
    0.3510    0.4290   -1.0100 C   0  0  2  0  0  0  0  0  0  0  0  0
    0.0370    1.5210   -0.1590 O   0  0  0  0  0  0  0  0  0  0  0  0
   -1.2270    1.7710    0.3140 C   0  0  0  0  0  0  0  0  0  0  0  0
   -1.5800    3.0400    0.7320 C   0  0  0  0  0  0  0  0  0  0  0  0
   -2.8470    3.2970    1.2080 C   0  0  0  0  0  0  0  0  0  0  0  0
   -3.7340    2.2460    1.2470 C   0  0  0  0  0  0  0  0  0  0  0  0
   -3.3780    0.9790    0.8280 C   0  0  0  0  0  0  0  0  0  0  0  0
   -4.3060   -0.0650    0.8820 O   0  0  0  0  0  0  0  0  0  0  0  0
   -2.1070    0.7210    0.3510 C   0  0  0  0  0  0  0  0  0  0  0  0
   -1.7510   -0.6250   -0.0870 C   0  0  2  0  0  0  0  0  0  0  0  0
   -1.6130   -1.5950    1.0930 C   0  0  0  0  0  0  0  0  0  0  0  0
   -0.9080   -2.7600    0.3820 C   0  0  0  0  0  0  0  0  0  0  0  0
    0.2360   -1.9690   -0.2720 C   0  0  0  0  0  0  0  0  0  0  0  0
   -0.5040   -0.7610   -0.8610 C   0  0  2  0  0  0  0  0  0  0  0  0
    2.5050    0.1890    0.2920 C   0  0  0  0  0  0  0  0  0  0  0  0
    3.8630   -0.0400    0.3930 C   0  0  0  0  0  0  0  0  0  0  0  0
  1  2  1  0
  2  3  2  0
  2 21  1  0
  3  4  1  0
  4  5  2  0
  6  5  1  1
  5 20  1  0
  6  7  1  0
  6 19  1  0
  7  8  1  0
  8  9  2  0
  8 14  1  0
  9 10  1  0
 10 11  2  0
 11 12  1  0
 12 13  1  0
 12 14  2  0
 14 15  1  0
 15 16  1  1
 15 19  1  0
 16 17  1  0
 17 18  1  0
 19 18  1  1
 20 21  2  0
M  END
