
     RDKit          3D

 11 11  0  0  0  0  0  0  0  0999 V2000
   -2.1850   -1.5800   -0.8120 C   0  0  0  0  0  0  0  0  0  0  0  0
   -1.8260   -0.2970   -0.3440 O   0  0  0  0  0  0  0  0  0  0  0  0
   -0.5070    0.0070   -0.0640 C   0  0  0  0  0  0  0  0  0  0  0  0
    0.5380   -0.8750   -0.2090 C   0  0  0  0  0  0  0  0  0  0  0  0
    1.8570   -0.5300    0.0850 C   0  0  0  0  0  0  0  0  0  0  0  0
    2.8720   -1.4680   -0.0820 O   0  0  0  0  0  0  0  0  0  0  0  0
    2.1240    0.7460    0.5380 C   0  0  0  0  0  0  0  0  0  0  0  0
    3.4200    1.0770    0.8230 F   0  0  0  0  0  0  0  0  0  0  0  0
    1.0950    1.6480    0.6910 C   0  0  0  0  0  0  0  0  0  0  0  0
   -0.2140    1.2710    0.3890 C   0  0  0  0  0  0  0  0  0  0  0  0
   -1.2700    2.2060    0.5490 N   0  0  0  0  0  0  0  0  0  0  0  0
  1  2  1  0
  2  3  1  0
  3  4  2  0
  3 10  1  0
  4  5  1  0
  5  6  1  0
  5  7  2  0
  7  8  1  0
  7  9  1  0
  9 10  2  0
 10 11  1  0
M  END
