
     RDKit          3D

 15 14  0  0  0  0  0  0  0  0999 V2000
   -4.5530   -0.4960    0.6070 N   0  0  0  0  0  0  0  0  0  0  0  0
   -4.2570    0.3660   -0.4720 C   0  0  0  0  0  0  0  0  0  0  0  0
   -4.8280    0.1220   -1.5710 O   0  0  0  0  0  0  0  0  0  0  0  0
   -3.3300    1.4900   -0.2990 C   0  0  0  0  0  0  0  0  0  0  0  0
   -1.7250    1.1080   -0.9940 S   0  0  0  0  0  0  0  0  0  0  0  0
   -0.9590   -0.2320   -0.0660 C   0  0  0  0  0  0  0  0  0  0  0  0
    0.4320   -0.4760   -0.4920 C   0  0  0  0  0  0  0  0  0  0  0  0
    0.6930   -0.8390   -1.6530 O   0  0  0  0  0  0  0  0  0  0  0  0
    1.5010   -0.2940    0.4190 N   0  0  0  0  0  0  0  0  0  0  0  0
    2.8820   -0.4440    0.0970 C   0  0  0  0  0  0  0  0  0  0  0  0
    3.1810   -0.7560   -1.0850 O   0  0  0  0  0  0  0  0  0  0  0  0
    4.1390   -0.1900    1.3610 S   0  0  0  0  0  0  0  0  0  0  0  0
    5.7530   -0.2970    0.5520 C   0  0  1  0  0  0  0  0  0  0  0  0
    5.9160    1.1260   -0.5380 Cl  0  0  0  0  0  0  0  0  0  0  0  0
    7.0940   -0.4170    1.6900 Cl  0  0  0  0  0  0  0  0  0  0  0  0
  1  2  1  0
  2  3  2  0
  2  4  1  0
  4  5  1  0
  5  6  1  0
  6  7  1  0
  7  8  2  0
  7  9  1  0
  9 10  1  0
 10 11  2  0
 10 12  1  0
 12 13  1  0
 13 14  1  1
 13 15  1  0
M  END
