
     RDKit          3D

 15 14  0  0  0  0  0  0  0  0999 V2000
   -4.8890   -1.4970   -0.2370 N   0  0  0  0  0  0  0  0  0  0  0  0
   -3.9700   -0.6300   -0.8720 C   0  0  0  0  0  0  0  0  0  0  0  0
   -4.1160   -0.2970   -2.0910 O   0  0  0  0  0  0  0  0  0  0  0  0
   -2.8110   -0.0590   -0.2280 N   0  0  0  0  0  0  0  0  0  0  0  0
   -1.8820    0.7560   -0.9610 C   0  0  0  0  0  0  0  0  0  0  0  0
   -2.1560    0.9690   -2.1630 O   0  0  0  0  0  0  0  0  0  0  0  0
   -0.6650    1.3020   -0.2870 C   0  0  0  0  0  0  0  0  0  0  0  0
    0.3410   -0.0040    0.4740 S   0  0  0  0  0  0  0  0  0  0  0  0
    1.9240    0.6760    0.9770 C   0  0  0  0  0  0  0  0  0  0  0  0
    3.0370    0.0650    0.2370 C   0  0  0  0  0  0  0  0  0  0  0  0
    3.1770   -1.7360    0.3130 S   0  0  0  0  0  0  0  0  0  0  0  0
    4.4850   -2.2870   -0.6580 O   0  0  0  0  0  0  0  0  0  0  0  0
    3.8850    0.7630   -0.4640 C   0  0  0  0  0  0  0  0  0  0  0  0
    3.6820    2.5090   -0.5390 Cl  0  0  0  0  0  0  0  0  0  0  0  0
    5.2100   -0.0160   -1.2840 Cl  0  0  0  0  0  0  0  0  0  0  0  0
  1  2  1  0
  2  3  2  0
  2  4  1  0
  4  5  1  0
  5  6  2  0
  5  7  1  0
  7  8  1  0
  8  9  1  0
  9 10  1  0
 10 11  1  0
 10 13  2  3
 11 12  1  0
 13 14  1  0
 13 15  1  0
M  END
