
     RDKit          3D

 22 22  0  0  0  0  0  0  0  0999 V2000
   -0.1650   -0.2790   -3.0510 C   0  0  0  0  0  0  0  0  0  0  0  0
    0.2200    0.9150   -2.2190 C   0  0  2  0  0  0  0  0  0  0  0  0
    1.5010    1.3060   -2.5310 O   0  0  0  0  0  0  0  0  0  0  0  0
   -0.0020    0.6980   -0.7530 C   0  0  1  0  0  0  0  0  0  0  0  0
    0.2060    1.8880    0.0470 N   0  0  0  0  0  0  0  0  0  0  0  0
    1.4670    2.3890    0.0160 N   0  0  0  0  0  0  0  0  0  0  0  0
    2.4470    1.9840    1.0220 C   0  0  0  0  0  0  0  0  0  0  0  0
    3.7080    2.2570    0.8610 C   0  0  0  0  0  0  0  0  0  0  0  0
    4.7110    1.8620    1.8500 C   0  0  0  0  0  0  0  0  0  0  0  0
    4.0330    1.7250    3.1870 C   0  0  0  0  0  0  0  0  0  0  0  0
    2.9740    0.8430    3.0760 O   0  0  0  0  0  0  0  0  0  0  0  0
    1.9860    1.2690    2.2360 C   0  0  1  0  0  0  0  0  0  0  0  0
    0.8760    2.3360    3.1540 Cl  0  0  0  0  0  0  0  0  0  0  0  0
   -1.1850    0.0500   -0.4320 O   0  0  0  0  0  0  0  0  0  0  0  0
   -0.9910   -1.1090    0.2920 C   0  0  0  0  0  0  0  0  0  0  0  0
   -2.3110   -1.7610    0.6320 C   0  0  1  0  0  0  0  0  0  0  0  0
   -3.1880   -0.9290    1.3000 O   0  0  0  0  0  0  0  0  0  0  0  0
   -2.9050   -2.5000   -0.5330 C   0  0  0  0  0  0  0  0  0  0  0  0
   -4.2420   -3.1160   -0.0960 C   0  0  1  0  0  0  0  0  0  0  0  0
   -5.1290   -2.0960    0.2730 O   0  0  0  0  0  0  0  0  0  0  0  0
   -4.7350   -4.0090   -1.0770 C   0  0  0  0  0  0  0  0  0  0  0  0
   -5.1620   -4.7680   -1.8900 N   0  0  0  0  0  0  0  0  0  0  0  0
  2  1  1  6
  2  3  1  0
  2  4  1  0
  4  5  1  1
  4 14  1  0
  5  6  1  0
  6  7  1  0
  7  8  2  0
  7 12  1  0
  8  9  1  0
  9 10  1  0
 10 11  1  0
 11 12  1  0
 12 13  1  1
 14 15  1  0
 15 16  1  0
 16 17  1  6
 16 18  1  0
 18 19  1  0
 19 20  1  6
 19 21  1  0
 21 22  3  0
M  END
