
     RDKit          3D

 15 14  0  0  0  0  0  0  0  0999 V2000
   -1.5020   -0.0920   -1.3430 O   0  0  0  0  0  0  0  0  0  0  0  0
   -1.3750   -0.6800   -0.2370 C   0  0  0  0  0  0  0  0  0  0  0  0
   -0.0810   -0.6420    0.3600 N   0  0  0  0  0  0  0  0  0  0  0  0
    1.0320    0.0180   -0.2350 C   0  0  0  0  0  0  0  0  0  0  0  0
    0.8320    0.5790   -1.3330 O   0  0  0  0  0  0  0  0  0  0  0  0
    2.3440    0.0650    0.3560 C   0  0  0  0  0  0  0  0  0  0  0  0
    2.5490   -0.4910    1.4470 O   0  0  0  0  0  0  0  0  0  0  0  0
    3.3970    0.7370   -0.2930 N   0  0  0  0  0  0  0  0  0  0  0  0
    4.6750    0.7860    0.2770 C   0  0  0  0  0  0  0  0  0  0  0  0
    4.9540    0.0610    1.7040 S   0  0  0  0  0  0  0  0  0  0  0  0
    6.0090    1.6320   -0.5360 S   0  0  0  0  0  0  0  0  0  0  0  0
   -2.4500   -1.3220    0.3480 O   0  0  0  0  0  0  0  0  0  0  0  0
   -3.7220   -1.3580   -0.2360 C   0  0  0  0  0  0  0  0  0  0  0  0
   -4.2480    0.0300   -0.3770 C   0  0  0  0  0  0  0  0  0  0  0  0
   -4.3510    0.7950    1.2450 Cl  0  0  0  0  0  0  0  0  0  0  0  0
  1  2  2  0
  2  3  1  0
  2 12  1  0
  3  4  1  0
  4  5  2  0
  4  6  1  0
  6  7  2  0
  6  8  1  0
  8  9  1  0
  9 10  2  0
  9 11  1  0
 12 13  1  0
 13 14  1  0
 14 15  1  0
M  END
