
     RDKit          3D

 15 14  0  0  0  0  0  0  0  0999 V2000
    5.4100    0.9720    0.9880 O   0  0  0  0  0  0  0  0  0  0  0  0
    4.2140    0.5790    1.3790 C   0  0  0  0  0  0  0  0  0  0  0  0
    4.1020   -0.1110    2.8980 Cl  0  0  0  0  0  0  0  0  0  0  0  0
    3.4110    0.8880    0.3410 N   0  0  0  0  0  0  0  0  0  0  0  0
    2.3920    1.0610   -0.4850 C   0  0  0  0  0  0  0  0  0  0  0  0
    2.8190    1.6350   -1.5990 O   0  0  0  0  0  0  0  0  0  0  0  0
    1.0540    0.7860   -0.4380 N   0  0  0  0  0  0  0  0  0  0  0  0
    0.2130    1.1000   -1.5100 C   0  0  0  0  0  0  0  0  0  0  0  0
    0.7590    1.8140   -2.8840 S   0  0  0  0  0  0  0  0  0  0  0  0
   -1.4790    0.6970   -1.3870 S   0  0  0  0  0  0  0  0  0  0  0  0
   -1.7940   -0.3010    0.0810 C   0  0  1  0  0  0  0  0  0  0  0  0
   -3.2920   -0.4740    0.2770 C   0  0  0  0  0  0  0  0  0  0  0  0
   -3.8570    0.7790    0.4310 O   0  0  0  0  0  0  0  0  0  0  0  0
   -1.1710   -1.6780   -0.2050 C   0  0  0  0  0  0  0  0  0  0  0  0
   -1.7880   -2.2360   -1.3450 O   0  0  0  0  0  0  0  0  0  0  0  0
  1  2  2  0
  2  3  1  0
  2  4  1  0
  4  5  1  0
  5  6  2  0
  5  7  1  0
  7  8  1  0
  8  9  2  0
  8 10  1  0
 10 11  1  0
 11 12  1  6
 11 14  1  0
 12 13  1  0
 14 15  1  0
M  END
