
     RDKit          3D

 15 14  0  0  0  0  0  0  0  0999 V2000
    5.5060    1.7710   -0.4800 O   0  0  0  0  0  0  0  0  0  0  0  0
    4.9590    0.6890   -0.1750 C   0  0  0  0  0  0  0  0  0  0  0  0
    5.8370   -0.6200    0.6080 Cl  0  0  0  0  0  0  0  0  0  0  0  0
    3.5830    0.4930   -0.4640 N   0  0  0  0  0  0  0  0  0  0  0  0
    2.7490    1.4380   -1.0850 C   0  0  0  0  0  0  0  0  0  0  0  0
    3.3360    2.8770   -1.5370 S   0  0  0  0  0  0  0  0  0  0  0  0
    1.0290    1.0640   -1.3590 S   0  0  0  0  0  0  0  0  0  0  0  0
    0.6460   -0.5620   -0.6590 C   0  0  0  0  0  0  0  0  0  0  0  0
   -0.7550   -0.9670   -0.8010 C   0  0  0  0  0  0  0  0  0  0  0  0
   -1.1420   -1.8070   -1.6730 O   0  0  0  0  0  0  0  0  0  0  0  0
   -1.7960   -0.4450    0.0320 N   0  0  0  0  0  0  0  0  0  0  0  0
   -3.1430   -0.8730   -0.0810 C   0  0  0  0  0  0  0  0  0  0  0  0
   -3.4480   -1.7530   -0.9370 O   0  0  0  0  0  0  0  0  0  0  0  0
   -4.2220   -0.3220    0.7770 C   0  0  0  0  0  0  0  0  0  0  0  0
   -3.7040    0.7320    1.5330 O   0  0  0  0  0  0  0  0  0  0  0  0
  1  2  2  0
  2  3  1  0
  2  4  1  0
  4  5  1  0
  5  6  2  0
  5  7  1  0
  7  8  1  0
  8  9  1  0
  9 10  2  0
  9 11  1  0
 11 12  1  0
 12 13  2  0
 12 14  1  0
 14 15  1  0
M  END
