
     RDKit          3D

 15 14  0  0  0  0  0  0  0  0999 V2000
    3.7720   -0.1450    0.8790 N   0  0  0  0  0  0  0  0  0  0  0  0
    3.0160    0.5020   -0.1010 C   0  0  0  0  0  0  0  0  0  0  0  0
    3.4640    1.5920   -0.5670 O   0  0  0  0  0  0  0  0  0  0  0  0
    1.7430   -0.0710   -0.5710 C   0  0  0  0  0  0  0  0  0  0  0  0
    0.8420    0.7580   -1.8620 S   0  0  0  0  0  0  0  0  0  0  0  0
   -0.7530    1.3800   -1.4610 C   0  0  0  0  0  0  0  0  0  0  0  0
   -1.8240    0.4470   -1.1420 C   0  0  0  0  0  0  0  0  0  0  0  0
   -2.4330   -0.2410   -2.0000 O   0  0  0  0  0  0  0  0  0  0  0  0
   -2.2520    0.2710    0.2260 N   0  0  0  0  0  0  0  0  0  0  0  0
   -3.3060   -0.6360    0.5610 C   0  0  0  0  0  0  0  0  0  0  0  0
   -3.8410   -1.2680   -0.3760 O   0  0  0  0  0  0  0  0  0  0  0  0
   -3.8050   -0.8240    2.2720 S   0  0  0  0  0  0  0  0  0  0  0  0
    1.3450   -1.2030   -0.0430 C   0  0  0  0  0  0  0  0  0  0  0  0
    2.3470   -1.9710    1.2040 Cl  0  0  0  0  0  0  0  0  0  0  0  0
   -0.1070   -2.0500   -0.5560 Cl  0  0  0  0  0  0  0  0  0  0  0  0
  1  2  1  0
  2  3  2  0
  2  4  1  0
  4  5  1  0
  4 13  2  3
  5  6  1  0
  6  7  1  0
  7  8  2  0
  7  9  1  0
  9 10  1  0
 10 11  2  0
 10 12  1  0
 13 14  1  0
 13 15  1  0
M  END
