
     RDKit          3D

 15 14  0  0  0  0  0  0  0  0999 V2000
    5.6020    0.1450    0.9170 N   0  0  0  0  0  0  0  0  0  0  0  0
    4.5570    0.6100    0.0760 C   0  0  0  0  0  0  0  0  0  0  0  0
    4.6420    1.6950   -0.5440 O   0  0  0  0  0  0  0  0  0  0  0  0
    3.3750   -0.2090   -0.0510 N   0  0  0  0  0  0  0  0  0  0  0  0
    2.2960    0.2090   -0.8800 C   0  0  0  0  0  0  0  0  0  0  0  0
    2.4680    1.3300   -1.4710 O   0  0  0  0  0  0  0  0  0  0  0  0
    1.0390   -0.5390   -1.0910 C   0  0  0  0  0  0  0  0  0  0  0  0
   -0.3030    0.0350   -0.0060 S   0  0  0  0  0  0  0  0  0  0  0  0
   -1.7770   -0.9390   -0.4790 C   0  0  0  0  0  0  0  0  0  0  0  0
   -2.9500   -0.6480    0.3320 C   0  0  0  0  0  0  0  0  0  0  0  0
   -3.2390   -1.3880    1.3000 O   0  0  0  0  0  0  0  0  0  0  0  0
   -3.7740    0.4610    0.0520 N   0  0  0  0  0  0  0  0  0  0  0  0
   -4.9070    0.7090    0.8700 C   0  0  0  0  0  0  0  0  0  0  0  0
   -5.7120    1.8230    0.5740 O   0  0  0  0  0  0  0  0  0  0  0  0
   -5.2320   -0.2860    2.1070 S   0  0  0  0  0  0  0  0  0  0  0  0
  1  2  1  0
  2  3  2  0
  2  4  1  0
  4  5  1  0
  5  6  2  0
  5  7  1  0
  7  8  1  0
  8  9  1  0
  9 10  1  0
 10 11  2  0
 10 12  1  0
 12 13  1  0
 13 14  1  0
 13 15  2  0
M  END
