
     RDKit          3D

 16 16  0  0  0  0  0  0  0  0999 V2000
   -2.0030   -2.0840    0.3200 N   0  0  0  0  0  0  0  0  0  0  0  0
   -0.7980   -1.3810    0.1250 C   0  0  0  0  0  0  0  0  0  0  0  0
    0.4070   -2.0500    0.1470 C   0  0  0  0  0  0  0  0  0  0  0  0
    1.6020   -1.4290   -0.0350 C   0  0  0  0  0  0  0  0  0  0  0  0
    3.0960   -2.3170    0.0010 Cl  0  0  0  0  0  0  0  0  0  0  0  0
    1.6040   -0.0600   -0.2530 C   0  0  0  0  0  0  0  0  0  0  0  0
    3.1440    0.7160   -0.4830 S   0  0  1  0  0  0  0  0  0  0  0  0
    2.8690    2.3990   -0.7310 N   0  0  0  0  0  0  0  0  0  0  0  0
    3.9400    0.5470    0.7810 O   0  0  0  0  0  0  0  0  0  0  0  0
    3.8860    0.1620   -1.6750 O   0  0  0  0  0  0  0  0  0  0  0  0
    0.4020    0.6080   -0.2750 C   0  0  0  0  0  0  0  0  0  0  0  0
   -0.8170   -0.0130   -0.0910 C   0  0  0  0  0  0  0  0  0  0  0  0
   -2.2800    0.8910   -0.1320 S   0  0  1  0  0  0  0  0  0  0  0  0
   -3.0860    0.7160    1.4050 N   0  0  0  0  0  0  0  0  0  0  0  0
   -1.9600    2.3450   -0.3300 O   0  0  0  0  0  0  0  0  0  0  0  0
   -3.2100    0.4790   -1.2260 O   0  0  0  0  0  0  0  0  0  0  0  0
  1  2  1  0
  2  3  2  0
  2 12  1  0
  3  4  1  0
  4  5  1  0
  4  6  2  0
  6  7  1  0
  6 11  1  0
  7  8  1  6
  7  9  2  0
  7 10  2  0
 11 12  2  0
 12 13  1  0
 13 14  1  1
 13 15  2  0
 13 16  2  0
M  END
