
     RDKit          3D

 15 14  0  0  0  0  0  0  0  0999 V2000
   -4.5410    2.0910   -0.8940 N   0  0  0  0  0  0  0  0  0  0  0  0
   -4.0020    0.7550   -0.7170 C   0  0  0  0  0  0  0  0  0  0  0  0
   -4.8170   -0.1430   -1.0000 O   0  0  0  0  0  0  0  0  0  0  0  0
   -2.6740    0.6320   -0.2600 C   0  0  0  0  0  0  0  0  0  0  0  0
   -1.8410    1.4160    0.0310 O   0  0  0  0  0  0  0  0  0  0  0  0
   -2.1320   -0.9950   -0.0840 N   0  0  0  0  0  0  0  0  0  0  0  0
   -0.8530   -0.7260    0.3670 C   0  0  0  0  0  0  0  0  0  0  0  0
   -0.1840    0.2240    0.5980 O   0  0  0  0  0  0  0  0  0  0  0  0
   -0.1380   -2.0360    0.6240 N   0  0  0  0  0  0  0  0  0  0  0  0
    1.1520   -2.1460    1.0320 C   0  0  0  0  0  0  0  0  0  0  0  0
    1.6930   -3.7130    1.2770 S   0  0  0  0  0  0  0  0  0  0  0  0
    2.3670   -0.9000    1.2220 S   0  0  0  0  0  0  0  0  0  0  0  0
    2.8420   -0.0640   -0.2870 C   0  0  0  0  0  0  0  0  0  0  0  0
    3.8380    1.0680   -0.0010 C   0  0  0  0  0  0  0  0  0  0  0  0
    4.9520    0.4970    0.6220 O   0  0  0  0  0  0  0  0  0  0  0  0
  1  2  1  0
  2  3  2  0
  2  4  1  0
  4  5  2  0
  4  6  1  0
  6  7  1  0
  7  8  2  0
  7  9  1  0
  9 10  1  0
 10 11  2  0
 10 12  1  0
 12 13  1  0
 13 14  1  0
 14 15  1  0
M  END
