
     RDKit          3D

 27 29  0  0  0  0  0  0  0  0999 V2000
   -0.4290    4.7940   -1.1350 C   0  0  0  0  0  0  0  0  0  0  0  0
   -0.9210    4.1380    0.1410 C   0  0  0  0  0  0  0  0  0  0  0  0
   -1.4240    4.8840    1.0770 C   0  0  0  0  0  0  0  0  0  0  0  0
   -2.0180    4.2610    2.5860 Cl  0  0  0  0  0  0  0  0  0  0  0  0
   -1.5260    6.6200    0.8390 Cl  0  0  0  0  0  0  0  0  0  0  0  0
   -0.8010    2.6880    0.1360 C   0  0  0  0  0  0  0  0  0  0  0  0
    0.3310    1.9840   -0.0740 N   0  0  0  0  0  0  0  0  0  0  0  0
    0.0910    0.6770   -0.0400 C   0  0  0  0  0  0  0  0  0  0  0  0
    1.0600   -0.4040   -0.2220 C   0  0  0  0  0  0  0  0  0  0  0  0
    2.4120    0.0190   -0.4630 N   0  0  0  0  0  0  0  0  0  0  0  0
    3.4400   -0.9510   -0.6480 C   0  0  0  0  0  0  0  0  0  0  0  0
    3.1190   -2.1650   -0.5890 O   0  0  0  0  0  0  0  0  0  0  0  0
    4.7900   -0.5850   -0.8920 N   0  0  0  0  0  0  0  0  0  0  0  0
    5.8150   -1.5870   -1.0740 C   0  0  2  0  0  0  0  0  0  0  0  0
    7.1930   -1.2410   -0.6800 C   0  0  0  0  0  0  0  0  0  0  0  0
    6.8510   -1.4200   -2.1230 C   0  0  0  0  0  0  0  0  0  0  0  0
   -1.2790    0.4620    0.2060 C   0  0  0  0  0  0  0  0  0  0  0  0
   -1.9380   -0.8200    0.3050 C   0  0  0  0  0  0  0  0  0  0  0  0
   -1.2220   -1.8210   -0.0530 O   0  0  0  0  0  0  0  0  0  0  0  0
   -3.2270   -1.0740    0.7370 N   0  0  0  0  0  0  0  0  0  0  0  0
   -3.8520   -2.3800    0.8160 C   0  0  0  0  0  0  0  0  0  0  0  0
   -3.3470   -3.5410    0.5100 C   0  0  0  0  0  0  0  0  0  0  0  0
   -4.3360   -4.6200    0.7420 C   0  0  0  0  0  0  0  0  0  0  0  0
   -5.5140   -3.8940    1.2380 C   0  0  0  0  0  0  0  0  0  0  0  0
   -5.2310   -2.6150    1.2780 C   0  0  0  0  0  0  0  0  0  0  0  0
   -1.8000    1.7220    0.3070 C   0  0  0  0  0  0  0  0  0  0  0  0
   -3.2330    2.1000    0.5030 C   0  0  0  0  0  0  0  0  0  0  0  0
  1  2  1  0
  2  3  2  3
  2  6  1  0
  3  4  1  0
  3  5  1  0
  6  7  1  0
  6 26  2  0
  7  8  1  0
  8  9  1  0
  8 17  2  0
  9 10  1  0
 10 11  1  0
 11 12  2  0
 11 13  1  0
 14 13  1  6
 14 15  1  0
 14 16  1  0
 15 16  1  0
 17 18  1  0
 17 26  1  0
 18 19  2  0
 18 20  1  0
 20 21  1  0
 21 22  2  0
 21 25  1  0
 22 23  1  0
 23 24  1  0
 24 25  2  0
 26 27  1  0
M  END
