
     RDKit          3D

 15 15  0  0  0  0  0  0  0  0999 V2000
   -2.4490    2.4280    0.7580 N   0  0  0  0  0  0  0  0  0  0  0  0
   -1.1460    2.1010    0.2540 C   0  0  0  0  0  0  0  0  0  0  0  0
   -0.0220    3.2050   -0.4590 S   0  0  0  0  0  0  0  0  0  0  0  0
    1.2550    2.0060   -0.7920 C   0  0  0  0  0  0  0  0  0  0  0  0
    2.7860    2.2640   -1.5190 Cl  0  0  0  0  0  0  0  0  0  0  0  0
    0.6910    0.7360   -0.2950 C   0  0  0  0  0  0  0  0  0  0  0  0
    1.6070   -0.4370   -0.5110 C   0  0  1  0  0  0  0  0  0  0  0  0
    2.9070   -0.1690   -0.0080 O   0  0  0  0  0  0  0  0  0  0  0  0
    1.2270   -1.7880   -0.2690 C   0  0  0  0  0  0  0  0  0  0  0  0
    2.2030   -2.5980   -1.0220 O   0  0  0  0  0  0  0  0  0  0  0  0
   -0.5280    0.8190    0.2310 C   0  0  0  0  0  0  0  0  0  0  0  0
   -1.4580   -0.5250    0.9140 S   0  0  1  0  0  0  0  0  0  0  0  0
   -2.2720   -1.3250   -0.3730 N   0  0  0  0  0  0  0  0  0  0  0  0
   -0.6890   -1.4980    1.6810 O   0  0  0  0  0  0  0  0  0  0  0  0
   -2.5830    0.0580    1.7630 O   0  0  0  0  0  0  0  0  0  0  0  0
  1  2  1  0
  2  3  1  0
  2 11  2  0
  3  4  1  0
  4  5  1  0
  4  6  2  0
  6  7  1  0
  6 11  1  0
  7  8  1  1
  7  9  1  0
  9 10  1  0
 11 12  1  0
 12 13  1  6
 12 14  2  0
 12 15  2  0
M  END
