
     RDKit          3D

 15 14  0  0  0  0  0  0  0  0999 V2000
   -4.3010    0.7530   -1.2780 O   0  0  0  0  0  0  0  0  0  0  0  0
   -4.0400    0.4400   -0.0850 C   0  0  0  0  0  0  0  0  0  0  0  0
   -5.0230    0.7950    0.9420 C   0  0  0  0  0  0  0  0  0  0  0  0
   -4.6780    0.4280    2.2170 O   0  0  0  0  0  0  0  0  0  0  0  0
   -2.8320   -0.2320    0.2360 N   0  0  0  0  0  0  0  0  0  0  0  0
   -1.9650   -0.5230   -0.8180 N   0  0  0  0  0  0  0  0  0  0  0  0
   -0.5660   -0.6310   -0.5710 C   0  0  0  0  0  0  0  0  0  0  0  0
   -0.1150   -0.4650    0.6070 O   0  0  0  0  0  0  0  0  0  0  0  0
    0.3810   -0.9210   -1.5900 N   0  0  0  0  0  0  0  0  0  0  0  0
    1.7640   -1.0180   -1.2900 C   0  0  0  0  0  0  0  0  0  0  0  0
    2.8520   -1.3480   -2.4430 S   0  0  0  0  0  0  0  0  0  0  0  0
    2.2950   -0.7770    0.3890 S   0  0  0  0  0  0  0  0  0  0  0  0
    4.0930   -0.9090    0.5460 C   0  0  0  0  0  0  0  0  0  0  0  0
    4.7170    0.2500   -0.1790 C   0  0  0  0  0  0  0  0  0  0  0  0
    4.2440    1.4290    0.4230 O   0  0  0  0  0  0  0  0  0  0  0  0
  1  2  2  0
  2  3  1  0
  2  5  1  0
  3  4  1  0
  5  6  1  0
  6  7  1  0
  7  8  2  0
  7  9  1  0
  9 10  1  0
 10 11  2  0
 10 12  1  0
 12 13  1  0
 13 14  1  0
 14 15  1  0
M  END
