
     RDKit          3D

 17 17  0  0  0  0  0  0  0  0999 V2000
   -3.2550   -1.0940   -1.4090 C   0  0  0  0  0  0  0  0  0  0  0  0
   -1.8470   -1.2130   -1.1130 C   0  0  0  0  0  0  0  0  0  0  0  0
   -1.0430   -0.4130   -0.4300 C   0  0  0  0  0  0  0  0  0  0  0  0
    0.3880   -0.8070   -0.2890 C   0  0  0  0  0  0  0  0  0  0  0  0
    0.6650   -2.1930   -0.4000 N   0  0  0  0  0  0  0  0  0  0  0  0
    0.6910   -3.1050    0.7260 C   0  0  0  0  0  0  0  0  0  0  0  0
    1.3710    0.0760   -0.0730 C   0  0  0  0  0  0  0  0  0  0  0  0
    2.7300   -0.3800    0.0540 C   0  0  0  0  0  0  0  0  0  0  0  0
    3.8750    0.1010    0.2490 C   0  0  0  0  0  0  0  0  0  0  0  0
    4.2950    1.4750    0.4450 C   0  0  0  0  0  0  0  0  0  0  0  0
    5.3660   -1.1750    0.3060 Br  0  0  0  0  0  0  0  0  0  0  0  0
    0.9610    1.4420    0.0090 C   0  0  0  0  0  0  0  0  0  0  0  0
    1.7100    2.4180    0.2030 O   0  0  0  0  0  0  0  0  0  0  0  0
   -0.4020    1.8140   -0.1330 O   0  0  0  0  0  0  0  0  0  0  0  0
   -1.3820    0.8470    0.2370 C   0  0  1  0  0  0  0  0  0  0  0  0
   -2.7100    1.4560   -0.0180 C   0  0  0  0  0  0  0  0  0  0  0  0
   -2.7370    2.6650    0.8630 N   0  0  0  0  0  0  0  0  0  0  0  0
  1  2  1  0
  2  3  2  3
  3  4  1  0
  3 15  1  0
  4  5  1  0
  4  7  2  0
  5  6  1  0
  7  8  1  0
  7 12  1  0
  8  9  2  3
  9 10  1  0
  9 11  1  0
 12 13  2  0
 12 14  1  0
 14 15  1  0
 15 16  1  6
 16 17  1  0
M  CHG  1  17   1
M  END
