
     RDKit          3D

 17 18  0  0  0  0  0  0  0  0999 V2000
    1.8800   -1.0310   -2.3050 O   0  0  0  0  0  0  0  0  0  0  0  0
    2.0030   -0.6020   -1.1290 C   0  0  0  0  0  0  0  0  0  0  0  0
    0.8290   -0.0750   -0.5310 N   0  0  0  0  0  0  0  0  0  0  0  0
   -0.4450   -0.0270   -1.2210 C   0  0  0  0  0  0  0  0  0  0  0  0
   -1.5340    0.5710   -0.3880 C   0  0  2  0  0  0  0  0  0  0  0  0
   -1.2230    1.8840   -0.0180 O   0  0  0  0  0  0  0  0  0  0  0  0
   -1.7710   -0.2020    0.8840 C   0  0  0  0  0  0  0  0  0  0  0  0
   -3.0250    0.2350    1.5650 C   0  0  0  0  0  0  0  0  0  0  0  0
   -4.1840    0.2360    0.7290 N   0  0  0  0  0  0  0  0  0  0  0  0
   -3.9920    1.0660   -0.4470 C   0  0  0  0  0  0  0  0  0  0  0  0
   -2.8120    0.5160   -1.2000 C   0  0  0  0  0  0  0  0  0  0  0  0
    3.2890   -0.6560   -0.4460 C   0  0  0  0  0  0  0  0  0  0  0  0
    4.3900   -1.1430   -0.9880 C   0  0  0  0  0  0  0  0  0  0  0  0
    5.5210   -1.0610   -0.0580 C   0  0  0  0  0  0  0  0  0  0  0  0
    4.9180   -0.4420    1.1410 C   0  0  0  0  0  0  0  0  0  0  0  0
    5.8820   -0.0570    2.7390 Br  0  0  0  0  0  0  0  0  0  0  0  0
    3.6390   -0.2230    0.8840 C   0  0  0  0  0  0  0  0  0  0  0  0
  1  2  2  0
  2  3  1  0
  2 12  1  0
  3  4  1  0
  4  5  1  0
  5  6  1  1
  5  7  1  0
  5 11  1  0
  7  8  1  0
  8  9  1  0
  9 10  1  0
 10 11  1  0
 12 13  2  0
 12 17  1  0
 13 14  1  0
 14 15  1  0
 15 16  1  0
 15 17  2  0
M  CHG  1   9   1
M  END
