
     RDKit          3D

 17 17  0  0  0  0  0  0  0  0999 V2000
   -1.8480    1.1970    1.4270 C   0  0  0  0  0  0  0  0  0  0  0  0
   -1.8370    0.6820    0.0020 C   0  0  1  0  0  0  0  0  0  0  0  0
   -2.7550    1.4970   -0.8800 C   0  0  0  0  0  0  0  0  0  0  0  0
   -0.4250    0.8890   -0.5240 C   0  0  0  0  0  0  0  0  0  0  0  0
    0.5760    0.0390    0.2250 C   0  0  2  0  0  0  0  0  0  0  0  0
    1.8780    0.2650   -0.3090 N   0  0  0  0  0  0  0  0  0  0  0  0
    3.0040   -0.4370    0.2310 C   0  0  0  0  0  0  0  0  0  0  0  0
    2.8740   -1.0320    1.3920 C   0  0  0  0  0  0  0  0  0  0  0  0
    4.3650   -1.9670    2.1180 Br  0  0  0  0  0  0  0  0  0  0  0  0
    4.2970   -0.5020   -0.4930 C   0  0  0  0  0  0  0  0  0  0  0  0
    4.7980    0.8660   -0.6830 N   0  0  0  0  0  0  0  0  0  0  0  0
    0.1190   -1.3700    0.1130 C   0  0  0  0  0  0  0  0  0  0  0  0
    0.8960   -2.3100   -0.2590 O   0  0  0  0  0  0  0  0  0  0  0  0
   -1.2140   -1.6190    0.4350 O   0  0  0  0  0  0  0  0  0  0  0  0
   -2.2440   -0.7560    0.0260 C   0  0  2  0  0  0  0  0  0  0  0  0
   -2.7500   -1.2520   -1.3100 C   0  0  0  0  0  0  0  0  0  0  0  0
   -3.4280   -0.8670    0.9940 C   0  0  0  0  0  0  0  0  0  0  0  0
  2  1  1  1
  2  3  1  0
  2  4  1  0
  2 15  1  0
  4  5  1  0
  5  6  1  6
  5 12  1  0
  6  7  1  0
  7  8  2  3
  7 10  1  0
  8  9  1  0
 10 11  1  0
 12 13  2  0
 12 14  1  0
 14 15  1  0
 15 16  1  6
 15 17  1  0
M  CHG  1  11   1
M  END
