
     RDKit          3D

 17 18  0  0  0  0  0  0  0  0999 V2000
   -4.6350   -0.3840   -0.0290 N   0  0  0  0  0  0  0  0  0  0  0  0
   -3.9300    0.5180    0.7650 C   0  0  0  0  0  0  0  0  0  0  0  0
   -2.6700    0.7480    0.9190 C   0  0  0  0  0  0  0  0  0  0  0  0
   -1.4780    0.1680    0.3410 C   0  0  0  0  0  0  0  0  0  0  0  0
   -0.2650    0.6720    0.6640 C   0  0  0  0  0  0  0  0  0  0  0  0
   -0.0950    1.7920    1.5960 C   0  0  0  0  0  0  0  0  0  0  0  0
    0.7420    1.1710    3.2300 Br  0  0  0  0  0  0  0  0  0  0  0  0
    0.9140    0.2090   -0.0220 N   0  0  0  0  0  0  0  0  0  0  0  0
    2.2280    0.5000    0.2940 C   0  0  0  0  0  0  0  0  0  0  0  0
    2.5240    1.3030    1.2450 O   0  0  0  0  0  0  0  0  0  0  0  0
    3.3760   -0.0950   -0.4410 C   0  0  1  0  0  0  0  0  0  0  0  0
    4.5360    0.8970   -0.6430 C   0  0  0  0  0  0  0  0  0  0  0  0
    4.6700   -0.2690    0.2760 C   0  0  0  0  0  0  0  0  0  0  0  0
    0.6190   -0.6010   -1.2120 C   0  0  0  0  0  0  0  0  0  0  0  0
   -0.2580   -1.7060   -0.6870 C   0  0  0  0  0  0  0  0  0  0  0  0
   -1.6310   -1.0350   -0.4800 C   0  0  1  0  0  0  0  0  0  0  0  0
   -2.4490   -1.9960    0.1500 O   0  0  0  0  0  0  0  0  0  0  0  0
  1  2  1  0
  2  3  2  3
  3  4  1  0
  4  5  2  0
  4 16  1  0
  5  6  1  0
  5  8  1  0
  6  7  1  0
  8  9  1  0
  8 14  1  0
  9 10  2  0
 11  9  1  1
 11 12  1  0
 11 13  1  0
 12 13  1  0
 14 15  1  0
 15 16  1  0
 16 17  1  1
M  CHG  1   1   1
M  END
