
     RDKit          3D

 17 18  0  0  0  0  0  0  0  0999 V2000
    4.8080   -0.1680    0.5380 C   0  0  0  0  0  0  0  0  0  0  0  0
    3.3410    0.1670    0.5370 C   0  0  0  0  0  0  0  0  0  0  0  0
    2.5950   -0.5770   -0.4580 N   0  0  2  0  0  0  0  0  0  0  0  0
    2.2690    0.2900   -1.5510 C   0  0  0  0  0  0  0  0  0  0  0  0
    1.1460    1.2330   -1.1600 C   0  0  0  0  0  0  0  0  0  0  0  0
   -0.0730    0.3640   -0.8650 C   0  0  2  0  0  0  0  0  0  0  0  0
   -1.2000    1.1800   -0.6480 O   0  0  0  0  0  0  0  0  0  0  0  0
   -2.4130    0.5640   -0.3630 C   0  0  0  0  0  0  0  0  0  0  0  0
   -3.0750   -0.1400   -1.2570 C   0  0  0  0  0  0  0  0  0  0  0  0
   -4.3540   -0.7880   -0.9540 C   0  0  0  0  0  0  0  0  0  0  0  0
   -4.7780   -0.5830    0.3430 O   0  0  0  0  0  0  0  0  0  0  0  0
   -4.1090    0.1420    1.2840 C   0  0  0  0  0  0  0  0  0  0  0  0
   -4.5890    0.3270    2.6190 N   0  0  0  0  0  0  0  0  0  0  0  0
   -2.9570    0.7130    0.9760 C   0  0  0  0  0  0  0  0  0  0  0  0
   -2.0160    1.7380    2.3130 Br  0  0  0  0  0  0  0  0  0  0  0  0
    0.2870   -0.4370    0.3850 C   0  0  0  0  0  0  0  0  0  0  0  0
    1.4820   -1.2790    0.1000 C   0  0  0  0  0  0  0  0  0  0  0  0
  1  2  1  0
  3  2  1  1
  3  4  1  0
  3 17  1  0
  4  5  1  0
  5  6  1  0
  6  7  1  1
  6 16  1  0
  7  8  1  0
  8  9  2  0
  8 14  1  0
  9 10  1  0
 10 11  1  0
 11 12  1  0
 12 13  1  0
 12 14  2  0
 14 15  1  0
 16 17  1  0
M  CHG  1   3   1
M  END
