
     RDKit          3D

 17 18  0  0  0  0  0  0  0  0999 V2000
   -1.6940   -1.9720   -1.2870 N   0  0  0  0  0  0  0  0  0  0  0  0
   -0.9990   -1.9290   -0.0310 C   0  0  0  0  0  0  0  0  0  0  0  0
   -0.4830   -0.5790    0.3280 C   0  0  1  0  0  0  0  0  0  0  0  0
    0.4870   -0.0130   -0.6570 C   0  0  0  0  0  0  0  0  0  0  0  0
    1.7230   -0.8300   -0.8620 C   0  0  2  0  0  0  0  0  0  0  0  0
    2.5050   -1.0000    0.4090 C   0  0  0  0  0  0  0  0  0  0  0  0
    3.0180    0.2880    0.9690 C   0  0  0  0  0  0  0  0  0  0  0  0
    3.1480    1.3260   -0.0240 N   0  0  0  0  0  0  0  0  0  0  0  0
    3.0030    1.1120   -1.4210 C   0  0  0  0  0  0  0  0  0  0  0  0
    3.2970    2.0080   -2.2710 O   0  0  0  0  0  0  0  0  0  0  0  0
    2.5210   -0.1270   -1.8230 O   0  0  0  0  0  0  0  0  0  0  0  0
   -1.5780    0.4310    0.5040 C   0  0  0  0  0  0  0  0  0  0  0  0
   -1.8900    1.0030    1.6540 C   0  0  0  0  0  0  0  0  0  0  0  0
   -1.0130    0.6620    3.3210 Br  0  0  0  0  0  0  0  0  0  0  0  0
   -3.0060    1.9250    1.4180 C   0  0  0  0  0  0  0  0  0  0  0  0
   -3.2940    1.8070   -0.0190 C   0  0  0  0  0  0  0  0  0  0  0  0
   -2.4560    0.9340   -0.5420 C   0  0  0  0  0  0  0  0  0  0  0  0
  1  2  1  0
  3  2  1  6
  3  4  1  0
  3 12  1  0
  5  4  1  1
  5  6  1  0
  5 11  1  0
  6  7  1  0
  7  8  1  0
  8  9  1  0
  9 10  2  0
  9 11  1  0
 12 13  2  0
 12 17  1  0
 13 14  1  0
 13 15  1  0
 15 16  1  0
 16 17  2  0
M  CHG  1   1   1
M  END
