
     RDKit          3D

 17 18  0  0  0  0  0  0  0  0999 V2000
   -3.0850   -1.6580   -1.4400 C   0  0  0  0  0  0  0  0  0  0  0  0
   -1.9780   -1.3770   -0.4770 C   0  0  0  0  0  0  0  0  0  0  0  0
   -1.2450   -2.9150    0.3670 Br  0  0  0  0  0  0  0  0  0  0  0  0
   -1.6630   -0.1250   -0.2330 C   0  0  0  0  0  0  0  0  0  0  0  0
   -2.3520    1.0380   -0.8540 C   0  0  0  0  0  0  0  0  0  0  0  0
   -2.5320    2.0920    0.1510 N   0  0  0  0  0  0  0  0  0  0  0  0
   -2.3660    1.5090    1.5030 C   0  0  0  0  0  0  0  0  0  0  0  0
   -0.9500    1.0790    1.6520 C   0  0  0  0  0  0  0  0  0  0  0  0
   -0.0560    1.4660    2.5890 O   0  0  0  0  0  0  0  0  0  0  0  0
   -0.5820    0.1930    0.7000 C   0  0  0  0  0  0  0  0  0  0  0  0
    0.7100   -0.4040    0.6510 C   0  0  0  0  0  0  0  0  0  0  0  0
    1.4960   -0.1330    1.6240 O   0  0  0  0  0  0  0  0  0  0  0  0
    1.2210   -1.2490   -0.3510 N   0  0  0  0  0  0  0  0  0  0  0  0
    2.5420   -1.7810   -0.2810 C   0  0  0  0  0  0  0  0  0  0  0  0
    3.6620   -0.8090   -0.3590 C   0  0  1  0  0  0  0  0  0  0  0  0
    3.7720    0.0020   -1.6490 C   0  0  0  0  0  0  0  0  0  0  0  0
    3.5690    0.6430   -0.2940 C   0  0  0  0  0  0  0  0  0  0  0  0
  1  2  1  0
  2  3  1  0
  2  4  2  3
  4  5  1  0
  4 10  1  0
  5  6  1  0
  6  7  1  0
  7  8  1  0
  8  9  1  0
  8 10  2  0
 10 11  1  0
 11 12  2  0
 11 13  1  0
 13 14  1  0
 15 14  1  6
 15 16  1  0
 15 17  1  0
 16 17  1  0
M  CHG  1   6   1
M  END
