
     RDKit          3D

 24 25  0  0  0  0  0  0  0  0999 V2000
   -3.8640   -2.2600    1.2170 C   0  0  0  0  0  0  0  0  0  0  0  0
   -3.3300   -1.5700    0.0740 N   0  0  0  0  0  0  0  0  0  0  0  0
   -2.6710   -0.3860    0.3860 N   0  0  0  0  0  0  0  0  0  0  0  0
   -1.4930   -0.4970    1.0700 O   0  0  0  0  0  0  0  0  0  0  0  0
   -0.6140    0.5180    0.6560 C   0  0  0  0  0  0  0  0  0  0  0  0
    0.6970   -0.0330    0.1580 C   0  0  0  0  0  0  0  0  0  0  0  0
    1.4860   -1.0320    0.5970 N   0  0  0  0  0  0  0  0  0  0  0  0
    2.5390   -1.1480   -0.1850 N   0  0  0  0  0  0  0  0  0  0  0  0
    3.6360   -2.0960   -0.0780 C   0  0  0  0  0  0  0  0  0  0  0  0
    4.7650   -1.5530    0.7610 C   0  0  0  0  0  0  0  0  0  0  0  0
    5.7670   -2.5230    0.8010 O   0  0  0  0  0  0  0  0  0  0  0  0
    2.4560   -0.2210   -1.1540 C   0  0  0  0  0  0  0  0  0  0  0  0
    3.3140   -0.0590   -2.0810 O   0  0  0  0  0  0  0  0  0  0  0  0
    1.3090    0.4730   -0.9390 N   0  0  0  0  0  0  0  0  0  0  0  0
    0.7590    1.5640   -1.6920 C   0  0  0  0  0  0  0  0  0  0  0  0
    0.8050    1.3700   -2.9770 O   0  0  0  0  0  0  0  0  0  0  0  0
    0.2280    2.7100   -1.2890 O   0  0  0  0  0  0  0  0  0  0  0  0
   -0.1650    3.3630   -0.2370 O   0  0  0  0  0  0  0  0  0  0  0  0
   -1.4280    3.8930    0.0360 C   0  0  0  0  0  0  0  0  0  0  0  0
   -1.5380    5.1380    0.3630 O   0  0  0  0  0  0  0  0  0  0  0  0
   -2.5960    3.1760   -0.0200 O   0  0  0  0  0  0  0  0  0  0  0  0
   -3.0980    2.1340    0.7330 C   0  0  0  0  0  0  0  0  0  0  0  0
   -3.2410    0.8400   -0.0250 C   0  0  0  0  0  0  0  0  0  0  0  0
   -3.9330    0.9340   -1.0920 O   0  0  0  0  0  0  0  0  0  0  0  0
  1  2  1  0
  2  3  1  0
  3  4  1  0
  3 23  1  0
  4  5  1  0
  5  6  1  0
  6  7  2  0
  6 14  1  0
  7  8  1  0
  8  9  1  0
  8 12  1  0
  9 10  1  0
 10 11  1  0
 12 13  2  0
 12 14  1  0
 14 15  1  0
 15 16  2  0
 15 17  1  0
 17 18  1  0
 18 19  1  0
 19 20  2  0
 19 21  1  0
 21 22  1  0
 22 23  1  0
 23 24  2  0
M  END
