
     RDKit          3D

 24 24  0  0  0  0  0  0  0  0999 V2000
   -3.9830    1.3850    2.5080 O   0  0  0  0  0  0  0  0  0  0  0  0
   -3.8670    0.5190    1.6340 C   0  0  0  0  0  0  0  0  0  0  0  0
   -4.8390    0.3230    0.6150 N   0  0  0  0  0  0  0  0  0  0  0  0
   -6.0420    1.1200    0.5150 C   0  0  0  0  0  0  0  0  0  0  0  0
   -5.6670    2.5510    0.3170 C   0  0  0  0  0  0  0  0  0  0  0  0
   -4.9170    2.6230   -0.8730 O   0  0  0  0  0  0  0  0  0  0  0  0
   -2.7470   -0.2940    1.6440 O   0  0  0  0  0  0  0  0  0  0  0  0
   -1.7140   -0.1900    2.6090 C   0  0  0  0  0  0  0  0  0  0  0  0
   -0.6900   -1.2490    2.2640 C   0  0  0  0  0  0  0  0  0  0  0  0
   -0.1990   -0.9820    0.9360 N   0  0  0  0  0  0  0  0  0  0  0  0
    0.7780   -1.8330    0.3660 C   0  0  0  0  0  0  0  0  0  0  0  0
    1.1840   -2.8030    1.0560 O   0  0  0  0  0  0  0  0  0  0  0  0
    1.2930   -1.5610   -1.0180 C   0  0  1  0  0  0  0  0  0  0  0  0
    1.8050   -0.1740   -1.0490 C   0  0  0  0  0  0  0  0  0  0  0  0
    3.2820   -0.0440   -0.7830 C   0  0  0  0  0  0  0  0  0  0  0  0
    4.0770   -0.9870   -1.5010 N   0  0  0  0  0  0  0  0  0  0  0  0
    5.3410   -0.5830   -2.0320 C   0  0  0  0  0  0  0  0  0  0  0  0
    6.0300   -1.4050   -2.6560 O   0  0  0  0  0  0  0  0  0  0  0  0
    5.8040    0.7020   -1.8610 O   0  0  0  0  0  0  0  0  0  0  0  0
    6.9830    1.1150   -2.3440 O   0  0  0  0  0  0  0  0  0  0  0  0
    7.7870    1.2630   -1.2920 O   0  0  0  0  0  0  0  0  0  0  0  0
    3.6050   -2.3060   -1.6790 C   0  0  0  0  0  0  0  0  0  0  0  0
    4.3760   -3.1760   -2.1400 O   0  0  0  0  0  0  0  0  0  0  0  0
    2.2560   -2.5730   -1.3170 N   0  0  0  0  0  0  0  0  0  0  0  0
  1  2  2  0
  2  3  1  0
  2  7  1  0
  3  4  1  0
  4  5  1  0
  5  6  1  0
  7  8  1  0
  8  9  1  0
  9 10  1  0
 10 11  1  0
 11 12  2  0
 13 11  1  1
 13 14  1  0
 13 24  1  0
 14 15  1  0
 15 16  1  0
 16 17  1  0
 16 22  1  0
 17 18  2  0
 17 19  1  0
 19 20  1  0
 20 21  1  0
 22 23  2  0
 22 24  1  0
M  END
