
     RDKit          3D

 24 26  0  0  0  0  0  0  0  0999 V2000
    1.6960   -2.6950    0.5510 O   0  0  0  0  0  0  0  0  0  0  0  0
    0.9560   -1.7000    0.3660 C   0  0  0  0  0  0  0  0  0  0  0  0
   -0.4150   -1.7650    0.7610 N   0  0  0  0  0  0  0  0  0  0  0  0
   -1.2970   -0.7180    1.1060 C   0  0  0  0  0  0  0  0  0  0  0  0
   -1.3830    0.4440    0.1390 C   0  0  1  0  0  0  0  0  0  0  0  0
   -1.7970   -0.1390   -1.2080 C   0  0  0  0  0  0  0  0  0  0  0  0
   -2.7220   -1.1530   -0.8920 O   0  0  0  0  0  0  0  0  0  0  0  0
   -4.0160   -0.7550   -1.0790 C   0  0  0  0  0  0  0  0  0  0  0  0
   -4.6140    0.0580   -0.0040 C   0  0  0  0  0  0  0  0  0  0  0  0
   -3.8000    0.9740    0.6260 O   0  0  0  0  0  0  0  0  0  0  0  0
   -2.4760    1.3070    0.5950 C   0  0  0  0  0  0  0  0  0  0  0  0
   -2.1680    2.4390    0.9860 O   0  0  0  0  0  0  0  0  0  0  0  0
   -0.1380    1.2070    0.0550 C   0  0  0  0  0  0  0  0  0  0  0  0
   -0.0530    2.5380    0.0860 N   0  0  0  0  0  0  0  0  0  0  0  0
    1.1740    2.9090    0.0130 O   0  0  0  0  0  0  0  0  0  0  0  0
    2.0070    1.8660   -0.0710 C   0  0  0  0  0  0  0  0  0  0  0  0
    3.3980    1.9550   -0.1650 N   0  0  0  0  0  0  0  0  0  0  0  0
    4.3590    0.9950    0.1170 C   0  0  0  0  0  0  0  0  0  0  0  0
    4.0730   -0.1350    0.5500 O   0  0  0  0  0  0  0  0  0  0  0  0
    5.7320    1.2770   -0.0840 O   0  0  0  0  0  0  0  0  0  0  0  0
    6.6280    0.3290    0.1970 O   0  0  0  0  0  0  0  0  0  0  0  0
    6.0730   -0.8310    0.4210 O   0  0  0  0  0  0  0  0  0  0  0  0
    1.1940    0.7920   -0.0510 C   0  0  0  0  0  0  0  0  0  0  0  0
    1.5680   -0.5710   -0.2370 N   0  0  0  0  0  0  0  0  0  0  0  0
  1  2  2  0
  2  3  1  0
  2 24  1  0
  3  4  1  0
  5  4  1  1
  5  6  1  0
  5 11  1  0
  5 13  1  0
  6  7  1  0
  7  8  1  0
  8  9  1  0
  9 10  1  0
 10 11  1  0
 11 12  2  0
 13 14  2  0
 13 23  1  0
 14 15  1  0
 15 16  1  0
 16 17  1  0
 16 23  2  0
 17 18  1  0
 18 19  2  0
 18 20  1  0
 20 21  1  0
 21 22  1  0
 23 24  1  0
M  END
