
     RDKit          3D

 24 25  0  0  0  0  0  0  0  0999 V2000
   -2.6290    4.2010    0.6200 O   0  0  0  0  0  0  0  0  0  0  0  0
   -2.2100    3.0170    0.4410 C   0  0  0  0  0  0  0  0  0  0  0  0
   -0.8020    2.8030    0.0290 C   0  0  0  0  0  0  0  0  0  0  0  0
   -0.7100    1.7940   -0.9120 O   0  0  0  0  0  0  0  0  0  0  0  0
    0.3580    1.2670   -1.5800 C   0  0  0  0  0  0  0  0  0  0  0  0
    0.1840    1.1860   -2.8690 O   0  0  0  0  0  0  0  0  0  0  0  0
    1.5960    0.8120   -1.0570 N   0  0  0  0  0  0  0  0  0  0  0  0
    1.8830   -0.2970   -0.2460 C   0  0  0  0  0  0  0  0  0  0  0  0
    2.8670   -0.1480    0.6170 N   0  0  0  0  0  0  0  0  0  0  0  0
    3.6120    1.0550    0.7390 C   0  0  0  0  0  0  0  0  0  0  0  0
    4.5980    0.8590    1.7040 O   0  0  0  0  0  0  0  0  0  0  0  0
    5.3470    1.8980    1.9040 O   0  0  0  0  0  0  0  0  0  0  0  0
    1.2430   -1.6450   -0.2180 C   0  0  0  0  0  0  0  0  0  0  0  0
    2.1510   -2.6100   -0.3010 N   0  0  0  0  0  0  0  0  0  0  0  0
    2.1120   -3.9030   -0.3180 O   0  0  0  0  0  0  0  0  0  0  0  0
   -0.1710   -1.7320   -0.1070 N   0  0  0  0  0  0  0  0  0  0  0  0
   -1.1290   -1.7900   -1.2180 C   0  0  0  0  0  0  0  0  0  0  0  0
   -2.4320   -1.1470   -1.0300 C   0  0  0  0  0  0  0  0  0  0  0  0
   -3.0450   -1.0440    0.2980 C   0  0  1  0  0  0  0  0  0  0  0  0
   -1.9640   -0.7220    1.2900 C   0  0  0  0  0  0  0  0  0  0  0  0
   -0.9180   -1.7680    1.1670 C   0  0  0  0  0  0  0  0  0  0  0  0
   -3.9960   -0.0040    0.2530 O   0  0  0  0  0  0  0  0  0  0  0  0
   -3.3570    1.0140   -0.2830 O   0  0  0  0  0  0  0  0  0  0  0  0
   -3.0260    1.9240    0.6190 O   0  0  0  0  0  0  0  0  0  0  0  0
  1  2  2  0
  2  3  1  0
  2 24  1  0
  3  4  1  0
  4  5  1  0
  5  6  2  0
  5  7  1  0
  7  8  1  0
  8  9  2  3
  8 13  1  0
  9 10  1  0
 10 11  1  0
 11 12  1  0
 13 14  2  3
 13 16  1  0
 14 15  1  0
 16 17  1  0
 16 21  1  0
 17 18  1  0
 18 19  1  0
 19 20  1  1
 19 22  1  0
 20 21  1  0
 22 23  1  0
 23 24  1  0
M  END
