
     RDKit          3D

 24 25  0  0  0  0  0  0  0  0999 V2000
   -4.6970    1.7930    2.1390 O   0  0  0  0  0  0  0  0  0  0  0  0
   -3.8740    1.6570    1.1970 C   0  0  0  0  0  0  0  0  0  0  0  0
   -2.6480    0.8680    1.4810 C   0  0  0  0  0  0  0  0  0  0  0  0
   -2.8620   -0.5100    1.3830 O   0  0  0  0  0  0  0  0  0  0  0  0
   -1.9930   -1.5220    1.6350 C   0  0  0  0  0  0  0  0  0  0  0  0
   -2.4560   -2.6190    2.0900 O   0  0  0  0  0  0  0  0  0  0  0  0
   -0.5400   -1.4950    1.4380 C   0  0  0  0  0  0  0  0  0  0  0  0
    0.2700   -1.9210    2.4340 N   0  0  0  0  0  0  0  0  0  0  0  0
    1.5760   -1.9400    2.4030 N   0  0  0  0  0  0  0  0  0  0  0  0
    2.2040   -1.5180    1.3320 N   0  0  0  0  0  0  0  0  0  0  0  0
    1.4740   -1.0750    0.2890 C   0  0  0  0  0  0  0  0  0  0  0  0
    2.2260   -0.6270   -0.8600 N   0  0  0  0  0  0  0  0  0  0  0  0
    3.6610   -0.6240   -0.9210 C   0  0  0  0  0  0  0  0  0  0  0  0
    4.2190    0.3400    0.0860 C   0  0  0  0  0  0  0  0  0  0  0  0
    5.6130    0.3790    0.0660 O   0  0  0  0  0  0  0  0  0  0  0  0
    6.0300    1.2380    0.9670 O   0  0  0  0  0  0  0  0  0  0  0  0
    5.2900    2.3080    1.0210 O   0  0  0  0  0  0  0  0  0  0  0  0
    0.0900   -1.0450    0.2950 C   0  0  0  0  0  0  0  0  0  0  0  0
   -0.5910   -0.5790   -0.8130 O   0  0  0  0  0  0  0  0  0  0  0  0
   -1.7060   -1.2360   -1.4300 C   0  0  0  0  0  0  0  0  0  0  0  0
   -2.6510   -0.2240   -2.0260 C   0  0  0  0  0  0  0  0  0  0  0  0
   -3.5120    0.2170   -1.0530 O   0  0  0  0  0  0  0  0  0  0  0  0
   -3.6640    1.6110   -1.2200 C   0  0  0  0  0  0  0  0  0  0  0  0
   -4.1150    2.2210   -0.0410 O   0  0  0  0  0  0  0  0  0  0  0  0
  1  2  2  0
  2  3  1  0
  2 24  1  0
  3  4  1  0
  4  5  1  0
  5  6  2  0
  5  7  1  0
  7  8  2  0
  7 18  1  0
  8  9  1  0
  9 10  2  0
 10 11  1  0
 11 12  1  0
 11 18  2  0
 12 13  1  0
 13 14  1  0
 14 15  1  0
 15 16  1  0
 16 17  1  0
 18 19  1  0
 19 20  1  0
 20 21  1  0
 21 22  1  0
 22 23  1  0
 23 24  1  0
M  END
