
     RDKit          3D

 28 28  0  0  0  0  0  0  0  0999 V2000
    1.4250   -4.6180   -0.4020 O   0  0  0  0  0  0  0  0  0  0  0  0
    1.9730   -3.5890    0.0050 C   0  0  0  0  0  0  0  0  0  0  0  0
    3.0690   -3.7240    0.8470 O   0  0  0  0  0  0  0  0  0  0  0  0
    1.5200   -2.2220   -0.3590 C   0  0  0  0  0  0  0  0  0  0  0  0
    2.1460   -1.1680    0.1070 C   0  0  0  0  0  0  0  0  0  0  0  0
    1.7560    0.1750   -0.2080 C   0  0  1  0  0  0  0  0  0  0  0  0
    2.7410    1.0330   -0.6040 O   0  0  0  0  0  0  0  0  0  0  0  0
    3.0790    2.3500    0.2560 P   0  0  0  0  0  0  0  0  0  0  0  0
    3.5310    2.3520    1.8170 O   0  0  0  0  0  0  0  0  0  0  0  0
    1.6030    2.6300    0.5640 O   0  0  0  0  0  0  0  0  0  0  0  0
    3.1230    3.8670   -0.5530 O   0  0  0  0  0  0  0  0  0  0  0  0
    0.7090    0.2090   -1.2960 C   0  0  1  0  0  0  0  0  0  0  0  0
    1.3680    0.1220   -2.5330 O   0  0  0  0  0  0  0  0  0  0  0  0
   -0.3640   -0.8270   -1.1790 C   0  0  2  0  0  0  0  0  0  0  0  0
   -1.1000   -0.6620   -0.0760 O   0  0  0  0  0  0  0  0  0  0  0  0
   -2.4410   -0.5390   -0.1420 C   0  0  1  0  0  0  0  0  0  0  0  0
   -2.9310   -0.3900    1.1550 O   0  0  0  0  0  0  0  0  0  0  0  0
   -2.2320    1.0000    1.7830 P   0  0  0  0  0  0  0  0  0  0  0  0
   -2.5790    1.3990    3.3380 O   0  0  0  0  0  0  0  0  0  0  0  0
   -1.4200    2.0100    0.8020 O   0  0  0  0  0  0  0  0  0  0  0  0
   -0.9990    0.1620    2.1120 O   0  0  0  0  0  0  0  0  0  0  0  0
   -3.0470    0.4940   -0.9570 C   0  0  0  0  0  0  0  0  0  0  0  0
   -2.4400    1.3280   -1.6460 O   0  0  0  0  0  0  0  0  0  0  0  0
   -4.4290    0.5850   -0.9880 O   0  0  0  0  0  0  0  0  0  0  0  0
   -3.1070   -1.8610   -0.6150 C   0  0  1  0  0  0  0  0  0  0  0  0
   -2.8290   -2.8840    0.2380 F   0  0  0  0  0  0  0  0  0  0  0  0
   -4.4660   -1.6830   -0.7370 F   0  0  0  0  0  0  0  0  0  0  0  0
    0.3520   -2.1740   -1.2540 C   0  0  0  0  0  0  0  0  0  0  0  0
  1  2  2  0
  2  3  1  0
  2  4  1  0
  4  5  2  0
  4 28  1  0
  5  6  1  0
  6  7  1  6
  6 12  1  0
  7  8  1  0
  8  9  1  0
  8 10  1  0
  8 11  1  0
 12 13  1  6
 12 14  1  0
 14 15  1  1
 14 28  1  0
 16 15  1  1
 16 17  1  0
 16 22  1  0
 16 25  1  0
 17 18  1  0
 18 19  1  0
 18 20  1  0
 18 21  1  0
 22 23  2  0
 22 24  1  0
 25 26  1  1
 25 27  1  0
M  END
