
     RDKit          3D

 24 25  0  0  0  0  0  0  0  0999 V2000
   -3.5750    2.6840   -0.6960 C   0  0  0  0  0  0  0  0  0  0  0  0
   -3.7120    1.1790   -0.6360 C   0  0  1  0  0  0  0  0  0  0  0  0
   -3.0020    0.5340   -1.6630 O   0  0  0  0  0  0  0  0  0  0  0  0
   -1.7220    0.1280   -1.6090 N   0  0  0  0  0  0  0  0  0  0  0  0
   -0.8990    0.4200   -0.6890 N   0  0  0  0  0  0  0  0  0  0  0  0
    0.4580   -0.0350   -0.6710 C   0  0  0  0  0  0  0  0  0  0  0  0
    1.4370    0.8350   -0.4080 C   0  0  0  0  0  0  0  0  0  0  0  0
    2.8150    0.4710   -0.3710 N   0  0  0  0  0  0  0  0  0  0  0  0
    3.8760    1.4070   -0.0870 C   0  0  0  0  0  0  0  0  0  0  0  0
    4.0830    1.4080    1.3100 O   0  0  0  0  0  0  0  0  0  0  0  0
    5.0390    2.2400    1.6500 O   0  0  0  0  0  0  0  0  0  0  0  0
    6.0740    1.5870    2.1830 O   0  0  0  0  0  0  0  0  0  0  0  0
    3.1570   -0.8810   -0.6280 C   0  0  0  0  0  0  0  0  0  0  0  0
    4.3410   -1.2240   -0.8570 O   0  0  0  0  0  0  0  0  0  0  0  0
    2.1150   -1.9060   -0.6270 C   0  0  0  0  0  0  0  0  0  0  0  0
    0.7820   -1.4070   -0.9240 N   0  0  0  0  0  0  0  0  0  0  0  0
   -0.1510   -2.3370   -1.4620 C   0  0  0  0  0  0  0  0  0  0  0  0
    0.2500   -3.1280   -2.3900 O   0  0  0  0  0  0  0  0  0  0  0  0
   -1.4660   -2.4740   -1.0750 O   0  0  0  0  0  0  0  0  0  0  0  0
   -1.9100   -2.5530    0.2810 C   0  0  0  0  0  0  0  0  0  0  0  0
   -3.1650   -1.7250    0.4480 C   0  0  0  0  0  0  0  0  0  0  0  0
   -2.8030   -0.4960    1.0160 O   0  0  0  0  0  0  0  0  0  0  0  0
   -3.3570    0.7300    0.7090 C   0  0  0  0  0  0  0  0  0  0  0  0
   -3.5770    1.5350    1.6760 O   0  0  0  0  0  0  0  0  0  0  0  0
  2  1  1  1
  2  3  1  0
  2 23  1  0
  3  4  1  0
  4  5  2  0
  5  6  1  0
  6  7  2  0
  6 16  1  0
  7  8  1  0
  8  9  1  0
  8 13  1  0
  9 10  1  0
 10 11  1  0
 11 12  1  0
 13 14  2  0
 13 15  1  0
 15 16  1  0
 16 17  1  0
 17 18  2  0
 17 19  1  0
 19 20  1  0
 20 21  1  0
 21 22  1  0
 22 23  1  0
 23 24  2  0
M  END
