
     RDKit          3D

 24 25  0  0  0  0  0  0  0  0999 V2000
   -4.1250    2.5070   -0.1430 C   0  0  0  0  0  0  0  0  0  0  0  0
   -2.7570    2.0470   -0.2090 N   0  0  0  0  0  0  0  0  0  0  0  0
   -2.6100    0.6990    0.0080 N   0  0  0  0  0  0  0  0  0  0  0  0
   -1.4460    0.0870   -0.2420 O   0  0  0  0  0  0  0  0  0  0  0  0
   -0.4570    0.8520   -0.7770 C   0  0  0  0  0  0  0  0  0  0  0  0
    0.8790    0.3250   -0.4030 C   0  0  0  0  0  0  0  0  0  0  0  0
    1.8580    0.8720    0.3490 N   0  0  0  0  0  0  0  0  0  0  0  0
    2.9030    0.0840    0.4360 N   0  0  0  0  0  0  0  0  0  0  0  0
    4.1060    0.3980    1.1710 C   0  0  0  0  0  0  0  0  0  0  0  0
    5.1450    1.1080    0.3360 C   0  0  0  0  0  0  0  0  0  0  0  0
    6.2370    1.3370    1.1770 O   0  0  0  0  0  0  0  0  0  0  0  0
    2.6100   -1.0230   -0.2800 C   0  0  0  0  0  0  0  0  0  0  0  0
    3.4170   -1.9790   -0.3950 O   0  0  0  0  0  0  0  0  0  0  0  0
    1.3650   -0.8710   -0.7920 N   0  0  0  0  0  0  0  0  0  0  0  0
    0.6530   -1.8010   -1.6130 C   0  0  0  0  0  0  0  0  0  0  0  0
    1.3370   -2.2890   -2.5910 O   0  0  0  0  0  0  0  0  0  0  0  0
   -0.6580   -2.1730   -1.4130 O   0  0  0  0  0  0  0  0  0  0  0  0
   -1.1460   -3.0820   -0.5500 O   0  0  0  0  0  0  0  0  0  0  0  0
   -1.6320   -2.9560    0.7000 C   0  0  0  0  0  0  0  0  0  0  0  0
   -1.0870   -3.6500    1.6220 O   0  0  0  0  0  0  0  0  0  0  0  0
   -2.6740   -2.1480    1.1120 O   0  0  0  0  0  0  0  0  0  0  0  0
   -3.6550   -1.6090    0.2580 C   0  0  0  0  0  0  0  0  0  0  0  0
   -3.6700   -0.1390    0.5070 C   0  0  0  0  0  0  0  0  0  0  0  0
   -4.6010    0.4070    1.1560 O   0  0  0  0  0  0  0  0  0  0  0  0
  1  2  1  0
  2  3  1  0
  3  4  1  0
  3 23  1  0
  4  5  1  0
  5  6  1  0
  6  7  2  0
  6 14  1  0
  7  8  1  0
  8  9  1  0
  8 12  1  0
  9 10  1  0
 10 11  1  0
 12 13  2  0
 12 14  1  0
 14 15  1  0
 15 16  2  0
 15 17  1  0
 17 18  1  0
 18 19  1  0
 19 20  2  0
 19 21  1  0
 21 22  1  0
 22 23  1  0
 23 24  2  0
M  END
