
     RDKit          3D

 24 25  0  0  0  0  0  0  0  0999 V2000
   -2.6340    3.8640    1.5360 O   0  0  0  0  0  0  0  0  0  0  0  0
   -2.2840    3.1090    0.5970 C   0  0  0  0  0  0  0  0  0  0  0  0
   -0.8600    2.9410    0.2010 C   0  0  0  0  0  0  0  0  0  0  0  0
   -0.1910    2.2900    1.2180 O   0  0  0  0  0  0  0  0  0  0  0  0
    1.0950    1.7920    1.3130 C   0  0  0  0  0  0  0  0  0  0  0  0
    1.6270    2.2610    2.4270 O   0  0  0  0  0  0  0  0  0  0  0  0
    1.8070    0.9490    0.4620 N   0  0  0  0  0  0  0  0  0  0  0  0
    1.8290   -0.4570    0.2810 C   0  0  0  0  0  0  0  0  0  0  0  0
    2.9000   -1.0400   -0.2920 N   0  0  0  0  0  0  0  0  0  0  0  0
    4.0040   -0.1940   -0.7060 C   0  0  0  0  0  0  0  0  0  0  0  0
    5.1400   -0.9430   -0.9770 O   0  0  0  0  0  0  0  0  0  0  0  0
    6.1220   -0.1760   -1.3470 O   0  0  0  0  0  0  0  0  0  0  0  0
    0.7830   -1.4400    0.6470 C   0  0  0  0  0  0  0  0  0  0  0  0
    1.2800   -2.4550    1.3550 N   0  0  0  0  0  0  0  0  0  0  0  0
    2.5220   -2.6670    1.7410 O   0  0  0  0  0  0  0  0  0  0  0  0
   -0.5770   -1.3110    0.2430 N   0  0  0  0  0  0  0  0  0  0  0  0
   -1.0240   -1.6730   -1.1350 C   0  0  0  0  0  0  0  0  0  0  0  0
   -2.0230   -0.6840   -1.6770 C   0  0  0  0  0  0  0  0  0  0  0  0
   -3.3140   -0.8380   -0.9400 C   0  0  1  0  0  0  0  0  0  0  0  0
   -2.9820   -1.5070    0.3850 C   0  0  0  0  0  0  0  0  0  0  0  0
   -1.7220   -0.8310    0.9710 C   0  0  0  0  0  0  0  0  0  0  0  0
   -3.9340    0.4010   -0.7170 O   0  0  0  0  0  0  0  0  0  0  0  0
   -3.0890    1.3930   -0.8730 O   0  0  0  0  0  0  0  0  0  0  0  0
   -3.2870    2.4270   -0.0700 O   0  0  0  0  0  0  0  0  0  0  0  0
  1  2  2  0
  2  3  1  0
  2 24  1  0
  3  4  1  0
  4  5  1  0
  5  6  2  0
  5  7  1  0
  7  8  1  0
  8  9  2  3
  8 13  1  0
  9 10  1  0
 10 11  1  0
 11 12  1  0
 13 14  2  3
 13 16  1  0
 14 15  1  0
 16 17  1  0
 16 21  1  0
 17 18  1  0
 18 19  1  0
 19 20  1  1
 19 22  1  0
 20 21  1  0
 22 23  1  0
 23 24  1  0
M  END
