
     RDKit          3D

 24 25  0  0  0  0  0  0  0  0999 V2000
   -2.5500    0.8890    2.2610 O   0  0  0  0  0  0  0  0  0  0  0  0
   -2.9850    1.1200    1.0830 C   0  0  0  0  0  0  0  0  0  0  0  0
   -4.1060    0.3190    0.5220 C   0  0  0  0  0  0  0  0  0  0  0  0
   -3.5980   -0.8870    0.0640 O   0  0  0  0  0  0  0  0  0  0  0  0
   -2.7400   -1.7850    0.6230 C   0  0  0  0  0  0  0  0  0  0  0  0
   -3.1780   -3.0050    0.6520 O   0  0  0  0  0  0  0  0  0  0  0  0
   -1.4130   -1.5000    1.1740 C   0  0  0  0  0  0  0  0  0  0  0  0
   -1.1940   -1.9450    2.4300 N   0  0  0  0  0  0  0  0  0  0  0  0
   -0.0540   -1.7670    3.0720 N   0  0  0  0  0  0  0  0  0  0  0  0
    0.9410   -1.1300    2.4910 N   0  0  0  0  0  0  0  0  0  0  0  0
    0.8140   -0.6510    1.2390 C   0  0  0  0  0  0  0  0  0  0  0  0
    1.9150    0.0240    0.6830 N   0  0  0  0  0  0  0  0  0  0  0  0
    3.1200    0.1790    1.4390 C   0  0  0  0  0  0  0  0  0  0  0  0
    4.1920    0.9250    0.6920 C   0  0  0  0  0  0  0  0  0  0  0  0
    4.4650    0.1770   -0.4700 O   0  0  0  0  0  0  0  0  0  0  0  0
    5.3880    0.7650   -1.1710 O   0  0  0  0  0  0  0  0  0  0  0  0
    6.4880    0.0820   -1.2190 O   0  0  0  0  0  0  0  0  0  0  0  0
   -0.4000   -0.8400    0.5540 C   0  0  0  0  0  0  0  0  0  0  0  0
   -0.4460   -0.3220   -0.7200 O   0  0  0  0  0  0  0  0  0  0  0  0
   -1.0570   -0.8750   -1.8610 C   0  0  0  0  0  0  0  0  0  0  0  0
   -1.9220    0.1460   -2.5220 C   0  0  0  0  0  0  0  0  0  0  0  0
   -2.7050    0.8880   -1.6480 O   0  0  0  0  0  0  0  0  0  0  0  0
   -2.0540    1.9410   -1.0510 C   0  0  0  0  0  0  0  0  0  0  0  0
   -2.4350    2.1120    0.3000 O   0  0  0  0  0  0  0  0  0  0  0  0
  1  2  2  0
  2  3  1  0
  2 24  1  0
  3  4  1  0
  4  5  1  0
  5  6  2  0
  5  7  1  0
  7  8  2  0
  7 18  1  0
  8  9  1  0
  9 10  2  0
 10 11  1  0
 11 12  1  0
 11 18  2  0
 12 13  1  0
 13 14  1  0
 14 15  1  0
 15 16  1  0
 16 17  1  0
 18 19  1  0
 19 20  1  0
 20 21  1  0
 21 22  1  0
 22 23  1  0
 23 24  1  0
M  END
