
     RDKit          3D

 24 24  0  0  0  0  0  0  0  0999 V2000
    5.8520    2.0340   -0.2060 N   0  0  0  0  0  0  0  0  0  0  0  0
    4.8740    1.4320   -1.0290 C   0  0  0  0  0  0  0  0  0  0  0  0
    5.0860    1.2820   -2.2580 O   0  0  0  0  0  0  0  0  0  0  0  0
    3.6650    0.9900   -0.5220 O   0  0  0  0  0  0  0  0  0  0  0  0
    2.7230    0.3930   -1.3960 C   0  0  0  0  0  0  0  0  0  0  0  0
    1.4660   -0.0180   -0.6190 C   0  0  2  0  0  0  0  0  0  0  0  0
    0.9000    1.2490   -0.0580 C   0  0  0  0  0  0  0  0  0  0  0  0
   -0.2280    1.1080    0.7020 O   0  0  0  0  0  0  0  0  0  0  0  0
   -1.3700    0.8240   -0.0070 C   0  0  0  0  0  0  0  0  0  0  0  0
   -2.4910    0.6100    0.9900 C   0  0  1  0  0  0  0  0  0  0  0  0
   -3.5590    1.5470    0.8750 N   0  0  0  0  0  0  0  0  0  0  0  0
   -3.9930    2.3670    1.9590 C   0  0  0  0  0  0  0  0  0  0  0  0
   -3.4290    2.2790    3.0700 O   0  0  0  0  0  0  0  0  0  0  0  0
   -5.0350    3.2470    1.7580 O   0  0  0  0  0  0  0  0  0  0  0  0
   -2.9790   -0.8130    0.8260 C   0  0  0  0  0  0  0  0  0  0  0  0
   -1.7830   -1.7580    1.0260 C   0  0  0  0  0  0  0  0  0  0  0  0
   -1.8600   -2.7360    0.0800 O   0  0  0  0  0  0  0  0  0  0  0  0
   -1.3140   -2.9340   -1.1590 C   0  0  0  0  0  0  0  0  0  0  0  0
   -2.2450   -3.1850   -2.0300 O   0  0  0  0  0  0  0  0  0  0  0  0
    0.0400   -2.8970   -1.5490 N   0  0  0  0  0  0  0  0  0  0  0  0
    1.2020   -3.0650   -0.8030 N   0  0  0  0  0  0  0  0  0  0  0  0
    1.6460   -2.3120    0.3110 C   0  0  0  0  0  0  0  0  0  0  0  0
    2.0040   -2.9480    1.3650 O   0  0  0  0  0  0  0  0  0  0  0  0
    1.7400   -0.9300    0.3910 O   0  0  0  0  0  0  0  0  0  0  0  0
  1  2  1  0
  2  3  2  0
  2  4  1  0
  4  5  1  0
  6  5  1  1
  6  7  1  0
  6 24  1  0
  7  8  1  0
  8  9  1  0
  9 10  1  0
 10 11  1  6
 10 15  1  0
 11 12  1  0
 12 13  2  0
 12 14  1  0
 15 16  1  0
 16 17  1  0
 17 18  1  0
 18 19  2  0
 18 20  1  0
 20 21  1  0
 21 22  1  0
 22 23  2  0
 22 24  1  0
M  END
