
     RDKit          3D

 25 25  0  0  0  0  0  0  0  0999 V2000
   -1.6960    0.9830    1.8530 C   0  0  0  0  0  0  0  0  0  0  0  0
   -1.8410    0.5940    0.3380 C   0  0  2  0  0  0  0  0  0  0  0  0
   -0.6470   -0.0400    0.1520 O   0  0  0  0  0  0  0  0  0  0  0  0
   -0.2510   -0.5830   -0.9870 C   0  0  2  0  0  0  0  0  0  0  0  0
   -0.1260   -2.1050   -0.7220 C   0  0  0  0  0  0  0  0  0  0  0  0
    1.0650   -2.4350    0.0820 C   0  0  0  0  0  0  0  0  0  0  0  0
    1.1760   -3.8250    0.5980 C   0  0  0  0  0  0  0  0  0  0  0  0
    2.1390   -4.2020    1.2850 O   0  0  0  0  0  0  0  0  0  0  0  0
    0.1840   -4.7490    0.3170 O   0  0  0  0  0  0  0  0  0  0  0  0
    2.0560   -1.6360    0.4020 C   0  0  0  0  0  0  0  0  0  0  0  0
    2.0390   -0.2330   -0.0610 C   0  0  1  0  0  0  0  0  0  0  0  0
    3.2960    0.2260   -0.4240 O   0  0  0  0  0  0  0  0  0  0  0  0
    3.6780    1.5500    0.4620 P   0  0  0  0  0  0  0  0  0  0  0  0
    2.4820    2.3290   -0.0770 O   0  0  0  0  0  0  0  0  0  0  0  0
    4.6940    2.7080   -0.2310 O   0  0  0  0  0  0  0  0  0  0  0  0
    3.2960    1.6300    2.0450 O   0  0  0  0  0  0  0  0  0  0  0  0
    1.1810   -0.1640   -1.3050 C   0  0  1  0  0  0  0  0  0  0  0  0
    1.6800   -1.1840   -2.1540 O   0  0  0  0  0  0  0  0  0  0  0  0
   -1.7260    1.9470   -0.2840 C   0  0  0  0  0  0  0  0  0  0  0  0
   -0.6790    2.3030   -0.8210 O   0  0  0  0  0  0  0  0  0  0  0  0
   -2.7800    2.8490   -0.2830 O   0  0  0  0  0  0  0  0  0  0  0  0
   -3.3110   -0.1100    0.0540 P   0  0  0  0  0  0  0  0  0  0  0  0
   -3.0740   -0.0730   -1.5820 O   0  0  0  0  0  0  0  0  0  0  0  0
   -4.5810   -0.9850   -0.1130 O   0  0  0  0  0  0  0  0  0  0  0  0
   -4.1650    1.1400    0.7330 O   0  0  0  0  0  0  0  0  0  0  0  0
  2  1  1  1
  2  3  1  0
  2 19  1  0
  2 22  1  0
  4  3  1  1
  4  5  1  0
  4 17  1  0
  5  6  1  0
  6  7  1  0
  6 10  2  0
  7  8  2  0
  7  9  1  0
 10 11  1  0
 11 12  1  6
 11 17  1  0
 12 13  1  0
 13 14  1  0
 13 15  1  0
 13 16  1  0
 17 18  1  6
 19 20  2  0
 19 21  1  0
 22 23  1  0
 22 24  1  0
 22 25  1  0
M  END
