
     RDKit          3D

 20 20  0  0  0  0  0  0  0  0999 V2000
   -5.1450    0.2250    0.5850 C   0  0  0  0  0  0  0  0  0  0  0  0
   -3.6650   -0.1860    0.5340 C   0  0  1  0  0  0  0  0  0  0  0  0
   -2.8470    1.0690    0.7540 C   0  0  0  0  0  0  0  0  0  0  0  0
   -3.4390   -1.1160    1.6700 C   0  0  0  0  0  0  0  0  0  0  0  0
   -3.3270   -0.7500   -0.8050 C   0  0  0  0  0  0  0  0  0  0  0  0
   -1.9230   -1.1920   -0.9970 C   0  0  0  0  0  0  0  0  0  0  0  0
   -1.0000   -0.1680   -0.8340 O   0  0  0  0  0  0  0  0  0  0  0  0
    0.2720   -0.6430   -1.0300 C   0  0  2  0  0  0  0  0  0  0  0  0
    1.1650   -0.5000    0.1990 C   0  0  0  0  0  0  0  0  0  0  0  0
    1.3210    0.9080    0.6160 C   0  0  0  0  0  0  0  0  0  0  0  0
    2.1160    1.2520    1.7940 C   0  0  0  0  0  0  0  0  0  0  0  0
    3.5530    0.9960    1.8910 C   0  0  0  0  0  0  0  0  0  0  0  0
    4.0950   -0.3750    1.8020 C   0  0  0  0  0  0  0  0  0  0  0  0
    5.5180   -0.2640    2.0050 O   0  0  0  0  0  0  0  0  0  0  0  0
    5.9720   -1.5100    1.9200 O   0  0  0  0  0  0  0  0  0  0  0  0
    0.8540    0.0400   -2.2220 C   0  0  0  0  0  0  0  0  0  0  0  0
    1.5570   -0.5280   -3.2400 C   0  0  0  0  0  0  0  0  0  0  0  0
    1.8790    0.5160   -4.1010 C   0  0  0  0  0  0  0  0  0  0  0  0
    1.3480    1.6660   -3.5500 C   0  0  0  0  0  0  0  0  0  0  0  0
    0.7490    1.3270   -2.4350 O   0  0  0  0  0  0  0  0  0  0  0  0
  2  1  1  6
  2  3  1  0
  2  4  1  0
  2  5  1  0
  5  6  1  0
  6  7  1  0
  7  8  1  0
  8  9  1  1
  8 16  1  0
  9 10  1  0
 10 11  1  0
 11 12  1  0
 12 13  1  0
 13 14  1  0
 14 15  1  0
 16 17  2  0
 16 20  1  0
 17 18  1  0
 18 19  2  0
 19 20  1  0
M  END
