
     RDKit          3D

 20 20  0  0  0  0  0  0  0  0999 V2000
    3.3110   -3.4070   -0.6800 C   0  0  0  0  0  0  0  0  0  0  0  0
    3.4130   -1.9500   -0.9810 C   0  0  0  0  0  0  0  0  0  0  0  0
    2.1860   -1.3590   -1.2520 O   0  0  0  0  0  0  0  0  0  0  0  0
    2.2940    0.3110   -1.5980 P   0  0  0  0  0  0  0  0  0  0  0  0
    1.2140    1.2240   -0.3900 C   0  0  0  0  0  0  0  0  0  0  0  0
    1.1780    0.3990    0.8900 C   0  0  0  0  0  0  0  0  0  0  0  0
    0.3100    1.0930    1.9130 C   0  0  0  0  0  0  0  0  0  0  0  0
   -1.0220    1.2660    1.5020 O   0  0  0  0  0  0  0  0  0  0  0  0
   -1.8880    0.2200    1.1760 C   0  0  0  0  0  0  0  0  0  0  0  0
   -2.2420   -0.6790    2.0730 C   0  0  0  0  0  0  0  0  0  0  0  0
   -1.8250   -0.7640    3.5160 C   0  0  0  0  0  0  0  0  0  0  0  0
   -3.1620   -1.6530    1.4520 C   0  0  0  0  0  0  0  0  0  0  0  0
   -2.8120   -1.5620   -0.0130 C   0  0  0  0  0  0  0  0  0  0  0  0
   -2.5280   -0.0660   -0.1290 C   0  0  1  0  0  0  0  0  0  0  0  0
   -3.8420    0.6560   -0.3110 C   0  0  0  0  0  0  0  0  0  0  0  0
   -4.3590    0.3290   -1.5480 O   0  0  0  0  0  0  0  0  0  0  0  0
   -5.5690    0.9470   -1.8030 C   0  0  0  0  0  0  0  0  0  0  0  0
    3.8760    0.9540   -1.4930 O   0  0  0  0  0  0  0  0  0  0  0  0
    3.9510    2.1260   -0.7450 C   0  0  0  0  0  0  0  0  0  0  0  0
    5.3800    2.6240   -0.7050 C   0  0  0  0  0  0  0  0  0  0  0  0
  1  2  1  0
  2  3  1  0
  3  4  1  0
  4  5  1  0
  4 18  1  0
  5  6  1  0
  6  7  1  0
  7  8  1  0
  8  9  1  0
  9 10  2  0
  9 14  1  0
 10 11  1  0
 10 12  1  0
 12 13  1  0
 13 14  1  0
 14 15  1  1
 15 16  1  0
 16 17  1  0
 18 19  1  0
 19 20  1  0
M  END
