
     RDKit          3D

 25 26  0  0  0  0  0  0  0  0999 V2000
    4.0990   -2.8990   -0.2830 C   0  0  0  0  0  0  0  0  0  0  0  0
    2.9670   -2.3550    0.1070 C   0  0  0  0  0  0  0  0  0  0  0  0
    2.3130   -2.9620    1.2090 N   0  0  0  0  0  0  0  0  0  0  0  0
    1.2190   -2.4990    1.9330 O   0  0  0  0  0  0  0  0  0  0  0  0
    0.4640   -1.3620    1.7440 N   0  0  0  0  0  0  0  0  0  0  0  0
    0.5830   -0.4130    0.8460 C   0  0  0  0  0  0  0  0  0  0  0  0
    1.5620   -0.2870   -0.2230 C   0  0  0  0  0  0  0  0  0  0  0  0
    1.5280    0.8030   -0.8650 N   0  0  0  0  0  0  0  0  0  0  0  0
    0.5780    1.8570   -0.5580 C   0  0  0  0  0  0  0  0  0  0  0  0
    0.9040    2.8660    0.1730 C   0  0  0  0  0  0  0  0  0  0  0  0
    2.2740    3.0480    0.7690 C   0  0  0  0  0  0  0  0  0  0  0  0
    2.4740    4.0560    1.4550 O   0  0  0  0  0  0  0  0  0  0  0  0
   -0.1050    3.9010    0.4470 C   0  0  2  0  0  0  0  0  0  0  0  0
    0.4030    5.4970   -0.1560 Cl  0  0  0  0  0  0  0  0  0  0  0  0
   -0.4060    3.9560    1.8540 N   0  0  0  0  0  0  0  0  0  0  0  0
    0.1490    4.7640    2.4970 O   0  0  0  0  0  0  0  0  0  0  0  0
   -1.5700    3.2460   -0.4720 S   0  0  0  0  0  0  0  0  0  0  0  0
   -0.7490    1.7760   -1.0780 C   0  0  0  0  0  0  0  0  0  0  0  0
   -1.3930    0.8600   -1.8650 O   0  0  0  0  0  0  0  0  0  0  0  0
   -2.2830   -0.1000   -1.3950 C   0  0  0  0  0  0  0  0  0  0  0  0
   -3.7460    0.3420   -0.5500 Cl  0  0  0  0  0  0  0  0  0  0  0  0
   -2.0060   -1.3720   -1.5960 C   0  0  0  0  0  0  0  0  0  0  0  0
   -2.8110   -2.5240   -1.1800 C   0  0  0  0  0  0  0  0  0  0  0  0
   -4.3580   -2.1310   -0.2900 P   0  0  0  0  0  0  0  0  0  0  0  0
    2.5100   -1.2290   -0.5970 O   0  0  0  0  0  0  0  0  0  0  0  0
  1  2  2  0
  2  3  1  0
  2 25  1  0
  3  4  1  0
  4  5  1  0
  5  6  2  0
  6  7  1  0
  7  8  2  3
  7 25  1  0
  8  9  1  0
  9 10  2  0
  9 18  1  0
 10 11  1  0
 10 13  1  0
 11 12  2  0
 13 14  1  6
 13 15  1  0
 13 17  1  0
 15 16  2  0
 17 18  2  0
 18 19  1  0
 19 20  1  0
 20 21  1  0
 20 22  2  3
 22 23  1  0
 23 24  1  0
M  END
