
     RDKit          3D

 25 26  0  0  0  0  0  0  0  0999 V2000
    0.7030   -2.2540    2.1750 C   0  0  0  0  0  0  0  0  0  0  0  0
   -0.3420   -1.5550    2.4650 C   0  0  0  0  0  0  0  0  0  0  0  0
   -1.2810   -0.9340    1.5770 C   0  0  0  0  0  0  0  0  0  0  0  0
   -2.2930   -0.2530    2.1950 C   0  0  0  0  0  0  0  0  0  0  0  0
   -2.3550   -0.1990    3.9730 Cl  0  0  0  0  0  0  0  0  0  0  0  0
   -3.3160    0.4260    1.5250 N   0  0  0  0  0  0  0  0  0  0  0  0
   -3.3860    0.4610   -0.0250 S   0  0  2  0  0  0  0  0  0  0  0  0
   -3.3550    1.9600   -0.5300 N   0  0  0  0  0  0  0  0  0  0  0  0
   -3.4980    2.9250    0.4340 O   0  0  0  0  0  0  0  0  0  0  0  0
   -3.5880    4.2970    0.1470 C   0  0  0  0  0  0  0  0  0  0  0  0
   -4.8650   -0.1870   -0.4890 O   0  0  0  0  0  0  0  0  0  0  0  0
   -4.6740   -1.1830   -1.4550 C   0  0  0  0  0  0  0  0  0  0  0  0
   -3.6580   -2.4600   -0.7590 Cl  0  0  0  0  0  0  0  0  0  0  0  0
   -2.0700   -0.4230   -0.6470 N   0  0  0  0  0  0  0  0  0  0  0  0
   -1.1920   -1.0030    0.1590 C   0  0  0  0  0  0  0  0  0  0  0  0
    0.1220   -1.8870   -0.7160 P   0  0  0  0  0  0  0  0  0  0  0  0
   -0.4250   -2.9220   -1.9500 O   0  0  0  0  0  0  0  0  0  0  0  0
    1.5040   -0.7710   -1.2380 C   0  0  0  0  0  0  0  0  0  0  0  0
    2.5820   -0.8070   -0.3540 O   0  0  0  0  0  0  0  0  0  0  0  0
    3.6930   -0.0430   -0.5850 C   0  0  0  0  0  0  0  0  0  0  0  0
    3.6600    1.0930   -1.2710 C   0  0  0  0  0  0  0  0  0  0  0  0
    4.8040    1.8630   -1.4980 O   0  0  0  0  0  0  0  0  0  0  0  0
    6.0280    1.4720   -1.0150 N   0  0  0  0  0  0  0  0  0  0  0  0
    6.1040    0.2620   -0.2770 C   0  0  0  0  0  0  0  0  0  0  0  0
    5.0160   -0.4400   -0.0780 C   0  0  0  0  0  0  0  0  0  0  0  0
  1  2  2  0
  2  3  1  0
  3  4  2  0
  3 15  1  0
  4  5  1  0
  4  6  1  0
  6  7  2  0
  7  8  2  0
  7 11  1  1
  7 14  1  0
  8  9  1  0
  9 10  1  0
 11 12  1  0
 12 13  1  0
 14 15  2  0
 15 16  1  0
 16 17  1  0
 16 18  1  0
 18 19  1  0
 19 20  1  0
 20 21  2  0
 20 25  1  0
 21 22  1  0
 22 23  1  0
 23 24  1  0
 24 25  2  0
M  END
