
     RDKit          3D

 20 20  0  0  0  0  0  0  0  0999 V2000
    3.1470    1.2910   -3.5360 C   0  0  0  0  0  0  0  0  0  0  0  0
    3.2090   -0.1150   -2.8220 C   0  0  0  0  0  0  0  0  0  0  0  0
    3.7680    0.3370   -1.5880 O   0  0  0  0  0  0  0  0  0  0  0  0
    2.9330   -0.1020   -0.2490 P   0  0  0  0  0  0  0  0  0  0  0  0
    1.1470   -0.5470   -0.3230 C   0  0  0  0  0  0  0  0  0  0  0  0
    0.2490    0.6480   -0.4820 C   0  0  0  0  0  0  0  0  0  0  0  0
   -0.9380    0.8270    0.3670 C   0  0  0  0  0  0  0  0  0  0  0  0
   -0.6170    1.6020    1.5320 C   0  0  0  0  0  0  0  0  0  0  0  0
   -1.6500    2.0050    2.4250 C   0  0  0  0  0  0  0  0  0  0  0  0
   -1.3670    2.7090    3.5500 O   0  0  0  0  0  0  0  0  0  0  0  0
   -2.9450    1.6480    2.0910 C   0  0  0  0  0  0  0  0  0  0  0  0
   -3.2640    0.9190    0.9820 C   0  0  0  0  0  0  0  0  0  0  0  0
   -2.1890    0.4940    0.0680 C   0  0  0  0  0  0  0  0  0  0  0  0
   -2.6910   -0.4640   -0.9050 C   0  0  2  0  0  0  0  0  0  0  0  0
   -4.0530    0.1690   -1.4310 C   0  0  0  0  0  0  0  0  0  0  0  0
   -3.2320   -1.4970   -0.0690 O   0  0  0  0  0  0  0  0  0  0  0  0
   -3.4520   -2.7000   -0.6050 C   0  0  0  0  0  0  0  0  0  0  0  0
    3.7790   -0.3760    1.1500 O   0  0  0  0  0  0  0  0  0  0  0  0
    3.0390   -1.1070    2.1070 C   0  0  0  0  0  0  0  0  0  0  0  0
    4.0780   -1.3690    3.1800 C   0  0  0  0  0  0  0  0  0  0  0  0
  1  2  1  0
  2  3  1  0
  3  4  1  0
  4  5  1  0
  4 18  1  0
  5  6  1  0
  6  7  1  0
  7  8  2  0
  7 13  1  0
  8  9  1  0
  9 10  1  0
  9 11  2  0
 11 12  1  0
 12 13  2  0
 13 14  1  0
 14 15  1  1
 14 16  1  0
 16 17  1  0
 18 19  1  0
 19 20  1  0
M  END
