
     RDKit          3D

 25 27  0  0  0  0  0  0  0  0999 V2000
    7.3660   -0.4230    0.8310 C   0  0  0  0  0  0  0  0  0  0  0  0
    5.9460    0.0050    0.5710 C   0  0  0  0  0  0  0  0  0  0  0  0
    5.1910   -1.0400   -0.0190 O   0  0  0  0  0  0  0  0  0  0  0  0
    3.8550   -0.8910   -0.3540 C   0  0  0  0  0  0  0  0  0  0  0  0
    3.3790   -0.3380   -1.5420 C   0  0  0  0  0  0  0  0  0  0  0  0
    1.9990   -0.3720   -1.4890 C   0  0  0  0  0  0  0  0  0  0  0  0
    1.0690    0.0800   -2.4650 N   0  0  0  0  0  0  0  0  0  0  0  0
   -0.6450   -0.0620   -2.1860 P   0  0  0  0  0  0  0  0  0  0  0  0
   -1.0560   -1.7090   -1.7930 O   0  0  0  0  0  0  0  0  0  0  0  0
   -1.2970    1.0260   -0.8400 C   0  0  0  0  0  0  0  0  0  0  0  0
   -1.2490    2.2850   -0.8880 C   0  0  0  0  0  0  0  0  0  0  0  0
   -0.6350    3.3700   -2.1810 Cl  0  0  0  0  0  0  0  0  0  0  0  0
   -1.4580    2.8070    0.3940 N   0  0  0  0  0  0  0  0  0  0  0  0
   -0.9950    1.5140    1.0750 C   0  0  0  0  0  0  0  0  0  0  0  0
   -2.2970    0.4230    0.6690 S   0  0  0  0  0  0  0  0  0  0  0  0
   -3.4690    1.4580    1.7520 O   0  0  0  0  0  0  0  0  0  0  0  0
   -3.2470    1.2870    2.9640 O   0  0  0  0  0  0  0  0  0  0  0  0
   -3.1970   -1.0690    1.0860 N   0  0  0  0  0  0  0  0  0  0  0  0
   -4.3510   -1.4010    1.0200 C   0  0  0  0  0  0  0  0  0  0  0  0
   -5.3090   -0.3670    0.4810 C   0  0  2  0  0  0  0  0  0  0  0  0
   -6.8070   -1.0140   -0.0750 Cl  0  0  0  0  0  0  0  0  0  0  0  0
   -4.5600    0.1360   -0.7410 C   0  0  0  0  0  0  0  0  0  0  0  0
   -3.2890   -0.3160   -0.6300 N   0  0  0  0  0  0  0  0  0  0  0  0
    1.7010   -0.9460   -0.2660 C   0  0  0  0  0  0  0  0  0  0  0  0
    2.8190   -1.2320    0.3600 O   0  0  0  0  0  0  0  0  0  0  0  0
  1  2  1  0
  2  3  1  0
  3  4  1  0
  4  5  2  0
  4 25  1  0
  5  6  1  0
  6  7  1  0
  6 24  2  0
  7  8  1  0
  8  9  1  0
  8 10  1  0
 10 11  2  0
 10 15  1  0
 11 12  1  0
 11 13  1  0
 13 14  1  0
 14 15  1  0
 15 16  1  0
 15 18  1  0
 15 23  1  0
 16 17  1  0
 18 19  2  0
 19 20  1  0
 20 21  1  6
 20 22  1  0
 22 23  1  0
 24 25  1  0
M  END
