
     RDKit          3D

 20 20  0  0  0  0  0  0  0  0999 V2000
    5.9950   -2.6380   -0.9660 C   0  0  0  0  0  0  0  0  0  0  0  0
    5.3180   -1.2950   -1.1190 C   0  0  0  0  0  0  0  0  0  0  0  0
    3.9540   -1.4930   -1.0260 O   0  0  0  0  0  0  0  0  0  0  0  0
    3.0440   -0.0490   -1.1810 P   0  0  0  0  0  0  0  0  0  0  0  0
    1.6190    0.0480   -0.0280 C   0  0  0  0  0  0  0  0  0  0  0  0
    1.1240   -1.3550    0.2510 C   0  0  0  0  0  0  0  0  0  0  0  0
   -0.0460   -1.3070    1.1960 C   0  0  0  0  0  0  0  0  0  0  0  0
   -1.0940   -0.5780    0.6700 O   0  0  0  0  0  0  0  0  0  0  0  0
   -2.1830   -0.5160    1.5150 C   0  0  0  0  0  0  0  0  0  0  0  0
   -3.3030    0.2770    0.9270 C   0  0  1  0  0  0  0  0  0  0  0  0
   -2.8720    1.6970    0.6430 C   0  0  0  0  0  0  0  0  0  0  0  0
   -3.9290    2.5300    0.3530 O   0  0  0  0  0  0  0  0  0  0  0  0
   -4.9990    1.8380   -0.1960 C   0  0  0  0  0  0  0  0  0  0  0  0
   -4.4180    0.8110   -1.1680 C   0  0  0  0  0  0  0  0  0  0  0  0
   -3.8980   -0.3290   -0.2990 C   0  0  2  0  0  0  0  0  0  0  0  0
   -5.0970   -1.1720    0.0650 C   0  0  0  0  0  0  0  0  0  0  0  0
   -2.9020   -1.1250   -1.1100 C   0  0  0  0  0  0  0  0  0  0  0  0
    4.0010    1.3740   -1.2050 O   0  0  0  0  0  0  0  0  0  0  0  0
    4.0420    2.0180    0.0280 C   0  0  0  0  0  0  0  0  0  0  0  0
    4.9000    3.2490   -0.0880 C   0  0  0  0  0  0  0  0  0  0  0  0
  1  2  1  0
  2  3  1  0
  3  4  1  0
  4  5  1  0
  4 18  1  0
  5  6  1  0
  6  7  1  0
  7  8  1  0
  8  9  1  0
 10  9  1  6
 10 11  1  0
 10 15  1  0
 11 12  1  0
 12 13  1  0
 13 14  1  0
 14 15  1  0
 15 16  1  1
 15 17  1  0
 18 19  1  0
 19 20  1  0
M  END
