
     RDKit          3D

 25 27  0  0  0  0  0  0  0  0999 V2000
   -5.5370    1.6530   -0.4660 C   0  0  0  0  0  0  0  0  0  0  0  0
   -4.9270    0.5520   -0.1030 C   0  0  0  0  0  0  0  0  0  0  0  0
   -3.5590    0.5960    0.2330 N   0  0  0  0  0  0  0  0  0  0  0  0
   -2.5430   -0.1220   -0.5530 C   0  0  0  0  0  0  0  0  0  0  0  0
   -1.3450    0.1300    0.0360 O   0  0  0  0  0  0  0  0  0  0  0  0
   -0.2530   -0.5050   -0.6390 C   0  0  2  0  0  0  0  0  0  0  0  0
   -0.7860   -1.8390   -0.7980 C   0  0  0  0  0  0  0  0  0  0  0  0
   -0.2870   -2.5570    0.1270 C   0  0  0  0  0  0  0  0  0  0  0  0
   -0.6830   -4.0380    0.2370 C   0  0  0  0  0  0  0  0  0  0  0  0
    0.6970   -1.9580    0.9500 C   0  0  0  0  0  0  0  0  0  0  0  0
    1.0980   -2.5580    2.0340 C   0  0  0  0  0  0  0  0  0  0  0  0
    1.2620   -0.3970    0.0760 S   0  0  0  0  0  0  0  0  0  0  0  0
    1.1350    0.3760    2.2690 Cl  0  0  0  0  0  0  0  0  0  0  0  0
    2.4550   -1.0870   -1.0910 Cl  0  0  0  0  0  0  0  0  0  0  0  0
    2.8130    0.4090    0.5170 O   0  0  0  0  0  0  0  0  0  0  0  0
    3.5020    1.4140    0.1240 C   0  0  0  0  0  0  0  0  0  0  0  0
    3.2220    2.7080    0.5800 C   0  0  0  0  0  0  0  0  0  0  0  0
    3.9530    3.7480    0.1570 N   0  0  0  0  0  0  0  0  0  0  0  0
    4.9550    3.5610   -0.7030 C   0  0  0  0  0  0  0  0  0  0  0  0
    5.2350    2.3400   -1.1460 N   0  0  0  0  0  0  0  0  0  0  0  0
    4.5280    1.3150   -0.7410 N   0  0  0  0  0  0  0  0  0  0  0  0
    0.2600    1.3080    0.0470 O   0  0  0  0  0  0  0  0  0  0  0  0
    0.3690    1.5940   -1.6080 P   0  0  0  0  0  0  0  0  0  0  0  0
    1.8850    1.7220   -2.3280 O   0  0  0  0  0  0  0  0  0  0  0  0
   -0.3180    0.0530   -1.9250 O   0  0  0  0  0  0  0  0  0  0  0  0
  1  2  2  0
  2  3  1  0
  3  4  1  0
  4  5  1  0
  6  5  1  1
  6  7  1  0
  6 12  1  0
  6 25  1  0
  7  8  2  0
  8  9  1  0
  8 10  1  0
 10 11  2  0
 10 12  1  0
 12 13  1  0
 12 14  1  0
 12 15  1  0
 12 22  1  0
 15 16  1  0
 16 17  2  0
 16 21  1  0
 17 18  1  0
 18 19  2  0
 19 20  1  0
 20 21  2  0
 22 23  1  0
 23 24  1  0
 23 25  1  0
M  END
