
     RDKit          3D

 24 24  0  0  0  0  0  0  0  0999 V2000
   -0.6720    2.0770   -4.5850 C   0  0  0  0  0  0  0  0  0  0  0  0
   -1.2690    1.3710   -3.6300 C   0  0  0  0  0  0  0  0  0  0  0  0
   -2.7400    1.3070   -3.6050 C   0  0  0  0  0  0  0  0  0  0  0  0
   -3.0610   -0.1730   -3.4680 C   0  0  0  0  0  0  0  0  0  0  0  0
   -4.1730   -0.6710   -4.3020 C   0  0  0  0  0  0  0  0  0  0  0  0
   -2.3530   -0.8430   -2.6800 N   0  0  0  0  0  0  0  0  0  0  0  0
   -1.2540   -0.3630   -1.8810 C   0  0  2  0  0  0  0  0  0  0  0  0
   -0.3350   -1.4290   -1.5650 N   0  0  0  0  0  0  0  0  0  0  0  0
    0.6090   -1.2760   -0.7580 N   0  0  0  0  0  0  0  0  0  0  0  0
    1.0950   -0.3470   -0.0160 N   0  0  0  0  0  0  0  0  0  0  0  0
    1.5340    0.2640    0.9320 C   0  0  0  0  0  0  0  0  0  0  0  0
    1.9150    2.0190    0.3400 Cl  0  0  0  0  0  0  0  0  0  0  0  0
    1.8870    0.1100    2.2320 C   0  0  0  0  0  0  0  0  0  0  0  0
    1.7410   -0.9940    2.9820 C   0  0  0  0  0  0  0  0  0  0  0  0
    2.2050   -0.9360    4.4000 C   0  0  0  0  0  0  0  0  0  0  0  0
    2.1510   -1.7420    5.2750 C   0  0  0  0  0  0  0  0  0  0  0  0
    2.8840   -1.2250    6.9330 Cl  0  0  0  0  0  0  0  0  0  0  0  0
    2.8140    0.3500    4.6360 O   0  0  0  0  0  0  0  0  0  0  0  0
    4.5130    0.5730    4.8280 P   0  0  0  0  0  0  0  0  0  0  0  0
    5.0430    0.5370    6.4890 O   0  0  0  0  0  0  0  0  0  0  0  0
    5.4000   -0.5970    3.8960 O   0  0  0  0  0  0  0  0  0  0  0  0
   -1.7620    0.1460   -0.6980 O   0  0  0  0  0  0  0  0  0  0  0  0
   -2.5000   -0.7390    0.0440 C   0  0  0  0  0  0  0  0  0  0  0  0
   -0.4540    0.6890   -2.6250 C   0  0  0  0  0  0  0  0  0  0  0  0
  1  2  2  0
  2  3  1  0
  2 24  1  0
  3  4  1  0
  4  5  1  0
  4  6  2  0
  6  7  1  0
  7  8  1  0
  7 22  1  1
  7 24  1  0
  8  9  2  3
  9 10  1  0
 10 11  2  3
 11 12  1  0
 11 13  1  0
 13 14  2  3
 14 15  1  0
 15 16  2  3
 15 18  1  0
 16 17  1  0
 18 19  1  0
 19 20  1  0
 19 21  1  0
 22 23  1  0
M  END
