
     RDKit          3D

 12 13  0  0  0  0  0  0  0  0999 V2000
   -3.8830   -0.2290    0.0530 N   0  0  0  0  0  0  0  0  0  0  0  0
   -2.6860    0.5020    0.4260 C   0  0  0  0  0  0  0  0  0  0  0  0
   -1.4930   -0.2990   -0.0360 C   0  0  0  0  0  0  0  0  0  0  0  0
   -0.2130    0.3730    0.3040 C   0  0  0  0  0  0  0  0  0  0  0  0
    0.0310    1.5530    0.9430 C   0  0  0  0  0  0  0  0  0  0  0  0
    1.3750    1.7120    1.0020 N   0  0  0  0  0  0  0  0  0  0  0  0
    1.9960    0.6750    0.4230 C   0  0  0  0  0  0  0  0  0  0  0  0
    3.3260    0.3530    0.2190 C   0  0  0  0  0  0  0  0  0  0  0  0
    3.7040   -0.8020   -0.4200 C   0  0  0  0  0  0  0  0  0  0  0  0
    2.7190   -1.6600   -0.8680 C   0  0  0  0  0  0  0  0  0  0  0  0
    1.4030   -1.3370   -0.6640 C   0  0  0  0  0  0  0  0  0  0  0  0
    1.0110   -0.1730   -0.0200 C   0  0  0  0  0  0  0  0  0  0  0  0
  1  2  1  0
  2  3  1  0
  3  4  1  0
  4  5  2  0
  4 12  1  0
  5  6  1  0
  6  7  1  0
  7  8  2  0
  7 12  1  0
  8  9  1  0
  9 10  2  0
 10 11  1  0
 11 12  2  0
M  CHG  1   1   1
M  END
