
     RDKit          3D

 23 25  0  0  0  0  0  0  0  0999 V2000
   -1.4740    3.6880   -1.8200 C   0  0  0  0  0  0  0  0  0  0  0  0
   -1.0200    2.4830   -1.5770 C   0  0  0  0  0  0  0  0  0  0  0  0
   -1.7850    1.4860   -0.8200 C   0  0  0  0  0  0  0  0  0  0  0  0
   -1.2890    0.2990   -0.6030 C   0  0  0  0  0  0  0  0  0  0  0  0
   -0.0430   -0.1180   -1.0510 O   0  0  0  0  0  0  0  0  0  0  0  0
    1.0930    0.0690   -0.2450 C   0  0  0  0  0  0  0  0  0  0  0  0
    0.8930    0.6210    0.8650 O   0  0  0  0  0  0  0  0  0  0  0  0
    2.3970   -0.3520   -0.6770 C   0  0  0  0  0  0  0  0  0  0  0  0
    2.7200   -0.9620   -1.8670 C   0  0  0  0  0  0  0  0  0  0  0  0
    4.0710   -1.1970   -1.8860 C   0  0  0  0  0  0  0  0  0  0  0  0
    4.5630   -0.7140   -0.6780 C   0  0  0  0  0  0  0  0  0  0  0  0
    5.8670   -0.6960   -0.1730 C   0  0  0  0  0  0  0  0  0  0  0  0
    6.1320   -0.1610    1.0660 C   0  0  0  0  0  0  0  0  0  0  0  0
    5.0780    0.3440    1.7700 C   0  0  0  0  0  0  0  0  0  0  0  0
    3.8260    0.3080    1.2440 C   0  0  0  0  0  0  0  0  0  0  0  0
    3.5410   -0.2170    0.0200 N   0  0  0  0  0  0  0  0  0  0  0  0
   -2.0940   -0.6750    0.1660 C   0  0  0  0  0  0  0  0  0  0  0  0
   -1.8250   -1.9450   -0.0120 C   0  0  0  0  0  0  0  0  0  0  0  0
   -2.4450   -3.1170    0.6000 C   0  0  0  0  0  0  0  0  0  0  0  0
   -3.0990   -0.0530    1.0370 C   0  0  2  0  0  0  0  0  0  0  0  0
   -3.9190   -0.9120    1.9050 C   0  0  0  0  0  0  0  0  0  0  0  0
   -3.9100    0.7910    0.1530 N   0  0  0  0  0  0  0  0  0  0  0  0
   -3.1130    1.8750   -0.3300 C   0  0  0  0  0  0  0  0  0  0  0  0
  1  2  2  0
  2  3  1  0
  3  4  2  0
  3 23  1  0
  4  5  1  0
  4 17  1  0
  5  6  1  0
  6  7  2  0
  6  8  1  0
  8  9  2  0
  8 16  1  0
  9 10  1  0
 10 11  2  0
 11 12  1  0
 11 16  1  0
 12 13  2  0
 13 14  1  0
 14 15  2  0
 15 16  1  0
 17 18  2  3
 17 20  1  0
 18 19  1  0
 20 21  1  6
 20 22  1  0
 22 23  1  0
M  CHG  1  22   1
M  END
