
     RDKit          3D

 24 26  0  0  0  0  0  0  0  0999 V2000
   -5.9970   -1.3590    0.2080 C   0  0  0  0  0  0  0  0  0  0  0  0
   -5.1130   -0.2020   -0.0800 C   0  0  0  0  0  0  0  0  0  0  0  0
   -5.5180    0.8370   -0.8850 C   0  0  0  0  0  0  0  0  0  0  0  0
   -4.6990    1.8750   -1.1310 N   0  0  0  0  0  0  0  0  0  0  0  0
   -3.4600    1.9600   -0.6180 C   0  0  0  0  0  0  0  0  0  0  0  0
   -2.6070    3.1130   -0.9170 C   0  0  0  0  0  0  0  0  0  0  0  0
   -1.4560    3.1760   -0.4300 O   0  0  0  0  0  0  0  0  0  0  0  0
   -3.0260    0.9310    0.1940 C   0  0  0  0  0  0  0  0  0  0  0  0
   -1.7600    1.0160    0.7210 O   0  0  0  0  0  0  0  0  0  0  0  0
   -0.6530    0.5170    0.0950 C   0  0  0  0  0  0  0  0  0  0  0  0
   -0.7650   -0.0460   -1.0050 O   0  0  0  0  0  0  0  0  0  0  0  0
    0.6780    0.6380    0.7090 C   0  0  0  0  0  0  0  0  0  0  0  0
    0.7730    1.1980    1.7980 O   0  0  0  0  0  0  0  0  0  0  0  0
    1.7670    0.1100    0.0210 N   0  0  0  0  0  0  0  0  0  0  0  0
    3.1360    0.1700    0.5320 C   0  0  0  0  0  0  0  0  0  0  0  0
    3.3590    0.7800    1.7520 C   0  0  0  0  0  0  0  0  0  0  0  0
    5.1370    0.6210    1.9630 S   0  0  0  0  0  0  0  0  0  0  0  0
    5.4480   -0.2300    0.4400 C   0  0  0  0  0  0  0  0  0  0  0  0
    4.2220   -0.3330   -0.1080 C   0  0  0  0  0  0  0  0  0  0  0  0
    4.4590   -1.0710   -1.4310 C   0  0  0  0  0  0  0  0  0  0  0  0
    5.8920   -0.8360   -1.7550 C   0  0  0  0  0  0  0  0  0  0  0  0
    6.5210   -0.8250   -0.3880 C   0  0  0  0  0  0  0  0  0  0  0  0
   -3.8500   -0.1540    0.4670 C   0  0  0  0  0  0  0  0  0  0  0  0
   -3.3720   -1.2490    1.3390 C   0  0  0  0  0  0  0  0  0  0  0  0
  1  2  1  0
  2  3  2  0
  2 23  1  0
  3  4  1  0
  4  5  2  0
  5  6  1  0
  5  8  1  0
  6  7  2  0
  8  9  1  0
  8 23  2  0
  9 10  1  0
 10 11  2  0
 10 12  1  0
 12 13  2  0
 12 14  1  0
 14 15  1  0
 15 16  2  0
 15 19  1  0
 16 17  1  0
 17 18  1  0
 18 19  2  0
 18 22  1  0
 19 20  1  0
 20 21  1  0
 21 22  1  0
 23 24  1  0
M  END
