
     RDKit          3D

 24 26  0  0  0  0  0  0  0  0999 V2000
   -2.0120   -0.7340    1.5490 O   0  0  0  0  0  0  0  0  0  0  0  0
   -1.5230   -1.2970    0.5550 C   0  0  0  0  0  0  0  0  0  0  0  0
   -2.2690   -2.3660   -0.1280 C   0  0  0  0  0  0  0  0  0  0  0  0
   -3.4940   -2.5940    0.4900 O   0  0  0  0  0  0  0  0  0  0  0  0
   -4.4960   -1.5920    0.6180 C   0  0  0  0  0  0  0  0  0  0  0  0
   -4.4060   -0.5810   -0.1870 C   0  0  0  0  0  0  0  0  0  0  0  0
   -5.2610    0.6120   -0.3210 C   0  0  0  0  0  0  0  0  0  0  0  0
   -6.6090    0.5760    0.8500 S   0  0  0  0  0  0  0  0  0  0  0  0
   -6.5040   -0.8910    1.8180 C   0  0  0  0  0  0  0  0  0  0  0  0
   -5.5360   -1.7500    1.6150 C   0  0  0  0  0  0  0  0  0  0  0  0
   -0.1870   -0.8670    0.0880 C   0  0  0  0  0  0  0  0  0  0  0  0
    0.3300   -1.4190   -0.9130 O   0  0  0  0  0  0  0  0  0  0  0  0
    0.5180    0.1580    0.7500 N   0  0  0  0  0  0  0  0  0  0  0  0
    1.7980    0.6600    0.4060 C   0  0  0  0  0  0  0  0  0  0  0  0
    2.5690    0.2320   -0.6370 C   0  0  0  0  0  0  0  0  0  0  0  0
    3.8250    0.8140   -0.8730 C   0  0  0  0  0  0  0  0  0  0  0  0
    4.5470    0.3180   -1.9570 C   0  0  0  0  0  0  0  0  0  0  0  0
    5.7810    0.8590   -2.2260 C   0  0  0  0  0  0  0  0  0  0  0  0
    6.2650    1.8720   -1.4170 C   0  0  0  0  0  0  0  0  0  0  0  0
    5.5560    2.3680   -0.3430 C   0  0  0  0  0  0  0  0  0  0  0  0
    4.3140    1.8170   -0.0810 C   0  0  0  0  0  0  0  0  0  0  0  0
    3.5530    2.2340    0.9410 N   0  0  0  0  0  0  0  0  0  0  0  0
    2.3580    1.6900    1.1780 C   0  0  0  0  0  0  0  0  0  0  0  0
    1.6670    2.1030    2.1440 O   0  0  0  0  0  0  0  0  0  0  0  0
  1  2  2  0
  2  3  1  0
  2 11  1  0
  3  4  1  0
  4  5  1  0
  5  6  2  0
  5 10  1  0
  6  7  1  0
  7  8  1  0
  8  9  1  0
  9 10  2  0
 11 12  2  0
 11 13  1  0
 13 14  1  0
 14 15  2  0
 14 23  1  0
 15 16  1  0
 16 17  2  0
 16 21  1  0
 17 18  1  0
 18 19  2  0
 19 20  1  0
 20 21  2  0
 21 22  1  0
 22 23  1  0
 23 24  2  0
M  END
