
     RDKit          3D

 23 26  0  0  0  0  0  0  0  0999 V2000
    4.1210    1.9900    1.7770 C   0  0  0  0  0  0  0  0  0  0  0  0
    4.5860    2.0600    0.4090 N   0  0  0  0  0  0  0  0  0  0  0  0
    5.2010    0.8330   -0.0280 C   0  0  0  0  0  0  0  0  0  0  0  0
    4.2050   -0.2230   -0.3500 C   0  0  0  0  0  0  0  0  0  0  0  0
    2.9090   -0.0250   -0.2380 C   0  0  0  0  0  0  0  0  0  0  0  0
    1.9270   -1.0500   -0.5510 C   0  0  0  0  0  0  0  0  0  0  0  0
    2.2520   -2.3120   -0.9890 C   0  0  0  0  0  0  0  0  0  0  0  0
    1.2810   -3.2480   -1.2720 C   0  0  0  0  0  0  0  0  0  0  0  0
   -0.0540   -2.9850   -1.1360 N   0  0  0  0  0  0  0  0  0  0  0  0
   -0.3890   -1.7590   -0.7100 C   0  0  0  0  0  0  0  0  0  0  0  0
    0.5520   -0.7900   -0.4140 C   0  0  0  0  0  0  0  0  0  0  0  0
    0.2070    0.5660    0.0570 C   0  0  0  0  0  0  0  0  0  0  0  0
   -1.1570    0.7930    0.1810 O   0  0  0  0  0  0  0  0  0  0  0  0
   -2.1080   -0.1670   -0.1110 C   0  0  0  0  0  0  0  0  0  0  0  0
   -1.8320   -1.4410   -0.5510 C   0  0  0  0  0  0  0  0  0  0  0  0
   -2.8230   -2.3410   -0.8210 C   0  0  0  0  0  0  0  0  0  0  0  0
   -4.1500   -1.9380   -0.6390 C   0  0  0  0  0  0  0  0  0  0  0  0
   -4.4550   -0.6700   -0.1990 C   0  0  0  0  0  0  0  0  0  0  0  0
   -5.5930   -0.0380    0.0550 O   0  0  0  0  0  0  0  0  0  0  0  0
   -5.3860    1.1740    0.4580 C   0  0  0  0  0  0  0  0  0  0  0  0
   -6.4250    2.1900    0.8380 C   0  0  0  0  0  0  0  0  0  0  0  0
   -4.0290    1.3970    0.4860 C   0  0  0  0  0  0  0  0  0  0  0  0
   -3.4380    0.2030    0.0610 C   0  0  0  0  0  0  0  0  0  0  0  0
  1  2  1  0
  2  3  1  0
  3  4  1  0
  4  5  2  3
  5  6  1  0
  6  7  2  0
  6 11  1  0
  7  8  1  0
  8  9  2  0
  9 10  1  0
 10 11  2  0
 10 15  1  0
 11 12  1  0
 12 13  1  0
 13 14  1  0
 14 15  2  0
 14 23  1  0
 15 16  1  0
 16 17  2  0
 17 18  1  0
 18 19  1  0
 18 23  2  0
 19 20  1  0
 20 21  1  0
 20 22  2  0
 22 23  1  0
M  CHG  2   2   1   9   1
M  END
