
     RDKit          3D

 24 26  0  0  0  0  0  0  0  0999 V2000
   -0.3470   -2.4090    0.1390 O   0  0  0  0  0  0  0  0  0  0  0  0
    0.5580   -1.4790   -0.0280 C   0  0  0  0  0  0  0  0  0  0  0  0
    1.8620   -1.9510   -0.2560 C   0  0  0  0  0  0  0  0  0  0  0  0
    2.9890   -1.3890   -0.4610 C   0  0  0  0  0  0  0  0  0  0  0  0
    3.4070   -0.0270   -0.5450 C   0  0  0  0  0  0  0  0  0  0  0  0
    4.6790    0.3330   -0.7780 C   0  0  0  0  0  0  0  0  0  0  0  0
    4.9770    1.7760   -0.8400 C   0  0  0  0  0  0  0  0  0  0  0  0
    6.5760    2.1520   -0.0400 S   0  0  0  0  0  0  0  0  0  0  0  0
    7.2250    0.5650    0.5270 C   0  0  0  0  0  0  0  0  0  0  0  0
    6.9440   -0.5410   -0.3880 C   0  0  0  0  0  0  0  0  0  0  0  0
    7.8270   -1.3540   -0.6730 O   0  0  0  0  0  0  0  0  0  0  0  0
    5.6380   -0.6800   -0.9550 N   0  0  0  0  0  0  0  0  0  0  0  0
    0.0360   -0.1910    0.0550 N   0  0  0  0  0  0  0  0  0  0  0  0
   -1.3550    0.0960    0.2870 C   0  0  0  0  0  0  0  0  0  0  0  0
   -1.6460    1.3470    0.8550 C   0  0  0  0  0  0  0  0  0  0  0  0
   -2.9330    1.7690    1.1070 C   0  0  0  0  0  0  0  0  0  0  0  0
   -3.9800    0.9310    0.7910 C   0  0  0  0  0  0  0  0  0  0  0  0
   -3.6950   -0.2940    0.2350 C   0  0  0  0  0  0  0  0  0  0  0  0
   -2.3900   -0.7330   -0.0270 C   0  0  0  0  0  0  0  0  0  0  0  0
   -4.6470   -1.2390   -0.1340 O   0  0  0  0  0  0  0  0  0  0  0  0
   -6.0060   -1.1690   -0.4510 C   0  0  0  0  0  0  0  0  0  0  0  0
   -6.6100    0.1920   -0.3130 C   0  0  0  0  0  0  0  0  0  0  0  0
   -6.4560    0.7750    1.0650 C   0  0  0  0  0  0  0  0  0  0  0  0
   -5.2320    1.4870    1.1010 O   0  0  0  0  0  0  0  0  0  0  0  0
  1  2  2  0
  2  3  1  0
  2 13  1  0
  3  4  2  3
  4  5  1  0
  5  6  2  3
  6  7  1  0
  6 12  1  0
  7  8  1  0
  8  9  1  0
  9 10  1  0
 10 11  2  0
 10 12  1  0
 13 14  1  0
 14 15  2  0
 14 19  1  0
 15 16  1  0
 16 17  2  0
 17 18  1  0
 17 24  1  0
 18 19  2  0
 18 20  1  0
 20 21  1  0
 21 22  1  0
 22 23  1  0
 23 24  1  0
M  END
