
     RDKit          3D

 39 42  0  0  0  0  0  0  0  0999 V2000
    7.9830    3.7830    1.6620 C   0  0  0  0  0  0  0  0  0  0  0  0
    6.8150    3.2080    2.1000 O   0  0  0  0  0  0  0  0  0  0  0  0
    6.6150    1.9680    1.5470 C   0  0  1  0  0  0  0  0  0  0  0  0
    6.5200    0.9270    2.4390 O   0  0  0  0  0  0  0  0  0  0  0  0
    5.3850    1.9330    0.6500 C   0  0  0  0  0  0  0  0  0  0  0  0
    5.2370    0.5580    0.1020 C   0  0  0  0  0  0  0  0  0  0  0  0
    6.0700   -0.3550    0.4220 O   0  0  0  0  0  0  0  0  0  0  0  0
    4.1540    0.2820   -0.7820 N   0  0  0  0  0  0  0  0  0  0  0  0
    4.0010   -1.0660   -1.3190 C   0  0  2  0  0  0  0  0  0  0  0  0
    4.0490   -1.0820   -2.8290 C   0  0  0  0  0  0  0  0  0  0  0  0
    2.9970   -0.1910   -3.3890 C   0  0  0  0  0  0  0  0  0  0  0  0
    1.7030   -0.2200   -2.6540 C   0  0  0  0  0  0  0  0  0  0  0  0
    1.5390   -1.3760   -1.7270 C   0  0  2  0  0  0  0  0  0  0  0  0
    0.4800   -1.1390   -0.8640 O   0  0  0  0  0  0  0  0  0  0  0  0
   -0.4940   -2.0970   -1.0610 C   0  0  0  0  0  0  0  0  0  0  0  0
   -1.6670   -1.8930   -0.1660 C   0  0  0  0  0  0  0  0  0  0  0  0
   -2.1360   -2.6970    0.7330 C   0  0  0  0  0  0  0  0  0  0  0  0
   -1.7650   -3.9860    1.2070 C   0  0  0  0  0  0  0  0  0  0  0  0
   -2.5700   -4.5140    2.1890 C   0  0  0  0  0  0  0  0  0  0  0  0
   -2.3180   -5.8270    2.7660 C   0  0  0  0  0  0  0  0  0  0  0  0
   -2.1550   -5.9330    4.0190 O   0  0  0  0  0  0  0  0  0  0  0  0
   -2.2480   -7.0640    1.9030 C   0  0  0  0  0  0  0  0  0  0  0  0
   -1.2750   -6.5470    0.4310 S   0  0  0  0  0  0  0  0  0  0  0  0
   -0.6460   -4.8650    0.8930 C   0  0  0  0  0  0  0  0  0  0  0  0
   -2.3320   -0.5800   -0.3930 C   0  0  0  0  0  0  0  0  0  0  0  0
   -1.8320    0.1750   -1.3000 O   0  0  0  0  0  0  0  0  0  0  0  0
   -3.4400   -0.0820    0.2720 N   0  0  0  0  0  0  0  0  0  0  0  0
   -4.1030    1.1770    0.0530 C   0  0  0  0  0  0  0  0  0  0  0  0
   -4.0190    1.7690   -1.1720 C   0  0  0  0  0  0  0  0  0  0  0  0
   -4.6540    3.0050   -1.3520 C   0  0  0  0  0  0  0  0  0  0  0  0
   -5.3590    3.6340   -0.3300 C   0  0  0  0  0  0  0  0  0  0  0  0
   -5.4170    3.0040    0.8800 C   0  0  0  0  0  0  0  0  0  0  0  0
   -4.7960    1.7900    1.0670 C   0  0  0  0  0  0  0  0  0  0  0  0
   -6.1270    3.6100    2.0140 C   0  0  0  0  0  0  0  0  0  0  0  0
   -7.1300    4.6540    1.6760 C   0  0  0  0  0  0  0  0  0  0  0  0
   -6.7310    5.4710    0.5050 C   0  0  0  0  0  0  0  0  0  0  0  0
   -7.0330    6.6680    0.4620 O   0  0  0  0  0  0  0  0  0  0  0  0
   -6.0050    4.8750   -0.5570 N   0  0  0  0  0  0  0  0  0  0  0  0
    2.7300   -1.6860   -0.8640 C   0  0  0  0  0  0  0  0  0  0  0  0
  1  2  1  0
  2  3  1  0
  3  4  1  1
  3  5  1  0
  5  6  1  0
  6  7  2  0
  6  8  1  0
  9  8  1  6
  9 10  1  0
  9 39  1  0
 10 11  1  0
 11 12  1  0
 12 13  1  0
 13 14  1  1
 13 39  1  0
 14 15  1  0
 15 16  1  0
 16 17  2  3
 16 25  1  0
 17 18  1  0
 18 19  2  0
 18 24  1  0
 19 20  1  0
 20 21  2  0
 20 22  1  0
 22 23  1  0
 23 24  1  0
 25 26  2  0
 25 27  1  0
 27 28  1  0
 28 29  2  0
 28 33  1  0
 29 30  1  0
 30 31  2  0
 31 32  1  0
 31 38  1  0
 32 33  2  0
 32 34  1  0
 34 35  1  0
 35 36  1  0
 36 37  2  0
 36 38  1  0
M  END
