
     RDKit          3D

 39 42  0  0  0  0  0  0  0  0999 V2000
   -7.0350    2.2850    0.4490 C   0  0  0  0  0  0  0  0  0  0  0  0
   -6.9900    0.7610    0.2750 C   0  0  2  0  0  0  0  0  0  0  0  0
   -7.4190    0.1430    1.5620 C   0  0  0  0  0  0  0  0  0  0  0  0
   -9.0800    0.7020    1.8950 S   0  0  1  0  0  0  0  0  0  0  0  0
  -10.0970    0.1590    0.5350 C   0  0  0  0  0  0  0  0  0  0  0  0
   -9.5880    0.0200    3.1340 O   0  0  0  0  0  0  0  0  0  0  0  0
   -9.1260    2.1950    2.0300 O   0  0  0  0  0  0  0  0  0  0  0  0
   -5.6710    0.4550   -0.1210 O   0  0  0  0  0  0  0  0  0  0  0  0
   -5.3280   -0.0440   -1.3470 C   0  0  0  0  0  0  0  0  0  0  0  0
   -6.2950   -0.2330   -2.1600 O   0  0  0  0  0  0  0  0  0  0  0  0
   -4.0090   -0.3750   -1.8200 C   0  0  0  0  0  0  0  0  0  0  0  0
   -3.0190   -0.7150   -0.8820 C   0  0  0  0  0  0  0  0  0  0  0  0
   -1.7390   -1.0370   -1.2380 C   0  0  0  0  0  0  0  0  0  0  0  0
   -0.7200   -1.3450   -0.2990 N   0  0  0  0  0  0  0  0  0  0  0  0
   -0.8070   -1.5590    1.0670 C   0  0  0  0  0  0  0  0  0  0  0  0
   -2.0010   -1.5120    1.5730 O   0  0  0  0  0  0  0  0  0  0  0  0
    0.2660   -1.8400    2.0440 C   0  0  2  0  0  0  0  0  0  0  0  0
    0.7540   -0.5980    2.7490 C   0  0  0  0  0  0  0  0  0  0  0  0
    1.6640   -1.5130    1.9980 C   0  0  2  0  0  0  0  0  0  0  0  0
    2.4470   -0.8780    0.9380 C   0  0  0  0  0  0  0  0  0  0  0  0
    1.9520    0.0800    0.2860 O   0  0  0  0  0  0  0  0  0  0  0  0
    3.7880   -1.3090    0.6060 N   0  0  0  0  0  0  0  0  0  0  0  0
    4.3060   -2.4430    1.3390 C   0  0  0  0  0  0  0  0  0  0  0  0
    4.4620   -0.6140   -0.4510 C   0  0  2  0  0  0  0  0  0  0  0  0
    5.0570   -1.4700   -1.5110 C   0  0  0  0  0  0  0  0  0  0  0  0
    5.4570    0.3750    0.1280 C   0  0  1  0  0  0  0  0  0  0  0  0
    6.4570   -0.1200    1.0740 C   0  0  0  0  0  0  0  0  0  0  0  0
    7.8230    0.1120    0.6580 O   0  0  0  0  0  0  0  0  0  0  0  0
    8.1580    1.3390    0.0970 C   0  0  0  0  0  0  0  0  0  0  0  0
    9.1490    2.2020    0.1630 C   0  0  0  0  0  0  0  0  0  0  0  0
    8.8730    3.3610   -0.7290 C   0  0  0  0  0  0  0  0  0  0  0  0
    7.5490    3.0140   -1.3180 C   0  0  0  0  0  0  0  0  0  0  0  0
    7.1420    1.8620   -0.8480 C   0  0  0  0  0  0  0  0  0  0  0  0
    6.0390    1.0370   -1.0060 O   0  0  0  0  0  0  0  0  0  0  0  0
   -1.4340   -1.0180   -2.6100 C   0  0  0  0  0  0  0  0  0  0  0  0
    0.2080   -1.4280   -3.0600 Cl  0  0  0  0  0  0  0  0  0  0  0  0
   -2.3770   -0.6900   -3.5510 C   0  0  0  0  0  0  0  0  0  0  0  0
   -3.6860   -0.3630   -3.1490 C   0  0  0  0  0  0  0  0  0  0  0  0
   -4.8830    0.0540   -4.3260 Cl  0  0  0  0  0  0  0  0  0  0  0  0
  2  1  1  1
  2  3  1  0
  2  8  1  0
  3  4  1  0
  4  5  1  6
  4  6  2  0
  4  7  2  0
  8  9  1  0
  9 10  2  0
  9 11  1  0
 11 12  2  0
 11 38  1  0
 12 13  1  0
 13 14  1  0
 13 35  2  0
 14 15  1  0
 15 16  2  0
 17 15  1  6
 17 18  1  0
 17 19  1  0
 18 19  1  0
 19 20  1  6
 20 21  2  0
 20 22  1  0
 22 23  1  0
 22 24  1  0
 24 25  1  6
 24 26  1  0
 26 27  1  6
 26 34  1  0
 27 28  1  0
 28 29  1  0
 29 30  2  0
 29 33  1  0
 30 31  1  0
 31 32  1  0
 32 33  2  0
 33 34  1  0
 35 36  1  0
 35 37  1  0
 37 38  2  0
 38 39  1  0
M  END
