
     RDKit          3D

 39 42  0  0  0  0  0  0  0  0999 V2000
   -1.8590    4.2670   -3.4730 C   0  0  0  0  0  0  0  0  0  0  0  0
   -1.1490    4.9610   -2.4830 O   0  0  0  0  0  0  0  0  0  0  0  0
   -0.8340    4.4210   -1.2410 C   0  0  0  0  0  0  0  0  0  0  0  0
   -1.2230    3.1270   -0.9220 C   0  0  0  0  0  0  0  0  0  0  0  0
   -0.9180    2.5790    0.3040 C   0  0  0  0  0  0  0  0  0  0  0  0
   -1.3270    1.1780    0.6640 C   0  0  0  0  0  0  0  0  0  0  0  0
   -0.4980    0.1750    0.0440 N   0  0  0  0  0  0  0  0  0  0  0  0
   -0.8670   -0.3820   -1.2200 C   0  0  0  0  0  0  0  0  0  0  0  0
   -1.6270   -1.6750   -1.1630 C   0  0  2  0  0  0  0  0  0  0  0  0
   -2.9290   -1.6120   -0.4160 C   0  0  0  0  0  0  0  0  0  0  0  0
   -3.2970   -3.0740   -0.1670 N   0  0  0  0  0  0  0  0  0  0  0  0
   -3.9870   -3.3170    1.0110 C   0  0  0  0  0  0  0  0  0  0  0  0
   -4.2050   -2.2540    1.7430 O   0  0  0  0  0  0  0  0  0  0  0  0
   -4.5250   -4.5340    1.6080 C   0  0  0  0  0  0  0  0  0  0  0  0
   -6.3050   -4.6510    1.4300 Cl  0  0  0  0  0  0  0  0  0  0  0  0
   -2.8330   -3.9000   -1.2120 C   0  0  2  0  0  0  0  0  0  0  0  0
   -3.3050   -5.3070   -1.2330 C   0  0  0  0  0  0  0  0  0  0  0  0
   -4.6930   -5.3300   -1.3200 O   0  0  0  0  0  0  0  0  0  0  0  0
   -1.3000   -3.9060   -1.1220 C   0  0  0  0  0  0  0  0  0  0  0  0
   -0.8620   -2.6950   -0.5680 O   0  0  0  0  0  0  0  0  0  0  0  0
    0.6900   -0.2400    0.6890 C   0  0  0  0  0  0  0  0  0  0  0  0
    1.3520   -1.1330    0.0430 O   0  0  0  0  0  0  0  0  0  0  0  0
    1.1930    0.2510    1.9830 C   0  0  0  0  0  0  0  0  0  0  0  0
    2.5460    1.4030    1.7290 S   0  0  0  0  0  0  0  0  0  0  0  0
    4.0580    0.6570    1.1850 C   0  0  0  0  0  0  0  0  0  0  0  0
    4.2700   -0.6250    1.0320 C   0  0  0  0  0  0  0  0  0  0  0  0
    4.2110   -2.1080    0.9520 C   0  0  0  0  0  0  0  0  0  0  0  0
    3.4700   -2.9410    1.4750 O   0  0  0  0  0  0  0  0  0  0  0  0
    5.3920   -2.0860    0.0110 C   0  0  1  0  0  0  0  0  0  0  0  0
    4.9640   -1.9370   -1.6940 Cl  0  0  0  0  0  0  0  0  0  0  0  0
    5.7430   -0.8070    0.6910 C   0  0  1  0  0  0  0  0  0  0  0  0
    5.9990    0.4200   -0.1130 C   0  0  0  0  0  0  0  0  0  0  0  0
    5.2920    1.4520    0.8050 C   0  0  0  0  0  0  0  0  0  0  0  0
   -0.2180    3.3760    1.1770 C   0  0  0  0  0  0  0  0  0  0  0  0
    0.1860    4.6650    0.8990 C   0  0  0  0  0  0  0  0  0  0  0  0
    0.8920    5.4700    1.7790 O   0  0  0  0  0  0  0  0  0  0  0  0
    1.2350    4.9710    3.0510 C   0  0  0  0  0  0  0  0  0  0  0  0
   -0.1330    5.1940   -0.3420 C   0  0  0  0  0  0  0  0  0  0  0  0
    0.2480    6.4930   -0.6840 O   0  0  0  0  0  0  0  0  0  0  0  0
  1  2  1  0
  2  3  1  0
  3  4  2  0
  3 38  1  0
  4  5  1  0
  5  6  1  0
  5 34  2  0
  6  7  1  0
  7  8  1  0
  7 21  1  0
  9  8  1  1
  9 10  1  0
  9 20  1  0
 10 11  1  0
 11 12  1  0
 11 16  1  0
 12 13  2  0
 12 14  1  0
 14 15  1  0
 16 17  1  1
 16 19  1  0
 17 18  1  0
 19 20  1  0
 21 22  2  0
 21 23  1  0
 23 24  1  0
 24 25  1  0
 25 26  2  0
 25 33  1  0
 26 27  1  0
 26 31  1  0
 27 28  2  0
 27 29  1  0
 29 30  1  6
 29 31  1  0
 31 32  1  6
 32 33  1  0
 34 35  1  0
 35 36  1  0
 35 38  2  0
 36 37  1  0
 38 39  1  0
M  END
