
     RDKit          3D

 39 41  0  0  0  0  0  0  0  0999 V2000
   -2.0490    4.1860   -0.0520 C   0  0  0  0  0  0  0  0  0  0  0  0
   -3.0630    3.3520    0.0880 C   0  0  0  0  0  0  0  0  0  0  0  0
   -4.3580    3.9450    0.5710 C   0  0  0  0  0  0  0  0  0  0  0  0
   -4.1980    5.6980    0.8390 Cl  0  0  0  0  0  0  0  0  0  0  0  0
   -2.9110    1.9980   -0.2050 N   0  0  0  0  0  0  0  0  0  0  0  0
   -3.0380    1.0350    0.9490 C   0  0  2  0  0  0  0  0  0  0  0  0
   -1.9140    1.3520    1.7500 N   0  0  0  0  0  0  0  0  0  0  0  0
   -0.8670    0.6250    1.8580 C   0  0  0  0  0  0  0  0  0  0  0  0
   -0.7010   -0.6510    1.1930 C   0  0  0  0  0  0  0  0  0  0  0  0
    0.5430   -1.3940    1.3380 C   0  0  0  0  0  0  0  0  0  0  0  0
    1.4720   -0.9250    2.0450 O   0  0  0  0  0  0  0  0  0  0  0  0
    0.7740   -2.6100    0.7350 O   0  0  0  0  0  0  0  0  0  0  0  0
    2.0220   -3.2830    0.9260 C   0  0  2  0  0  0  0  0  0  0  0  0
    2.6740   -3.4610   -0.4150 C   0  0  0  0  0  0  0  0  0  0  0  0
    2.9510   -2.3140   -1.0990 O   0  0  0  0  0  0  0  0  0  0  0  0
    3.7680   -1.2530   -0.8930 C   0  0  0  0  0  0  0  0  0  0  0  0
    4.5900   -1.1880    0.2050 C   0  0  0  0  0  0  0  0  0  0  0  0
    5.4410   -0.0970    0.4270 C   0  0  0  0  0  0  0  0  0  0  0  0
    5.4670    0.9460   -0.4710 C   0  0  0  0  0  0  0  0  0  0  0  0
    6.5570    2.3640   -0.2050 S   0  0  0  0  0  0  0  0  0  0  0  0
    6.2950    3.5370   -1.5750 C   0  0  0  0  0  0  0  0  0  0  0  0
    4.9030    4.1240   -1.5180 C   0  0  0  0  0  0  0  0  0  0  0  0
    4.6380    0.8500   -1.5540 C   0  0  0  0  0  0  0  0  0  0  0  0
    3.7910   -0.1850   -1.8190 C   0  0  0  0  0  0  0  0  0  0  0  0
    2.7440   -0.2730   -3.2170 Cl  0  0  0  0  0  0  0  0  0  0  0  0
    1.8010   -4.5730    1.6170 C   0  0  0  0  0  0  0  0  0  0  0  0
    2.7510   -5.3330    1.8910 O   0  0  0  0  0  0  0  0  0  0  0  0
    0.5180   -4.9400    1.9630 O   0  0  0  0  0  0  0  0  0  0  0  0
    0.2320   -6.1570    2.6240 C   0  0  0  0  0  0  0  0  0  0  0  0
   -1.7200   -1.0800    0.4760 C   0  0  0  0  0  0  0  0  0  0  0  0
   -2.9430   -0.3550    0.3780 C   0  0  2  0  0  0  0  0  0  0  0  0
   -3.7330   -0.3230   -0.8520 C   0  0  0  0  0  0  0  0  0  0  0  0
   -3.3300   -0.7870   -1.9910 C   0  0  0  0  0  0  0  0  0  0  0  0
   -4.1510   -0.7390   -3.2110 C   0  0  0  0  0  0  0  0  0  0  0  0
   -3.6870   -1.2110   -4.2740 O   0  0  0  0  0  0  0  0  0  0  0  0
   -5.0860    0.3150   -0.6650 C   0  0  2  0  0  0  0  0  0  0  0  0
   -5.3220    1.3740   -1.5000 O   0  0  0  0  0  0  0  0  0  0  0  0
   -5.2990    0.6270    0.7840 C   0  0  0  0  0  0  0  0  0  0  0  0
   -4.2850    1.1790    1.4830 O   0  0  0  0  0  0  0  0  0  0  0  0
  1  2  2  0
  2  3  1  0
  2  5  1  0
  3  4  1  0
  6  5  1  6
  6  7  1  0
  6 31  1  0
  6 39  1  0
  7  8  2  0
  8  9  1  0
  9 10  1  0
  9 30  2  0
 10 11  2  0
 10 12  1  0
 12 13  1  0
 13 14  1  6
 13 26  1  0
 14 15  1  0
 15 16  1  0
 16 17  2  0
 16 24  1  0
 17 18  1  0
 18 19  2  0
 19 20  1  0
 19 23  1  0
 20 21  1  0
 21 22  1  0
 23 24  2  0
 24 25  1  0
 26 27  2  0
 26 28  1  0
 28 29  1  0
 31 30  1  6
 31 32  1  0
 32 33  2  3
 32 36  1  0
 33 34  1  0
 34 35  2  0
 36 37  1  6
 36 38  1  0
 38 39  1  0
M  END
