
     RDKit          3D

 39 41  0  0  0  0  0  0  0  0999 V2000
   -2.6700   -0.3890    2.3610 C   0  0  0  0  0  0  0  0  0  0  0  0
   -1.5470   -0.6550    1.3840 C   0  0  0  0  0  0  0  0  0  0  0  0
   -1.9350   -0.5930    0.0410 O   0  0  0  0  0  0  0  0  0  0  0  0
   -2.4620    0.5180   -0.5230 C   0  0  0  0  0  0  0  0  0  0  0  0
   -2.5730    1.5060    0.3000 O   0  0  0  0  0  0  0  0  0  0  0  0
   -2.9040    0.7490   -1.8700 C   0  0  0  0  0  0  0  0  0  0  0  0
   -2.7420   -0.1650   -2.7940 C   0  0  0  0  0  0  0  0  0  0  0  0
   -2.1530   -1.4870   -2.6490 C   0  0  0  0  0  0  0  0  0  0  0  0
   -2.0860   -2.2430   -3.6940 O   0  0  0  0  0  0  0  0  0  0  0  0
   -1.6530   -2.0440   -1.5390 O   0  0  0  0  0  0  0  0  0  0  0  0
   -1.0810   -3.3350   -1.4210 C   0  0  2  0  0  0  0  0  0  0  0  0
   -1.8750   -4.1780   -0.4240 C   0  0  0  0  0  0  0  0  0  0  0  0
    0.2760   -3.1900   -0.8640 C   0  0  0  0  0  0  0  0  0  0  0  0
    0.9700   -4.2120   -0.6730 O   0  0  0  0  0  0  0  0  0  0  0  0
    0.7820   -1.9510   -0.5550 O   0  0  0  0  0  0  0  0  0  0  0  0
    2.0880   -1.8590   -0.0190 C   0  0  0  0  0  0  0  0  0  0  0  0
    2.4640   -0.4190    0.2430 C   0  0  0  0  0  0  0  0  0  0  0  0
    3.7550   -0.2820    0.7850 N   0  0  0  0  0  0  0  0  0  0  0  0
    3.9710   -0.7510    2.1020 C   0  0  0  0  0  0  0  0  0  0  0  0
    4.6350    0.3290    2.8900 C   0  0  0  0  0  0  0  0  0  0  0  0
    3.9960    0.6240    4.2210 C   0  0  2  0  0  0  0  0  0  0  0  0
    2.3230    1.1240    3.9580 Cl  0  0  0  0  0  0  0  0  0  0  0  0
    4.9110    1.8620    5.0800 Cl  0  0  0  0  0  0  0  0  0  0  0  0
    5.6990    1.0260    2.5400 C   0  0  0  0  0  0  0  0  0  0  0  0
    6.5260    0.9600    1.3190 C   0  0  0  0  0  0  0  0  0  0  0  0
    5.7250    0.9240    0.0670 C   0  0  0  0  0  0  0  0  0  0  0  0
    4.8560   -0.2970   -0.1060 C   0  0  1  0  0  0  0  0  0  0  0  0
    5.6530   -1.5760   -0.0960 C   0  0  0  0  0  0  0  0  0  0  0  0
   -3.1700    0.1680   -4.1140 O   0  0  0  0  0  0  0  0  0  0  0  0
   -3.7290    1.3670   -4.4660 C   0  0  0  0  0  0  0  0  0  0  0  0
   -3.9000    2.2990   -3.5310 C   0  0  0  0  0  0  0  0  0  0  0  0
   -4.4970    3.6000   -3.8700 C   0  0  0  0  0  0  0  0  0  0  0  0
   -4.3090    4.1330   -4.9580 O   0  0  0  0  0  0  0  0  0  0  0  0
   -5.3020    4.1350   -2.7870 N   0  0  0  0  0  0  0  0  0  0  0  0
   -5.4270    3.4530   -1.5630 C   0  0  0  0  0  0  0  0  0  0  0  0
   -4.7910    2.3090   -1.2700 C   0  0  0  0  0  0  0  0  0  0  0  0
   -5.0200    1.4560    0.2470 S   0  0  0  0  0  0  0  0  0  0  0  0
   -6.5040    2.0030    1.1030 C   0  0  0  0  0  0  0  0  0  0  0  0
   -3.6120    2.0120   -2.1450 C   0  0  1  0  0  0  0  0  0  0  0  0
  1  2  1  0
  2  3  1  0
  3  4  1  0
  4  5  2  0
  4  6  1  0
  6  7  2  0
 39  6  1  6
  7  8  1  0
  7 29  1  0
  8  9  2  0
  8 10  1  0
 10 11  1  0
 11 12  1  1
 11 13  1  0
 13 14  2  0
 13 15  1  0
 15 16  1  0
 16 17  1  0
 17 18  1  0
 18 19  1  0
 18 27  1  0
 19 20  1  0
 20 21  1  0
 20 24  2  0
 21 22  1  6
 21 23  1  0
 24 25  1  0
 25 26  1  0
 26 27  1  0
 27 28  1  1
 29 30  1  0
 30 31  2  0
 31 32  1  0
 31 39  1  0
 32 33  2  0
 32 34  1  0
 34 35  1  0
 35 36  2  0
 36 37  1  0
 36 39  1  0
 37 38  1  0
M  END
