
     RDKit          3D

 39 41  0  0  0  0  0  0  0  0999 V2000
   -5.3520   -2.3640    2.6910 C   0  0  0  0  0  0  0  0  0  0  0  0
   -6.0020   -1.2810    1.8320 C   0  0  0  0  0  0  0  0  0  0  0  0
   -5.6160   -1.4240    0.4420 N   0  0  0  0  0  0  0  0  0  0  0  0
   -6.2360   -0.4060   -0.3660 C   0  0  1  0  0  0  0  0  0  0  0  0
   -5.7690    0.9780    0.0610 C   0  0  1  0  0  0  0  0  0  0  0  0
   -4.3150    0.9440    0.1830 C   0  0  0  0  0  0  0  0  0  0  0  0
   -3.6870   -0.1040   -0.2110 O   0  0  0  0  0  0  0  0  0  0  0  0
   -3.4560    1.9920    0.7110 C   0  0  0  0  0  0  0  0  0  0  0  0
   -3.9670    3.1350    1.2770 C   0  0  0  0  0  0  0  0  0  0  0  0
   -3.1430    4.1460    1.7670 C   0  0  0  0  0  0  0  0  0  0  0  0
   -1.7720    4.0390    1.7050 C   0  0  0  0  0  0  0  0  0  0  0  0
   -0.8810    5.1290    2.2330 C   0  0  0  0  0  0  0  0  0  0  0  0
   -1.2480    2.8990    1.1410 C   0  0  0  0  0  0  0  0  0  0  0  0
    0.2420    2.7750    1.0790 C   0  0  0  0  0  0  0  0  0  0  0  0
    0.5640    1.5330    0.4610 O   0  0  0  0  0  0  0  0  0  0  0  0
    1.8890    1.1380    0.2760 C   0  0  0  0  0  0  0  0  0  0  0  0
    2.7760    1.9160    0.6760 O   0  0  0  0  0  0  0  0  0  0  0  0
    2.2400   -0.0790   -0.3310 N   0  0  0  0  0  0  0  0  0  0  0  0
    3.5450   -0.5730   -0.5570 C   0  0  0  0  0  0  0  0  0  0  0  0
    4.7030   -0.0310   -0.0680 C   0  0  0  0  0  0  0  0  0  0  0  0
    5.9550   -0.5960   -0.3570 C   0  0  0  0  0  0  0  0  0  0  0  0
    6.0670   -1.7160   -1.1410 C   0  0  0  0  0  0  0  0  0  0  0  0
    7.3230   -2.3050   -1.4280 N   0  0  0  0  0  0  0  0  0  0  0  0
    8.5630   -1.7410   -0.9650 C   0  0  2  0  0  0  0  0  0  0  0  0
    8.8130   -0.4080   -1.5820 C   0  0  0  0  0  0  0  0  0  0  0  0
    7.9920    0.0210   -2.3790 O   0  0  0  0  0  0  0  0  0  0  0  0
    9.6260   -2.6390   -1.1550 O   0  0  0  0  0  0  0  0  0  0  0  0
   10.3400   -3.1280   -0.0980 C   0  0  0  0  0  0  0  0  0  0  0  0
   11.4570   -4.0740   -0.3120 C   0  0  0  0  0  0  0  0  0  0  0  0
   10.0120   -2.7450    1.0610 O   0  0  0  0  0  0  0  0  0  0  0  0
    4.9040   -2.2790   -1.6440 C   0  0  0  0  0  0  0  0  0  0  0  0
    4.9830   -3.4050   -2.4360 O   0  0  0  0  0  0  0  0  0  0  0  0
    3.7000   -1.7160   -1.3530 C   0  0  0  0  0  0  0  0  0  0  0  0
   -2.0750    1.9070    0.6600 C   0  0  0  0  0  0  0  0  0  0  0  0
   -6.1870    2.0020   -0.9780 C   0  0  0  0  0  0  0  0  0  0  0  0
   -7.6050    1.7240   -1.5030 C   0  0  0  0  0  0  0  0  0  0  0  0
   -7.3850    0.2970   -2.6460 S   0  0  0  0  0  0  0  0  0  0  0  0
   -6.0060   -0.6260   -1.8430 C   0  0  2  0  0  0  0  0  0  0  0  0
   -6.0050   -2.0600   -2.2430 C   0  0  0  0  0  0  0  0  0  0  0  0
  1  2  1  0
  2  3  1  0
  4  3  1  1
  4  5  1  0
  4 38  1  0
  5  6  1  6
  5 35  1  0
  6  7  2  0
  6  8  1  0
  8  9  2  0
  8 34  1  0
  9 10  1  0
 10 11  2  0
 11 12  1  0
 11 13  1  0
 13 14  1  0
 13 34  2  0
 14 15  1  0
 15 16  1  0
 16 17  2  0
 16 18  1  0
 18 19  1  0
 19 20  2  0
 19 33  1  0
 20 21  1  0
 21 22  2  0
 22 23  1  0
 22 31  1  0
 24 23  1  6
 24 25  1  0
 24 27  1  0
 25 26  2  0
 27 28  1  0
 28 29  1  0
 28 30  2  0
 31 32  1  0
 31 33  2  0
 35 36  1  0
 36 37  1  0
 37 38  1  0
 38 39  1  1
M  END
