
     RDKit          3D

 39 42  0  0  0  0  0  0  0  0999 V2000
   -9.8100   -1.8180    1.3400 C   0  0  0  0  0  0  0  0  0  0  0  0
   -9.2710   -0.5860    0.8590 N   0  0  0  0  0  0  0  0  0  0  0  0
   -7.9050   -0.4140    0.3640 C   0  0  0  0  0  0  0  0  0  0  0  0
   -7.2800    0.7100    1.1300 C   0  0  1  0  0  0  0  0  0  0  0  0
   -7.1450    0.2270    2.5790 C   0  0  0  0  0  0  0  0  0  0  0  0
   -6.3460   -0.9100    2.6560 O   0  0  0  0  0  0  0  0  0  0  0  0
   -5.8800    0.9620    0.6060 C   0  0  0  0  0  0  0  0  0  0  0  0
   -5.8640    1.3300   -0.8370 C   0  0  0  0  0  0  0  0  0  0  0  0
   -4.5120    1.5650   -1.2720 N   0  0  0  0  0  0  0  0  0  0  0  0
   -3.5520    0.5000   -1.2110 C   0  0  0  0  0  0  0  0  0  0  0  0
   -3.9000   -0.6220   -0.7840 O   0  0  0  0  0  0  0  0  0  0  0  0
   -2.2130    0.6810   -1.6210 N   0  0  0  0  0  0  0  0  0  0  0  0
   -1.1710   -0.2650   -1.6130 C   0  0  0  0  0  0  0  0  0  0  0  0
    0.0430    0.0610   -2.2230 C   0  0  0  0  0  0  0  0  0  0  0  0
    1.1250   -0.7940   -2.2610 C   0  0  0  0  0  0  0  0  0  0  0  0
    1.0580   -2.0390   -1.6860 C   0  0  0  0  0  0  0  0  0  0  0  0
    2.1530   -2.8830   -1.7340 O   0  0  0  0  0  0  0  0  0  0  0  0
    3.3910   -2.5880   -2.3280 C   0  0  0  0  0  0  0  0  0  0  0  0
    3.9740   -1.4200   -1.6340 C   0  0  0  0  0  0  0  0  0  0  0  0
    3.7150   -0.8510   -0.4460 C   0  0  0  0  0  0  0  0  0  0  0  0
    4.4050    0.2240   -0.0570 C   0  0  0  0  0  0  0  0  0  0  0  0
    5.3620    0.7110   -0.8940 C   0  0  0  0  0  0  0  0  0  0  0  0
    6.2940    1.8760   -0.7680 C   0  0  0  0  0  0  0  0  0  0  0  0
    7.4680    1.4870   -0.1580 O   0  0  0  0  0  0  0  0  0  0  0  0
    8.1780    0.5160   -0.8170 C   0  0  1  0  0  0  0  0  0  0  0  0
    9.5860    0.9520   -1.1660 C   0  0  0  0  0  0  0  0  0  0  0  0
   10.4720    1.1060    0.0250 C   0  0  0  0  0  0  0  0  0  0  0  0
   10.4290    0.0020    0.8700 O   0  0  0  0  0  0  0  0  0  0  0  0
    9.1220   -0.1990    1.3020 C   0  0  2  0  0  0  0  0  0  0  0  0
    9.0540   -1.1720    2.4530 C   0  0  0  0  0  0  0  0  0  0  0  0
    9.7960   -0.6620    3.5060 O   0  0  0  0  0  0  0  0  0  0  0  0
    8.3100   -0.6740    0.1140 C   0  0  0  0  0  0  0  0  0  0  0  0
    5.2910   -0.3850   -2.2850 S   0  0  0  0  0  0  0  0  0  0  0  0
   -0.1230   -2.3980   -1.0740 C   0  0  0  0  0  0  0  0  0  0  0  0
   -1.2150   -1.5130   -1.0450 C   0  0  0  0  0  0  0  0  0  0  0  0
   -8.1030    1.9580    1.1400 C   0  0  0  0  0  0  0  0  0  0  0  0
   -9.3860    1.8430    0.3540 C   0  0  0  0  0  0  0  0  0  0  0  0
  -10.0800    0.5980    0.8360 C   0  0  0  0  0  0  0  0  0  0  0  0
  -11.2680    0.5850    1.1900 O   0  0  0  0  0  0  0  0  0  0  0  0
  1  2  1  0
  2  3  1  0
  2 38  1  0
  3  4  1  0
  4  5  1  1
  4  7  1  0
  4 36  1  0
  5  6  1  0
  7  8  1  0
  8  9  1  0
  9 10  1  0
 10 11  2  0
 10 12  1  0
 12 13  1  0
 13 14  2  0
 13 35  1  0
 14 15  1  0
 15 16  2  0
 16 17  1  0
 16 34  1  0
 17 18  1  0
 18 19  1  0
 19 20  2  0
 19 33  1  0
 20 21  1  0
 21 22  2  0
 22 23  1  0
 22 33  1  0
 23 24  1  0
 25 24  1  1
 25 26  1  0
 25 32  1  0
 26 27  1  0
 27 28  1  0
 28 29  1  0
 29 30  1  1
 29 32  1  0
 30 31  1  0
 34 35  2  0
 36 37  1  0
 37 38  1  0
 38 39  2  0
M  END
