
     RDKit          3D

 39 43  0  0  0  0  0  0  0  0999 V2000
    3.3060    0.0240    1.6240 O   0  0  0  0  0  0  0  0  0  0  0  0
    2.0300    0.7930    1.3380 S   0  0  1  0  0  0  0  0  0  0  0  0
    1.1960    0.7340    2.5370 O   0  0  0  0  0  0  0  0  0  0  0  0
    2.5580    2.4450    1.0340 C   0  0  0  0  0  0  0  0  0  0  0  0
    1.6750    3.5050    1.1320 C   0  0  0  0  0  0  0  0  0  0  0  0
    2.0550    4.8100    0.9080 C   0  0  0  0  0  0  0  0  0  0  0  0
    3.3550    5.0670    0.5780 C   0  0  0  0  0  0  0  0  0  0  0  0
    4.2780    4.0570    0.4660 C   0  0  0  0  0  0  0  0  0  0  0  0
    3.8570    2.7650    0.6980 C   0  0  0  0  0  0  0  0  0  0  0  0
    1.3430    0.1040   -0.0680 N   0  0  0  0  0  0  0  0  0  0  0  0
    2.3200    0.0680   -1.0700 C   0  0  0  0  0  0  0  0  0  0  0  0
    3.0610   -1.2230   -1.0350 C   0  0  0  0  0  0  0  0  0  0  0  0
    4.1110   -1.5070   -1.8830 C   0  0  0  0  0  0  0  0  0  0  0  0
    4.8000   -2.6950   -1.8590 C   0  0  0  0  0  0  0  0  0  0  0  0
    4.3870   -3.6280   -0.9210 C   0  0  0  0  0  0  0  0  0  0  0  0
    3.3510   -3.4140   -0.0460 C   0  0  0  0  0  0  0  0  0  0  0  0
    2.6940   -2.1820   -0.1260 C   0  0  0  0  0  0  0  0  0  0  0  0
    0.0080    0.4190   -0.3290 C   0  0  1  0  0  0  0  0  0  0  0  0
   -0.2080    1.0150   -1.6760 C   0  0  0  0  0  0  0  0  0  0  0  0
   -0.5410   -0.0810   -2.5240 N   0  0  0  0  0  0  0  0  0  0  0  0
   -1.6330   -0.6860   -1.7290 C   0  0  0  0  0  0  0  0  0  0  0  0
   -0.9390   -0.8090   -0.4040 C   0  0  2  0  0  0  0  0  0  0  0  0
   -1.7400   -0.9650    0.7180 N   0  0  0  0  0  0  0  0  0  0  0  0
   -2.0230   -2.2800    1.2090 C   0  0  0  0  0  0  0  0  0  0  0  0
   -2.7450   -3.1650    0.3010 C   0  0  0  0  0  0  0  0  0  0  0  0
   -4.1160   -3.1960    0.3130 C   0  0  0  0  0  0  0  0  0  0  0  0
   -4.7990   -4.0500   -0.5600 C   0  0  0  0  0  0  0  0  0  0  0  0
   -4.0860   -4.8660   -1.4380 C   0  0  0  0  0  0  0  0  0  0  0  0
   -2.7160   -4.8300   -1.4440 C   0  0  0  0  0  0  0  0  0  0  0  0
   -2.0750   -3.9810   -0.5760 C   0  0  0  0  0  0  0  0  0  0  0  0
   -2.9810    0.0750    1.1150 S   0  0  2  0  0  0  0  0  0  0  0  0
   -3.5700   -0.4500    2.4380 O   0  0  0  0  0  0  0  0  0  0  0  0
   -4.1810   -0.0340    0.1810 O   0  0  0  0  0  0  0  0  0  0  0  0
   -2.5830    1.7250    1.4290 C   0  0  0  0  0  0  0  0  0  0  0  0
   -2.1180    2.0780    2.6740 C   0  0  0  0  0  0  0  0  0  0  0  0
   -1.8080    3.4010    2.9920 C   0  0  0  0  0  0  0  0  0  0  0  0
   -1.9720    4.3570    2.0420 C   0  0  0  0  0  0  0  0  0  0  0  0
   -2.4410    4.0170    0.7790 C   0  0  0  0  0  0  0  0  0  0  0  0
   -2.7380    2.7100    0.4930 C   0  0  0  0  0  0  0  0  0  0  0  0
  1  2  2  0
  2  3  2  0
  2  4  1  0
  2 10  1  6
  4  5  2  0
  4  9  1  0
  5  6  1  0
  6  7  2  0
  7  8  1  0
  8  9  2  0
 10 11  1  0
 18 10  1  6
 11 12  1  0
 12 13  2  0
 12 17  1  0
 13 14  1  0
 14 15  2  0
 15 16  1  0
 16 17  2  0
 18 19  1  0
 18 22  1  0
 19 20  1  0
 20 21  1  0
 21 22  1  0
 22 23  1  1
 23 24  1  0
 31 23  1  6
 24 25  1  0
 25 26  2  0
 25 30  1  0
 26 27  1  0
 27 28  2  0
 28 29  1  0
 29 30  2  0
 31 32  2  0
 31 33  2  0
 31 34  1  0
 34 35  2  0
 34 39  1  0
 35 36  1  0
 36 37  2  0
 37 38  1  0
 38 39  2  0
M  CHG  1  20   1
M  END
