
     RDKit          3D

 30 34  0  0  0  0  0  0  0  0999 V2000
    7.3360   -3.4540    2.6720 C   0  0  0  0  0  0  0  0  0  0  0  0
    6.6960   -2.2110    2.7360 O   0  0  0  0  0  0  0  0  0  0  0  0
    5.4940   -1.9580    2.0710 C   0  0  0  0  0  0  0  0  0  0  0  0
    4.8700   -2.8910    1.3240 N   0  0  0  0  0  0  0  0  0  0  0  0
    3.7120   -2.6440    0.6830 C   0  0  0  0  0  0  0  0  0  0  0  0
    3.1050   -1.4080    0.7660 C   0  0  0  0  0  0  0  0  0  0  0  0
    1.9180   -1.1310    0.1200 C   0  0  0  0  0  0  0  0  0  0  0  0
    1.2940    0.1150    0.1970 C   0  0  0  0  0  0  0  0  0  0  0  0
    0.0630    0.3080   -0.5420 C   0  0  0  0  0  0  0  0  0  0  0  0
   -0.4370   -0.6160   -1.4460 N   0  0  0  0  0  0  0  0  0  0  0  0
   -1.5840   -0.1720   -1.9420 C   0  0  0  0  0  0  0  0  0  0  0  0
   -2.3840   -0.9310   -2.9430 C   0  0  0  0  0  0  0  0  0  0  0  0
   -3.3780   -1.8060   -2.3300 C   0  0  0  0  0  0  0  0  0  0  0  0
   -4.6580   -1.6450   -2.5990 C   0  0  0  0  0  0  0  0  0  0  0  0
   -5.7630   -2.4580   -2.0500 C   0  0  0  0  0  0  0  0  0  0  0  0
   -5.3120   -3.4340   -1.1870 O   0  0  0  0  0  0  0  0  0  0  0  0
   -4.0050   -3.6470   -0.8720 C   0  0  0  0  0  0  0  0  0  0  0  0
   -3.0490   -2.8810   -1.4050 C   0  0  0  0  0  0  0  0  0  0  0  0
   -1.8030    0.9970   -1.3690 N   0  0  0  0  0  0  0  0  0  0  0  0
   -0.7950    1.2900   -0.5110 N   0  0  0  0  0  0  0  0  0  0  0  0
   -0.8520    2.5050    0.2280 C   0  0  1  0  0  0  0  0  0  0  0  0
   -0.1890    3.6890   -0.3710 C   0  0  0  0  0  0  0  0  0  0  0  0
   -0.4430    4.8700    0.5690 C   0  0  0  0  0  0  0  0  0  0  0  0
   -1.0370    4.4390    1.7640 O   0  0  0  0  0  0  0  0  0  0  0  0
   -2.3410    4.0370    1.4190 C   0  0  0  0  0  0  0  0  0  0  0  0
   -2.3450    2.9730    0.3600 C   0  0  0  0  0  0  0  0  0  0  0  0
    1.9340    1.0390    0.9500 C   0  0  0  0  0  0  0  0  0  0  0  0
    3.1470    0.7720    1.6160 C   0  0  0  0  0  0  0  0  0  0  0  0
    3.7400   -0.4560    1.5270 C   0  0  0  0  0  0  0  0  0  0  0  0
    4.9070   -0.7500    2.1550 N   0  0  0  0  0  0  0  0  0  0  0  0
  1  2  1  0
  2  3  1  0
  3  4  2  0
  3 30  1  0
  4  5  1  0
  5  6  2  0
  6  7  1  0
  6 29  1  0
  7  8  2  0
  8  9  1  0
  8 27  1  0
  9 10  2  0
  9 20  1  0
 10 11  1  0
 11 12  1  0
 11 19  2  0
 12 13  1  0
 13 14  2  0
 13 18  1  0
 14 15  1  0
 15 16  1  0
 16 17  1  0
 17 18  2  0
 19 20  1  0
 21 20  1  6
 21 22  1  0
 21 26  1  0
 22 23  1  0
 23 24  1  0
 24 25  1  0
 25 26  1  0
 27 28  2  0
 28 29  1  0
 29 30  2  0
M  END
