
     RDKit          3D

 30 34  0  0  0  0  0  0  0  0999 V2000
   -6.5280    1.6110    0.0360 C   0  0  0  0  0  0  0  0  0  0  0  0
   -6.2310    0.4030   -0.6690 O   0  0  0  0  0  0  0  0  0  0  0  0
   -5.4180   -0.5410   -0.0540 C   0  0  0  0  0  0  0  0  0  0  0  0
   -5.7380   -1.8160    0.1240 C   0  0  0  0  0  0  0  0  0  0  0  0
   -4.5810   -2.4690    0.8220 C   0  0  0  0  0  0  0  0  0  0  0  0
   -3.5850   -1.3910    1.0040 C   0  0  0  0  0  0  0  0  0  0  0  0
   -4.0830   -0.2830    0.4930 C   0  0  0  0  0  0  0  0  0  0  0  0
   -3.4840    0.9890    0.4430 O   0  0  0  0  0  0  0  0  0  0  0  0
   -2.0950    1.1600    0.4990 C   0  0  0  0  0  0  0  0  0  0  0  0
   -1.3650    0.4690   -0.6340 C   0  0  1  0  0  0  0  0  0  0  0  0
   -1.7840    0.9690   -1.9760 C   0  0  0  0  0  0  0  0  0  0  0  0
    0.0800    0.7630   -0.4620 C   0  0  0  0  0  0  0  0  0  0  0  0
    0.5200    2.0500   -0.5580 C   0  0  0  0  0  0  0  0  0  0  0  0
    1.8820    2.3360   -0.3970 C   0  0  0  0  0  0  0  0  0  0  0  0
    2.7860    1.3370   -0.1430 C   0  0  0  0  0  0  0  0  0  0  0  0
    2.3040    0.0470   -0.0540 C   0  0  0  0  0  0  0  0  0  0  0  0
    0.9730   -0.2470   -0.2090 C   0  0  0  0  0  0  0  0  0  0  0  0
    3.1430   -1.1330    0.2080 C   0  0  0  0  0  0  0  0  0  0  0  0
    2.4220   -2.1500    0.7070 N   0  0  0  0  0  0  0  0  0  0  0  0
    2.9600   -3.3360    1.0360 C   0  0  0  0  0  0  0  0  0  0  0  0
    4.3150   -3.5180    0.8550 C   0  0  0  0  0  0  0  0  0  0  0  0
    5.0590   -2.4890    0.3470 C   0  0  0  0  0  0  0  0  0  0  0  0
    6.2790   -2.6140    0.1700 O   0  0  0  0  0  0  0  0  0  0  0  0
    4.4650   -1.2980    0.0260 N   0  0  0  0  0  0  0  0  0  0  0  0
    5.3930   -0.3490   -0.5140 C   0  0  0  0  0  0  0  0  0  0  0  0
    5.2120    1.0600   -0.1510 C   0  0  0  0  0  0  0  0  0  0  0  0
    6.2660    1.9060    0.0960 N   0  0  0  0  0  0  0  0  0  0  0  0
    5.7660    3.0920    0.3810 N   0  0  0  0  0  0  0  0  0  0  0  0
    4.4290    3.0800    0.3360 C   0  0  0  0  0  0  0  0  0  0  0  0
    4.1080    1.8200    0.0070 N   0  0  0  0  0  0  0  0  0  0  0  0
  1  2  1  0
  2  3  1  0
  3  4  2  0
  3  7  1  0
  4  5  1  0
  5  6  1  0
  6  7  2  0
  7  8  1  0
  8  9  1  0
  9 10  1  0
 10 11  1  6
 10 12  1  0
 12 13  2  0
 12 17  1  0
 13 14  1  0
 14 15  2  0
 15 16  1  0
 15 30  1  0
 16 17  2  0
 16 18  1  0
 18 19  2  0
 18 24  1  0
 19 20  1  0
 20 21  2  0
 21 22  1  0
 22 23  2  0
 22 24  1  0
 24 25  1  0
 25 26  1  0
 26 27  2  0
 26 30  1  0
 27 28  1  0
 28 29  2  0
 29 30  1  0
M  END
