
     RDKit          3D

 29 31  0  0  0  0  0  0  0  0999 V2000
    8.2020   -0.1110   -0.6310 C   0  0  0  0  0  0  0  0  0  0  0  0
    7.3510    1.0770   -0.2520 C   0  0  0  0  0  0  0  0  0  0  0  0
    6.1170    0.7130    0.3610 N   0  0  0  0  0  0  0  0  0  0  0  0
    5.1590   -0.1040   -0.3450 C   0  0  0  0  0  0  0  0  0  0  0  0
    5.4790   -0.4600   -1.4970 O   0  0  0  0  0  0  0  0  0  0  0  0
    3.9200   -0.4290    0.3600 C   0  0  2  0  0  0  0  0  0  0  0  0
    4.1930   -1.1150    1.6980 C   0  0  0  0  0  0  0  0  0  0  0  0
    4.2760   -2.8580    1.1200 S   0  0  0  0  0  0  0  0  0  0  0  0
    3.5700   -2.5980   -0.5570 C   0  0  0  0  0  0  0  0  0  0  0  0
    3.0100   -1.2510   -0.3780 N   0  0  0  0  0  0  0  0  0  0  0  0
    1.7330   -0.9020   -0.9000 C   0  0  0  0  0  0  0  0  0  0  0  0
    1.0140   -1.7170   -1.5360 O   0  0  0  0  0  0  0  0  0  0  0  0
    1.2680    0.5070   -0.6570 C   0  0  0  0  0  0  0  0  0  0  0  0
   -0.3580    0.7220   -1.3990 S   0  0  0  0  0  0  0  0  0  0  0  0
   -1.6160   -0.2980   -0.5560 C   0  0  1  0  0  0  0  0  0  0  0  0
   -1.8560    0.1370    0.8350 C   0  0  0  0  0  0  0  0  0  0  0  0
   -3.0510    1.0300    1.0160 C   0  0  2  0  0  0  0  0  0  0  0  0
   -3.3380    1.7210   -0.2940 C   0  0  0  0  0  0  0  0  0  0  0  0
   -3.8080    0.6420   -1.1790 N   0  0  0  0  0  0  0  0  0  0  0  0
   -5.1050    0.5220   -1.7200 C   0  0  0  0  0  0  0  0  0  0  0  0
   -6.1290   -0.2060   -0.9370 C   0  0  0  0  0  0  0  0  0  0  0  0
   -5.8570   -1.6500   -0.6660 C   0  0  0  0  0  0  0  0  0  0  0  0
   -5.7820   -2.5290   -2.2340 Cl  0  0  0  0  0  0  0  0  0  0  0  0
   -2.8000   -0.3090   -1.4520 C   0  0  0  0  0  0  0  0  0  0  0  0
   -2.8320   -1.1370   -2.3720 O   0  0  0  0  0  0  0  0  0  0  0  0
   -2.8700    1.9430    2.0550 O   0  0  0  0  0  0  0  0  0  0  0  0
   -4.1790    2.1880    2.4920 C   0  0  0  0  0  0  0  0  0  0  0  0
   -4.7190    0.7560    2.5010 C   0  0  0  0  0  0  0  0  0  0  0  0
   -4.1210    0.2240    1.3890 O   0  0  0  0  0  0  0  0  0  0  0  0
  1  2  1  0
  2  3  1  0
  3  4  1  0
  4  5  2  0
  6  4  1  6
  6  7  1  0
  6 10  1  0
  7  8  1  0
  8  9  1  0
  9 10  1  0
 10 11  1  0
 11 12  2  0
 11 13  1  0
 13 14  1  0
 15 14  1  6
 15 16  1  0
 15 24  1  0
 17 16  1  6
 17 18  1  0
 17 26  1  0
 17 29  1  0
 18 19  1  0
 19 20  1  0
 19 24  1  0
 20 21  1  0
 21 22  1  0
 22 23  1  0
 24 25  2  0
 26 27  1  0
 27 28  1  0
 28 29  1  0
M  END
