
     RDKit          3D

 30 34  0  0  0  0  0  0  0  0999 V2000
   -3.1830    3.9050   -1.0730 C   0  0  0  0  0  0  0  0  0  0  0  0
   -1.8160    3.4300   -0.7490 C   0  0  0  0  0  0  0  0  0  0  0  0
   -0.8580    3.9030   -1.4100 O   0  0  0  0  0  0  0  0  0  0  0  0
   -1.5520    2.5030    0.2340 O   0  0  0  0  0  0  0  0  0  0  0  0
   -0.3010    2.0400    0.5610 C   0  0  0  0  0  0  0  0  0  0  0  0
    0.4630    2.6670    1.5160 C   0  0  0  0  0  0  0  0  0  0  0  0
    1.7030    2.1980    1.8240 C   0  0  0  0  0  0  0  0  0  0  0  0
    2.1800    1.0890    1.1600 C   0  0  0  0  0  0  0  0  0  0  0  0
    1.4070    0.4580    0.1920 C   0  0  0  0  0  0  0  0  0  0  0  0
    0.1610    0.9010   -0.1290 C   0  0  0  0  0  0  0  0  0  0  0  0
   -0.6740    0.3540   -1.0290 O   0  0  0  0  0  0  0  0  0  0  0  0
   -1.7110   -0.5770   -0.7260 C   0  0  0  0  0  0  0  0  0  0  0  0
   -2.7700   -0.1110    0.1970 C   0  0  0  0  0  0  0  0  0  0  0  0
   -3.6970   -1.2420    0.3560 N   0  0  0  0  0  0  0  0  0  0  0  0
   -3.5840   -2.1820    1.2940 C   0  0  0  0  0  0  0  0  0  0  0  0
   -4.6270   -3.1040    1.1600 C   0  0  0  0  0  0  0  0  0  0  0  0
   -5.3540   -2.6720    0.1130 N   0  0  0  0  0  0  0  0  0  0  0  0
   -4.7810   -1.5350   -0.3730 C   0  0  0  0  0  0  0  0  0  0  0  0
    1.9820   -0.6230   -0.4290 C   0  0  0  0  0  0  0  0  0  0  0  0
    1.3340   -1.2830   -1.4500 C   0  0  0  0  0  0  0  0  0  0  0  0
    1.9670   -2.3450   -2.0830 C   0  0  0  0  0  0  0  0  0  0  0  0
    1.2310   -3.0270   -3.1720 C   0  0  0  0  0  0  0  0  0  0  0  0
    3.1970   -2.6950   -1.6810 N   0  0  0  0  0  0  0  0  0  0  0  0
    3.8160   -2.0570   -0.7050 N   0  0  0  0  0  0  0  0  0  0  0  0
    3.2610   -1.0190   -0.0470 C   0  0  0  0  0  0  0  0  0  0  0  0
    3.9980   -0.4090    0.8970 N   0  0  0  0  0  0  0  0  0  0  0  0
    5.2230   -0.6130    1.4140 C   0  0  0  0  0  0  0  0  0  0  0  0
    5.5020    0.3240    2.3750 C   0  0  0  0  0  0  0  0  0  0  0  0
    4.3670    1.1290    2.4240 C   0  0  0  0  0  0  0  0  0  0  0  0
    3.4420    0.6510    1.4920 C   0  0  0  0  0  0  0  0  0  0  0  0
  1  2  1  0
  2  3  2  0
  2  4  1  0
  4  5  1  0
  5  6  2  0
  5 10  1  0
  6  7  1  0
  7  8  2  0
  8  9  1  0
  8 30  1  0
  9 10  2  0
  9 19  1  0
 10 11  1  0
 11 12  1  0
 12 13  1  0
 13 14  1  0
 14 15  1  0
 14 18  1  0
 15 16  2  0
 16 17  1  0
 17 18  2  0
 19 20  2  0
 19 25  1  0
 20 21  1  0
 21 22  1  0
 21 23  2  0
 23 24  1  0
 24 25  2  0
 25 26  1  0
 26 27  1  0
 26 30  1  0
 27 28  2  0
 28 29  1  0
 29 30  2  0
M  END
