
     RDKit          3D

 29 31  0  0  0  0  0  0  0  0999 V2000
   -5.4130    3.7380   -1.7080 C   0  0  0  0  0  0  0  0  0  0  0  0
   -4.3810    2.3070   -1.5290 S   0  0  1  0  0  0  0  0  0  0  0  0
   -4.8620    1.2580   -2.4610 O   0  0  0  0  0  0  0  0  0  0  0  0
   -2.9840    2.6870   -1.9230 O   0  0  0  0  0  0  0  0  0  0  0  0
   -4.4650    1.8080    0.1750 C   0  0  0  0  0  0  0  0  0  0  0  0
   -3.5860    0.5700    0.3780 C   0  0  0  0  0  0  0  0  0  0  0  0
   -4.2020   -0.4990    0.8130 C   0  0  0  0  0  0  0  0  0  0  0  0
   -5.6600   -0.7160    1.1650 C   0  0  0  0  0  0  0  0  0  0  0  0
   -5.6820   -1.8890    2.0480 C   0  0  0  0  0  0  0  0  0  0  0  0
   -4.2530   -2.3030    2.2820 C   0  0  0  0  0  0  0  0  0  0  0  0
   -3.6000   -1.8370    0.9830 C   0  0  2  0  0  0  0  0  0  0  0  0
   -1.8340   -1.7810    1.0140 S   0  0  0  0  0  0  0  0  0  0  0  0
   -1.3230   -0.1960    0.3900 C   0  0  0  0  0  0  0  0  0  0  0  0
    0.1330    0.0770    0.1110 C   0  0  0  0  0  0  0  0  0  0  0  0
    0.6610   -0.8740   -0.9200 C   0  0  0  0  0  0  0  0  0  0  0  0
    2.0230   -0.7120   -1.2640 N   0  0  0  0  0  0  0  0  0  0  0  0
    3.1060   -0.8240   -0.3470 C   0  0  0  0  0  0  0  0  0  0  0  0
    2.8160   -1.0810    0.8280 O   0  0  0  0  0  0  0  0  0  0  0  0
    4.5010   -0.6490   -0.7420 C   0  0  0  0  0  0  0  0  0  0  0  0
    5.5100   -0.7520    0.1050 C   0  0  0  0  0  0  0  0  0  0  0  0
    6.7640   -0.5440   -0.5020 N   0  0  0  0  0  0  0  0  0  0  0  0
    8.0870   -0.5800    0.1230 C   0  0  0  0  0  0  0  0  0  0  0  0
    8.3930    0.8390    0.6020 C   0  0  0  0  0  0  0  0  0  0  0  0
    9.9910    0.8860    1.3780 Cl  0  0  0  0  0  0  0  0  0  0  0  0
    6.5110   -0.2840   -1.8740 C   0  0  0  0  0  0  0  0  0  0  0  0
    7.3530   -0.0440   -2.7780 O   0  0  0  0  0  0  0  0  0  0  0  0
    5.0580   -0.3490   -2.0380 C   0  0  0  0  0  0  0  0  0  0  0  0
    4.4180   -0.1750   -3.1130 O   0  0  0  0  0  0  0  0  0  0  0  0
   -2.1980    0.7010    0.1750 N   0  0  0  0  0  0  0  0  0  0  0  0
  2  1  1  1
  2  3  2  0
  2  4  2  0
  2  5  1  0
  5  6  1  0
  6  7  2  0
  6 29  1  0
  7  8  1  0
  7 11  1  0
  8  9  1  0
  9 10  1  0
 11 10  1  1
 11 12  1  0
 12 13  1  0
 13 14  1  0
 13 29  2  0
 14 15  1  0
 15 16  1  0
 16 17  1  0
 17 18  2  0
 17 19  1  0
 19 20  2  0
 19 27  1  0
 20 21  1  0
 21 22  1  0
 21 25  1  0
 22 23  1  0
 23 24  1  0
 25 26  2  0
 25 27  1  0
 27 28  2  0
M  END
