
     RDKit          3D

 31 34  0  0  0  0  0  0  0  0999 V2000
    2.3880    0.7390   -0.0790 O   0  0  0  0  0  0  0  0  0  0  0  0
    2.3480   -0.3910    0.4180 C   0  0  0  0  0  0  0  0  0  0  0  0
    3.6040   -1.1910    0.5500 C   0  0  0  0  0  0  0  0  0  0  0  0
    4.7140   -0.3870    0.0080 C   0  0  0  0  0  0  0  0  0  0  0  0
    5.0010   -0.4790   -1.3400 C   0  0  0  0  0  0  0  0  0  0  0  0
    6.0260    0.2450   -1.9060 C   0  0  0  0  0  0  0  0  0  0  0  0
    6.7780    1.0780   -1.1060 C   0  0  0  0  0  0  0  0  0  0  0  0
    7.8230    1.8350   -1.6070 O   0  0  0  0  0  0  0  0  0  0  0  0
    6.4940    1.1740    0.2480 C   0  0  0  0  0  0  0  0  0  0  0  0
    5.4700    0.4480    0.8040 C   0  0  0  0  0  0  0  0  0  0  0  0
    1.0920   -0.9080    0.8590 N   0  0  0  0  0  0  0  0  0  0  0  0
   -0.0670   -0.1000    0.7270 C   0  0  0  0  0  0  0  0  0  0  0  0
    0.1140    1.1570    0.2450 N   0  0  0  0  0  0  0  0  0  0  0  0
   -0.9270    1.9760    0.1420 C   0  0  0  0  0  0  0  0  0  0  0  0
   -2.1820    1.5700    0.5150 C   0  0  0  0  0  0  0  0  0  0  0  0
   -3.3040    2.4650    0.3850 C   0  0  0  0  0  0  0  0  0  0  0  0
   -3.2160    3.7400   -0.0700 C   0  0  0  0  0  0  0  0  0  0  0  0
   -4.3410    4.5530   -0.1830 C   0  0  0  0  0  0  0  0  0  0  0  0
   -5.5690    4.0880    0.1620 C   0  0  0  0  0  0  0  0  0  0  0  0
   -6.6890    4.9070    0.0450 O   0  0  0  0  0  0  0  0  0  0  0  0
   -5.6970    2.7770    0.6340 C   0  0  0  0  0  0  0  0  0  0  0  0
   -4.5700    1.9880    0.7390 C   0  0  0  0  0  0  0  0  0  0  0  0
   -2.3400    0.3110    0.9930 N   0  0  0  0  0  0  0  0  0  0  0  0
   -1.3030   -0.5430    1.1080 C   0  0  0  0  0  0  0  0  0  0  0  0
   -1.5050   -1.9310    1.5740 C   0  0  0  0  0  0  0  0  0  0  0  0
   -1.6730   -2.9280    0.5220 C   0  0  0  0  0  0  0  0  0  0  0  0
   -0.7040   -3.8270    0.2050 C   0  0  0  0  0  0  0  0  0  0  0  0
   -0.8700   -4.7690   -0.8140 C   0  0  0  0  0  0  0  0  0  0  0  0
   -2.0320   -4.8060   -1.5260 C   0  0  0  0  0  0  0  0  0  0  0  0
   -3.0290   -3.9140   -1.2320 C   0  0  0  0  0  0  0  0  0  0  0  0
   -2.8590   -2.9880   -0.2260 C   0  0  0  0  0  0  0  0  0  0  0  0
  1  2  2  0
  2  3  1  0
  2 11  1  0
  3  4  1  0
  4  5  2  0
  4 10  1  0
  5  6  1  0
  6  7  2  0
  7  8  1  0
  7  9  1  0
  9 10  2  0
 11 12  1  0
 12 13  2  0
 12 24  1  0
 13 14  1  0
 14 15  2  0
 15 16  1  0
 15 23  1  0
 16 17  2  0
 16 22  1  0
 17 18  1  0
 18 19  2  0
 19 20  1  0
 19 21  1  0
 21 22  2  0
 23 24  2  0
 24 25  1  0
 25 26  1  0
 26 27  2  0
 26 31  1  0
 27 28  1  0
 28 29  2  0
 29 30  1  0
 30 31  2  0
M  END
