
     RDKit          3D

 30 34  0  0  0  0  0  0  0  0999 V2000
    7.9580    2.3020   -0.1000 C   0  0  0  0  0  0  0  0  0  0  0  0
    8.5820    1.1310   -0.2390 C   0  0  0  0  0  0  0  0  0  0  0  0
    7.8140   -0.0150   -0.5700 N   0  0  0  0  0  0  0  0  0  0  0  0
    8.4560   -1.0440   -1.3850 C   0  0  0  0  0  0  0  0  0  0  0  0
    6.4750   -0.2160   -0.1590 C   0  0  0  0  0  0  0  0  0  0  0  0
    6.2670   -0.8700    1.0580 C   0  0  0  0  0  0  0  0  0  0  0  0
    4.9620   -1.0700    1.4670 C   0  0  0  0  0  0  0  0  0  0  0  0
    3.8750   -0.6600    0.7410 C   0  0  0  0  0  0  0  0  0  0  0  0
    2.5400   -0.7250    0.8990 N   0  0  0  0  0  0  0  0  0  0  0  0
    1.9510   -0.1440   -0.1580 C   0  0  0  0  0  0  0  0  0  0  0  0
    0.4960   -0.0360   -0.3160 C   0  0  0  0  0  0  0  0  0  0  0  0
   -0.0840    0.5610   -1.4040 C   0  0  0  0  0  0  0  0  0  0  0  0
   -1.4550    0.6310   -1.4930 C   0  0  0  0  0  0  0  0  0  0  0  0
   -2.3000    0.1040   -0.4910 C   0  0  0  0  0  0  0  0  0  0  0  0
   -3.7410    0.1770   -0.5840 C   0  0  0  0  0  0  0  0  0  0  0  0
   -4.1500    0.7700   -1.6510 O   0  0  0  0  0  0  0  0  0  0  0  0
   -4.6460   -0.3100    0.3300 N   0  0  0  0  0  0  0  0  0  0  0  0
   -4.1910   -1.0470    1.5050 C   0  0  0  0  0  0  0  0  0  0  0  0
   -5.1540   -2.2750    1.4900 C   0  0  0  0  0  0  0  0  0  0  0  0
   -5.6330   -2.5280    0.2160 O   0  0  0  0  0  0  0  0  0  0  0  0
   -6.5340   -1.5660   -0.2710 C   0  0  0  0  0  0  0  0  0  0  0  0
   -6.0750   -0.2140    0.2920 C   0  0  2  0  0  0  0  0  0  0  0  0
   -6.8340    0.9440   -0.0900 C   0  0  2  0  0  0  0  0  0  0  0  0
   -6.9300    1.7720   -1.2640 C   0  0  0  0  0  0  0  0  0  0  0  0
   -6.2570    2.3150    0.0180 C   0  0  0  0  0  0  0  0  0  0  0  0
   -1.6480   -0.4530    0.5200 N   0  0  0  0  0  0  0  0  0  0  0  0
   -0.3330   -0.5280    0.6210 N   0  0  0  0  0  0  0  0  0  0  0  0
    2.8860    0.2780   -0.9680 O   0  0  0  0  0  0  0  0  0  0  0  0
    4.0800   -0.0090   -0.4720 C   0  0  0  0  0  0  0  0  0  0  0  0
    5.3810    0.1950   -0.8880 C   0  0  0  0  0  0  0  0  0  0  0  0
  1  2  2  0
  2  3  1  0
  3  4  1  0
  3  5  1  0
  5  6  2  0
  5 30  1  0
  6  7  1  0
  7  8  2  0
  8  9  1  0
  8 29  1  0
  9 10  2  0
 10 11  1  0
 10 28  1  0
 11 12  2  0
 11 27  1  0
 12 13  1  0
 13 14  2  0
 14 15  1  0
 14 26  1  0
 15 16  2  0
 15 17  1  0
 17 18  1  0
 17 22  1  0
 18 19  1  0
 19 20  1  0
 20 21  1  0
 22 21  1  6
 22 23  1  0
 23 24  1  6
 23 25  1  0
 24 25  1  0
 26 27  2  0
 28 29  1  0
 29 30  2  0
M  END
