
     RDKit          3D

 30 34  0  0  0  0  0  0  0  0999 V2000
   -1.5100   -5.3440    1.2600 C   0  0  0  0  0  0  0  0  0  0  0  0
   -0.4050   -4.3750    0.9000 C   0  0  0  0  0  0  0  0  0  0  0  0
   -1.0630   -3.0730    0.5130 C   0  0  2  0  0  0  0  0  0  0  0  0
   -1.9900   -3.2160   -0.6590 C   0  0  0  0  0  0  0  0  0  0  0  0
   -0.0780   -2.0240    0.2600 N   0  0  0  0  0  0  0  0  0  0  0  0
    1.2170   -2.0980    0.1750 N   0  0  0  0  0  0  0  0  0  0  0  0
    1.7710   -0.8980   -0.0710 C   0  0  0  0  0  0  0  0  0  0  0  0
    3.1950   -0.5820   -0.2320 C   0  0  0  0  0  0  0  0  0  0  0  0
    4.1930   -1.5530   -0.1430 C   0  0  0  0  0  0  0  0  0  0  0  0
    5.3930   -0.9190   -0.3410 C   0  0  0  0  0  0  0  0  0  0  0  0
    5.0790    0.4240   -0.5440 C   0  0  0  0  0  0  0  0  0  0  0  0
    6.1070    1.4750   -0.8000 C   0  0  0  0  0  0  0  0  0  0  0  0
    5.5960    2.7460   -0.8580 O   0  0  0  0  0  0  0  0  0  0  0  0
    4.9770    3.1660    0.2930 C   0  0  0  0  0  0  0  0  0  0  0  0
    3.7920    0.5410   -0.4670 O   0  0  0  0  0  0  0  0  0  0  0  0
    0.7120   -0.0190   -0.1410 C   0  0  0  0  0  0  0  0  0  0  0  0
    0.6100    1.3490   -0.3660 C   0  0  0  0  0  0  0  0  0  0  0  0
    1.6380    2.0210   -0.5580 O   0  0  0  0  0  0  0  0  0  0  0  0
   -0.6240    1.9260   -0.3710 N   0  0  0  0  0  0  0  0  0  0  0  0
   -1.0040    3.1720   -0.5550 N   0  0  0  0  0  0  0  0  0  0  0  0
   -2.3660    3.2710   -0.4690 C   0  0  0  0  0  0  0  0  0  0  0  0
   -2.8680    2.0150   -0.2170 C   0  0  0  0  0  0  0  0  0  0  0  0
   -1.7350    1.2020   -0.1640 C   0  0  0  0  0  0  0  0  0  0  0  0
   -1.6520   -0.1130    0.0530 N   0  0  0  0  0  0  0  0  0  0  0  0
   -0.4390   -0.7450    0.0690 C   0  0  0  0  0  0  0  0  0  0  0  0
   -4.1600    1.7740   -0.0790 C   0  0  0  0  0  0  0  0  0  0  0  0
   -4.5760    0.3570    0.1940 C   0  0  0  0  0  0  0  0  0  0  0  0
   -5.1180    2.8440   -0.1890 C   0  0  0  0  0  0  0  0  0  0  0  0
   -4.6750    4.0660   -0.4310 C   0  0  0  0  0  0  0  0  0  0  0  0
   -3.2690    4.4210   -0.5970 C   0  0  0  0  0  0  0  0  0  0  0  0
  1  2  1  0
  2  3  1  0
  3  4  1  6
  3  5  1  0
  5  6  1  0
  5 25  1  0
  6  7  2  0
  7  8  1  0
  7 16  1  0
  8  9  2  0
  8 15  1  0
  9 10  1  0
 10 11  2  0
 11 12  1  0
 11 15  1  0
 12 13  1  0
 13 14  1  0
 16 17  1  0
 16 25  2  0
 17 18  2  0
 17 19  1  0
 19 20  1  0
 19 23  1  0
 20 21  2  0
 21 22  1  0
 21 30  1  0
 22 23  1  0
 22 26  2  0
 23 24  2  0
 24 25  1  0
 26 27  1  0
 26 28  1  0
 28 29  2  0
 29 30  1  0
M  END
