
     RDKit          3D

 30 34  0  0  0  0  0  0  0  0999 V2000
   -5.1200    0.8380    0.0120 C   0  0  0  0  0  0  0  0  0  0  0  0
   -5.2160   -0.6330   -0.1790 C   0  0  0  0  0  0  0  0  0  0  0  0
   -6.3830   -1.2570   -0.5390 N   0  0  0  0  0  0  0  0  0  0  0  0
   -6.2000   -2.5080   -0.5410 O   0  0  0  0  0  0  0  0  0  0  0  0
   -4.9550   -2.7940   -0.1980 C   0  0  0  0  0  0  0  0  0  0  0  0
   -4.5350   -4.2140   -0.1390 C   0  0  0  0  0  0  0  0  0  0  0  0
   -4.2690   -1.5980    0.0460 C   0  0  0  0  0  0  0  0  0  0  0  0
   -2.8540   -1.5760    0.3040 C   0  0  0  0  0  0  0  0  0  0  0  0
   -2.3420   -2.7010    0.7220 O   0  0  0  0  0  0  0  0  0  0  0  0
   -1.9000   -0.5660    0.1860 N   0  0  0  0  0  0  0  0  0  0  0  0
   -2.0050    0.7490   -0.3430 C   0  0  0  0  0  0  0  0  0  0  0  0
   -0.6060    0.8640   -1.0500 C   0  0  0  0  0  0  0  0  0  0  0  0
    0.2690    0.4840    0.0690 C   0  0  2  0  0  0  0  0  0  0  0  0
    0.3960    1.6240    1.0530 C   0  0  0  0  0  0  0  0  0  0  0  0
    0.8850    2.8290    0.6890 N   0  0  0  0  0  0  0  0  0  0  0  0
    0.9640    3.8380    1.6970 C   0  0  0  0  0  0  0  0  0  0  0  0
    0.9270    5.1750    0.9600 C   0  0  0  0  0  0  0  0  0  0  0  0
    0.7690    4.7750   -0.5130 C   0  0  0  0  0  0  0  0  0  0  0  0
    1.4000    3.3670   -0.4490 C   0  0  0  0  0  0  0  0  0  0  0  0
    1.6390    0.0270   -0.2820 C   0  0  0  0  0  0  0  0  0  0  0  0
    2.1480   -1.2240   -0.1310 N   0  0  0  0  0  0  0  0  0  0  0  0
    3.4120   -1.2400   -0.5570 C   0  0  0  0  0  0  0  0  0  0  0  0
    4.3790   -2.3200   -0.6100 C   0  0  0  0  0  0  0  0  0  0  0  0
    4.1780   -3.5650   -0.2490 C   0  0  0  0  0  0  0  0  0  0  0  0
    5.4090   -4.3570   -0.4520 C   0  0  0  0  0  0  0  0  0  0  0  0
    6.3760   -3.3450   -0.9880 C   0  0  0  0  0  0  0  0  0  0  0  0
    5.7540   -2.1880   -1.0690 C   0  0  0  0  0  0  0  0  0  0  0  0
    3.6700    0.0280   -0.9740 N   0  0  0  0  0  0  0  0  0  0  0  0
    2.6140    0.7050   -0.7900 O   0  0  0  0  0  0  0  0  0  0  0  0
   -0.5080   -0.6730    0.6900 C   0  0  0  0  0  0  0  0  0  0  0  0
  1  2  1  0
  2  3  2  0
  2  7  1  0
  3  4  1  0
  4  5  1  0
  5  6  1  0
  5  7  2  0
  7  8  1  0
  8  9  2  0
  8 10  1  0
 10 11  1  0
 10 30  1  0
 11 12  1  0
 12 13  1  0
 13 14  1  1
 13 20  1  0
 13 30  1  0
 14 15  1  0
 15 16  1  0
 15 19  1  0
 16 17  1  0
 17 18  1  0
 18 19  1  0
 20 21  2  0
 20 29  1  0
 21 22  1  0
 22 23  1  0
 22 28  2  0
 23 24  2  0
 23 27  1  0
 24 25  1  0
 25 26  1  0
 26 27  2  0
 28 29  1  0
M  END
