
     RDKit          3D

 37 40  0  0  0  0  0  0  0  0999 V2000
   -5.0090    1.1440   -2.6990 C   0  0  0  0  0  0  0  0  0  0  0  0
   -3.7770    1.9640   -2.3470 C   0  0  0  0  0  0  0  0  0  0  0  0
   -2.6340    1.1100   -2.5770 N   0  0  0  0  0  0  0  0  0  0  0  0
   -2.3240    0.7430   -3.9440 C   0  0  0  0  0  0  0  0  0  0  0  0
   -1.7920    0.6080   -1.5490 C   0  0  0  0  0  0  0  0  0  0  0  0
   -0.6860    1.2900   -1.1200 C   0  0  0  0  0  0  0  0  0  0  0  0
    0.0940    0.7590   -0.1220 C   0  0  0  0  0  0  0  0  0  0  0  0
    1.2830    1.4360    0.3920 C   0  0  0  0  0  0  0  0  0  0  0  0
    2.3480    0.8310    0.7560 N   0  0  0  0  0  0  0  0  0  0  0  0
    2.5920   -0.5230    0.7430 N   0  0  0  0  0  0  0  0  0  0  0  0
    3.1110   -1.1770   -0.2150 C   0  0  0  0  0  0  0  0  0  0  0  0
    3.4770   -0.5040   -1.3670 O   0  0  0  0  0  0  0  0  0  0  0  0
    3.3040   -2.6270   -0.0670 C   0  0  0  0  0  0  0  0  0  0  0  0
    3.8580   -3.3960   -1.0660 C   0  0  0  0  0  0  0  0  0  0  0  0
    4.0430   -4.7420   -0.9390 N   0  0  0  0  0  0  0  0  0  0  0  0
    3.6620   -5.3410    0.2210 C   0  0  0  0  0  0  0  0  0  0  0  0
    3.1010   -4.6390    1.2630 C   0  0  0  0  0  0  0  0  0  0  0  0
    2.6940   -5.3160    2.5170 C   0  0  0  0  0  0  0  0  0  0  0  0
    2.9290   -3.2620    1.0970 C   0  0  0  0  0  0  0  0  0  0  0  0
    1.2720    2.8650    0.5040 N   0  0  0  0  0  0  0  0  0  0  0  0
    2.3260    3.5860   -0.1180 C   0  0  0  0  0  0  0  0  0  0  0  0
    2.6370    4.9110    0.5080 C   0  0  0  0  0  0  0  0  0  0  0  0
    1.5510    5.4310    1.3990 C   0  0  1  0  0  0  0  0  0  0  0  0
    1.5280    6.9630    1.4430 C   0  0  0  0  0  0  0  0  0  0  0  0
    3.0930    7.5250    2.0590 Cl  0  0  0  0  0  0  0  0  0  0  0  0
    0.1700    4.9190    1.0010 C   0  0  0  0  0  0  0  0  0  0  0  0
    0.1710    3.4370    1.2520 C   0  0  0  0  0  0  0  0  0  0  0  0
   -0.2830   -0.4570    0.4080 C   0  0  0  0  0  0  0  0  0  0  0  0
   -1.4090   -1.1530   -0.0280 C   0  0  0  0  0  0  0  0  0  0  0  0
   -1.7680   -2.4340    0.5670 C   0  0  0  0  0  0  0  0  0  0  0  0
   -1.0910   -3.0310    1.5320 C   0  0  0  0  0  0  0  0  0  0  0  0
   -1.7680   -4.2980    1.8590 C   0  0  0  0  0  0  0  0  0  0  0  0
   -1.3970   -5.1510    2.7510 N   0  0  0  0  0  0  0  0  0  0  0  0
   -2.9130   -4.3470    0.9600 C   0  0  0  0  0  0  0  0  0  0  0  0
   -2.9190   -3.2430    0.1900 C   0  0  0  0  0  0  0  0  0  0  0  0
   -3.9200   -2.9110   -0.8580 C   0  0  0  0  0  0  0  0  0  0  0  0
   -2.1450   -0.5940   -1.0090 N   0  0  0  0  0  0  0  0  0  0  0  0
  1  2  1  0
  2  3  1  0
  3  4  1  0
  3  5  1  0
  5  6  2  0
  5 37  1  0
  6  7  1  0
  7  8  1  0
  7 28  2  0
  8  9  2  3
  8 20  1  0
  9 10  1  0
 10 11  2  3
 11 12  1  0
 11 13  1  0
 13 14  2  0
 13 19  1  0
 14 15  1  0
 15 16  2  0
 16 17  1  0
 17 18  1  0
 17 19  2  0
 20 21  1  0
 20 27  1  0
 21 22  1  0
 22 23  1  0
 23 24  1  6
 23 26  1  0
 24 25  1  0
 26 27  1  0
 28 29  1  0
 29 30  1  0
 29 37  2  0
 30 31  2  0
 30 35  1  0
 31 32  1  0
 32 33  2  0
 32 34  1  0
 34 35  2  0
 35 36  1  0
M  CHG  1  33   1
M  END
