
     RDKit          3D

 37 41  0  0  0  0  0  0  0  0999 V2000
    5.0930   -1.2700    3.0840 C   0  0  0  0  0  0  0  0  0  0  0  0
    4.3480   -0.0170    3.3630 C   0  0  0  0  0  0  0  0  0  0  0  0
    4.5460    0.6110    4.7060 C   0  0  0  0  0  0  0  0  0  0  0  0
    4.0200   -0.6130    5.9090 Cl  0  0  0  0  0  0  0  0  0  0  0  0
    3.5670    0.5050    2.4890 N   0  0  0  0  0  0  0  0  0  0  0  0
    3.4230   -0.1430    1.2270 C   0  0  0  0  0  0  0  0  0  0  0  0
    4.3440   -0.0550    0.2050 C   0  0  0  0  0  0  0  0  0  0  0  0
    3.8200   -0.8230   -0.8320 C   0  0  0  0  0  0  0  0  0  0  0  0
    4.4930   -1.0140   -2.1430 C   0  0  0  0  0  0  0  0  0  0  0  0
    4.1080    0.1200   -2.9970 N   0  0  2  0  0  0  0  0  0  0  0  0
    4.5570   -0.1300   -4.3420 C   0  0  0  0  0  0  0  0  0  0  0  0
    5.3000    1.1040   -4.7990 C   0  0  0  0  0  0  0  0  0  0  0  0
    4.9260    2.1600   -3.7580 C   0  0  0  0  0  0  0  0  0  0  0  0
    4.7360    1.3210   -2.5390 C   0  0  0  0  0  0  0  0  0  0  0  0
    2.6530   -1.3080   -0.3800 N   0  0  0  0  0  0  0  0  0  0  0  0
    2.3820   -0.9300    0.8320 N   0  0  0  0  0  0  0  0  0  0  0  0
    1.2680   -1.2060    1.6870 C   0  0  0  0  0  0  0  0  0  0  0  0
    1.4220   -2.1320    2.6920 C   0  0  0  0  0  0  0  0  0  0  0  0
    0.3980   -2.4500    3.5580 C   0  0  0  0  0  0  0  0  0  0  0  0
   -0.8020   -1.7920    3.3710 C   0  0  0  0  0  0  0  0  0  0  0  0
   -1.0080   -0.8580    2.3810 C   0  0  0  0  0  0  0  0  0  0  0  0
   -2.3030   -0.2110    2.2620 C   0  0  0  0  0  0  0  0  0  0  0  0
   -3.1460   -0.3950    3.1740 O   0  0  0  0  0  0  0  0  0  0  0  0
   -2.6900    0.6150    1.1920 N   0  0  0  0  0  0  0  0  0  0  0  0
   -3.9590    1.2490    1.0800 C   0  0  0  0  0  0  0  0  0  0  0  0
   -4.2280    2.5130    1.5660 C   0  0  0  0  0  0  0  0  0  0  0  0
   -3.2290    3.3800    2.2730 C   0  0  0  0  0  0  0  0  0  0  0  0
   -5.5120    2.8190    1.3010 N   0  0  0  0  0  0  0  0  0  0  0  0
   -6.0210    1.7610    0.6610 N   0  0  0  0  0  0  0  0  0  0  0  0
   -5.1290    0.7960    0.5060 C   0  0  0  0  0  0  0  0  0  0  0  0
   -5.2220   -0.5450   -0.1300 C   0  0  1  0  0  0  0  0  0  0  0  0
   -6.6560   -0.7210   -0.6040 C   0  0  0  0  0  0  0  0  0  0  0  0
   -6.8290   -0.0240   -1.9560 C   0  0  0  0  0  0  0  0  0  0  0  0
   -6.1950   -0.8550   -3.0510 C   0  0  0  0  0  0  0  0  0  0  0  0
   -5.0030   -1.5620   -2.4070 C   0  0  0  0  0  0  0  0  0  0  0  0
   -4.3810   -0.5760   -1.4170 C   0  0  0  0  0  0  0  0  0  0  0  0
    0.0520   -0.5830    1.5480 C   0  0  0  0  0  0  0  0  0  0  0  0
  1  2  1  0
  2  3  1  0
  2  5  2  3
  3  4  1  0
  5  6  1  0
  6  7  2  0
  6 16  1  0
  7  8  1  0
  8  9  1  0
  8 15  2  0
 10  9  1  1
 10 11  1  0
 10 14  1  0
 11 12  1  0
 12 13  1  0
 13 14  1  0
 15 16  1  0
 16 17  1  0
 17 18  2  0
 17 37  1  0
 18 19  1  0
 19 20  2  0
 20 21  1  0
 21 22  1  0
 21 37  2  0
 22 23  2  0
 22 24  1  0
 24 25  1  0
 25 26  1  0
 25 30  2  0
 26 27  1  0
 26 28  2  0
 28 29  1  0
 29 30  1  0
 31 30  1  6
 31 32  1  0
 31 36  1  0
 32 33  1  0
 33 34  1  0
 34 35  1  0
 35 36  1  0
M  CHG  1  10   1
M  END
