
     RDKit          3D

 37 41  0  0  0  0  0  0  0  0999 V2000
   -4.0370   -3.6900    1.4900 C   0  0  0  0  0  0  0  0  0  0  0  0
   -4.6980   -2.6400    1.8570 N   0  0  0  0  0  0  0  0  0  0  0  0
   -4.7700   -1.4810    1.0850 N   0  0  0  0  0  0  0  0  0  0  0  0
   -5.8990   -1.3930    0.2090 C   0  0  0  0  0  0  0  0  0  0  0  0
   -5.5580   -1.4140   -1.2570 C   0  0  0  0  0  0  0  0  0  0  0  0
   -4.2370   -1.7430   -1.5470 O   0  0  0  0  0  0  0  0  0  0  0  0
   -3.0060   -1.2680   -1.1290 C   0  0  0  0  0  0  0  0  0  0  0  0
   -2.0130   -1.4000   -2.0760 C   0  0  0  0  0  0  0  0  0  0  0  0
   -0.7260   -0.9780   -1.8240 C   0  0  0  0  0  0  0  0  0  0  0  0
   -0.4610   -0.4200   -0.5950 C   0  0  0  0  0  0  0  0  0  0  0  0
    0.8950   -0.0540   -0.2460 C   0  0  0  0  0  0  0  0  0  0  0  0
    1.8050   -1.0740   -0.2930 N   0  0  0  0  0  0  0  0  0  0  0  0
    3.0760   -0.8840    0.0750 C   0  0  0  0  0  0  0  0  0  0  0  0
    4.0210   -1.9460    0.0240 N   0  0  0  0  0  0  0  0  0  0  0  0
    3.5670   -3.2420   -0.4280 C   0  0  0  0  0  0  0  0  0  0  0  0
    4.6800   -4.2180   -0.4540 C   0  0  0  0  0  0  0  0  0  0  0  0
    5.0400   -4.8520    0.7060 C   0  0  0  0  0  0  0  0  0  0  0  0
    6.0940   -5.7690    0.6500 C   0  0  0  0  0  0  0  0  0  0  0  0
    6.7330   -6.0110   -0.5290 N   0  0  0  0  0  0  0  0  0  0  0  0
    6.3890   -5.3980   -1.6640 C   0  0  0  0  0  0  0  0  0  0  0  0
    5.3440   -4.4880   -1.6140 C   0  0  0  0  0  0  0  0  0  0  0  0
    3.5010    0.3500    0.5150 C   0  0  0  0  0  0  0  0  0  0  0  0
    2.5940    1.3720    0.5620 C   0  0  0  0  0  0  0  0  0  0  0  0
    1.2410    1.1830    0.1690 C   0  0  0  0  0  0  0  0  0  0  0  0
    0.3740    2.3290    0.0720 C   0  0  0  0  0  0  0  0  0  0  0  0
    0.6550    3.4900    0.6150 N   0  0  0  0  0  0  0  0  0  0  0  0
   -0.3590    4.4370    0.3570 C   0  0  0  0  0  0  0  0  0  0  0  0
   -0.4270    5.7000    0.7460 C   0  0  0  0  0  0  0  0  0  0  0  0
    0.6150    6.2540    1.5290 N   0  0  0  0  0  0  0  0  0  0  0  0
    0.8780    7.6840    1.4840 C   0  0  0  0  0  0  0  0  0  0  0  0
   -0.5620    8.6000    2.0100 Cl  0  0  0  0  0  0  0  0  0  0  0  0
   -1.3450    3.7300   -0.4450 C   0  0  0  0  0  0  0  0  0  0  0  0
   -2.6220    4.2840   -0.9890 C   0  0  0  0  0  0  0  0  0  0  0  0
   -0.8840    2.4630   -0.6080 C   0  0  0  0  0  0  0  0  0  0  0  0
   -1.4750   -0.2850    0.3720 C   0  0  0  0  0  0  0  0  0  0  0  0
   -2.7590   -0.7110    0.1100 C   0  0  0  0  0  0  0  0  0  0  0  0
   -3.7110   -0.4970    1.2460 C   0  0  0  0  0  0  0  0  0  0  0  0
  1  2  2  0
  2  3  1  0
  3  4  1  0
  3 37  1  0
  4  5  1  0
  5  6  1  0
  6  7  1  0
  7  8  2  0
  7 36  1  0
  8  9  1  0
  9 10  2  0
 10 11  1  0
 10 35  1  0
 11 12  2  0
 11 24  1  0
 12 13  1  0
 13 14  1  0
 13 22  2  0
 14 15  1  0
 15 16  1  0
 16 17  2  0
 16 21  1  0
 17 18  1  0
 18 19  2  0
 19 20  1  0
 20 21  2  0
 22 23  1  0
 23 24  2  0
 24 25  1  0
 25 26  2  0
 25 34  1  0
 26 27  1  0
 27 28  2  3
 27 32  1  0
 28 29  1  0
 29 30  1  0
 30 31  1  0
 32 33  1  0
 32 34  2  0
 35 36  2  0
 36 37  1  0
M  CHG  1  26   1
M  END
