
     RDKit          3D

 37 41  0  0  0  0  0  0  0  0999 V2000
   -9.2390   -2.4820   -1.0930 C   0  0  0  0  0  0  0  0  0  0  0  0
   -9.2070   -1.8020    0.0210 C   0  0  0  0  0  0  0  0  0  0  0  0
  -10.1340   -2.4160    1.4060 Cl  0  0  0  0  0  0  0  0  0  0  0  0
   -8.4500   -0.5560    0.2580 C   0  0  0  0  0  0  0  0  0  0  0  0
   -8.5470    0.0030    1.4480 C   0  0  0  0  0  0  0  0  0  0  0  0
   -7.6110    0.0690   -0.7830 C   0  0  2  0  0  0  0  0  0  0  0  0
   -6.6350   -0.8520   -1.4490 C   0  0  0  0  0  0  0  0  0  0  0  0
   -5.2540   -0.2570   -1.4330 C   0  0  0  0  0  0  0  0  0  0  0  0
   -4.8660    0.0590   -0.0790 N   0  0  1  0  0  0  0  0  0  0  0  0
   -3.4660    0.4280   -0.0880 C   0  0  0  0  0  0  0  0  0  0  0  0
   -2.6150   -0.3050    0.9090 C   0  0  0  0  0  0  0  0  0  0  0  0
   -1.2250    0.2180    0.7200 C   0  0  0  0  0  0  0  0  0  0  0  0
   -0.7160    1.3030    1.3910 C   0  0  0  0  0  0  0  0  0  0  0  0
    0.5700    1.7330    1.1390 C   0  0  0  0  0  0  0  0  0  0  0  0
    1.4010    1.1140    0.2210 C   0  0  0  0  0  0  0  0  0  0  0  0
    2.7220    1.5560   -0.0570 N   0  0  0  0  0  0  0  0  0  0  0  0
    2.9470    2.1080   -1.3740 C   0  0  0  0  0  0  0  0  0  0  0  0
    4.3440    2.4930   -1.6730 C   0  0  0  0  0  0  0  0  0  0  0  0
    5.3980    1.7540   -0.8650 C   0  0  2  0  0  0  0  0  0  0  0  0
    5.4690    0.3650   -1.2590 N   0  0  0  0  0  0  0  0  0  0  0  0
    6.4710   -0.5020   -0.7470 C   0  0  0  0  0  0  0  0  0  0  0  0
    7.4210   -0.1120    0.1190 N   0  0  0  0  0  0  0  0  0  0  0  0
    8.3810   -0.8880    0.6250 C   0  0  0  0  0  0  0  0  0  0  0  0
    9.4150   -0.3870    1.5910 C   0  0  0  0  0  0  0  0  0  0  0  0
    8.4230   -2.2160    0.2370 C   0  0  0  0  0  0  0  0  0  0  0  0
    9.2360   -3.2220    0.5530 N   0  0  0  0  0  0  0  0  0  0  0  0
    8.7970   -4.3000   -0.1330 C   0  0  0  0  0  0  0  0  0  0  0  0
    7.7220   -3.9540   -0.8630 N   0  0  0  0  0  0  0  0  0  0  0  0
    7.4480   -2.6320   -0.6570 C   0  0  0  0  0  0  0  0  0  0  0  0
    6.5140   -1.7950   -1.1230 N   0  0  0  0  0  0  0  0  0  0  0  0
    5.1040    1.8540    0.6150 C   0  0  0  0  0  0  0  0  0  0  0  0
    3.7100    1.4420    0.9270 C   0  0  0  0  0  0  0  0  0  0  0  0
    3.4760    1.0040    2.0780 O   0  0  0  0  0  0  0  0  0  0  0  0
    0.8510    0.0130   -0.4440 C   0  0  0  0  0  0  0  0  0  0  0  0
   -0.4280   -0.4220   -0.1990 C   0  0  0  0  0  0  0  0  0  0  0  0
   -5.6770    1.1650    0.4280 C   0  0  0  0  0  0  0  0  0  0  0  0
   -6.9270    1.3410   -0.3630 C   0  0  0  0  0  0  0  0  0  0  0  0
  1  2  2  0
  2  3  1  0
  2  4  1  0
  4  5  2  0
  6  4  1  1
  6  7  1  0
  6 37  1  0
  7  8  1  0
  8  9  1  0
  9 10  1  6
  9 36  1  0
 10 11  1  0
 11 12  1  0
 12 13  2  0
 12 35  1  0
 13 14  1  0
 14 15  2  0
 15 16  1  0
 15 34  1  0
 16 17  1  0
 16 32  1  0
 17 18  1  0
 18 19  1  0
 19 20  1  6
 19 31  1  0
 20 21  1  0
 21 22  2  0
 21 30  1  0
 22 23  1  0
 23 24  1  0
 23 25  2  0
 25 26  1  0
 25 29  1  0
 26 27  1  0
 27 28  2  0
 28 29  1  0
 29 30  2  0
 31 32  1  0
 32 33  2  0
 34 35  2  0
 36 37  1  0
M  CHG  1   9   1
M  END
