
     RDKit          3D

 37 41  0  0  0  0  0  0  0  0999 V2000
  -10.1470   -0.6800    1.3260 C   0  0  0  0  0  0  0  0  0  0  0  0
   -8.8710   -0.4940    0.5970 C   0  0  0  0  0  0  0  0  0  0  0  0
   -7.8750    0.0460    1.2900 C   0  0  0  0  0  0  0  0  0  0  0  0
   -6.5090    0.3050    0.7670 C   0  0  0  0  0  0  0  0  0  0  0  0
   -5.6040    0.4290    1.8450 C   0  0  0  0  0  0  0  0  0  0  0  0
   -4.3000    0.4630    1.6300 C   0  0  0  0  0  0  0  0  0  0  0  0
   -3.3390    0.5830    2.6680 O   0  0  0  0  0  0  0  0  0  0  0  0
   -3.7070    0.3860    0.3240 C   0  0  0  0  0  0  0  0  0  0  0  0
   -2.3140    0.0160    0.3650 C   0  0  0  0  0  0  0  0  0  0  0  0
   -1.2320    0.7910    0.0650 N   0  0  0  0  0  0  0  0  0  0  0  0
   -0.2010    0.1700    1.0190 C   0  0  0  0  0  0  0  0  0  0  0  0
    0.5470   -0.7920    0.2030 C   0  0  0  0  0  0  0  0  0  0  0  0
    1.5630    0.0370   -0.4910 N   0  0  0  0  0  0  0  0  0  0  0  0
    2.2110    0.8110    0.6390 C   0  0  0  0  0  0  0  0  0  0  0  0
    3.5840    1.1520    0.0310 C   0  0  0  0  0  0  0  0  0  0  0  0
    4.1110   -0.1780   -0.3210 N   0  0  2  0  0  0  0  0  0  0  0  0
    4.5510   -0.8450    0.8450 C   0  0  0  0  0  0  0  0  0  0  0  0
    5.9910   -0.5760    1.1950 C   0  0  0  0  0  0  0  0  0  0  0  0
    6.8210   -0.5530    0.0040 N   0  0  0  0  0  0  0  0  0  0  0  0
    8.1440   -0.1360    0.1750 C   0  0  0  0  0  0  0  0  0  0  0  0
    8.5990    1.0260   -0.2610 N   0  0  0  0  0  0  0  0  0  0  0  0
    9.8710    1.4460   -0.0940 C   0  0  0  0  0  0  0  0  0  0  0  0
   10.7480    0.6230    0.5550 C   0  0  0  0  0  0  0  0  0  0  0  0
   10.3410   -0.6190    1.0470 C   0  0  0  0  0  0  0  0  0  0  0  0
    9.0020   -0.9660    0.8260 C   0  0  0  0  0  0  0  0  0  0  0  0
    8.4990   -2.5540    1.4250 Cl  0  0  0  0  0  0  0  0  0  0  0  0
    6.2140   -1.0070   -1.2360 C   0  0  0  0  0  0  0  0  0  0  0  0
    5.0020   -0.0860   -1.4240 C   0  0  0  0  0  0  0  0  0  0  0  0
    0.8280    1.0710   -1.2360 C   0  0  0  0  0  0  0  0  0  0  0  0
   -0.6690    0.7840   -1.2180 C   0  0  2  0  0  0  0  0  0  0  0  0
   -1.2900    1.8500   -2.1210 C   0  0  0  0  0  0  0  0  0  0  0  0
   -4.6080    0.2780   -0.7310 C   0  0  0  0  0  0  0  0  0  0  0  0
   -5.9740    0.2350   -0.4950 C   0  0  0  0  0  0  0  0  0  0  0  0
   -6.7660    0.0480   -1.6640 N   0  0  0  0  0  0  0  0  0  0  0  0
   -7.9930   -0.6630   -1.7660 N   0  0  0  0  0  0  0  0  0  0  0  0
   -8.8670   -0.8830   -0.8090 C   0  0  0  0  0  0  0  0  0  0  0  0
  -10.0340   -1.7090   -1.2730 C   0  0  0  0  0  0  0  0  0  0  0  0
  1  2  1  0
  2  3  2  0
  2 36  1  0
  3  4  1  0
  4  5  2  0
  4 33  1  0
  5  6  1  0
  6  7  1  0
  6  8  2  0
  8  9  1  0
  8 32  1  0
  9 10  1  0
 10 11  1  0
 10 30  1  0
 11 12  1  0
 12 13  1  0
 13 14  1  0
 13 29  1  0
 14 15  1  0
 16 15  1  1
 16 17  1  0
 16 28  1  0
 17 18  1  0
 18 19  1  0
 19 20  1  0
 19 27  1  0
 20 21  2  0
 20 25  1  0
 21 22  1  0
 22 23  2  0
 23 24  1  0
 24 25  2  0
 25 26  1  0
 27 28  1  0
 29 30  1  0
 30 31  1  6
 32 33  2  0
 33 34  1  0
 34 35  1  0
 35 36  2  0
 36 37  1  0
M  CHG  1  16   1
M  END
