
     RDKit          3D

 37 41  0  0  0  0  0  0  0  0999 V2000
   -9.1870   -0.9290    1.2700 C   0  0  0  0  0  0  0  0  0  0  0  0
   -8.0340   -1.7180    0.7030 C   0  0  0  0  0  0  0  0  0  0  0  0
   -7.3160   -0.8360   -0.2150 N   0  0  0  0  0  0  0  0  0  0  0  0
   -6.1860   -1.5560   -0.8200 C   0  0  0  0  0  0  0  0  0  0  0  0
   -5.0590   -1.6640    0.1450 C   0  0  0  0  0  0  0  0  0  0  0  0
   -4.8670   -2.6390    1.0440 N   0  0  0  0  0  0  0  0  0  0  0  0
   -3.7660   -2.3930    1.7170 N   0  0  0  0  0  0  0  0  0  0  0  0
   -3.1860   -1.2290    1.2770 C   0  0  0  0  0  0  0  0  0  0  0  0
   -2.0990   -0.7510    1.7620 N   0  0  0  0  0  0  0  0  0  0  0  0
   -1.4780    0.4240    1.3450 C   0  0  0  0  0  0  0  0  0  0  0  0
   -2.0420    1.6860    1.5960 C   0  0  0  0  0  0  0  0  0  0  0  0
   -1.4010    2.8480    1.1810 C   0  0  0  0  0  0  0  0  0  0  0  0
   -0.2030    2.7480    0.5180 C   0  0  0  0  0  0  0  0  0  0  0  0
    0.3500    1.4860    0.2730 C   0  0  0  0  0  0  0  0  0  0  0  0
   -0.2880    0.3410    0.6860 C   0  0  0  0  0  0  0  0  0  0  0  0
    0.3610   -0.9520    0.3930 C   0  0  0  0  0  0  0  0  0  0  0  0
    1.8070   -0.7960    0.8920 C   0  0  0  0  0  0  0  0  0  0  0  0
    2.4110    0.2820    0.1260 N   0  0  0  0  0  0  0  0  0  0  0  0
    3.8290    0.2340   -0.0300 C   0  0  0  0  0  0  0  0  0  0  0  0
    4.4230    1.0970   -0.9140 C   0  0  0  0  0  0  0  0  0  0  0  0
    5.7590    1.1110   -1.1030 C   0  0  0  0  0  0  0  0  0  0  0  0
    6.6430    0.2460   -0.4120 C   0  0  0  0  0  0  0  0  0  0  0  0
    7.9570    0.3400   -0.6720 O   0  0  0  0  0  0  0  0  0  0  0  0
    9.0930   -0.2430   -0.2800 C   0  0  1  0  0  0  0  0  0  0  0  0
    9.7580   -0.9130   -1.5110 C   0  0  0  0  0  0  0  0  0  0  0  0
   10.1190    0.7850    0.2280 C   0  0  0  0  0  0  0  0  0  0  0  0
    6.0240   -0.6020    0.4620 C   0  0  0  0  0  0  0  0  0  0  0  0
    6.9860   -1.7420    1.4020 Cl  0  0  0  0  0  0  0  0  0  0  0  0
    4.6420   -0.6130    0.6540 C   0  0  0  0  0  0  0  0  0  0  0  0
    1.6440    1.3530   -0.4460 C   0  0  0  0  0  0  0  0  0  0  0  0
   -4.0080   -0.8050    0.3080 N   0  0  0  0  0  0  0  0  0  0  0  0
   -3.8630    0.3750   -0.4840 C   0  0  0  0  0  0  0  0  0  0  0  0
   -2.8900    0.4500   -1.4520 C   0  0  0  0  0  0  0  0  0  0  0  0
   -2.7710    1.6060   -2.2200 C   0  0  0  0  0  0  0  0  0  0  0  0
   -3.6300    2.6710   -2.0060 C   0  0  0  0  0  0  0  0  0  0  0  0
   -4.5810    2.5570   -1.0370 C   0  0  0  0  0  0  0  0  0  0  0  0
   -4.6840    1.4470   -0.3110 N   0  0  0  0  0  0  0  0  0  0  0  0
  1  2  1  0
  2  3  1  0
  3  4  1  0
  4  5  1  0
  5  6  2  0
  5 31  1  0
  6  7  1  0
  7  8  1  0
  8  9  2  3
  8 31  1  0
  9 10  1  0
 10 11  2  0
 10 15  1  0
 11 12  1  0
 12 13  2  0
 13 14  1  0
 14 15  2  0
 14 30  1  0
 15 16  1  0
 16 17  1  0
 17 18  1  0
 18 19  1  0
 18 30  1  0
 19 20  2  0
 19 29  1  0
 20 21  1  0
 21 22  2  0
 22 23  1  0
 22 27  1  0
 23 24  1  0
 24 25  1  6
 24 26  1  0
 27 28  1  0
 27 29  2  0
 31 32  1  0
 32 33  2  0
 32 37  1  0
 33 34  1  0
 34 35  2  0
 35 36  1  0
 36 37  2  0
M  CHG  1   3   1
M  END
