
     RDKit          3D

 37 41  0  0  0  0  0  0  0  0999 V2000
   10.5250    1.6600   -0.4530 C   0  0  0  0  0  0  0  0  0  0  0  0
    9.1190    1.1400   -0.4150 C   0  0  0  0  0  0  0  0  0  0  0  0
    8.3300    1.2630    0.7030 C   0  0  0  0  0  0  0  0  0  0  0  0
    7.0500    0.7860    0.7310 C   0  0  0  0  0  0  0  0  0  0  0  0
    6.1750    0.9080    1.9320 C   0  0  0  0  0  0  0  0  0  0  0  0
    6.4810    0.1460   -0.3890 C   0  0  0  0  0  0  0  0  0  0  0  0
    5.1690   -0.3320   -0.3320 N   0  0  0  0  0  0  0  0  0  0  0  0
    4.4980   -0.9780   -1.3620 C   0  0  0  0  0  0  0  0  0  0  0  0
    5.0240   -1.1940   -2.4620 O   0  0  0  0  0  0  0  0  0  0  0  0
    3.1040   -1.4480   -1.2000 C   0  0  0  0  0  0  0  0  0  0  0  0
    2.5010   -2.1590   -2.2150 C   0  0  0  0  0  0  0  0  0  0  0  0
    1.1990   -2.6140   -2.0990 C   0  0  0  0  0  0  0  0  0  0  0  0
    0.5150   -2.3520   -0.9700 N   0  0  0  0  0  0  0  0  0  0  0  0
    1.0440   -1.6660    0.0530 C   0  0  0  0  0  0  0  0  0  0  0  0
    0.2830   -1.4130    1.2260 N   0  0  0  0  0  0  0  0  0  0  0  0
    0.8780   -1.1370    2.4000 N   0  0  0  0  0  0  0  0  0  0  0  0
   -0.0560   -0.9410    3.3320 C   0  0  0  0  0  0  0  0  0  0  0  0
   -1.2470   -1.1030    2.7000 N   0  0  0  0  0  0  0  0  0  0  0  0
   -1.0350   -1.3930    1.4060 C   0  0  0  0  0  0  0  0  0  0  0  0
   -2.0730   -1.6390    0.3990 C   0  0  0  0  0  0  0  0  0  0  0  0
   -2.4880   -0.4710   -0.3210 N   0  0  2  0  0  0  0  0  0  0  0  0
   -2.4970    0.7380    0.4510 C   0  0  0  0  0  0  0  0  0  0  0  0
   -3.6010    1.6640   -0.0290 C   0  0  0  0  0  0  0  0  0  0  0  0
   -4.9220    1.0970    0.4580 C   0  0  1  0  0  0  0  0  0  0  0  0
   -6.0260    1.5100   -0.3620 N   0  0  0  0  0  0  0  0  0  0  0  0
   -7.3390    1.1280   -0.0080 C   0  0  0  0  0  0  0  0  0  0  0  0
   -7.5820    0.4460    1.1710 C   0  0  0  0  0  0  0  0  0  0  0  0
   -8.8440    0.0480    1.5540 C   0  0  0  0  0  0  0  0  0  0  0  0
   -9.9130    0.3320    0.7440 C   0  0  0  0  0  0  0  0  0  0  0  0
   -9.6870    1.0090   -0.4300 C   0  0  0  0  0  0  0  0  0  0  0  0
   -8.4320    1.4060   -0.8140 C   0  0  0  0  0  0  0  0  0  0  0  0
   -4.8140   -0.4220    0.2620 C   0  0  0  0  0  0  0  0  0  0  0  0
   -3.8270   -0.6540   -0.8480 C   0  0  0  0  0  0  0  0  0  0  0  0
    2.3490   -1.2180   -0.0790 C   0  0  0  0  0  0  0  0  0  0  0  0
    7.2610    0.0210   -1.5040 C   0  0  0  0  0  0  0  0  0  0  0  0
    8.5620    0.5170   -1.5020 C   0  0  0  0  0  0  0  0  0  0  0  0
    9.5330    0.3450   -2.9340 Cl  0  0  0  0  0  0  0  0  0  0  0  0
  1  2  1  0
  2  3  2  0
  2 36  1  0
  3  4  1  0
  4  5  1  0
  4  6  2  0
  6  7  1  0
  6 35  1  0
  7  8  1  0
  8  9  2  0
  8 10  1  0
 10 11  2  0
 10 34  1  0
 11 12  1  0
 12 13  2  0
 13 14  1  0
 14 15  1  0
 14 34  2  0
 15 16  1  0
 15 19  1  0
 16 17  2  0
 17 18  1  0
 18 19  2  0
 19 20  1  0
 21 20  1  1
 21 22  1  0
 21 33  1  0
 22 23  1  0
 23 24  1  0
 24 25  1  6
 24 32  1  0
 25 26  1  0
 26 27  2  0
 26 31  1  0
 27 28  1  0
 28 29  2  0
 29 30  1  0
 30 31  2  0
 32 33  1  0
 35 36  2  0
 36 37  1  0
M  CHG  1  21   1
M  END
