
     RDKit          3D

 32 34  0  0  0  0  0  0  0  0999 V2000
    5.0970   -1.8730    1.9940 C   0  0  0  0  0  0  0  0  0  0  0  0
    4.8560   -0.4240    2.2320 C   0  0  0  0  0  0  0  0  0  0  0  0
    4.9670    0.4020    1.0050 C   0  0  1  0  0  0  0  0  0  0  0  0
    6.2450    0.2890    0.4230 O   0  0  0  0  0  0  0  0  0  0  0  0
    3.9070    0.2540   -0.0210 C   0  0  2  0  0  0  0  0  0  0  0  0
    2.5690    0.5880    0.5500 C   0  0  0  0  0  0  0  0  0  0  0  0
    1.5360    0.4410   -0.3200 C   0  0  0  0  0  0  0  0  0  0  0  0
    0.2250    0.7290    0.1160 C   0  0  0  0  0  0  0  0  0  0  0  0
   -0.9830    0.6160   -0.4250 C   0  0  0  0  0  0  0  0  0  0  0  0
   -1.1630    0.0570   -1.7250 C   0  0  0  0  0  0  0  0  0  0  0  0
   -0.5690   -1.2660   -2.0130 C   0  0  0  0  0  0  0  0  0  0  0  0
   -0.6690   -1.7280   -3.1740 O   0  0  0  0  0  0  0  0  0  0  0  0
    0.0670   -2.0070   -1.0740 O   0  0  0  0  0  0  0  0  0  0  0  0
    0.6410   -3.2850   -1.2560 C   0  0  0  0  0  0  0  0  0  0  0  0
   -2.0540    0.5340   -2.6040 C   0  0  0  0  0  0  0  0  0  0  0  0
   -2.8640    1.6260   -2.0910 C   0  0  0  0  0  0  0  0  0  0  0  0
   -2.8270    2.1160   -0.8870 C   0  0  0  0  0  0  0  0  0  0  0  0
   -3.8410    3.4800   -0.3890 Cl  0  0  0  0  0  0  0  0  0  0  0  0
   -2.1410    1.3350    0.2140 C   0  0  2  0  0  0  0  0  0  0  0  0
   -1.7140    2.2670    1.2920 C   0  0  0  0  0  0  0  0  0  0  0  0
   -3.0810    0.3560    0.6780 N   0  0  0  0  0  0  0  0  0  0  0  0
   -4.3270    0.5030    1.3180 C   0  0  0  0  0  0  0  0  0  0  0  0
   -5.2520   -0.5450    1.1080 C   0  0  0  0  0  0  0  0  0  0  0  0
   -6.4770   -0.5120    1.7000 C   0  0  0  0  0  0  0  0  0  0  0  0
   -6.8550    0.5330    2.5140 C   0  0  0  0  0  0  0  0  0  0  0  0
   -8.4470    0.5110    3.2420 Cl  0  0  0  0  0  0  0  0  0  0  0  0
   -5.9820    1.5740    2.7440 C   0  0  0  0  0  0  0  0  0  0  0  0
   -4.7170    1.5360    2.1320 C   0  0  0  0  0  0  0  0  0  0  0  0
    1.9730    0.1890   -1.7290 C   0  0  0  0  0  0  0  0  0  0  0  0
    1.4310    0.8620   -2.6430 O   0  0  0  0  0  0  0  0  0  0  0  0
    3.0130   -0.8180   -2.0110 C   0  0  0  0  0  0  0  0  0  0  0  0
    3.7990   -1.0720   -0.7000 C   0  0  0  0  0  0  0  0  0  0  0  0
  1  2  1  0
  2  3  1  0
  3  4  1  6
  3  5  1  0
  5  6  1  0
  5 32  1  1
  6  7  2  0
  7  8  1  0
  7 29  1  0
  8  9  2  3
  9 10  1  0
  9 19  1  0
 10 11  1  0
 10 15  2  0
 11 12  2  0
 11 13  1  0
 13 14  1  0
 15 16  1  0
 16 17  2  0
 17 18  1  0
 17 19  1  0
 19 20  1  1
 19 21  1  0
 21 22  1  0
 22 23  2  0
 22 28  1  0
 23 24  1  0
 24 25  2  0
 25 26  1  0
 25 27  1  0
 27 28  2  0
 29 30  2  0
 29 31  1  0
 31 32  1  0
M  END
