
     RDKit          3D

 32 34  0  0  0  0  0  0  0  0999 V2000
   -7.3540    2.7090   -0.9990 C   0  0  0  0  0  0  0  0  0  0  0  0
   -5.8860    2.6270   -0.6400 C   0  0  0  0  0  0  0  0  0  0  0  0
   -5.5870    1.3180   -0.1910 O   0  0  0  0  0  0  0  0  0  0  0  0
   -4.3100    0.9640    0.2040 C   0  0  0  0  0  0  0  0  0  0  0  0
   -3.4260    1.8330    0.1530 O   0  0  0  0  0  0  0  0  0  0  0  0
   -3.9830   -0.3860    0.6720 C   0  0  0  0  0  0  0  0  0  0  0  0
   -4.8910   -1.3760    0.7560 C   0  0  0  0  0  0  0  0  0  0  0  0
   -6.3370   -1.2030    0.3790 C   0  0  0  0  0  0  0  0  0  0  0  0
   -4.2970   -2.5990    1.2560 C   0  0  0  0  0  0  0  0  0  0  0  0
   -5.1190   -4.1400    1.5240 Cl  0  0  0  0  0  0  0  0  0  0  0  0
   -3.0220   -2.3700    1.4810 C   0  0  0  0  0  0  0  0  0  0  0  0
   -1.9900   -3.3130    1.9990 C   0  0  0  0  0  0  0  0  0  0  0  0
   -2.7020   -0.9620    1.1260 C   0  0  1  0  0  0  0  0  0  0  0  0
   -1.7000   -0.9120    0.0370 C   0  0  0  0  0  0  0  0  0  0  0  0
   -1.6050   -1.8970   -0.7360 O   0  0  0  0  0  0  0  0  0  0  0  0
   -0.8780    0.2110   -0.1300 N   0  0  0  0  0  0  0  0  0  0  0  0
    0.0830    0.2360   -1.2110 C   0  0  1  0  0  0  0  0  0  0  0  0
   -0.2350    1.3420   -2.1930 C   0  0  0  0  0  0  0  0  0  0  0  0
    1.4760    0.3550   -0.7150 C   0  0  0  0  0  0  0  0  0  0  0  0
    1.8120    1.2520    0.2750 C   0  0  0  0  0  0  0  0  0  0  0  0
    3.1240    1.3570    0.7330 C   0  0  0  0  0  0  0  0  0  0  0  0
    4.1090    0.5540    0.1940 C   0  0  0  0  0  0  0  0  0  0  0  0
    3.7890   -0.3460   -0.7960 C   0  0  0  0  0  0  0  0  0  0  0  0
    2.4740   -0.4380   -1.2420 C   0  0  0  0  0  0  0  0  0  0  0  0
    4.8520   -1.1750   -1.3410 C   0  0  0  0  0  0  0  0  0  0  0  0
    4.5600   -2.2540   -1.9150 O   0  0  0  0  0  0  0  0  0  0  0  0
    6.2470   -0.6930   -1.1860 C   0  0  0  0  0  0  0  0  0  0  0  0
    6.4150   -0.3850    0.3070 C   0  0  2  0  0  0  0  0  0  0  0  0
    6.0240   -1.6450    1.0480 C   0  0  0  0  0  0  0  0  0  0  0  0
    5.4750    0.7010    0.7080 C   0  0  1  0  0  0  0  0  0  0  0  0
    6.1030    2.0270    0.3390 C   0  0  0  0  0  0  0  0  0  0  0  0
    7.7550    2.0240    1.0480 Cl  0  0  0  0  0  0  0  0  0  0  0  0
  1  2  1  0
  2  3  1  0
  3  4  1  0
  4  5  2  0
  4  6  1  0
  6  7  2  0
  6 13  1  0
  7  8  1  0
  7  9  1  0
  9 10  1  0
  9 11  2  0
 11 12  1  0
 11 13  1  0
 13 14  1  6
 14 15  2  0
 14 16  1  0
 16 17  1  0
 17 18  1  6
 17 19  1  0
 19 20  2  0
 19 24  1  0
 20 21  1  0
 21 22  2  0
 22 23  1  0
 22 30  1  0
 23 24  2  0
 23 25  1  0
 25 26  2  0
 25 27  1  0
 27 28  1  0
 28 29  1  1
 28 30  1  0
 30 31  1  6
 31 32  1  0
M  END
