
     RDKit          3D

 32 35  0  0  0  0  0  0  0  0999 V2000
   -3.7570   -4.4490    1.4520 C   0  0  0  0  0  0  0  0  0  0  0  0
   -4.2110   -3.0230    1.3730 C   0  0  0  0  0  0  0  0  0  0  0  0
   -3.1930   -1.9710    1.5200 C   0  0  0  0  0  0  0  0  0  0  0  0
   -2.0940   -1.8310    0.5470 C   0  0  2  0  0  0  0  0  0  0  0  0
   -1.2080   -3.0290    0.4480 C   0  0  0  0  0  0  0  0  0  0  0  0
   -0.0570   -2.7550   -0.5000 C   0  0  0  0  0  0  0  0  0  0  0  0
    0.3960   -1.4820   -0.5410 O   0  0  0  0  0  0  0  0  0  0  0  0
    0.1710   -0.7040    0.5530 C   0  0  2  0  0  0  0  0  0  0  0  0
    1.1610   -0.9980    1.6900 C   0  0  0  0  0  0  0  0  0  0  0  0
    2.5400   -0.7180    1.1450 C   0  0  0  0  0  0  0  0  0  0  0  0
    2.5690    0.6420    0.7600 O   0  0  0  0  0  0  0  0  0  0  0  0
    3.7110    1.1640    0.2280 C   0  0  0  0  0  0  0  0  0  0  0  0
    4.8310    0.3900    0.0630 C   0  0  0  0  0  0  0  0  0  0  0  0
    5.9910    0.9200   -0.4770 C   0  0  0  0  0  0  0  0  0  0  0  0
    6.0730    2.2420   -0.8700 C   0  0  0  0  0  0  0  0  0  0  0  0
    7.2230    2.7990   -1.4140 O   0  0  0  0  0  0  0  0  0  0  0  0
    8.3450    1.9460   -1.5580 C   0  0  0  0  0  0  0  0  0  0  0  0
    4.9330    3.0050   -0.6950 C   0  0  0  0  0  0  0  0  0  0  0  0
    3.7680    2.4820   -0.1560 C   0  0  0  0  0  0  0  0  0  0  0  0
    2.3650    3.5450    0.0260 Cl  0  0  0  0  0  0  0  0  0  0  0  0
   -1.2390   -0.6640    1.0250 C   0  0  1  0  0  0  0  0  0  0  0  0
   -1.9020    0.6760    0.7940 C   0  0  2  0  0  0  0  0  0  0  0  0
   -2.6050    1.1060    1.9180 O   0  0  0  0  0  0  0  0  0  0  0  0
   -2.6920    0.7560   -0.4350 C   0  0  0  0  0  0  0  0  0  0  0  0
   -2.7040    1.8830   -1.1260 C   0  0  0  0  0  0  0  0  0  0  0  0
   -3.4370    2.1270   -2.3690 C   0  0  0  0  0  0  0  0  0  0  0  0
   -3.4930    3.4110   -2.6430 C   0  0  0  0  0  0  0  0  0  0  0  0
   -4.2600    4.1810   -4.0170 Cl  0  0  0  0  0  0  0  0  0  0  0  0
   -2.7790    4.2020   -1.5810 C   0  0  0  0  0  0  0  0  0  0  0  0
   -1.9970    3.1330   -0.8170 C   0  0  0  0  0  0  0  0  0  0  0  0
   -3.4600   -0.4390   -0.8700 C   0  0  0  0  0  0  0  0  0  0  0  0
   -2.5630   -1.5600   -0.8090 N   0  0  0  0  0  0  0  0  0  0  0  0
  1  2  1  0
  2  3  1  0
  4  3  1  1
  4  5  1  0
  4 21  1  0
  4 32  1  0
  5  6  1  0
  6  7  1  0
  7  8  1  0
  8  9  1  1
 21  8  1  6
  9 10  1  0
 10 11  1  0
 11 12  1  0
 12 13  2  0
 12 19  1  0
 13 14  1  0
 14 15  2  0
 15 16  1  0
 15 18  1  0
 16 17  1  0
 18 19  2  0
 19 20  1  0
 21 22  1  0
 22 23  1  1
 22 24  1  0
 24 25  2  3
 24 31  1  0
 25 26  1  0
 25 30  1  0
 26 27  2  0
 27 28  1  0
 27 29  1  0
 29 30  1  0
 31 32  1  0
M  END
