
     RDKit          3D

 32 34  0  0  0  0  0  0  0  0999 V2000
    5.5470    1.8480    1.3220 C   0  0  0  0  0  0  0  0  0  0  0  0
    4.0930    1.8680    0.9160 C   0  0  0  0  0  0  0  0  0  0  0  0
    3.5680    0.5300    0.5250 C   0  0  1  0  0  0  0  0  0  0  0  0
    3.6560   -0.4940    1.6210 C   0  0  0  0  0  0  0  0  0  0  0  0
    3.1850   -1.8100    1.0190 C   0  0  2  0  0  0  0  0  0  0  0  0
    3.2550   -2.9080    2.0670 C   0  0  0  0  0  0  0  0  0  0  0  0
    4.0930   -2.1510    0.0420 O   0  0  0  0  0  0  0  0  0  0  0  0
    1.7770   -1.6650    0.5680 C   0  0  0  0  0  0  0  0  0  0  0  0
    1.5600   -0.6150   -0.4970 C   0  0  1  0  0  0  0  0  0  0  0  0
    2.0270   -1.0060   -1.8340 C   0  0  0  0  0  0  0  0  0  0  0  0
    0.9040   -1.4550   -2.7420 C   0  0  0  0  0  0  0  0  0  0  0  0
    0.0910   -0.1760   -2.9900 C   0  0  0  0  0  0  0  0  0  0  0  0
   -0.4560    0.2790   -1.6870 N   0  0  0  0  0  0  0  0  0  0  0  0
   -1.3960    1.3420   -1.7370 C   0  0  0  0  0  0  0  0  0  0  0  0
   -1.5580    1.8430   -2.9030 O   0  0  0  0  0  0  0  0  0  0  0  0
   -2.1820    1.9290   -0.6650 C   0  0  2  0  0  0  0  0  0  0  0  0
   -2.3020    1.2050    0.5170 O   0  0  0  0  0  0  0  0  0  0  0  0
   -2.8330   -0.0220    0.7710 C   0  0  0  0  0  0  0  0  0  0  0  0
   -3.3560   -0.9070   -0.1350 C   0  0  0  0  0  0  0  0  0  0  0  0
   -3.8790   -2.1450    0.2520 C   0  0  0  0  0  0  0  0  0  0  0  0
   -3.8840   -2.5180    1.5750 C   0  0  0  0  0  0  0  0  0  0  0  0
   -4.4380   -3.8320    2.0240 C   0  0  0  0  0  0  0  0  0  0  0  0
   -3.3550   -1.6210    2.4790 C   0  0  0  0  0  0  0  0  0  0  0  0
   -3.3720   -2.1320    4.1820 Cl  0  0  0  0  0  0  0  0  0  0  0  0
   -2.8370   -0.4030    2.1220 C   0  0  0  0  0  0  0  0  0  0  0  0
   -3.5610    2.3430   -1.0770 C   0  0  1  0  0  0  0  0  0  0  0  0
   -4.1610    3.0960   -0.0250 O   0  0  0  0  0  0  0  0  0  0  0  0
   -3.6770    3.1610   -2.3210 C   0  0  0  0  0  0  0  0  0  0  0  0
   -2.8970    4.4490   -2.1820 C   0  0  0  0  0  0  0  0  0  0  0  0
   -3.0500    5.3990   -3.6980 Cl  0  0  0  0  0  0  0  0  0  0  0  0
    0.0460   -0.3630   -0.5080 C   0  0  0  0  0  0  0  0  0  0  0  0
    2.1820    0.6750   -0.0240 C   0  0  0  0  0  0  0  0  0  0  0  0
  1  2  1  0
  3  2  1  1
  3  4  1  0
  3 32  1  0
  4  5  1  0
  5  6  1  1
  5  7  1  0
  5  8  1  0
  9  8  1  1
  9 10  1  0
  9 31  1  0
  9 32  1  0
 10 11  1  0
 11 12  1  0
 12 13  1  0
 13 14  1  0
 13 31  1  0
 14 15  2  0
 14 16  1  0
 16 17  1  1
 16 26  1  0
 17 18  1  0
 18 19  2  0
 18 25  1  0
 19 20  1  0
 20 21  2  0
 21 22  1  0
 21 23  1  0
 23 24  1  0
 23 25  2  0
 26 27  1  1
 26 28  1  0
 28 29  1  0
 29 30  1  0
M  END
