
     RDKit          3D

 31 33  0  0  0  0  0  0  0  0999 V2000
    6.7650   -1.0910   -0.1530 C   0  0  0  0  0  0  0  0  0  0  0  0
    5.7290   -2.0080    0.5570 C   0  0  0  0  0  0  0  0  0  0  0  0
    4.5680   -1.4800    0.5830 O   0  0  0  0  0  0  0  0  0  0  0  0
    3.3870   -0.9440    0.4010 C   0  0  0  0  0  0  0  0  0  0  0  0
    2.8410   -0.7160   -0.8720 C   0  0  0  0  0  0  0  0  0  0  0  0
    1.6180   -0.1560   -1.0810 C   0  0  0  0  0  0  0  0  0  0  0  0
    1.1330    0.0510   -2.3310 O   0  0  0  0  0  0  0  0  0  0  0  0
    1.6750   -0.2160   -3.5710 C   0  0  0  0  0  0  0  0  0  0  0  0
    0.8350    0.2260    0.0280 C   0  0  0  0  0  0  0  0  0  0  0  0
   -0.5600    0.6590   -0.2260 C   0  0  1  0  0  0  0  0  0  0  0  0
   -0.8800    2.0880   -0.0210 C   0  0  1  0  0  0  0  0  0  0  0  0
   -2.3030    2.4520   -0.2860 C   0  0  0  0  0  0  0  0  0  0  0  0
   -2.3180    3.8360   -0.8960 C   0  0  0  0  0  0  0  0  0  0  0  0
   -1.6290    4.7370    0.1080 C   0  0  0  0  0  0  0  0  0  0  0  0
   -1.3480    4.0760    1.4130 C   0  0  0  0  0  0  0  0  0  0  0  0
   -0.5740    2.7560    1.2880 C   0  0  2  0  0  0  0  0  0  0  0  0
    0.7630    3.0790    1.4170 O   0  0  0  0  0  0  0  0  0  0  0  0
   -1.3880   -0.1940   -0.9730 N   0  0  0  0  0  0  0  0  0  0  0  0
   -1.6990   -0.1000   -2.2960 C   0  0  0  0  0  0  0  0  0  0  0  0
   -3.1260   -0.3730   -2.7660 C   0  0  0  0  0  0  0  0  0  0  0  0
   -3.7130   -1.6330   -2.2150 C   0  0  0  0  0  0  0  0  0  0  0  0
   -2.6710   -2.1810   -1.2770 C   0  0  0  0  0  0  0  0  0  0  0  0
   -2.2590   -1.0970   -0.2530 C   0  0  1  0  0  0  0  0  0  0  0  0
   -1.7360   -1.8590    0.8670 C   0  0  0  0  0  0  0  0  0  0  0  0
   -2.7800   -2.6980    1.5620 C   0  0  0  0  0  0  0  0  0  0  0  0
   -2.1530   -3.4670    2.7280 C   0  0  0  0  0  0  0  0  0  0  0  0
   -0.8710   -4.5490    2.2250 Cl  0  0  0  0  0  0  0  0  0  0  0  0
    1.3880   -0.0060    1.2730 C   0  0  0  0  0  0  0  0  0  0  0  0
    0.6900    0.3300    2.4350 O   0  0  0  0  0  0  0  0  0  0  0  0
    2.6130   -0.5670    1.5080 C   0  0  0  0  0  0  0  0  0  0  0  0
    3.1410   -0.8240    2.8840 C   0  0  0  0  0  0  0  0  0  0  0  0
  1  2  1  0
  2  3  1  0
  3  4  1  0
  4  5  2  0
  4 30  1  0
  5  6  1  0
  6  7  1  0
  6  9  2  0
  7  8  1  0
  9 10  1  0
  9 28  1  0
 10 11  1  0
 10 18  1  6
 11 12  1  1
 11 16  1  0
 12 13  1  0
 13 14  1  0
 14 15  1  0
 15 16  1  0
 16 17  1  6
 18 19  1  0
 18 23  1  0
 19 20  1  0
 20 21  1  0
 21 22  1  0
 22 23  1  0
 23 24  1  1
 24 25  1  0
 25 26  1  0
 26 27  1  0
 28 29  1  0
 28 30  2  0
 30 31  1  0
M  END
