
     RDKit          3D

 10  9  0  0  0  0  0  0  0  0999 V2000
    3.8200    0.1150   -0.0960 N   0  0  0  0  0  0  0  0  0  0  0  0
    2.8280   -0.2970   -0.9120 O   0  0  0  0  0  0  0  0  0  0  0  0
    2.2640   -1.4090   -0.5280 O   0  0  0  0  0  0  0  0  0  0  0  0
    1.1300   -1.2640    0.0840 O   0  0  0  0  0  0  0  0  0  0  0  0
    0.7470    0.0440    0.3060 C   0  0  0  0  0  0  0  0  0  0  0  0
   -0.7280    0.2600    0.1330 C   0  0  0  0  0  0  0  0  0  0  0  0
   -1.5070   -0.3110    1.1190 O   0  0  0  0  0  0  0  0  0  0  0  0
   -3.1600   -0.0950    0.5900 P   0  0  0  0  0  0  0  0  0  0  0  0
   -3.2770    1.4270   -0.2580 O   0  0  0  0  0  0  0  0  0  0  0  0
   -3.4760   -1.3350   -0.6030 O   0  0  0  0  0  0  0  0  0  0  0  0
  1  2  1  0
  2  3  1  0
  3  4  1  0
  4  5  1  0
  5  6  1  0
  6  7  1  0
  7  8  1  0
  8  9  1  0
  8 10  1  0
M  END
