
     RDKit          3D

 10  9  0  0  0  0  0  0  0  0999 V2000
    3.6040    0.6290   -0.9540 N   0  0  0  0  0  0  0  0  0  0  0  0
    2.3380    0.5890   -0.3310 C   0  0  0  0  0  0  0  0  0  0  0  0
    1.9710    1.6160    0.3000 O   0  0  0  0  0  0  0  0  0  0  0  0
    1.4860   -0.4890   -0.3680 O   0  0  0  0  0  0  0  0  0  0  0  0
    0.3060   -0.4160    0.2600 O   0  0  0  0  0  0  0  0  0  0  0  0
   -0.4640   -1.5450    0.0760 C   0  0  0  0  0  0  0  0  0  0  0  0
   -1.6600   -1.3590    0.7700 O   0  0  0  0  0  0  0  0  0  0  0  0
   -2.5120   -0.0310    0.2320 P   0  0  0  0  0  0  0  0  0  0  0  0
   -1.7050    1.3740   -0.1610 O   0  0  0  0  0  0  0  0  0  0  0  0
   -4.1680    0.0340    0.5070 O   0  0  0  0  0  0  0  0  0  0  0  0
  1  2  1  0
  2  3  2  0
  2  4  1  0
  4  5  1  0
  5  6  1  0
  6  7  1  0
  7  8  1  0
  8  9  1  0
  8 10  1  0
M  END
