
     RDKit          3D

 10  9  0  0  0  0  0  0  0  0999 V2000
   -3.1500    1.0400    0.2950 C   0  0  0  0  0  0  0  0  0  0  0  0
   -2.4010   -0.1670    0.5220 O   0  0  0  0  0  0  0  0  0  0  0  0
   -1.1480   -0.2980   -0.0270 C   0  0  0  0  0  0  0  0  0  0  0  0
   -0.7100    0.6660   -0.7160 O   0  0  0  0  0  0  0  0  0  0  0  0
   -0.3040   -1.4190    0.1120 N   0  0  0  0  0  0  0  0  0  0  0  0
    0.9350   -1.5060   -0.4500 O   0  0  0  0  0  0  0  0  0  0  0  0
    1.8050   -1.5240    0.5270 O   0  0  0  0  0  0  0  0  0  0  0  0
    2.8560   -0.1760    0.5830 P   0  0  0  0  0  0  0  0  0  0  0  0
    4.1660   -0.2840   -0.5490 O   0  0  0  0  0  0  0  0  0  0  0  0
    2.0600    1.3440    0.5000 O   0  0  0  0  0  0  0  0  0  0  0  0
  1  2  1  0
  2  3  1  0
  3  4  2  0
  3  5  1  0
  5  6  1  0
  6  7  1  0
  7  8  1  0
  8  9  1  0
  8 10  1  0
M  END
