
     RDKit          3D

 10  9  0  0  0  0  0  0  0  0999 V2000
    2.1920   -0.9860    1.3690 O   0  0  0  0  0  0  0  0  0  0  0  0
    2.5750   -0.4860    0.2970 C   0  0  0  0  0  0  0  0  0  0  0  0
    3.9150   -0.4590   -0.0040 O   0  0  0  0  0  0  0  0  0  0  0  0
    1.6180    0.0460   -0.5880 O   0  0  0  0  0  0  0  0  0  0  0  0
    0.2620    0.0180   -0.2700 C   0  0  0  0  0  0  0  0  0  0  0  0
   -0.0370   -0.5070    0.8460 O   0  0  0  0  0  0  0  0  0  0  0  0
   -0.7380    0.5400   -1.1300 N   0  0  0  0  0  0  0  0  0  0  0  0
   -2.4570    0.4750   -0.6690 P   0  0  0  0  0  0  0  0  0  0  0  0
   -2.7900   -1.0600    0.0490 O   0  0  0  0  0  0  0  0  0  0  0  0
   -2.7620    1.7830    0.4340 O   0  0  0  0  0  0  0  0  0  0  0  0
  1  2  2  0
  2  3  1  0
  2  4  1  0
  4  5  1  0
  5  6  2  0
  5  7  1  0
  7  8  1  0
  8  9  1  0
  8 10  1  0
M  END
