
     RDKit          3D

  9  8  0  0  0  0  0  0  0  0999 V2000
    3.5510    0.0610    0.5440 N   0  0  0  0  0  0  0  0  0  0  0  0
    2.2340   -0.3460    0.2340 C   0  0  0  0  0  0  0  0  0  0  0  0
    1.9790   -1.5910    0.0940 O   0  0  0  0  0  0  0  0  0  0  0  0
    1.1970    0.5420    0.0740 O   0  0  0  0  0  0  0  0  0  0  0  0
   -0.0970    0.0530   -0.2360 C   0  0  0  0  0  0  0  0  0  0  0  0
   -1.0140    1.0900   -0.3600 O   0  0  0  0  0  0  0  0  0  0  0  0
   -2.5500    0.3710   -0.7380 P   0  0  0  0  0  0  0  0  0  0  0  0
   -2.5960   -1.2980   -0.2850 O   0  0  0  0  0  0  0  0  0  0  0  0
   -3.8610    1.2060    0.0050 O   0  0  0  0  0  0  0  0  0  0  0  0
  1  2  1  0
  2  3  2  0
  2  4  1  0
  4  5  1  0
  5  6  1  0
  6  7  1  0
  7  8  1  0
  7  9  1  0
M  END
