
     RDKit          3D

  9  8  0  0  0  0  0  0  0  0999 V2000
   -2.9470   -0.0100    0.3690 C   0  0  0  0  0  0  0  0  0  0  0  0
   -1.9350   -0.2740   -0.6570 N   0  0  0  0  0  0  0  0  0  0  0  0
   -0.5660    0.1090   -0.4550 C   0  0  0  0  0  0  0  0  0  0  0  0
   -0.2040    0.6780    0.6070 O   0  0  0  0  0  0  0  0  0  0  0  0
    0.4090   -0.1280   -1.4050 O   0  0  0  0  0  0  0  0  0  0  0  0
    1.6870    0.2000   -1.2790 O   0  0  0  0  0  0  0  0  0  0  0  0
    2.3060    0.0010    0.3100 P   0  0  0  0  0  0  0  0  0  0  0  0
    3.4960    1.2610    0.5730 O   0  0  0  0  0  0  0  0  0  0  0  0
    3.2120   -1.5040    0.3280 O   0  0  0  0  0  0  0  0  0  0  0  0
  1  2  1  0
  2  3  1  0
  3  4  2  0
  3  5  1  0
  5  6  1  0
  6  7  1  0
  7  8  1  0
  7  9  1  0
M  END
