
     RDKit          3D

  9  8  0  0  0  0  0  0  0  0999 V2000
   -3.9720    0.8110    1.0640 O   0  0  0  0  0  0  0  0  0  0  0  0
   -2.4560    0.5160    0.9480 P   0  0  0  0  0  0  0  0  0  0  0  0
   -1.8150   -0.7660    0.0070 O   0  0  0  0  0  0  0  0  0  0  0  0
   -1.0400   -0.3330   -1.0530 C   0  0  0  0  0  0  0  0  0  0  0  0
    0.1010    0.4490   -0.6530 N   0  0  0  0  0  0  0  0  0  0  0  0
    1.0750   -0.1290    0.1960 C   0  0  0  0  0  0  0  0  0  0  0  0
    0.9760   -1.3160    0.6180 O   0  0  0  0  0  0  0  0  0  0  0  0
    2.1880    0.5720    0.6120 O   0  0  0  0  0  0  0  0  0  0  0  0
    3.0990    0.0100    1.4150 O   0  0  0  0  0  0  0  0  0  0  0  0
  1  2  2  0
  2  3  1  0
  3  4  1  0
  4  5  1  0
  5  6  1  0
  6  7  2  0
  6  8  1  0
  8  9  1  0
M  END
