
     RDKit          3D

  9  8  0  0  0  0  0  0  0  0999 V2000
    3.2250   -1.1930    0.4810 O   0  0  0  0  0  0  0  0  0  0  0  0
    3.3040    0.3000    0.0320 P   0  0  0  0  0  0  0  0  0  0  0  0
    2.1550    0.8490   -1.1280 O   0  0  0  0  0  0  0  0  0  0  0  0
    0.9640    0.2800   -0.8440 N   0  0  0  0  0  0  0  0  0  0  0  0
    0.2200    0.8520    0.2200 C   0  0  0  0  0  0  0  0  0  0  0  0
    0.6420    1.8550    0.8880 O   0  0  0  0  0  0  0  0  0  0  0  0
   -1.0940    0.2650    0.5710 C   0  0  0  0  0  0  0  0  0  0  0  0
   -1.4180   -0.8120   -0.2460 O   0  0  0  0  0  0  0  0  0  0  0  0
   -2.5720   -1.3410    0.0530 O   0  0  0  0  0  0  0  0  0  0  0  0
  1  2  2  0
  2  3  1  0
  3  4  1  0
  4  5  1  0
  5  6  2  0
  5  7  1  0
  7  8  1  0
  8  9  1  0
M  END
