
     RDKit          3D

 12 12  0  0  0  0  0  0  0  0999 V2000
   -3.0400    0.1050    0.2670 C   0  0  0  0  0  0  0  0  0  0  0  0
   -1.7930   -0.0910   -0.1370 C   0  0  0  0  0  0  0  0  0  0  0  0
   -1.5330   -1.0400   -1.2700 C   0  0  0  0  0  0  0  0  0  0  0  0
   -3.0760   -1.6990   -1.8180 Cl  0  0  0  0  0  0  0  0  0  0  0  0
   -0.7160    0.6160    0.5260 C   0  0  0  0  0  0  0  0  0  0  0  0
   -0.9570    1.3990    1.4670 O   0  0  0  0  0  0  0  0  0  0  0  0
    0.6560    0.4230    0.1050 C   0  0  0  0  0  0  0  0  0  0  0  0
    0.9400   -0.3590   -0.8430 O   0  0  0  0  0  0  0  0  0  0  0  0
    2.0610    1.2900    0.9100 P   0  0  0  0  0  0  0  0  0  0  0  0
    3.3700    1.7520   -0.1800 O   0  0  0  0  0  0  0  0  0  0  0  0
    3.7240    0.6020    0.6620 C   0  0  0  0  0  0  0  0  0  0  0  0
    4.7270   -0.1570    0.8210 N   0  0  0  0  0  0  0  0  0  0  0  0
  1  2  2  0
  2  3  1  0
  2  5  1  0
  3  4  1  0
  5  6  2  0
  5  7  1  0
  7  8  2  0
  7  9  1  0
  9 10  1  0
  9 11  1  0
 10 11  1  0
 11 12  2  0
M  END
