
     RDKit          3D

 13 14  0  0  0  0  0  0  0  0999 V2000
    2.7910   -1.6670    0.5850 N   0  0  0  0  0  0  0  0  0  0  0  0
    2.6700   -0.3960    0.7350 C   0  0  0  0  0  0  0  0  0  0  0  0
    4.0310    0.5070    1.3250 Cl  0  0  0  0  0  0  0  0  0  0  0  0
    1.4020    0.2500    0.4060 C   0  0  0  0  0  0  0  0  0  0  0  0
    0.3570   -0.4690   -0.0510 C   0  0  0  0  0  0  0  0  0  0  0  0
    0.5460   -1.8160   -0.1890 O   0  0  0  0  0  0  0  0  0  0  0  0
   -0.3530   -2.7210   -0.4870 O   0  0  0  0  0  0  0  0  0  0  0  0
   -1.8940   -2.2060    0.1340 P   0  0  0  0  0  0  0  0  0  0  0  0
   -2.1150   -0.5080   -0.5940 C   0  0  0  0  0  0  0  0  0  0  0  0
   -0.8680    0.1740   -0.3640 N   0  0  0  0  0  0  0  0  0  0  0  0
   -0.8350    1.5980   -0.4500 C   0  0  0  0  0  0  0  0  0  0  0  0
    0.0430    2.2130    0.6370 C   0  0  0  0  0  0  0  0  0  0  0  0
    1.2930    1.5990    0.5710 O   0  0  0  0  0  0  0  0  0  0  0  0
  1  2  2  0
  2  3  1  0
  2  4  1  0
  4  5  2  0
  4 13  1  0
  5  6  1  0
  5 10  1  0
  6  7  1  0
  7  8  1  0
  8  9  1  0
  9 10  1  0
 10 11  1  0
 11 12  1  0
 12 13  1  0
M  END
