
     RDKit          3D

 13 13  0  0  0  0  0  0  0  0999 V2000
    3.3160    0.6800    1.0520 C   0  0  0  0  0  0  0  0  0  0  0  0
    2.1500    0.1920    0.6800 C   0  0  0  0  0  0  0  0  0  0  0  0
    2.0250   -0.4790   -0.6220 C   0  0  0  0  0  0  0  0  0  0  0  0
    1.0230    0.1980   -1.5260 C   0  0  2  0  0  0  0  0  0  0  0  0
    1.4590    1.8680   -1.8630 Cl  0  0  0  0  0  0  0  0  0  0  0  0
   -0.3520    0.1070   -0.9630 C   0  0  0  0  0  0  0  0  0  0  0  0
   -0.7080   -0.4670    0.1560 C   0  0  0  0  0  0  0  0  0  0  0  0
   -1.9880   -0.4130    0.4310 C   0  0  0  0  0  0  0  0  0  0  0  0
   -2.8980   -1.0690    1.8520 P   0  0  0  0  0  0  0  0  0  0  0  0
   -2.5780    0.2980   -0.6500 N   0  0  0  0  0  0  0  0  0  0  0  0
   -3.9440    0.6190   -0.8170 N   0  0  0  0  0  0  0  0  0  0  0  0
   -4.7580   -0.2750   -1.1370 O   0  0  0  0  0  0  0  0  0  0  0  0
   -1.5280    0.6060   -1.4990 O   0  0  0  0  0  0  0  0  0  0  0  0
  1  2  2  0
  2  3  1  0
  3  4  1  0
  4  5  1  1
  4  6  1  0
  6  7  2  0
  6 13  1  0
  7  8  2  0
  8  9  1  0
  8 10  1  0
 10 11  1  0
 10 13  1  0
 11 12  2  0
M  END
