
     RDKit          3D

 26 27  0  0  0  0  0  0  0  0999 V2000
    4.9410   -0.6830    0.2500 C   0  0  0  0  0  0  0  0  0  0  0  0
    4.0970    0.4780    0.7170 C   0  0  1  0  0  0  0  0  0  0  0  0
    4.3630    1.7390   -0.0830 C   0  0  0  0  0  0  0  0  0  0  0  0
    5.7250    2.0700   -0.0290 O   0  0  0  0  0  0  0  0  0  0  0  0
    5.9760    3.1480   -0.7070 O   0  0  0  0  0  0  0  0  0  0  0  0
    6.8610    2.9810   -1.6450 O   0  0  0  0  0  0  0  0  0  0  0  0
    2.6960    0.1540    0.6520 N   0  0  0  0  0  0  0  0  0  0  0  0
    1.9200    0.1960    1.8400 C   0  0  0  0  0  0  0  0  0  0  0  0
    2.4950    0.5190    2.9220 O   0  0  0  0  0  0  0  0  0  0  0  0
    0.5250   -0.1060    1.8860 N   0  0  0  0  0  0  0  0  0  0  0  0
   -0.1490   -0.0330    3.1280 C   0  0  0  0  0  0  0  0  0  0  0  0
    0.6540    0.3880    4.4880 S   0  0  0  0  0  0  0  0  0  0  0  0
   -1.5320   -0.3240    3.1920 N   0  0  0  0  0  0  0  0  0  0  0  0
   -2.2050   -0.6840    1.9400 C   0  0  0  0  0  0  0  0  0  0  0  0
   -2.2830    0.4830    1.0390 C   0  0  0  0  0  0  0  0  0  0  0  0
   -1.8030    1.5720    1.5110 O   0  0  0  0  0  0  0  0  0  0  0  0
   -2.8340    0.4490   -0.2580 N   0  0  0  0  0  0  0  0  0  0  0  0
   -2.9360    1.6350   -1.1330 C   0  0  0  0  0  0  0  0  0  0  0  0
   -2.5930    1.0540   -2.4810 C   0  0  0  0  0  0  0  0  0  0  0  0
   -3.2550   -0.2740   -2.4420 C   0  0  0  0  0  0  0  0  0  0  0  0
   -3.7020   -1.1170   -3.3530 C   0  0  0  0  0  0  0  0  0  0  0  0
   -4.2780   -2.2920   -2.9590 O   0  0  0  0  0  0  0  0  0  0  0  0
   -4.3980   -2.7190   -1.6380 C   0  0  1  0  0  0  0  0  0  0  0  0
   -3.6440   -3.9010   -1.4900 O   0  0  0  0  0  0  0  0  0  0  0  0
   -3.9100   -1.7600   -0.6320 C   0  0  0  0  0  0  0  0  0  0  0  0
   -3.3700   -0.6200   -1.0180 C   0  0  0  0  0  0  0  0  0  0  0  0
  2  1  1  6
  2  3  1  0
  2  7  1  0
  3  4  1  0
  4  5  1  0
  5  6  1  0
  7  8  1  0
  8  9  2  0
  8 10  1  0
 10 11  1  0
 11 12  2  0
 11 13  1  0
 13 14  1  0
 14 15  1  0
 15 16  2  0
 15 17  1  0
 17 18  1  0
 17 26  1  0
 18 19  1  0
 19 20  1  0
 20 21  2  0
 20 26  1  0
 21 22  1  0
 22 23  1  0
 23 24  1  6
 23 25  1  0
 25 26  2  0
M  END
