
     RDKit          3D

 22 24  0  0  0  0  0  0  0  0999 V2000
    7.1780    0.6790    1.5580 C   0  0  0  0  0  0  0  0  0  0  0  0
    5.6930    1.6150    1.1240 S   0  0  0  0  0  0  0  0  0  0  0  0
    4.4680    0.4900    0.4990 C   0  0  0  0  0  0  0  0  0  0  0  0
    3.2720    0.9370    0.1070 C   0  0  0  0  0  0  0  0  0  0  0  0
    2.2740    0.0180   -0.4040 C   0  0  0  0  0  0  0  0  0  0  0  0
    0.9890    0.3720   -0.5000 C   0  0  0  0  0  0  0  0  0  0  0  0
    0.0010   -0.5420   -1.0070 C   0  0  0  0  0  0  0  0  0  0  0  0
   -1.2700   -0.3960   -1.1990 C   0  0  0  0  0  0  0  0  0  0  0  0
   -2.0990    0.7610   -0.9700 C   0  0  0  0  0  0  0  0  0  0  0  0
   -1.4880    1.9720   -1.1590 N   0  0  0  0  0  0  0  0  0  0  0  0
   -2.1530    3.0990   -0.8840 C   0  0  0  0  0  0  0  0  0  0  0  0
   -3.4050    3.0710   -0.4300 N   0  0  0  0  0  0  0  0  0  0  0  0
   -4.0550    1.8600   -0.2300 C   0  0  0  0  0  0  0  0  0  0  0  0
   -5.4420    1.9130    0.2500 C   0  0  0  0  0  0  0  0  0  0  0  0
   -3.4050    0.6900   -0.4970 C   0  0  0  0  0  0  0  0  0  0  0  0
   -4.0490   -0.6250   -0.2650 C   0  0  0  0  0  0  0  0  0  0  0  0
   -5.1850   -0.9630    0.2300 C   0  0  0  0  0  0  0  0  0  0  0  0
   -4.9620   -2.3910    0.0740 C   0  0  0  0  0  0  0  0  0  0  0  0
   -3.6780   -2.0230   -0.5210 C   0  0  0  0  0  0  0  0  0  0  0  0
    2.6570   -1.3380   -0.8300 C   0  0  0  0  0  0  0  0  0  0  0  0
    4.1570   -1.5320   -0.8510 C   0  0  0  0  0  0  0  0  0  0  0  0
    4.7570   -0.9410    0.4070 C   0  0  0  0  0  0  0  0  0  0  0  0
  1  2  1  0
  2  3  1  0
  3  4  2  0
  3 22  1  0
  4  5  1  0
  5  6  2  3
  5 20  1  0
  6  7  1  0
  7  8  2  3
  8  9  1  0
  9 10  2  0
  9 15  1  0
 10 11  1  0
 11 12  2  0
 12 13  1  0
 13 14  1  0
 13 15  2  0
 15 16  1  0
 16 17  2  0
 16 19  1  0
 17 18  1  0
 18 19  1  0
 20 21  1  0
 21 22  1  0
M  CHG  1  10   1
M  END
