
     RDKit          3D

 22 24  0  0  0  0  0  0  0  0999 V2000
    7.2080    0.4060   -1.5410 C   0  0  0  0  0  0  0  0  0  0  0  0
    6.5690    1.1940   -0.6960 C   0  0  0  0  0  0  0  0  0  0  0  0
    5.3490    0.7600    0.0120 C   0  0  0  0  0  0  0  0  0  0  0  0
    4.7630    1.6050    0.8450 C   0  0  0  0  0  0  0  0  0  0  0  0
    3.5340    1.2610    1.6010 C   0  0  0  0  0  0  0  0  0  0  0  0
    3.4910   -0.2740    1.6440 C   0  0  0  0  0  0  0  0  0  0  0  0
    3.4560   -0.6660    0.2450 N   0  0  2  0  0  0  0  0  0  0  0  0
    2.8760   -1.9760    0.0600 C   0  0  0  0  0  0  0  0  0  0  0  0
    1.8570   -1.9820   -1.0270 C   0  0  0  0  0  0  0  0  0  0  0  0
    0.7160   -1.0900   -0.8230 C   0  0  0  0  0  0  0  0  0  0  0  0
    0.3840    0.1660   -1.1030 C   0  0  0  0  0  0  0  0  0  0  0  0
   -0.8050    0.6700   -0.7460 C   0  0  0  0  0  0  0  0  0  0  0  0
   -1.6790   -0.1480   -0.0800 C   0  0  0  0  0  0  0  0  0  0  0  0
   -3.0650    0.1410    0.4370 C   0  0  0  0  0  0  0  0  0  0  0  0
   -4.0390   -0.1850   -0.6730 C   0  0  0  0  0  0  0  0  0  0  0  0
   -5.4050    0.0220   -0.3720 N   0  0  0  0  0  0  0  0  0  0  0  0
   -5.9710   -0.8770    0.6100 C   0  0  0  0  0  0  0  0  0  0  0  0
   -7.3380   -0.2130    0.8360 C   0  0  0  0  0  0  0  0  0  0  0  0
   -6.8900    1.2270    1.0580 C   0  0  0  0  0  0  0  0  0  0  0  0
   -5.7780    1.3510    0.0110 C   0  0  0  0  0  0  0  0  0  0  0  0
   -0.8050   -1.6510    0.0430 S   0  0  0  0  0  0  0  0  0  0  0  0
    4.8260   -0.6130   -0.2430 C   0  0  0  0  0  0  0  0  0  0  0  0
  1  2  2  0
  2  3  1  0
  3  4  2  0
  3 22  1  0
  4  5  1  0
  5  6  1  0
  6  7  1  0
  7  8  1  1
  7 22  1  0
  8  9  1  0
  9 10  1  0
 10 11  2  0
 10 21  1  0
 11 12  1  0
 12 13  2  0
 13 14  1  0
 13 21  1  0
 14 15  1  0
 15 16  1  0
 16 17  1  0
 16 20  1  0
 17 18  1  0
 18 19  1  0
 19 20  1  0
M  CHG  1   7   1
M  END
