
     RDKit          3D

 13 14  0  0  0  0  0  0  0  0999 V2000
    1.8750    1.7740   -1.4990 O   0  0  0  0  0  0  0  0  0  0  0  0
    2.1780    0.7620   -0.8020 C   0  0  0  0  0  0  0  0  0  0  0  0
    3.4950    0.1790   -0.5720 C   0  0  0  0  0  0  0  0  0  0  0  0
    3.3100   -0.8640    0.2210 C   0  0  0  0  0  0  0  0  0  0  0  0
    1.8740   -0.9820    0.5230 C   0  0  0  0  0  0  0  0  0  0  0  0
    1.1920   -0.0260   -0.0770 C   0  0  0  0  0  0  0  0  0  0  0  0
   -0.2550    0.2250   -0.0440 C   0  0  0  0  0  0  0  0  0  0  0  0
   -1.1210   -0.5670    0.6660 C   0  0  0  0  0  0  0  0  0  0  0  0
   -2.4690   -0.3150    0.6840 C   0  0  0  0  0  0  0  0  0  0  0  0
   -3.3500   -1.1230    1.4080 O   0  0  0  0  0  0  0  0  0  0  0  0
   -2.9280    0.7600   -0.0360 C   0  0  0  0  0  0  0  0  0  0  0  0
   -2.0650    1.5550   -0.7490 C   0  0  0  0  0  0  0  0  0  0  0  0
   -0.7610    1.2580   -0.7260 N   0  0  0  0  0  0  0  0  0  0  0  0
  1  2  2  0
  2  3  1  0
  2  6  1  0
  3  4  2  0
  4  5  1  0
  5  6  2  0
  6  7  1  0
  7  8  2  0
  7 13  1  0
  8  9  1  0
  9 10  1  0
  9 11  2  0
 11 12  1  0
 12 13  2  0
M  END
