
     RDKit          3D

 22 24  0  0  0  0  0  0  0  0999 V2000
   -4.0750    1.0790    1.6600 C   0  0  0  0  0  0  0  0  0  0  0  0
   -3.6480    0.0260    0.6590 C   0  0  0  0  0  0  0  0  0  0  0  0
   -3.0540    0.7110   -0.5630 C   0  0  1  0  0  0  0  0  0  0  0  0
   -4.1940    1.5920   -1.1040 C   0  0  0  0  0  0  0  0  0  0  0  0
   -1.9510    1.6630   -0.2020 C   0  0  0  0  0  0  0  0  0  0  0  0
   -2.7270   -0.2540   -1.6490 C   0  0  0  0  0  0  0  0  0  0  0  0
   -1.7460   -1.3200   -1.3130 C   0  0  1  0  0  0  0  0  0  0  0  0
   -1.5860   -2.1730   -2.5820 C   0  0  0  0  0  0  0  0  0  0  0  0
   -0.4060   -0.8210   -1.0090 N   0  0  0  0  0  0  0  0  0  0  0  0
    0.3230    0.0460   -1.7070 C   0  0  0  0  0  0  0  0  0  0  0  0
    1.5210    0.2360   -1.0690 C   0  0  0  0  0  0  0  0  0  0  0  0
    1.5580   -0.5310    0.0690 C   0  0  0  0  0  0  0  0  0  0  0  0
    0.3260   -1.1740    0.0600 C   0  0  0  0  0  0  0  0  0  0  0  0
    0.2860   -2.0070    1.2340 C   0  0  0  0  0  0  0  0  0  0  0  0
    1.3880   -1.9020    1.9230 C   0  0  0  0  0  0  0  0  0  0  0  0
    2.3180   -0.9410    1.2420 C   0  0  0  0  0  0  0  0  0  0  0  0
    3.4800   -0.6280    1.6770 C   0  0  0  0  0  0  0  0  0  0  0  0
    4.5990    0.2260    1.2980 C   0  0  0  0  0  0  0  0  0  0  0  0
    4.7760    0.9880    0.3320 N   0  0  0  0  0  0  0  0  0  0  0  0
    5.9960    1.7470    0.1640 C   0  0  0  0  0  0  0  0  0  0  0  0
    7.1120    0.6250    1.1120 S   0  0  0  0  0  0  0  0  0  0  0  0
    5.7960    0.1920    2.2880 C   0  0  0  0  0  0  0  0  0  0  0  0
  1  2  1  0
  2  3  1  0
  3  4  1  6
  3  5  1  0
  3  6  1  0
  6  7  1  0
  7  8  1  6
  7  9  1  0
  9 10  1  0
  9 13  1  0
 10 11  2  0
 11 12  1  0
 12 13  2  0
 12 16  1  0
 13 14  1  0
 14 15  2  0
 15 16  1  0
 16 17  2  3
 17 18  1  0
 18 19  2  0
 18 22  1  0
 19 20  1  0
 20 21  1  0
 21 22  1  0
M  CHG  1  19   1
M  END
