
     RDKit          3D

 26 28  0  0  0  0  0  0  0  0999 V2000
    7.4070   -0.2260   -0.2120 O   0  0  0  0  0  0  0  0  0  0  0  0
    6.3430    0.3750    0.0590 C   0  0  0  0  0  0  0  0  0  0  0  0
    6.4020    1.6640    0.5100 O   0  0  0  0  0  0  0  0  0  0  0  0
    5.0460   -0.2990   -0.1060 C   0  0  0  0  0  0  0  0  0  0  0  0
    4.9800   -1.6030   -0.5620 C   0  0  0  0  0  0  0  0  0  0  0  0
    3.7810   -2.2640   -0.7280 C   0  0  0  0  0  0  0  0  0  0  0  0
    2.6220   -1.5750   -0.4210 C   0  0  0  0  0  0  0  0  0  0  0  0
    2.6880   -0.2740    0.0340 C   0  0  0  0  0  0  0  0  0  0  0  0
    3.8920    0.3790    0.1970 C   0  0  0  0  0  0  0  0  0  0  0  0
    1.3470    0.2510    0.2940 C   0  0  0  0  0  0  0  0  0  0  0  0
    1.0400    1.4060    0.7180 O   0  0  0  0  0  0  0  0  0  0  0  0
    0.4490   -0.8050   -0.0280 N   0  0  0  0  0  0  0  0  0  0  0  0
   -0.9980   -0.6830    0.0950 C   0  0  2  0  0  0  0  0  0  0  0  0
   -1.4930    0.3500   -0.8810 C   0  0  0  0  0  0  0  0  0  0  0  0
   -2.9360    0.5770   -0.8650 C   0  0  0  0  0  0  0  0  0  0  0  0
   -3.8310   -0.1320   -1.6440 C   0  0  0  0  0  0  0  0  0  0  0  0
   -5.1650    0.1520   -1.5650 C   0  0  0  0  0  0  0  0  0  0  0  0
   -5.6540    1.1240   -0.7320 C   0  0  0  0  0  0  0  0  0  0  0  0
   -7.0060    1.3920   -0.6690 O   0  0  0  0  0  0  0  0  0  0  0  0
   -4.7870    1.8510    0.0610 C   0  0  0  0  0  0  0  0  0  0  0  0
   -3.4540    1.5550   -0.0300 C   0  0  0  0  0  0  0  0  0  0  0  0
   -1.4130   -0.4450    1.4770 C   0  0  0  0  0  0  0  0  0  0  0  0
   -2.6230   -0.3350    1.7910 O   0  0  0  0  0  0  0  0  0  0  0  0
   -0.4720   -0.3330    2.5000 O   0  0  0  0  0  0  0  0  0  0  0  0
    1.1950   -1.9330   -0.4670 C   0  0  0  0  0  0  0  0  0  0  0  0
    0.7150   -3.0500   -0.8340 O   0  0  0  0  0  0  0  0  0  0  0  0
  1  2  2  0
  2  3  1  0
  2  4  1  0
  4  5  2  0
  4  9  1  0
  5  6  1  0
  6  7  2  0
  7  8  1  0
  7 25  1  0
  8  9  2  0
  8 10  1  0
 10 11  2  0
 10 12  1  0
 12 13  1  0
 12 25  1  0
 13 14  1  6
 13 22  1  0
 14 15  1  0
 15 16  2  0
 15 21  1  0
 16 17  1  0
 17 18  2  0
 18 19  1  0
 18 20  1  0
 20 21  2  0
 22 23  2  0
 22 24  1  0
 25 26  2  0
M  END
