
     RDKit          3D

 22 24  0  0  0  0  0  0  0  0999 V2000
   -3.1610   -2.3470   -0.4860 C   0  0  0  0  0  0  0  0  0  0  0  0
   -3.6770   -1.1440   -0.4480 C   0  0  0  0  0  0  0  0  0  0  0  0
   -3.4280   -0.2110    0.6370 C   0  0  0  0  0  0  0  0  0  0  0  0
   -3.9740    0.9930    0.6300 C   0  0  0  0  0  0  0  0  0  0  0  0
   -4.8450    1.3760   -0.5040 C   0  0  0  0  0  0  0  0  0  0  0  0
   -2.5560   -0.6120    1.7600 C   0  0  0  0  0  0  0  0  0  0  0  0
   -0.8880   -1.0410    1.2920 S   0  0  0  0  0  0  0  0  0  0  0  0
    0.0330    0.3770    0.6930 C   0  0  0  0  0  0  0  0  0  0  0  0
   -0.3560    1.6390    0.5920 N   0  0  0  0  0  0  0  0  0  0  0  0
    0.6270    2.4080    0.0930 C   0  0  0  0  0  0  0  0  0  0  0  0
    0.7080    3.7570   -0.1920 C   0  0  0  0  0  0  0  0  0  0  0  0
    1.8630    4.3040   -0.7080 C   0  0  0  0  0  0  0  0  0  0  0  0
    2.9290    3.4620   -0.9280 C   0  0  0  0  0  0  0  0  0  0  0  0
    2.8950    2.1130   -0.6600 C   0  0  0  0  0  0  0  0  0  0  0  0
    1.7310    1.5720   -0.1420 C   0  0  0  0  0  0  0  0  0  0  0  0
    1.3330    0.3530    0.2330 N   0  0  0  0  0  0  0  0  0  0  0  0
    2.0580   -0.8680    0.2060 C   0  0  2  0  0  0  0  0  0  0  0  0
    3.4470   -0.9120   -0.2840 C   0  0  0  0  0  0  0  0  0  0  0  0
    3.8580   -2.3790   -0.2350 C   0  0  0  0  0  0  0  0  0  0  0  0
    3.0240   -3.3830   -0.2680 C   0  0  0  0  0  0  0  0  0  0  0  0
    1.5650   -3.1850   -0.3600 C   0  0  0  0  0  0  0  0  0  0  0  0
    1.3070   -1.7710   -0.8040 C   0  0  0  0  0  0  0  0  0  0  0  0
  1  2  2  0
  2  3  1  0
  3  4  2  3
  3  6  1  0
  4  5  1  0
  6  7  1  0
  7  8  1  0
  8  9  2  0
  8 16  1  0
  9 10  1  0
 10 11  2  0
 10 15  1  0
 11 12  1  0
 12 13  2  0
 13 14  1  0
 14 15  2  0
 15 16  1  0
 17 16  1  6
 17 18  1  0
 17 22  1  0
 18 19  1  0
 19 20  2  0
 20 21  1  0
 21 22  1  0
M  CHG  1   9   1
M  END
