
     RDKit          3D

 21 22  0  0  0  0  0  0  0  0999 V2000
    5.1500   -0.5890   -1.4900 C   0  0  0  0  0  0  0  0  0  0  0  0
    4.7930    0.1450   -0.2570 C   0  0  0  0  0  0  0  0  0  0  0  0
    5.4110    1.5090   -0.0730 C   0  0  0  0  0  0  0  0  0  0  0  0
    3.9790   -0.3330    0.6600 C   0  0  0  0  0  0  0  0  0  0  0  0
    3.3470   -1.6690    0.5260 C   0  0  0  0  0  0  0  0  0  0  0  0
    1.8100   -1.5520    0.5380 C   0  0  0  0  0  0  0  0  0  0  0  0
    1.4300   -0.6960   -0.6060 C   0  0  0  0  0  0  0  0  0  0  0  0
    0.0030   -0.4420   -0.8430 C   0  0  0  0  0  0  0  0  0  0  0  0
   -0.8330    0.3060    0.1040 C   0  0  1  0  0  0  0  0  0  0  0  0
   -1.0120   -0.1820    1.4850 C   0  0  0  0  0  0  0  0  0  0  0  0
   -1.5430   -1.4980    1.6440 N   0  0  0  0  0  0  0  0  0  0  0  0
   -0.0730    1.6710    0.2860 C   0  0  0  0  0  0  0  0  0  0  0  0
   -1.1060    2.6050    0.8470 C   0  0  0  0  0  0  0  0  0  0  0  0
   -2.3250    2.2300    0.0310 C   0  0  0  0  0  0  0  0  0  0  0  0
   -2.1140    0.8520   -0.5020 C   0  0  1  0  0  0  0  0  0  0  0  0
   -1.9320    1.0310   -2.0260 C   0  0  0  0  0  0  0  0  0  0  0  0
   -3.2850   -0.0430   -0.3380 C   0  0  0  0  0  0  0  0  0  0  0  0
   -4.3740    0.2220    0.3430 C   0  0  0  0  0  0  0  0  0  0  0  0
   -5.3370   -0.9230    0.2820 C   0  0  0  0  0  0  0  0  0  0  0  0
   -4.6300   -1.8940   -0.5440 C   0  0  0  0  0  0  0  0  0  0  0  0
   -3.4710   -1.3820   -0.8870 C   0  0  0  0  0  0  0  0  0  0  0  0
  1  2  1  0
  2  3  1  0
  2  4  2  3
  4  5  1  0
  5  6  1  0
  6  7  1  0
  7  8  1  0
  9  8  1  6
  9 10  1  0
  9 12  1  0
  9 15  1  0
 10 11  1  0
 12 13  1  0
 13 14  1  0
 14 15  1  0
 15 16  1  6
 15 17  1  0
 17 18  2  0
 17 21  1  0
 18 19  1  0
 19 20  1  0
 20 21  2  0
M  CHG  1  11   1
M  END
