
     RDKit          3D

 21 22  0  0  0  0  0  0  0  0999 V2000
    2.7750    1.3440   -2.5330 C   0  0  0  0  0  0  0  0  0  0  0  0
    1.8350    1.9980   -1.9240 C   0  0  0  0  0  0  0  0  0  0  0  0
    1.4060    1.8550   -0.5730 C   0  0  0  0  0  0  0  0  0  0  0  0
    0.4050    2.7060   -0.1920 C   0  0  0  0  0  0  0  0  0  0  0  0
    1.8830    0.8690    0.4460 C   0  0  1  0  0  0  0  0  0  0  0  0
    3.3980    0.8260    0.4660 C   0  0  0  0  0  0  0  0  0  0  0  0
    1.5710    1.5630    1.8050 C   0  0  0  0  0  0  0  0  0  0  0  0
    1.2020   -0.4550    0.3760 C   0  0  2  0  0  0  0  0  0  0  0  0
   -0.2050   -0.3290    0.5170 N   0  0  0  0  0  0  0  0  0  0  0  0
   -0.9980   -0.2780   -0.6760 C   0  0  0  0  0  0  0  0  0  0  0  0
   -2.4360    0.0330   -0.3260 C   0  0  1  0  0  0  0  0  0  0  0  0
   -2.9720   -1.0560    0.5930 C   0  0  0  0  0  0  0  0  0  0  0  0
   -2.6920    1.4000    0.1890 C   0  0  0  0  0  0  0  0  0  0  0  0
   -4.2270    1.4410    0.1870 C   0  0  0  0  0  0  0  0  0  0  0  0
   -4.5960    0.6310   -1.0140 C   0  0  0  0  0  0  0  0  0  0  0  0
   -3.3240    0.0080   -1.5560 C   0  0  0  0  0  0  0  0  0  0  0  0
    1.6600   -1.1290    1.7050 C   0  0  0  0  0  0  0  0  0  0  0  0
    1.3870   -2.5830    1.7450 C   0  0  0  0  0  0  0  0  0  0  0  0
    2.1740   -3.2050    0.5800 C   0  0  0  0  0  0  0  0  0  0  0  0
    1.4190   -2.7530   -0.6540 C   0  0  0  0  0  0  0  0  0  0  0  0
    1.6580   -1.2490   -0.7830 C   0  0  0  0  0  0  0  0  0  0  0  0
  1  2  2  0
  2  3  1  0
  3  4  2  0
  3  5  1  0
  5  6  1  6
  5  7  1  0
  5  8  1  0
  8  9  1  1
  8 17  1  0
  8 21  1  0
  9 10  1  0
 10 11  1  0
 11 12  1  1
 11 13  1  0
 11 16  1  0
 13 14  1  0
 14 15  1  0
 15 16  1  0
 17 18  1  0
 18 19  1  0
 19 20  1  0
 20 21  1  0
M  CHG  1   9   1
M  END
