
     RDKit          3D

 21 21  0  0  0  0  0  0  0  0999 V2000
    5.7450   -1.0750    0.2600 C   0  0  0  0  0  0  0  0  0  0  0  0
    6.2120    0.2280   -0.3510 C   0  0  0  0  0  0  0  0  0  0  0  0
    5.8660    0.3030   -1.7820 C   0  0  0  0  0  0  0  0  0  0  0  0
    4.4860    0.1750   -2.2410 C   0  0  0  0  0  0  0  0  0  0  0  0
    3.4730    1.1620   -1.7840 C   0  0  0  0  0  0  0  0  0  0  0  0
    3.1680    1.2180   -0.3590 C   0  0  0  0  0  0  0  0  0  0  0  0
    1.9760    0.9750    0.1340 C   0  0  0  0  0  0  0  0  0  0  0  0
    0.8110    0.6210   -0.6450 C   0  0  0  0  0  0  0  0  0  0  0  0
   -0.3700    0.3920   -0.0300 C   0  0  0  0  0  0  0  0  0  0  0  0
   -1.5410    0.0400   -0.7860 C   0  0  0  0  0  0  0  0  0  0  0  0
   -2.7220   -0.2200   -0.2390 C   0  0  0  0  0  0  0  0  0  0  0  0
   -3.8370   -0.5630   -1.0660 C   0  0  2  0  0  0  0  0  0  0  0  0
   -4.5560   -1.8290   -0.8590 C   0  0  0  0  0  0  0  0  0  0  0  0
   -3.3740   -0.5570   -2.5420 C   0  0  0  0  0  0  0  0  0  0  0  0
   -4.8470    0.5810   -1.0180 C   0  0  0  0  0  0  0  0  0  0  0  0
   -2.7930   -0.1190    1.2100 C   0  0  0  0  0  0  0  0  0  0  0  0
   -4.0740   -0.4120    1.8340 C   0  0  0  0  0  0  0  0  0  0  0  0
   -1.7420    0.2150    1.9490 C   0  0  0  0  0  0  0  0  0  0  0  0
   -1.9170    0.2910    3.4240 C   0  0  0  0  0  0  0  0  0  0  0  0
   -1.5930    1.6670    3.7990 N   0  0  0  0  0  0  0  0  0  0  0  0
   -0.3980    0.5200    1.4280 C   0  0  0  0  0  0  0  0  0  0  0  0
  1  2  1  0
  2  3  1  0
  3  4  1  0
  4  5  1  0
  5  6  1  0
  6  7  2  3
  7  8  1  0
  8  9  2  3
  9 10  1  0
  9 21  1  0
 10 11  2  0
 11 12  1  0
 11 16  1  0
 12 13  1  1
 12 14  1  0
 12 15  1  0
 16 17  1  0
 16 18  2  0
 18 19  1  0
 18 21  1  0
 19 20  1  0
M  CHG  1  20   1
M  END
