
     RDKit          3D

 21 22  0  0  0  0  0  0  0  0999 V2000
    2.5930   -0.2670    2.8950 C   0  0  0  0  0  0  0  0  0  0  0  0
    2.8560   -0.7920    1.6820 C   0  0  0  0  0  0  0  0  0  0  0  0
    4.0500   -1.5950    1.5610 C   0  0  0  0  0  0  0  0  0  0  0  0
    4.5340   -2.2070    0.5290 C   0  0  0  0  0  0  0  0  0  0  0  0
    3.9840   -2.2440   -0.8190 C   0  0  0  0  0  0  0  0  0  0  0  0
    1.9480   -0.5060    0.5850 C   0  0  0  0  0  0  0  0  0  0  0  0
    0.8680    0.5410    0.8640 C   0  0  1  0  0  0  0  0  0  0  0  0
    1.5190    1.8290    1.1840 C   0  0  0  0  0  0  0  0  0  0  0  0
    1.4910    2.8120    0.0360 C   0  0  0  0  0  0  0  0  0  0  0  0
    0.0780    3.0980   -0.4030 C   0  0  1  0  0  0  0  0  0  0  0  0
   -0.5300    4.0530    0.6070 C   0  0  0  0  0  0  0  0  0  0  0  0
    0.2030    3.8850   -1.6960 C   0  0  0  0  0  0  0  0  0  0  0  0
   -0.7550    1.8650   -0.5610 C   0  0  0  0  0  0  0  0  0  0  0  0
   -0.0780    0.5780   -0.3050 C   0  0  2  0  0  0  0  0  0  0  0  0
   -1.1190   -0.4970   -0.0640 C   0  0  0  0  0  0  0  0  0  0  0  0
   -2.1370   -0.5630   -1.1770 C   0  0  0  0  0  0  0  0  0  0  0  0
   -3.0980   -1.6490   -0.8250 C   0  0  0  0  0  0  0  0  0  0  0  0
   -4.4040   -1.4720   -0.6510 C   0  0  0  0  0  0  0  0  0  0  0  0
   -5.0450   -2.7840   -0.3090 C   0  0  0  0  0  0  0  0  0  0  0  0
   -4.0010   -3.7400   -0.8930 C   0  0  0  0  0  0  0  0  0  0  0  0
   -2.7760   -3.0150   -0.6260 N   0  0  0  0  0  0  0  0  0  0  0  0
  1  2  2  0
  2  3  1  0
  2  6  1  0
  3  4  2  3
  4  5  1  0
  7  6  1  6
  7  8  1  0
  7 14  1  0
  8  9  1  0
  9 10  1  0
 10 11  1  1
 10 12  1  0
 10 13  1  0
 13 14  1  0
 14 15  1  1
 15 16  1  0
 16 17  1  0
 17 18  2  0
 17 21  1  0
 18 19  1  0
 19 20  1  0
 20 21  1  0
M  CHG  1  21   1
M  END
