
     RDKit          3D

 21 21  0  0  0  0  0  0  0  0999 V2000
    0.7460    4.7040    0.7640 C   0  0  0  0  0  0  0  0  0  0  0  0
    0.3240    3.5380    1.2110 C   0  0  0  0  0  0  0  0  0  0  0  0
   -0.4570    2.6570    0.3570 C   0  0  0  0  0  0  0  0  0  0  0  0
   -0.9310    1.4810    0.6620 C   0  0  0  0  0  0  0  0  0  0  0  0
   -0.6760    0.9150    1.9990 C   0  0  0  0  0  0  0  0  0  0  0  0
    0.7750    0.5860    2.1560 C   0  0  0  0  0  0  0  0  0  0  0  0
    1.1060   -0.8120    2.4780 C   0  0  0  0  0  0  0  0  0  0  0  0
    1.7300   -1.7070    1.7530 C   0  0  0  0  0  0  0  0  0  0  0  0
    1.9140   -3.0540    2.3660 C   0  0  0  0  0  0  0  0  0  0  0  0
    2.2620   -1.5050    0.3400 C   0  0  0  0  0  0  0  0  0  0  0  0
    2.8000   -1.0100   -0.6010 C   0  0  0  0  0  0  0  0  0  0  0  0
    3.4830    0.3860   -0.4370 C   0  0  0  0  0  0  0  0  0  0  0  0
    2.9640   -1.3300   -2.0960 C   0  0  0  0  0  0  0  0  0  0  0  0
    1.8000   -1.0880   -2.9580 C   0  0  0  0  0  0  0  0  0  0  0  0
    0.4350   -1.4240   -2.4730 C   0  0  0  0  0  0  0  0  0  0  0  0
   -0.3710   -0.2460   -2.0620 C   0  0  0  0  0  0  0  0  0  0  0  0
   -1.0230   -0.4510   -0.8020 N   0  0  0  0  0  0  0  0  0  0  0  0
   -1.7330    0.7500   -0.3710 C   0  0  1  0  0  0  0  0  0  0  0  0
   -3.0470    0.3990    0.2500 C   0  0  0  0  0  0  0  0  0  0  0  0
   -4.0070   -0.3200   -0.6540 C   0  0  0  0  0  0  0  0  0  0  0  0
   -5.2590   -0.6050    0.1790 C   0  0  0  0  0  0  0  0  0  0  0  0
  1  2  2  0
  2  3  1  0
  3  4  2  3
  4  5  1  0
  4 18  1  0
  5  6  1  0
  6  7  1  0
  7  8  2  0
  8  9  1  0
  8 10  1  0
 10 11  2  0
 11 12  1  0
 11 13  1  0
 13 14  1  0
 14 15  1  0
 15 16  1  0
 16 17  1  0
 17 18  1  0
 18 19  1  1
 19 20  1  0
 20 21  1  0
M  CHG  1  17   1
M  END
