
     RDKit          3D

 21 22  0  0  0  0  0  0  0  0999 V2000
    6.3060   -0.1400   -1.1400 C   0  0  0  0  0  0  0  0  0  0  0  0
    5.2430    0.3370   -0.5320 C   0  0  0  0  0  0  0  0  0  0  0  0
    5.2810    1.7500   -0.0660 C   0  0  0  0  0  0  0  0  0  0  0  0
    3.9800    2.2770    0.4220 C   0  0  0  0  0  0  0  0  0  0  0  0
    3.0120    1.2560    0.9190 C   0  0  0  0  0  0  0  0  0  0  0  0
    2.7910    0.2740   -0.2540 C   0  0  2  0  0  0  0  0  0  0  0  0
    1.5560   -0.4050   -0.1390 N   0  0  0  0  0  0  0  0  0  0  0  0
    0.5260    0.5160   -0.6760 C   0  0  0  0  0  0  0  0  0  0  0  0
   -0.8230    0.2100   -0.0310 C   0  0  0  0  0  0  0  0  0  0  0  0
   -0.8650    0.3740    1.4250 C   0  0  0  0  0  0  0  0  0  0  0  0
   -1.7870   -0.1680   -0.7750 C   0  0  0  0  0  0  0  0  0  0  0  0
   -3.1550   -0.5600   -0.7620 C   0  0  2  0  0  0  0  0  0  0  0  0
   -4.3750    0.2150   -0.8790 C   0  0  2  0  0  0  0  0  0  0  0  0
   -5.4800   -0.3310   -1.7480 C   0  0  0  0  0  0  0  0  0  0  0  0
   -4.4080    1.7210   -0.7630 C   0  0  0  0  0  0  0  0  0  0  0  0
   -4.1170   -0.5820    0.3800 C   0  0  2  0  0  0  0  0  0  0  0  0
   -4.0430    0.1630    1.6510 C   0  0  0  0  0  0  0  0  0  0  0  0
   -4.9900   -1.8630    0.5360 C   0  0  0  0  0  0  0  0  0  0  0  0
    4.0290   -0.5180   -0.3100 C   0  0  0  0  0  0  0  0  0  0  0  0
    4.2090   -1.7900   -0.1880 C   0  0  0  0  0  0  0  0  0  0  0  0
    3.2150   -2.8560    0.0340 C   0  0  0  0  0  0  0  0  0  0  0  0
  1  2  2  0
  2  3  1  0
  2 19  1  0
  3  4  1  0
  4  5  1  0
  5  6  1  0
  6  7  1  1
  6 19  1  0
  7  8  1  0
  8  9  1  0
  9 10  1  0
  9 11  2  3
 12 11  1  1
 12 13  1  0
 12 16  1  0
 13 14  1  6
 13 15  1  0
 13 16  1  0
 16 17  1  1
 16 18  1  0
 19 20  2  3
 20 21  1  0
M  CHG  1   7   1
M  END
