
     RDKit          3D

 21 21  0  0  0  0  0  0  0  0999 V2000
   -5.7510    0.1450   -2.1720 C   0  0  0  0  0  0  0  0  0  0  0  0
   -5.0860   -0.2170   -1.0980 C   0  0  0  0  0  0  0  0  0  0  0  0
   -5.2130   -1.6320   -0.6470 C   0  0  0  0  0  0  0  0  0  0  0  0
   -5.0170   -1.8040    0.8090 C   0  0  0  0  0  0  0  0  0  0  0  0
   -4.2860   -0.7650    1.5680 C   0  0  0  0  0  0  0  0  0  0  0  0
   -3.3290    0.0840    0.7070 C   0  0  1  0  0  0  0  0  0  0  0  0
   -2.3350   -0.7480    0.1300 N   0  0  0  0  0  0  0  0  0  0  0  0
   -0.9590   -0.2400    0.2670 C   0  0  1  0  0  0  0  0  0  0  0  0
   -0.6520   -0.0480    1.7310 C   0  0  0  0  0  0  0  0  0  0  0  0
   -0.0950   -1.2120   -0.4520 C   0  0  0  0  0  0  0  0  0  0  0  0
    1.3600   -0.9720   -0.5590 C   0  0  0  0  0  0  0  0  0  0  0  0
    2.1690   -0.8620    0.6690 C   0  0  0  0  0  0  0  0  0  0  0  0
    3.6570   -0.6920    0.3830 C   0  0  0  0  0  0  0  0  0  0  0  0
    3.9610    0.5270   -0.4140 C   0  0  0  0  0  0  0  0  0  0  0  0
    5.4400    0.6280   -0.6550 C   0  0  1  0  0  0  0  0  0  0  0  0
    6.2340    0.7120    0.6270 C   0  0  0  0  0  0  0  0  0  0  0  0
    5.9740   -0.5610   -1.4290 C   0  0  0  0  0  0  0  0  0  0  0  0
    5.7380    1.9200   -1.4260 C   0  0  0  0  0  0  0  0  0  0  0  0
   -4.2260    0.7040   -0.3360 C   0  0  0  0  0  0  0  0  0  0  0  0
   -4.2710    1.9720   -0.5660 C   0  0  0  0  0  0  0  0  0  0  0  0
   -3.3730    2.8740    0.2400 C   0  0  0  0  0  0  0  0  0  0  0  0
  1  2  2  0
  2  3  1  0
  2 19  1  0
  3  4  1  0
  4  5  1  0
  5  6  1  0
  6  7  1  6
  6 19  1  0
  7  8  1  0
  8  9  1  1
  8 10  1  0
 10 11  1  0
 11 12  1  0
 12 13  1  0
 13 14  1  0
 14 15  1  0
 15 16  1  1
 15 17  1  0
 15 18  1  0
 19 20  2  3
 20 21  1  0
M  CHG  1   7   1
M  END
