
     RDKit          3D

 21 22  0  0  0  0  0  0  0  0999 V2000
    6.0910    0.4180   -1.0040 C   0  0  0  0  0  0  0  0  0  0  0  0
    4.7500    1.2400   -1.1960 C   0  0  0  0  0  0  0  0  0  0  0  0
    4.0380    1.2760    0.0400 C   0  0  0  0  0  0  0  0  0  0  0  0
    2.8660    1.0200    0.5560 C   0  0  0  0  0  0  0  0  0  0  0  0
    2.7500    1.2800    2.0410 C   0  0  0  0  0  0  0  0  0  0  0  0
    1.6820    0.6370   -0.2030 C   0  0  0  0  0  0  0  0  0  0  0  0
    1.8540    0.9070   -1.6900 C   0  0  0  0  0  0  0  0  0  0  0  0
    0.5410    0.3210    0.3170 C   0  0  0  0  0  0  0  0  0  0  0  0
    0.4740    0.3870    1.7410 N   0  0  0  0  0  0  0  0  0  0  0  0
   -0.6140   -0.3600   -0.3250 C   0  0  0  0  0  0  0  0  0  0  0  0
   -1.7590   -0.5370    0.2880 C   0  0  0  0  0  0  0  0  0  0  0  0
   -2.0970   -0.0910    1.6400 C   0  0  0  0  0  0  0  0  0  0  0  0
   -3.1150    1.0570    1.4230 C   0  0  0  0  0  0  0  0  0  0  0  0
   -3.6040    1.6470    2.6910 C   0  0  0  0  0  0  0  0  0  0  0  0
   -2.8410   -1.4250   -0.2890 C   0  0  0  0  0  0  0  0  0  0  0  0
   -4.0560   -1.7360    0.1220 C   0  0  0  0  0  0  0  0  0  0  0  0
   -4.6550   -2.6570   -0.8750 C   0  0  0  0  0  0  0  0  0  0  0  0
   -3.6140   -2.8260   -1.9160 C   0  0  0  0  0  0  0  0  0  0  0  0
   -2.5740   -2.0930   -1.5310 C   0  0  0  0  0  0  0  0  0  0  0  0
   -1.2570   -1.9980   -2.1790 C   0  0  0  0  0  0  0  0  0  0  0  0
   -0.4760   -0.8110   -1.7440 C   0  0  0  0  0  0  0  0  0  0  0  0
  1  2  1  0
  2  3  1  0
  3  4  2  3
  4  5  1  0
  4  6  1  0
  6  7  1  0
  6  8  2  3
  8  9  1  0
  8 10  1  0
 10 11  2  0
 10 21  1  0
 11 12  1  0
 11 15  1  0
 12 13  1  0
 13 14  1  0
 15 16  2  0
 15 19  1  0
 16 17  1  0
 17 18  1  0
 18 19  2  0
 19 20  1  0
 20 21  1  0
M  END
