
     RDKit          3D

 10 10  0  0  0  0  0  0  0  0999 V2000
   -2.5100   -0.9790    0.6240 C   0  0  0  0  0  0  0  0  0  0  0  0
   -1.4080   -0.0530    0.2110 C   0  0  2  0  0  0  0  0  0  0  0  0
   -1.9440    1.0520   -0.4630 O   0  0  0  0  0  0  0  0  0  0  0  0
   -0.4480   -0.7830   -0.7390 C   0  0  0  0  0  0  0  0  0  0  0  0
    0.3830    0.1990   -1.2370 O   0  0  0  0  0  0  0  0  0  0  0  0
    1.0880    0.8730   -0.2920 C   0  0  2  0  0  0  0  0  0  0  0  0
    2.4850    0.2390   -0.2220 C   0  0  0  0  0  0  0  0  0  0  0  0
    2.4240   -1.0900    0.1160 O   0  0  0  0  0  0  0  0  0  0  0  0
    0.4760    1.0100    1.0440 C   0  0  0  0  0  0  0  0  0  0  0  0
   -0.6670    0.3250    1.2910 O   0  0  0  0  0  0  0  0  0  0  0  0
  2  1  1  1
  2  3  1  0
  2  4  1  0
  2 10  1  0
  4  5  1  0
  5  6  1  0
  6  7  1  1
  6  9  1  0
  7  8  1  0
  9 10  1  0
M  END
