
     RDKit          3D

 10 10  0  0  0  0  0  0  0  0999 V2000
   -2.4870   -0.8990    0.1640 C   0  0  0  0  0  0  0  0  0  0  0  0
   -1.1260   -0.2950    0.3670 C   0  0  1  0  0  0  0  0  0  0  0  0
   -0.1390   -0.9510   -0.3700 O   0  0  0  0  0  0  0  0  0  0  0  0
    1.0730   -0.4970    0.1430 C   0  0  1  0  0  0  0  0  0  0  0  0
    2.1770   -1.3450   -0.4300 C   0  0  0  0  0  0  0  0  0  0  0  0
    3.4240   -0.9270    0.0570 O   0  0  0  0  0  0  0  0  0  0  0  0
    1.3180    0.8230   -0.1330 O   0  0  0  0  0  0  0  0  0  0  0  0
    0.2990    1.6950    0.1510 C   0  0  0  0  0  0  0  0  0  0  0  0
   -1.0790    1.1540   -0.0970 C   0  0  1  0  0  0  0  0  0  0  0  0
   -1.4090    1.2230   -1.4530 O   0  0  0  0  0  0  0  0  0  0  0  0
  2  1  1  6
  2  3  1  0
  2  9  1  0
  3  4  1  0
  4  5  1  6
  4  7  1  0
  5  6  1  0
  7  8  1  0
  8  9  1  0
  9 10  1  6
M  END
