
     RDKit          3D

 10 10  0  0  0  0  0  0  0  0999 V2000
    2.3360   -0.3550   -1.1750 O   0  0  0  0  0  0  0  0  0  0  0  0
    1.9450   -0.4250    0.1360 C   0  0  0  0  0  0  0  0  0  0  0  0
    0.4530   -0.2970    0.3220 C   0  0  2  0  0  0  0  0  0  0  0  0
    0.0890   -0.3710    1.6620 O   0  0  0  0  0  0  0  0  0  0  0  0
   -0.2000   -1.4480   -0.4280 C   0  0  0  0  0  0  0  0  0  0  0  0
   -1.5390   -1.4880   -0.3290 O   0  0  0  0  0  0  0  0  0  0  0  0
   -2.2580   -0.3670   -0.1770 C   0  0  0  0  0  0  0  0  0  0  0  0
   -1.5880    0.9360   -0.1280 C   0  0  0  0  0  0  0  0  0  0  0  0
   -0.1080    0.9480   -0.2880 C   0  0  1  0  0  0  0  0  0  0  0  0
    0.4020    2.1100    0.2730 O   0  0  0  0  0  0  0  0  0  0  0  0
  1  2  1  0
  2  3  1  0
  3  4  1  1
  3  5  1  0
  3  9  1  0
  5  6  1  0
  6  7  1  0
  7  8  1  0
  8  9  1  0
  9 10  1  1
M  END
