
     RDKit          3D

  9  9  0  0  0  0  0  0  0  0999 V2000
    2.6100   -0.9180   -0.4600 O   0  0  0  0  0  0  0  0  0  0  0  0
    1.8740   -0.1920    0.4960 C   0  0  0  0  0  0  0  0  0  0  0  0
    0.6310    0.3340   -0.1790 C   0  0  1  0  0  0  0  0  0  0  0  0
    0.9510    1.1650   -1.2430 O   0  0  0  0  0  0  0  0  0  0  0  0
   -0.2370   -0.7830   -0.7200 C   0  0  0  0  0  0  0  0  0  0  0  0
   -1.5610   -0.0150   -0.8410 C   0  0  0  0  0  0  0  0  0  0  0  0
   -1.6670    0.4820    0.5850 C   0  0  1  0  0  0  0  0  0  0  0  0
   -1.9230   -0.6410    1.3800 O   0  0  0  0  0  0  0  0  0  0  0  0
   -0.2710    1.0110    0.8310 C   0  0  0  0  0  0  0  0  0  0  0  0
  1  2  1  0
  2  3  1  0
  3  4  1  6
  3  5  1  0
  3  9  1  0
  5  6  1  0
  6  7  1  0
  7  8  1  1
  7  9  1  0
M  END
