
     RDKit          3D

 26 29  0  0  0  0  0  0  0  0999 V2000
   -2.4930   -4.4570   -3.5410 N   0  0  0  0  0  0  0  0  0  0  0  0
   -2.7230   -3.5780   -2.7950 C   0  0  0  0  0  0  0  0  0  0  0  0
   -2.9850   -2.4920   -1.8920 C   0  0  0  0  0  0  0  0  0  0  0  0
   -4.2130   -1.9620   -1.5580 C   0  0  0  0  0  0  0  0  0  0  0  0
   -4.0050   -0.9640   -0.6850 N   0  0  0  0  0  0  0  0  0  0  0  0
   -2.7040   -0.8090   -0.4270 N   0  0  0  0  0  0  0  0  0  0  0  0
   -2.0280    0.0340    0.3760 C   0  0  0  0  0  0  0  0  0  0  0  0
   -2.6530    1.0350    1.1320 N   0  0  0  0  0  0  0  0  0  0  0  0
   -4.0110    1.3950    1.0930 C   0  0  0  0  0  0  0  0  0  0  0  0
   -4.7240    1.4800    2.2920 C   0  0  0  0  0  0  0  0  0  0  0  0
   -6.0330    1.8580    2.3490 C   0  0  0  0  0  0  0  0  0  0  0  0
   -6.6610    2.1660    1.1590 C   0  0  0  0  0  0  0  0  0  0  0  0
   -5.9990    2.0970   -0.0500 C   0  0  0  0  0  0  0  0  0  0  0  0
   -4.6520    1.7050   -0.0750 C   0  0  0  0  0  0  0  0  0  0  0  0
   -0.6700   -0.1250    0.3900 N   0  0  0  0  0  0  0  0  0  0  0  0
   -0.0230   -1.0450   -0.3320 C   0  0  0  0  0  0  0  0  0  0  0  0
    1.4120   -1.1480   -0.2620 N   0  0  0  0  0  0  0  0  0  0  0  0
    2.1900   -0.2720    0.5820 C   0  0  0  0  0  0  0  0  0  0  0  0
    3.6710   -0.5720    0.4870 C   0  0  2  0  0  0  0  0  0  0  0  0
    4.3780    0.3940    1.4010 C   0  0  0  0  0  0  0  0  0  0  0  0
    5.8720    0.4120    1.1750 C   0  0  0  0  0  0  0  0  0  0  0  0
    6.0970    0.8620   -0.2550 C   0  0  0  0  0  0  0  0  0  0  0  0
    5.5560   -0.2360   -1.1400 C   0  0  0  0  0  0  0  0  0  0  0  0
    4.0840   -0.4730   -0.9370 C   0  0  0  0  0  0  0  0  0  0  0  0
   -0.7180   -1.8740   -1.1270 N   0  0  0  0  0  0  0  0  0  0  0  0
   -2.0590   -1.7460   -1.1650 C   0  0  0  0  0  0  0  0  0  0  0  0
  1  2  3  0
  2  3  1  0
  3  4  1  0
  3 26  2  0
  4  5  2  0
  5  6  1  0
  6  7  1  0
  6 26  1  0
  7  8  1  0
  7 15  2  0
  8  9  1  0
  9 10  2  0
  9 14  1  0
 10 11  1  0
 11 12  2  0
 12 13  1  0
 13 14  2  0
 15 16  1  0
 16 17  1  0
 16 25  2  0
 17 18  1  0
 19 18  1  6
 19 20  1  0
 19 24  1  0
 20 21  1  0
 21 22  1  0
 22 23  1  0
 23 24  1  0
 25 26  1  0
M  END
