
     RDKit          3D

 10 10  0  0  0  0  0  0  0  0999 V2000
    2.3240    0.5330   -0.7730 O   0  0  0  0  0  0  0  0  0  0  0  0
    2.4250   -0.4760    0.1780 C   0  0  0  0  0  0  0  0  0  0  0  0
    1.0550   -0.7750    0.7110 C   0  0  2  0  0  0  0  0  0  0  0  0
    0.1370   -1.3630   -0.3430 C   0  0  0  0  0  0  0  0  0  0  0  0
   -1.0890   -1.5700    0.2390 O   0  0  0  0  0  0  0  0  0  0  0  0
   -2.0200   -0.6000   -0.0430 C   0  0  0  0  0  0  0  0  0  0  0  0
   -1.7210    0.7420    0.5480 C   0  0  2  0  0  0  0  0  0  0  0  0
   -2.4520    1.6910   -0.1890 O   0  0  0  0  0  0  0  0  0  0  0  0
   -0.2650    1.1140    0.4750 C   0  0  0  0  0  0  0  0  0  0  0  0
    0.4960    0.3300    1.2930 O   0  0  0  0  0  0  0  0  0  0  0  0
  1  2  1  0
  3  2  1  6
  3  4  1  0
  3 10  1  0
  4  5  1  0
  5  6  1  0
  6  7  1  0
  7  8  1  6
  7  9  1  0
  9 10  1  0
M  END
