
     RDKit          3D

 10 10  0  0  0  0  0  0  0  0999 V2000
    2.9370   -0.8840    0.4910 O   0  0  0  0  0  0  0  0  0  0  0  0
    2.0470    0.1800    0.6120 C   0  0  0  0  0  0  0  0  0  0  0  0
    0.7370   -0.1130   -0.0870 C   0  0  1  0  0  0  0  0  0  0  0  0
    0.9520   -0.3430   -1.4490 O   0  0  0  0  0  0  0  0  0  0  0  0
    0.0200   -1.2850    0.5320 C   0  0  0  0  0  0  0  0  0  0  0  0
   -1.3030   -0.9820    0.8270 O   0  0  0  0  0  0  0  0  0  0  0  0
   -1.9910   -0.4370   -0.2420 C   0  0  0  0  0  0  0  0  0  0  0  0
   -1.4680    0.9330   -0.6350 C   0  0  1  0  0  0  0  0  0  0  0  0
   -2.3330    1.9380   -0.2080 O   0  0  0  0  0  0  0  0  0  0  0  0
   -0.1500    1.1070    0.1270 C   0  0  0  0  0  0  0  0  0  0  0  0
  1  2  1  0
  2  3  1  0
  3  4  1  6
  3  5  1  0
  3 10  1  0
  5  6  1  0
  6  7  1  0
  7  8  1  0
  8  9  1  1
  8 10  1  0
M  END
