
     RDKit          3D

 10 10  0  0  0  0  0  0  0  0999 V2000
    2.8910    0.6060    0.1910 C   0  0  0  0  0  0  0  0  0  0  0  0
    1.5220    0.4790    0.4600 O   0  0  0  0  0  0  0  0  0  0  0  0
    1.0320   -0.4420   -0.4860 C   0  0  0  0  0  0  0  0  0  0  0  0
   -0.4290   -0.6120   -0.2400 C   0  0  1  0  0  0  0  0  0  0  0  0
   -0.9870   -1.5140   -1.1410 O   0  0  0  0  0  0  0  0  0  0  0  0
   -0.7740   -0.9950    1.1650 C   0  0  0  0  0  0  0  0  0  0  0  0
   -1.7730   -0.1720    1.6140 O   0  0  0  0  0  0  0  0  0  0  0  0
   -2.2830    0.5420    0.5590 C   0  0  0  0  0  0  0  0  0  0  0  0
   -1.0820    0.7550   -0.3380 C   0  0  2  0  0  0  0  0  0  0  0  0
   -1.4070    1.1130   -1.6180 O   0  0  0  0  0  0  0  0  0  0  0  0
  1  2  1  0
  2  3  1  0
  3  4  1  0
  4  5  1  6
  4  6  1  0
  4  9  1  0
  6  7  1  0
  7  8  1  0
  8  9  1  0
  9 10  1  6
M  END
