
     RDKit          3D

 24 26  0  0  0  0  0  0  0  0999 V2000
    3.4630    2.2900    2.1260 C   0  0  0  0  0  0  0  0  0  0  0  0
    2.4770    1.3370    1.7130 N   0  0  0  0  0  0  0  0  0  0  0  0
    2.4930    1.0740    0.2770 C   0  0  2  0  0  0  0  0  0  0  0  0
    1.6110   -0.1090    0.0860 C   0  0  2  0  0  0  0  0  0  0  0  0
    1.4050   -0.6310   -1.2590 C   0  0  0  0  0  0  0  0  0  0  0  0
   -0.0160   -0.4420   -1.7840 C   0  0  0  0  0  0  0  0  0  0  0  0
   -0.9620   -0.9560   -0.9640 O   0  0  0  0  0  0  0  0  0  0  0  0
   -0.7950   -0.8320    0.3790 C   0  0  2  0  0  0  0  0  0  0  0  0
   -0.4650   -2.1090    1.0920 C   0  0  0  0  0  0  0  0  0  0  0  0
   -1.3860   -3.1310    0.9480 O   0  0  0  0  0  0  0  0  0  0  0  0
   -2.0600   -0.2500    0.9440 C   0  0  0  0  0  0  0  0  0  0  0  0
   -3.3100   -1.0180    0.7340 C   0  0  1  0  0  0  0  0  0  0  0  0
   -4.4280   -0.1840    1.4090 C   0  0  0  0  0  0  0  0  0  0  0  0
   -4.5230    0.9890    0.4680 C   0  0  0  0  0  0  0  0  0  0  0  0
   -4.0990    0.4640   -0.8870 C   0  0  2  0  0  0  0  0  0  0  0  0
   -5.2310    0.6960   -1.8540 C   0  0  0  0  0  0  0  0  0  0  0  0
   -5.4500    2.0920   -1.8810 O   0  0  0  0  0  0  0  0  0  0  0  0
   -3.8290   -1.0120   -0.6850 C   0  0  0  0  0  0  0  0  0  0  0  0
    0.2820    0.2050    0.7280 C   0  0  0  0  0  0  0  0  0  0  0  0
    3.8920    0.9750   -0.1930 C   0  0  1  0  0  0  0  0  0  0  0  0
    4.7480    0.0080    0.5870 C   0  0  0  0  0  0  0  0  0  0  0  0
    4.9960   -1.1200   -0.4290 C   0  0  0  0  0  0  0  0  0  0  0  0
    4.9720   -0.3010   -1.7060 C   0  0  0  0  0  0  0  0  0  0  0  0
    4.0970    0.7340   -1.5210 O   0  0  0  0  0  0  0  0  0  0  0  0
  1  2  1  0
  3  2  1  1
  3  4  1  0
  3 20  1  0
  4  5  1  6
  4 19  1  0
  5  6  1  0
  6  7  1  0
  7  8  1  0
  8  9  1  1
  8 11  1  0
  8 19  1  0
  9 10  1  0
 12 11  1  6
 12 13  1  0
 12 18  1  0
 13 14  1  0
 14 15  1  0
 15 16  1  6
 15 18  1  0
 16 17  1  0
 20 21  1  1
 20 24  1  0
 21 22  1  0
 22 23  1  0
 23 24  1  0
M  CHG  1   2   1
M  END
