
     RDKit          3D

 24 27  0  0  0  0  0  0  0  0999 V2000
   -3.1920    3.6520   -0.5860 C   0  0  0  0  0  0  0  0  0  0  0  0
   -2.9550    2.3580    0.1380 C   0  0  1  0  0  0  0  0  0  0  0  0
   -4.1790    1.5230    0.3030 C   0  0  0  0  0  0  0  0  0  0  0  0
   -3.8370    0.4230    1.3090 C   0  0  0  0  0  0  0  0  0  0  0  0
   -2.6880   -0.4050    0.7990 C   0  0  1  0  0  0  0  0  0  0  0  0
   -3.0750   -0.9510   -0.4210 O   0  0  0  0  0  0  0  0  0  0  0  0
   -2.2220   -1.9630   -0.7530 C   0  0  1  0  0  0  0  0  0  0  0  0
   -2.8110   -3.2530   -0.1630 C   0  0  0  0  0  0  0  0  0  0  0  0
   -2.3270   -2.1540   -2.2750 C   0  0  0  0  0  0  0  0  0  0  0  0
   -0.8080   -1.8140   -0.3610 C   0  0  0  0  0  0  0  0  0  0  0  0
   -0.3540   -0.4360    0.0170 C   0  0  2  0  0  0  0  0  0  0  0  0
    0.2690    0.1480   -1.1550 N   0  0  0  0  0  0  0  0  0  0  0  0
    0.6180   -0.5400    1.1270 C   0  0  0  0  0  0  0  0  0  0  0  0
    0.1630   -1.0170    2.1790 O   0  0  0  0  0  0  0  0  0  0  0  0
    2.0210   -0.1600    1.1480 C   0  0  1  0  0  0  0  0  0  0  0  0
    2.8330   -1.4440    1.3900 C   0  0  0  0  0  0  0  0  0  0  0  0
    4.2260   -0.8990    1.0360 C   0  0  0  0  0  0  0  0  0  0  0  0
    3.8730    0.0070   -0.1020 C   0  0  2  0  0  0  0  0  0  0  0  0
    4.8080    1.1590   -0.2930 C   0  0  2  0  0  0  0  0  0  0  0  0
    6.2560    0.8270   -0.5750 C   0  0  0  0  0  0  0  0  0  0  0  0
    5.8430    1.5520    0.6620 C   0  0  0  0  0  0  0  0  0  0  0  0
    2.5580    0.3630    0.0140 O   0  0  0  0  0  0  0  0  0  0  0  0
   -1.4680    0.4630    0.4750 C   0  0  1  0  0  0  0  0  0  0  0  0
   -1.8530    1.5270   -0.5210 C   0  0  0  0  0  0  0  0  0  0  0  0
  2  1  1  6
  2  3  1  0
  2 24  1  0
  3  4  1  0
  5  4  1  6
  5  6  1  0
  5 23  1  0
  6  7  1  0
  7  8  1  1
  7  9  1  0
  7 10  1  0
 10 11  1  0
 11 12  1  6
 11 13  1  0
 11 23  1  0
 13 14  2  0
 15 13  1  6
 15 16  1  0
 15 22  1  0
 16 17  1  0
 18 17  1  1
 18 19  1  0
 18 22  1  0
 19 20  1  6
 19 21  1  0
 20 21  1  0
 23 24  1  6
M  CHG  1  12   1
M  END
