
     RDKit          3D

 25 27  0  0  0  0  0  0  0  0999 V2000
    1.8520    2.7110    0.7190 C   0  0  0  0  0  0  0  0  0  0  0  0
    2.3170    1.3820    0.2590 C   0  0  1  0  0  0  0  0  0  0  0  0
    2.5670    0.3940    1.3910 C   0  0  0  0  0  0  0  0  0  0  0  0
    3.2960   -0.7690    0.7750 C   0  0  2  0  0  0  0  0  0  0  0  0
    2.8170   -2.0750    1.4240 C   0  0  0  0  0  0  0  0  0  0  0  0
    4.7560   -0.6400    1.2610 C   0  0  0  0  0  0  0  0  0  0  0  0
    3.3580   -0.8180   -0.5630 O   0  0  0  0  0  0  0  0  0  0  0  0
    2.3580   -0.4090   -1.3560 C   0  0  2  0  0  0  0  0  0  0  0  0
    1.5160   -1.5470   -1.8820 C   0  0  0  0  0  0  0  0  0  0  0  0
    3.0360    0.1780   -2.6130 C   0  0  0  0  0  0  0  0  0  0  0  0
    1.5080    0.7260   -0.8090 C   0  0  2  0  0  0  0  0  0  0  0  0
    1.2260    1.6790   -1.7850 O   0  0  0  0  0  0  0  0  0  0  0  0
    0.2130    0.1290   -0.3490 C   0  0  0  0  0  0  0  0  0  0  0  0
   -0.7200    1.0380    0.2160 N   0  0  0  0  0  0  0  0  0  0  0  0
   -2.0820    0.8440   -0.0720 C   0  0  1  0  0  0  0  0  0  0  0  0
   -2.4050    0.4530   -1.4900 C   0  0  0  0  0  0  0  0  0  0  0  0
   -3.8570    0.6980   -1.7840 C   0  0  0  0  0  0  0  0  0  0  0  0
   -4.7800    0.6100   -0.6190 C   0  0  0  0  0  0  0  0  0  0  0  0
   -4.2420   -0.2210    0.5120 C   0  0  0  0  0  0  0  0  0  0  0  0
   -5.0100   -1.0220    1.2100 C   0  0  0  0  0  0  0  0  0  0  0  0
   -6.3650   -1.0820    0.8690 O   0  0  0  0  0  0  0  0  0  0  0  0
   -4.4680   -1.7590    2.2330 O   0  0  0  0  0  0  0  0  0  0  0  0
   -3.1310   -1.7030    2.5830 C   0  0  0  0  0  0  0  0  0  0  0  0
   -2.2900   -0.7920    1.7750 C   0  0  0  0  0  0  0  0  0  0  0  0
   -2.8180   -0.0890    0.7940 C   0  0  0  0  0  0  0  0  0  0  0  0
  2  1  1  1
  2  3  1  0
  2 11  1  0
  3  4  1  0
  4  5  1  1
  4  6  1  0
  4  7  1  0
  7  8  1  0
  8  9  1  6
  8 10  1  0
  8 11  1  0
 11 12  1  6
 11 13  1  0
 13 14  1  0
 15 14  1  6
 15 16  1  0
 15 25  1  0
 16 17  1  0
 17 18  1  0
 18 19  1  0
 19 20  2  0
 19 25  1  0
 20 21  1  0
 20 22  1  0
 22 23  1  0
 23 24  1  0
 24 25  2  0
M  CHG  1  14   1
M  END
