
     RDKit          3D

 25 28  0  0  0  0  0  0  0  0999 V2000
   -0.8670   -1.2130   -0.1000 O   0  0  0  0  0  0  0  0  0  0  0  0
   -0.8110   -0.5540    1.1040 C   0  0  1  0  0  0  0  0  0  0  0  0
    0.5370    0.1420    1.1630 C   0  0  0  0  0  0  0  0  0  0  0  0
    1.6180   -0.8190    1.0710 N   0  0  0  0  0  0  0  0  0  0  0  0
    2.6890   -0.2650    0.2990 C   0  0  2  0  0  0  0  0  0  0  0  0
    2.6710   -0.8720   -1.0820 C   0  0  0  0  0  0  0  0  0  0  0  0
    4.0630   -1.2530   -1.4860 C   0  0  0  0  0  0  0  0  0  0  0  0
    4.9040   -0.1860   -1.2630 O   0  0  0  0  0  0  0  0  0  0  0  0
    5.0900    0.1180    0.0660 C   0  0  1  0  0  0  0  0  0  0  0  0
    6.4930   -0.2790    0.4810 C   0  0  0  0  0  0  0  0  0  0  0  0
    7.3180    0.6750   -0.3890 C   0  0  0  0  0  0  0  0  0  0  0  0
    6.4940    1.9190   -0.4970 C   0  0  0  0  0  0  0  0  0  0  0  0
    5.1670    1.6300    0.1880 C   0  0  0  0  0  0  0  0  0  0  0  0
    4.0420   -0.4750    0.9660 C   0  0  0  0  0  0  0  0  0  0  0  0
   -1.8550    0.5020    1.3050 C   0  0  0  0  0  0  0  0  0  0  0  0
   -3.1250    0.0280    1.2570 O   0  0  0  0  0  0  0  0  0  0  0  0
   -3.5670   -0.5290    0.0850 C   0  0  1  0  0  0  0  0  0  0  0  0
   -4.2360   -1.8830    0.3930 C   0  0  0  0  0  0  0  0  0  0  0  0
   -5.4760   -1.0920    0.7570 C   0  0  2  0  0  0  0  0  0  0  0  0
   -6.6700   -1.6990    0.3700 O   0  0  0  0  0  0  0  0  0  0  0  0
   -4.9790   -0.0270   -0.1970 C   0  0  2  0  0  0  0  0  0  0  0  0
   -5.4340   -0.1630   -1.6110 C   0  0  0  0  0  0  0  0  0  0  0  0
   -6.6140    0.7950   -1.6770 C   0  0  0  0  0  0  0  0  0  0  0  0
   -6.3820    1.8510   -0.6460 C   0  0  0  0  0  0  0  0  0  0  0  0
   -5.2390    1.3910    0.2310 C   0  0  0  0  0  0  0  0  0  0  0  0
  2  1  1  6
  2  3  1  0
  2 15  1  0
  3  4  1  0
  5  4  1  1
  5  6  1  0
  5 14  1  0
  6  7  1  0
  7  8  1  0
  8  9  1  0
  9 10  1  1
  9 13  1  0
  9 14  1  0
 10 11  1  0
 11 12  1  0
 12 13  1  0
 15 16  1  0
 17 16  1  1
 17 18  1  0
 17 21  1  0
 18 19  1  0
 19 20  1  6
 19 21  1  0
 21 22  1  6
 21 25  1  0
 22 23  1  0
 23 24  1  0
 24 25  1  0
M  CHG  1   4   1
M  END
