
     RDKit          3D

 18 19  0  0  0  0  0  0  0  0999 V2000
   -2.6040   -0.6330    2.1690 C   0  0  0  0  0  0  0  0  0  0  0  0
   -1.3970    0.0920    1.6420 C   0  0  0  0  0  0  0  0  0  0  0  0
   -1.1110   -0.2010    0.1990 C   0  0  1  0  0  0  0  0  0  0  0  0
   -2.3120    0.2240   -0.6190 C   0  0  2  0  0  0  0  0  0  0  0  0
   -2.4640   -0.5060   -1.7840 O   0  0  0  0  0  0  0  0  0  0  0  0
   -2.3290    1.7030   -0.8060 C   0  0  0  0  0  0  0  0  0  0  0  0
   -1.1100    2.2860   -1.2710 N   0  0  0  0  0  0  0  0  0  0  0  0
   -0.0690    1.2680   -1.5030 C   0  0  0  0  0  0  0  0  0  0  0  0
    0.1350    0.5980   -0.1880 C   0  0  1  0  0  0  0  0  0  0  0  0
    0.3630    1.6040    0.7530 O   0  0  0  0  0  0  0  0  0  0  0  0
    1.3000   -0.3550   -0.1150 C   0  0  1  0  0  0  0  0  0  0  0  0
    2.0090   -0.5000   -1.4360 C   0  0  0  0  0  0  0  0  0  0  0  0
    2.3090    0.0880    0.9150 C   0  0  0  0  0  0  0  0  0  0  0  0
    3.4440   -0.8700    0.9860 C   0  0  0  0  0  0  0  0  0  0  0  0
    4.1730   -1.0280   -0.1710 O   0  0  0  0  0  0  0  0  0  0  0  0
    0.7190   -1.6670    0.3680 C   0  0  0  0  0  0  0  0  0  0  0  0
   -0.7310   -1.6210   -0.0640 C   0  0  2  0  0  0  0  0  0  0  0  0
   -0.8760   -1.9690   -1.3900 O   0  0  0  0  0  0  0  0  0  0  0  0
  1  2  1  0
  3  2  1  1
  3  4  1  0
  3  9  1  0
  3 17  1  0
  4  5  1  6
  4  6  1  0
  6  7  1  0
  7  8  1  0
  8  9  1  0
  9 10  1  1
  9 11  1  0
 11 12  1  6
 11 13  1  0
 11 16  1  0
 13 14  1  0
 14 15  1  0
 16 17  1  0
 17 18  1  6
M  CHG  1   7   1
M  END
