
     RDKit          3D

 25 27  0  0  0  0  0  0  0  0999 V2000
   -1.0870    1.7260   -0.7000 C   0  0  0  0  0  0  0  0  0  0  0  0
   -0.9300    0.8880    0.5120 C   0  0  1  0  0  0  0  0  0  0  0  0
   -0.2200    1.7620    1.5740 C   0  0  0  0  0  0  0  0  0  0  0  0
   -2.1280    0.3610    1.1820 C   0  0  0  0  0  0  0  0  0  0  0  0
   -3.0630   -0.5580    0.5350 C   0  0  1  0  0  0  0  0  0  0  0  0
   -4.2010   -0.9180    1.5140 C   0  0  0  0  0  0  0  0  0  0  0  0
   -5.4440   -1.4050    0.9070 C   0  0  0  0  0  0  0  0  0  0  0  0
   -6.4050   -0.3500    0.4130 C   0  0  0  0  0  0  0  0  0  0  0  0
   -6.0470    0.2950   -0.8680 C   0  0  0  0  0  0  0  0  0  0  0  0
   -4.6210    0.7700   -0.9630 C   0  0  0  0  0  0  0  0  0  0  0  0
   -3.6230   -0.3300   -0.7870 C   0  0  1  0  0  0  0  0  0  0  0  0
   -2.6910   -0.3230   -1.8250 O   0  0  0  0  0  0  0  0  0  0  0  0
    0.0700   -0.1900    0.2790 N   0  0  0  0  0  0  0  0  0  0  0  0
    1.1920    0.4310   -0.3570 C   0  0  0  0  0  0  0  0  0  0  0  0
    2.5010   -0.3050   -0.0410 C   0  0  1  0  0  0  0  0  0  0  0  0
    2.7500   -0.3210    1.3330 O   0  0  0  0  0  0  0  0  0  0  0  0
    2.4690   -1.7120   -0.5380 C   0  0  0  0  0  0  0  0  0  0  0  0
    3.8770   -2.2650   -0.5130 C   0  0  0  0  0  0  0  0  0  0  0  0
    4.6310   -1.5040   -1.4130 O   0  0  0  0  0  0  0  0  0  0  0  0
    4.8640   -0.2380   -0.8840 C   0  0  1  0  0  0  0  0  0  0  0  0
    5.7650   -0.2810    0.3220 C   0  0  0  0  0  0  0  0  0  0  0  0
    6.9640    0.5340   -0.1120 C   0  0  0  0  0  0  0  0  0  0  0  0
    7.0270    0.3760   -1.5010 O   0  0  0  0  0  0  0  0  0  0  0  0
    5.7060    0.5250   -1.8840 C   0  0  0  0  0  0  0  0  0  0  0  0
    3.5990    0.5370   -0.6620 C   0  0  0  0  0  0  0  0  0  0  0  0
  2  1  1  6
  2  3  1  0
  2  4  1  0
  2 13  1  0
  5  4  1  1
  5  6  1  0
  5 11  1  0
  6  7  1  0
  7  8  1  0
  8  9  1  0
  9 10  1  0
 10 11  1  0
 11 12  1  6
 13 14  1  0
 14 15  1  0
 15 16  1  1
 15 17  1  0
 15 25  1  0
 17 18  1  0
 18 19  1  0
 19 20  1  0
 20 21  1  1
 20 24  1  0
 20 25  1  0
 21 22  1  0
 22 23  1  0
 23 24  1  0
M  CHG  1  13   1
M  END
