
     RDKit          3D

 18 19  0  0  0  0  0  0  0  0999 V2000
    3.2660   -1.8600   -0.4870 N   0  0  0  0  0  0  0  0  0  0  0  0
    2.2970   -1.1260    0.3090 C   0  0  2  0  0  0  0  0  0  0  0  0
    0.9170   -1.6720    0.1750 C   0  0  0  0  0  0  0  0  0  0  0  0
    0.0180   -0.4860    0.4570 C   0  0  2  0  0  0  0  0  0  0  0  0
   -1.3060   -0.7450   -0.1690 C   0  0  2  0  0  0  0  0  0  0  0  0
   -1.1390   -0.9060   -1.5420 O   0  0  0  0  0  0  0  0  0  0  0  0
   -2.3430    0.2980    0.0570 C   0  0  1  0  0  0  0  0  0  0  0  0
   -3.6010   -0.1890   -0.6770 C   0  0  0  0  0  0  0  0  0  0  0  0
   -4.7080    0.8290   -0.5850 C   0  0  0  0  0  0  0  0  0  0  0  0
   -4.3890    1.7850    0.3730 O   0  0  0  0  0  0  0  0  0  0  0  0
   -4.1300    1.0820    1.5650 C   0  0  0  0  0  0  0  0  0  0  0  0
   -2.7340    0.4830    1.4950 C   0  0  0  0  0  0  0  0  0  0  0  0
    0.7670    0.6740   -0.1270 C   0  0  1  0  0  0  0  0  0  0  0  0
    0.6960    1.7170    0.7880 O   0  0  0  0  0  0  0  0  0  0  0  0
    2.2130    0.2610   -0.2550 C   0  0  1  0  0  0  0  0  0  0  0  0
    3.0840    1.1680    0.5930 C   0  0  0  0  0  0  0  0  0  0  0  0
    4.5210    0.7880    0.6330 C   0  0  0  0  0  0  0  0  0  0  0  0
    5.1340    0.7890   -0.6210 O   0  0  0  0  0  0  0  0  0  0  0  0
  2  1  1  6
  2  3  1  0
  2 15  1  0
  4  3  1  6
  4  5  1  0
  4 13  1  0
  5  6  1  6
  5  7  1  0
  7  8  1  6
  7 12  1  0
  8  9  1  0
  9 10  1  0
 10 11  1  0
 11 12  1  0
 13 14  1  1
 13 15  1  0
 15 16  1  1
 16 17  1  0
 17 18  1  0
M  CHG  1   1   1
M  END
