
     RDKit          3D

 25 26  0  0  0  0  0  0  0  0999 V2000
    2.9470    0.1350    2.8760 C   0  0  0  0  0  0  0  0  0  0  0  0
    3.4530   -0.8280    2.1310 C   0  0  0  0  0  0  0  0  0  0  0  0
    2.7920   -1.3070    0.9660 C   0  0  0  0  0  0  0  0  0  0  0  0
    3.3590   -2.3030    0.2620 C   0  0  0  0  0  0  0  0  0  0  0  0
    4.6570   -2.8940    0.6980 C   0  0  0  0  0  0  0  0  0  0  0  0
    1.5300   -0.7660    0.4310 C   0  0  1  0  0  0  0  0  0  0  0  0
    1.7910    0.6450   -0.0620 C   0  0  0  0  0  0  0  0  0  0  0  0
    0.7300    1.6350    0.3440 C   0  0  0  0  0  0  0  0  0  0  0  0
    0.0310    2.3170   -0.7770 C   0  0  2  0  0  0  0  0  0  0  0  0
    0.9180    2.3600   -2.0280 C   0  0  0  0  0  0  0  0  0  0  0  0
   -0.2600    3.7750   -0.4370 C   0  0  0  0  0  0  0  0  0  0  0  0
    0.9670    4.5720   -0.1520 C   0  0  0  0  0  0  0  0  0  0  0  0
   -1.2670    1.7110   -1.2040 C   0  0  0  0  0  0  0  0  0  0  0  0
   -2.2070    1.4550   -0.1560 N   0  0  0  0  0  0  0  0  0  0  0  0
   -2.8570    0.1490   -0.3400 C   0  0  0  0  0  0  0  0  0  0  0  0
   -2.4060   -0.8900    0.6230 C   0  0  1  0  0  0  0  0  0  0  0  0
   -3.4910   -1.1410    1.5020 O   0  0  0  0  0  0  0  0  0  0  0  0
   -4.4320   -1.8320    0.7680 C   0  0  0  0  0  0  0  0  0  0  0  0
   -3.6870   -2.5960   -0.3040 C   0  0  0  0  0  0  0  0  0  0  0  0
   -2.2480   -2.2690    0.0340 C   0  0  2  0  0  0  0  0  0  0  0  0
   -1.8640   -3.1410    1.0480 O   0  0  0  0  0  0  0  0  0  0  0  0
   -1.3160   -2.3850   -1.0980 C   0  0  0  0  0  0  0  0  0  0  0  0
    0.0770   -2.6050   -0.5490 C   0  0  0  0  0  0  0  0  0  0  0  0
    0.2700   -3.8100   -0.2220 O   0  0  0  0  0  0  0  0  0  0  0  0
    0.9020   -1.5750   -0.4740 O   0  0  0  0  0  0  0  0  0  0  0  0
  1  2  2  0
  2  3  1  0
  3  4  2  3
  6  3  1  6
  4  5  1  0
  6  7  1  0
  6 25  1  0
  7  8  1  0
  8  9  1  0
  9 10  1  6
  9 11  1  0
  9 13  1  0
 11 12  1  0
 13 14  1  0
 14 15  1  0
 16 15  1  6
 16 17  1  0
 16 20  1  0
 17 18  1  0
 18 19  1  0
 19 20  1  0
 20 21  1  1
 20 22  1  0
 22 23  1  0
 23 24  2  0
 23 25  1  0
M  CHG  1  14   1
M  END
