
     RDKit          3D

 27 30  0  0  0  0  0  0  0  0999 V2000
   -3.9290   -2.8920   -3.5430 N   0  0  0  0  0  0  0  0  0  0  0  0
   -3.0760   -2.0240   -3.1750 C   0  0  0  0  0  0  0  0  0  0  0  0
   -2.1450   -1.1090   -2.7700 C   0  0  0  0  0  0  0  0  0  0  0  0
   -1.8940    0.1880   -3.2810 C   0  0  0  0  0  0  0  0  0  0  0  0
   -0.8400    0.6810   -2.5430 N   0  0  0  0  0  0  0  0  0  0  0  0
   -0.4240   -0.1560   -1.6580 N   0  0  0  0  0  0  0  0  0  0  0  0
    0.5820   -0.1450   -0.7330 C   0  0  0  0  0  0  0  0  0  0  0  0
    1.3020    1.0790   -0.5840 N   0  0  0  0  0  0  0  0  0  0  0  0
    0.7520    2.2580   -1.1410 C   0  0  0  0  0  0  0  0  0  0  0  0
    1.4020    3.0450   -2.0230 C   0  0  0  0  0  0  0  0  0  0  0  0
    0.8430    4.2350   -2.5090 C   0  0  0  0  0  0  0  0  0  0  0  0
   -0.3980    4.5780   -2.0610 C   0  0  0  0  0  0  0  0  0  0  0  0
   -1.1210    3.8310   -1.1660 C   0  0  0  0  0  0  0  0  0  0  0  0
   -0.5150    2.6780   -0.7290 C   0  0  0  0  0  0  0  0  0  0  0  0
    0.8020   -1.2000    0.0440 N   0  0  0  0  0  0  0  0  0  0  0  0
    0.0490   -2.3180   -0.0440 C   0  0  0  0  0  0  0  0  0  0  0  0
    0.2670   -3.3970    0.8020 N   0  0  0  0  0  0  0  0  0  0  0  0
    1.2780   -3.3980    1.8340 C   0  0  0  0  0  0  0  0  0  0  0  0
    0.9810   -2.3050    2.7620 C   0  0  0  0  0  0  0  0  0  0  0  0
    1.6570   -1.1130    2.7190 C   0  0  0  0  0  0  0  0  0  0  0  0
    1.3280   -0.0610    3.5810 C   0  0  0  0  0  0  0  0  0  0  0  0
    0.3160   -0.2170    4.4880 C   0  0  0  0  0  0  0  0  0  0  0  0
   -0.1030    1.1200    5.5690 Cl  0  0  0  0  0  0  0  0  0  0  0  0
   -0.3430   -1.4090    4.5190 C   0  0  0  0  0  0  0  0  0  0  0  0
   -0.0480   -2.4650    3.6870 C   0  0  0  0  0  0  0  0  0  0  0  0
   -0.9220   -2.2900   -0.9490 N   0  0  0  0  0  0  0  0  0  0  0  0
   -1.1740   -1.2490   -1.7500 C   0  0  0  0  0  0  0  0  0  0  0  0
  1  2  3  0
  2  3  1  0
  3  4  1  0
  3 27  2  0
  4  5  2  0
  5  6  1  0
  6  7  1  0
  6 27  1  0
  7  8  1  0
  7 15  2  0
  8  9  1  0
  9 10  2  0
  9 14  1  0
 10 11  1  0
 11 12  2  0
 12 13  1  0
 13 14  2  0
 15 16  1  0
 16 17  1  0
 16 26  2  0
 17 18  1  0
 18 19  1  0
 19 20  2  0
 19 25  1  0
 20 21  1  0
 21 22  2  0
 22 23  1  0
 22 24  1  0
 24 25  2  0
 26 27  1  0
M  END
