
     RDKit          3D

 28 30  0  0  0  0  0  0  0  0999 V2000
   -6.4510   -1.4390   -0.4680 C   0  0  0  0  0  0  0  0  0  0  0  0
   -4.9980   -1.6330   -0.8360 C   0  0  2  0  0  0  0  0  0  0  0  0
   -4.6890   -3.0330   -0.6210 N   0  0  0  0  0  0  0  0  0  0  0  0
   -4.1120   -0.7710    0.0440 C   0  0  1  0  0  0  0  0  0  0  0  0
   -2.6730   -0.9520   -0.3090 C   0  0  0  0  0  0  0  0  0  0  0  0
   -1.9030    0.1640    0.2360 N   0  0  0  0  0  0  0  0  0  0  0  0
   -0.6980    0.6010   -0.3760 C   0  0  0  0  0  0  0  0  0  0  0  0
   -0.3080   -0.0050   -1.4100 O   0  0  0  0  0  0  0  0  0  0  0  0
    0.1280    1.7130    0.1120 C   0  0  0  0  0  0  0  0  0  0  0  0
    1.2740    1.1870    0.9450 C   0  0  2  0  0  0  0  0  0  0  0  0
    2.1060    2.3530    1.4310 C   0  0  0  0  0  0  0  0  0  0  0  0
    3.0990    1.9330    2.3040 O   0  0  0  0  0  0  0  0  0  0  0  0
    3.4140    0.5960    2.1510 C   0  0  0  0  0  0  0  0  0  0  0  0
    3.5250    0.3290    0.6490 C   0  0  1  0  0  0  0  0  0  0  0  0
    4.3200   -0.7480    0.3560 O   0  0  0  0  0  0  0  0  0  0  0  0
    5.4460   -0.7150   -0.3900 C   0  0  0  0  0  0  0  0  0  0  0  0
    6.0020    0.3820   -0.9910 C   0  0  0  0  0  0  0  0  0  0  0  0
    7.1590    0.3190   -1.7380 C   0  0  0  0  0  0  0  0  0  0  0  0
    7.7960   -0.8750   -1.9000 C   0  0  0  0  0  0  0  0  0  0  0  0
    8.9690   -1.0030   -2.6430 O   0  0  0  0  0  0  0  0  0  0  0  0
    7.2830   -2.0270   -1.3160 C   0  0  0  0  0  0  0  0  0  0  0  0
    6.1310   -1.9190   -0.5820 C   0  0  0  0  0  0  0  0  0  0  0  0
    2.0940    0.1880    0.1610 C   0  0  0  0  0  0  0  0  0  0  0  0
   -2.4480    0.7770    1.4260 C   0  0  0  0  0  0  0  0  0  0  0  0
   -3.7430    1.4520    1.0230 C   0  0  0  0  0  0  0  0  0  0  0  0
   -4.4680    0.6730   -0.0680 C   0  0  1  0  0  0  0  0  0  0  0  0
   -4.0990    1.2610   -1.4080 C   0  0  0  0  0  0  0  0  0  0  0  0
   -5.8250    0.9190    0.1290 O   0  0  0  0  0  0  0  0  0  0  0  0
  2  1  1  1
  2  3  1  0
  2  4  1  0
  4  5  1  6
  4 26  1  0
  5  6  1  0
  6  7  1  0
  6 24  1  0
  7  8  2  0
  7  9  1  0
 10  9  1  6
 10 11  1  0
 10 23  1  0
 11 12  1  0
 12 13  1  0
 13 14  1  0
 14 15  1  1
 14 23  1  0
 15 16  1  0
 16 17  2  0
 16 22  1  0
 17 18  1  0
 18 19  2  0
 19 20  1  0
 19 21  1  0
 21 22  2  0
 24 25  1  0
 25 26  1  0
 26 27  1  6
 26 28  1  0
M  CHG  1   3   1
M  END
