
     RDKit          3D

 14 15  0  0  0  0  0  0  0  0999 V2000
    2.8960   -1.4820    0.9720 N   0  0  0  0  0  0  0  0  0  0  0  0
    3.1190   -0.3000    0.2380 C   0  0  0  0  0  0  0  0  0  0  0  0
    4.3740   -0.0230    0.0890 O   0  0  0  0  0  0  0  0  0  0  0  0
    2.1600    0.5930   -0.3380 C   0  0  0  0  0  0  0  0  0  0  0  0
    0.8670    0.4660   -0.2840 C   0  0  0  0  0  0  0  0  0  0  0  0
    0.1910   -0.5930    0.3650 N   0  0  0  0  0  0  0  0  0  0  0  0
   -1.2360   -0.6170    0.3520 C   0  0  0  0  0  0  0  0  0  0  0  0
   -1.8890    0.3420   -0.2590 C   0  0  0  0  0  0  0  0  0  0  0  0
   -3.3520    0.0170   -0.0840 C   0  0  0  0  0  0  0  0  0  0  0  0
   -3.3570   -1.3410    0.1870 O   0  0  0  0  0  0  0  0  0  0  0  0
   -2.2150   -1.5930    0.9410 C   0  0  0  0  0  0  0  0  0  0  0  0
   -1.2150    1.4060   -0.9110 N   0  0  0  0  0  0  0  0  0  0  0  0
    0.0650    1.5270   -0.9620 C   0  0  0  0  0  0  0  0  0  0  0  0
    0.7070    2.6050   -1.6230 N   0  0  0  0  0  0  0  0  0  0  0  0
  1  2  1  0
  2  3  2  0
  2  4  1  0
  4  5  2  3
  5  6  1  0
  5 13  1  0
  6  7  1  0
  7  8  2  0
  7 11  1  0
  8  9  1  0
  8 12  1  0
  9 10  1  0
 10 11  1  0
 12 13  2  0
 13 14  1  0
M  END
