
     RDKit          3D

 28 31  0  0  0  0  0  0  0  0999 V2000
    2.2940    4.7200   -1.1140 C   0  0  0  0  0  0  0  0  0  0  0  0
    2.3360    4.5400    0.3890 C   0  0  0  0  0  0  0  0  0  0  0  0
    2.6390    3.2220    0.7390 O   0  0  0  0  0  0  0  0  0  0  0  0
    1.8730    2.1220    0.3810 C   0  0  0  0  0  0  0  0  0  0  0  0
    0.8400    2.3340   -0.3030 O   0  0  0  0  0  0  0  0  0  0  0  0
    2.3190    0.7860    0.8260 C   0  0  2  0  0  0  0  0  0  0  0  0
    3.7190    0.5760    0.2570 C   0  0  0  0  0  0  0  0  0  0  0  0
    4.0310   -0.7520    0.4480 O   0  0  0  0  0  0  0  0  0  0  0  0
    3.3500   -1.5210   -0.5170 C   0  0  1  0  0  0  0  0  0  0  0  0
    3.5590   -2.9380   -0.1150 C   0  0  0  0  0  0  0  0  0  0  0  0
    4.7380   -3.5330    0.2870 C   0  0  0  0  0  0  0  0  0  0  0  0
    4.4620   -4.8530    0.5600 C   0  0  0  0  0  0  0  0  0  0  0  0
    3.1180   -5.0140    0.3130 C   0  0  0  0  0  0  0  0  0  0  0  0
    2.6450   -3.8600   -0.0790 O   0  0  0  0  0  0  0  0  0  0  0  0
    1.8900   -1.2250   -0.5760 C   0  0  0  0  0  0  0  0  0  0  0  0
    1.4370   -0.2650    0.3950 N   0  0  0  0  0  0  0  0  0  0  0  0
    0.1310   -0.3590    0.9210 C   0  0  0  0  0  0  0  0  0  0  0  0
   -0.3030    0.4800    1.7850 O   0  0  0  0  0  0  0  0  0  0  0  0
   -0.8240   -1.4240    0.5170 C   0  0  0  0  0  0  0  0  0  0  0  0
   -2.1640   -1.2680    1.1540 C   0  0  2  0  0  0  0  0  0  0  0  0
   -3.0940   -2.3860    0.7280 C   0  0  0  0  0  0  0  0  0  0  0  0
   -4.4280   -1.7770    0.4110 C   0  0  0  0  0  0  0  0  0  0  0  0
   -4.3160   -0.3620    0.8560 C   0  0  2  0  0  0  0  0  0  0  0  0
   -4.9750    0.5940   -0.1290 C   0  0  0  0  0  0  0  0  0  0  0  0
   -4.0840    1.7950    0.0000 C   0  0  2  0  0  0  0  0  0  0  0  0
   -4.1650    2.6700   -1.1470 N   0  0  0  0  0  0  0  0  0  0  0  0
   -2.7500    1.1970    0.1770 C   0  0  0  0  0  0  0  0  0  0  0  0
   -2.8800   -0.0240    0.6810 C   0  0  0  0  0  0  0  0  0  0  0  0
  1  2  1  0
  2  3  1  0
  3  4  1  0
  4  5  2  0
  6  4  1  6
  6  7  1  0
  6 16  1  0
  7  8  1  0
  8  9  1  0
  9 10  1  1
  9 15  1  0
 10 11  2  0
 10 14  1  0
 11 12  1  0
 12 13  2  0
 13 14  1  0
 15 16  1  0
 16 17  1  0
 17 18  2  0
 17 19  1  0
 20 19  1  6
 20 21  1  0
 20 28  1  0
 21 22  1  0
 23 22  1  6
 23 24  1  0
 23 28  1  0
 24 25  1  0
 25 26  1  6
 25 27  1  0
 27 28  2  0
M  CHG  1  26   1
M  END
