
     RDKit          3D

 28 30  0  0  0  0  0  0  0  0999 V2000
    4.6110    2.4830    1.1590 C   0  0  0  0  0  0  0  0  0  0  0  0
    4.7300    1.0100    1.1860 C   0  0  0  0  0  0  0  0  0  0  0  0
    3.8580    0.2470    0.2220 C   0  0  2  0  0  0  0  0  0  0  0  0
    2.4280    0.5340    0.5050 C   0  0  1  0  0  0  0  0  0  0  0  0
    2.1170    1.8750    0.2590 O   0  0  0  0  0  0  0  0  0  0  0  0
    1.4430   -0.3160   -0.1630 C   0  0  0  0  0  0  0  0  0  0  0  0
    1.7070   -1.3840   -0.9830 C   0  0  0  0  0  0  0  0  0  0  0  0
    0.6910   -2.1430   -1.5580 C   0  0  0  0  0  0  0  0  0  0  0  0
    1.0240   -3.2910   -2.4360 C   0  0  0  0  0  0  0  0  0  0  0  0
   -0.6220   -1.8500   -1.3260 C   0  0  0  0  0  0  0  0  0  0  0  0
   -0.9250   -0.7820   -0.5080 C   0  0  0  0  0  0  0  0  0  0  0  0
   -2.3750   -0.4800   -0.2950 C   0  0  1  0  0  0  0  0  0  0  0  0
   -2.9520   -0.3020   -1.6140 N   0  0  0  0  0  0  0  0  0  0  0  0
   -3.0390   -1.6090    0.4380 C   0  0  0  0  0  0  0  0  0  0  0  0
   -3.9450   -1.1060    1.5460 C   0  0  0  0  0  0  0  0  0  0  0  0
   -4.7640    0.0890    1.0810 C   0  0  0  0  0  0  0  0  0  0  0  0
   -3.8890    1.2490    0.7310 C   0  0  2  0  0  0  0  0  0  0  0  0
   -3.8530    2.1500    1.9780 C   0  0  0  0  0  0  0  0  0  0  0  0
   -4.3940    2.1130   -0.3810 C   0  0  0  0  0  0  0  0  0  0  0  0
   -2.4610    0.7860    0.5250 C   0  0  0  0  0  0  0  0  0  0  0  0
    0.0980   -0.0430    0.0540 C   0  0  0  0  0  0  0  0  0  0  0  0
    4.1510   -1.1210    0.4650 O   0  0  0  0  0  0  0  0  0  0  0  0
    5.2990   -1.6900   -0.0430 C   0  0  0  0  0  0  0  0  0  0  0  0
    5.8080   -2.7500    0.4140 O   0  0  0  0  0  0  0  0  0  0  0  0
    5.9700   -1.0580   -1.1600 N   0  0  0  0  0  0  0  0  0  0  0  0
    5.4280    0.0870   -1.6640 O   0  0  0  0  0  0  0  0  0  0  0  0
    4.2770    0.6330   -1.1360 C   0  0  0  0  0  0  0  0  0  0  0  0
    3.6310    1.4560   -1.8680 O   0  0  0  0  0  0  0  0  0  0  0  0
  1  2  1  0
  3  2  1  1
  3  4  1  0
  3 22  1  0
  3 27  1  0
  4  5  1  6
  4  6  1  0
  6  7  2  0
  6 21  1  0
  7  8  1  0
  8  9  1  0
  8 10  2  0
 10 11  1  0
 11 12  1  0
 11 21  2  0
 12 13  1  6
 12 14  1  0
 12 20  1  0
 14 15  1  0
 15 16  1  0
 16 17  1  0
 17 18  1  1
 17 19  1  0
 17 20  1  0
 22 23  1  0
 23 24  2  0
 23 25  1  0
 25 26  1  0
 26 27  1  0
 27 28  2  0
M  CHG  1  13   1
M  END
