
     RDKit          3D

 28 30  0  0  0  0  0  0  0  0999 V2000
   -5.7060   -1.2780    0.1240 C   0  0  0  0  0  0  0  0  0  0  0  0
   -4.2970   -0.8210    0.4510 C   0  0  1  0  0  0  0  0  0  0  0  0
   -3.3520   -1.8770   -0.0570 C   0  0  0  0  0  0  0  0  0  0  0  0
   -1.9150   -1.5100    0.0230 C   0  0  1  0  0  0  0  0  0  0  0  0
   -1.2050   -2.3350   -1.0620 C   0  0  0  0  0  0  0  0  0  0  0  0
   -1.5650   -0.0770   -0.0680 C   0  0  2  0  0  0  0  0  0  0  0  0
   -0.6350    0.3760    0.9410 N   0  0  0  0  0  0  0  0  0  0  0  0
    0.7050   -0.1380    0.7700 C   0  0  0  0  0  0  0  0  0  0  0  0
    1.6580    0.8850    0.3400 C   0  0  0  0  0  0  0  0  0  0  0  0
    1.1390    2.0770    0.1900 O   0  0  0  0  0  0  0  0  0  0  0  0
    3.0140    0.8240    0.0440 N   0  0  0  0  0  0  0  0  0  0  0  0
    3.5810    1.8790   -0.8110 C   0  0  0  0  0  0  0  0  0  0  0  0
    4.8400    1.3950   -1.5090 C   0  0  0  0  0  0  0  0  0  0  0  0
    4.6570    0.1520   -2.3190 C   0  0  0  0  0  0  0  0  0  0  0  0
    5.0700   -0.9660   -1.5170 O   0  0  0  0  0  0  0  0  0  0  0  0
    4.6620   -1.1050   -0.1720 C   0  0  0  0  0  0  0  0  0  0  0  0
    5.2650   -2.1610    0.4420 C   0  0  0  0  0  0  0  0  0  0  0  0
    4.9570   -2.4120    1.7760 C   0  0  0  0  0  0  0  0  0  0  0  0
    4.0660   -1.6130    2.4590 C   0  0  0  0  0  0  0  0  0  0  0  0
    3.7240   -1.8270    3.8050 O   0  0  0  0  0  0  0  0  0  0  0  0
    3.4630   -0.5470    1.8260 C   0  0  0  0  0  0  0  0  0  0  0  0
    3.7570   -0.2870    0.5020 C   0  0  0  0  0  0  0  0  0  0  0  0
   -2.6870    0.9080   -0.0780 C   0  0  1  0  0  0  0  0  0  0  0  0
   -2.8240    1.4240    1.2310 O   0  0  0  0  0  0  0  0  0  0  0  0
   -2.3180    2.0910   -0.9530 C   0  0  0  0  0  0  0  0  0  0  0  0
   -3.4690    3.0950   -0.9610 C   0  0  0  0  0  0  0  0  0  0  0  0
   -3.7500    3.5660    0.3160 O   0  0  0  0  0  0  0  0  0  0  0  0
   -4.0270    0.3820   -0.4650 C   0  0  0  0  0  0  0  0  0  0  0  0
  2  1  1  6
  2  3  1  0
  2 28  1  0
  3  4  1  0
  4  5  1  6
  4  6  1  0
  6  7  1  1
  6 23  1  0
  7  8  1  0
  8  9  1  0
  9 10  2  0
  9 11  1  0
 11 12  1  0
 11 22  1  0
 12 13  1  0
 13 14  1  0
 14 15  1  0
 15 16  1  0
 16 17  2  0
 16 22  1  0
 17 18  1  0
 18 19  2  0
 19 20  1  0
 19 21  1  0
 21 22  2  0
 23 24  1  1
 23 25  1  0
 23 28  1  0
 25 26  1  0
 26 27  1  0
M  CHG  1   7   1
M  END
