
     RDKit          3D

 28 31  0  0  0  0  0  0  0  0999 V2000
   -6.2260   -2.4050    0.3910 C   0  0  0  0  0  0  0  0  0  0  0  0
   -5.1320   -1.4420    0.1210 C   0  0  0  0  0  0  0  0  0  0  0  0
   -4.1140   -1.2000    1.0170 C   0  0  0  0  0  0  0  0  0  0  0  0
   -3.0860   -0.3060    0.7830 C   0  0  0  0  0  0  0  0  0  0  0  0
   -3.0930    0.3720   -0.4170 C   0  0  0  0  0  0  0  0  0  0  0  0
   -4.1080    0.1370   -1.3230 C   0  0  0  0  0  0  0  0  0  0  0  0
   -5.1370   -0.7560   -1.0910 C   0  0  0  0  0  0  0  0  0  0  0  0
   -6.2340   -1.0070   -2.0740 C   0  0  0  0  0  0  0  0  0  0  0  0
   -6.0190   -0.1800   -3.2460 N   0  0  0  0  0  0  0  0  0  0  0  0
   -1.8870    1.2470   -0.3910 C   0  0  0  0  0  0  0  0  0  0  0  0
   -1.6820    1.4070    1.0710 C   0  0  2  0  0  0  0  0  0  0  0  0
   -0.3520    1.9020    1.5020 C   0  0  1  0  0  0  0  0  0  0  0  0
   -0.3230    1.9190    2.9540 N   0  0  0  0  0  0  0  0  0  0  0  0
    0.8150    1.1530    0.9370 C   0  0  0  0  0  0  0  0  0  0  0  0
    1.9950    1.8000    1.3740 O   0  0  0  0  0  0  0  0  0  0  0  0
    3.2630    1.3530    1.0230 C   0  0  0  0  0  0  0  0  0  0  0  0
    4.4120    1.9830    1.4480 C   0  0  0  0  0  0  0  0  0  0  0  0
    5.6570    1.5140    1.0820 C   0  0  0  0  0  0  0  0  0  0  0  0
    5.7890    0.4030    0.2810 C   0  0  0  0  0  0  0  0  0  0  0  0
    4.6470   -0.2400   -0.1550 C   0  0  0  0  0  0  0  0  0  0  0  0
    3.4080    0.2390    0.2190 C   0  0  0  0  0  0  0  0  0  0  0  0
    4.7550   -1.3610   -0.9630 O   0  0  0  0  0  0  0  0  0  0  0  0
    5.9980   -1.6550   -1.5670 C   0  0  0  0  0  0  0  0  0  0  0  0
    7.1000   -1.4270   -0.5390 C   0  0  1  0  0  0  0  0  0  0  0  0
    8.3900   -1.7400   -1.2020 C   0  0  0  0  0  0  0  0  0  0  0  0
    9.2940   -0.9420   -1.3540 O   0  0  0  0  0  0  0  0  0  0  0  0
    7.0390   -0.0880   -0.1010 O   0  0  0  0  0  0  0  0  0  0  0  0
   -1.9660    0.0900    1.5420 O   0  0  0  0  0  0  0  0  0  0  0  0
  1  2  1  0
  2  3  2  0
  2  7  1  0
  3  4  1  0
  4  5  2  0
  4 28  1  0
  5  6  1  0
  5 10  1  0
  6  7  2  0
  7  8  1  0
  8  9  1  0
 11 10  1  6
 11 12  1  0
 11 28  1  0
 12 13  1  1
 12 14  1  0
 14 15  1  0
 15 16  1  0
 16 17  2  0
 16 21  1  0
 17 18  1  0
 18 19  2  0
 19 20  1  0
 19 27  1  0
 20 21  2  0
 20 22  1  0
 22 23  1  0
 23 24  1  0
 24 25  1  6
 24 27  1  0
 25 26  2  0
M  CHG  2   9   1  13   1
M  END
