
     RDKit          3D

 14 15  0  0  0  0  0  0  0  0999 V2000
   -3.2820    0.2950   -0.0490 N   0  0  0  0  0  0  0  0  0  0  0  0
   -1.9260   -0.1370   -0.0320 C   0  0  0  0  0  0  0  0  0  0  0  0
   -1.6120   -1.4920   -0.0470 C   0  0  0  0  0  0  0  0  0  0  0  0
   -0.3050   -1.9220   -0.0310 C   0  0  0  0  0  0  0  0  0  0  0  0
    0.7580   -1.0370    0.0000 C   0  0  0  0  0  0  0  0  0  0  0  0
    2.0610   -1.5000    0.0150 C   0  0  0  0  0  0  0  0  0  0  0  0
    2.3350   -2.7280    0.0020 O   0  0  0  0  0  0  0  0  0  0  0  0
    3.0470   -0.5840    0.0460 N   0  0  0  0  0  0  0  0  0  0  0  0
    2.7310    0.7250    0.0600 C   0  0  0  0  0  0  0  0  0  0  0  0
    3.6790    1.5800    0.0880 O   0  0  0  0  0  0  0  0  0  0  0  0
    1.4730    1.1920    0.0450 N   0  0  0  0  0  0  0  0  0  0  0  0
    0.4390    0.3090    0.0150 C   0  0  0  0  0  0  0  0  0  0  0  0
   -0.8710    0.7500   -0.0010 C   0  0  0  0  0  0  0  0  0  0  0  0
   -1.1650    2.1400    0.0140 N   0  0  0  0  0  0  0  0  0  0  0  0
  1  2  1  0
  2  3  2  0
  2 13  1  0
  3  4  1  0
  4  5  2  0
  5  6  1  0
  5 12  1  0
  6  7  2  0
  6  8  1  0
  8  9  1  0
  9 10  2  0
  9 11  1  0
 11 12  1  0
 12 13  2  0
 13 14  1  0
M  END
