
     RDKit          3D

 26 29  0  0  0  0  0  0  0  0999 V2000
   -5.0030    1.9970   -0.1800 C   0  0  0  0  0  0  0  0  0  0  0  0
   -5.0430    0.6890    0.5760 C   0  0  0  0  0  0  0  0  0  0  0  0
   -3.7580    0.0520    0.6740 N   0  0  2  0  0  0  0  0  0  0  0  0
   -2.6810    0.9600    0.9110 C   0  0  0  0  0  0  0  0  0  0  0  0
   -1.4280    0.6580    0.1530 C   0  0  0  0  0  0  0  0  0  0  0  0
   -1.1640   -0.7350   -0.0310 N   0  0  0  0  0  0  0  0  0  0  0  0
    0.1560   -1.2500   -0.1760 C   0  0  0  0  0  0  0  0  0  0  0  0
    1.2450   -0.4780   -0.1580 N   0  0  0  0  0  0  0  0  0  0  0  0
    2.5100   -0.8960   -0.2880 C   0  0  0  0  0  0  0  0  0  0  0  0
    3.6580   -0.0710   -0.2670 N   0  0  0  0  0  0  0  0  0  0  0  0
    3.7040    1.3190   -0.1100 C   0  0  0  0  0  0  0  0  0  0  0  0
    4.9350    1.9730   -0.1080 C   0  0  0  0  0  0  0  0  0  0  0  0
    5.0750    3.3330    0.0390 C   0  0  0  0  0  0  0  0  0  0  0  0
    3.9570    4.1080    0.1950 C   0  0  0  0  0  0  0  0  0  0  0  0
    2.7290    3.5100    0.2000 C   0  0  0  0  0  0  0  0  0  0  0  0
    2.6130    2.1330    0.0490 C   0  0  0  0  0  0  0  0  0  0  0  0
    2.6680   -2.2470   -0.4550 N   0  0  0  0  0  0  0  0  0  0  0  0
    3.7810   -2.9450   -0.6080 N   0  0  0  0  0  0  0  0  0  0  0  0
    3.5050   -4.2580   -0.7420 C   0  0  0  0  0  0  0  0  0  0  0  0
    2.1290   -4.3480   -0.6630 C   0  0  0  0  0  0  0  0  0  0  0  0
    1.3010   -5.5230   -0.7460 C   0  0  0  0  0  0  0  0  0  0  0  0
    0.6500   -6.4730   -0.8240 N   0  0  0  0  0  0  0  0  0  0  0  0
    1.6070   -3.0830   -0.4830 C   0  0  0  0  0  0  0  0  0  0  0  0
    0.3700   -2.5750   -0.3440 N   0  0  0  0  0  0  0  0  0  0  0  0
   -2.2810   -1.6610   -0.0700 C   0  0  0  0  0  0  0  0  0  0  0  0
   -3.5160   -0.8470   -0.4490 C   0  0  0  0  0  0  0  0  0  0  0  0
  1  2  1  0
  3  2  1  6
  3  4  1  0
  3 26  1  0
  4  5  1  0
  5  6  1  0
  6  7  1  0
  6 25  1  0
  7  8  1  0
  7 24  2  0
  8  9  2  0
  9 10  1  0
  9 17  1  0
 10 11  1  0
 11 12  2  0
 11 16  1  0
 12 13  1  0
 13 14  2  0
 14 15  1  0
 15 16  2  0
 17 18  1  0
 17 23  1  0
 18 19  2  0
 19 20  1  0
 20 21  1  0
 20 23  2  0
 21 22  3  0
 23 24  1  0
 25 26  1  0
M  CHG  1   3   1
M  END
