
     RDKit          3D

 26 29  0  0  0  0  0  0  0  0999 V2000
    0.9080    0.1590   -2.0380 C   0  0  0  0  0  0  0  0  0  0  0  0
    0.5350    0.2080   -0.5960 C   0  0  0  0  0  0  0  0  0  0  0  0
    1.4960    0.2650    0.3350 C   0  0  0  0  0  0  0  0  0  0  0  0
    2.8940    0.2240    0.2970 C   0  0  0  0  0  0  0  0  0  0  0  0
    4.0500    0.1440    0.1800 C   0  0  0  0  0  0  0  0  0  0  0  0
    5.4740    0.1120    0.1520 C   0  0  0  0  0  0  0  0  0  0  0  0
    6.2380   -0.5470   -0.7870 C   0  0  0  0  0  0  0  0  0  0  0  0
    7.6250   -0.3020   -0.4750 C   0  0  0  0  0  0  0  0  0  0  0  0
    7.6330    0.4680    0.7500 C   0  0  0  0  0  0  0  0  0  0  0  0
    6.4350    0.6950    1.0570 N   0  0  0  0  0  0  0  0  0  0  0  0
    1.0340    0.3030    1.7190 C   0  0  0  0  0  0  0  0  0  0  0  0
   -0.2410    0.2790    2.0680 N   0  0  0  0  0  0  0  0  0  0  0  0
   -0.8120    0.2650    3.3060 N   0  0  0  0  0  0  0  0  0  0  0  0
   -2.1260    0.1960    3.1760 C   0  0  0  0  0  0  0  0  0  0  0  0
   -2.3470    0.1700    1.8440 N   0  0  0  0  0  0  0  0  0  0  0  0
   -1.1640    0.2260    1.1410 C   0  0  0  0  0  0  0  0  0  0  0  0
   -0.8200    0.1910   -0.2170 C   0  0  0  0  0  0  0  0  0  0  0  0
   -1.9170    0.0860   -1.2090 C   0  0  0  0  0  0  0  0  0  0  0  0
   -3.1440    0.3700   -0.5770 N   0  0  0  0  0  0  0  0  0  0  0  0
   -4.4640   -0.0290   -0.8420 C   0  0  0  0  0  0  0  0  0  0  0  0
   -4.9570   -0.7910   -1.8130 N   0  0  0  0  0  0  0  0  0  0  0  0
   -6.2120   -1.1270   -1.9420 C   0  0  0  0  0  0  0  0  0  0  0  0
   -7.1010   -0.6590   -0.9990 N   0  0  0  0  0  0  0  0  0  0  0  0
   -6.6820    0.1050   -0.0220 C   0  0  0  0  0  0  0  0  0  0  0  0
   -7.5470    0.6410    0.9690 N   0  0  0  0  0  0  0  0  0  0  0  0
   -5.3840    0.4360    0.0930 N   0  0  0  0  0  0  0  0  0  0  0  0
  1  2  1  0
  2  3  1  0
  2 17  2  0
  3  4  1  0
  3 11  2  0
  4  5  2  3
  5  6  1  0
  6  7  2  0
  6 10  1  0
  7  8  1  0
  8  9  1  0
  9 10  2  0
 11 12  1  0
 12 13  1  0
 12 16  1  0
 13 14  2  0
 14 15  1  0
 15 16  2  0
 16 17  1  0
 17 18  1  0
 18 19  1  0
 19 20  1  0
 20 21  2  0
 20 26  1  0
 21 22  1  0
 22 23  2  0
 23 24  1  0
 24 25  1  0
 24 26  2  0
M  END
