
     RDKit          3D

 26 29  0  0  0  0  0  0  0  0999 V2000
   -7.4520    0.5820    0.6850 C   0  0  0  0  0  0  0  0  0  0  0  0
   -6.6050    0.0730   -0.1970 C   0  0  0  0  0  0  0  0  0  0  0  0
   -5.2490    0.4190   -0.2640 N   0  0  0  0  0  0  0  0  0  0  0  0
   -4.5930    0.7010   -1.5210 C   0  0  0  0  0  0  0  0  0  0  0  0
   -3.4380   -0.2600   -1.6190 C   0  0  0  0  0  0  0  0  0  0  0  0
   -2.4120    0.0690   -0.5070 C   0  0  2  0  0  0  0  0  0  0  0  0
   -2.0010   -1.1970    0.1420 C   0  0  0  0  0  0  0  0  0  0  0  0
   -2.8970   -2.1380    0.5220 N   0  0  0  0  0  0  0  0  0  0  0  0
   -2.3010   -3.1670    1.0700 N   0  0  0  0  0  0  0  0  0  0  0  0
   -0.9850   -2.8690    1.0360 C   0  0  0  0  0  0  0  0  0  0  0  0
    0.1900   -3.4090    1.3960 N   0  0  0  0  0  0  0  0  0  0  0  0
    1.1170   -2.5200    1.0450 C   0  0  0  0  0  0  0  0  0  0  0  0
    0.5170   -1.3860    0.4480 C   0  0  0  0  0  0  0  0  0  0  0  0
    1.2470   -0.2320   -0.0450 C   0  0  0  0  0  0  0  0  0  0  0  0
    0.8150    0.8910   -0.5790 N   0  0  0  0  0  0  0  0  0  0  0  0
    1.8240    1.7090   -0.9110 N   0  0  0  0  0  0  0  0  0  0  0  0
    2.9650    1.0880   -0.5750 C   0  0  0  0  0  0  0  0  0  0  0  0
    4.2880    1.6420   -0.7730 C   0  0  0  0  0  0  0  0  0  0  0  0
    5.3720    0.9780   -0.4230 C   0  0  0  0  0  0  0  0  0  0  0  0
    6.6670    1.5230   -0.6180 N   0  0  0  0  0  0  0  0  0  0  0  0
    7.7870    1.0020    0.1650 C   0  0  0  0  0  0  0  0  0  0  0  0
    8.0420   -0.4300   -0.3040 C   0  0  0  0  0  0  0  0  0  0  0  0
    2.6100   -0.0940   -0.0480 N   0  0  0  0  0  0  0  0  0  0  0  0
   -0.7920   -1.6560    0.4670 N   0  0  0  0  0  0  0  0  0  0  0  0
   -3.0520    0.9820    0.5360 C   0  0  0  0  0  0  0  0  0  0  0  0
   -4.4400    0.5100    0.9310 C   0  0  0  0  0  0  0  0  0  0  0  0
  1  2  2  0
  2  3  1  0
  3  4  1  0
  3 26  1  0
  4  5  1  0
  5  6  1  0
  6  7  1  1
  6 25  1  0
  7  8  2  0
  7 24  1  0
  8  9  1  0
  9 10  1  0
 10 11  2  0
 10 24  1  0
 11 12  1  0
 12 13  2  0
 13 14  1  0
 13 24  1  0
 14 15  2  0
 14 23  1  0
 15 16  1  0
 16 17  1  0
 17 18  1  0
 17 23  2  0
 18 19  2  3
 19 20  1  0
 20 21  1  0
 21 22  1  0
 25 26  1  0
M  END
