
     RDKit          3D

 26 29  0  0  0  0  0  0  0  0999 V2000
   -1.5830    5.2150   -0.7200 C   0  0  0  0  0  0  0  0  0  0  0  0
   -1.2360    3.7610   -0.6940 C   0  0  0  0  0  0  0  0  0  0  0  0
   -1.6260    2.9110    0.2620 N   0  0  0  0  0  0  0  0  0  0  0  0
   -1.1080    1.7000   -0.0810 C   0  0  0  0  0  0  0  0  0  0  0  0
   -1.3230    0.5510    0.7160 N   0  0  0  0  0  0  0  0  0  0  0  0
   -2.4620   -0.2770    0.4800 C   0  0  0  0  0  0  0  0  0  0  0  0
   -2.0970   -1.6380   -0.0660 C   0  0  0  0  0  0  0  0  0  0  0  0
   -3.3640   -2.3950   -0.2670 C   0  0  0  0  0  0  0  0  0  0  0  0
   -3.6460   -3.5340    0.3300 C   0  0  0  0  0  0  0  0  0  0  0  0
   -4.9800   -3.9550   -0.1300 C   0  0  0  0  0  0  0  0  0  0  0  0
   -5.3940   -2.8990   -1.0560 C   0  0  0  0  0  0  0  0  0  0  0  0
   -4.4600   -2.0280   -1.1150 N   0  0  0  0  0  0  0  0  0  0  0  0
   -0.3760    0.2440    1.7570 C   0  0  0  0  0  0  0  0  0  0  0  0
    0.9920    0.0380    1.2270 C   0  0  0  0  0  0  0  0  0  0  0  0
    1.9190    1.0090    1.1890 N   0  0  0  0  0  0  0  0  0  0  0  0
    3.1640    0.7840    0.6930 C   0  0  0  0  0  0  0  0  0  0  0  0
    4.1910    1.8500    0.6490 C   0  0  0  0  0  0  0  0  0  0  0  0
    3.4480   -0.4820    0.2280 C   0  0  0  0  0  0  0  0  0  0  0  0
    4.5800   -1.0320   -0.3230 C   0  0  0  0  0  0  0  0  0  0  0  0
    5.8500   -0.3120   -0.5530 C   0  0  0  0  0  0  0  0  0  0  0  0
    4.2860   -2.3230   -0.5960 N   0  0  0  0  0  0  0  0  0  0  0  0
    3.0620   -2.6010   -0.2530 N   0  0  0  0  0  0  0  0  0  0  0  0
    2.4820   -1.4950    0.2680 C   0  0  0  0  0  0  0  0  0  0  0  0
    1.2950   -1.1890    0.7670 N   0  0  0  0  0  0  0  0  0  0  0  0
   -0.4170    1.8280   -1.2290 N   0  0  0  0  0  0  0  0  0  0  0  0
   -0.5100    3.0970   -1.5850 N   0  0  0  0  0  0  0  0  0  0  0  0
  1  2  1  0
  2  3  2  0
  2 26  1  0
  3  4  1  0
  4  5  1  0
  4 25  2  0
  5  6  1  0
  5 13  1  0
  6  7  1  0
  7  8  1  0
  8  9  2  0
  8 12  1  0
  9 10  1  0
 10 11  1  0
 11 12  2  0
 13 14  1  0
 14 15  2  0
 14 24  1  0
 15 16  1  0
 16 17  1  0
 16 18  2  0
 18 19  1  0
 18 23  1  0
 19 20  1  0
 19 21  2  0
 21 22  1  0
 22 23  1  0
 23 24  2  0
 25 26  1  0
M  END
