
     RDKit          3D

 26 29  0  0  0  0  0  0  0  0999 V2000
   -8.2940   -1.4210    1.5030 C   0  0  0  0  0  0  0  0  0  0  0  0
   -6.9050   -1.0080    1.1460 C   0  0  0  0  0  0  0  0  0  0  0  0
   -6.6840    0.1360    0.4080 C   0  0  0  0  0  0  0  0  0  0  0  0
   -5.4420    0.5430    0.0660 N   0  0  0  0  0  0  0  0  0  0  0  0
   -4.3630   -0.1670    0.4400 C   0  0  0  0  0  0  0  0  0  0  0  0
   -2.9650    0.2390    0.0870 C   0  0  0  0  0  0  0  0  0  0  0  0
   -2.9690    1.4650   -0.6880 N   0  0  0  0  0  0  0  0  0  0  0  0
   -1.7320    1.9910   -1.1050 C   0  0  0  0  0  0  0  0  0  0  0  0
   -0.4970    1.5070   -0.8850 N   0  0  0  0  0  0  0  0  0  0  0  0
    0.4300    2.3020   -1.4510 C   0  0  0  0  0  0  0  0  0  0  0  0
    1.8350    2.1290   -1.4380 N   0  0  0  0  0  0  0  0  0  0  0  0
    2.4290    1.0300   -0.7840 C   0  0  0  0  0  0  0  0  0  0  0  0
    1.8580   -0.0100   -0.0870 C   0  0  0  0  0  0  0  0  0  0  0  0
    2.8720   -0.8000    0.3420 N   0  0  0  0  0  0  0  0  0  0  0  0
    4.0180   -0.3190   -0.0400 N   0  0  0  0  0  0  0  0  0  0  0  0
    5.3420   -0.8390    0.1980 C   0  0  0  0  0  0  0  0  0  0  0  0
    5.5600   -2.1810    0.4370 C   0  0  0  0  0  0  0  0  0  0  0  0
    6.8290   -2.6850    0.6670 C   0  0  0  0  0  0  0  0  0  0  0  0
    7.9250   -1.8480    0.6620 C   0  0  0  0  0  0  0  0  0  0  0  0
    7.7160   -0.5080    0.4250 C   0  0  0  0  0  0  0  0  0  0  0  0
    6.4420   -0.0070    0.1950 C   0  0  0  0  0  0  0  0  0  0  0  0
    3.8060    0.7920   -0.7270 C   0  0  0  0  0  0  0  0  0  0  0  0
   -0.2630    3.3120   -2.0420 N   0  0  0  0  0  0  0  0  0  0  0  0
   -1.5280    3.1070   -1.8250 N   0  0  0  0  0  0  0  0  0  0  0  0
   -4.5880   -1.3090    1.1770 C   0  0  0  0  0  0  0  0  0  0  0  0
   -5.8250   -1.7170    1.5200 N   0  0  0  0  0  0  0  0  0  0  0  0
  1  2  1  0
  2  3  2  0
  2 26  1  0
  3  4  1  0
  4  5  2  0
  5  6  1  0
  5 25  1  0
  6  7  1  0
  7  8  1  0
  8  9  2  0
  8 24  1  0
  9 10  1  0
 10 11  1  0
 10 23  2  0
 11 12  1  0
 12 13  1  0
 12 22  2  0
 13 14  2  0
 14 15  1  0
 15 16  1  0
 15 22  1  0
 16 17  2  0
 16 21  1  0
 17 18  1  0
 18 19  2  0
 19 20  1  0
 20 21  2  0
 23 24  1  0
 25 26  2  0
M  END
