
     RDKit          3D

 26 29  0  0  0  0  0  0  0  0999 V2000
   -6.5980    0.1240    0.1000 C   0  0  0  0  0  0  0  0  0  0  0  0
   -5.1950   -0.1550    0.6260 C   0  0  1  0  0  0  0  0  0  0  0  0
   -5.1860   -0.7410    1.9900 C   0  0  0  0  0  0  0  0  0  0  0  0
   -4.4020   -0.8560   -0.4140 C   0  0  0  0  0  0  0  0  0  0  0  0
   -4.7300   -1.4730   -1.5150 N   0  0  0  0  0  0  0  0  0  0  0  0
   -3.6130   -1.7510   -2.1840 N   0  0  0  0  0  0  0  0  0  0  0  0
   -2.5350   -1.3240   -1.5300 C   0  0  0  0  0  0  0  0  0  0  0  0
   -2.9800   -0.7410   -0.3820 C   0  0  0  0  0  0  0  0  0  0  0  0
   -2.2090   -0.2910    0.8030 C   0  0  0  0  0  0  0  0  0  0  0  0
   -1.0250    0.2950    0.4260 N   0  0  0  0  0  0  0  0  0  0  0  0
    0.2950    0.2600    0.0860 C   0  0  0  0  0  0  0  0  0  0  0  0
    1.1850   -0.7120   -0.0300 N   0  0  0  0  0  0  0  0  0  0  0  0
    2.4820   -0.5300   -0.3580 C   0  0  0  0  0  0  0  0  0  0  0  0
    3.4690   -1.6240   -0.5690 C   0  0  0  0  0  0  0  0  0  0  0  0
    3.8340   -2.2020    0.6720 N   0  0  0  0  0  0  0  0  0  0  0  0
    4.5680   -1.2380    1.4820 C   0  0  0  0  0  0  0  0  0  0  0  0
    4.0300   -3.5340    0.9070 C   0  0  0  0  0  0  0  0  0  0  0  0
    2.9160    0.7380   -0.5780 C   0  0  0  0  0  0  0  0  0  0  0  0
    4.1280    1.3120   -0.8100 N   0  0  0  0  0  0  0  0  0  0  0  0
    4.0540    2.6510   -0.8410 C   0  0  0  0  0  0  0  0  0  0  0  0
    4.7070    3.8410   -0.9620 N   0  0  0  0  0  0  0  0  0  0  0  0
    3.8540    4.8750   -0.8370 C   0  0  0  0  0  0  0  0  0  0  0  0
    2.6000    4.2830   -0.6250 C   0  0  0  0  0  0  0  0  0  0  0  0
    2.7620    2.9600   -0.6350 N   0  0  0  0  0  0  0  0  0  0  0  0
    2.0610    1.8120   -0.4750 C   0  0  0  0  0  0  0  0  0  0  0  0
    0.8050    1.5540   -0.1580 N   0  0  0  0  0  0  0  0  0  0  0  0
  2  1  1  6
  2  3  1  0
  2  4  1  0
  4  5  1  0
  4  8  2  0
  5  6  1  0
  6  7  2  0
  7  8  1  0
  8  9  1  0
  9 10  1  0
 10 11  1  0
 11 12  2  0
 11 26  1  0
 12 13  1  0
 13 14  1  0
 13 18  2  0
 14 15  1  0
 15 16  1  0
 15 17  1  0
 18 19  1  0
 18 25  1  0
 19 20  2  0
 20 21  1  0
 20 24  1  0
 21 22  1  0
 22 23  2  0
 23 24  1  0
 24 25  1  0
 25 26  2  0
M  END
