
     RDKit          3D

 26 29  0  0  0  0  0  0  0  0999 V2000
    6.8300    0.0280    0.1440 C   0  0  0  0  0  0  0  0  0  0  0  0
    6.0480    0.9280   -0.7100 C   0  0  0  0  0  0  0  0  0  0  0  0
    4.7560    1.0610   -0.5670 C   0  0  0  0  0  0  0  0  0  0  0  0
    3.9810    0.3460    0.4310 C   0  0  0  0  0  0  0  0  0  0  0  0
    4.6030   -0.5100    1.2710 N   0  0  0  0  0  0  0  0  0  0  0  0
    3.9810   -1.2120    2.2200 C   0  0  0  0  0  0  0  0  0  0  0  0
    2.6540   -1.0360    2.3220 N   0  0  0  0  0  0  0  0  0  0  0  0
    1.9720   -0.2260    1.5490 N   0  0  0  0  0  0  0  0  0  0  0  0
    2.6250    0.4750    0.5940 C   0  0  0  0  0  0  0  0  0  0  0  0
    1.8840    1.3530   -0.2420 N   0  0  0  0  0  0  0  0  0  0  0  0
    0.4450    1.5040   -0.0860 C   0  0  0  0  0  0  0  0  0  0  0  0
   -0.1590    0.1540   -0.3090 C   0  0  0  0  0  0  0  0  0  0  0  0
    0.4870   -0.9760   -0.6020 N   0  0  0  0  0  0  0  0  0  0  0  0
   -0.4090   -1.9640   -0.7230 C   0  0  0  0  0  0  0  0  0  0  0  0
   -0.2880   -3.2700   -1.0050 N   0  0  0  0  0  0  0  0  0  0  0  0
   -1.3800   -4.0340   -1.0620 C   0  0  0  0  0  0  0  0  0  0  0  0
   -2.5850   -3.5200   -0.8440 N   0  0  0  0  0  0  0  0  0  0  0  0
   -2.7680   -2.2160   -0.5580 C   0  0  0  0  0  0  0  0  0  0  0  0
   -4.0610   -1.6970   -0.3290 N   0  0  0  0  0  0  0  0  0  0  0  0
   -1.6710   -1.3890   -0.4880 C   0  0  0  0  0  0  0  0  0  0  0  0
   -1.5110   -0.0670   -0.2300 N   0  0  0  0  0  0  0  0  0  0  0  0
   -2.5170    0.8940    0.0600 C   0  0  2  0  0  0  0  0  0  0  0  0
   -3.2340    0.7730    1.3670 C   0  0  0  0  0  0  0  0  0  0  0  0
   -4.6660    1.1680    1.1110 C   0  0  0  0  0  0  0  0  0  0  0  0
   -4.7680    1.5120   -0.3330 C   0  0  0  0  0  0  0  0  0  0  0  0
   -3.4630    1.2710   -1.0210 C   0  0  0  0  0  0  0  0  0  0  0  0
  1  2  1  0
  2  3  2  3
  3  4  1  0
  4  5  2  0
  4  9  1  0
  5  6  1  0
  6  7  2  0
  7  8  1  0
  8  9  2  0
  9 10  1  0
 10 11  1  0
 11 12  1  0
 12 13  2  0
 12 21  1  0
 13 14  1  0
 14 15  2  0
 14 20  1  0
 15 16  1  0
 16 17  2  0
 17 18  1  0
 18 19  1  0
 18 20  2  0
 20 21  1  0
 22 21  1  6
 22 23  1  0
 22 26  1  0
 23 24  1  0
 24 25  1  0
 25 26  1  0
M  END
