
     RDKit          3D

 26 29  0  0  0  0  0  0  0  0999 V2000
   -6.3850    0.5800   -1.7430 C   0  0  0  0  0  0  0  0  0  0  0  0
   -5.9330   -0.8500   -1.9670 C   0  0  0  0  0  0  0  0  0  0  0  0
   -4.4910   -0.9120   -2.0770 N   0  0  0  0  0  0  0  0  0  0  0  0
   -3.6610   -0.4810   -1.0090 C   0  0  0  0  0  0  0  0  0  0  0  0
   -2.3240   -0.5460   -1.1280 N   0  0  0  0  0  0  0  0  0  0  0  0
   -1.4750   -0.1460   -0.1350 C   0  0  0  0  0  0  0  0  0  0  0  0
   -0.0340   -0.2340   -0.3070 C   0  0  0  0  0  0  0  0  0  0  0  0
    0.8160    0.1520    0.6540 N   0  0  0  0  0  0  0  0  0  0  0  0
    2.1080    0.0890    0.5370 N   0  0  0  0  0  0  0  0  0  0  0  0
    2.7170   -0.3720   -0.5670 C   0  0  0  0  0  0  0  0  0  0  0  0
    4.1310   -0.4740   -0.7750 C   0  0  0  0  0  0  0  0  0  0  0  0
    5.1720   -0.2150   -0.1090 C   0  0  0  0  0  0  0  0  0  0  0  0
    5.4700    0.3110    1.1880 C   0  0  0  0  0  0  0  0  0  0  0  0
    6.7840    0.5060    1.6860 C   0  0  0  0  0  0  0  0  0  0  0  0
    6.6740    1.0150    2.9400 C   0  0  0  0  0  0  0  0  0  0  0  0
    5.3870    1.1280    3.2010 N   0  0  0  0  0  0  0  0  0  0  0  0
    4.6540    0.7090    2.1580 N   0  0  0  0  0  0  0  0  0  0  0  0
    1.8660   -0.7950   -1.6180 C   0  0  0  0  0  0  0  0  0  0  0  0
    2.4140   -1.3230   -2.8840 C   0  0  0  0  0  0  0  0  0  0  0  0
    0.5380   -0.7010   -1.4270 N   0  0  0  0  0  0  0  0  0  0  0  0
   -2.0710    0.3320    1.0070 C   0  0  0  0  0  0  0  0  0  0  0  0
   -1.5320    0.8090    2.1790 C   0  0  0  0  0  0  0  0  0  0  0  0
   -2.5650    1.1790    3.0450 C   0  0  0  0  0  0  0  0  0  0  0  0
   -3.7110    0.9230    2.3930 N   0  0  0  0  0  0  0  0  0  0  0  0
   -3.4440    0.4120    1.1610 C   0  0  0  0  0  0  0  0  0  0  0  0
   -4.2050   -0.0020    0.1370 N   0  0  0  0  0  0  0  0  0  0  0  0
  1  2  1  0
  2  3  1  0
  3  4  1  0
  4  5  2  0
  4 26  1  0
  5  6  1  0
  6  7  1  0
  6 21  2  0
  7  8  2  0
  7 20  1  0
  8  9  1  0
  9 10  2  0
 10 11  1  0
 10 18  1  0
 11 12  2  3
 12 13  1  0
 13 14  2  0
 13 17  1  0
 14 15  1  0
 15 16  2  0
 16 17  1  0
 18 19  1  0
 18 20  2  0
 21 22  1  0
 21 25  1  0
 22 23  2  0
 23 24  1  0
 24 25  1  0
 25 26  2  0
M  END
