
     RDKit          3D

 26 29  0  0  0  0  0  0  0  0999 V2000
   -2.4000   -4.5410   -1.0430 C   0  0  0  0  0  0  0  0  0  0  0  0
   -3.5370   -4.1710   -1.7260 C   0  0  0  0  0  0  0  0  0  0  0  0
   -3.8150   -2.8980   -1.4190 N   0  0  0  0  0  0  0  0  0  0  0  0
   -2.8830   -2.4830   -0.5720 C   0  0  0  0  0  0  0  0  0  0  0  0
   -2.7530   -1.1070    0.0750 C   0  0  2  0  0  0  0  0  0  0  0  0
   -3.6880   -0.1750   -0.6480 C   0  0  0  0  0  0  0  0  0  0  0  0
   -3.7250    1.1730   -0.2020 N   0  0  0  0  0  0  0  0  0  0  0  0
   -4.5290    1.6680    0.7500 C   0  0  0  0  0  0  0  0  0  0  0  0
   -4.2910    2.9850    0.8770 N   0  0  0  0  0  0  0  0  0  0  0  0
   -3.3400    3.3260    0.0100 C   0  0  0  0  0  0  0  0  0  0  0  0
   -3.0060    2.2120   -0.6400 N   0  0  0  0  0  0  0  0  0  0  0  0
   -1.3580   -0.7090   -0.0230 N   0  0  0  0  0  0  0  0  0  0  0  0
   -0.8340    0.2960    0.8210 C   0  0  0  0  0  0  0  0  0  0  0  0
   -1.5480    0.8740    1.7750 N   0  0  0  0  0  0  0  0  0  0  0  0
   -1.0880    1.8100    2.6210 C   0  0  0  0  0  0  0  0  0  0  0  0
    0.2190    2.1910    2.4850 C   0  0  0  0  0  0  0  0  0  0  0  0
    0.9790    1.6310    1.5320 N   0  0  0  0  0  0  0  0  0  0  0  0
    0.4800    0.6760    0.6810 C   0  0  0  0  0  0  0  0  0  0  0  0
    1.3260    0.1240   -0.3040 N   0  0  0  0  0  0  0  0  0  0  0  0
    2.7050    0.5940   -0.3700 C   0  0  2  0  0  0  0  0  0  0  0  0
    3.4980   -0.0620   -1.4490 C   0  0  0  0  0  0  0  0  0  0  0  0
    4.8130    0.6800   -1.5750 C   0  0  0  0  0  0  0  0  0  0  0  0
    5.5780    0.5330   -0.2820 C   0  0  0  0  0  0  0  0  0  0  0  0
    4.7640   -0.1180    0.8030 C   0  0  0  0  0  0  0  0  0  0  0  0
    3.3990    0.4800    0.9680 C   0  0  0  0  0  0  0  0  0  0  0  0
   -2.0130   -3.4540   -0.3240 N   0  0  0  0  0  0  0  0  0  0  0  0
  1  2  2  0
  1 26  1  0
  2  3  1  0
  3  4  1  0
  4  5  1  0
  4 26  2  0
  5  6  1  6
  5 12  1  0
  6  7  1  0
  7  8  1  0
  7 11  1  0
  8  9  2  0
  9 10  1  0
 10 11  2  0
 12 13  1  0
 13 14  2  0
 13 18  1  0
 14 15  1  0
 15 16  2  0
 16 17  1  0
 17 18  2  0
 18 19  1  0
 20 19  1  1
 20 21  1  0
 20 25  1  0
 21 22  1  0
 22 23  1  0
 23 24  1  0
 24 25  1  0
M  END
