
     RDKit          3D

 40 44  0  0  0  0  0  0  0  0999 V2000
    5.8760   -0.1780    1.3990 C   0  0  0  0  0  0  0  0  0  0  0  0
    5.9050   -1.0430    0.1150 C   0  0  1  0  0  0  0  0  0  0  0  0
    7.3500   -1.5210    0.0080 C   0  0  0  0  0  0  0  0  0  0  0  0
    7.4810   -2.3400   -1.1760 N   0  0  0  0  0  0  0  0  0  0  0  0
    5.0290   -2.1710    0.2640 N   0  0  0  0  0  0  0  0  0  0  0  0
    3.6630   -1.8900    0.4670 C   0  0  0  0  0  0  0  0  0  0  0  0
    2.9200   -1.3290   -0.6800 C   0  0  0  0  0  0  0  0  0  0  0  0
    3.2300   -1.0510   -1.8930 C   0  0  0  0  0  0  0  0  0  0  0  0
    2.0760   -0.4930   -2.6280 C   0  0  0  0  0  0  0  0  0  0  0  0
    1.0450   -0.4450   -1.8020 C   0  0  0  0  0  0  0  0  0  0  0  0
   -0.2480    0.0560   -2.1820 N   0  0  0  0  0  0  0  0  0  0  0  0
   -1.3190   -0.1140   -1.4210 C   0  0  0  0  0  0  0  0  0  0  0  0
   -1.3780   -1.0040   -0.2720 C   0  0  0  0  0  0  0  0  0  0  0  0
   -1.1670   -0.6630    1.0390 C   0  0  0  0  0  0  0  0  0  0  0  0
   -1.3020   -1.5470    2.0820 C   0  0  0  0  0  0  0  0  0  0  0  0
   -1.6750   -2.8880    1.8550 C   0  0  0  0  0  0  0  0  0  0  0  0
   -1.8790   -3.2110    0.5510 C   0  0  0  0  0  0  0  0  0  0  0  0
   -1.7520   -2.3550   -0.4960 C   0  0  0  0  0  0  0  0  0  0  0  0
   -2.5410    0.5170   -1.7960 C   0  0  0  0  0  0  0  0  0  0  0  0
   -3.6310    0.3530   -0.8220 C   0  0  0  0  0  0  0  0  0  0  0  0
   -4.3480   -0.6080   -0.8490 O   0  0  0  0  0  0  0  0  0  0  0  0
   -3.7080    1.4560    0.1260 N   0  0  0  0  0  0  0  0  0  0  0  0
   -2.7330    2.5430    0.0270 C   0  0  0  0  0  0  0  0  0  0  0  0
   -2.3390    3.0990    1.3500 C   0  0  0  0  0  0  0  0  0  0  0  0
   -3.5760    3.5650    2.0900 C   0  0  0  0  0  0  0  0  0  0  0  0
   -4.6340    2.5230    2.0650 C   0  0  0  0  0  0  0  0  0  0  0  0
   -5.5980    2.6230    3.0750 C   0  0  0  0  0  0  0  0  0  0  0  0
   -5.5410    3.6080    3.9980 F   0  0  0  0  0  0  0  0  0  0  0  0
   -6.6130    1.7020    3.1180 C   0  0  0  0  0  0  0  0  0  0  0  0
   -6.6970    0.7020    2.2050 C   0  0  0  0  0  0  0  0  0  0  0  0
   -7.7080   -0.1850    2.2720 F   0  0  0  0  0  0  0  0  0  0  0  0
   -5.7370    0.6030    1.2000 C   0  0  0  0  0  0  0  0  0  0  0  0
   -4.6960    1.5140    1.1230 C   0  0  0  0  0  0  0  0  0  0  0  0
   -2.6310    1.2870   -2.9250 C   0  0  0  0  0  0  0  0  0  0  0  0
   -1.5180    1.4450   -3.6920 C   0  0  0  0  0  0  0  0  0  0  0  0
   -1.5730    2.2890   -4.9210 C   0  0  0  0  0  0  0  0  0  0  0  0
   -1.5960    2.9020   -5.8300 N   0  0  0  0  0  0  0  0  0  0  0  0
   -0.3450    0.8300   -3.3110 C   0  0  0  0  0  0  0  0  0  0  0  0
    0.6440    1.0170   -4.0590 O   0  0  0  0  0  0  0  0  0  0  0  0
    1.4570   -0.9550   -0.4830 C   0  0  0  0  0  0  0  0  0  0  0  0
  2  1  1  1
  2  3  1  0
  2  5  1  0
  3  4  1  0
  5  6  1  0
  6  7  1  0
  7  8  2  0
  7 40  1  0
  8  9  1  0
  9 10  2  0
 10 11  1  0
 10 40  1  0
 11 12  1  0
 11 38  1  0
 12 13  1  0
 12 19  2  0
 13 14  2  0
 13 18  1  0
 14 15  1  0
 15 16  2  0
 16 17  1  0
 17 18  2  0
 19 20  1  0
 19 34  1  0
 20 21  2  0
 20 22  1  0
 22 23  1  0
 22 33  1  0
 23 24  1  0
 24 25  1  0
 25 26  1  0
 26 27  2  0
 26 33  1  0
 27 28  1  0
 27 29  1  0
 29 30  2  0
 30 31  1  0
 30 32  1  0
 32 33  2  0
 34 35  2  0
 35 36  1  0
 35 38  1  0
 36 37  3  0
 38 39  2  0
M  CHG  1   4   1
M  END
