
     RDKit          3D

 41 46  0  0  0  0  0  0  0  0999 V2000
   -7.2630    4.5310    0.5310 C   0  0  0  0  0  0  0  0  0  0  0  0
   -6.6360    3.9950   -0.7420 C   0  0  0  0  0  0  0  0  0  0  0  0
   -5.1240    4.0410   -0.6700 C   0  0  0  0  0  0  0  0  0  0  0  0
   -4.7270    3.1650    0.5350 C   0  0  1  0  0  0  0  0  0  0  0  0
   -5.1860    1.8010    0.3500 C   0  0  0  0  0  0  0  0  0  0  0  0
   -4.3870    0.6970    0.7480 N   0  0  0  0  0  0  0  0  0  0  0  0
   -3.0080    0.4850    0.4770 C   0  0  0  0  0  0  0  0  0  0  0  0
   -2.6170   -0.8670    0.5270 C   0  0  0  0  0  0  0  0  0  0  0  0
   -1.3140   -1.2120    0.2790 C   0  0  0  0  0  0  0  0  0  0  0  0
   -0.9540   -2.5780    0.2550 N   0  0  0  0  0  0  0  0  0  0  0  0
   -1.7070   -3.6520    0.7810 C   0  0  0  0  0  0  0  0  0  0  0  0
   -2.8310   -3.4460    1.4850 N   0  0  0  0  0  0  0  0  0  0  0  0
   -3.5690   -4.3700    2.0560 N   0  0  0  0  0  0  0  0  0  0  0  0
   -3.2240   -5.6700    1.9680 C   0  0  0  0  0  0  0  0  0  0  0  0
   -2.0860   -5.9590    1.2630 C   0  0  0  0  0  0  0  0  0  0  0  0
   -1.7210   -7.2920    1.1570 C   0  0  0  0  0  0  0  0  0  0  0  0
   -0.5980   -7.6310    0.4580 C   0  0  0  0  0  0  0  0  0  0  0  0
    0.1800   -6.6790   -0.1450 C   0  0  0  0  0  0  0  0  0  0  0  0
   -0.1750   -5.3330   -0.0450 C   0  0  0  0  0  0  0  0  0  0  0  0
    0.6240   -4.4590   -0.6710 F   0  0  0  0  0  0  0  0  0  0  0  0
   -1.3000   -4.9810    0.6550 C   0  0  0  0  0  0  0  0  0  0  0  0
   -0.3620   -0.2150   -0.0260 C   0  0  0  0  0  0  0  0  0  0  0  0
    0.9850   -0.6150   -0.2190 N   0  0  0  0  0  0  0  0  0  0  0  0
    2.0090    0.2330   -0.6870 C   0  0  0  0  0  0  0  0  0  0  0  0
    1.8200    1.4160   -0.9790 O   0  0  0  0  0  0  0  0  0  0  0  0
    3.3870   -0.3260   -0.8360 C   0  0  0  0  0  0  0  0  0  0  0  0
    4.2570    0.7440   -1.3330 N   0  0  2  0  0  0  0  0  0  0  0  0
    5.3360    0.1280   -2.0270 C   0  0  0  0  0  0  0  0  0  0  0  0
    6.3270   -0.4250   -0.9920 C   0  0  0  0  0  0  0  0  0  0  0  0
    6.8780    0.7600   -0.3260 C   0  0  0  0  0  0  0  0  0  0  0  0
    8.2140    0.8630   -0.0480 C   0  0  0  0  0  0  0  0  0  0  0  0
    8.7210    2.0110    0.5890 C   0  0  0  0  0  0  0  0  0  0  0  0
    7.8540    3.0370    0.9310 C   0  0  0  0  0  0  0  0  0  0  0  0
    6.5110    2.9330    0.6510 C   0  0  0  0  0  0  0  0  0  0  0  0
    5.6870    3.9500    0.9960 F   0  0  0  0  0  0  0  0  0  0  0  0
    6.0280    1.7790    0.0160 C   0  0  0  0  0  0  0  0  0  0  0  0
    4.5860    1.6500   -0.2890 C   0  0  0  0  0  0  0  0  0  0  0  0
   -0.7850    1.0920   -0.0650 C   0  0  0  0  0  0  0  0  0  0  0  0
   -2.1060    1.4730    0.1830 C   0  0  0  0  0  0  0  0  0  0  0  0
   -2.3280    2.8500    0.0940 O   0  0  0  0  0  0  0  0  0  0  0  0
   -3.3370    3.4940    0.8670 C   0  0  0  0  0  0  0  0  0  0  0  0
  1  2  1  0
  2  3  1  0
  4  3  1  6
  4  5  1  0
  4 41  1  0
  5  6  1  0
  6  7  1  0
  7  8  2  0
  7 39  1  0
  8  9  1  0
  9 10  1  0
  9 22  2  0
 10 11  1  0
 11 12  2  0
 11 21  1  0
 12 13  1  0
 13 14  2  0
 14 15  1  0
 15 16  2  0
 15 21  1  0
 16 17  1  0
 17 18  2  0
 18 19  1  0
 19 20  1  0
 19 21  2  0
 22 23  1  0
 22 38  1  0
 23 24  1  0
 24 25  2  0
 24 26  1  0
 27 26  1  1
 27 28  1  0
 27 37  1  0
 28 29  1  0
 29 30  1  0
 30 31  2  0
 30 36  1  0
 31 32  1  0
 32 33  2  0
 33 34  1  0
 34 35  1  0
 34 36  2  0
 36 37  1  0
 38 39  2  0
 39 40  1  0
 40 41  1  0
M  CHG  1  27   1
M  END
