
     RDKit          3D

 41 45  0  0  0  0  0  0  0  0999 V2000
    6.7720    3.5480    1.0070 N   0  0  0  0  0  0  0  0  0  0  0  0
    5.7840    2.5370    1.0330 C   0  0  0  0  0  0  0  0  0  0  0  0
    6.0080    1.2640    0.5440 C   0  0  0  0  0  0  0  0  0  0  0  0
    5.0560    0.2670    0.5610 C   0  0  0  0  0  0  0  0  0  0  0  0
    3.8140    0.5310    1.0870 C   0  0  0  0  0  0  0  0  0  0  0  0
    2.5810   -0.6700    1.1350 S   0  0  2  0  0  0  0  0  0  0  0  0
    1.7030   -0.5630    2.3440 O   0  0  0  0  0  0  0  0  0  0  0  0
    3.2830   -2.0180    1.2380 O   0  0  0  0  0  0  0  0  0  0  0  0
    1.5860   -0.6670   -0.2690 N   0  0  0  0  0  0  0  0  0  0  0  0
    2.3710   -0.9490   -1.4120 C   0  0  0  0  0  0  0  0  0  0  0  0
    2.4170   -2.4170   -1.6010 C   0  0  0  0  0  0  0  0  0  0  0  0
    3.2180   -2.9910   -2.5610 C   0  0  0  0  0  0  0  0  0  0  0  0
    3.2610   -4.3640   -2.7390 C   0  0  0  0  0  0  0  0  0  0  0  0
    2.4920   -5.1710   -1.9460 C   0  0  0  0  0  0  0  0  0  0  0  0
    1.6800   -4.6250   -0.9780 C   0  0  0  0  0  0  0  0  0  0  0  0
    1.6600   -3.2560   -0.8250 C   0  0  0  0  0  0  0  0  0  0  0  0
    0.6770    0.4100   -0.3030 C   0  0  1  0  0  0  0  0  0  0  0  0
    0.8400    1.4160   -1.3910 C   0  0  0  0  0  0  0  0  0  0  0  0
   -0.1600    1.1220   -2.3650 N   0  0  0  0  0  0  0  0  0  0  0  0
   -1.0990    0.2510   -1.8000 C   0  0  0  0  0  0  0  0  0  0  0  0
   -0.7650    0.0050   -0.3760 C   0  0  2  0  0  0  0  0  0  0  0  0
   -1.5530    0.6820    0.6010 N   0  0  0  0  0  0  0  0  0  0  0  0
   -2.4530    1.6670    0.1800 C   0  0  0  0  0  0  0  0  0  0  0  0
   -2.6120    2.8050    1.1360 C   0  0  0  0  0  0  0  0  0  0  0  0
   -3.5370    3.7660    0.7720 C   0  0  0  0  0  0  0  0  0  0  0  0
   -3.7960    4.8780    1.5480 C   0  0  0  0  0  0  0  0  0  0  0  0
   -3.0880    5.0070    2.7250 C   0  0  0  0  0  0  0  0  0  0  0  0
   -2.1600    4.0570    3.1060 C   0  0  0  0  0  0  0  0  0  0  0  0
   -1.9190    2.9410    2.2980 C   0  0  0  0  0  0  0  0  0  0  0  0
   -2.3390   -0.4500    1.6070 S   0  0  1  0  0  0  0  0  0  0  0  0
   -1.2730   -1.3090    2.2660 O   0  0  0  0  0  0  0  0  0  0  0  0
   -3.0830    0.2010    2.7390 O   0  0  0  0  0  0  0  0  0  0  0  0
   -3.4470   -1.5020    0.7590 C   0  0  0  0  0  0  0  0  0  0  0  0
   -3.0780   -2.7260    0.2410 C   0  0  0  0  0  0  0  0  0  0  0  0
   -4.0110   -3.4970   -0.4180 C   0  0  0  0  0  0  0  0  0  0  0  0
   -5.3200   -3.0970   -0.5880 C   0  0  0  0  0  0  0  0  0  0  0  0
   -6.2840   -3.9000   -1.2720 N   0  0  0  0  0  0  0  0  0  0  0  0
   -5.6490   -1.8640   -0.0530 C   0  0  0  0  0  0  0  0  0  0  0  0
   -4.7530   -1.0590    0.6130 C   0  0  0  0  0  0  0  0  0  0  0  0
    3.5660    1.7870    1.5800 C   0  0  0  0  0  0  0  0  0  0  0  0
    4.5270    2.7900    1.5620 C   0  0  0  0  0  0  0  0  0  0  0  0
  1  2  1  0
  2  3  2  0
  2 41  1  0
  3  4  1  0
  4  5  2  0
  5  6  1  0
  5 40  1  0
  6  7  2  0
  6  8  2  0
  6  9  1  6
  9 10  1  0
 17  9  1  6
 10 11  1  0
 11 12  2  0
 11 16  1  0
 12 13  1  0
 13 14  2  0
 14 15  1  0
 15 16  2  0
 17 18  1  0
 17 21  1  0
 18 19  1  0
 19 20  1  0
 20 21  1  0
 21 22  1  1
 22 23  1  0
 30 22  1  6
 23 24  1  0
 24 25  2  0
 24 29  1  0
 25 26  1  0
 26 27  2  0
 27 28  1  0
 28 29  2  0
 30 31  2  0
 30 32  2  0
 30 33  1  0
 33 34  2  0
 33 39  1  0
 34 35  1  0
 35 36  2  0
 36 37  1  0
 36 38  1  0
 38 39  2  0
 40 41  2  0
M  CHG  1  19   1
M  END
