
     RDKit          3D

 41 46  0  0  0  0  0  0  0  0999 V2000
   -3.8330   -1.9280   -2.6130 C   0  0  0  0  0  0  0  0  0  0  0  0
   -4.8130   -1.7850   -1.6590 O   0  0  0  0  0  0  0  0  0  0  0  0
   -5.4380   -0.5620   -1.6500 C   0  0  0  0  0  0  0  0  0  0  0  0
   -4.4700    0.5320   -1.3280 C   0  0  1  0  0  0  0  0  0  0  0  0
   -5.2190    1.8400   -1.0210 C   0  0  0  0  0  0  0  0  0  0  0  0
   -5.8380    1.5840    0.2820 C   0  0  1  0  0  0  0  0  0  0  0  0
   -7.2750    1.3710    0.3520 C   0  0  0  0  0  0  0  0  0  0  0  0
   -8.1700    1.5090   -0.6530 C   0  0  0  0  0  0  0  0  0  0  0  0
   -9.5040    1.2930   -0.4780 C   0  0  0  0  0  0  0  0  0  0  0  0
   -9.9670    0.9190    0.7630 C   0  0  0  0  0  0  0  0  0  0  0  0
   -9.1040    0.7620    1.8230 C   0  0  0  0  0  0  0  0  0  0  0  0
   -7.7650    0.9900    1.6070 C   0  0  0  0  0  0  0  0  0  0  0  0
   -6.9410    0.8250    2.6770 F   0  0  0  0  0  0  0  0  0  0  0  0
   -5.0120    0.4370    0.8880 C   0  0  0  0  0  0  0  0  0  0  0  0
   -3.8880    0.3110   -0.0290 N   0  0  0  0  0  0  0  0  0  0  0  0
   -2.5580    0.0510    0.2940 C   0  0  0  0  0  0  0  0  0  0  0  0
   -2.1070   -0.2090    1.5970 C   0  0  0  0  0  0  0  0  0  0  0  0
   -0.7810   -0.3970    1.5540 N   0  0  0  0  0  0  0  0  0  0  0  0
   -0.3520   -0.2690    0.2740 C   0  0  0  0  0  0  0  0  0  0  0  0
    1.0590   -0.4090   -0.1090 C   0  0  0  0  0  0  0  0  0  0  0  0
    2.0360   -0.6360    0.8440 C   0  0  0  0  0  0  0  0  0  0  0  0
    3.3840   -0.7780    0.5150 C   0  0  0  0  0  0  0  0  0  0  0  0
    4.3100   -1.0610    1.5700 C   0  0  0  0  0  0  0  0  0  0  0  0
    5.0580   -1.2900    2.4190 N   0  0  0  0  0  0  0  0  0  0  0  0
    3.7940   -0.6940   -0.7970 C   0  0  0  0  0  0  0  0  0  0  0  0
    5.1210   -0.7670   -1.2180 N   0  0  0  0  0  0  0  0  0  0  0  0
    6.2920   -0.7880   -0.4200 C   0  0  0  0  0  0  0  0  0  0  0  0
    7.1300   -1.8710   -0.3590 C   0  0  0  0  0  0  0  0  0  0  0  0
    8.2760   -1.7910    0.3930 C   0  0  0  0  0  0  0  0  0  0  0  0
    9.1260   -2.8690    0.4650 F   0  0  0  0  0  0  0  0  0  0  0  0
    8.6130   -0.6450    1.0950 C   0  0  0  0  0  0  0  0  0  0  0  0
    7.7850    0.4660    1.0520 C   0  0  0  0  0  0  0  0  0  0  0  0
    6.6500    0.3460    0.2890 C   0  0  0  0  0  0  0  0  0  0  0  0
    8.3630    1.5550    1.8810 C   0  0  0  0  0  0  0  0  0  0  0  0
    9.2000    0.7410    2.8760 C   0  0  0  0  0  0  0  0  0  0  0  0
    9.7750   -0.3240    1.9610 C   0  0  0  0  0  0  0  0  0  0  0  0
    2.8240   -0.4720   -1.7210 N   0  0  0  0  0  0  0  0  0  0  0  0
    3.2290   -0.3810   -3.1150 C   0  0  0  0  0  0  0  0  0  0  0  0
    1.5140   -0.3340   -1.4040 C   0  0  0  0  0  0  0  0  0  0  0  0
    0.6820   -0.1300   -2.3260 O   0  0  0  0  0  0  0  0  0  0  0  0
   -1.4290   -0.0040   -0.4460 N   0  0  0  0  0  0  0  0  0  0  0  0
  1  2  1  0
  2  3  1  0
  4  3  1  1
  4  5  1  0
  4 15  1  0
  5  6  1  0
  6  7  1  6
  6 14  1  0
  7  8  2  0
  7 12  1  0
  8  9  1  0
  9 10  2  0
 10 11  1  0
 11 12  2  0
 12 13  1  0
 14 15  1  0
 15 16  1  0
 16 17  2  0
 16 41  1  0
 17 18  1  0
 18 19  1  0
 19 20  1  0
 19 41  2  0
 20 21  2  0
 20 39  1  0
 21 22  1  0
 22 23  1  0
 22 25  2  0
 23 24  3  0
 25 26  1  0
 25 37  1  0
 26 27  1  0
 27 28  2  0
 27 33  1  0
 28 29  1  0
 29 30  1  0
 29 31  2  0
 31 32  1  0
 31 36  1  0
 32 33  2  0
 32 34  1  0
 34 35  1  0
 35 36  1  0
 37 38  1  0
 37 39  1  0
 39 40  2  0
M  CHG  1  41   1
M  END
