
     RDKit          3D

 41 45  0  0  0  0  0  0  0  0999 V2000
    1.2740   -2.6630    3.4780 C   0  0  0  0  0  0  0  0  0  0  0  0
    0.9280   -2.1530    2.1570 C   0  0  0  0  0  0  0  0  0  0  0  0
    0.1580   -2.4750    1.2580 C   0  0  0  0  0  0  0  0  0  0  0  0
   -0.8520   -3.1530    0.4430 C   0  0  0  0  0  0  0  0  0  0  0  0
   -1.1120   -2.4090   -0.6240 C   0  0  0  0  0  0  0  0  0  0  0  0
   -1.8990   -2.3370   -1.7930 C   0  0  0  0  0  0  0  0  0  0  0  0
   -1.8870   -1.0250   -2.2410 C   0  0  0  0  0  0  0  0  0  0  0  0
   -2.4150   -0.3410   -3.3320 C   0  0  0  0  0  0  0  0  0  0  0  0
   -2.8240   -0.9210   -4.5030 F   0  0  0  0  0  0  0  0  0  0  0  0
   -2.4920    1.0070   -3.2300 C   0  0  0  0  0  0  0  0  0  0  0  0
   -2.0640    1.6510   -1.9960 C   0  0  0  0  0  0  0  0  0  0  0  0
   -2.1690    2.9220   -1.7220 C   0  0  0  0  0  0  0  0  0  0  0  0
   -1.7440    3.4850   -0.5070 N   0  0  0  0  0  0  0  0  0  0  0  0
   -0.9830    2.9800    0.4900 C   0  0  0  0  0  0  0  0  0  0  0  0
   -0.8950    3.8590    1.5380 N   0  0  0  0  0  0  0  0  0  0  0  0
   -1.6270    4.9750    1.2030 C   0  0  0  0  0  0  0  0  0  0  0  0
   -2.1200    4.7100   -0.0100 C   0  0  0  0  0  0  0  0  0  0  0  0
   -3.0200    5.8480   -0.3890 C   0  0  0  0  0  0  0  0  0  0  0  0
   -2.4000    7.0220    0.3490 C   0  0  0  0  0  0  0  0  0  0  0  0
   -1.9930    6.3620    1.6740 C   0  0  0  0  0  0  0  0  0  0  0  0
   -2.7730   -3.1580   -2.4410 C   0  0  0  0  0  0  0  0  0  0  0  0
   -4.1420   -2.8250   -2.5240 N   0  0  0  0  0  0  0  0  0  0  0  0
   -5.1240   -3.3120   -3.0500 C   0  0  0  0  0  0  0  0  0  0  0  0
   -6.3200   -2.9590   -3.0910 O   0  0  0  0  0  0  0  0  0  0  0  0
   -4.9260   -4.5730   -3.8110 C   0  0  0  0  0  0  0  0  0  0  0  0
   -6.1100   -5.3920   -4.0850 C   0  0  0  0  0  0  0  0  0  0  0  0
   -6.8570   -5.9100   -4.2640 N   0  0  0  0  0  0  0  0  0  0  0  0
   -3.6230   -4.9710   -3.8010 C   0  0  0  0  0  0  0  0  0  0  0  0
   -2.6000   -4.3760   -3.1980 C   0  0  0  0  0  0  0  0  0  0  0  0
   -1.3090   -4.8130   -3.1730 F   0  0  0  0  0  0  0  0  0  0  0  0
    1.6100   -0.7750    1.7520 C   0  0  0  0  0  0  0  0  0  0  0  0
    2.8930   -0.8610    1.6390 O   0  0  0  0  0  0  0  0  0  0  0  0
    4.1460   -0.8090    1.8870 C   0  0  0  0  0  0  0  0  0  0  0  0
    5.1150   -1.2080    0.9690 C   0  0  0  0  0  0  0  0  0  0  0  0
    6.4630   -1.1500    1.1950 C   0  0  0  0  0  0  0  0  0  0  0  0
    6.9160   -0.6550    2.4360 C   0  0  0  0  0  0  0  0  0  0  0  0
    8.1320   -0.4360    2.9640 N   0  0  0  0  0  0  0  0  0  0  0  0
    7.9910    0.1070    4.2240 C   0  0  0  0  0  0  0  0  0  0  0  0
    6.6880    0.1960    4.4260 N   0  0  0  0  0  0  0  0  0  0  0  0
    5.9950   -0.2600    3.3530 C   0  0  0  0  0  0  0  0  0  0  0  0
    4.6580   -0.3190    3.1310 C   0  0  0  0  0  0  0  0  0  0  0  0
  1  2  1  0
  2  3  2  3
  2 31  1  0
  3  4  1  0
  4  5  2  3
  5  6  1  0
  6  7  2  3
  6 21  1  0
  7  8  1  0
  8  9  1  0
  8 10  2  3
 10 11  1  0
 11 12  2  3
 12 13  1  0
 13 14  1  0
 13 17  1  0
 14 15  2  0
 15 16  1  0
 16 17  2  0
 16 20  1  0
 17 18  1  0
 18 19  1  0
 19 20  1  0
 21 22  1  0
 21 29  2  0
 22 23  1  0
 23 24  2  0
 23 25  1  0
 25 26  1  0
 25 28  2  0
 26 27  3  0
 28 29  1  0
 29 30  1  0
 31 32  1  0
 32 33  1  0
 33 34  2  0
 33 41  1  0
 34 35  1  0
 35 36  2  0
 36 37  1  0
 36 40  1  0
 37 38  2  0
 38 39  1  0
 39 40  1  0
 40 41  2  0
M  CHG  1  37   1
M  END
