
     RDKit          3D

 40 44  0  0  0  0  0  0  0  0999 V2000
    8.1070    1.7270    2.1590 C   0  0  0  0  0  0  0  0  0  0  0  0
    7.4180    1.1210    0.9920 C   0  0  0  0  0  0  0  0  0  0  0  0
    6.0430    1.2170    0.9380 C   0  0  0  0  0  0  0  0  0  0  0  0
    5.3510    0.6760   -0.1210 C   0  0  0  0  0  0  0  0  0  0  0  0
    6.0370    0.0340   -1.1320 C   0  0  0  0  0  0  0  0  0  0  0  0
    7.4080   -0.0760   -1.1030 C   0  0  0  0  0  0  0  0  0  0  0  0
    8.0720    0.4770   -0.0270 C   0  0  0  0  0  0  0  0  0  0  0  0
    9.4190    0.3930    0.0440 F   0  0  0  0  0  0  0  0  0  0  0  0
    5.1010   -0.3790   -2.0050 N   0  0  0  0  0  0  0  0  0  0  0  0
    3.8800    0.0080   -1.5240 C   0  0  0  0  0  0  0  0  0  0  0  0
    2.7620   -0.1940   -2.0550 O   0  0  0  0  0  0  0  0  0  0  0  0
    4.0350    0.6530   -0.3730 N   0  0  0  0  0  0  0  0  0  0  0  0
    3.0180    1.2310    0.4830 C   0  0  0  0  0  0  0  0  0  0  0  0
    2.5400    0.2370    1.5120 C   0  0  0  0  0  0  0  0  0  0  0  0
    1.9400   -0.9510    0.8740 C   0  0  0  0  0  0  0  0  0  0  0  0
    2.7790   -1.9880    0.6740 N   0  0  0  0  0  0  0  0  0  0  0  0
    2.3550   -3.1060    0.0690 C   0  0  0  0  0  0  0  0  0  0  0  0
    1.0460   -3.1890   -0.3490 C   0  0  0  0  0  0  0  0  0  0  0  0
    0.1530   -2.1420   -0.1600 C   0  0  0  0  0  0  0  0  0  0  0  0
    0.5960   -1.0070    0.4580 C   0  0  0  0  0  0  0  0  0  0  0  0
   -0.2720    0.1010    0.7560 C   0  0  0  0  0  0  0  0  0  0  0  0
   -1.6550    0.0500    0.2920 N   0  0  0  0  0  0  0  0  0  0  0  0
   -2.6670   -0.5300    1.0600 C   0  0  0  0  0  0  0  0  0  0  0  0
   -2.3190   -1.3810    1.9800 O   0  0  0  0  0  0  0  0  0  0  0  0
   -4.0830   -0.2590    0.9240 C   0  0  0  0  0  0  0  0  0  0  0  0
   -4.7530    0.5930    0.1340 N   0  0  0  0  0  0  0  0  0  0  0  0
   -6.0970    0.4940    0.3190 C   0  0  0  0  0  0  0  0  0  0  0  0
   -7.1590    1.2640   -0.3630 C   0  0  0  0  0  0  0  0  0  0  0  0
   -6.2900   -0.4640    1.2700 C   0  0  0  0  0  0  0  0  0  0  0  0
   -7.6170   -0.9290    1.8140 C   0  0  0  0  0  0  0  0  0  0  0  0
   -5.0740   -0.9410    1.6580 C   0  0  0  0  0  0  0  0  0  0  0  0
   -4.8160   -1.9900    2.6670 C   0  0  0  0  0  0  0  0  0  0  0  0
   -1.9000    0.7380   -0.9140 C   0  0  0  0  0  0  0  0  0  0  0  0
   -1.6070    2.1230   -0.9140 C   0  0  0  0  0  0  0  0  0  0  0  0
   -1.7490    2.9450   -1.9760 C   0  0  0  0  0  0  0  0  0  0  0  0
   -2.2210    2.3840   -3.1660 C   0  0  0  0  0  0  0  0  0  0  0  0
   -2.3560    3.2260   -4.2210 F   0  0  0  0  0  0  0  0  0  0  0  0
   -2.5210    1.0540   -3.2270 C   0  0  0  0  0  0  0  0  0  0  0  0
   -2.3580    0.2430   -2.0980 C   0  0  0  0  0  0  0  0  0  0  0  0
   -2.7170   -1.1970   -2.1970 C   0  0  0  0  0  0  0  0  0  0  0  0
  1  2  1  0
  2  3  2  0
  2  7  1  0
  3  4  1  0
  4  5  2  0
  4 12  1  0
  5  6  1  0
  5  9  1  0
  6  7  2  0
  7  8  1  0
  9 10  1  0
 10 11  2  0
 10 12  1  0
 12 13  1  0
 13 14  1  0
 14 15  1  0
 15 16  2  0
 15 20  1  0
 16 17  1  0
 17 18  2  0
 18 19  1  0
 19 20  2  0
 20 21  1  0
 21 22  1  0
 22 23  1  0
 22 33  1  0
 23 24  2  0
 23 25  1  0
 25 26  1  0
 25 31  2  0
 26 27  1  0
 27 28  1  0
 27 29  2  0
 29 30  1  0
 29 31  1  0
 31 32  1  0
 33 34  2  0
 33 39  1  0
 34 35  1  0
 35 36  2  0
 36 37  1  0
 36 38  1  0
 38 39  2  0
 39 40  1  0
M  CHG  1  16   1
M  END
