
     RDKit          3D

 11 11  0  0  0  0  0  0  0  0999 V2000
   -1.6560   -1.2330    1.1520 C   0  0  0  0  0  0  0  0  0  0  0  0
   -1.6060   -0.5690   -0.1730 C   0  0  1  0  0  0  0  0  0  0  0  0
   -2.3630    0.6280   -0.0730 O   0  0  0  0  0  0  0  0  0  0  0  0
   -1.7070    1.2330    0.8800 O   0  0  0  0  0  0  0  0  0  0  0  0
   -0.3930    1.2880    0.4520 C   0  0  1  0  0  0  0  0  0  0  0  0
    0.4960    1.3390    1.5230 O   0  0  0  0  0  0  0  0  0  0  0  0
   -0.2410    0.1050   -0.4390 C   0  0  2  0  0  0  0  0  0  0  0  0
   -0.3090    0.5660   -1.8130 N   0  0  0  0  0  0  0  0  0  0  0  0
    0.8500   -0.8340   -0.1660 C   0  0  0  0  0  0  0  0  0  0  0  0
    2.2480   -0.3970   -0.3830 C   0  0  0  0  0  0  0  0  0  0  0  0
    2.6760    0.6870    0.3580 O   0  0  0  0  0  0  0  0  0  0  0  0
  2  1  1  1
  2  3  1  0
  2  7  1  0
  3  4  1  0
  4  5  1  0
  5  6  1  1
  5  7  1  0
  7  8  1  6
  7  9  1  0
  9 10  1  0
 10 11  1  0
M  CHG  1   8   1
M  END
