
     RDKit          3D

 12 12  0  0  0  0  0  0  0  0999 V2000
   -0.8000   -1.3310   -0.7190 O   0  0  0  0  0  0  0  0  0  0  0  0
   -0.2530   -0.2630   -0.4210 C   0  0  0  0  0  0  0  0  0  0  0  0
   -1.0130    0.8770   -0.3460 O   0  0  0  0  0  0  0  0  0  0  0  0
   -2.3740    0.9070   -0.5860 C   0  0  0  0  0  0  0  0  0  0  0  0
   -3.2020    0.0440    0.3160 C   0  0  0  0  0  0  0  0  0  0  0  0
   -4.5440    0.2090   -0.0810 O   0  0  0  0  0  0  0  0  0  0  0  0
    1.1700   -0.2010   -0.1530 C   0  0  0  0  0  0  0  0  0  0  0  0
    1.8800   -1.3130   -0.2320 C   0  0  0  0  0  0  0  0  0  0  0  0
    3.3280   -1.3030    0.0310 C   0  0  0  0  0  0  0  0  0  0  0  0
    3.8180   -0.0430    0.3540 O   0  0  0  0  0  0  0  0  0  0  0  0
    3.0780    1.1100    0.4350 C   0  0  0  0  0  0  0  0  0  0  0  0
    1.7930    1.0760    0.1970 C   0  0  0  0  0  0  0  0  0  0  0  0
  1  2  2  0
  2  3  1  0
  2  7  1  0
  3  4  1  0
  4  5  1  0
  5  6  1  0
  7  8  2  0
  7 12  1  0
  8  9  1  0
  9 10  1  0
 10 11  1  0
 11 12  2  0
M  END
