
     RDKit          3D

 11 11  0  0  0  0  0  0  0  0999 V2000
   -1.0480   -0.8930   -1.4340 N   0  0  0  0  0  0  0  0  0  0  0  0
   -0.3720   -0.2460   -0.2960 C   0  0  2  0  0  0  0  0  0  0  0  0
   -1.4840   -0.0370    0.7440 C   0  0  1  0  0  0  0  0  0  0  0  0
   -0.9460    0.5810    1.8820 O   0  0  0  0  0  0  0  0  0  0  0  0
   -2.3880    0.8710    0.1920 O   0  0  0  0  0  0  0  0  0  0  0  0
    0.0390    1.1090   -0.7460 C   0  0  0  0  0  0  0  0  0  0  0  0
    1.3800    1.5040   -0.1430 C   0  0  0  0  0  0  0  0  0  0  0  0
    2.2750    0.5370   -0.6020 O   0  0  0  0  0  0  0  0  0  0  0  0
    2.0950   -0.6210    0.1000 C   0  0  0  0  0  0  0  0  0  0  0  0
    0.7120   -1.1220    0.2040 C   0  0  1  0  0  0  0  0  0  0  0  0
    0.4020   -1.4420    1.5480 O   0  0  0  0  0  0  0  0  0  0  0  0
  2  1  1  6
  2  3  1  0
  2  6  1  0
  2 10  1  0
  3  4  1  1
  3  5  1  0
  6  7  1  0
  7  8  1  0
  8  9  1  0
  9 10  1  0
 10 11  1  1
M  CHG  1   1   1
M  END
