
     RDKit          3D

 11 11  0  0  0  0  0  0  0  0999 V2000
   -1.2200    1.6910   -0.2930 N   0  0  0  0  0  0  0  0  0  0  0  0
   -1.0840    0.3730    0.2180 C   0  0  1  0  0  0  0  0  0  0  0  0
   -2.0870   -0.5140   -0.4630 C   0  0  0  0  0  0  0  0  0  0  0  0
   -1.9460   -1.8010    0.0430 O   0  0  0  0  0  0  0  0  0  0  0  0
    0.3010   -0.2160    0.1080 C   0  0  2  0  0  0  0  0  0  0  0  0
    0.1430   -1.5090    0.6830 O   0  0  0  0  0  0  0  0  0  0  0  0
    1.3080    0.4810    0.9570 C   0  0  0  0  0  0  0  0  0  0  0  0
    2.4620    0.8580    0.3200 O   0  0  0  0  0  0  0  0  0  0  0  0
    2.7970    0.0300   -0.7210 C   0  0  0  0  0  0  0  0  0  0  0  0
    1.8180    0.2830   -1.7110 O   0  0  0  0  0  0  0  0  0  0  0  0
    0.7060   -0.4520   -1.3050 C   0  0  0  0  0  0  0  0  0  0  0  0
  2  1  1  6
  2  3  1  0
  2  5  1  0
  3  4  1  0
  5  6  1  1
  5  7  1  0
  5 11  1  0
  7  8  1  0
  8  9  1  0
  9 10  1  0
 10 11  1  0
M  CHG  1   1   1
M  END
