
     RDKit          3D

 11 11  0  0  0  0  0  0  0  0999 V2000
    0.8670    1.6880   -0.5630 N   0  0  0  0  0  0  0  0  0  0  0  0
    0.9400    0.2440   -0.3910 C   0  0  1  0  0  0  0  0  0  0  0  0
    1.9060   -0.0090    0.7180 C   0  0  0  0  0  0  0  0  0  0  0  0
    2.0900   -1.3530    1.0080 O   0  0  0  0  0  0  0  0  0  0  0  0
   -0.4360   -0.2650   -0.2050 C   0  0  1  0  0  0  0  0  0  0  0  0
   -1.1340    0.3230    1.0040 C   0  0  0  0  0  0  0  0  0  0  0  0
   -2.4240   -0.2320    1.0750 O   0  0  0  0  0  0  0  0  0  0  0  0
   -1.2440    0.1640   -1.4210 C   0  0  0  0  0  0  0  0  0  0  0  0
   -2.0690   -0.9030   -1.6680 O   0  0  0  0  0  0  0  0  0  0  0  0
   -1.5060   -1.9930   -1.3090 O   0  0  0  0  0  0  0  0  0  0  0  0
   -0.6290   -1.7330   -0.2640 C   0  0  0  0  0  0  0  0  0  0  0  0
  2  1  1  1
  2  3  1  0
  2  5  1  0
  3  4  1  0
  5  6  1  1
  5  8  1  0
  5 11  1  0
  6  7  1  0
  8  9  1  0
  9 10  1  0
 10 11  1  0
M  CHG  1   1   1
M  END
