
     RDKit          3D

 11 11  0  0  0  0  0  0  0  0999 V2000
    3.7190   -0.3610   -0.1960 N   0  0  0  0  0  0  0  0  0  0  0  0
    2.4430    0.2520   -0.4210 C   0  0  0  0  0  0  0  0  0  0  0  0
    1.3260   -0.5680    0.2010 C   0  0  0  0  0  0  0  0  0  0  0  0
    0.1420    0.0810   -0.0550 O   0  0  0  0  0  0  0  0  0  0  0  0
   -0.9760   -0.5330    0.4420 C   0  0  2  0  0  0  0  0  0  0  0  0
   -1.9330   -0.7420   -0.7380 C   0  0  0  0  0  0  0  0  0  0  0  0
   -2.2970    0.5460   -1.0330 O   0  0  0  0  0  0  0  0  0  0  0  0
   -2.4340    1.2590    0.1250 C   0  0  2  0  0  0  0  0  0  0  0  0
   -1.6630    2.4410    0.0240 O   0  0  0  0  0  0  0  0  0  0  0  0
   -1.8300    0.4520    1.2500 C   0  0  1  0  0  0  0  0  0  0  0  0
   -2.8020   -0.2170    1.9590 O   0  0  0  0  0  0  0  0  0  0  0  0
  1  2  1  0
  2  3  1  0
  3  4  1  0
  5  4  1  6
  5  6  1  0
  5 10  1  0
  6  7  1  0
  7  8  1  0
  8  9  1  6
  8 10  1  0
 10 11  1  6
M  CHG  1   1   1
M  END
