
     RDKit          3D

 13 14  0  0  0  0  0  0  0  0999 V2000
   -1.4970    1.5910   -1.4380 O   0  0  0  0  0  0  0  0  0  0  0  0
   -2.1710    0.6070   -0.7460 C   0  0  2  0  0  0  0  0  0  0  0  0
   -2.9320   -0.2190   -1.5990 O   0  0  0  0  0  0  0  0  0  0  0  0
   -3.0710    1.1700    0.3240 C   0  0  0  0  0  0  0  0  0  0  0  0
   -2.6030    0.6950    1.5440 O   0  0  0  0  0  0  0  0  0  0  0  0
   -2.1050   -0.5680    1.2830 C   0  0  0  0  0  0  0  0  0  0  0  0
   -1.2430   -0.2960    0.0470 C   0  0  2  0  0  0  0  0  0  0  0  0
   -0.0630    0.3350    0.3940 O   0  0  0  0  0  0  0  0  0  0  0  0
    0.9900   -0.4290   -0.0480 C   0  0  1  0  0  0  0  0  0  0  0  0
    1.8590    0.3100   -1.0660 C   0  0  0  0  0  0  0  0  0  0  0  0
    3.2200   -0.2980   -0.7210 C   0  0  0  0  0  0  0  0  0  0  0  0
    3.2160   -0.1380    0.7230 N   0  0  0  0  0  0  0  0  0  0  0  0
    1.9620   -0.7960    1.0560 C   0  0  0  0  0  0  0  0  0  0  0  0
  2  1  1  6
  2  3  1  0
  2  4  1  0
  2  7  1  0
  4  5  1  0
  5  6  1  0
  6  7  1  0
  7  8  1  1
  9  8  1  1
  9 10  1  0
  9 13  1  0
 10 11  1  0
 11 12  1  0
 12 13  1  0
M  CHG  1  12   1
M  END
