
     RDKit          3D

 12 12  0  0  0  0  0  0  0  0999 V2000
    3.5530    1.1860   -0.0890 O   0  0  0  0  0  0  0  0  0  0  0  0
    3.1590   -0.1170   -0.4330 C   0  0  0  0  0  0  0  0  0  0  0  0
    2.2250   -0.6290    0.6460 C   0  0  0  0  0  0  0  0  0  0  0  0
    1.0660    0.2330    0.7330 N   0  0  0  0  0  0  0  0  0  0  0  0
    0.0700   -0.1100   -0.2970 C   0  0  1  0  0  0  0  0  0  0  0  0
   -0.8510   -1.1120    0.2400 C   0  0  0  0  0  0  0  0  0  0  0  0
   -2.2990   -0.9290   -0.0610 C   0  0  1  0  0  0  0  0  0  0  0  0
   -3.0990   -1.6510    0.8180 O   0  0  0  0  0  0  0  0  0  0  0  0
   -2.7050    0.5370   -0.0510 C   0  0  0  0  0  0  0  0  0  0  0  0
   -1.9110    1.1410   -1.2170 C   0  0  0  0  0  0  0  0  0  0  0  0
   -0.4830    1.1530   -0.8150 C   0  0  2  0  0  0  0  0  0  0  0  0
    0.2640    1.5960   -1.9330 O   0  0  0  0  0  0  0  0  0  0  0  0
  1  2  1  0
  2  3  1  0
  3  4  1  0
  5  4  1  1
  5  6  1  0
  5 11  1  0
  6  7  1  0
  7  8  1  1
  7  9  1  0
  9 10  1  0
 10 11  1  0
 11 12  1  6
M  CHG  1   4   1
M  END
