
     RDKit          3D

 12 13  0  0  0  0  0  0  0  0999 V2000
   -1.3480   -1.0940   -0.5630 N   0  0  0  0  0  0  0  0  0  0  0  0
   -0.7410   -0.7260    0.6940 C   0  0  2  0  0  0  0  0  0  0  0  0
   -1.5510    0.3810    1.2920 C   0  0  0  0  0  0  0  0  0  0  0  0
   -1.3490    1.5910    0.4210 C   0  0  0  0  0  0  0  0  0  0  0  0
   -2.2780    2.1850   -0.0870 O   0  0  0  0  0  0  0  0  0  0  0  0
    0.0520    2.0140    0.2190 C   0  0  0  0  0  0  0  0  0  0  0  0
    1.0070    0.9210   -0.0550 C   0  0  2  0  0  0  0  0  0  0  0  0
    1.1200    0.5490   -1.5230 C   0  0  0  0  0  0  0  0  0  0  0  0
    1.0480   -0.8450   -1.5820 O   0  0  0  0  0  0  0  0  0  0  0  0
    1.4410   -1.3270   -0.3520 C   0  0  2  0  0  0  0  0  0  0  0  0
    1.1130   -2.6380   -0.1980 O   0  0  0  0  0  0  0  0  0  0  0  0
    0.7080   -0.3880    0.5870 C   0  0  2  0  0  0  0  0  0  0  0  0
  2  1  1  6
  2  3  1  0
 12  2  1  6
  3  4  1  0
  4  5  2  0
  4  6  1  0
  7  6  1  6
  7  8  1  0
  7 12  1  0
  8  9  1  0
  9 10  1  0
 10 11  1  1
 10 12  1  0
M  CHG  1   1   1
M  END
