
     RDKit          3D

 12 13  0  0  0  0  0  0  0  0999 V2000
   -3.0240    0.4980   -0.1680 C   0  0  0  0  0  0  0  0  0  0  0  0
   -2.0170   -0.2470    0.7000 C   0  0  1  0  0  0  0  0  0  0  0  0
   -1.4550   -1.4200   -0.0410 C   0  0  0  0  0  0  0  0  0  0  0  0
   -0.0820   -1.4980   -0.0200 O   0  0  0  0  0  0  0  0  0  0  0  0
    0.5600   -0.4130   -0.5620 C   0  0  2  0  0  0  0  0  0  0  0  0
    2.0320   -0.5470   -0.1370 C   0  0  1  0  0  0  0  0  0  0  0  0
    2.8300    0.3470   -0.9140 N   0  0  0  0  0  0  0  0  0  0  0  0
    1.8710    0.0730    1.2590 C   0  0  0  0  0  0  0  0  0  0  0  0
    1.2850    1.2860    0.8640 O   0  0  0  0  0  0  0  0  0  0  0  0
    0.1860    0.8880    0.1070 C   0  0  2  0  0  0  0  0  0  0  0  0
   -0.9520    0.7200    1.0520 C   0  0  0  0  0  0  0  0  0  0  0  0
   -0.9880    1.3700    2.0830 O   0  0  0  0  0  0  0  0  0  0  0  0
  2  1  1  6
  2  3  1  0
  2 11  1  0
  3  4  1  0
  5  4  1  1
  5  6  1  0
  5 10  1  0
  6  7  1  6
  6  8  1  0
  8  9  1  0
 10  9  1  1
 10 11  1  0
 11 12  2  0
M  CHG  1   7   1
M  END
