
     RDKit          3D

 12 13  0  0  0  0  0  0  0  0999 V2000
   -1.6760   -1.4140    1.0850 N   0  0  0  0  0  0  0  0  0  0  0  0
   -1.1680   -0.1240    0.7150 C   0  0  2  0  0  0  0  0  0  0  0  0
   -1.9040    0.4650   -0.4860 C   0  0  2  0  0  0  0  0  0  0  0  0
   -1.8860   -0.3620   -1.5790 O   0  0  0  0  0  0  0  0  0  0  0  0
   -1.3490    1.8390   -0.7420 C   0  0  0  0  0  0  0  0  0  0  0  0
   -0.2910    2.1370    0.1480 O   0  0  0  0  0  0  0  0  0  0  0  0
    0.7030    1.2390   -0.0920 C   0  0  1  0  0  0  0  0  0  0  0  0
    1.9430    1.5590    0.3710 O   0  0  0  0  0  0  0  0  0  0  0  0
    2.7300    0.4330    0.5100 C   0  0  0  0  0  0  0  0  0  0  0  0
    2.3630   -0.6610   -0.4840 C   0  0  0  0  0  0  0  0  0  0  0  0
    0.9310   -1.1360   -0.2540 C   0  0  0  0  0  0  0  0  0  0  0  0
    0.3050   -0.0790    0.5840 C   0  0  2  0  0  0  0  0  0  0  0  0
  2  1  1  6
  2  3  1  0
  2 12  1  0
  3  4  1  6
  3  5  1  0
  5  6  1  0
  7  6  1  1
  7  8  1  0
  7 12  1  0
  8  9  1  0
  9 10  1  0
 10 11  1  0
 12 11  1  6
M  CHG  1   1   1
M  END
