
     RDKit          3D

 12 13  0  0  0  0  0  0  0  0999 V2000
    3.6630   -0.1250    0.2990 N   0  0  0  0  0  0  0  0  0  0  0  0
    2.5690    0.2030   -0.5490 C   0  0  0  0  0  0  0  0  0  0  0  0
    1.2280    0.0730    0.0710 C   0  0  1  0  0  0  0  0  0  0  0  0
    1.0430    0.8850    1.1910 O   0  0  0  0  0  0  0  0  0  0  0  0
   -0.3190    0.8650    1.4450 C   0  0  0  0  0  0  0  0  0  0  0  0
   -1.0130    0.4120    0.1830 C   0  0  1  0  0  0  0  0  0  0  0  0
   -1.3910   -1.0480    0.2400 C   0  0  0  0  0  0  0  0  0  0  0  0
   -2.8570   -1.0750   -0.1400 C   0  0  0  0  0  0  0  0  0  0  0  0
   -3.0120    0.2840   -0.8130 C   0  0  0  0  0  0  0  0  0  0  0  0
   -2.1360    1.1330   -0.1220 O   0  0  0  0  0  0  0  0  0  0  0  0
    0.1120    0.5910   -0.8160 C   0  0  2  0  0  0  0  0  0  0  0  0
   -0.0510   -0.1500   -1.9600 O   0  0  0  0  0  0  0  0  0  0  0  0
  1  2  1  0
  3  2  1  6
  3  4  1  0
  3 11  1  0
  4  5  1  0
  6  5  1  1
  6  7  1  0
  6 10  1  0
  6 11  1  0
  7  8  1  0
  8  9  1  0
  9 10  1  0
 11 12  1  6
M  CHG  1   1   1
M  END
