
     RDKit          3D

 12 13  0  0  0  0  0  0  0  0999 V2000
   -1.8340   -1.1500   -0.3740 N   0  0  0  0  0  0  0  0  0  0  0  0
   -1.1210   -0.0350   -0.9180 C   0  0  1  0  0  0  0  0  0  0  0  0
   -1.6620    1.2820   -0.3450 C   0  0  1  0  0  0  0  0  0  0  0  0
   -3.0240    1.3200   -0.4780 O   0  0  0  0  0  0  0  0  0  0  0  0
   -1.2790    1.3740    1.1110 C   0  0  0  0  0  0  0  0  0  0  0  0
    0.0740    1.2750    1.3340 O   0  0  0  0  0  0  0  0  0  0  0  0
    0.6530    0.1330    0.8450 C   0  0  2  0  0  0  0  0  0  0  0  0
    2.1470    0.2330    0.9810 C   0  0  0  0  0  0  0  0  0  0  0  0
    2.9030   -0.7730    0.1870 C   0  0  0  0  0  0  0  0  0  0  0  0
    2.4210   -0.9940   -1.0830 O   0  0  0  0  0  0  0  0  0  0  0  0
    1.0560   -1.2780   -1.0950 C   0  0  0  0  0  0  0  0  0  0  0  0
    0.3420   -0.0520   -0.6250 C   0  0  1  0  0  0  0  0  0  0  0  0
  2  1  1  1
  2  3  1  0
  2 12  1  0
  3  4  1  1
  3  5  1  0
  5  6  1  0
  6  7  1  0
  7  8  1  6
  7 12  1  0
  8  9  1  0
  9 10  1  0
 10 11  1  0
 12 11  1  1
M  CHG  1   1   1
M  END
