
     RDKit          3D

 13 14  0  0  0  0  0  0  0  0999 V2000
    2.9980    0.0280   -1.3340 O   0  0  0  0  0  0  0  0  0  0  0  0
    2.1030    0.3010   -0.2720 C   0  0  1  0  0  0  0  0  0  0  0  0
    1.0370    1.2140   -0.6950 C   0  0  0  0  0  0  0  0  0  0  0  0
   -0.2660    0.7080   -0.8940 N   0  0  2  0  0  0  0  0  0  0  0  0
   -1.2800    1.5420   -0.2280 C   0  0  0  0  0  0  0  0  0  0  0  0
   -2.5260    0.7280   -0.3760 C   0  0  0  0  0  0  0  0  0  0  0  0
   -2.0190   -0.6860   -0.1720 C   0  0  2  0  0  0  0  0  0  0  0  0
   -2.3980   -1.2360    1.0230 O   0  0  0  0  0  0  0  0  0  0  0  0
   -0.5530   -0.5810   -0.3830 C   0  0  2  0  0  0  0  0  0  0  0  0
    0.2690   -0.8010    0.8580 C   0  0  1  0  0  0  0  0  0  0  0  0
   -0.1530   -1.8830    1.6080 O   0  0  0  0  0  0  0  0  0  0  0  0
    1.6840   -1.0000    0.3180 C   0  0  2  0  0  0  0  0  0  0  0  0
    2.5400   -1.4980    1.2790 O   0  0  0  0  0  0  0  0  0  0  0  0
  2  1  1  6
  2  3  1  0
  2 12  1  0
  4  3  1  1
  4  5  1  0
  4  9  1  0
  5  6  1  0
  6  7  1  0
  7  8  1  1
  9  7  1  1
  9 10  1  0
 10 11  1  6
 10 12  1  0
 12 13  1  1
M  CHG  1   4   1
M  END
