
     RDKit          3D

 44 48  0  0  0  0  0  0  0  0999 V2000
   -8.8620    2.6730   -2.0980 C   0  0  0  0  0  0  0  0  0  0  0  0
   -8.1060    1.6550   -1.3080 C   0  0  0  0  0  0  0  0  0  0  0  0
   -8.2480    1.5620    0.0590 C   0  0  0  0  0  0  0  0  0  0  0  0
   -7.5690    0.6490    0.8030 C   0  0  0  0  0  0  0  0  0  0  0  0
   -7.7420    0.5680    2.2700 C   0  0  0  0  0  0  0  0  0  0  0  0
   -6.6750   -0.2570    0.1910 C   0  0  0  0  0  0  0  0  0  0  0  0
   -6.0490   -1.2040    1.0920 C   0  0  0  0  0  0  0  0  0  0  0  0
   -5.0320   -2.0730    0.6330 N   0  0  0  0  0  0  0  0  0  0  0  0
   -4.9020   -3.1870    1.5610 C   0  0  0  0  0  0  0  0  0  0  0  0
   -4.3830   -2.7940    2.9120 C   0  0  0  0  0  0  0  0  0  0  0  0
   -2.9350   -2.3290    2.6470 C   0  0  0  0  0  0  0  0  0  0  0  0
   -3.0690   -1.0930    1.8170 C   0  0  1  0  0  0  0  0  0  0  0  0
   -1.7290   -0.5020    1.5220 C   0  0  0  0  0  0  0  0  0  0  0  0
   -1.5250    0.7280    1.9920 C   0  0  0  0  0  0  0  0  0  0  0  0
   -0.3150    1.5550    1.8550 C   0  0  0  0  0  0  0  0  0  0  0  0
   -0.1520    2.4710    2.6960 O   0  0  0  0  0  0  0  0  0  0  0  0
    0.7180    1.4420    0.8640 N   0  0  0  0  0  0  0  0  0  0  0  0
    1.0090    0.2810    0.0800 C   0  0  0  0  0  0  0  0  0  0  0  0
    2.1350    0.4760   -0.7280 C   0  0  0  0  0  0  0  0  0  0  0  0
    2.6030   -0.5130   -1.5600 C   0  0  0  0  0  0  0  0  0  0  0  0
    3.7570   -0.3650   -2.4320 C   0  0  0  0  0  0  0  0  0  0  0  0
    4.3510   -1.3910   -2.8540 O   0  0  0  0  0  0  0  0  0  0  0  0
    4.2570    0.9020   -2.8410 N   0  0  0  0  0  0  0  0  0  0  0  0
    5.3920    1.1260   -3.6920 C   0  0  0  0  0  0  0  0  0  0  0  0
    6.6740    0.6040   -3.1680 C   0  0  0  0  0  0  0  0  0  0  0  0
    7.1210    1.1320   -1.8860 C   0  0  0  0  0  0  0  0  0  0  0  0
    6.8710    0.3710   -0.7590 C   0  0  0  0  0  0  0  0  0  0  0  0
    7.2020    0.7380    0.5160 C   0  0  0  0  0  0  0  0  0  0  0  0
    6.8930   -0.1520    1.6950 C   0  0  1  0  0  0  0  0  0  0  0  0
    5.4110   -0.4630    1.6520 C   0  0  0  0  0  0  0  0  0  0  0  0
    7.6160   -1.4940    1.5110 C   0  0  0  0  0  0  0  0  0  0  0  0
    7.8290    1.9540    0.6860 C   0  0  0  0  0  0  0  0  0  0  0  0
    8.0940    2.7380   -0.4200 C   0  0  0  0  0  0  0  0  0  0  0  0
    7.7490    2.3460   -1.7230 C   0  0  0  0  0  0  0  0  0  0  0  0
    8.0860    3.2300   -2.8680 C   0  0  0  0  0  0  0  0  0  0  0  0
    9.1840    2.7340   -3.5700 F   0  0  0  0  0  0  0  0  0  0  0  0
    1.9230   -1.7090   -1.5750 C   0  0  0  0  0  0  0  0  0  0  0  0
    0.8020   -1.9160   -0.7780 C   0  0  0  0  0  0  0  0  0  0  0  0
    0.3610   -0.9120    0.0400 C   0  0  0  0  0  0  0  0  0  0  0  0
   -0.8030   -1.2710    0.7870 N   0  0  0  0  0  0  0  0  0  0  0  0
   -3.7430   -1.3810    0.5150 C   0  0  0  0  0  0  0  0  0  0  0  0
   -6.5100   -0.1990   -1.1620 C   0  0  0  0  0  0  0  0  0  0  0  0
   -5.6600   -1.1480   -1.9270 C   0  0  0  0  0  0  0  0  0  0  0  0
   -7.2390    0.7710   -1.8900 C   0  0  0  0  0  0  0  0  0  0  0  0
  1  2  1  0
  2  3  2  0
  2 44  1  0
  3  4  1  0
  4  5  1  0
  4  6  2  0
  6  7  1  0
  6 42  1  0
  7  8  1  0
  8  9  1  0
  8 41  1  0
  9 10  1  0
 10 11  1  0
 11 12  1  0
 12 13  1  6
 12 41  1  0
 13 14  2  0
 13 40  1  0
 14 15  1  0
 15 16  2  0
 15 17  1  0
 17 18  1  0
 18 19  2  0
 18 39  1  0
 19 20  1  0
 20 21  1  0
 20 37  2  0
 21 22  2  0
 21 23  1  0
 23 24  1  0
 24 25  1  0
 25 26  1  0
 26 27  2  0
 26 34  1  0
 27 28  1  0
 28 29  1  0
 28 32  2  0
 29 30  1  6
 29 31  1  0
 32 33  1  0
 33 34  2  0
 34 35  1  0
 35 36  1  0
 37 38  1  0
 38 39  2  0
 39 40  1  0
 42 43  1  0
 42 44  2  0
M  END
