
     RDKit          3D

 44 48  0  0  0  0  0  0  0  0999 V2000
   -7.1560    1.2390   -1.3050 C   0  0  0  0  0  0  0  0  0  0  0  0
   -5.6670    1.1550   -0.9120 C   0  0  0  0  0  0  0  0  0  0  0  0
   -5.4250    0.0420   -0.0000 C   0  0  0  0  0  0  0  0  0  0  0  0
   -6.7090   -0.3340    0.7760 C   0  0  0  0  0  0  0  0  0  0  0  0
   -7.1420    0.4460    1.8150 C   0  0  0  0  0  0  0  0  0  0  0  0
   -8.2770    0.0750    2.5200 C   0  0  0  0  0  0  0  0  0  0  0  0
   -8.9670   -1.0740    2.1780 C   0  0  0  0  0  0  0  0  0  0  0  0
   -8.5430   -1.8690    1.1360 C   0  0  0  0  0  0  0  0  0  0  0  0
   -7.4140   -1.4690    0.4600 C   0  0  0  0  0  0  0  0  0  0  0  0
   -9.4690   -3.0400    0.9850 C   0  0  0  0  0  0  0  0  0  0  0  0
  -10.6740   -2.6650    1.8190 C   0  0  0  0  0  0  0  0  0  0  0  0
  -10.1890   -1.6290    2.8090 C   0  0  0  0  0  0  0  0  0  0  0  0
   -4.9810    2.1720   -1.3260 C   0  0  0  0  0  0  0  0  0  0  0  0
   -5.6330    3.2810   -2.0700 C   0  0  0  0  0  0  0  0  0  0  0  0
   -4.9580    4.3080   -2.5350 C   0  0  0  0  0  0  0  0  0  0  0  0
   -3.5760    4.4480   -2.3750 N   0  0  0  0  0  0  0  0  0  0  0  0
   -2.8480    3.4350   -1.6780 C   0  0  0  0  0  0  0  0  0  0  0  0
   -1.4760    3.5490   -1.5610 C   0  0  0  0  0  0  0  0  0  0  0  0
   -0.7540    2.5590   -0.9410 C   0  0  0  0  0  0  0  0  0  0  0  0
   -1.3850    1.4470   -0.4330 C   0  0  0  0  0  0  0  0  0  0  0  0
   -0.6900    0.3480    0.2390 C   0  0  0  0  0  0  0  0  0  0  0  0
   -0.2520   -0.7590   -0.7200 C   0  0  1  0  0  0  0  0  0  0  0  0
   -1.4480   -1.3500   -1.4140 C   0  0  0  0  0  0  0  0  0  0  0  0
    0.7210   -0.2510   -1.6790 N   0  0  0  0  0  0  0  0  0  0  0  0
    2.0470   -0.7610   -1.6970 C   0  0  0  0  0  0  0  0  0  0  0  0
    2.3580   -1.6430   -0.8820 O   0  0  0  0  0  0  0  0  0  0  0  0
    3.0070   -0.2830   -2.6200 N   0  0  0  0  0  0  0  0  0  0  0  0
    4.3570   -0.7280   -2.6860 C   0  0  0  0  0  0  0  0  0  0  0  0
    5.1770   -0.4070   -1.4890 C   0  0  0  0  0  0  0  0  0  0  0  0
    4.6650    0.3180   -0.4410 C   0  0  0  0  0  0  0  0  0  0  0  0
    5.4810    0.5960    0.6240 C   0  0  0  0  0  0  0  0  0  0  0  0
    6.8050    0.1520    0.6380 C   0  0  0  0  0  0  0  0  0  0  0  0
    7.3490   -0.5730   -0.3920 C   0  0  0  0  0  0  0  0  0  0  0  0
    8.6690   -1.0530   -0.4490 N   0  0  0  0  0  0  0  0  0  0  0  0
    9.6840   -0.8950    0.5010 C   0  0  0  0  0  0  0  0  0  0  0  0
    9.4680   -0.2660    1.5490 O   0  0  0  0  0  0  0  0  0  0  0  0
   11.0550   -1.4580    0.3200 C   0  0  0  0  0  0  0  0  0  0  0  0
   11.9100   -1.1140    1.5100 C   0  0  1  0  0  0  0  0  0  0  0  0
   12.0090    0.3910    1.6560 C   0  0  0  0  0  0  0  0  0  0  0  0
   11.3000   -1.7300    2.7360 C   0  0  0  0  0  0  0  0  0  0  0  0
    6.4960   -0.8410   -1.4590 C   0  0  0  0  0  0  0  0  0  0  0  0
    6.9900   -1.5540   -2.4980 F   0  0  0  0  0  0  0  0  0  0  0  0
   -2.7760    1.3800   -0.5760 C   0  0  0  0  0  0  0  0  0  0  0  0
   -3.5430    2.3300   -1.1740 C   0  0  0  0  0  0  0  0  0  0  0  0
  1  2  1  0
  2  3  1  0
  2 13  2  3
  3  4  1  0
  4  5  2  0
  4  9  1  0
  5  6  1  0
  6  7  2  0
  7  8  1  0
  7 12  1  0
  8  9  2  0
  8 10  1  0
 10 11  1  0
 11 12  1  0
 13 14  1  0
 13 44  1  0
 14 15  2  0
 15 16  1  0
 16 17  1  0
 17 18  2  0
 17 44  1  0
 18 19  1  0
 19 20  2  0
 20 21  1  0
 20 43  1  0
 21 22  1  0
 22 23  1  6
 22 24  1  0
 24 25  1  0
 25 26  2  0
 25 27  1  0
 27 28  1  0
 28 29  1  0
 29 30  2  0
 29 41  1  0
 30 31  1  0
 31 32  2  0
 32 33  1  0
 33 34  1  0
 33 41  2  0
 34 35  1  0
 35 36  2  0
 35 37  1  0
 37 38  1  0
 38 39  1  1
 38 40  1  0
 41 42  1  0
 43 44  2  0
M  END
