
     RDKit          3D

 45 49  0  0  0  0  0  0  0  0999 V2000
   -2.9730    5.9630    2.4340 N   0  0  0  0  0  0  0  0  0  0  0  0
   -3.9030    4.9180    2.1810 C   0  0  0  0  0  0  0  0  0  0  0  0
   -5.1200    5.1550    1.9860 O   0  0  0  0  0  0  0  0  0  0  0  0
   -3.4320    3.5450    2.1490 C   0  0  0  0  0  0  0  0  0  0  0  0
   -4.3500    2.5330    1.8400 C   0  0  0  0  0  0  0  0  0  0  0  0
   -3.9050    1.2290    1.8100 C   0  0  0  0  0  0  0  0  0  0  0  0
   -2.5750    0.9640    2.0840 C   0  0  0  0  0  0  0  0  0  0  0  0
   -2.0760   -0.7180    2.0210 S   0  0  2  0  0  0  0  0  0  0  0  0
   -3.1440   -1.6160    2.5580 O   0  0  0  0  0  0  0  0  0  0  0  0
   -0.8900   -0.8480    2.9420 O   0  0  0  0  0  0  0  0  0  0  0  0
   -1.5490   -1.1170    0.4480 N   0  0  0  0  0  0  0  0  0  0  0  0
   -2.4840   -0.9850   -0.5530 C   0  0  0  0  0  0  0  0  0  0  0  0
   -3.4570   -2.1000   -0.7860 C   0  0  0  0  0  0  0  0  0  0  0  0
   -3.4820   -3.2680   -0.1020 C   0  0  0  0  0  0  0  0  0  0  0  0
   -4.4360   -4.2360   -0.3850 C   0  0  0  0  0  0  0  0  0  0  0  0
   -5.3910   -4.0500   -1.3670 C   0  0  0  0  0  0  0  0  0  0  0  0
   -5.3650   -2.8660   -2.0600 C   0  0  0  0  0  0  0  0  0  0  0  0
   -4.4240   -1.9100   -1.7830 C   0  0  0  0  0  0  0  0  0  0  0  0
   -0.2740   -1.6230    0.3240 C   0  0  1  0  0  0  0  0  0  0  0  0
   -0.0010   -2.8970   -0.3510 C   0  0  0  0  0  0  0  0  0  0  0  0
    0.1970   -2.5670   -1.7560 N   0  0  0  0  0  0  0  0  0  0  0  0
    0.6950   -1.2200   -1.7750 C   0  0  0  0  0  0  0  0  0  0  0  0
    0.7600   -0.7110   -0.3710 C   0  0  2  0  0  0  0  0  0  0  0  0
    2.0230   -0.7230    0.2280 N   0  0  0  0  0  0  0  0  0  0  0  0
    3.0480   -1.5730   -0.2190 C   0  0  0  0  0  0  0  0  0  0  0  0
    3.6120   -2.3630    0.9060 C   0  0  0  0  0  0  0  0  0  0  0  0
    4.5940   -3.2810    0.7010 C   0  0  0  0  0  0  0  0  0  0  0  0
    5.0730   -3.9790    1.7950 C   0  0  0  0  0  0  0  0  0  0  0  0
    4.5670   -3.7550    3.0820 C   0  0  0  0  0  0  0  0  0  0  0  0
    3.5730   -2.8230    3.2800 C   0  0  0  0  0  0  0  0  0  0  0  0
    3.1160   -2.1420    2.1680 C   0  0  0  0  0  0  0  0  0  0  0  0
    2.6800    0.7260    0.7920 S   0  0  1  0  0  0  0  0  0  0  0  0
    1.9470    1.4320    1.8510 O   0  0  0  0  0  0  0  0  0  0  0  0
    4.0830    0.4480    1.3160 O   0  0  0  0  0  0  0  0  0  0  0  0
    2.8750    1.8380   -0.5590 C   0  0  0  0  0  0  0  0  0  0  0  0
    1.8130    2.6640   -0.8520 C   0  0  0  0  0  0  0  0  0  0  0  0
    1.9220    3.5590   -1.8990 C   0  0  0  0  0  0  0  0  0  0  0  0
    3.0890    3.6180   -2.6390 C   0  0  0  0  0  0  0  0  0  0  0  0
    3.2350    4.5470   -3.7420 C   0  0  0  0  0  0  0  0  0  0  0  0
    2.1130    5.3590   -4.0980 N   0  0  0  0  0  0  0  0  0  0  0  0
    4.3250    4.6200   -4.3540 O   0  0  0  0  0  0  0  0  0  0  0  0
    4.1410    2.7840   -2.3310 C   0  0  0  0  0  0  0  0  0  0  0  0
    4.0450    1.8920   -1.2950 C   0  0  0  0  0  0  0  0  0  0  0  0
   -1.6760    1.9430    2.3850 C   0  0  0  0  0  0  0  0  0  0  0  0
   -2.1220    3.2610    2.4160 C   0  0  0  0  0  0  0  0  0  0  0  0
  1  2  1  0
  2  3  2  0
  2  4  1  0
  4  5  2  0
  4 45  1  0
  5  6  1  0
  6  7  2  0
  7  8  1  0
  7 44  1  0
  8  9  2  0
  8 10  2  0
  8 11  1  6
 11 12  1  0
 19 11  1  6
 12 13  1  0
 13 14  2  0
 13 18  1  0
 14 15  1  0
 15 16  2  0
 16 17  1  0
 17 18  2  0
 19 20  1  0
 19 23  1  0
 20 21  1  0
 21 22  1  0
 22 23  1  0
 23 24  1  1
 24 25  1  0
 32 24  1  6
 25 26  1  0
 26 27  2  0
 26 31  1  0
 27 28  1  0
 28 29  2  0
 29 30  1  0
 30 31  2  0
 32 33  2  0
 32 34  2  0
 32 35  1  0
 35 36  2  0
 35 43  1  0
 36 37  1  0
 37 38  2  0
 38 39  1  0
 38 42  1  0
 39 40  1  0
 39 41  2  0
 42 43  2  0
 44 45  2  0
M  CHG  1  21   1
M  END
