
     RDKit          3D

 44 48  0  0  0  0  0  0  0  0999 V2000
  -12.0290   -0.5720    0.9200 C   0  0  0  0  0  0  0  0  0  0  0  0
  -11.1800   -0.5970    2.1720 C   0  0  0  0  0  0  0  0  0  0  0  0
   -9.9160    0.1690    2.0000 C   0  0  0  0  0  0  0  0  0  0  0  0
   -9.9420    1.5040    2.3320 C   0  0  0  0  0  0  0  0  0  0  0  0
   -8.7700    2.2030    2.1660 C   0  0  0  0  0  0  0  0  0  0  0  0
   -7.5920    1.6160    1.6860 C   0  0  0  0  0  0  0  0  0  0  0  0
   -7.5800    0.2860    1.3580 C   0  0  0  0  0  0  0  0  0  0  0  0
   -6.4610   -0.4240    0.8400 N   0  0  0  0  0  0  0  0  0  0  0  0
   -5.2840    0.1590    0.3390 C   0  0  0  0  0  0  0  0  0  0  0  0
   -5.1460    1.3940    0.3130 O   0  0  0  0  0  0  0  0  0  0  0  0
   -4.1990   -0.6560   -0.1620 N   0  0  0  0  0  0  0  0  0  0  0  0
   -2.9930   -0.0420   -0.6810 C   0  0  1  0  0  0  0  0  0  0  0  0
   -1.7520   -0.5030    0.0140 C   0  0  0  0  0  0  0  0  0  0  0  0
   -0.6420   -0.4210   -0.9460 N   0  0  0  0  0  0  0  0  0  0  0  0
    0.6250   -0.3500   -0.1470 C   0  0  0  0  0  0  0  0  0  0  0  0
    1.7350   -0.5180   -1.0970 C   0  0  0  0  0  0  0  0  0  0  0  0
    1.4250   -0.8180   -2.4380 C   0  0  0  0  0  0  0  0  0  0  0  0
    2.3960   -0.9930   -3.3870 C   0  0  0  0  0  0  0  0  0  0  0  0
    3.6950   -0.8720   -3.0080 C   0  0  0  0  0  0  0  0  0  0  0  0
    4.0370   -0.5810   -1.7060 C   0  0  0  0  0  0  0  0  0  0  0  0
    5.2230   -0.3930   -1.1550 N   0  0  0  0  0  0  0  0  0  0  0  0
    5.0840   -0.0860    0.1810 C   0  0  0  0  0  0  0  0  0  0  0  0
    6.1090    0.2360    0.8900 C   0  0  0  0  0  0  0  0  0  0  0  0
    6.4510    0.6290    2.1860 C   0  0  0  0  0  0  0  0  0  0  0  0
    5.6350    1.1370    3.1790 F   0  0  0  0  0  0  0  0  0  0  0  0
    7.7710    0.7040    2.5390 C   0  0  0  0  0  0  0  0  0  0  0  0
    8.7980    0.3720    1.5900 C   0  0  0  0  0  0  0  0  0  0  0  0
    8.8840   -0.8490    0.9440 C   0  0  0  0  0  0  0  0  0  0  0  0
    9.8810   -1.1010    0.0430 C   0  0  0  0  0  0  0  0  0  0  0  0
   10.8410   -0.1760   -0.2710 C   0  0  0  0  0  0  0  0  0  0  0  0
   10.7710    1.0580    0.3690 C   0  0  0  0  0  0  0  0  0  0  0  0
   11.8210    2.0480    0.0130 C   0  0  0  0  0  0  0  0  0  0  0  0
    9.7810    1.3150    1.2670 C   0  0  0  0  0  0  0  0  0  0  0  0
    3.7000   -0.1030    0.4840 C   0  0  0  0  0  0  0  0  0  0  0  0
    3.2140   -0.2710    1.6850 C   0  0  0  0  0  0  0  0  0  0  0  0
    1.9670   -0.3180    2.3960 C   0  0  0  0  0  0  0  0  0  0  0  0
    4.2790   -0.5530    2.6710 O   0  0  0  0  0  0  0  0  0  0  0  0
    3.0450   -0.4020   -0.7340 C   0  0  0  0  0  0  0  0  0  0  0  0
   -0.7720    0.8820   -1.6290 C   0  0  0  0  0  0  0  0  0  0  0  0
   -1.8490    0.7420   -2.6610 C   0  0  0  0  0  0  0  0  0  0  0  0
   -2.8820   -0.2540   -2.1830 C   0  0  2  0  0  0  0  0  0  0  0  0
   -4.2190   -0.0250   -2.8600 C   0  0  0  0  0  0  0  0  0  0  0  0
   -2.4320   -1.6400   -2.5530 C   0  0  0  0  0  0  0  0  0  0  0  0
   -8.7810   -0.4220    1.5310 C   0  0  0  0  0  0  0  0  0  0  0  0
  1  2  1  0
  2  3  1  0
  3  4  2  0
  3 44  1  0
  4  5  1  0
  5  6  2  0
  6  7  1  0
  7  8  1  0
  7 44  2  0
  8  9  1  0
  9 10  2  0
  9 11  1  0
 12 11  1  1
 12 13  1  0
 12 41  1  0
 13 14  1  0
 14 15  1  0
 14 39  1  0
 15 16  1  0
 16 17  2  0
 16 38  1  0
 17 18  1  0
 18 19  2  0
 19 20  1  0
 20 21  1  0
 20 38  2  0
 21 22  1  0
 22 23  2  3
 22 34  1  0
 23 24  1  0
 24 25  1  0
 24 26  2  3
 26 27  1  0
 27 28  2  0
 27 33  1  0
 28 29  1  0
 29 30  2  0
 30 31  1  0
 31 32  1  0
 31 33  2  0
 34 35  2  3
 34 38  1  0
 35 36  1  0
 35 37  1  0
 39 40  1  0
 40 41  1  0
 41 42  1  6
 41 43  1  0
M  END
