
     RDKit          3D

 44 48  0  0  0  0  0  0  0  0999 V2000
  -11.0200    0.7790   -0.4220 C   0  0  0  0  0  0  0  0  0  0  0  0
   -9.8150    0.9140   -1.3520 C   0  0  0  0  0  0  0  0  0  0  0  0
   -8.6860    0.2030   -0.7090 C   0  0  0  0  0  0  0  0  0  0  0  0
   -8.3280   -1.0610   -1.1780 C   0  0  0  0  0  0  0  0  0  0  0  0
   -7.2900   -1.7550   -0.5960 C   0  0  0  0  0  0  0  0  0  0  0  0
   -6.5960   -1.2000    0.4570 C   0  0  0  0  0  0  0  0  0  0  0  0
   -5.4760   -1.9510    1.0750 C   0  0  2  0  0  0  0  0  0  0  0  0
   -5.4610   -1.9280    2.5580 C   0  0  0  0  0  0  0  0  0  0  0  0
   -4.4700   -1.0430    3.2190 C   0  0  0  0  0  0  0  0  0  0  0  0
   -3.0810   -1.2890    2.6830 C   0  0  0  0  0  0  0  0  0  0  0  0
   -3.0570   -1.2790    1.2000 C   0  0  0  0  0  0  0  0  0  0  0  0
   -1.8520   -0.9420    0.5750 C   0  0  0  0  0  0  0  0  0  0  0  0
   -1.7140   -0.8970   -0.7880 C   0  0  0  0  0  0  0  0  0  0  0  0
   -0.5630   -0.5760   -1.5260 N   0  0  0  0  0  0  0  0  0  0  0  0
    0.7200   -0.2440   -1.0220 C   0  0  0  0  0  0  0  0  0  0  0  0
    0.8870   -0.2250    0.2030 O   0  0  0  0  0  0  0  0  0  0  0  0
    1.8160    0.0660   -1.8700 N   0  0  0  0  0  0  0  0  0  0  0  0
    3.1210    0.4050   -1.4790 C   0  0  0  0  0  0  0  0  0  0  0  0
    3.6130    0.4940   -0.2090 C   0  0  0  0  0  0  0  0  0  0  0  0
    4.9340    0.8390    0.0810 C   0  0  0  0  0  0  0  0  0  0  0  0
    5.4190    0.9310    1.4080 N   0  0  0  0  0  0  0  0  0  0  0  0
    6.8220    1.1860    1.6380 C   0  0  0  0  0  0  0  0  0  0  0  0
    7.6850    0.1250    1.1140 C   0  0  0  0  0  0  0  0  0  0  0  0
    7.2050   -1.1480    0.9180 C   0  0  0  0  0  0  0  0  0  0  0  0
    8.0370   -2.1300    0.4200 C   0  0  0  0  0  0  0  0  0  0  0  0
    7.5440   -3.3900    0.2330 F   0  0  0  0  0  0  0  0  0  0  0  0
    9.3470   -1.8470    0.1150 C   0  0  0  0  0  0  0  0  0  0  0  0
    9.8520   -0.5630    0.3060 C   0  0  0  0  0  0  0  0  0  0  0  0
   11.2410   -0.2930   -0.0250 C   0  0  0  0  0  0  0  0  0  0  0  0
   12.0310   -1.2390   -0.3670 O   0  0  0  0  0  0  0  0  0  0  0  0
   11.8280    0.9980   -0.0030 N   0  0  0  0  0  0  0  0  0  0  0  0
   13.2190    1.2030   -0.3440 C   0  0  0  0  0  0  0  0  0  0  0  0
    8.9980    0.3900    0.8040 C   0  0  0  0  0  0  0  0  0  0  0  0
    5.7840    1.1030   -0.9730 C   0  0  0  0  0  0  0  0  0  0  0  0
    5.3350    1.0270   -2.2690 C   0  0  0  0  0  0  0  0  0  0  0  0
    4.0280    0.6840   -2.5140 C   0  0  0  0  0  0  0  0  0  0  0  0
    3.5750    0.6100   -3.9250 C   0  0  0  0  0  0  0  0  0  0  0  0
   -2.8700   -1.2140   -1.5150 C   0  0  0  0  0  0  0  0  0  0  0  0
   -4.0670   -1.5480   -0.9320 C   0  0  0  0  0  0  0  0  0  0  0  0
   -4.1700   -1.5840    0.4500 C   0  0  0  0  0  0  0  0  0  0  0  0
   -6.9820    0.0600    0.8960 C   0  0  0  0  0  0  0  0  0  0  0  0
   -8.0110    0.7760    0.3370 C   0  0  0  0  0  0  0  0  0  0  0  0
   -8.3680    2.1170    0.8480 C   0  0  0  0  0  0  0  0  0  0  0  0
   -7.8360    3.1740   -0.0890 C   0  0  0  0  0  0  0  0  0  0  0  0
  1  2  1  0
  2  3  1  0
  3  4  2  0
  3 42  1  0
  4  5  1  0
  5  6  2  0
  7  6  1  6
  6 41  1  0
  7  8  1  0
  7 40  1  0
  8  9  1  0
  9 10  1  0
 10 11  1  0
 11 12  2  0
 11 40  1  0
 12 13  1  0
 13 14  1  0
 13 38  2  0
 14 15  1  0
 15 16  2  0
 15 17  1  0
 17 18  1  0
 18 19  2  0
 18 36  1  0
 19 20  1  0
 20 21  1  0
 20 34  2  0
 21 22  1  0
 22 23  1  0
 23 24  2  0
 23 33  1  0
 24 25  1  0
 25 26  1  0
 25 27  2  0
 27 28  1  0
 28 29  1  0
 28 33  2  0
 29 30  2  0
 29 31  1  0
 31 32  1  0
 34 35  1  0
 35 36  2  0
 36 37  1  0
 38 39  1  0
 39 40  2  0
 41 42  2  0
 42 43  1  0
 43 44  1  0
M  END
