
     RDKit          3D

 44 48  0  0  0  0  0  0  0  0999 V2000
    9.6790    4.9450   -1.7360 C   0  0  0  0  0  0  0  0  0  0  0  0
    8.8570    3.7270   -1.8600 C   0  0  0  0  0  0  0  0  0  0  0  0
    8.0260    3.5160   -2.9350 C   0  0  0  0  0  0  0  0  0  0  0  0
    7.2540    2.3850   -3.0610 C   0  0  0  0  0  0  0  0  0  0  0  0
    7.3150    1.4310   -2.0740 C   0  0  0  0  0  0  0  0  0  0  0  0
    8.1330    1.6160   -0.9940 C   0  0  0  0  0  0  0  0  0  0  0  0
    8.2380    0.6250    0.1130 C   0  0  0  0  0  0  0  0  0  0  0  0
    7.2590   -0.4080   -0.0840 N   0  0  0  0  0  0  0  0  0  0  0  0
    5.9030   -0.1170    0.1950 C   0  0  0  0  0  0  0  0  0  0  0  0
    5.6010    1.0360    0.5900 O   0  0  0  0  0  0  0  0  0  0  0  0
    4.8740   -1.0850    0.0460 N   0  0  0  0  0  0  0  0  0  0  0  0
    3.4860   -0.7820    0.3310 C   0  0  0  0  0  0  0  0  0  0  0  0
    2.6340   -1.9920    0.1140 C   0  0  2  0  0  0  0  0  0  0  0  0
    1.2340   -1.7220    0.3910 N   0  0  0  0  0  0  0  0  0  0  0  0
    0.2660   -2.1520   -0.5330 C   0  0  0  0  0  0  0  0  0  0  0  0
    0.6540   -2.7700   -1.5510 O   0  0  0  0  0  0  0  0  0  0  0  0
   -1.1780   -1.9250   -0.3720 C   0  0  0  0  0  0  0  0  0  0  0  0
   -2.1740   -2.7290   -0.9560 C   0  0  0  0  0  0  0  0  0  0  0  0
   -1.8770   -3.9170   -1.7780 C   0  0  0  0  0  0  0  0  0  0  0  0
   -3.3610   -2.1940   -0.6050 N   0  0  0  0  0  0  0  0  0  0  0  0
   -3.1620   -1.1290    0.1450 C   0  0  0  0  0  0  0  0  0  0  0  0
   -1.7890   -0.9250    0.3130 C   0  0  0  0  0  0  0  0  0  0  0  0
   -1.3640    0.2740    1.0980 C   0  0  0  0  0  0  0  0  0  0  0  0
   -2.1480    1.4370    0.4740 C   0  0  0  0  0  0  0  0  0  0  0  0
   -3.5810    1.1690    0.5510 C   0  0  0  0  0  0  0  0  0  0  0  0
   -4.4010    2.1730    0.3320 C   0  0  0  0  0  0  0  0  0  0  0  0
   -5.8320    1.9910    0.3940 C   0  0  0  0  0  0  0  0  0  0  0  0
   -6.4430    1.3790    1.4480 C   0  0  0  0  0  0  0  0  0  0  0  0
   -7.8290    1.1830    1.5000 C   0  0  0  0  0  0  0  0  0  0  0  0
   -8.6020    1.6240    0.4510 C   0  0  0  0  0  0  0  0  0  0  0  0
  -10.0550    1.4420    0.4800 C   0  0  1  0  0  0  0  0  0  0  0  0
  -10.8360    2.6520    0.0760 C   0  0  0  0  0  0  0  0  0  0  0  0
  -10.4950    0.2890   -0.4200 C   0  0  0  0  0  0  0  0  0  0  0  0
   -8.0080    2.2490   -0.6350 C   0  0  0  0  0  0  0  0  0  0  0  0
   -6.6400    2.4220   -0.6440 C   0  0  0  0  0  0  0  0  0  0  0  0
   -6.0470    3.0290   -1.6960 F   0  0  0  0  0  0  0  0  0  0  0  0
   -4.1100   -0.1730    0.8170 C   0  0  0  0  0  0  0  0  0  0  0  0
    3.0070   -3.1010    1.0530 C   0  0  0  0  0  0  0  0  0  0  0  0
    3.6900   -4.2080    0.5600 C   0  0  0  0  0  0  0  0  0  0  0  0
    4.0410   -5.2430    1.4140 C   0  0  0  0  0  0  0  0  0  0  0  0
    3.7010   -5.1430    2.7360 C   0  0  0  0  0  0  0  0  0  0  0  0
    3.0180   -4.0410    3.2390 C   0  0  0  0  0  0  0  0  0  0  0  0
    2.6750   -3.0140    2.3680 C   0  0  0  0  0  0  0  0  0  0  0  0
    8.8960    2.7500   -0.8860 C   0  0  0  0  0  0  0  0  0  0  0  0
  1  2  1  0
  2  3  2  0
  2 44  1  0
  3  4  1  0
  4  5  2  0
  5  6  1  0
  6  7  1  0
  6 44  2  0
  7  8  1  0
  8  9  1  0
  9 10  2  0
  9 11  1  0
 11 12  1  0
 13 12  1  1
 13 14  1  0
 13 38  1  0
 14 15  1  0
 15 16  2  0
 15 17  1  0
 17 18  2  0
 17 22  1  0
 18 19  1  0
 18 20  1  0
 20 21  1  0
 21 22  2  0
 21 37  1  0
 22 23  1  0
 23 24  1  0
 24 25  1  0
 25 26  2  3
 25 37  1  0
 26 27  1  0
 27 28  2  0
 27 35  1  0
 28 29  1  0
 29 30  2  0
 30 31  1  0
 30 34  1  0
 31 32  1  6
 31 33  1  0
 34 35  2  0
 35 36  1  0
 38 39  2  0
 38 43  1  0
 39 40  1  0
 40 41  2  0
 41 42  1  0
 42 43  2  0
M  END
