
     RDKit          3D

 44 48  0  0  0  0  0  0  0  0999 V2000
   -0.9430   -8.0010   -0.6810 C   0  0  0  0  0  0  0  0  0  0  0  0
   -1.8560   -7.1380   -1.5410 C   0  0  0  0  0  0  0  0  0  0  0  0
   -1.7910   -5.7240   -1.1810 C   0  0  0  0  0  0  0  0  0  0  0  0
   -2.6130   -5.1690   -0.2410 C   0  0  0  0  0  0  0  0  0  0  0  0
   -2.5630   -3.8280    0.1090 C   0  0  0  0  0  0  0  0  0  0  0  0
   -1.6480   -2.9830   -0.5010 C   0  0  0  0  0  0  0  0  0  0  0  0
   -1.5730   -1.5720   -0.2510 C   0  0  0  0  0  0  0  0  0  0  0  0
   -0.8070   -0.8270    0.4730 C   0  0  0  0  0  0  0  0  0  0  0  0
    0.3180   -1.2600    1.3300 C   0  0  0  0  0  0  0  0  0  0  0  0
    0.7780   -2.6190    1.1680 C   0  0  0  0  0  0  0  0  0  0  0  0
    0.1740   -3.6490    1.9040 C   0  0  0  0  0  0  0  0  0  0  0  0
    0.5480   -4.9520    1.6970 C   0  0  0  0  0  0  0  0  0  0  0  0
    1.5130   -5.2970    0.7770 C   0  0  0  0  0  0  0  0  0  0  0  0
    2.1070   -4.2630    0.0540 C   0  0  0  0  0  0  0  0  0  0  0  0
    1.7390   -2.9490    0.2560 C   0  0  0  0  0  0  0  0  0  0  0  0
    2.4910   -1.8900   -0.4100 C   0  0  0  0  0  0  0  0  0  0  0  0
    2.3090   -1.6850   -1.6210 O   0  0  0  0  0  0  0  0  0  0  0  0
    3.4300   -1.1080    0.3110 N   0  0  0  0  0  0  0  0  0  0  0  0
    4.2330   -0.0620   -0.1620 C   0  0  0  0  0  0  0  0  0  0  0  0
    4.0640    0.6020   -1.3560 C   0  0  0  0  0  0  0  0  0  0  0  0
    4.8730    1.6410   -1.7510 C   0  0  0  0  0  0  0  0  0  0  0  0
    5.9030    2.0740   -0.9670 C   0  0  0  0  0  0  0  0  0  0  0  0
    6.8160    3.1910   -1.3440 C   0  0  0  0  0  0  0  0  0  0  0  0
    6.3040    4.5100   -0.8420 C   0  0  0  0  0  0  0  0  0  0  0  0
    6.1140    1.4400    0.2430 C   0  0  0  0  0  0  0  0  0  0  0  0
    5.2990    0.4040    0.6280 C   0  0  0  0  0  0  0  0  0  0  0  0
    5.4960   -0.2390    1.8150 F   0  0  0  0  0  0  0  0  0  0  0  0
   -1.1100    0.6430    0.5000 C   0  0  0  0  0  0  0  0  0  0  0  0
   -2.2620    1.1240   -0.0020 C   0  0  0  0  0  0  0  0  0  0  0  0
   -2.4670    2.4920   -0.0120 C   0  0  0  0  0  0  0  0  0  0  0  0
   -1.4880    3.3110    0.4890 C   0  0  0  0  0  0  0  0  0  0  0  0
   -0.3240    2.8120    0.9960 C   0  0  0  0  0  0  0  0  0  0  0  0
    0.7190    3.7520    1.5250 C   0  0  0  0  0  0  0  0  0  0  0  0
   -0.1490    1.4810    0.9960 N   0  0  0  0  0  0  0  0  0  0  0  0
   -1.7180    4.7740    0.4490 C   0  0  0  0  0  0  0  0  0  0  0  0
   -0.7030    5.5260    0.3180 O   0  0  0  0  0  0  0  0  0  0  0  0
   -3.1090    5.2850    0.5630 C   0  0  0  0  0  0  0  0  0  0  0  0
   -4.0800    4.1510    0.5820 C   0  0  1  0  0  0  0  0  0  0  0  0
   -5.4360    4.5890    0.3100 N   0  0  0  0  0  0  0  0  0  0  0  0
   -5.8740    5.5300    1.3340 C   0  0  0  0  0  0  0  0  0  0  0  0
   -7.2280    5.9610    1.1630 N   0  0  0  0  0  0  0  0  0  0  0  0
   -3.7140    3.1330   -0.5120 C   0  0  0  0  0  0  0  0  0  0  0  0
   -0.8270   -3.5680   -1.4490 C   0  0  0  0  0  0  0  0  0  0  0  0
   -0.8820   -4.8910   -1.7910 C   0  0  0  0  0  0  0  0  0  0  0  0
  1  2  1  0
  2  3  1  0
  3  4  2  0
  3 44  1  0
  4  5  1  0
  5  6  2  0
  6  7  1  0
  6 43  1  0
  7  8  2  3
  8  9  1  0
  8 28  1  0
  9 10  1  0
 10 11  2  0
 10 15  1  0
 11 12  1  0
 12 13  2  0
 13 14  1  0
 14 15  2  0
 15 16  1  0
 16 17  2  0
 16 18  1  0
 18 19  1  0
 19 20  2  0
 19 26  1  0
 20 21  1  0
 21 22  2  0
 22 23  1  0
 22 25  1  0
 23 24  1  0
 25 26  2  0
 26 27  1  0
 28 29  2  0
 28 34  1  0
 29 30  1  0
 30 31  2  0
 30 42  1  0
 31 32  1  0
 31 35  1  0
 32 33  1  0
 32 34  2  0
 35 36  2  0
 35 37  1  0
 37 38  1  0
 38 39  1  6
 38 42  1  0
 39 40  1  0
 40 41  1  0
 43 44  2  0
M  END
