
     RDKit          3D

 20 21  0  0  0  0  0  0  0  0999 V2000
    2.8630    0.4870    0.9200 O   0  0  0  0  0  0  0  0  0  0  0  0
    2.9690   -0.4860    0.1100 C   0  0  0  0  0  0  0  0  0  0  0  0
    4.1860   -1.2980    0.0960 N   0  0  0  0  0  0  0  0  0  0  0  0
    5.1240   -0.8420    1.1230 C   0  0  0  0  0  0  0  0  0  0  0  0
    5.6330    0.5260    0.8250 C   0  0  0  0  0  0  0  0  0  0  0  0
    6.3830    0.8860    2.0060 O   0  0  0  0  0  0  0  0  0  0  0  0
    1.9610   -0.7660   -0.7360 O   0  0  0  0  0  0  0  0  0  0  0  0
    0.7340   -0.0240   -0.6410 C   0  0  1  0  0  0  0  0  0  0  0  0
    0.2520    0.4130   -1.8060 O   0  0  0  0  0  0  0  0  0  0  0  0
   -0.9930    0.1170   -1.9520 C   0  0  2  0  0  0  0  0  0  0  0  0
   -2.1170    0.8660   -1.2820 C   0  0  0  0  0  0  0  0  0  0  0  0
   -2.2340    0.3370    0.0780 O   0  0  0  0  0  0  0  0  0  0  0  0
   -3.8550   -0.0690    0.1220 P   0  0  0  0  0  0  0  0  0  0  0  0
   -5.0420    1.1900   -0.4580 C   0  0  0  0  0  0  0  0  0  0  0  0
   -5.7980    1.2570    0.7430 O   0  0  0  0  0  0  0  0  0  0  0  0
   -5.9460   -0.0560    1.1960 C   0  0  0  0  0  0  0  0  0  0  0  0
   -4.6340   -0.5080    1.5570 O   0  0  0  0  0  0  0  0  0  0  0  0
   -1.1370   -1.2650   -1.3500 N   0  0  0  0  0  0  0  0  0  0  0  0
   -0.2240   -1.1530   -0.2500 C   0  0  0  0  0  0  0  0  0  0  0  0
   -0.1920   -1.8250    0.7960 O   0  0  0  0  0  0  0  0  0  0  0  0
  1  2  2  0
  2  3  1  0
  2  7  1  0
  3  4  1  0
  4  5  1  0
  5  6  1  0
  8  7  1  6
  8  9  1  0
  8 19  1  0
  9 10  1  0
 10 11  1  1
 10 18  1  0
 11 12  1  0
 12 13  1  0
 13 14  1  0
 13 17  1  0
 14 15  1  0
 15 16  1  0
 16 17  1  0
 18 19  1  0
 19 20  2  0
M  END
