
     RDKit          3D

  9  8  0  0  0  0  0  0  0  0999 V2000
    3.5850    0.2350   -0.8610 N   0  0  0  0  0  0  0  0  0  0  0  0
    2.2320    0.1600   -1.0200 O   0  0  0  0  0  0  0  0  0  0  0  0
    1.7480   -0.4530    0.1390 C   0  0  0  0  0  0  0  0  0  0  0  0
    0.4270    0.0950    0.5880 C   0  0  0  0  0  0  0  0  0  0  0  0
   -0.3780    0.5340   -0.4640 O   0  0  0  0  0  0  0  0  0  0  0  0
   -1.4160    1.1440    0.0930 O   0  0  0  0  0  0  0  0  0  0  0  0
   -2.7180    0.0010    0.1320 P   0  0  0  0  0  0  0  0  0  0  0  0
   -3.4230   -0.0390   -1.4480 O   0  0  0  0  0  0  0  0  0  0  0  0
   -3.8460    0.4780    1.3440 O   0  0  0  0  0  0  0  0  0  0  0  0
  1  2  1  0
  2  3  1  0
  3  4  1  0
  4  5  1  0
  5  6  1  0
  6  7  1  0
  7  8  1  0
  7  9  1  0
M  END
