
     RDKit          3D

  9  8  0  0  0  0  0  0  0  0999 V2000
   -1.8870   -1.1530   -0.9200 O   0  0  0  0  0  0  0  0  0  0  0  0
   -2.2930   -0.2450   -0.1440 C   0  0  0  0  0  0  0  0  0  0  0  0
   -3.6480   -0.2580    0.2290 O   0  0  0  0  0  0  0  0  0  0  0  0
   -1.4000    0.7300    0.3150 N   0  0  0  0  0  0  0  0  0  0  0  0
   -0.0120    0.7290   -0.0770 C   0  0  0  0  0  0  0  0  0  0  0  0
    0.6370   -0.4650    0.3160 O   0  0  0  0  0  0  0  0  0  0  0  0
    2.2770   -0.3030   -0.2260 P   0  0  0  0  0  0  0  0  0  0  0  0
    3.1880    0.7970    0.7200 O   0  0  0  0  0  0  0  0  0  0  0  0
    3.0470   -1.8060   -0.4920 O   0  0  0  0  0  0  0  0  0  0  0  0
  1  2  2  0
  2  3  1  0
  2  4  1  0
  4  5  1  0
  5  6  1  0
  6  7  1  0
  7  8  1  0
  7  9  1  0
M  END
