
     RDKit          3D

 40 44  0  0  0  0  0  0  0  0999 V2000
   -5.8000   -2.2870   -1.6790 C   0  0  0  0  0  0  0  0  0  0  0  0
   -6.8070   -1.5540   -2.4950 C   0  0  0  0  0  0  0  0  0  0  0  0
   -6.6140   -0.0990   -2.6800 C   0  0  0  0  0  0  0  0  0  0  0  0
   -6.6100    0.6820   -1.4210 C   0  0  0  0  0  0  0  0  0  0  0  0
   -7.6590    1.4330   -1.0030 C   0  0  0  0  0  0  0  0  0  0  0  0
   -8.8670    1.5360   -1.7430 N   0  0  0  0  0  0  0  0  0  0  0  0
   -7.3410    2.0910    0.2500 C   0  0  0  0  0  0  0  0  0  0  0  0
   -8.0550    2.8550    0.9330 O   0  0  0  0  0  0  0  0  0  0  0  0
   -5.9730    1.6910    0.6000 C   0  0  0  0  0  0  0  0  0  0  0  0
   -5.1500    2.0250    1.6770 C   0  0  0  0  0  0  0  0  0  0  0  0
   -3.8740    1.5200    1.7630 C   0  0  0  0  0  0  0  0  0  0  0  0
   -3.0320    1.8440    2.8400 O   0  0  0  0  0  0  0  0  0  0  0  0
   -3.3980    2.6820    3.8880 C   0  0  0  0  0  0  0  0  0  0  0  0
   -3.4490    0.6830    0.7560 C   0  0  0  0  0  0  0  0  0  0  0  0
   -2.1350    0.1580    0.8280 N   0  0  0  0  0  0  0  0  0  0  0  0
   -1.7060   -0.9810    1.5440 C   0  0  0  0  0  0  0  0  0  0  0  0
   -2.4090   -1.7720    2.2640 O   0  0  0  0  0  0  0  0  0  0  0  0
   -0.2690   -1.1020    1.3130 C   0  0  0  0  0  0  0  0  0  0  0  0
    0.6400   -2.0250    1.7750 C   0  0  0  0  0  0  0  0  0  0  0  0
    1.9750   -1.9030    1.4000 C   0  0  0  0  0  0  0  0  0  0  0  0
    2.4670   -0.9140    0.5870 C   0  0  0  0  0  0  0  0  0  0  0  0
    3.8280   -0.7510    0.2100 N   0  0  0  0  0  0  0  0  0  0  0  0
    4.9330   -1.3410    0.7980 C   0  0  0  0  0  0  0  0  0  0  0  0
    4.7520   -2.1210    1.7940 O   0  0  0  0  0  0  0  0  0  0  0  0
    6.3310   -1.1620    0.3880 C   0  0  0  0  0  0  0  0  0  0  0  0
    7.6820   -1.9910    1.2440 S   0  0  0  0  0  0  0  0  0  0  0  0
    8.9770   -1.3060    0.2190 C   0  0  0  0  0  0  0  0  0  0  0  0
   10.4470   -1.5710    0.3580 C   0  0  0  0  0  0  0  0  0  0  0  0
    8.2950   -0.5150   -0.6790 C   0  0  0  0  0  0  0  0  0  0  0  0
    9.1210    0.2310   -1.7220 C   0  0  0  0  0  0  0  0  0  0  0  0
    9.8070    1.4190   -1.0890 C   0  0  0  0  0  0  0  0  0  0  0  0
   10.7630    2.2720   -2.3280 Cl  0  0  0  0  0  0  0  0  0  0  0  0
    6.9570   -0.4680   -0.5620 C   0  0  0  0  0  0  0  0  0  0  0  0
    6.0000    0.5520   -1.7030 Cl  0  0  0  0  0  0  0  0  0  0  0  0
    1.5170    0.0100    0.1310 C   0  0  0  0  0  0  0  0  0  0  0  0
    0.2020   -0.1010    0.4940 C   0  0  0  0  0  0  0  0  0  0  0  0
   -0.9940    0.7190    0.1740 C   0  0  0  0  0  0  0  0  0  0  0  0
   -0.9090    1.7290   -0.5650 O   0  0  0  0  0  0  0  0  0  0  0  0
   -4.2680    0.3580   -0.3030 C   0  0  0  0  0  0  0  0  0  0  0  0
   -5.5670    0.8530   -0.4170 C   0  0  0  0  0  0  0  0  0  0  0  0
  1  2  1  0
  2  3  1  0
  3  4  1  0
  4  5  2  0
  4 40  1  0
  5  6  1  0
  5  7  1  0
  7  8  2  0
  7  9  1  0
  9 10  2  0
  9 40  1  0
 10 11  1  0
 11 12  1  0
 11 14  2  0
 12 13  1  0
 14 15  1  0
 14 39  1  0
 15 16  1  0
 15 37  1  0
 16 17  2  0
 16 18  1  0
 18 19  2  0
 18 36  1  0
 19 20  1  0
 20 21  2  0
 21 22  1  0
 21 35  1  0
 22 23  1  0
 23 24  2  0
 23 25  1  0
 25 26  1  0
 25 33  2  0
 26 27  1  0
 27 28  1  0
 27 29  2  0
 29 30  1  0
 29 33  1  0
 30 31  1  0
 31 32  1  0
 33 34  1  0
 35 36  2  0
 36 37  1  0
 37 38  2  0
 39 40  2  0
M  END
