
     RDKit          3D

 40 44  0  0  0  0  0  0  0  0999 V2000
   -5.3540    2.1910   -4.3370 C   0  0  0  0  0  0  0  0  0  0  0  0
   -4.0590    2.5030   -3.6550 C   0  0  0  0  0  0  0  0  0  0  0  0
   -3.1130    3.4510   -3.9190 C   0  0  0  0  0  0  0  0  0  0  0  0
   -2.1290    3.2800   -2.9790 C   0  0  0  0  0  0  0  0  0  0  0  0
   -2.5180    2.1950   -2.1390 C   0  0  0  0  0  0  0  0  0  0  0  0
   -1.6340    1.8090   -1.0480 C   0  0  0  0  0  0  0  0  0  0  0  0
   -0.2910    1.8200   -1.3590 N   0  0  0  0  0  0  0  0  0  0  0  0
    0.6380    1.2000   -0.5800 C   0  0  0  0  0  0  0  0  0  0  0  0
    2.3180    1.3380   -1.2020 S   0  0  0  0  0  0  0  0  0  0  0  0
    2.7350   -0.0450   -2.2710 C   0  0  0  0  0  0  0  0  0  0  0  0
    3.8330   -0.8940   -1.7850 C   0  0  0  0  0  0  0  0  0  0  0  0
    3.9100   -2.0510   -2.2830 O   0  0  0  0  0  0  0  0  0  0  0  0
    4.7770   -0.4630   -0.8260 N   0  0  0  0  0  0  0  0  0  0  0  0
    5.8760   -1.2060   -0.3500 C   0  0  0  0  0  0  0  0  0  0  0  0
    5.9540   -2.5580   -0.3840 C   0  0  0  0  0  0  0  0  0  0  0  0
    7.1410   -3.2030    0.0360 C   0  0  0  0  0  0  0  0  0  0  0  0
    8.2060   -2.4580    0.4740 C   0  0  0  0  0  0  0  0  0  0  0  0
    9.3720   -3.0620    0.8860 O   0  0  0  0  0  0  0  0  0  0  0  0
    8.1440   -1.0680    0.5180 C   0  0  0  0  0  0  0  0  0  0  0  0
    9.3120   -0.2740    0.9920 C   0  0  0  0  0  0  0  0  0  0  0  0
    6.9820   -0.4610    0.1070 C   0  0  0  0  0  0  0  0  0  0  0  0
    0.3120    0.5510    0.5200 N   0  0  0  0  0  0  0  0  0  0  0  0
   -0.9730    0.5070    0.8840 C   0  0  0  0  0  0  0  0  0  0  0  0
   -1.3780   -0.1340    2.0330 C   0  0  0  0  0  0  0  0  0  0  0  0
   -0.1500   -0.9210    3.0040 Cl  0  0  0  0  0  0  0  0  0  0  0  0
   -2.6900   -0.1750    2.4580 C   0  0  0  0  0  0  0  0  0  0  0  0
   -3.1460   -0.8750    3.6710 C   0  0  0  0  0  0  0  0  0  0  0  0
   -3.1350   -0.2590    4.7680 O   0  0  0  0  0  0  0  0  0  0  0  0
   -3.6150   -2.2540    3.6510 C   0  0  0  0  0  0  0  0  0  0  0  0
   -2.6610   -3.2980    4.1220 C   0  0  0  0  0  0  0  0  0  0  0  0
   -3.3970   -4.9280    4.0340 Cl  0  0  0  0  0  0  0  0  0  0  0  0
   -3.6260    0.4650    1.6890 C   0  0  0  0  0  0  0  0  0  0  0  0
   -3.2540    1.1300    0.5120 C   0  0  0  0  0  0  0  0  0  0  0  0
   -1.9640    1.1550    0.0850 C   0  0  0  0  0  0  0  0  0  0  0  0
   -4.2730    2.0180   -0.0710 C   0  0  0  0  0  0  0  0  0  0  0  0
   -3.9580    3.1720   -0.3640 O   0  0  0  0  0  0  0  0  0  0  0  0
   -5.6180    1.4620   -0.2530 C   0  0  0  0  0  0  0  0  0  0  0  0
   -5.8680    0.3190    0.7390 C   0  0  0  0  0  0  0  0  0  0  0  0
   -5.0710    0.5030    2.0160 C   0  0  0  0  0  0  0  0  0  0  0  0
   -3.6360    1.8430   -2.6340 O   0  0  0  0  0  0  0  0  0  0  0  0
  1  2  1  0
  2  3  2  0
  2 40  1  0
  3  4  1  0
  4  5  2  0
  5  6  1  0
  5 40  1  0
  6  7  2  0
  6 34  1  0
  7  8  1  0
  8  9  1  0
  8 22  2  0
  9 10  1  0
 10 11  1  0
 11 12  2  0
 11 13  1  0
 13 14  1  0
 14 15  2  0
 14 21  1  0
 15 16  1  0
 16 17  2  0
 17 18  1  0
 17 19  1  0
 19 20  1  0
 19 21  2  0
 22 23  1  0
 23 24  2  0
 23 34  1  0
 24 25  1  0
 24 26  1  0
 26 27  1  0
 26 32  2  0
 27 28  2  0
 27 29  1  0
 29 30  1  0
 30 31  1  0
 32 33  1  0
 32 39  1  0
 33 34  2  0
 33 35  1  0
 35 36  2  0
 35 37  1  0
 37 38  1  0
 38 39  1  0
M  END
