
     RDKit          3D

 40 43  0  0  0  0  0  0  0  0999 V2000
   -5.4200   -1.8510    0.6100 C   0  0  0  0  0  0  0  0  0  0  0  0
   -4.8170   -3.1790    0.4300 C   0  0  0  0  0  0  0  0  0  0  0  0
   -5.5600   -4.2740    0.8400 C   0  0  0  0  0  0  0  0  0  0  0  0
   -6.7650   -4.1220    1.4520 O   0  0  0  0  0  0  0  0  0  0  0  0
   -5.0880   -5.5440    0.6340 C   0  0  0  0  0  0  0  0  0  0  0  0
   -3.8690   -5.7250    0.0180 C   0  0  0  0  0  0  0  0  0  0  0  0
   -3.1440   -4.6440   -0.3800 C   0  0  0  0  0  0  0  0  0  0  0  0
   -3.6170   -3.3390   -0.1750 C   0  0  0  0  0  0  0  0  0  0  0  0
   -2.7320   -2.2560   -0.5640 C   0  0  0  0  0  0  0  0  0  0  0  0
   -1.9800   -2.4080   -1.5960 O   0  0  0  0  0  0  0  0  0  0  0  0
   -2.5920   -1.0180    0.0860 N   0  0  0  0  0  0  0  0  0  0  0  0
   -1.6720   -0.0050   -0.4140 C   0  0  1  0  0  0  0  0  0  0  0  0
   -2.4310    1.2610   -0.6500 C   0  0  0  0  0  0  0  0  0  0  0  0
   -3.7170    0.9300   -1.8760 S   0  0  0  0  0  0  0  0  0  0  0  0
   -4.6570    2.3980   -2.2280 C   0  0  0  0  0  0  0  0  0  0  0  0
   -5.6770    2.3490   -3.1470 C   0  0  0  0  0  0  0  0  0  0  0  0
   -6.3920    3.4870   -3.4090 C   0  0  0  0  0  0  0  0  0  0  0  0
   -6.0960    4.6650   -2.7620 C   0  0  0  0  0  0  0  0  0  0  0  0
   -5.0690    4.7060   -1.8410 C   0  0  0  0  0  0  0  0  0  0  0  0
   -4.3540    3.5610   -1.5810 C   0  0  0  0  0  0  0  0  0  0  0  0
   -0.5150    0.1390    0.5370 C   0  0  2  0  0  0  0  0  0  0  0  0
   -0.9130    0.5070    1.8020 O   0  0  0  0  0  0  0  0  0  0  0  0
    0.5490    1.0610   -0.0240 C   0  0  0  0  0  0  0  0  0  0  0  0
    1.7360    1.0300    0.7970 N   0  0  2  0  0  0  0  0  0  0  0  0
    1.8150    2.3100    1.5020 C   0  0  0  0  0  0  0  0  0  0  0  0
    2.9110    2.3860    2.5000 C   0  0  1  0  0  0  0  0  0  0  0  0
    2.4450    1.7250    3.7690 C   0  0  0  0  0  0  0  0  0  0  0  0
    3.5130    1.9630    4.8140 C   0  0  0  0  0  0  0  0  0  0  0  0
    4.7100    1.1590    4.3600 C   0  0  0  0  0  0  0  0  0  0  0  0
    5.2390    1.5970    3.0240 C   0  0  0  0  0  0  0  0  0  0  0  0
    4.2090    1.8230    1.9850 C   0  0  1  0  0  0  0  0  0  0  0  0
    4.0040    0.5340    1.2270 C   0  0  0  0  0  0  0  0  0  0  0  0
    2.9660    0.8380    0.1140 C   0  0  1  0  0  0  0  0  0  0  0  0
    3.0040   -0.2750   -0.8620 C   0  0  0  0  0  0  0  0  0  0  0  0
    2.0510   -1.0480   -1.0180 O   0  0  0  0  0  0  0  0  0  0  0  0
    4.1530   -0.5160   -1.6830 N   0  0  0  0  0  0  0  0  0  0  0  0
    4.2100   -1.5890   -2.6410 C   0  0  2  0  0  0  0  0  0  0  0  0
    4.0440   -2.9500   -2.0050 C   0  0  0  0  0  0  0  0  0  0  0  0
    5.5770   -1.5540   -3.2910 C   0  0  0  0  0  0  0  0  0  0  0  0
    3.1820   -1.4170   -3.7430 C   0  0  0  0  0  0  0  0  0  0  0  0
  1  2  1  0
  2  3  2  0
  2  8  1  0
  3  4  1  0
  3  5  1  0
  5  6  2  0
  6  7  1  0
  7  8  2  0
  8  9  1  0
  9 10  2  0
  9 11  1  0
 11 12  1  0
 12 13  1  1
 12 21  1  0
 13 14  1  0
 14 15  1  0
 15 16  2  0
 15 20  1  0
 16 17  1  0
 17 18  2  0
 18 19  1  0
 19 20  2  0
 21 22  1  1
 21 23  1  0
 24 23  1  6
 24 25  1  0
 24 33  1  0
 26 25  1  6
 26 27  1  0
 26 31  1  0
 27 28  1  0
 28 29  1  0
 29 30  1  0
 31 30  1  1
 31 32  1  0
 32 33  1  0
 33 34  1  6
 34 35  2  0
 34 36  1  0
 36 37  1  0
 37 38  1  1
 37 39  1  0
 37 40  1  0
M  CHG  1  24   1
M  END
