
     RDKit          3D

 40 44  0  0  0  0  0  0  0  0999 V2000
   -4.8770    6.0380   -0.9270 C   0  0  0  0  0  0  0  0  0  0  0  0
   -3.7710    5.1960   -0.7440 O   0  0  0  0  0  0  0  0  0  0  0  0
   -3.9710    3.8760   -0.3430 C   0  0  0  0  0  0  0  0  0  0  0  0
   -5.1490    3.5270   -0.1690 O   0  0  0  0  0  0  0  0  0  0  0  0
   -2.8140    2.9860   -0.1490 C   0  0  0  0  0  0  0  0  0  0  0  0
   -1.5220    3.3930   -0.3030 N   0  0  0  0  0  0  0  0  0  0  0  0
   -0.7160    2.3840   -0.0250 C   0  0  0  0  0  0  0  0  0  0  0  0
    0.7670    2.3890   -0.0630 C   0  0  0  0  0  0  0  0  0  0  0  0
   -1.4650    1.2690    0.3240 C   0  0  0  0  0  0  0  0  0  0  0  0
   -0.9330   -0.0350    0.6880 C   0  0  0  0  0  0  0  0  0  0  0  0
   -1.6150   -1.0160    0.9880 O   0  0  0  0  0  0  0  0  0  0  0  0
    0.4580   -0.2210    0.7080 O   0  0  0  0  0  0  0  0  0  0  0  0
    1.0590   -1.4540    1.0490 C   0  0  0  0  0  0  0  0  0  0  0  0
    2.5290   -1.2510    0.9570 C   0  0  0  0  0  0  0  0  0  0  0  0
    3.2050   -0.8450    2.0880 C   0  0  0  0  0  0  0  0  0  0  0  0
    4.5640   -0.6470    2.0390 C   0  0  0  0  0  0  0  0  0  0  0  0
    5.2940   -0.2130    3.2430 C   0  0  0  0  0  0  0  0  0  0  0  0
    5.2500   -0.8570    0.8490 C   0  0  0  0  0  0  0  0  0  0  0  0
    4.6150   -1.2570   -0.2800 C   0  0  0  0  0  0  0  0  0  0  0  0
    3.2260   -1.4520   -0.2030 C   0  0  0  0  0  0  0  0  0  0  0  0
    5.2530   -1.4980   -1.5560 C   0  0  0  0  0  0  0  0  0  0  0  0
    6.7630   -1.2590   -1.5480 C   0  0  0  0  0  0  0  0  0  0  0  0
    7.4080   -0.8700   -0.4640 C   0  0  0  0  0  0  0  0  0  0  0  0
    8.7880   -0.6600   -0.4840 C   0  0  0  0  0  0  0  0  0  0  0  0
    9.1540   -1.0630   -2.2150 S   0  0  0  0  0  0  0  0  0  0  0  0
    7.5370   -1.4570   -2.7460 C   0  0  0  0  0  0  0  0  0  0  0  0
    7.0090   -1.9580   -4.3240 Cl  0  0  0  0  0  0  0  0  0  0  0  0
    6.6490   -0.6580    0.7790 N   0  0  0  0  0  0  0  0  0  0  0  0
   -2.7870    1.6680    0.2390 C   0  0  0  0  0  0  0  0  0  0  0  0
   -3.9250    0.7640    0.4430 C   0  0  0  0  0  0  0  0  0  0  0  0
   -3.8580    0.0220    1.4760 O   0  0  0  0  0  0  0  0  0  0  0  0
   -5.0400    0.6700   -0.4050 N   0  0  0  0  0  0  0  0  0  0  0  0
   -6.1180   -0.2720   -0.0730 C   0  0  0  0  0  0  0  0  0  0  0  0
   -5.7610   -1.6700   -0.3810 C   0  0  0  0  0  0  0  0  0  0  0  0
   -5.7820   -2.1180   -1.6810 C   0  0  0  0  0  0  0  0  0  0  0  0
   -5.4530   -3.4250   -1.9630 C   0  0  0  0  0  0  0  0  0  0  0  0
   -5.1000   -4.3050   -0.9690 C   0  0  0  0  0  0  0  0  0  0  0  0
   -5.0750   -3.8780    0.3210 C   0  0  0  0  0  0  0  0  0  0  0  0
   -4.6310   -4.9700    1.6120 Cl  0  0  0  0  0  0  0  0  0  0  0  0
   -5.4070   -2.5590    0.6070 C   0  0  0  0  0  0  0  0  0  0  0  0
  1  2  1  0
  2  3  1  0
  3  4  2  0
  3  5  1  0
  5  6  1  0
  5 29  2  0
  6  7  1  0
  7  8  1  0
  7  9  2  0
  9 10  1  0
  9 29  1  0
 10 11  2  0
 10 12  1  0
 12 13  1  0
 13 14  1  0
 14 15  2  0
 14 20  1  0
 15 16  1  0
 16 17  1  0
 16 18  2  0
 18 19  1  0
 18 28  1  0
 19 20  2  0
 19 21  1  0
 21 22  1  0
 22 23  1  0
 22 26  2  0
 23 24  2  0
 23 28  1  0
 24 25  1  0
 25 26  1  0
 26 27  1  0
 29 30  1  0
 30 31  2  0
 30 32  1  0
 32 33  1  0
 33 34  1  0
 34 35  2  0
 34 40  1  0
 35 36  1  0
 36 37  2  0
 37 38  1  0
 38 39  1  0
 38 40  2  0
M  END
