
     RDKit          3D

 40 44  0  0  0  0  0  0  0  0999 V2000
    7.7590    1.1160    3.7230 C   0  0  0  0  0  0  0  0  0  0  0  0
    6.5250    1.4110    2.9210 C   0  0  0  0  0  0  0  0  0  0  0  0
    6.4260    2.6090    2.2480 C   0  0  0  0  0  0  0  0  0  0  0  0
    5.3030    2.8950    1.5070 C   0  0  0  0  0  0  0  0  0  0  0  0
    4.2630    1.9740    1.4350 C   0  0  0  0  0  0  0  0  0  0  0  0
    3.1280    2.2560    0.7250 C   0  0  0  0  0  0  0  0  0  0  0  0
    3.0460    3.3550    0.1130 O   0  0  0  0  0  0  0  0  0  0  0  0
    2.0400    1.3370    0.6650 C   0  0  0  0  0  0  0  0  0  0  0  0
    0.9020    1.8220   -0.0650 C   0  0  0  0  0  0  0  0  0  0  0  0
   -0.2550    1.0260   -0.2980 N   0  0  0  0  0  0  0  0  0  0  0  0
   -0.2600   -0.0340   -1.2420 C   0  0  0  0  0  0  0  0  0  0  0  0
    0.8640   -0.2220   -1.8510 O   0  0  0  0  0  0  0  0  0  0  0  0
   -1.3650   -0.9070   -1.5950 C   0  0  0  0  0  0  0  0  0  0  0  0
   -1.0580   -2.0070   -2.4120 C   0  0  0  0  0  0  0  0  0  0  0  0
   -1.9970   -2.9720   -2.6930 C   0  0  0  0  0  0  0  0  0  0  0  0
   -1.5420   -4.3130   -3.7220 Cl  0  0  0  0  0  0  0  0  0  0  0  0
   -3.2680   -2.8960   -2.1840 C   0  0  0  0  0  0  0  0  0  0  0  0
   -4.3090   -3.9330   -2.5060 C   0  0  0  0  0  0  0  0  0  0  0  0
   -4.6190   -4.3370   -3.7520 C   0  0  0  0  0  0  0  0  0  0  0  0
   -5.5490   -5.2650   -3.9820 C   0  0  0  0  0  0  0  0  0  0  0  0
   -6.1290   -5.6960   -2.2780 S   0  0  0  0  0  0  0  0  0  0  0  0
   -4.9770   -4.5020   -1.4570 C   0  0  0  0  0  0  0  0  0  0  0  0
   -3.5580   -1.8250   -1.3940 C   0  0  0  0  0  0  0  0  0  0  0  0
   -2.6290   -0.8140   -1.0860 C   0  0  0  0  0  0  0  0  0  0  0  0
   -3.0270    0.2120   -0.2910 O   0  0  0  0  0  0  0  0  0  0  0  0
   -3.7300    1.3400   -0.5410 C   0  0  0  0  0  0  0  0  0  0  0  0
   -4.8300    1.5570    0.3110 C   0  0  0  0  0  0  0  0  0  0  0  0
   -5.6460    2.6490    0.1920 C   0  0  0  0  0  0  0  0  0  0  0  0
   -6.7410    2.8480    1.0570 O   0  0  0  0  0  0  0  0  0  0  0  0
   -5.3740    3.5280   -0.7710 N   0  0  0  0  0  0  0  0  0  0  0  0
   -4.3550    3.4090   -1.6280 C   0  0  0  0  0  0  0  0  0  0  0  0
   -3.5250    2.2790   -1.4920 C   0  0  0  0  0  0  0  0  0  0  0  0
   -2.2450    2.1630   -2.7060 Cl  0  0  0  0  0  0  0  0  0  0  0  0
    2.1500    0.1640    1.3300 C   0  0  0  0  0  0  0  0  0  0  0  0
    1.0790   -0.8870    1.4100 C   0  0  0  0  0  0  0  0  0  0  0  0
    3.3090   -0.0720    2.0240 N   0  0  0  0  0  0  0  0  0  0  0  0
    4.3300    0.7760    2.0890 C   0  0  0  0  0  0  0  0  0  0  0  0
    5.4790    0.5110    2.8330 C   0  0  0  0  0  0  0  0  0  0  0  0
    5.5770   -0.7340    3.5600 C   0  0  0  0  0  0  0  0  0  0  0  0
    5.0930   -0.7960    4.7190 O   0  0  0  0  0  0  0  0  0  0  0  0
  1  2  1  0
  2  3  2  0
  2 38  1  0
  3  4  1  0
  4  5  2  0
  5  6  1  0
  5 37  1  0
  6  7  2  0
  6  8  1  0
  8  9  1  0
  8 34  2  0
  9 10  1  0
 10 11  1  0
 11 12  2  0
 11 13  1  0
 13 14  2  0
 13 24  1  0
 14 15  1  0
 15 16  1  0
 15 17  2  0
 17 18  1  0
 17 23  1  0
 18 19  1  0
 18 22  2  0
 19 20  2  0
 20 21  1  0
 21 22  1  0
 23 24  2  0
 24 25  1  0
 25 26  1  0
 26 27  2  0
 26 32  1  0
 27 28  1  0
 28 29  1  0
 28 30  2  0
 30 31  1  0
 31 32  2  0
 32 33  1  0
 34 35  1  0
 34 36  1  0
 36 37  1  0
 37 38  2  0
 38 39  1  0
 39 40  2  0
M  END
