
     RDKit          3D

 40 44  0  0  0  0  0  0  0  0999 V2000
    9.5900    2.1460    1.2230 C   0  0  0  0  0  0  0  0  0  0  0  0
    8.2580    2.0200    0.5320 C   0  0  0  0  0  0  0  0  0  0  0  0
    7.2430    1.2110    0.8840 N   0  0  0  0  0  0  0  0  0  0  0  0
    6.2130    1.3690    0.0340 C   0  0  0  0  0  0  0  0  0  0  0  0
    4.9230    0.7050    0.0320 C   0  0  0  0  0  0  0  0  0  0  0  0
    3.9680    0.9770   -0.9100 C   0  0  0  0  0  0  0  0  0  0  0  0
    2.7200    0.3410   -0.9200 C   0  0  0  0  0  0  0  0  0  0  0  0
    2.3920   -0.5930    0.0220 C   0  0  0  0  0  0  0  0  0  0  0  0
    1.1830   -1.3070    0.1350 N   0  0  0  0  0  0  0  0  0  0  0  0
    0.0780   -1.1570   -0.7540 C   0  0  0  0  0  0  0  0  0  0  0  0
    0.1580   -0.3470   -1.7010 O   0  0  0  0  0  0  0  0  0  0  0  0
   -1.1070   -1.9560   -0.5210 C   0  0  0  0  0  0  0  0  0  0  0  0
   -2.1880   -1.9510   -1.2200 C   0  0  0  0  0  0  0  0  0  0  0  0
   -2.4010   -1.1000   -2.4180 C   0  0  0  0  0  0  0  0  0  0  0  0
   -3.4700   -0.2680   -2.2420 O   0  0  0  0  0  0  0  0  0  0  0  0
   -3.7690    0.7270   -1.3620 C   0  0  0  0  0  0  0  0  0  0  0  0
   -2.9540    1.1650   -0.3430 C   0  0  0  0  0  0  0  0  0  0  0  0
   -3.3390    2.1900    0.5140 C   0  0  0  0  0  0  0  0  0  0  0  0
   -4.5490    2.8260    0.3980 C   0  0  0  0  0  0  0  0  0  0  0  0
   -4.9580    3.9010    1.2930 C   0  0  0  0  0  0  0  0  0  0  0  0
   -4.7830    5.2590    0.9170 N   0  0  0  0  0  0  0  0  0  0  0  0
   -5.6320    3.6170    2.7590 S   0  0  0  0  0  0  0  0  0  0  0  0
   -5.3780    2.4020   -0.6160 C   0  0  0  0  0  0  0  0  0  0  0  0
   -6.9410    3.2160   -0.7750 Cl  0  0  0  0  0  0  0  0  0  0  0  0
   -5.0090    1.3940   -1.4650 C   0  0  0  0  0  0  0  0  0  0  0  0
   -3.3270   -2.8250   -0.8510 C   0  0  0  0  0  0  0  0  0  0  0  0
   -4.4650   -2.8570   -1.6620 C   0  0  0  0  0  0  0  0  0  0  0  0
   -5.5160   -3.6650   -1.2910 C   0  0  0  0  0  0  0  0  0  0  0  0
   -5.5000   -4.4410   -0.1650 C   0  0  0  0  0  0  0  0  0  0  0  0
   -4.3890   -4.4120    0.6290 C   0  0  0  0  0  0  0  0  0  0  0  0
   -3.3130   -3.5960    0.2660 C   0  0  0  0  0  0  0  0  0  0  0  0
   -4.5740   -5.2740    1.7280 O   0  0  0  0  0  0  0  0  0  0  0  0
   -5.7210   -6.0470    1.4370 C   0  0  0  0  0  0  0  0  0  0  0  0
   -6.4020   -5.3300    0.4340 O   0  0  0  0  0  0  0  0  0  0  0  0
    3.3930   -0.8510    0.9760 C   0  0  0  0  0  0  0  0  0  0  0  0
    3.0330   -2.0440    2.2190 Cl  0  0  0  0  0  0  0  0  0  0  0  0
    4.6130   -0.2290    0.9860 C   0  0  0  0  0  0  0  0  0  0  0  0
    6.6090    2.2810   -0.8390 O   0  0  0  0  0  0  0  0  0  0  0  0
    7.8250    2.6940   -0.5750 C   0  0  0  0  0  0  0  0  0  0  0  0
    8.6450    3.7020   -1.2970 C   0  0  0  0  0  0  0  0  0  0  0  0
  1  2  1  0
  2  3  1  0
  2 39  2  0
  3  4  2  0
  4  5  1  0
  4 38  1  0
  5  6  2  0
  5 37  1  0
  6  7  1  0
  7  8  2  0
  8  9  1  0
  8 35  1  0
  9 10  1  0
 10 11  2  0
 10 12  1  0
 12 13  2  3
 13 14  1  0
 13 26  1  0
 14 15  1  0
 15 16  1  0
 16 17  2  0
 16 25  1  0
 17 18  1  0
 18 19  2  0
 19 20  1  0
 19 23  1  0
 20 21  1  0
 20 22  2  0
 23 24  1  0
 23 25  2  0
 26 27  2  0
 26 31  1  0
 27 28  1  0
 28 29  2  0
 29 30  1  0
 29 34  1  0
 30 31  2  0
 30 32  1  0
 32 33  1  0
 33 34  1  0
 35 36  1  0
 35 37  2  0
 38 39  1  0
 39 40  1  0
M  END
