
     RDKit          3D

 40 44  0  0  0  0  0  0  0  0999 V2000
   -8.9640   -1.9890   -0.8260 C   0  0  0  0  0  0  0  0  0  0  0  0
   -9.1580   -0.7380   -0.3640 C   0  0  0  0  0  0  0  0  0  0  0  0
  -10.3280   -0.4530    0.5370 C   0  0  0  0  0  0  0  0  0  0  0  0
  -10.6740    1.2430   -0.1110 S   0  0  0  0  0  0  0  0  0  0  0  0
   -8.9590    1.5820   -0.5580 C   0  0  0  0  0  0  0  0  0  0  0  0
   -8.3540    0.4160   -0.6340 C   0  0  0  0  0  0  0  0  0  0  0  0
   -6.9410    0.3020   -0.9770 N   0  0  0  0  0  0  0  0  0  0  0  0
   -6.0210   -0.2910   -0.0730 C   0  0  0  0  0  0  0  0  0  0  0  0
   -6.4960   -0.7130    1.0390 O   0  0  0  0  0  0  0  0  0  0  0  0
   -4.5960   -0.4370   -0.3500 C   0  0  0  0  0  0  0  0  0  0  0  0
   -3.7610   -0.9310    0.6150 C   0  0  0  0  0  0  0  0  0  0  0  0
   -2.3960   -1.0760    0.3620 C   0  0  0  0  0  0  0  0  0  0  0  0
   -1.8750   -0.7240   -0.8620 C   0  0  0  0  0  0  0  0  0  0  0  0
   -0.5310   -0.8590   -1.1330 O   0  0  0  0  0  0  0  0  0  0  0  0
    0.2900    0.2120   -1.4030 C   0  0  0  0  0  0  0  0  0  0  0  0
   -0.1200    1.5200   -1.3690 C   0  0  0  0  0  0  0  0  0  0  0  0
    0.7410    2.5730   -1.6520 C   0  0  0  0  0  0  0  0  0  0  0  0
    0.1690    4.2190   -1.5960 Cl  0  0  0  0  0  0  0  0  0  0  0  0
    2.0380    2.3020   -1.9730 C   0  0  0  0  0  0  0  0  0  0  0  0
    2.4970    1.0040   -2.0190 C   0  0  0  0  0  0  0  0  0  0  0  0
    1.6140   -0.0320   -1.7320 C   0  0  0  0  0  0  0  0  0  0  0  0
    2.0650   -1.3230   -1.7760 O   0  0  0  0  0  0  0  0  0  0  0  0
    3.3420   -1.7770   -2.0640 C   0  0  0  0  0  0  0  0  0  0  0  0
    4.3820   -1.3140   -1.0730 C   0  0  0  0  0  0  0  0  0  0  0  0
    5.5610   -1.5650   -1.3810 O   0  0  0  0  0  0  0  0  0  0  0  0
    4.0240   -0.6480    0.1140 N   0  0  0  0  0  0  0  0  0  0  0  0
    4.9360   -0.1900    1.0770 C   0  0  0  0  0  0  0  0  0  0  0  0
    4.4690    0.7100    2.0560 C   0  0  0  0  0  0  0  0  0  0  0  0
    5.3340    1.1590    3.0150 C   0  0  0  0  0  0  0  0  0  0  0  0
    6.6550    0.7620    3.0590 C   0  0  0  0  0  0  0  0  0  0  0  0
    7.7090    1.0280    3.8560 N   0  0  0  0  0  0  0  0  0  0  0  0
    8.7900    0.3660    3.4520 C   0  0  0  0  0  0  0  0  0  0  0  0
    8.4570   -0.3780    2.3360 C   0  0  0  0  0  0  0  0  0  0  0  0
    9.3270   -1.2520    1.5630 C   0  0  0  0  0  0  0  0  0  0  0  0
    8.8900   -1.8730    0.5650 O   0  0  0  0  0  0  0  0  0  0  0  0
    7.1300   -0.1170    2.1110 C   0  0  0  0  0  0  0  0  0  0  0  0
    6.2340   -0.5650    1.1420 C   0  0  0  0  0  0  0  0  0  0  0  0
   -2.7200   -0.2310   -1.8210 C   0  0  0  0  0  0  0  0  0  0  0  0
   -2.0660    0.1810   -3.3900 Cl  0  0  0  0  0  0  0  0  0  0  0  0
   -4.0880   -0.0880   -1.5620 C   0  0  0  0  0  0  0  0  0  0  0  0
  1  2  2  0
  2  3  1  0
  2  6  1  0
  3  4  1  0
  4  5  1  0
  5  6  2  0
  6  7  1  0
  7  8  1  0
  8  9  2  0
  8 10  1  0
 10 11  2  0
 10 40  1  0
 11 12  1  0
 12 13  2  0
 13 14  1  0
 13 38  1  0
 14 15  1  0
 15 16  2  0
 15 21  1  0
 16 17  1  0
 17 18  1  0
 17 19  2  0
 19 20  1  0
 20 21  2  0
 21 22  1  0
 22 23  1  0
 23 24  1  0
 24 25  2  0
 24 26  1  0
 26 27  1  0
 27 28  2  0
 27 37  1  0
 28 29  1  0
 29 30  2  0
 30 31  1  0
 30 36  1  0
 31 32  1  0
 32 33  2  0
 33 34  1  0
 33 36  1  0
 34 35  2  0
 36 37  2  0
 38 39  1  0
 38 40  2  0
M  END
