
     RDKit          3D

 40 44  0  0  0  0  0  0  0  0999 V2000
   -8.4400   -0.3150    0.6830 C   0  0  0  0  0  0  0  0  0  0  0  0
   -7.0900    0.3150    0.6030 C   0  0  0  0  0  0  0  0  0  0  0  0
   -6.9710    1.6590    0.8110 C   0  0  0  0  0  0  0  0  0  0  0  0
   -5.7130    2.2510    0.7360 C   0  0  0  0  0  0  0  0  0  0  0  0
   -4.5980    1.4920    0.4560 C   0  0  0  0  0  0  0  0  0  0  0  0
   -3.3390    2.0000    0.3690 C   0  0  0  0  0  0  0  0  0  0  0  0
   -3.1840    3.2280    0.5540 O   0  0  0  0  0  0  0  0  0  0  0  0
   -2.2010    1.1960    0.0800 C   0  0  0  0  0  0  0  0  0  0  0  0
   -0.9590    1.9120   -0.0090 C   0  0  0  0  0  0  0  0  0  0  0  0
    0.2850    1.2300   -0.1810 N   0  0  0  0  0  0  0  0  0  0  0  0
    0.8410    0.4740    0.8760 C   0  0  0  0  0  0  0  0  0  0  0  0
    0.1120    0.4760    1.9430 O   0  0  0  0  0  0  0  0  0  0  0  0
    2.0810   -0.2620    0.8880 C   0  0  0  0  0  0  0  0  0  0  0  0
    2.2680   -1.1700    1.9570 C   0  0  0  0  0  0  0  0  0  0  0  0
    3.2920   -2.0490    1.9730 C   0  0  0  0  0  0  0  0  0  0  0  0
    3.5410   -3.1890    3.3080 Cl  0  0  0  0  0  0  0  0  0  0  0  0
    4.1890   -2.0820    0.9360 C   0  0  0  0  0  0  0  0  0  0  0  0
    5.3300   -3.0660    0.9350 C   0  0  0  0  0  0  0  0  0  0  0  0
    5.1470   -4.3460    1.2170 C   0  0  0  0  0  0  0  0  0  0  0  0
    6.2910   -5.1840    1.1900 C   0  0  0  0  0  0  0  0  0  0  0  0
    7.6130   -4.0480    0.7460 S   0  0  0  0  0  0  0  0  0  0  0  0
    6.5690   -2.5840    0.6330 C   0  0  0  0  0  0  0  0  0  0  0  0
    4.0350   -1.2170   -0.1030 C   0  0  0  0  0  0  0  0  0  0  0  0
    2.9630   -0.2730   -0.1450 C   0  0  0  0  0  0  0  0  0  0  0  0
    2.9020    0.5470   -1.2240 O   0  0  0  0  0  0  0  0  0  0  0  0
    3.4660    1.7430   -1.5210 C   0  0  0  0  0  0  0  0  0  0  0  0
    4.1400    1.7320   -2.7760 C   0  0  0  0  0  0  0  0  0  0  0  0
    4.7690    2.8400   -3.2430 C   0  0  0  0  0  0  0  0  0  0  0  0
    5.4390    2.8360   -4.4870 O   0  0  0  0  0  0  0  0  0  0  0  0
    4.7590    3.9630   -2.5200 N   0  0  0  0  0  0  0  0  0  0  0  0
    4.1510    4.0280   -1.3500 C   0  0  0  0  0  0  0  0  0  0  0  0
    3.4970    2.9070   -0.8440 C   0  0  0  0  0  0  0  0  0  0  0  0
    2.7970    3.1100    0.7440 Cl  0  0  0  0  0  0  0  0  0  0  0  0
   -2.4200   -0.1160   -0.1130 C   0  0  0  0  0  0  0  0  0  0  0  0
   -1.3580   -1.0710   -0.4880 C   0  0  0  0  0  0  0  0  0  0  0  0
   -3.6920   -0.6160   -0.0210 N   0  0  0  0  0  0  0  0  0  0  0  0
   -4.7570    0.1410    0.2530 C   0  0  0  0  0  0  0  0  0  0  0  0
   -5.9930   -0.4720    0.3200 C   0  0  0  0  0  0  0  0  0  0  0  0
   -6.1810   -1.8880    0.1100 C   0  0  0  0  0  0  0  0  0  0  0  0
   -6.1170   -2.6940    1.0930 O   0  0  0  0  0  0  0  0  0  0  0  0
  1  2  1  0
  2  3  2  0
  2 38  1  0
  3  4  1  0
  4  5  2  0
  5  6  1  0
  5 37  1  0
  6  7  2  0
  6  8  1  0
  8  9  1  0
  8 34  2  0
  9 10  1  0
 10 11  1  0
 11 12  2  0
 11 13  1  0
 13 14  2  0
 13 24  1  0
 14 15  1  0
 15 16  1  0
 15 17  2  0
 17 18  1  0
 17 23  1  0
 18 19  1  0
 18 22  2  0
 19 20  2  0
 20 21  1  0
 21 22  1  0
 23 24  2  0
 24 25  1  0
 25 26  1  0
 26 27  2  0
 26 32  1  0
 27 28  1  0
 28 29  1  0
 28 30  2  0
 30 31  1  0
 31 32  2  0
 32 33  1  0
 34 35  1  0
 34 36  1  0
 36 37  1  0
 37 38  2  0
 38 39  1  0
 39 40  2  0
M  END
