
     RDKit          3D

 40 44  0  0  0  0  0  0  0  0999 V2000
    8.3910    2.9630   -1.0130 C   0  0  0  0  0  0  0  0  0  0  0  0
    8.3530    1.4430   -0.8400 C   0  0  0  0  0  0  0  0  0  0  0  0
    6.9340    1.0790   -0.5580 C   0  0  0  0  0  0  0  0  0  0  0  0
    6.7300   -0.3750   -0.3630 C   0  0  0  0  0  0  0  0  0  0  0  0
    7.6170   -1.3260   -0.4060 C   0  0  0  0  0  0  0  0  0  0  0  0
    9.0330   -1.2250   -0.6530 N   0  0  0  0  0  0  0  0  0  0  0  0
    7.0000   -2.6310   -0.1580 C   0  0  0  0  0  0  0  0  0  0  0  0
    7.5330   -3.7650   -0.1220 O   0  0  0  0  0  0  0  0  0  0  0  0
    5.6000   -2.3700    0.0470 C   0  0  0  0  0  0  0  0  0  0  0  0
    4.4810   -3.1610    0.3200 C   0  0  0  0  0  0  0  0  0  0  0  0
    3.2330   -2.6040    0.4660 C   0  0  0  0  0  0  0  0  0  0  0  0
    2.1390   -3.4450    0.7410 O   0  0  0  0  0  0  0  0  0  0  0  0
    2.3260   -4.8290    0.8630 C   0  0  0  0  0  0  0  0  0  0  0  0
    3.0760   -1.2440    0.3410 C   0  0  0  0  0  0  0  0  0  0  0  0
    1.8140   -0.6240    0.4750 N   0  0  0  0  0  0  0  0  0  0  0  0
    1.5220    0.6000    1.1490 C   0  0  0  0  0  0  0  0  0  0  0  0
    2.3760    1.3180    1.7390 O   0  0  0  0  0  0  0  0  0  0  0  0
    0.0930    0.8650    1.0350 C   0  0  0  0  0  0  0  0  0  0  0  0
   -0.7070    1.8870    1.4880 C   0  0  0  0  0  0  0  0  0  0  0  0
   -2.0760    1.8820    1.2200 C   0  0  0  0  0  0  0  0  0  0  0  0
   -2.6780    0.8860    0.5110 C   0  0  0  0  0  0  0  0  0  0  0  0
   -4.0570    0.8070    0.1730 N   0  0  0  0  0  0  0  0  0  0  0  0
   -5.0160    1.8060    0.2940 C   0  0  0  0  0  0  0  0  0  0  0  0
   -4.6350    2.9370    0.7580 O   0  0  0  0  0  0  0  0  0  0  0  0
   -6.4500    1.6930   -0.0640 C   0  0  0  0  0  0  0  0  0  0  0  0
   -7.5690    3.0800    0.1370 S   0  0  0  0  0  0  0  0  0  0  0  0
   -9.0180    2.2280   -0.4630 C   0  0  0  0  0  0  0  0  0  0  0  0
  -10.3690    2.8610   -0.5890 C   0  0  0  0  0  0  0  0  0  0  0  0
   -8.5510    0.9900   -0.7590 C   0  0  0  0  0  0  0  0  0  0  0  0
   -9.5190   -0.0640   -1.2800 C   0  0  0  0  0  0  0  0  0  0  0  0
  -10.2570   -0.7440   -0.1800 C   0  0  0  0  0  0  0  0  0  0  0  0
  -11.2420    0.2610    0.8500 Cl  0  0  0  0  0  0  0  0  0  0  0  0
   -7.2290    0.7420   -0.5460 C   0  0  0  0  0  0  0  0  0  0  0  0
   -6.5480   -0.8870   -0.9210 Cl  0  0  0  0  0  0  0  0  0  0  0  0
   -1.8410   -0.1390    0.0650 C   0  0  0  0  0  0  0  0  0  0  0  0
   -0.4890   -0.1550    0.3160 C   0  0  0  0  0  0  0  0  0  0  0  0
    0.5830   -1.1070   -0.0470 C   0  0  0  0  0  0  0  0  0  0  0  0
    0.3700   -2.1550   -0.7110 O   0  0  0  0  0  0  0  0  0  0  0  0
    4.1650   -0.4550    0.0730 C   0  0  0  0  0  0  0  0  0  0  0  0
    5.4250   -0.9980   -0.0760 C   0  0  0  0  0  0  0  0  0  0  0  0
  1  2  1  0
  2  3  1  0
  3  4  1  0
  4  5  2  0
  4 40  1  0
  5  6  1  0
  5  7  1  0
  7  8  2  0
  7  9  1  0
  9 10  2  0
  9 40  1  0
 10 11  1  0
 11 12  1  0
 11 14  2  0
 12 13  1  0
 14 15  1  0
 14 39  1  0
 15 16  1  0
 15 37  1  0
 16 17  2  0
 16 18  1  0
 18 19  2  0
 18 36  1  0
 19 20  1  0
 20 21  2  0
 21 22  1  0
 21 35  1  0
 22 23  1  0
 23 24  2  0
 23 25  1  0
 25 26  1  0
 25 33  2  0
 26 27  1  0
 27 28  1  0
 27 29  2  0
 29 30  1  0
 29 33  1  0
 30 31  1  0
 31 32  1  0
 33 34  1  0
 35 36  2  0
 36 37  1  0
 37 38  2  0
 39 40  2  0
M  END
