
     RDKit          3D

 40 44  0  0  0  0  0  0  0  0999 V2000
   -5.5970   -6.3400   -0.1870 C   0  0  0  0  0  0  0  0  0  0  0  0
   -5.7670   -4.8930   -0.3090 C   0  0  0  0  0  0  0  0  0  0  0  0
   -7.3410   -4.1880   -0.4520 Cl  0  0  0  0  0  0  0  0  0  0  0  0
   -4.6710   -4.0340   -0.3140 C   0  0  0  0  0  0  0  0  0  0  0  0
   -3.1960   -4.9350   -0.1610 Cl  0  0  0  0  0  0  0  0  0  0  0  0
   -4.9640   -2.6740   -0.4400 C   0  0  0  0  0  0  0  0  0  0  0  0
   -4.3600   -1.5420   -0.4950 C   0  0  0  0  0  0  0  0  0  0  0  0
   -5.2670   -0.2620   -0.6530 C   0  0  0  0  0  0  0  0  0  0  0  0
   -4.3190    0.9970   -0.7730 S   0  0  1  0  0  0  0  0  0  0  0  0
   -4.3850    1.6380   -2.1040 O   0  0  0  0  0  0  0  0  0  0  0  0
   -4.5660    2.1220    0.4890 N   0  0  0  0  0  0  0  0  0  0  0  0
   -5.6980    2.9870    0.5140 C   0  0  0  0  0  0  0  0  0  0  0  0
   -5.8980    3.9070    1.5360 C   0  0  0  0  0  0  0  0  0  0  0  0
   -6.9890    4.7410    1.5610 C   0  0  0  0  0  0  0  0  0  0  0  0
   -7.9420    4.7090    0.5770 C   0  0  0  0  0  0  0  0  0  0  0  0
   -7.7640    3.7950   -0.4570 C   0  0  0  0  0  0  0  0  0  0  0  0
   -6.6580    2.9570   -0.4750 C   0  0  0  0  0  0  0  0  0  0  0  0
   -2.7680    0.2380   -0.5550 C   0  0  0  0  0  0  0  0  0  0  0  0
   -1.5010    0.7640   -0.5020 C   0  0  0  0  0  0  0  0  0  0  0  0
   -0.3620   -0.0270   -0.3420 C   0  0  0  0  0  0  0  0  0  0  0  0
    0.9260    0.6490   -0.2950 C   0  0  0  0  0  0  0  0  0  0  0  0
    0.9520    1.8940   -0.1550 O   0  0  0  0  0  0  0  0  0  0  0  0
    2.1360   -0.0630   -0.4050 N   0  0  0  0  0  0  0  0  0  0  0  0
    3.4390    0.5210   -0.3680 C   0  0  0  0  0  0  0  0  0  0  0  0
    3.7310    1.8410   -0.1940 C   0  0  0  0  0  0  0  0  0  0  0  0
    5.0850    1.9290   -0.2310 N   0  0  0  0  0  0  0  0  0  0  0  0
    5.6410    0.7240   -0.4210 C   0  0  0  0  0  0  0  0  0  0  0  0
    7.0610    0.3920   -0.5210 C   0  0  0  0  0  0  0  0  0  0  0  0
    7.3950   -0.7970   -0.7010 O   0  0  0  0  0  0  0  0  0  0  0  0
    8.0540    1.3370   -0.4270 O   0  0  0  0  0  0  0  0  0  0  0  0
    9.4330    1.1100   -0.5120 C   0  0  0  0  0  0  0  0  0  0  0  0
    9.9710    0.1940    0.5120 C   0  0  0  0  0  0  0  0  0  0  0  0
   10.1430   -1.1620    0.3430 C   0  0  0  0  0  0  0  0  0  0  0  0
   10.6650   -1.6280    1.5350 C   0  0  0  0  0  0  0  0  0  0  0  0
   10.7830   -0.5480    2.3620 C   0  0  0  0  0  0  0  0  0  0  0  0
   10.3630    0.4980    1.7160 O   0  0  0  0  0  0  0  0  0  0  0  0
    4.6160   -0.1780   -0.5100 C   0  0  0  0  0  0  0  0  0  0  0  0
   -0.5600   -1.3630   -0.2380 C   0  0  0  0  0  0  0  0  0  0  0  0
   -1.8290   -1.8920   -0.2910 C   0  0  0  0  0  0  0  0  0  0  0  0
   -2.9880   -1.1090   -0.4520 C   0  0  0  0  0  0  0  0  0  0  0  0
  1  2  1  0
  2  3  1  0
  2  4  2  3
  4  5  1  0
  4  6  1  0
  6  7  2  3
  7  8  1  0
  7 40  1  0
  8  9  2  0
  9 10  2  0
  9 11  1  1
  9 18  1  0
 11 12  1  0
 12 13  2  0
 12 17  1  0
 13 14  1  0
 14 15  2  0
 15 16  1  0
 16 17  2  0
 18 19  2  0
 18 40  1  0
 19 20  1  0
 20 21  1  0
 20 38  2  0
 21 22  2  0
 21 23  1  0
 23 24  1  0
 24 25  2  0
 24 37  1  0
 25 26  1  0
 26 27  1  0
 27 28  1  0
 27 37  2  0
 28 29  2  0
 28 30  1  0
 30 31  1  0
 31 32  1  0
 32 33  2  0
 32 36  1  0
 33 34  1  0
 34 35  2  0
 35 36  1  0
 38 39  1  0
 39 40  2  0
M  END
