
     RDKit          3D

 40 44  0  0  0  0  0  0  0  0999 V2000
   -5.3710    3.3140   -0.6140 C   0  0  0  0  0  0  0  0  0  0  0  0
   -6.3020    2.2220   -0.2200 C   0  0  0  0  0  0  0  0  0  0  0  0
   -7.5600    2.1460   -0.8320 C   0  0  0  0  0  0  0  0  0  0  0  0
   -8.4340    1.1560   -0.4930 C   0  0  0  0  0  0  0  0  0  0  0  0
   -8.0860    0.2140    0.4600 C   0  0  0  0  0  0  0  0  0  0  0  0
   -9.2000   -1.0430    0.8880 Cl  0  0  0  0  0  0  0  0  0  0  0  0
   -6.8220    0.3070    1.0610 C   0  0  0  0  0  0  0  0  0  0  0  0
   -6.3820   -0.8670    2.2520 Cl  0  0  0  0  0  0  0  0  0  0  0  0
   -5.9450    1.3000    0.7220 C   0  0  0  0  0  0  0  0  0  0  0  0
   -4.6860    1.3690    1.3460 N   0  0  0  0  0  0  0  0  0  0  0  0
   -3.5200    0.7490    0.8160 C   0  0  0  0  0  0  0  0  0  0  0  0
   -3.6240    0.1230   -0.2680 O   0  0  0  0  0  0  0  0  0  0  0  0
   -2.2730    0.8420    1.5040 N   0  0  0  0  0  0  0  0  0  0  0  0
   -1.0630    0.2210    0.9840 C   0  0  0  0  0  0  0  0  0  0  0  0
   -1.1980   -1.2560    0.8280 C   0  0  0  0  0  0  0  0  0  0  0  0
   -0.0230   -1.9350    0.2800 C   0  0  0  0  0  0  0  0  0  0  0  0
    1.1980   -1.3420    0.0540 C   0  0  0  0  0  0  0  0  0  0  0  0
    1.4140   -0.0290    0.3770 O   0  0  0  0  0  0  0  0  0  0  0  0
    2.5480    0.6840    0.1380 C   0  0  0  0  0  0  0  0  0  0  0  0
    3.6600    0.5520    0.9250 C   0  0  0  0  0  0  0  0  0  0  0  0
    4.7780    1.3280    0.6010 C   0  0  0  0  0  0  0  0  0  0  0  0
    4.7930    2.2030   -0.4640 C   0  0  0  0  0  0  0  0  0  0  0  0
    5.9450    3.0020   -0.8370 C   0  0  0  0  0  0  0  0  0  0  0  0
    5.7790    4.0750   -1.5180 O   0  0  0  0  0  0  0  0  0  0  0  0
    7.3290    2.6880   -0.4970 C   0  0  0  0  0  0  0  0  0  0  0  0
    7.9530    1.5280   -0.3000 C   0  0  0  0  0  0  0  0  0  0  0  0
    9.2560    1.4780    0.0080 C   0  0  0  0  0  0  0  0  0  0  0  0
    9.9290    2.7010    0.1120 C   0  0  0  0  0  0  0  0  0  0  0  0
    8.6140    3.8910   -0.2480 S   0  0  0  0  0  0  0  0  0  0  0  0
    3.6290    2.2920   -1.2250 C   0  0  0  0  0  0  0  0  0  0  0  0
    2.5040    1.5540   -0.9540 C   0  0  0  0  0  0  0  0  0  0  0  0
    2.2590   -2.0550   -0.5140 C   0  0  0  0  0  0  0  0  0  0  0  0
    2.0810   -3.3760   -0.8510 C   0  0  0  0  0  0  0  0  0  0  0  0
    0.8640   -3.9840   -0.6290 C   0  0  0  0  0  0  0  0  0  0  0  0
   -0.1850   -3.2830   -0.0700 C   0  0  0  0  0  0  0  0  0  0  0  0
   -1.3910   -3.9770    0.1250 N   0  0  0  0  0  0  0  0  0  0  0  0
   -1.4980   -5.3430   -0.2480 C   0  0  0  0  0  0  0  0  0  0  0  0
   -2.3860   -6.1060    0.2180 O   0  0  0  0  0  0  0  0  0  0  0  0
   -0.5410   -5.9210   -1.2210 C   0  0  0  0  0  0  0  0  0  0  0  0
    0.7300   -5.3330   -0.9870 O   0  0  0  0  0  0  0  0  0  0  0  0
  1  2  1  0
  2  3  2  0
  2  9  1  0
  3  4  1  0
  4  5  2  0
  5  6  1  0
  5  7  1  0
  7  8  1  0
  7  9  2  0
  9 10  1  0
 10 11  1  0
 11 12  2  0
 11 13  1  0
 13 14  1  0
 14 15  1  0
 15 16  1  0
 16 17  1  0
 16 35  2  0
 17 18  1  0
 17 32  2  0
 18 19  1  0
 19 20  2  0
 19 31  1  0
 20 21  1  0
 21 22  2  0
 22 23  1  0
 22 30  1  0
 23 24  2  0
 23 25  1  0
 25 26  2  0
 25 29  1  0
 26 27  1  0
 27 28  2  0
 28 29  1  0
 30 31  2  0
 32 33  1  0
 33 34  2  0
 34 35  1  0
 34 40  1  0
 35 36  1  0
 36 37  1  0
 37 38  2  0
 37 39  1  0
 39 40  1  0
M  END
