
     RDKit          3D

 40 44  0  0  0  0  0  0  0  0999 V2000
   -0.1150   -4.3010   -0.2250 C   0  0  0  0  0  0  0  0  0  0  0  0
    0.0600   -3.0070   -0.7130 O   0  0  0  0  0  0  0  0  0  0  0  0
    1.0930   -2.2040   -0.2700 C   0  0  0  0  0  0  0  0  0  0  0  0
    1.9440   -2.7640    0.6930 C   0  0  0  0  0  0  0  0  0  0  0  0
    2.9860   -2.0430    1.1830 C   0  0  0  0  0  0  0  0  0  0  0  0
    3.1840   -0.7550    0.7110 C   0  0  0  0  0  0  0  0  0  0  0  0
    4.3980   -0.0640    1.1850 C   0  0  0  0  0  0  0  0  0  0  0  0
    4.5720   -0.0480    2.4230 O   0  0  0  0  0  0  0  0  0  0  0  0
    5.3210    0.5360    0.3290 N   0  0  0  0  0  0  0  0  0  0  0  0
    6.4940    1.2330    0.6040 C   0  0  0  0  0  0  0  0  0  0  0  0
    6.6730    2.1100    1.6350 C   0  0  0  0  0  0  0  0  0  0  0  0
    5.3350    2.5210    2.6790 Cl  0  0  0  0  0  0  0  0  0  0  0  0
    7.8870    2.7170    1.8480 C   0  0  0  0  0  0  0  0  0  0  0  0
    8.0530    3.8310    3.2050 Cl  0  0  0  0  0  0  0  0  0  0  0  0
    8.9730    2.4630    1.0280 C   0  0  0  0  0  0  0  0  0  0  0  0
    8.7810    1.5640   -0.0300 C   0  0  0  0  0  0  0  0  0  0  0  0
    9.6470    1.1080   -1.0230 C   0  0  0  0  0  0  0  0  0  0  0  0
    8.9540    0.2370   -1.8190 C   0  0  0  0  0  0  0  0  0  0  0  0
    7.7060    0.1600   -1.3330 N   0  0  0  0  0  0  0  0  0  0  0  0
    7.5920    0.9610   -0.2490 C   0  0  0  0  0  0  0  0  0  0  0  0
    2.3870   -0.1720   -0.2140 C   0  0  0  0  0  0  0  0  0  0  0  0
    2.5020    1.1900   -0.7130 C   0  0  0  0  0  0  0  0  0  0  0  0
    3.1380    1.5450   -1.7160 O   0  0  0  0  0  0  0  0  0  0  0  0
    1.2930   -0.9440   -0.7240 C   0  0  0  0  0  0  0  0  0  0  0  0
    0.5570   -0.3070   -1.6430 O   0  0  0  0  0  0  0  0  0  0  0  0
   -0.5090    0.4740   -1.6440 C   0  0  0  0  0  0  0  0  0  0  0  0
   -1.8540    0.0100   -1.2810 C   0  0  0  0  0  0  0  0  0  0  0  0
   -2.1480   -1.1980   -1.2640 O   0  0  0  0  0  0  0  0  0  0  0  0
   -2.8900    0.9160   -0.9370 N   0  0  0  0  0  0  0  0  0  0  0  0
   -4.2130    0.5820   -0.6240 C   0  0  0  0  0  0  0  0  0  0  0  0
   -4.9720   -0.5470   -0.6250 C   0  0  0  0  0  0  0  0  0  0  0  0
   -6.2610   -0.4630   -0.2150 C   0  0  0  0  0  0  0  0  0  0  0  0
   -7.1790   -1.5490   -0.1770 C   0  0  0  0  0  0  0  0  0  0  0  0
   -8.4560   -1.3440    0.2420 C   0  0  0  0  0  0  0  0  0  0  0  0
   -8.9480   -0.1310    0.6470 C   0  0  0  0  0  0  0  0  0  0  0  0
  -10.3110    0.0500    1.1040 C   0  0  0  0  0  0  0  0  0  0  0  0
   -8.0670    0.9320    0.6140 C   0  0  0  0  0  0  0  0  0  0  0  0
   -8.4690    2.2720    1.0160 C   0  0  0  0  0  0  0  0  0  0  0  0
   -6.7700    0.7070    0.1830 C   0  0  0  0  0  0  0  0  0  0  0  0
   -5.4080    1.8510    0.0030 S   0  0  0  0  0  0  0  0  0  0  0  0
  1  2  1  0
  2  3  1  0
  3  4  2  0
  3 24  1  0
  4  5  1  0
  5  6  2  0
  6  7  1  0
  6 21  1  0
  7  8  2  0
  7  9  1  0
  9 10  1  0
 10 11  2  0
 10 20  1  0
 11 12  1  0
 11 13  1  0
 13 14  1  0
 13 15  2  0
 15 16  1  0
 16 17  1  0
 16 20  2  0
 17 18  2  0
 18 19  1  0
 19 20  1  0
 21 22  1  0
 21 24  2  0
 22 23  2  0
 24 25  1  0
 25 26  1  0
 26 27  1  0
 27 28  2  0
 27 29  1  0
 29 30  1  0
 30 31  2  0
 30 40  1  0
 31 32  1  0
 32 33  2  0
 32 39  1  0
 33 34  1  0
 34 35  2  0
 35 36  1  0
 35 37  1  0
 37 38  1  0
 37 39  2  0
 39 40  1  0
M  END
