
     RDKit          3D

 40 44  0  0  0  0  0  0  0  0999 V2000
    9.7840    2.2330    0.6860 C   0  0  0  0  0  0  0  0  0  0  0  0
    8.7000    1.2740    0.4590 C   0  0  0  0  0  0  0  0  0  0  0  0
    7.4000    1.5010    0.5350 N   0  0  0  0  0  0  0  0  0  0  0  0
    6.7050    0.3580    0.2560 C   0  0  0  0  0  0  0  0  0  0  0  0
    5.2620    0.2030    0.2370 C   0  0  0  0  0  0  0  0  0  0  0  0
    4.4420    1.2610    0.5160 C   0  0  0  0  0  0  0  0  0  0  0  0
    3.0380    1.0840    0.4920 C   0  0  0  0  0  0  0  0  0  0  0  0
    2.4580   -0.1170    0.1970 C   0  0  0  0  0  0  0  0  0  0  0  0
    1.0810   -0.3840    0.1490 N   0  0  0  0  0  0  0  0  0  0  0  0
    0.0180    0.4930    0.3820 C   0  0  0  0  0  0  0  0  0  0  0  0
    0.4000    1.6980    0.7140 O   0  0  0  0  0  0  0  0  0  0  0  0
   -1.3980    0.2930    0.3100 C   0  0  0  0  0  0  0  0  0  0  0  0
   -2.2550   -0.5730   -0.0300 C   0  0  0  0  0  0  0  0  0  0  0  0
   -3.7560   -0.1730    0.1660 C   0  0  0  0  0  0  0  0  0  0  0  0
   -3.8260    1.1150    0.6960 O   0  0  0  0  0  0  0  0  0  0  0  0
   -5.0230    1.7570    0.9850 C   0  0  0  0  0  0  0  0  0  0  0  0
   -6.2350    1.1120    0.7470 C   0  0  0  0  0  0  0  0  0  0  0  0
   -7.4150    1.7520    1.0340 C   0  0  0  0  0  0  0  0  0  0  0  0
   -7.4710    3.0240    1.5580 C   0  0  0  0  0  0  0  0  0  0  0  0
   -8.7410    3.6780    1.8530 C   0  0  0  0  0  0  0  0  0  0  0  0
   -8.7690    4.8210    2.6990 N   0  0  0  0  0  0  0  0  0  0  0  0
  -10.1070    3.0610    1.1880 S   0  0  0  0  0  0  0  0  0  0  0  0
   -6.2640    3.6570    1.7910 C   0  0  0  0  0  0  0  0  0  0  0  0
   -6.2720    5.2820    2.4580 Cl  0  0  0  0  0  0  0  0  0  0  0  0
   -5.0730    3.0250    1.5060 C   0  0  0  0  0  0  0  0  0  0  0  0
   -2.1400   -1.7880   -0.7810 C   0  0  0  0  0  0  0  0  0  0  0  0
   -1.1400   -2.0400   -1.6710 C   0  0  0  0  0  0  0  0  0  0  0  0
   -1.0270   -3.2600   -2.3280 C   0  0  0  0  0  0  0  0  0  0  0  0
   -1.9510   -4.2500   -2.0810 C   0  0  0  0  0  0  0  0  0  0  0  0
   -2.9740   -4.0330   -1.1920 C   0  0  0  0  0  0  0  0  0  0  0  0
   -3.0630   -2.8160   -0.5540 C   0  0  0  0  0  0  0  0  0  0  0  0
   -3.7540   -5.1770   -1.1290 O   0  0  0  0  0  0  0  0  0  0  0  0
   -3.1510   -6.2110   -1.8770 C   0  0  0  0  0  0  0  0  0  0  0  0
   -2.1140   -5.5350   -2.5570 O   0  0  0  0  0  0  0  0  0  0  0  0
    3.3390   -1.1760   -0.0840 C   0  0  0  0  0  0  0  0  0  0  0  0
    2.6580   -2.7450   -0.4720 Cl  0  0  0  0  0  0  0  0  0  0  0  0
    4.7190   -1.0190   -0.0640 C   0  0  0  0  0  0  0  0  0  0  0  0
    7.6320   -0.5420    0.0140 O   0  0  0  0  0  0  0  0  0  0  0  0
    8.8390   -0.0470    0.1220 C   0  0  0  0  0  0  0  0  0  0  0  0
   10.1350   -0.7760   -0.0810 C   0  0  0  0  0  0  0  0  0  0  0  0
  1  2  1  0
  2  3  1  0
  2 39  2  0
  3  4  2  0
  4  5  1  0
  4 38  1  0
  5  6  2  0
  5 37  1  0
  6  7  1  0
  7  8  2  0
  8  9  1  0
  8 35  1  0
  9 10  1  0
 10 11  2  0
 10 12  1  0
 12 13  2  3
 13 14  1  0
 13 26  1  0
 14 15  1  0
 15 16  1  0
 16 17  2  0
 16 25  1  0
 17 18  1  0
 18 19  2  0
 19 20  1  0
 19 23  1  0
 20 21  1  0
 20 22  2  0
 23 24  1  0
 23 25  2  0
 26 27  2  0
 26 31  1  0
 27 28  1  0
 28 29  2  0
 29 30  1  0
 29 34  1  0
 30 31  2  0
 30 32  1  0
 32 33  1  0
 33 34  1  0
 35 36  1  0
 35 37  2  0
 38 39  1  0
 39 40  1  0
M  END
