
     RDKit          3D

 20 23  0  0  0  0  0  0  0  0999 V2000
    5.2850    0.3530   -0.1840 C   0  0  0  0  0  0  0  0  0  0  0  0
    4.0290   -0.3330    0.2300 C   0  0  0  0  0  0  0  0  0  0  0  0
    4.1080   -1.5410    0.8800 C   0  0  0  0  0  0  0  0  0  0  0  0
    2.9560   -2.1760    1.2760 C   0  0  0  0  0  0  0  0  0  0  0  0
    1.7260   -1.5990    1.0210 C   0  0  0  0  0  0  0  0  0  0  0  0
    1.6100   -0.3880    0.3720 C   0  0  0  0  0  0  0  0  0  0  0  0
    2.7920    0.2130   -0.0100 C   0  0  0  0  0  0  0  0  0  0  0  0
    2.4800    1.4960   -0.7350 C   0  0  0  0  0  0  0  0  0  0  0  0
    1.0860    1.1250   -1.2930 C   0  0  0  0  0  0  0  0  0  0  0  0
    0.5200    0.5010   -0.0360 C   0  0  1  0  0  0  0  0  0  0  0  0
   -0.7600   -0.0250   -0.0950 N   0  0  0  0  0  0  0  0  0  0  0  0
   -1.0690   -1.1260   -0.9220 C   0  0  0  0  0  0  0  0  0  0  0  0
   -2.2130   -1.9470   -0.3100 C   0  0  0  0  0  0  0  0  0  0  0  0
   -3.3850   -1.0430   -0.0640 C   0  0  0  0  0  0  0  0  0  0  0  0
   -4.7110   -1.2510   -0.0200 N   0  0  0  0  0  0  0  0  0  0  0  0
   -5.3250   -0.0980    0.2330 N   0  0  0  0  0  0  0  0  0  0  0  0
   -4.3940    0.8720    0.3550 C   0  0  0  0  0  0  0  0  0  0  0  0
   -4.6300    2.3220    0.6360 C   0  0  0  0  0  0  0  0  0  0  0  0
   -3.1550    0.2870    0.1700 C   0  0  0  0  0  0  0  0  0  0  0  0
   -1.8280    0.8680    0.1960 C   0  0  0  0  0  0  0  0  0  0  0  0
  1  2  1  0
  2  3  2  0
  2  7  1  0
  3  4  1  0
  4  5  2  0
  5  6  1  0
  6  7  2  0
  6 10  1  0
  7  8  1  0
  8  9  1  0
  9 10  1  0
 10 11  1  6
 11 12  1  0
 11 20  1  0
 12 13  1  0
 13 14  1  0
 14 15  1  0
 14 19  2  0
 15 16  1  0
 16 17  2  0
 17 18  1  0
 17 19  1  0
 19 20  1  0
M  END
