
     RDKit          3D

 21 24  0  0  0  0  0  0  0  0999 V2000
   -6.2580    0.6290    0.3570 C   0  0  0  0  0  0  0  0  0  0  0  0
   -4.8310    0.2580    0.1260 C   0  0  0  0  0  0  0  0  0  0  0  0
   -4.5280   -1.0350   -0.1730 C   0  0  0  0  0  0  0  0  0  0  0  0
   -3.1980   -1.3780   -0.3870 C   0  0  0  0  0  0  0  0  0  0  0  0
   -2.1960   -0.4400   -0.3030 C   0  0  0  0  0  0  0  0  0  0  0  0
   -0.7950   -0.7970   -0.5370 C   0  0  0  0  0  0  0  0  0  0  0  0
   -0.6230   -1.8720   -1.1620 O   0  0  0  0  0  0  0  0  0  0  0  0
    0.2620    0.0150   -0.0880 N   0  0  0  0  0  0  0  0  0  0  0  0
    1.6110   -0.2780   -0.2870 C   0  0  0  0  0  0  0  0  0  0  0  0
    2.0880   -1.3930   -0.9450 C   0  0  0  0  0  0  0  0  0  0  0  0
    3.4630   -1.6600   -1.1290 C   0  0  0  0  0  0  0  0  0  0  0  0
    4.3600   -0.7200   -0.6020 C   0  0  0  0  0  0  0  0  0  0  0  0
    3.8070    0.3390    0.0250 C   0  0  0  0  0  0  0  0  0  0  0  0
    2.5190    0.6660    0.2420 C   0  0  0  0  0  0  0  0  0  0  0  0
    2.5570    1.8780    0.9450 N   0  0  0  0  0  0  0  0  0  0  0  0
    3.8110    2.2770    1.1510 C   0  0  0  0  0  0  0  0  0  0  0  0
    4.7410    1.2920    0.5590 C   0  0  0  0  0  0  0  0  0  0  0  0
    5.9220    0.8400    0.2710 N   0  0  0  0  0  0  0  0  0  0  0  0
    5.8090   -0.4510   -0.4770 C   0  0  0  0  0  0  0  0  0  0  0  0
   -2.5360    0.8470   -0.0010 C   0  0  0  0  0  0  0  0  0  0  0  0
   -3.8670    1.2150    0.2190 C   0  0  0  0  0  0  0  0  0  0  0  0
  1  2  1  0
  2  3  2  0
  2 21  1  0
  3  4  1  0
  4  5  2  0
  5  6  1  0
  5 20  1  0
  6  7  2  0
  6  8  1  0
  8  9  1  0
  9 10  2  0
  9 14  1  0
 10 11  1  0
 11 12  2  0
 12 13  1  0
 12 19  1  0
 13 14  2  0
 13 17  1  0
 14 15  1  0
 15 16  2  0
 16 17  1  0
 17 18  2  0
 18 19  1  0
 20 21  2  0
M  END
