
     RDKit          3D

 18 20  0  0  0  0  0  0  0  0999 V2000
   -1.4240    2.0020    2.6600 N   0  0  0  0  0  0  0  0  0  0  0  0
   -0.2990    1.4930    1.9490 C   0  0  0  0  0  0  0  0  0  0  0  0
    0.8580    1.7990    2.3160 O   0  0  0  0  0  0  0  0  0  0  0  0
   -0.4770    0.5990    0.7690 C   0  0  0  0  0  0  0  0  0  0  0  0
    0.6140    0.1560    0.0950 C   0  0  0  0  0  0  0  0  0  0  0  0
    2.0440    0.3930    0.3410 N   0  0  0  0  0  0  0  0  0  0  0  0
    2.9980   -0.2100   -0.5460 C   0  0  0  0  0  0  0  0  0  0  0  0
    2.5350   -0.9040   -1.4770 O   0  0  0  0  0  0  0  0  0  0  0  0
    4.4560   -0.0200   -0.3660 C   0  0  1  0  0  0  0  0  0  0  0  0
    5.3060   -1.2610   -0.7050 C   0  0  0  0  0  0  0  0  0  0  0  0
    5.3560   -0.0490   -1.5590 C   0  0  0  0  0  0  0  0  0  0  0  0
    0.0080   -0.8120   -1.2000 S   0  0  0  0  0  0  0  0  0  0  0  0
   -1.7580   -0.5850   -0.7850 C   0  0  0  0  0  0  0  0  0  0  0  0
   -1.6870    0.1890    0.2790 C   0  0  0  0  0  0  0  0  0  0  0  0
   -3.0440    0.5430    0.9060 C   0  0  0  0  0  0  0  0  0  0  0  0
   -4.0290   -0.5410    0.5880 C   0  0  0  0  0  0  0  0  0  0  0  0
   -4.1460   -0.6230   -0.9080 C   0  0  0  0  0  0  0  0  0  0  0  0
   -2.9010   -1.1480   -1.5180 C   0  0  0  0  0  0  0  0  0  0  0  0
  1  2  1  0
  2  3  2  0
  2  4  1  0
  4  5  2  0
  4 14  1  0
  5  6  1  0
  5 12  1  0
  6  7  1  0
  7  8  2  0
  9  7  1  6
  9 10  1  0
  9 11  1  0
 10 11  1  0
 12 13  1  0
 13 14  2  0
 13 18  1  0
 14 15  1  0
 15 16  1  0
 16 17  1  0
 17 18  1  0
M  END
