
     RDKit          3D

 21 24  0  0  0  0  0  0  0  0999 V2000
    6.3870    0.3110   -0.0450 C   0  0  0  0  0  0  0  0  0  0  0  0
    4.9660   -0.0440    0.0040 N   0  0  0  0  0  0  0  0  0  0  0  0
    3.9890    0.9790   -0.0130 C   0  0  0  0  0  0  0  0  0  0  0  0
    4.4100    2.1720   -0.0700 O   0  0  0  0  0  0  0  0  0  0  0  0
    2.5710    0.6710    0.0340 C   0  0  0  0  0  0  0  0  0  0  0  0
    1.6130    1.6860    0.0180 C   0  0  0  0  0  0  0  0  0  0  0  0
    0.2650    1.4030    0.0620 C   0  0  0  0  0  0  0  0  0  0  0  0
   -0.1980    0.1100    0.1240 C   0  0  0  0  0  0  0  0  0  0  0  0
    0.7420   -0.8960    0.1400 C   0  0  0  0  0  0  0  0  0  0  0  0
    2.1100   -0.6150    0.0950 C   0  0  0  0  0  0  0  0  0  0  0  0
    0.0300   -2.0480    0.2020 N   0  0  0  0  0  0  0  0  0  0  0  0
   -1.3010   -1.7730    0.2240 C   0  0  0  0  0  0  0  0  0  0  0  0
   -2.4320   -2.5470    0.2810 C   0  0  0  0  0  0  0  0  0  0  0  0
   -3.6940   -1.9880    0.2910 C   0  0  0  0  0  0  0  0  0  0  0  0
   -3.8790   -0.6220    0.2420 C   0  0  0  0  0  0  0  0  0  0  0  0
   -5.1430   -0.0740    0.2520 C   0  0  0  0  0  0  0  0  0  0  0  0
   -5.2990    1.2940    0.2020 C   0  0  0  0  0  0  0  0  0  0  0  0
   -4.1360    2.0450    0.1450 C   0  0  0  0  0  0  0  0  0  0  0  0
   -2.9050    1.4930    0.1360 N   0  0  0  0  0  0  0  0  0  0  0  0
   -2.7330    0.1580    0.1840 C   0  0  0  0  0  0  0  0  0  0  0  0
   -1.4730   -0.4050    0.1750 C   0  0  0  0  0  0  0  0  0  0  0  0
  1  2  1  0
  2  3  1  0
  3  4  2  0
  3  5  1  0
  5  6  2  0
  5 10  1  0
  6  7  1  0
  7  8  2  0
  8  9  1  0
  8 21  1  0
  9 10  2  0
  9 11  1  0
 11 12  1  0
 12 13  2  0
 12 21  1  0
 13 14  1  0
 14 15  2  0
 15 16  1  0
 15 20  1  0
 16 17  2  0
 17 18  1  0
 18 19  2  0
 19 20  1  0
 20 21  2  0
M  END
