
     RDKit          3D

 21 24  0  0  0  0  0  0  0  0999 V2000
    0.0240    2.4960   -1.1150 C   0  0  0  0  0  0  0  0  0  0  0  0
   -1.1020    1.5800   -0.8050 C   0  0  0  0  0  0  0  0  0  0  0  0
   -2.2300    1.4370   -1.4780 N   0  0  0  0  0  0  0  0  0  0  0  0
   -3.0320    0.4530   -0.8360 C   0  0  0  0  0  0  0  0  0  0  0  0
   -4.2620   -0.1470   -1.0070 C   0  0  0  0  0  0  0  0  0  0  0  0
   -4.7230   -1.1230   -0.1170 C   0  0  0  0  0  0  0  0  0  0  0  0
   -3.9840   -1.5440    0.9780 C   0  0  0  0  0  0  0  0  0  0  0  0
   -2.7460   -0.9340    1.1410 C   0  0  0  0  0  0  0  0  0  0  0  0
   -1.8700   -1.2200    2.1690 C   0  0  0  0  0  0  0  0  0  0  0  0
   -0.6810   -0.5790    2.2560 N   0  0  0  0  0  0  0  0  0  0  0  0
   -0.2550    0.3580    1.3900 C   0  0  0  0  0  0  0  0  0  0  0  0
    0.9600    1.0060    1.4870 O   0  0  0  0  0  0  0  0  0  0  0  0
    2.1010    0.6390    0.8330 C   0  0  0  0  0  0  0  0  0  0  0  0
    3.2810    1.3220    0.9700 C   0  0  0  0  0  0  0  0  0  0  0  0
    4.3860    0.8900    0.2780 C   0  0  0  0  0  0  0  0  0  0  0  0
    4.3080   -0.2330   -0.5560 C   0  0  0  0  0  0  0  0  0  0  0  0
    3.1270   -0.9000   -0.6800 C   0  0  0  0  0  0  0  0  0  0  0  0
    3.0840   -2.0400   -1.5380 N   0  0  0  0  0  0  0  0  0  0  0  0
    2.0170   -0.4830    0.0020 C   0  0  0  0  0  0  0  0  0  0  0  0
   -1.1070    0.6750    0.3400 C   0  0  0  0  0  0  0  0  0  0  0  0
   -2.3170    0.0250    0.2490 C   0  0  0  0  0  0  0  0  0  0  0  0
  1  2  1  0
  2  3  2  0
  2 20  1  0
  3  4  1  0
  4  5  2  0
  4 21  1  0
  5  6  1  0
  6  7  2  0
  7  8  1  0
  8  9  2  0
  8 21  1  0
  9 10  1  0
 10 11  2  0
 11 12  1  0
 11 20  1  0
 12 13  1  0
 13 14  2  0
 13 19  1  0
 14 15  1  0
 15 16  2  0
 16 17  1  0
 17 18  1  0
 17 19  2  0
 20 21  2  0
M  END
