
     RDKit          3D

 21 23  0  0  0  0  0  0  0  0999 V2000
   -3.2300   -1.3150   -2.2230 C   0  0  0  0  0  0  0  0  0  0  0  0
   -2.6150   -0.8830   -0.9690 C   0  0  0  0  0  0  0  0  0  0  0  0
   -1.2940   -0.5250   -0.9390 C   0  0  0  0  0  0  0  0  0  0  0  0
   -0.7320   -0.1160    0.2740 C   0  0  0  0  0  0  0  0  0  0  0  0
    0.5330    0.2890    0.5920 C   0  0  0  0  0  0  0  0  0  0  0  0
    1.6870    0.4080   -0.2890 C   0  0  0  0  0  0  0  0  0  0  0  0
    2.8500    0.8170    0.1740 C   0  0  0  0  0  0  0  0  0  0  0  0
    4.0220    0.9470   -0.6790 C   0  0  0  0  0  0  0  0  0  0  0  0
    4.0200    0.6580   -2.0220 C   0  0  0  0  0  0  0  0  0  0  0  0
    5.1670    0.8020   -2.7790 C   0  0  0  0  0  0  0  0  0  0  0  0
    6.3190    1.2280   -2.2260 N   0  0  0  0  0  0  0  0  0  0  0  0
    6.2860    1.5030   -0.9100 C   0  0  0  0  0  0  0  0  0  0  0  0
    7.3360    1.9050   -0.3440 O   0  0  0  0  0  0  0  0  0  0  0  0
    5.1860    1.3720   -0.1530 N   0  0  0  0  0  0  0  0  0  0  0  0
    0.5430    0.5820    1.9530 C   0  0  0  0  0  0  0  0  0  0  0  0
   -0.6930    0.3500    2.4080 N   0  0  0  0  0  0  0  0  0  0  0  0
   -1.4940   -0.0730    1.4240 C   0  0  0  0  0  0  0  0  0  0  0  0
   -2.8360   -0.4410    1.3750 C   0  0  0  0  0  0  0  0  0  0  0  0
   -3.6500   -0.3920    2.6200 C   0  0  0  0  0  0  0  0  0  0  0  0
   -3.3820   -0.8430    0.1740 C   0  0  0  0  0  0  0  0  0  0  0  0
   -4.7930   -1.2350    0.1010 C   0  0  0  0  0  0  0  0  0  0  0  0
  1  2  1  0
  2  3  2  0
  2 20  1  0
  3  4  1  0
  4  5  1  0
  4 17  2  0
  5  6  1  0
  5 15  2  0
  6  7  2  3
  7  8  1  0
  8  9  2  0
  8 14  1  0
  9 10  1  0
 10 11  2  0
 11 12  1  0
 12 13  2  0
 12 14  1  0
 15 16  1  0
 16 17  1  0
 17 18  1  0
 18 19  1  0
 18 20  2  0
 20 21  1  0
M  END
