
     RDKit          3D

 18 19  0  0  0  0  0  0  0  0999 V2000
    5.4350    0.9680    0.2340 N   0  0  0  0  0  0  0  0  0  0  0  0
    4.7150   -0.4940   -0.3420 S   0  0  1  0  0  0  0  0  0  0  0  0
    4.9830   -0.6810   -1.8200 O   0  0  0  0  0  0  0  0  0  0  0  0
    5.2790   -1.6580    0.4470 O   0  0  0  0  0  0  0  0  0  0  0  0
    2.9930   -0.3970   -0.1160 C   0  0  0  0  0  0  0  0  0  0  0  0
    2.3860   -0.8320    1.0430 C   0  0  0  0  0  0  0  0  0  0  0  0
    1.0040   -0.7380    1.1860 C   0  0  0  0  0  0  0  0  0  0  0  0
    0.2280   -0.2110    0.1760 C   0  0  0  0  0  0  0  0  0  0  0  0
   -1.1810   -0.1050    0.2980 N   0  0  0  0  0  0  0  0  0  0  0  0
   -2.0960   -1.1600   -0.1180 C   0  0  0  0  0  0  0  0  0  0  0  0
   -3.2220   -0.5670   -0.9130 C   0  0  0  0  0  0  0  0  0  0  0  0
   -4.2030    0.2110   -0.1340 C   0  0  0  0  0  0  0  0  0  0  0  0
   -3.6930    1.0300    0.9780 C   0  0  0  0  0  0  0  0  0  0  0  0
   -1.9510    1.3080    0.9610 S   0  0  2  0  0  0  0  0  0  0  0  0
   -1.5480    2.5010    0.1730 O   0  0  0  0  0  0  0  0  0  0  0  0
   -1.4500    1.4300    2.3770 O   0  0  0  0  0  0  0  0  0  0  0  0
    0.8570    0.2160   -0.9730 C   0  0  0  0  0  0  0  0  0  0  0  0
    2.2300    0.1320   -1.1370 C   0  0  0  0  0  0  0  0  0  0  0  0
  2  1  1  1
  2  3  2  0
  2  4  2  0
  2  5  1  0
  5  6  2  0
  5 18  1  0
  6  7  1  0
  7  8  2  0
  8  9  1  0
  8 17  1  0
  9 10  1  0
  9 14  1  0
 10 11  1  0
 11 12  1  0
 12 13  1  0
 14 13  1  1
 14 15  2  0
 14 16  2  0
 17 18  2  0
M  END
