
     RDKit          3D

 23 25  0  0  0  0  0  0  0  0999 V2000
    2.2560   -3.1660   -1.0720 C   0  0  0  0  0  0  0  0  0  0  0  0
    2.2580   -1.9590   -0.5650 C   0  0  0  0  0  0  0  0  0  0  0  0
    1.0250   -1.2170   -0.4020 N   0  0  0  0  0  0  0  0  0  0  0  0
    1.1260    0.1880   -0.5180 C   0  0  1  0  0  0  0  0  0  0  0  0
   -0.0710    1.0070   -0.4830 C   0  0  0  0  0  0  0  0  0  0  0  0
    0.0310    2.3120   -0.0730 N   0  0  0  0  0  0  0  0  0  0  0  0
   -1.1430    2.8900   -0.1540 C   0  0  0  0  0  0  0  0  0  0  0  0
   -1.4020    4.3290    0.2130 C   0  0  0  0  0  0  0  0  0  0  0  0
   -2.0030    1.9790   -0.6080 N   0  0  0  0  0  0  0  0  0  0  0  0
   -1.3500    0.8190   -0.8110 N   0  0  0  0  0  0  0  0  0  0  0  0
   -2.0330   -0.3530   -1.2300 C   0  0  0  0  0  0  0  0  0  0  0  0
   -2.7900   -1.0460   -0.1330 C   0  0  0  0  0  0  0  0  0  0  0  0
   -2.1690   -1.5800    0.8050 O   0  0  0  0  0  0  0  0  0  0  0  0
   -4.2000   -1.1130   -0.1290 N   0  0  0  0  0  0  0  0  0  0  0  0
   -4.9740   -0.5260   -1.1910 C   0  0  0  0  0  0  0  0  0  0  0  0
   -4.8810   -1.7800    0.9530 C   0  0  0  0  0  0  0  0  0  0  0  0
    2.0990    0.5970    0.5140 N   0  0  0  0  0  0  0  0  0  0  0  0
    1.7690    1.5320    1.5620 C   0  0  0  0  0  0  0  0  0  0  0  0
    3.4050   -0.0010    0.4210 C   0  0  0  0  0  0  0  0  0  0  0  0
    4.5880    0.4720    0.7840 C   0  0  0  0  0  0  0  0  0  0  0  0
    5.5830   -0.5700    0.4530 C   0  0  0  0  0  0  0  0  0  0  0  0
    4.7960   -1.6780   -0.1240 C   0  0  0  0  0  0  0  0  0  0  0  0
    3.5230   -1.3410   -0.1400 C   0  0  0  0  0  0  0  0  0  0  0  0
  1  2  2  0
  2  3  1  0
  2 23  1  0
  3  4  1  0
  4  5  1  1
  4 17  1  0
  5  6  2  0
  5 10  1  0
  6  7  1  0
  7  8  1  0
  7  9  2  0
  9 10  1  0
 10 11  1  0
 11 12  1  0
 12 13  2  0
 12 14  1  0
 14 15  1  0
 14 16  1  0
 17 18  1  0
 17 19  1  0
 19 20  2  0
 19 23  1  0
 20 21  1  0
 21 22  1  0
 22 23  2  0
M  END
