
     RDKit          3D

 23 25  0  0  0  0  0  0  0  0999 V2000
    5.0670   -0.8170    0.8280 C   0  0  0  0  0  0  0  0  0  0  0  0
    3.6870   -0.2830    0.5460 C   0  0  1  0  0  0  0  0  0  0  0  0
    3.7400    1.0580   -0.0950 C   0  0  0  0  0  0  0  0  0  0  0  0
    2.4190    1.5080   -0.5990 C   0  0  0  0  0  0  0  0  0  0  0  0
    1.2920    0.6780   -0.2290 N   0  0  0  0  0  0  0  0  0  0  0  0
    0.0400    1.3170    0.0190 C   0  0  0  0  0  0  0  0  0  0  0  0
   -0.2070    2.6580   -0.0490 N   0  0  0  0  0  0  0  0  0  0  0  0
   -1.4560    2.9380    0.2320 N   0  0  0  0  0  0  0  0  0  0  0  0
   -2.0900    1.7860    0.5000 C   0  0  0  0  0  0  0  0  0  0  0  0
   -3.5090    1.6600    0.8630 C   0  0  0  0  0  0  0  0  0  0  0  0
   -4.1090    0.5600    1.1180 N   0  0  0  0  0  0  0  0  0  0  0  0
   -5.5080    0.7970    1.4410 C   0  0  0  0  0  0  0  0  0  0  0  0
   -5.6010    2.2710    1.3220 C   0  0  0  0  0  0  0  0  0  0  0  0
   -4.4330    2.7200    0.9900 N   0  0  0  0  0  0  0  0  0  0  0  0
   -1.1650    0.7600    0.3700 C   0  0  0  0  0  0  0  0  0  0  0  0
   -1.5140   -0.6200    0.5900 C   0  0  0  0  0  0  0  0  0  0  0  0
   -1.3890   -1.0760    1.7570 O   0  0  0  0  0  0  0  0  0  0  0  0
   -1.9860   -1.4870   -0.4250 N   0  0  0  0  0  0  0  0  0  0  0  0
   -2.1500   -1.0270   -1.7790 C   0  0  0  0  0  0  0  0  0  0  0  0
   -2.3080   -2.8550   -0.0960 C   0  0  0  0  0  0  0  0  0  0  0  0
    1.4090   -0.7570   -0.1110 C   0  0  0  0  0  0  0  0  0  0  0  0
    2.8560   -1.1880   -0.3030 C   0  0  1  0  0  0  0  0  0  0  0  0
    3.2680   -1.2730   -1.7320 C   0  0  0  0  0  0  0  0  0  0  0  0
  2  1  1  6
  2  3  1  0
  2 22  1  0
  3  4  1  0
  4  5  1  0
  5  6  1  0
  5 21  1  0
  6  7  2  0
  6 15  1  0
  7  8  1  0
  8  9  1  0
  9 10  1  0
  9 15  2  0
 10 11  2  0
 10 14  1  0
 11 12  1  0
 12 13  1  0
 13 14  2  0
 15 16  1  0
 16 17  2  0
 16 18  1  0
 18 19  1  0
 18 20  1  0
 21 22  1  0
 22 23  1  6
M  END
