
     RDKit          3D

 23 24  0  0  0  0  0  0  0  0999 V2000
    5.7620    1.1030   -0.0700 C   0  0  0  0  0  0  0  0  0  0  0  0
    5.5000   -0.2370    0.5810 C   0  0  0  0  0  0  0  0  0  0  0  0
    4.1500   -0.6810    0.4100 N   0  0  0  0  0  0  0  0  0  0  0  0
    3.7520   -1.9400    0.9760 C   0  0  0  0  0  0  0  0  0  0  0  0
    4.4930   -3.0250    0.1850 C   0  0  0  0  0  0  0  0  0  0  0  0
    3.2130    0.0970   -0.2990 C   0  0  0  0  0  0  0  0  0  0  0  0
    2.1880    0.8060    0.1750 C   0  0  0  0  0  0  0  0  0  0  0  0
    1.4900    1.4550   -0.9620 C   0  0  2  0  0  0  0  0  0  0  0  0
    0.0630    0.9480   -1.0770 C   0  0  0  0  0  0  0  0  0  0  0  0
   -0.1790    0.3370   -2.0880 O   0  0  0  0  0  0  0  0  0  0  0  0
   -0.7970    1.2430   -0.0110 N   0  0  0  0  0  0  0  0  0  0  0  0
   -0.3220    2.0470    1.0810 N   0  0  0  0  0  0  0  0  0  0  0  0
   -1.1980    2.2490    1.9410 C   0  0  0  0  0  0  0  0  0  0  0  0
   -2.3940    1.6020    1.5460 N   0  0  0  0  0  0  0  0  0  0  0  0
   -2.1440    0.9520    0.2920 C   0  0  0  0  0  0  0  0  0  0  0  0
   -2.9730    0.1340   -0.3220 C   0  0  0  0  0  0  0  0  0  0  0  0
   -2.6270   -0.7090   -1.5070 C   0  0  0  0  0  0  0  0  0  0  0  0
   -4.4090   -0.0240    0.0840 C   0  0  1  0  0  0  0  0  0  0  0  0
   -4.5870   -1.2750    0.9060 C   0  0  0  0  0  0  0  0  0  0  0  0
   -5.0770    1.1560    0.6440 C   0  0  0  0  0  0  0  0  0  0  0  0
   -5.2060   -0.3390   -1.2430 C   0  0  0  0  0  0  0  0  0  0  0  0
    2.2590    1.0110   -2.0960 N   0  0  0  0  0  0  0  0  0  0  0  0
    3.2000    0.2660   -1.7110 N   0  0  0  0  0  0  0  0  0  0  0  0
  1  2  1  0
  2  3  1  0
  3  4  1  0
  3  6  1  0
  4  5  1  0
  6  7  2  0
  6 23  1  0
  7  8  1  0
  8  9  1  6
  8 22  1  0
  9 10  2  0
  9 11  1  0
 11 12  1  0
 11 15  1  0
 12 13  2  0
 13 14  1  0
 14 15  1  0
 15 16  2  3
 16 17  1  0
 16 18  1  0
 18 19  1  1
 18 20  1  0
 18 21  1  0
 22 23  2  0
M  END
