
     RDKit          3D

 23 25  0  0  0  0  0  0  0  0999 V2000
    5.9490    2.8840   -1.6620 C   0  0  0  0  0  0  0  0  0  0  0  0
    5.4750    1.5370   -1.1870 C   0  0  0  0  0  0  0  0  0  0  0  0
    4.2510    1.2430   -0.6170 C   0  0  0  0  0  0  0  0  0  0  0  0
    4.2250   -0.0920   -0.3310 C   0  0  0  0  0  0  0  0  0  0  0  0
    5.4120   -0.6100   -0.7170 N   0  0  0  0  0  0  0  0  0  0  0  0
    6.1500    0.3760   -1.2280 N   0  0  0  0  0  0  0  0  0  0  0  0
    5.8530   -1.9680   -0.6200 C   0  0  0  0  0  0  0  0  0  0  0  0
    5.2910   -2.9470    0.0140 N   0  0  0  0  0  0  0  0  0  0  0  0
    4.0990   -3.0070    0.7960 C   0  0  0  0  0  0  0  0  0  0  0  0
    3.1610   -2.0790    0.9080 C   0  0  0  0  0  0  0  0  0  0  0  0
    3.1320   -0.8090    0.2720 N   0  0  0  0  0  0  0  0  0  0  0  0
    1.9180   -0.1290    0.1940 N   0  0  0  0  0  0  0  0  0  0  0  0
    0.8330   -0.8040    0.1270 C   0  0  0  0  0  0  0  0  0  0  0  0
   -0.4850   -0.1860    0.0430 C   0  0  0  0  0  0  0  0  0  0  0  0
   -0.5130    1.0870    0.0390 O   0  0  0  0  0  0  0  0  0  0  0  0
   -1.6830   -0.9130   -0.0300 N   0  0  0  0  0  0  0  0  0  0  0  0
   -2.9370   -0.2330   -0.1100 C   0  0  1  0  0  0  0  0  0  0  0  0
   -3.7000   -0.5500   -1.3790 C   0  0  0  0  0  0  0  0  0  0  0  0
   -5.1600   -0.2160   -1.1300 C   0  0  0  0  0  0  0  0  0  0  0  0
   -5.2980    0.9570   -0.1600 C   0  0  0  0  0  0  0  0  0  0  0  0
   -4.8070    0.5880    1.2220 C   0  0  2  0  0  0  0  0  0  0  0  0
   -4.0400    1.7220    1.8640 C   0  0  0  0  0  0  0  0  0  0  0  0
   -3.8570   -0.5810    1.0560 C   0  0  0  0  0  0  0  0  0  0  0  0
  1  2  1  0
  2  3  1  0
  2  6  2  0
  3  4  2  0
  4  5  1  0
  4 11  1  0
  5  6  1  0
  5  7  1  0
  7  8  2  0
  8  9  1  0
  9 10  2  0
 10 11  1  0
 11 12  1  0
 12 13  2  3
 13 14  1  0
 14 15  2  0
 14 16  1  0
 17 16  1  1
 17 18  1  0
 17 23  1  0
 18 19  1  0
 19 20  1  0
 20 21  1  0
 21 22  1  6
 21 23  1  0
M  END
