
     RDKit          3D

 27 28  0  0  0  0  0  0  0  0999 V2000
    3.8320   -0.0130    1.1240 C   0  0  0  0  0  0  0  0  0  0  0  0
    3.6500    0.8680   -0.0650 C   0  0  1  0  0  0  0  0  0  0  0  0
    4.7520    0.9190   -1.0630 C   0  0  0  0  0  0  0  0  0  0  0  0
    5.9570    1.3720   -0.5860 O   0  0  0  0  0  0  0  0  0  0  0  0
    6.8600    0.8900    0.2860 C   0  0  0  0  0  0  0  0  0  0  0  0
    6.6680   -0.2110    0.8330 O   0  0  0  0  0  0  0  0  0  0  0  0
    8.0330    1.6120    0.5970 O   0  0  0  0  0  0  0  0  0  0  0  0
    2.3410    0.5150   -0.7040 C   0  0  0  0  0  0  0  0  0  0  0  0
    2.3330    0.1080   -1.8940 O   0  0  0  0  0  0  0  0  0  0  0  0
    1.1360    0.6090   -0.0630 O   0  0  0  0  0  0  0  0  0  0  0  0
   -0.1060    0.2860   -0.6330 C   0  0  0  0  0  0  0  0  0  0  0  0
   -0.2010   -1.1490   -1.0820 C   0  0  0  0  0  0  0  0  0  0  0  0
   -0.0090   -1.9850    0.0150 O   0  0  0  0  0  0  0  0  0  0  0  0
   -0.7710   -2.0170    1.1400 C   0  0  0  0  0  0  0  0  0  0  0  0
   -2.0070   -2.0740    1.0710 N   0  0  0  0  0  0  0  0  0  0  0  0
   -2.9210   -2.1200    0.0190 C   0  0  0  0  0  0  0  0  0  0  0  0
   -3.1910   -3.2230   -0.7980 C   0  0  0  0  0  0  0  0  0  0  0  0
   -4.1360   -2.8320   -1.6640 N   0  0  0  0  0  0  0  0  0  0  0  0
   -4.4430   -1.5450   -1.4020 C   0  0  0  0  0  0  0  0  0  0  0  0
   -5.3010   -0.9050   -2.0540 O   0  0  0  0  0  0  0  0  0  0  0  0
   -3.7010   -1.0910   -0.3640 N   0  0  0  0  0  0  0  0  0  0  0  0
   -3.7710    0.2240    0.1750 C   0  0  0  0  0  0  0  0  0  0  0  0
   -3.8680    0.4080    1.5510 C   0  0  0  0  0  0  0  0  0  0  0  0
   -3.9370    1.6670    2.1110 C   0  0  0  0  0  0  0  0  0  0  0  0
   -3.9140    2.7990    1.3220 C   0  0  0  0  0  0  0  0  0  0  0  0
   -3.8180    2.6230   -0.0420 C   0  0  0  0  0  0  0  0  0  0  0  0
   -3.7480    1.3640   -0.6000 C   0  0  0  0  0  0  0  0  0  0  0  0
  2  1  1  1
  2  3  1  0
  2  8  1  0
  3  4  1  0
  4  5  1  0
  5  6  2  0
  5  7  1  0
  8  9  2  0
  8 10  1  0
 10 11  1  0
 11 12  1  0
 12 13  1  0
 13 14  1  0
 14 15  2  3
 15 16  1  0
 16 17  2  0
 16 21  1  0
 17 18  1  0
 18 19  1  0
 19 20  2  0
 19 21  1  0
 21 22  1  0
 22 23  2  0
 22 27  1  0
 23 24  1  0
 24 25  2  0
 25 26  1  0
 26 27  2  0
M  END
