
     RDKit          3D

 27 28  0  0  0  0  0  0  0  0999 V2000
    8.9570   -1.2920    0.1170 C   0  0  0  0  0  0  0  0  0  0  0  0
    8.2410   -0.4970   -0.8110 O   0  0  0  0  0  0  0  0  0  0  0  0
    6.8750   -0.5960   -0.9810 C   0  0  0  0  0  0  0  0  0  0  0  0
    6.2400   -1.4240   -0.2850 O   0  0  0  0  0  0  0  0  0  0  0  0
    6.1810    0.2630   -1.9670 C   0  0  0  0  0  0  0  0  0  0  0  0
    4.7850    0.0120   -1.9910 O   0  0  0  0  0  0  0  0  0  0  0  0
    4.0040    0.1930   -0.8500 C   0  0  0  0  0  0  0  0  0  0  0  0
    4.5900    0.5790    0.1650 O   0  0  0  0  0  0  0  0  0  0  0  0
    2.6190   -0.0420   -0.8220 N   0  0  0  0  0  0  0  0  0  0  0  0
    1.7740    0.1260    0.3100 C   0  0  0  0  0  0  0  0  0  0  0  0
    2.1350    0.5310    1.5360 N   0  0  0  0  0  0  0  0  0  0  0  0
    1.0380    0.5650    2.3490 C   0  0  0  0  0  0  0  0  0  0  0  0
    0.0040    0.1740    1.5950 N   0  0  0  0  0  0  0  0  0  0  0  0
    0.4050   -0.1040    0.3500 C   0  0  0  0  0  0  0  0  0  0  0  0
   -0.3890   -0.5620   -0.7940 C   0  0  0  0  0  0  0  0  0  0  0  0
   -1.7470   -0.7190   -0.5050 O   0  0  0  0  0  0  0  0  0  0  0  0
   -2.5680    0.3100   -0.0680 C   0  0  0  0  0  0  0  0  0  0  0  0
   -2.0410    1.4360    0.0700 O   0  0  0  0  0  0  0  0  0  0  0  0
   -3.9770    0.1240    0.2270 C   0  0  0  0  0  0  0  0  0  0  0  0
   -4.5440    1.2580    0.6280 C   0  0  0  0  0  0  0  0  0  0  0  0
   -5.9100    1.6200    1.0400 C   0  0  0  0  0  0  0  0  0  0  0  0
   -7.1130    1.1840    0.7230 C   0  0  0  0  0  0  0  0  0  0  0  0
   -7.6520    0.1450   -0.1790 C   0  0  0  0  0  0  0  0  0  0  0  0
   -7.0620   -1.1820    0.1210 C   0  0  0  0  0  0  0  0  0  0  0  0
   -7.8980   -2.0240    0.5850 O   0  0  0  0  0  0  0  0  0  0  0  0
   -5.7060   -1.7300   -0.0080 C   0  0  0  0  0  0  0  0  0  0  0  0
   -4.4820   -1.2290    0.0320 C   0  0  0  0  0  0  0  0  0  0  0  0
  1  2  1  0
  2  3  1  0
  3  4  2  0
  3  5  1  0
  5  6  1  0
  6  7  1  0
  7  8  2  0
  7  9  1  0
  9 10  1  0
 10 11  1  0
 10 14  2  0
 11 12  1  0
 12 13  2  0
 13 14  1  0
 14 15  1  0
 15 16  1  0
 16 17  1  0
 17 18  2  0
 17 19  1  0
 19 20  2  0
 19 27  1  0
 20 21  1  0
 21 22  2  0
 22 23  1  0
 23 24  1  0
 24 25  2  0
 24 26  1  0
 26 27  2  0
M  END
