
     RDKit          3D

 27 29  0  0  0  0  0  0  0  0999 V2000
   -5.2330    3.2840    0.0530 N   0  0  0  0  0  0  0  0  0  0  0  0
   -4.8520    1.9420    0.1640 C   0  0  0  0  0  0  0  0  0  0  0  0
   -5.8130    0.9770    0.2510 N   0  0  0  0  0  0  0  0  0  0  0  0
   -5.4220   -0.2580    0.4100 C   0  0  0  0  0  0  0  0  0  0  0  0
   -4.1620   -0.6000    0.4870 N   0  0  0  0  0  0  0  0  0  0  0  0
   -3.1510    0.3280    0.4110 C   0  0  0  0  0  0  0  0  0  0  0  0
   -3.5270    1.6120    0.2490 C   0  0  0  0  0  0  0  0  0  0  0  0
   -2.3770    2.3170    0.1030 N   0  0  0  0  0  0  0  0  0  0  0  0
   -1.3960    1.4580    0.1240 C   0  0  0  0  0  0  0  0  0  0  0  0
   -1.8410    0.2070    0.2930 N   0  0  0  0  0  0  0  0  0  0  0  0
   -1.1610   -1.0470    0.4390 C   0  0  2  0  0  0  0  0  0  0  0  0
    0.1770   -0.9460    0.5500 O   0  0  0  0  0  0  0  0  0  0  0  0
    0.8020   -1.9500   -0.1260 C   0  0  2  0  0  0  0  0  0  0  0  0
    1.8920   -1.2520   -1.0070 C   0  0  0  0  0  0  0  0  0  0  0  0
    2.2570   -0.2530   -0.1210 O   0  0  0  0  0  0  0  0  0  0  0  0
    3.8560   -0.1350    0.2560 P   0  0  2  0  0  0  0  0  0  0  0  0
    4.3000   -1.5360    0.7780 O   0  0  0  0  0  0  0  0  0  0  0  0
    3.8990    0.8800    1.6670 O   0  0  0  0  0  0  0  0  0  0  0  0
    4.8370    0.3680   -0.9440 O   0  0  0  0  0  0  0  0  0  0  0  0
    5.4530    1.8970   -0.4600 P   0  0  2  0  0  0  0  0  0  0  0  0
    4.1910    2.7270   -0.1970 O   0  0  0  0  0  0  0  0  0  0  0  0
    6.4250    2.5670   -1.6230 O   0  0  0  0  0  0  0  0  0  0  0  0
    6.2250    1.6780    1.0220 O   0  0  0  0  0  0  0  0  0  0  0  0
   -0.1720   -2.6660   -0.9590 C   0  0  1  0  0  0  0  0  0  0  0  0
   -0.5530   -3.8350   -0.3080 O   0  0  0  0  0  0  0  0  0  0  0  0
   -1.3150   -1.6680   -0.9980 C   0  0  1  0  0  0  0  0  0  0  0  0
   -2.5510   -2.1980   -1.1880 O   0  0  0  0  0  0  0  0  0  0  0  0
  1  2  1  0
  2  3  2  0
  2  7  1  0
  3  4  1  0
  4  5  2  0
  5  6  1  0
  6  7  2  0
  6 10  1  0
  7  8  1  0
  8  9  2  0
  9 10  1  0
 11 10  1  6
 11 12  1  0
 11 26  1  0
 12 13  1  0
 13 14  1  6
 13 24  1  0
 14 15  1  0
 15 16  1  0
 16 17  2  0
 16 18  1  1
 16 19  1  0
 19 20  1  0
 20 21  2  0
 20 22  1  6
 20 23  1  0
 24 25  1  1
 24 26  1  0
 26 27  1  1
M  END
