
     RDKit          3D

 27 28  0  0  0  0  0  0  0  0999 V2000
   -4.3440   -1.1880    1.0980 O   0  0  0  0  0  0  0  0  0  0  0  0
   -4.1710   -2.3020    1.6580 C   0  0  0  0  0  0  0  0  0  0  0  0
   -2.9380   -2.9500    1.7940 N   0  0  0  0  0  0  0  0  0  0  0  0
   -1.6650   -2.3650    1.2970 C   0  0  1  0  0  0  0  0  0  0  0  0
   -1.0530   -3.2940    0.3850 C   0  0  0  0  0  0  0  0  0  0  0  0
    0.2080   -3.0240   -0.1240 O   0  0  0  0  0  0  0  0  0  0  0  0
   -1.8730   -0.9600    1.1300 C   0  0  0  0  0  0  0  0  0  0  0  0
   -2.4010   -0.4440    2.2500 O   0  0  0  0  0  0  0  0  0  0  0  0
   -1.6730   -0.0130    0.1070 N   0  0  0  0  0  0  0  0  0  0  0  0
   -1.1470   -0.3840   -1.1710 C   0  0  0  0  0  0  0  0  0  0  0  0
    0.3210   -0.2360   -1.3100 C   0  0  0  0  0  0  0  0  0  0  0  0
    0.8380   -0.5550   -2.4110 O   0  0  0  0  0  0  0  0  0  0  0  0
    1.1430    0.2410   -0.2700 N   0  0  0  0  0  0  0  0  0  0  0  0
    2.5360    0.4130   -0.2950 C   0  0  0  0  0  0  0  0  0  0  0  0
    3.1410    1.1630    0.7230 C   0  0  0  0  0  0  0  0  0  0  0  0
    4.5000    1.3670    0.7790 C   0  0  0  0  0  0  0  0  0  0  0  0
    5.3020    0.8160   -0.2010 C   0  0  0  0  0  0  0  0  0  0  0  0
    4.7530    0.0750   -1.2150 C   0  0  0  0  0  0  0  0  0  0  0  0
    5.5500   -0.4710   -2.1860 O   0  0  0  0  0  0  0  0  0  0  0  0
    3.3650   -0.1110   -1.2390 C   0  0  0  0  0  0  0  0  0  0  0  0
   -1.9870    1.3440    0.3750 C   0  0  0  0  0  0  0  0  0  0  0  0
   -2.5020    1.4880    1.5770 O   0  0  0  0  0  0  0  0  0  0  0  0
   -1.8350    2.5100   -0.4170 C   0  0  0  0  0  0  0  0  0  0  0  0
   -2.3090    3.7660    0.0210 C   0  0  0  0  0  0  0  0  0  0  0  0
   -2.0010    4.7060   -0.9290 C   0  0  0  0  0  0  0  0  0  0  0  0
   -1.3830    4.1070   -1.8960 O   0  0  0  0  0  0  0  0  0  0  0  0
   -1.2680    2.7900   -1.6190 C   0  0  0  0  0  0  0  0  0  0  0  0
  1  2  2  0
  2  3  1  0
  3  4  1  0
  4  5  1  6
  4  7  1  0
  5  6  1  0
  7  8  2  0
  7  9  1  0
  9 10  1  0
  9 21  1  0
 10 11  1  0
 11 12  2  0
 11 13  1  0
 13 14  1  0
 14 15  2  0
 14 20  1  0
 15 16  1  0
 16 17  2  0
 17 18  1  0
 18 19  1  0
 18 20  2  0
 21 22  2  0
 21 23  1  0
 23 24  1  0
 23 27  2  0
 24 25  2  0
 25 26  1  0
 26 27  1  0
M  END
