
     RDKit          3D

 27 28  0  0  0  0  0  0  0  0999 V2000
   -4.4220   -2.9580    1.2100 C   0  0  0  0  0  0  0  0  0  0  0  0
   -3.7500   -1.7810    0.8420 O   0  0  0  0  0  0  0  0  0  0  0  0
   -2.6010   -1.7790    0.0780 C   0  0  0  0  0  0  0  0  0  0  0  0
   -2.1360   -2.8850   -0.3050 O   0  0  0  0  0  0  0  0  0  0  0  0
   -1.9800   -0.5030   -0.2480 C   0  0  0  0  0  0  0  0  0  0  0  0
   -0.8650   -0.5730   -0.9780 C   0  0  0  0  0  0  0  0  0  0  0  0
   -0.1080    0.5480   -1.4020 N   0  0  0  0  0  0  0  0  0  0  0  0
    1.1190    0.8280   -0.7540 C   0  0  0  0  0  0  0  0  0  0  0  0
    1.4610    0.2410    0.3340 N   0  0  0  0  0  0  0  0  0  0  0  0
    2.6340    0.4370    1.0530 C   0  0  0  0  0  0  0  0  0  0  0  0
    2.5230    0.7020    2.2980 O   0  0  0  0  0  0  0  0  0  0  0  0
    3.9830    0.3690    0.5180 C   0  0  0  0  0  0  0  0  0  0  0  0
    4.2280    0.0910   -0.8070 C   0  0  0  0  0  0  0  0  0  0  0  0
    5.5340    0.0450   -1.2400 C   0  0  0  0  0  0  0  0  0  0  0  0
    6.5510    0.2580   -0.4230 O   0  0  0  0  0  0  0  0  0  0  0  0
    6.3830    0.5280    0.8490 C   0  0  0  0  0  0  0  0  0  0  0  0
    7.4020    0.7170    1.5560 O   0  0  0  0  0  0  0  0  0  0  0  0
    5.0980    0.5870    1.3370 C   0  0  0  0  0  0  0  0  0  0  0  0
   -0.3450   -1.7790   -1.3940 O   0  0  0  0  0  0  0  0  0  0  0  0
    0.9150   -2.3060   -1.2240 C   0  0  0  0  0  0  0  0  0  0  0  0
   -2.5820    0.7040    0.2380 C   0  0  0  0  0  0  0  0  0  0  0  0
   -1.9050    1.7200    0.9010 C   0  0  0  0  0  0  0  0  0  0  0  0
   -2.5110    2.8820    1.3340 C   0  0  0  0  0  0  0  0  0  0  0  0
   -3.8420    3.0750    1.1160 C   0  0  0  0  0  0  0  0  0  0  0  0
   -4.5300    2.1070    0.4750 N   0  0  0  0  0  0  0  0  0  0  0  0
   -3.9380    0.9710    0.0510 C   0  0  0  0  0  0  0  0  0  0  0  0
   -4.7090    0.1510   -0.5400 O   0  0  0  0  0  0  0  0  0  0  0  0
  1  2  1  0
  2  3  1  0
  3  4  2  0
  3  5  1  0
  5  6  2  3
  5 21  1  0
  6  7  1  0
  6 19  1  0
  7  8  1  0
  8  9  2  3
  9 10  1  0
 10 11  2  0
 10 12  1  0
 12 13  1  0
 12 18  2  0
 13 14  2  0
 14 15  1  0
 15 16  1  0
 16 17  2  0
 16 18  1  0
 19 20  1  0
 21 22  2  0
 21 26  1  0
 22 23  1  0
 23 24  2  0
 24 25  1  0
 25 26  1  0
 26 27  2  0
M  END
