
     RDKit          3D

 27 28  0  0  0  0  0  0  0  0999 V2000
   -4.8800   -2.6310    0.5170 C   0  0  0  0  0  0  0  0  0  0  0  0
   -4.3270   -1.1960    0.4850 C   0  0  1  0  0  0  0  0  0  0  0  0
   -5.4880   -0.2710    0.6570 C   0  0  0  0  0  0  0  0  0  0  0  0
   -6.3890   -0.4130   -0.4430 N   0  0  0  0  0  0  0  0  0  0  0  0
   -5.9450    0.0370   -1.7220 C   0  0  0  0  0  0  0  0  0  0  0  0
   -5.7830    1.5070   -1.8930 C   0  0  0  0  0  0  0  0  0  0  0  0
   -4.8740    2.1170   -1.0540 O   0  0  0  0  0  0  0  0  0  0  0  0
   -4.7790    3.4050   -1.2530 O   0  0  0  0  0  0  0  0  0  0  0  0
   -3.3820   -1.1520    1.4930 O   0  0  0  0  0  0  0  0  0  0  0  0
   -2.1010   -0.9610    1.0580 C   0  0  0  0  0  0  0  0  0  0  0  0
   -1.1930   -0.9380    2.2890 C   0  0  0  0  0  0  0  0  0  0  0  0
    0.1930   -0.7400    1.7940 C   0  0  0  0  0  0  0  0  0  0  0  0
    0.7360   -1.7620    1.2540 O   0  0  0  0  0  0  0  0  0  0  0  0
    0.8690    0.4690    1.9040 O   0  0  0  0  0  0  0  0  0  0  0  0
    2.1760    0.4550    1.3750 C   0  0  0  0  0  0  0  0  0  0  0  0
    2.4090    0.7640    0.1100 C   0  0  0  0  0  0  0  0  0  0  0  0
    3.7010    0.7510   -0.4150 O   0  0  0  0  0  0  0  0  0  0  0  0
    4.7950    0.4130    0.3700 C   0  0  0  0  0  0  0  0  0  0  0  0
    6.1360    0.4070   -0.2040 C   0  0  0  0  0  0  0  0  0  0  0  0
    6.3720    0.7280   -1.5220 C   0  0  0  0  0  0  0  0  0  0  0  0
    7.6610    0.7160   -2.0540 C   0  0  0  0  0  0  0  0  0  0  0  0
    8.7530    0.3830   -1.2780 C   0  0  0  0  0  0  0  0  0  0  0  0
   10.0430    0.3710   -1.8080 O   0  0  0  0  0  0  0  0  0  0  0  0
    8.5050    0.0640    0.0400 C   0  0  0  0  0  0  0  0  0  0  0  0
    7.2260    0.0740    0.5710 C   0  0  0  0  0  0  0  0  0  0  0  0
    4.5600    0.1160    1.5960 N   0  0  0  0  0  0  0  0  0  0  0  0
    3.2910    0.1090    2.1820 N   0  0  0  0  0  0  0  0  0  0  0  0
  2  1  1  1
  2  3  1  0
  2  9  1  0
  3  4  1  0
  4  5  1  0
  5  6  1  0
  6  7  1  0
  7  8  1  0
  9 10  1  0
 10 11  1  0
 11 12  1  0
 12 13  2  0
 12 14  1  0
 14 15  1  0
 15 16  2  0
 15 27  1  0
 16 17  1  0
 17 18  1  0
 18 19  1  0
 18 26  2  0
 19 20  2  0
 19 25  1  0
 20 21  1  0
 21 22  2  0
 22 23  1  0
 22 24  1  0
 24 25  2  0
 26 27  1  0
M  END
