
     RDKit          3D

 27 28  0  0  0  0  0  0  0  0999 V2000
    3.7830    2.9910    2.3770 C   0  0  0  0  0  0  0  0  0  0  0  0
    4.1290    1.8960    1.5020 N   0  0  0  0  0  0  0  0  0  0  0  0
    3.1490    1.1100    0.8260 C   0  0  0  0  0  0  0  0  0  0  0  0
    1.9690    1.3900    1.0060 O   0  0  0  0  0  0  0  0  0  0  0  0
    3.6000    0.0190   -0.0420 C   0  0  0  0  0  0  0  0  0  0  0  0
    2.5180   -0.7800   -0.6650 C   0  0  0  0  0  0  0  0  0  0  0  0
    1.6560   -1.4680    0.3400 C   0  0  0  0  0  0  0  0  0  0  0  0
    0.6440   -2.2660   -0.2950 N   0  0  0  0  0  0  0  0  0  0  0  0
   -0.6070   -1.7280   -0.5960 C   0  0  0  0  0  0  0  0  0  0  0  0
   -1.4610   -2.4450   -1.1800 O   0  0  0  0  0  0  0  0  0  0  0  0
   -0.9880   -0.3720   -0.2700 N   0  0  0  0  0  0  0  0  0  0  0  0
   -2.2930    0.1450   -0.5880 C   0  0  0  0  0  0  0  0  0  0  0  0
   -3.0300   -0.6850   -1.1710 O   0  0  0  0  0  0  0  0  0  0  0  0
   -2.7240    1.4960   -0.2690 C   0  0  0  0  0  0  0  0  0  0  0  0
   -1.8930    2.3500    0.3590 C   0  0  0  0  0  0  0  0  0  0  0  0
   -2.2920    3.7010    0.6900 C   0  0  0  0  0  0  0  0  0  0  0  0
   -3.4970    4.1540    0.3880 C   0  0  0  0  0  0  0  0  0  0  0  0
   -4.3630    3.2960   -0.2540 O   0  0  0  0  0  0  0  0  0  0  0  0
   -4.0300    1.9650   -0.6050 C   0  0  0  0  0  0  0  0  0  0  0  0
   -4.9310    1.2510   -1.2100 C   0  0  0  0  0  0  0  0  0  0  0  0
   -6.1920    1.8600   -1.4770 O   0  0  0  0  0  0  0  0  0  0  0  0
   -7.2560    1.5480   -0.7280 O   0  0  0  0  0  0  0  0  0  0  0  0
    0.9350   -3.6040   -0.6210 C   0  0  0  0  0  0  0  0  0  0  0  0
    1.3090   -4.0310   -1.8940 C   0  0  0  0  0  0  0  0  0  0  0  0
    1.4980   -5.3850   -1.7850 C   0  0  0  0  0  0  0  0  0  0  0  0
    1.2380   -5.7320   -0.4760 C   0  0  0  0  0  0  0  0  0  0  0  0
    0.9080   -4.6430    0.1750 O   0  0  0  0  0  0  0  0  0  0  0  0
  1  2  1  0
  2  3  1  0
  3  4  2  0
  3  5  1  0
  5  6  1  0
  6  7  1  0
  7  8  1  0
  8  9  1  0
  8 23  1  0
  9 10  2  0
  9 11  1  0
 11 12  1  0
 12 13  2  0
 12 14  1  0
 14 15  2  0
 14 19  1  0
 15 16  1  0
 16 17  2  0
 17 18  1  0
 18 19  1  0
 19 20  2  3
 20 21  1  0
 21 22  1  0
 23 24  2  0
 23 27  1  0
 24 25  1  0
 25 26  2  0
 26 27  1  0
M  END
