
     RDKit          3D

 27 27  0  0  0  0  0  0  0  0999 V2000
    4.4580   -3.5910    0.8800 C   0  0  0  0  0  0  0  0  0  0  0  0
    3.9900   -2.3630    0.3590 O   0  0  0  0  0  0  0  0  0  0  0  0
    3.0020   -1.6350    1.0610 C   0  0  0  0  0  0  0  0  0  0  0  0
    2.6040   -2.1350    2.1090 O   0  0  0  0  0  0  0  0  0  0  0  0
    2.4990   -0.3320    0.5240 C   0  0  0  0  0  0  0  0  0  0  0  0
    3.0630    0.0520   -0.6140 C   0  0  0  0  0  0  0  0  0  0  0  0
    2.9320    1.1860   -1.4890 C   0  0  0  0  0  0  0  0  0  0  0  0
    4.2360    1.5580   -2.0570 O   0  0  0  0  0  0  0  0  0  0  0  0
    5.0480    2.3120   -1.3240 O   0  0  0  0  0  0  0  0  0  0  0  0
    1.9950    1.9870   -1.9260 C   0  0  0  0  0  0  0  0  0  0  0  0
    0.5390    2.0120   -1.6220 C   0  0  0  0  0  0  0  0  0  0  0  0
   -0.1910    2.4490   -0.6460 C   0  0  0  0  0  0  0  0  0  0  0  0
   -1.6450    2.4640   -0.3410 C   0  0  0  0  0  0  0  0  0  0  0  0
   -2.2390    3.5730    0.0450 C   0  0  0  0  0  0  0  0  0  0  0  0
   -3.6460    3.7550    0.3800 C   0  0  0  0  0  0  0  0  0  0  0  0
   -4.2290    4.7010   -0.4600 O   0  0  0  0  0  0  0  0  0  0  0  0
   -2.4880    1.2690   -0.3810 N   0  0  0  0  0  0  0  0  0  0  0  0
   -1.7670    0.0020   -0.1760 C   0  0  0  0  0  0  0  0  0  0  0  0
   -2.3840   -1.1420   -0.9060 C   0  0  2  0  0  0  0  0  0  0  0  0
   -3.7510   -1.2210   -0.3720 N   0  0  0  0  0  0  0  0  0  0  0  0
   -1.7320   -2.4270   -0.6450 C   0  0  0  0  0  0  0  0  0  0  0  0
   -0.5420   -2.6930   -0.9780 O   0  0  0  0  0  0  0  0  0  0  0  0
   -2.4280   -3.4300    0.0030 O   0  0  0  0  0  0  0  0  0  0  0  0
   -1.8270   -4.6800    0.2710 C   0  0  0  0  0  0  0  0  0  0  0  0
   -0.7650   -0.1490    0.5170 N   0  0  0  0  0  0  0  0  0  0  0  0
    0.1800    0.3970    1.3500 C   0  0  0  0  0  0  0  0  0  0  0  0
    1.5040    0.3210    1.3540 C   0  0  0  0  0  0  0  0  0  0  0  0
  1  2  1  0
  2  3  1  0
  3  4  2  0
  3  5  1  0
  5  6  2  0
  5 27  1  0
  6  7  1  0
  7  8  1  0
  7 10  2  0
  8  9  1  0
 10 11  1  0
 11 12  2  0
 12 13  1  0
 13 14  2  3
 13 17  1  0
 14 15  1  0
 15 16  1  0
 17 18  1  0
 18 19  1  0
 18 25  2  0
 19 20  1  1
 19 21  1  0
 21 22  2  0
 21 23  1  0
 23 24  1  0
 25 26  1  0
 26 27  2  0
M  END
