
     RDKit          3D

 28 31  0  0  0  0  0  0  0  0999 V2000
    5.0880    0.7490   -1.6710 C   0  0  0  0  0  0  0  0  0  0  0  0
    3.6700    1.2530   -1.9820 C   0  0  2  0  0  0  0  0  0  0  0  0
    3.5680    2.6600   -1.5860 C   0  0  0  0  0  0  0  0  0  0  0  0
    2.8140    3.0460   -0.6400 N   0  0  0  0  0  0  0  0  0  0  0  0
    2.0040    2.1840    0.1190 C   0  0  0  0  0  0  0  0  0  0  0  0
    2.0220    0.8890   -0.1750 C   0  0  0  0  0  0  0  0  0  0  0  0
    1.2330    0.0260    0.5690 N   0  0  0  0  0  0  0  0  0  0  0  0
    1.3940   -1.2440    0.6000 C   0  0  0  0  0  0  0  0  0  0  0  0
    2.4220   -2.0490   -0.1290 C   0  0  0  0  0  0  0  0  0  0  0  0
    2.5970   -3.2950    0.6790 C   0  0  0  0  0  0  0  0  0  0  0  0
    1.6200   -3.2600    1.8180 C   0  0  0  0  0  0  0  0  0  0  0  0
    0.6150   -2.2240    1.3570 C   0  0  0  0  0  0  0  0  0  0  0  0
   -0.6630   -2.1960    1.6020 C   0  0  0  0  0  0  0  0  0  0  0  0
   -1.5130   -1.1280    1.1330 C   0  0  0  0  0  0  0  0  0  0  0  0
   -2.3380   -1.3990    0.0430 C   0  0  0  0  0  0  0  0  0  0  0  0
   -3.2020   -0.4330   -0.4150 C   0  0  0  0  0  0  0  0  0  0  0  0
   -4.0440   -0.6470   -1.4930 C   0  0  0  0  0  0  0  0  0  0  0  0
   -3.9690   -1.7960   -2.0380 O   0  0  0  0  0  0  0  0  0  0  0  0
   -4.8950    0.2800   -1.9580 N   0  0  0  0  0  0  0  0  0  0  0  0
   -4.9350    1.4790   -1.3470 C   0  0  0  0  0  0  0  0  0  0  0  0
   -5.7510    2.3530   -1.8010 O   0  0  0  0  0  0  0  0  0  0  0  0
   -4.1350    1.7230   -0.2990 N   0  0  0  0  0  0  0  0  0  0  0  0
   -4.2150    3.0260    0.3240 C   0  0  0  0  0  0  0  0  0  0  0  0
   -3.2720    0.8190    0.1910 C   0  0  0  0  0  0  0  0  0  0  0  0
   -2.4610    1.0170    1.2280 N   0  0  0  0  0  0  0  0  0  0  0  0
   -1.5930    0.1170    1.7270 C   0  0  0  0  0  0  0  0  0  0  0  0
   -0.8630    0.3830    2.7130 O   0  0  0  0  0  0  0  0  0  0  0  0
    2.8130    0.4640   -1.1990 O   0  0  0  0  0  0  0  0  0  0  0  0
  2  1  1  1
  2  3  1  0
  2 28  1  0
  3  4  2  0
  4  5  1  0
  5  6  2  0
  6  7  1  0
  6 28  1  0
  7  8  2  3
  8  9  1  0
  8 12  1  0
  9 10  1  0
 10 11  1  0
 11 12  1  0
 12 13  2  3
 13 14  1  0
 14 15  2  0
 14 26  1  0
 15 16  1  0
 16 17  1  0
 16 24  2  0
 17 18  2  0
 17 19  1  0
 19 20  1  0
 20 21  2  0
 20 22  1  0
 22 23  1  0
 22 24  1  0
 24 25  1  0
 25 26  1  0
 26 27  2  0
M  END
