
     RDKit          3D

 27 30  0  0  0  0  0  0  0  0999 V2000
    7.8380    0.7710   -0.4560 C   0  0  0  0  0  0  0  0  0  0  0  0
    6.4490    0.2880   -0.3200 C   0  0  0  0  0  0  0  0  0  0  0  0
    5.8940   -0.6370   -1.0660 O   0  0  0  0  0  0  0  0  0  0  0  0
    4.6500   -0.8510   -0.7040 C   0  0  0  0  0  0  0  0  0  0  0  0
    3.7190   -1.8240   -1.3230 C   0  0  0  0  0  0  0  0  0  0  0  0
    4.3300   -0.0240    0.3530 C   0  0  0  0  0  0  0  0  0  0  0  0
    3.3830    0.3790    1.2480 C   0  0  0  0  0  0  0  0  0  0  0  0
    2.0170   -0.1010    1.3770 C   0  0  0  0  0  0  0  0  0  0  0  0
    1.2370    0.3740    2.2700 O   0  0  0  0  0  0  0  0  0  0  0  0
    1.4710   -1.0810    0.5660 O   0  0  0  0  0  0  0  0  0  0  0  0
    0.1450   -1.5100    0.7320 C   0  0  0  0  0  0  0  0  0  0  0  0
   -0.8250   -0.3980    0.5530 C   0  0  0  0  0  0  0  0  0  0  0  0
   -0.4550    0.7740    0.2860 O   0  0  0  0  0  0  0  0  0  0  0  0
   -2.2090   -0.6890    0.6940 N   0  0  0  0  0  0  0  0  0  0  0  0
   -3.2450    0.2980    0.5450 C   0  0  2  0  0  0  0  0  0  0  0  0
   -4.1170    0.4540    1.7400 C   0  0  0  0  0  0  0  0  0  0  0  0
   -5.1600    1.5070    1.4910 C   0  0  0  0  0  0  0  0  0  0  0  0
   -5.4790    1.7840    0.0670 C   0  0  0  0  0  0  0  0  0  0  0  0
   -5.2520    0.6140   -0.8110 C   0  0  0  0  0  0  0  0  0  0  0  0
   -6.1050    0.2700   -1.8230 N   0  0  0  0  0  0  0  0  0  0  0  0
   -5.8430   -0.7990   -2.5860 C   0  0  0  0  0  0  0  0  0  0  0  0
   -4.7390   -1.5360   -2.3580 N   0  0  0  0  0  0  0  0  0  0  0  0
   -3.8730   -1.2160   -1.3590 C   0  0  0  0  0  0  0  0  0  0  0  0
   -4.1210   -0.1260   -0.5640 C   0  0  0  0  0  0  0  0  0  0  0  0
    3.9560    1.3250    2.0090 N   0  0  0  0  0  0  0  0  0  0  0  0
    5.2130    1.5130    1.6130 N   0  0  0  0  0  0  0  0  0  0  0  0
    5.5070    0.7010    0.5830 C   0  0  0  0  0  0  0  0  0  0  0  0
  1  2  1  0
  2  3  1  0
  2 27  2  0
  3  4  1  0
  4  5  1  0
  4  6  2  0
  6  7  1  0
  6 27  1  0
  7  8  1  0
  7 25  2  0
  8  9  2  0
  8 10  1  0
 10 11  1  0
 11 12  1  0
 12 13  2  0
 12 14  1  0
 15 14  1  1
 15 16  1  0
 15 24  1  0
 16 17  1  0
 17 18  1  0
 18 19  1  0
 19 20  2  0
 19 24  1  0
 20 21  1  0
 21 22  2  0
 22 23  1  0
 23 24  2  0
 25 26  1  0
 26 27  1  0
M  END
