
     RDKit          3D

 28 31  0  0  0  0  0  0  0  0999 V2000
   -6.8910    1.3710   -1.1170 C   0  0  0  0  0  0  0  0  0  0  0  0
   -5.9880    0.5290   -0.3930 N   0  0  0  0  0  0  0  0  0  0  0  0
   -4.9480    1.2760    0.2860 C   0  0  0  0  0  0  0  0  0  0  0  0
   -4.0080    0.3760    1.0430 C   0  0  2  0  0  0  0  0  0  0  0  0
   -4.6920   -0.4340    2.0940 C   0  0  0  0  0  0  0  0  0  0  0  0
   -2.8560    1.1780    1.5760 C   0  0  0  0  0  0  0  0  0  0  0  0
   -1.8590    1.1300    0.4430 C   0  0  0  0  0  0  0  0  0  0  0  0
   -1.9760   -0.2430   -0.0020 N   0  0  0  0  0  0  0  0  0  0  0  0
   -0.8740   -1.0530   -0.3920 C   0  0  0  0  0  0  0  0  0  0  0  0
   -0.3930   -1.9510    0.4330 N   0  0  0  0  0  0  0  0  0  0  0  0
    0.7080   -2.7430    0.0160 C   0  0  0  0  0  0  0  0  0  0  0  0
    1.4400   -3.3720    0.8310 O   0  0  0  0  0  0  0  0  0  0  0  0
    1.0240   -2.8490   -1.4180 C   0  0  0  0  0  0  0  0  0  0  0  0
    0.9690   -1.4350   -1.9860 C   0  0  2  0  0  0  0  0  0  0  0  0
    2.0750   -0.6740   -1.2970 C   0  0  0  0  0  0  0  0  0  0  0  0
    1.8060    0.3090   -0.5700 O   0  0  0  0  0  0  0  0  0  0  0  0
    3.4230   -1.0490   -1.4530 N   0  0  0  0  0  0  0  0  0  0  0  0
    4.5540   -0.4360   -0.8690 C   0  0  0  0  0  0  0  0  0  0  0  0
    5.8320   -0.8280   -1.2840 C   0  0  0  0  0  0  0  0  0  0  0  0
    6.9990   -0.3190   -0.7920 C   0  0  0  0  0  0  0  0  0  0  0  0
    6.9380    0.6510    0.1840 C   0  0  0  0  0  0  0  0  0  0  0  0
    5.7170    1.0770    0.6340 C   0  0  0  0  0  0  0  0  0  0  0  0
    4.5360    0.5310    0.1040 C   0  0  0  0  0  0  0  0  0  0  0  0
    5.9660    2.0410    1.6000 O   0  0  0  0  0  0  0  0  0  0  0  0
    7.3330    2.4400    1.4760 C   0  0  0  0  0  0  0  0  0  0  0  0
    7.9450    1.3180    0.8390 O   0  0  0  0  0  0  0  0  0  0  0  0
   -0.3120   -0.8700   -1.6790 N   0  0  0  0  0  0  0  0  0  0  0  0
   -3.3810   -0.5680    0.0420 C   0  0  0  0  0  0  0  0  0  0  0  0
  1  2  1  0
  2  3  1  0
  3  4  1  0
  4  5  1  1
  4  6  1  0
  4 28  1  0
  6  7  1  0
  7  8  1  0
  8  9  1  0
  8 28  1  0
  9 10  2  0
  9 27  1  0
 10 11  1  0
 11 12  2  0
 11 13  1  0
 13 14  1  0
 14 15  1  1
 14 27  1  0
 15 16  2  0
 15 17  1  0
 17 18  1  0
 18 19  2  0
 18 23  1  0
 19 20  1  0
 20 21  2  0
 21 22  1  0
 21 26  1  0
 22 23  2  0
 22 24  1  0
 24 25  1  0
 25 26  1  0
M  END
