
     RDKit          3D

 28 31  0  0  0  0  0  0  0  0999 V2000
   -6.1550   -0.4120    2.8770 C   0  0  0  0  0  0  0  0  0  0  0  0
   -5.2370   -0.2460    1.7390 N   0  0  0  0  0  0  0  0  0  0  0  0
   -4.3110   -1.2730    1.3640 C   0  0  0  0  0  0  0  0  0  0  0  0
   -4.1710   -1.5060   -0.1020 C   0  0  2  0  0  0  0  0  0  0  0  0
   -2.7110   -1.5390   -0.4160 C   0  0  0  0  0  0  0  0  0  0  0  0
   -2.2810   -2.5990   -0.9200 O   0  0  0  0  0  0  0  0  0  0  0  0
   -1.9280   -0.3910   -0.1290 N   0  0  0  0  0  0  0  0  0  0  0  0
   -0.5530   -0.3420   -0.4010 C   0  0  0  0  0  0  0  0  0  0  0  0
    0.1650    0.6870    0.1970 C   0  0  0  0  0  0  0  0  0  0  0  0
    1.5340    0.8770    0.0100 C   0  0  0  0  0  0  0  0  0  0  0  0
    2.2370    1.9720    0.6630 C   0  0  0  0  0  0  0  0  0  0  0  0
    3.3810    2.3510    0.6720 N   0  0  0  0  0  0  0  0  0  0  0  0
    4.6250    2.1790    0.2440 N   0  0  0  0  0  0  0  0  0  0  0  0
    5.1960    2.7200   -0.8670 C   0  0  0  0  0  0  0  0  0  0  0  0
    6.5030    2.2980   -0.9130 C   0  0  0  0  0  0  0  0  0  0  0  0
    6.7640    1.4890    0.1680 C   0  0  0  0  0  0  0  0  0  0  0  0
    5.5830    1.4310    0.8710 C   0  0  0  0  0  0  0  0  0  0  0  0
    2.1580   -0.0360   -0.8250 C   0  0  0  0  0  0  0  0  0  0  0  0
    1.4910   -1.0790   -1.4470 C   0  0  0  0  0  0  0  0  0  0  0  0
    0.1280   -1.1970   -1.2070 C   0  0  0  0  0  0  0  0  0  0  0  0
    2.2010   -1.9450   -2.2670 O   0  0  0  0  0  0  0  0  0  0  0  0
    3.5720   -2.2160   -1.9330 C   0  0  0  0  0  0  0  0  0  0  0  0
    4.2650   -0.9010   -1.7780 C   0  0  0  0  0  0  0  0  0  0  0  0
    3.5040    0.0520   -1.0840 O   0  0  0  0  0  0  0  0  0  0  0  0
   -4.8110   -0.4510   -0.9670 C   0  0  0  0  0  0  0  0  0  0  0  0
   -4.7710    0.8690   -0.3650 N   0  0  0  0  0  0  0  0  0  0  0  0
   -5.2500    0.9630    0.9730 C   0  0  0  0  0  0  0  0  0  0  0  0
   -5.6640    2.0210    1.4830 O   0  0  0  0  0  0  0  0  0  0  0  0
  1  2  1  0
  2  3  1  0
  2 27  1  0
  3  4  1  0
  4  5  1  6
  4 25  1  0
  5  6  2  0
  5  7  1  0
  7  8  1  0
  8  9  2  0
  8 20  1  0
  9 10  1  0
 10 11  1  0
 10 18  2  0
 11 12  2  3
 12 13  1  0
 13 14  1  0
 13 17  1  0
 14 15  2  0
 15 16  1  0
 16 17  2  0
 18 19  1  0
 18 24  1  0
 19 20  2  0
 19 21  1  0
 21 22  1  0
 22 23  1  0
 23 24  1  0
 25 26  1  0
 26 27  1  0
 27 28  2  0
M  END
