
     RDKit          3D

 28 30  0  0  0  0  0  0  0  0999 V2000
   -7.6450   -1.4600    0.1530 C   0  0  0  0  0  0  0  0  0  0  0  0
   -6.3490   -1.2000    0.1220 C   0  0  0  0  0  0  0  0  0  0  0  0
   -5.2740   -2.1040   -0.1440 N   0  0  0  0  0  0  0  0  0  0  0  0
   -4.0290   -1.4310   -0.0830 C   0  0  0  0  0  0  0  0  0  0  0  0
   -2.8640   -1.8910   -0.2600 O   0  0  0  0  0  0  0  0  0  0  0  0
   -4.3320   -0.0370    0.2350 C   0  0  0  0  0  0  0  0  0  0  0  0
   -3.4810    0.9480    0.3880 N   0  0  0  0  0  0  0  0  0  0  0  0
   -2.0980    0.7170    0.2460 N   0  0  0  0  0  0  0  0  0  0  0  0
   -1.4770    0.6590   -1.0270 C   0  0  0  0  0  0  0  0  0  0  0  0
   -2.2220    0.8240   -2.0300 O   0  0  0  0  0  0  0  0  0  0  0  0
   -0.0550    0.4240   -1.2310 C   0  0  0  0  0  0  0  0  0  0  0  0
    0.7760    0.2440   -0.2420 C   0  0  0  0  0  0  0  0  0  0  0  0
    2.1980    0.0120   -0.5380 C   0  0  0  0  0  0  0  0  0  0  0  0
    3.0220   -0.1650    0.4200 N   0  0  0  0  0  0  0  0  0  0  0  0
    4.4130   -0.3960    0.2680 C   0  0  2  0  0  0  0  0  0  0  0  0
    4.7400   -1.7720    0.8940 C   0  0  0  0  0  0  0  0  0  0  0  0
    6.2070   -2.0170    0.7340 C   0  0  0  0  0  0  0  0  0  0  0  0
    5.1850    0.6220    1.1080 C   0  0  0  0  0  0  0  0  0  0  0  0
    4.8800    2.0300    0.6760 C   0  0  0  0  0  0  0  0  0  0  0  0
    4.8320   -0.4190   -1.0440 O   0  0  0  0  0  0  0  0  0  0  0  0
    4.0120   -0.2380   -2.1090 C   0  0  0  0  0  0  0  0  0  0  0  0
    4.3880   -0.2560   -3.3170 O   0  0  0  0  0  0  0  0  0  0  0  0
    2.6410   -0.0120   -1.8780 N   0  0  0  0  0  0  0  0  0  0  0  0
    1.7120    0.1860   -2.9180 C   0  0  0  0  0  0  0  0  0  0  0  0
    0.4540    0.3890   -2.6180 C   0  0  0  0  0  0  0  0  0  0  0  0
   -5.7750    0.1200    0.3650 C   0  0  0  0  0  0  0  0  0  0  0  0
   -6.4440    1.2370    0.6490 C   0  0  0  0  0  0  0  0  0  0  0  0
   -5.7740    2.5270    0.8800 C   0  0  0  0  0  0  0  0  0  0  0  0
  1  2  2  0
  2  3  1  0
  2 26  1  0
  3  4  1  0
  4  5  2  0
  4  6  1  0
  6  7  2  3
  6 26  1  0
  7  8  1  0
  8  9  1  0
  9 10  2  0
  9 11  1  0
 11 12  2  0
 11 25  1  0
 12 13  1  0
 13 14  2  0
 13 23  1  0
 14 15  1  0
 15 16  1  1
 15 18  1  0
 15 20  1  0
 16 17  1  0
 18 19  1  0
 20 21  1  0
 21 22  2  0
 21 23  1  0
 23 24  1  0
 24 25  2  0
 26 27  2  3
 27 28  1  0
M  END
