
     RDKit          3D

 48 53  0  0  0  0  0  0  0  0999 V2000
   -5.8950    3.1230   -2.6540 C   0  0  0  0  0  0  0  0  0  0  0  0
   -4.4000    2.7770   -2.4020 C   0  0  0  0  0  0  0  0  0  0  0  0
   -4.2890    3.0400   -0.9170 N   0  0  0  0  0  0  0  0  0  0  0  0
   -4.9970    2.2820   -0.0470 C   0  0  0  0  0  0  0  0  0  0  0  0
   -5.6910    1.3090   -0.6380 O   0  0  0  0  0  0  0  0  0  0  0  0
   -5.1720    2.3400    1.3920 C   0  0  0  0  0  0  0  0  0  0  0  0
   -6.4450    2.9230    1.7150 C   0  0  0  0  0  0  0  0  0  0  0  0
   -6.9120    2.9910    2.9160 N   0  0  0  0  0  0  0  0  0  0  0  0
   -6.1820    2.4870    3.9920 C   0  0  0  0  0  0  0  0  0  0  0  0
   -6.6390    2.5540    5.1620 O   0  0  0  0  0  0  0  0  0  0  0  0
   -4.9700    1.9230    3.7320 C   0  0  0  0  0  0  0  0  0  0  0  0
   -4.4430    1.8550    2.4050 C   0  0  0  0  0  0  0  0  0  0  0  0
   -3.0910    1.3740    2.6850 C   0  0  2  0  0  0  0  0  0  0  0  0
   -1.9390    1.2590    1.9410 C   0  0  0  0  0  0  0  0  0  0  0  0
   -1.0310    0.2280    2.2710 C   0  0  0  0  0  0  0  0  0  0  0  0
    0.1750    0.1040    1.6190 C   0  0  0  0  0  0  0  0  0  0  0  0
    0.5740    0.9580    0.6320 C   0  0  0  0  0  0  0  0  0  0  0  0
    1.8020    0.8740   -0.0630 N   0  0  0  0  0  0  0  0  0  0  0  0
    2.0280   -0.6970   -0.5150 C   0  0  0  0  0  0  0  0  0  0  0  0
    1.1310   -1.2920   -0.1380 O   0  0  0  0  0  0  0  0  0  0  0  0
    3.2490   -0.7490   -1.2150 C   0  0  0  0  0  0  0  0  0  0  0  0
    4.0210   -1.9260   -1.2140 C   0  0  0  0  0  0  0  0  0  0  0  0
    5.1750   -2.0480   -1.9130 C   0  0  0  0  0  0  0  0  0  0  0  0
    5.6590   -1.0010   -2.6790 C   0  0  0  0  0  0  0  0  0  0  0  0
    6.7640   -1.0130   -3.4220 O   0  0  0  0  0  0  0  0  0  0  0  0
    8.0640   -0.8220   -3.3880 C   0  0  0  0  0  0  0  0  0  0  0  0
    8.9100   -0.6000   -2.3840 C   0  0  0  0  0  0  0  0  0  0  0  0
   10.2990   -0.3970   -2.6480 C   0  0  0  0  0  0  0  0  0  0  0  0
   10.8020   -0.4090   -3.8200 C   0  0  0  0  0  0  0  0  0  0  0  0
    9.9660   -0.6450   -4.9280 C   0  0  0  0  0  0  0  0  0  0  0  0
    8.6670   -0.8460   -4.7960 C   0  0  0  0  0  0  0  0  0  0  0  0
    7.6820   -1.0640   -5.6750 O   0  0  0  0  0  0  0  0  0  0  0  0
    7.8540   -1.0620   -7.1310 C   0  0  0  0  0  0  0  0  0  0  0  0
    4.8960    0.1770   -2.6750 C   0  0  0  0  0  0  0  0  0  0  0  0
    3.7350    0.3240   -1.9780 C   0  0  0  0  0  0  0  0  0  0  0  0
   -0.3220    1.9800    0.3070 C   0  0  0  0  0  0  0  0  0  0  0  0
   -1.5270    2.1090    0.9400 C   0  0  0  0  0  0  0  0  0  0  0  0
   -3.5090    0.2200    3.5160 C   0  0  0  0  0  0  0  0  0  0  0  0
   -3.6390   -1.0640    3.7090 C   0  0  0  0  0  0  0  0  0  0  0  0
   -3.2480   -2.0730    2.7860 N   0  0  0  0  0  0  0  0  0  0  0  0
   -3.3570   -3.4530    3.0650 C   0  0  0  0  0  0  0  0  0  0  0  0
   -3.7510   -4.0010    4.0410 O   0  0  0  0  0  0  0  0  0  0  0  0
   -2.9130   -4.3480    1.8670 C   0  0  0  0  0  0  0  0  0  0  0  0
   -2.9270   -5.7730    2.3280 C   0  0  0  0  0  0  0  0  0  0  0  0
   -4.3520   -1.2900    4.9630 C   0  0  0  0  0  0  0  0  0  0  0  0
   -4.5070   -2.3070    5.6600 O   0  0  0  0  0  0  0  0  0  0  0  0
   -4.9710    0.0320    5.3850 C   0  0  0  0  0  0  0  0  0  0  0  0
   -4.1250    1.0350    4.6610 C   0  0  2  0  0  0  0  0  0  0  0  0
  1  2  1  0
  2  3  1  0
  3  4  1  0
  4  5  2  0
  4  6  1  0
  6  7  2  0
  6 12  1  0
  7  8  1  0
  8  9  1  0
  9 10  2  0
  9 11  1  0
 11 12  2  0
 11 48  1  0
 12 13  1  0
 13 14  1  6
 13 38  1  0
 14 15  2  0
 14 37  1  0
 15 16  1  0
 16 17  2  0
 17 18  1  0
 17 36  1  0
 18 19  1  0
 19 20  2  0
 19 21  1  0
 21 22  2  0
 21 35  1  0
 22 23  1  0
 23 24  2  0
 24 25  1  0
 24 34  1  0
 25 26  1  0
 26 27  2  0
 26 31  1  0
 27 28  1  0
 28 29  2  0
 29 30  1  0
 30 31  2  0
 31 32  1  0
 32 33  1  0
 34 35  2  0
 36 37  2  0
 38 39  2  0
 38 48  1  0
 39 40  1  0
 39 45  1  0
 40 41  1  0
 41 42  2  0
 41 43  1  0
 43 44  1  0
 45 46  2  0
 45 47  1  0
 48 47  1  1
M  END
