
     RDKit          3D

 47 50  0  0  0  0  0  0  0  0999 V2000
   -9.1720   -3.4550    0.7020 C   0  0  0  0  0  0  0  0  0  0  0  0
   -8.1090   -2.6280    0.7990 C   0  0  0  0  0  0  0  0  0  0  0  0
   -7.7090   -1.9680   -0.3980 C   0  0  0  0  0  0  0  0  0  0  0  0
   -6.7270   -1.1330   -0.5800 C   0  0  0  0  0  0  0  0  0  0  0  0
   -5.8100   -0.6810    0.3990 C   0  0  0  0  0  0  0  0  0  0  0  0
   -4.8060    0.1660    0.3150 C   0  0  0  0  0  0  0  0  0  0  0  0
   -3.9430    0.5090    1.4850 C   0  0  0  0  0  0  0  0  0  0  0  0
   -4.0510    0.0470    2.6520 O   0  0  0  0  0  0  0  0  0  0  0  0
   -2.9950    1.4370    1.0400 N   0  0  0  0  0  0  0  0  0  0  0  0
   -3.1650    1.7340   -0.3350 C   0  0  0  0  0  0  0  0  0  0  0  0
   -2.4550    2.5750   -1.1440 C   0  0  0  0  0  0  0  0  0  0  0  0
   -1.3290    3.3840   -0.7470 C   0  0  0  0  0  0  0  0  0  0  0  0
   -0.0150    2.6760   -0.5370 C   0  0  0  0  0  0  0  0  0  0  0  0
    0.4040    1.8830   -1.6840 C   0  0  0  0  0  0  0  0  0  0  0  0
   -0.5480    1.1700   -2.1910 O   0  0  0  0  0  0  0  0  0  0  0  0
    1.6680    1.7760   -2.3020 N   0  0  0  0  0  0  0  0  0  0  0  0
    1.9680    0.7770   -3.3070 C   0  0  0  0  0  0  0  0  0  0  0  0
    2.6710   -0.4070   -2.8570 C   0  0  0  0  0  0  0  0  0  0  0  0
    2.0300   -1.2120   -1.8060 C   0  0  0  0  0  0  0  0  0  0  0  0
    0.8870   -1.0310   -1.3290 O   0  0  0  0  0  0  0  0  0  0  0  0
    2.7440   -2.3240   -1.2440 N   0  0  0  0  0  0  0  0  0  0  0  0
    2.3480   -3.2220   -0.2610 C   0  0  0  0  0  0  0  0  0  0  0  0
    1.1720   -3.1960    0.3020 C   0  0  0  0  0  0  0  0  0  0  0  0
    0.7420   -4.1490    1.3530 C   0  0  0  0  0  0  0  0  0  0  0  0
    1.5690   -5.0770    1.7560 C   0  0  0  0  0  0  0  0  0  0  0  0
    2.8880   -5.1520    1.1640 C   0  0  0  0  0  0  0  0  0  0  0  0
    3.7160   -6.0690    1.5640 O   0  0  0  0  0  0  0  0  0  0  0  0
    3.3520   -4.2500    0.1380 C   0  0  2  0  0  0  0  0  0  0  0  0
    4.5390   -3.5850    0.5060 O   0  0  0  0  0  0  0  0  0  0  0  0
    2.7330    2.7310   -2.0300 C   0  0  0  0  0  0  0  0  0  0  0  0
    3.7540    2.3660   -1.0660 C   0  0  0  0  0  0  0  0  0  0  0  0
    4.9970    1.9600   -1.5650 C   0  0  0  0  0  0  0  0  0  0  0  0
    6.0130    1.6250   -0.7300 C   0  0  0  0  0  0  0  0  0  0  0  0
    5.8740    1.6670    0.6530 C   0  0  0  0  0  0  0  0  0  0  0  0
    6.9380    1.3140    1.4320 O   0  0  0  0  0  0  0  0  0  0  0  0
    8.1670    0.9100    0.8870 C   0  0  0  0  0  0  0  0  0  0  0  0
    4.6480    2.0710    1.1710 C   0  0  0  0  0  0  0  0  0  0  0  0
    4.4890    2.1300    2.5010 O   0  0  0  0  0  0  0  0  0  0  0  0
    3.4470    2.4800    3.3260 C   0  0  0  0  0  0  0  0  0  0  0  0
    2.9330    3.8850    3.1190 C   0  0  0  0  0  0  0  0  0  0  0  0
    3.6320    2.4050    0.3000 C   0  0  0  0  0  0  0  0  0  0  0  0
   -2.8500    2.6670   -2.4830 C   0  0  0  0  0  0  0  0  0  0  0  0
   -3.9130    1.9290   -2.9340 C   0  0  0  0  0  0  0  0  0  0  0  0
   -4.6090    1.0880   -2.0830 C   0  0  0  0  0  0  0  0  0  0  0  0
   -4.2460    0.9720   -0.7560 C   0  0  0  0  0  0  0  0  0  0  0  0
   -7.5550   -2.5420    2.0980 N   0  0  0  0  0  0  0  0  0  0  0  0
   -6.7080   -3.6140    2.6290 C   0  0  0  0  0  0  0  0  0  0  0  0
  1  2  2  0
  2  3  1  0
  2 46  1  0
  3  4  2  3
  4  5  1  0
  5  6  2  3
  6  7  1  0
  6 45  1  0
  7  8  2  0
  7  9  1  0
  9 10  1  0
 10 11  2  0
 10 45  1  0
 11 12  1  0
 11 42  1  0
 12 13  1  0
 13 14  1  0
 14 15  2  0
 14 16  1  0
 16 17  1  0
 16 30  1  0
 17 18  1  0
 18 19  1  0
 19 20  2  0
 19 21  1  0
 21 22  1  0
 22 23  2  0
 22 28  1  0
 23 24  1  0
 24 25  2  0
 25 26  1  0
 26 27  2  0
 26 28  1  0
 28 29  1  1
 30 31  1  0
 31 32  2  0
 31 41  1  0
 32 33  1  0
 33 34  2  0
 34 35  1  0
 34 37  1  0
 35 36  1  0
 37 38  1  0
 37 41  2  0
 38 39  1  0
 39 40  1  0
 42 43  2  0
 43 44  1  0
 44 45  2  0
 46 47  1  0
M  END
