
     RDKit          3D

 47 51  0  0  0  0  0  0  0  0999 V2000
   -6.4640    2.5830    0.4630 C   0  0  0  0  0  0  0  0  0  0  0  0
   -6.2660    1.1740   -0.2010 C   0  0  1  0  0  0  0  0  0  0  0  0
   -5.0370    1.4120   -1.0850 C   0  0  0  0  0  0  0  0  0  0  0  0
   -6.0050    0.2600    0.9130 C   0  0  0  0  0  0  0  0  0  0  0  0
   -5.7410   -1.1700    0.7550 C   0  0  2  0  0  0  0  0  0  0  0  0
   -6.8530   -2.0130    0.1430 C   0  0  0  0  0  0  0  0  0  0  0  0
   -6.8370   -3.2400    0.8830 O   0  0  0  0  0  0  0  0  0  0  0  0
   -7.4970   -3.0020    2.0690 C   0  0  0  0  0  0  0  0  0  0  0  0
   -6.5960   -2.0870    2.8980 C   0  0  0  0  0  0  0  0  0  0  0  0
   -5.4290   -1.6920    2.0670 N   0  0  0  0  0  0  0  0  0  0  0  0
   -4.1830   -1.9140    2.5780 C   0  0  0  0  0  0  0  0  0  0  0  0
   -4.1840   -2.5140    3.7510 O   0  0  0  0  0  0  0  0  0  0  0  0
   -2.8370   -1.6420    2.1160 C   0  0  0  0  0  0  0  0  0  0  0  0
   -2.4730   -0.8070    1.1060 C   0  0  0  0  0  0  0  0  0  0  0  0
   -1.1530   -0.6980    0.6830 C   0  0  0  0  0  0  0  0  0  0  0  0
   -0.1250   -1.4140    1.2450 C   0  0  0  0  0  0  0  0  0  0  0  0
    1.1930   -1.2620    0.7740 N   0  0  0  0  0  0  0  0  0  0  0  0
    2.2730   -2.1340    0.9650 C   0  0  0  0  0  0  0  0  0  0  0  0
    2.1230   -3.1860    1.6150 O   0  0  0  0  0  0  0  0  0  0  0  0
    3.6440   -1.8500    0.4000 C   0  0  2  0  0  0  0  0  0  0  0  0
    4.4080   -0.8990    1.2050 C   0  0  0  0  0  0  0  0  0  0  0  0
    4.9360    0.2990    0.5110 C   0  0  0  0  0  0  0  0  0  0  0  0
    5.3130    0.0260   -0.8510 N   0  0  0  0  0  0  0  0  0  0  0  0
    6.5000    0.3760   -1.4650 N   0  0  0  0  0  0  0  0  0  0  0  0
    7.2410    1.5710   -1.1650 C   0  0  0  0  0  0  0  0  0  0  0  0
    6.7500    2.3230   -0.2880 O   0  0  0  0  0  0  0  0  0  0  0  0
    8.5120    1.8630   -1.8770 C   0  0  0  0  0  0  0  0  0  0  0  0
    9.1630    3.1000   -1.3320 C   0  0  0  0  0  0  0  0  0  0  0  0
    9.5350    2.9920    0.1090 C   0  0  0  0  0  0  0  0  0  0  0  0
   10.5040    1.8620    0.2840 C   0  0  0  0  0  0  0  0  0  0  0  0
   10.2730    0.5380    0.5420 C   0  0  0  0  0  0  0  0  0  0  0  0
   11.4940   -0.0860    0.6120 C   0  0  0  0  0  0  0  0  0  0  0  0
   12.4450    0.8970    0.3890 C   0  0  0  0  0  0  0  0  0  0  0  0
   11.8050    2.0350    0.2000 O   0  0  0  0  0  0  0  0  0  0  0  0
    4.3310   -0.6690   -1.6400 C   0  0  0  0  0  0  0  0  0  0  0  0
    4.1900   -0.4470   -2.9820 C   0  0  0  0  0  0  0  0  0  0  0  0
    3.2150   -1.1170   -3.7130 C   0  0  0  0  0  0  0  0  0  0  0  0
    2.3760   -2.0170   -3.0890 C   0  0  0  0  0  0  0  0  0  0  0  0
    2.5130   -2.2480   -1.7330 C   0  0  0  0  0  0  0  0  0  0  0  0
    3.4920   -1.5680   -1.0230 C   0  0  0  0  0  0  0  0  0  0  0  0
   -0.4810   -2.2570    2.2670 C   0  0  0  0  0  0  0  0  0  0  0  0
   -1.7830   -2.3780    2.6980 C   0  0  0  0  0  0  0  0  0  0  0  0
   -7.4860    1.0060   -1.0260 C   0  0  2  0  0  0  0  0  0  0  0  0
   -8.7680    1.0200   -0.2440 C   0  0  0  0  0  0  0  0  0  0  0  0
   -7.4950   -0.0870   -1.8810 O   0  0  0  0  0  0  0  0  0  0  0  0
   -7.6460    2.2130   -2.0010 C   0  0  0  0  0  0  0  0  0  0  0  0
   -8.8890    1.9600   -2.6290 O   0  0  0  0  0  0  0  0  0  0  0  0
  2  1  1  1
  2  3  1  0
  2  4  1  0
  2 43  1  0
  5  4  1  1
  5  6  1  0
  5 10  1  0
  6  7  1  0
  7  8  1  0
  8  9  1  0
  9 10  1  0
 10 11  1  0
 11 12  2  0
 11 13  1  0
 13 14  2  0
 13 42  1  0
 14 15  1  0
 15 16  2  0
 16 17  1  0
 16 41  1  0
 17 18  1  0
 18 19  2  0
 20 18  1  1
 20 21  1  0
 20 40  1  0
 21 22  1  0
 22 23  1  0
 23 24  1  0
 23 35  1  0
 24 25  1  0
 25 26  2  0
 25 27  1  0
 27 28  1  0
 28 29  1  0
 29 30  1  0
 30 31  2  0
 30 34  1  0
 31 32  1  0
 32 33  2  0
 33 34  1  0
 35 36  2  0
 35 40  1  0
 36 37  1  0
 37 38  2  0
 38 39  1  0
 39 40  2  0
 41 42  2  0
 43 44  1  1
 43 45  1  0
 43 46  1  0
 46 47  1  0
M  END
