
     RDKit          3D

 48 51  0  0  0  0  0  0  0  0999 V2000
   -5.7580    4.9180    2.2880 C   0  0  0  0  0  0  0  0  0  0  0  0
   -5.4720    3.8080    1.3630 C   0  0  0  0  0  0  0  0  0  0  0  0
   -6.4200    3.2260    0.7740 O   0  0  0  0  0  0  0  0  0  0  0  0
   -4.2080    3.3020    1.0470 N   0  0  0  0  0  0  0  0  0  0  0  0
   -3.9350    2.2440    0.1660 C   0  0  2  0  0  0  0  0  0  0  0  0
   -3.4280    1.0900    0.9430 C   0  0  0  0  0  0  0  0  0  0  0  0
   -3.3400    1.1960    2.1910 O   0  0  0  0  0  0  0  0  0  0  0  0
   -3.0320   -0.1350    0.3720 N   0  0  0  0  0  0  0  0  0  0  0  0
   -2.5320   -1.2780    1.1060 C   0  0  1  0  0  0  0  0  0  0  0  0
   -3.4150   -2.4660    0.8610 C   0  0  0  0  0  0  0  0  0  0  0  0
   -4.8090   -2.1290    1.3440 C   0  0  0  0  0  0  0  0  0  0  0  0
   -5.0790   -2.4390    2.6610 C   0  0  0  0  0  0  0  0  0  0  0  0
   -6.3430   -2.1420    3.1310 C   0  0  0  0  0  0  0  0  0  0  0  0
   -7.2880   -1.5650    2.3230 C   0  0  0  0  0  0  0  0  0  0  0  0
   -6.9820   -1.2710    1.0140 C   0  0  0  0  0  0  0  0  0  0  0  0
   -5.7280   -1.5560    0.5170 C   0  0  0  0  0  0  0  0  0  0  0  0
   -1.1060   -1.5780    0.8560 C   0  0  0  0  0  0  0  0  0  0  0  0
   -0.7540   -1.8750   -0.5500 C   0  0  2  0  0  0  0  0  0  0  0  0
   -1.4440   -2.9900   -0.9840 O   0  0  0  0  0  0  0  0  0  0  0  0
    0.7330   -1.9540   -0.8000 C   0  0  2  0  0  0  0  0  0  0  0  0
    1.4210   -3.1360   -0.2660 C   0  0  0  0  0  0  0  0  0  0  0  0
    1.0110   -4.4530   -0.7250 C   0  0  0  0  0  0  0  0  0  0  0  0
    0.0320   -5.1520   -0.0460 C   0  0  0  0  0  0  0  0  0  0  0  0
   -0.3580   -6.4100   -0.4890 C   0  0  0  0  0  0  0  0  0  0  0  0
    0.2110   -7.0000   -1.6130 C   0  0  0  0  0  0  0  0  0  0  0  0
    1.1840   -6.2640   -2.2570 C   0  0  0  0  0  0  0  0  0  0  0  0
    1.5960   -5.0320   -1.8590 C   0  0  0  0  0  0  0  0  0  0  0  0
    1.4060   -0.7530   -0.3080 N   0  0  0  0  0  0  0  0  0  0  0  0
    1.9680    0.2400   -1.1560 C   0  0  0  0  0  0  0  0  0  0  0  0
    1.8680    0.0530   -2.3990 O   0  0  0  0  0  0  0  0  0  0  0  0
    2.6450    1.4490   -0.6570 C   0  0  2  0  0  0  0  0  0  0  0  0
    4.0660    1.5940   -1.0810 C   0  0  0  0  0  0  0  0  0  0  0  0
    4.8400    1.3080    0.1170 N   0  0  0  0  0  0  0  0  0  0  0  0
    6.2710    1.2930    0.2100 C   0  0  0  0  0  0  0  0  0  0  0  0
    6.9350    0.1250    0.4040 C   0  0  0  0  0  0  0  0  0  0  0  0
    8.3180    0.1220    0.4890 C   0  0  0  0  0  0  0  0  0  0  0  0
    9.0500    1.3050    0.3790 C   0  0  0  0  0  0  0  0  0  0  0  0
    8.3730    2.4920    0.1830 C   0  0  0  0  0  0  0  0  0  0  0  0
    9.1560    3.7310    0.0680 C   0  0  0  0  0  0  0  0  0  0  0  0
    8.5180    5.0420   -0.1420 C   0  0  0  0  0  0  0  0  0  0  0  0
   10.4120    3.6820    0.1500 O   0  0  0  0  0  0  0  0  0  0  0  0
    7.0040    2.4760    0.1010 C   0  0  0  0  0  0  0  0  0  0  0  0
    3.9050    1.0510    1.1500 C   0  0  0  0  0  0  0  0  0  0  0  0
    4.2550    0.5430    2.2740 O   0  0  0  0  0  0  0  0  0  0  0  0
    2.6330    1.4220    0.7580 O   0  0  0  0  0  0  0  0  0  0  0  0
   -3.1800    2.5140   -1.0820 C   0  0  1  0  0  0  0  0  0  0  0  0
   -3.9390    3.5180   -1.9310 C   0  0  0  0  0  0  0  0  0  0  0  0
   -1.7410    2.8620   -0.9130 C   0  0  0  0  0  0  0  0  0  0  0  0
  1  2  1  0
  2  3  2  0
  2  4  1  0
  5  4  1  1
  5  6  1  0
  5 46  1  0
  6  7  2  0
  6  8  1  0
  8  9  1  0
  9 10  1  6
  9 17  1  0
 10 11  1  0
 11 12  2  0
 11 16  1  0
 12 13  1  0
 13 14  2  0
 14 15  1  0
 15 16  2  0
 17 18  1  0
 18 19  1  1
 18 20  1  0
 20 21  1  1
 20 28  1  0
 21 22  1  0
 22 23  2  0
 22 27  1  0
 23 24  1  0
 24 25  2  0
 25 26  1  0
 26 27  2  0
 28 29  1  0
 29 30  2  0
 31 29  1  6
 31 32  1  0
 31 45  1  0
 32 33  1  0
 33 34  1  0
 33 43  1  0
 34 35  2  0
 34 42  1  0
 35 36  1  0
 36 37  2  0
 37 38  1  0
 38 39  1  0
 38 42  2  0
 39 40  1  0
 39 41  2  0
 43 44  2  0
 43 45  1  0
 46 47  1  1
 46 48  1  0
M  END
