
     RDKit          3D

 47 50  0  0  0  0  0  0  0  0999 V2000
    7.8360   -0.6630   -5.3250 C   0  0  0  0  0  0  0  0  0  0  0  0
    7.2960    0.3620   -4.6930 C   0  0  0  0  0  0  0  0  0  0  0  0
    6.0470    0.1530   -3.9170 C   0  0  0  0  0  0  0  0  0  0  0  0
    6.2450    0.4710   -2.5660 O   0  0  0  0  0  0  0  0  0  0  0  0
    5.1920    0.3380   -1.6800 C   0  0  0  0  0  0  0  0  0  0  0  0
    3.9520   -0.1020   -2.1120 C   0  0  0  0  0  0  0  0  0  0  0  0
    2.9400   -0.2110   -1.1630 C   0  0  0  0  0  0  0  0  0  0  0  0
    3.1080    0.0920    0.1600 C   0  0  0  0  0  0  0  0  0  0  0  0
    2.0480   -0.0250    1.1860 C   0  0  0  0  0  0  0  0  0  0  0  0
    1.1810    1.1080    1.2010 N   0  0  0  0  0  0  0  0  0  0  0  0
    1.6760    2.3120    1.9160 C   0  0  0  0  0  0  0  0  0  0  0  0
    1.2610    2.2570    3.3790 C   0  0  0  0  0  0  0  0  0  0  0  0
   -0.0890    1.2010    0.6220 C   0  0  0  0  0  0  0  0  0  0  0  0
   -0.6810    2.3390    0.6840 O   0  0  0  0  0  0  0  0  0  0  0  0
   -0.8620    0.1380   -0.0670 C   0  0  1  0  0  0  0  0  0  0  0  0
   -1.0690   -1.0600    0.7590 C   0  0  0  0  0  0  0  0  0  0  0  0
   -2.4640   -1.4130    1.0390 N   0  0  0  0  0  0  0  0  0  0  0  0
   -3.5000   -0.4740    0.8030 C   0  0  0  0  0  0  0  0  0  0  0  0
   -4.7080   -0.7140    1.2930 C   0  0  0  0  0  0  0  0  0  0  0  0
   -4.9570   -1.9300    2.0330 C   0  0  0  0  0  0  0  0  0  0  0  0
   -4.0120   -2.8220    2.1950 C   0  0  0  0  0  0  0  0  0  0  0  0
   -2.6520   -2.7140    1.6480 C   0  0  2  0  0  0  0  0  0  0  0  0
   -1.6390   -2.9360    2.7580 C   0  0  0  0  0  0  0  0  0  0  0  0
   -2.5090   -3.6980    0.5150 C   0  0  0  0  0  0  0  0  0  0  0  0
   -2.6350   -5.1340    0.7840 C   0  0  2  0  0  0  0  0  0  0  0  0
   -3.8980   -5.6700    1.3350 C   0  0  0  0  0  0  0  0  0  0  0  0
   -1.4690   -5.7290    1.5650 C   0  0  0  0  0  0  0  0  0  0  0  0
   -3.3250    0.6720   -0.0630 C   0  0  0  0  0  0  0  0  0  0  0  0
   -4.1310    1.6190   -0.3620 C   0  0  0  0  0  0  0  0  0  0  0  0
   -5.3800    2.2660   -0.2460 C   0  0  0  0  0  0  0  0  0  0  0  0
   -6.5370    2.1500    0.5900 C   0  0  0  0  0  0  0  0  0  0  0  0
   -7.5390    2.9310    0.3740 O   0  0  0  0  0  0  0  0  0  0  0  0
   -5.5150    3.3720   -1.0790 C   0  0  0  0  0  0  0  0  0  0  0  0
   -4.5580    3.8710   -1.9930 C   0  0  0  0  0  0  0  0  0  0  0  0
   -3.9730    3.2180   -3.0620 C   0  0  0  0  0  0  0  0  0  0  0  0
   -3.0680    3.8150   -3.8430 N   0  0  0  0  0  0  0  0  0  0  0  0
   -2.6700    5.0830   -3.6400 C   0  0  0  0  0  0  0  0  0  0  0  0
   -1.8100    5.6120   -4.4020 O   0  0  0  0  0  0  0  0  0  0  0  0
   -3.2030    5.7610   -2.6220 N   0  0  0  0  0  0  0  0  0  0  0  0
   -4.1150    5.1890   -1.8180 C   0  0  0  0  0  0  0  0  0  0  0  0
   -4.5810    5.8640   -0.8840 O   0  0  0  0  0  0  0  0  0  0  0  0
   -2.0070    0.6850   -0.6270 O   0  0  0  0  0  0  0  0  0  0  0  0
    4.3860    0.5320    0.5350 C   0  0  0  0  0  0  0  0  0  0  0  0
    5.4230    0.6580   -0.3590 C   0  0  0  0  0  0  0  0  0  0  0  0
    6.6720    1.0890    0.0130 O   0  0  0  0  0  0  0  0  0  0  0  0
    7.0590    1.4410    1.3110 C   0  0  0  0  0  0  0  0  0  0  0  0
    6.9300    0.3310    2.3060 C   0  0  0  0  0  0  0  0  0  0  0  0
  1  2  2  0
  2  3  1  0
  3  4  1  0
  4  5  1  0
  5  6  2  0
  5 44  1  0
  6  7  1  0
  7  8  2  0
  8  9  1  0
  8 43  1  0
  9 10  1  0
 10 11  1  0
 10 13  1  0
 11 12  1  0
 13 14  2  0
 15 13  1  1
 15 16  1  0
 15 42  1  0
 16 17  1  0
 17 18  1  0
 17 22  1  0
 18 19  2  0
 18 28  1  0
 19 20  1  0
 20 21  2  0
 21 22  1  0
 22 23  1  1
 22 24  1  0
 24 25  1  0
 25 26  1  1
 25 27  1  0
 28 29  2  3
 28 42  1  0
 29 30  1  0
 30 31  1  0
 30 33  2  3
 31 32  2  0
 33 34  1  0
 34 35  2  0
 34 40  1  0
 35 36  1  0
 36 37  1  0
 37 38  2  0
 37 39  1  0
 39 40  1  0
 40 41  2  0
 43 44  2  0
 44 45  1  0
 45 46  1  0
 46 47  1  0
M  END
