
     RDKit          3D

 47 50  0  0  0  0  0  0  0  0999 V2000
   -6.9390   -5.1300    0.0380 C   0  0  0  0  0  0  0  0  0  0  0  0
   -6.3660   -3.7910    0.3440 C   0  0  0  0  0  0  0  0  0  0  0  0
   -6.5970   -3.1710    1.5310 C   0  0  0  0  0  0  0  0  0  0  0  0
   -6.0840   -1.9460    1.8450 C   0  0  0  0  0  0  0  0  0  0  0  0
   -5.2390   -1.2710    0.8660 C   0  0  0  0  0  0  0  0  0  0  0  0
   -4.6780    0.0110    1.2830 C   0  0  1  0  0  0  0  0  0  0  0  0
   -4.0730   -0.2030    2.6050 O   0  0  0  0  0  0  0  0  0  0  0  0
   -3.6740    0.7060    0.4450 C   0  0  2  0  0  0  0  0  0  0  0  0
   -3.9890    1.1960   -0.8820 C   0  0  0  0  0  0  0  0  0  0  0  0
   -4.9430    2.3220   -1.0690 C   0  0  1  0  0  0  0  0  0  0  0  0
   -5.0770    2.5720   -2.4480 O   0  0  0  0  0  0  0  0  0  0  0  0
   -6.1560    1.9720   -3.0360 C   0  0  0  0  0  0  0  0  0  0  0  0
   -7.4830    2.3470   -2.4040 C   0  0  0  0  0  0  0  0  0  0  0  0
   -7.2170    3.2390   -1.1990 C   0  0  0  0  0  0  0  0  0  0  0  0
   -6.1820    2.4600   -0.2960 C   0  0  2  0  0  0  0  0  0  0  0  0
   -6.0430    3.3810    0.9110 C   0  0  0  0  0  0  0  0  0  0  0  0
   -2.3390    0.1150    0.7190 C   0  0  0  0  0  0  0  0  0  0  0  0
   -1.1420    0.6400    0.0330 C   0  0  2  0  0  0  0  0  0  0  0  0
   -0.9410    2.1290    0.2950 C   0  0  0  0  0  0  0  0  0  0  0  0
   -1.1130    0.3870   -1.2940 O   0  0  0  0  0  0  0  0  0  0  0  0
    0.0910   -0.0330    0.6930 C   0  0  0  0  0  0  0  0  0  0  0  0
    1.3710    0.2770    0.1220 C   0  0  0  0  0  0  0  0  0  0  0  0
    1.6020   -0.0010   -1.0670 O   0  0  0  0  0  0  0  0  0  0  0  0
    2.4600    0.8980    0.8700 N   0  0  0  0  0  0  0  0  0  0  0  0
    2.1090    1.4720    2.1070 C   0  0  0  0  0  0  0  0  0  0  0  0
    3.2000    2.1900    2.7950 C   0  0  0  0  0  0  0  0  0  0  0  0
    2.9690    2.9350    3.7960 O   0  0  0  0  0  0  0  0  0  0  0  0
    4.5380    2.0610    2.3450 N   0  0  0  0  0  0  0  0  0  0  0  0
    4.8690    1.0440    1.3980 C   0  0  0  0  0  0  0  0  0  0  0  0
    5.9020    0.4110    1.3790 O   0  0  0  0  0  0  0  0  0  0  0  0
    3.7810    0.7790    0.3630 C   0  0  1  0  0  0  0  0  0  0  0  0
    4.1290   -0.5780   -0.2460 C   0  0  0  0  0  0  0  0  0  0  0  0
    5.5870   -0.4930   -0.6740 C   0  0  0  0  0  0  0  0  0  0  0  0
    6.0330    0.4930   -1.2560 O   0  0  0  0  0  0  0  0  0  0  0  0
    6.4660   -1.5650   -0.3850 N   0  0  0  0  0  0  0  0  0  0  0  0
    7.8110   -1.6860   -0.6720 C   0  0  0  0  0  0  0  0  0  0  0  0
    8.5710   -0.9820   -1.5800 C   0  0  0  0  0  0  0  0  0  0  0  0
    9.8810   -1.2650   -1.7670 C   0  0  0  0  0  0  0  0  0  0  0  0
   10.7680   -0.3360   -2.6480 C   0  0  0  0  0  0  0  0  0  0  0  0
   11.4970    0.4780   -1.7340 C   0  0  0  0  0  0  0  0  0  0  0  0
   12.1120    1.1970   -0.9360 N   0  0  0  0  0  0  0  0  0  0  0  0
   10.5450   -2.2430   -1.1100 C   0  0  0  0  0  0  0  0  0  0  0  0
    9.8260   -2.9690   -0.1880 C   0  0  0  0  0  0  0  0  0  0  0  0
    8.5090   -2.7050    0.0280 C   0  0  0  0  0  0  0  0  0  0  0  0
    7.7640   -3.4480    1.0940 C   0  0  0  0  0  0  0  0  0  0  0  0
   -5.0430   -1.9110   -0.2530 C   0  0  0  0  0  0  0  0  0  0  0  0
   -5.5490   -3.1360   -0.6060 C   0  0  0  0  0  0  0  0  0  0  0  0
  1  2  1  0
  2  3  2  0
  2 47  1  0
  3  4  1  0
  4  5  2  0
  5  6  1  0
  5 46  1  0
  6  7  1  1
  6  8  1  0
  8  9  1  6
  8 17  1  0
 10  9  1  6
 10 11  1  0
 10 15  1  0
 11 12  1  0
 12 13  1  0
 13 14  1  0
 14 15  1  0
 15 16  1  1
 17 18  1  0
 18 19  1  6
 18 20  1  0
 18 21  1  0
 21 22  1  0
 22 23  2  0
 22 24  1  0
 24 25  1  0
 24 31  1  0
 25 26  1  0
 26 27  2  0
 26 28  1  0
 28 29  1  0
 29 30  2  0
 29 31  1  0
 31 32  1  1
 32 33  1  0
 33 34  2  0
 33 35  1  0
 35 36  1  0
 36 37  2  0
 36 44  1  0
 37 38  1  0
 38 39  1  0
 38 42  2  0
 39 40  1  0
 40 41  3  0
 42 43  1  0
 43 44  2  0
 44 45  1  0
 46 47  2  0
M  END
