
     RDKit          3D

 47 51  0  0  0  0  0  0  0  0999 V2000
   -6.6580    3.7680   -2.0550 C   0  0  0  0  0  0  0  0  0  0  0  0
   -7.3880    2.6900   -1.9610 C   0  0  0  0  0  0  0  0  0  0  0  0
   -7.0260    1.5410   -1.1170 C   0  0  0  0  0  0  0  0  0  0  0  0
   -5.8640    1.5900   -0.3580 N   0  0  0  0  0  0  0  0  0  0  0  0
   -5.7310    2.4910    0.6990 C   0  0  0  0  0  0  0  0  0  0  0  0
   -4.3280    3.0310    0.8220 C   0  0  0  0  0  0  0  0  0  0  0  0
   -4.0430    4.2220    0.9180 O   0  0  0  0  0  0  0  0  0  0  0  0
   -3.2700    2.0440    0.8250 C   0  0  0  0  0  0  0  0  0  0  0  0
   -3.5350    0.8970    0.0330 C   0  0  0  0  0  0  0  0  0  0  0  0
   -2.5850   -0.0880    0.0660 C   0  0  0  0  0  0  0  0  0  0  0  0
   -2.7870   -1.2600   -0.7110 C   0  0  0  0  0  0  0  0  0  0  0  0
   -4.1330   -1.4760   -1.1910 C   0  0  1  0  0  0  0  0  0  0  0  0
   -4.2600   -3.0370   -1.3670 C   0  0  0  0  0  0  0  0  0  0  0  0
   -5.1340   -1.5550   -0.0250 C   0  0  0  0  0  0  0  0  0  0  0  0
   -4.7380   -1.5500    1.2580 C   0  0  0  0  0  0  0  0  0  0  0  0
   -5.6920   -1.6700    2.2780 C   0  0  0  0  0  0  0  0  0  0  0  0
   -6.9700   -1.7880    1.9440 N   0  0  0  0  0  0  0  0  0  0  0  0
   -7.4030   -1.7980    0.6640 C   0  0  0  0  0  0  0  0  0  0  0  0
   -6.4500   -1.6770   -0.3580 C   0  0  0  0  0  0  0  0  0  0  0  0
   -1.7940   -2.2190   -0.7170 C   0  0  0  0  0  0  0  0  0  0  0  0
   -1.8300   -3.3210   -1.6630 C   0  0  0  0  0  0  0  0  0  0  0  0
   -0.6380   -2.0160    0.0620 C   0  0  0  0  0  0  0  0  0  0  0  0
   -0.4680   -0.9030    0.8090 C   0  0  0  0  0  0  0  0  0  0  0  0
    0.7640   -0.7070    1.6140 C   0  0  0  0  0  0  0  0  0  0  0  0
    1.7650    0.1720    0.9110 C   0  0  0  0  0  0  0  0  0  0  0  0
    2.9920    0.4210    1.7450 C   0  0  2  0  0  0  0  0  0  0  0  0
    3.9790    1.2750    1.0220 C   0  0  0  0  0  0  0  0  0  0  0  0
    3.9120    2.5090    1.2030 O   0  0  0  0  0  0  0  0  0  0  0  0
    4.9380    0.6760    0.1670 N   0  0  0  0  0  0  0  0  0  0  0  0
    5.9380    1.3050   -0.6290 C   0  0  1  0  0  0  0  0  0  0  0  0
    6.1140    2.8100   -0.3290 C   0  0  0  0  0  0  0  0  0  0  0  0
    4.9670    3.4590   -0.6860 O   0  0  0  0  0  0  0  0  0  0  0  0
    7.2390    0.6570   -0.8070 C   0  0  0  0  0  0  0  0  0  0  0  0
    7.3740   -0.6690   -1.4290 C   0  0  1  0  0  0  0  0  0  0  0  0
    6.7010   -1.8280   -0.7550 C   0  0  0  0  0  0  0  0  0  0  0  0
    7.0480   -0.6610   -2.9220 C   0  0  0  0  0  0  0  0  0  0  0  0
    8.8950   -0.9920   -1.3890 C   0  0  0  0  0  0  0  0  0  0  0  0
    3.5780   -0.8260    2.3190 C   0  0  0  0  0  0  0  0  0  0  0  0
    3.1710   -0.8610    3.7780 C   0  0  0  0  0  0  0  0  0  0  0  0
    2.9100    0.4620    4.1210 O   0  0  0  0  0  0  0  0  0  0  0  0
    2.5890    1.1580    2.9650 C   0  0  0  0  0  0  0  0  0  0  0  0
    2.0250    2.2810    3.0040 O   0  0  0  0  0  0  0  0  0  0  0  0
   -1.4190    0.0630    0.8210 C   0  0  0  0  0  0  0  0  0  0  0  0
   -1.2400    1.1870    1.5470 N   0  0  0  0  0  0  0  0  0  0  0  0
   -2.1280    2.1680    1.5690 C   0  0  0  0  0  0  0  0  0  0  0  0
   -1.9990    3.2330    2.2390 O   0  0  0  0  0  0  0  0  0  0  0  0
   -4.6450    1.0020   -0.8790 C   0  0  0  0  0  0  0  0  0  0  0  0
  1  2  2  0
  2  3  1  0
  3  4  1  0
  4  5  1  0
  4 47  1  0
  5  6  1  0
  6  7  2  0
  6  8  1  0
  8  9  2  0
  8 45  1  0
  9 10  1  0
  9 47  1  0
 10 11  2  0
 10 43  1  0
 11 12  1  0
 11 20  1  0
 12 13  1  1
 12 14  1  0
 14 15  2  0
 14 19  1  0
 15 16  1  0
 16 17  2  0
 17 18  1  0
 18 19  2  0
 20 21  1  0
 20 22  2  0
 22 23  1  0
 23 24  1  0
 23 43  2  0
 24 25  1  0
 26 25  1  6
 26 27  1  0
 26 38  1  0
 26 41  1  0
 27 28  2  0
 27 29  1  0
 29 30  1  0
 30 31  1  1
 30 33  1  0
 31 32  1  0
 33 34  1  0
 34 35  1  1
 34 36  1  0
 34 37  1  0
 38 39  1  0
 39 40  1  0
 40 41  1  0
 41 42  2  0
 43 44  1  0
 44 45  1  0
 45 46  2  0
M  END
