
     RDKit          3D

 48 52  0  0  0  0  0  0  0  0999 V2000
   10.9980   -0.3590   -1.4600 C   0  0  0  0  0  0  0  0  0  0  0  0
    9.7530   -0.5850   -1.0870 C   0  0  0  0  0  0  0  0  0  0  0  0
    8.7420    0.4050   -1.3700 N   0  0  0  0  0  0  0  0  0  0  0  0
    7.4080    0.1740   -0.9760 C   0  0  0  0  0  0  0  0  0  0  0  0
    6.4180    1.1240   -1.2400 C   0  0  0  0  0  0  0  0  0  0  0  0
    5.1000    0.9370   -0.8690 C   0  0  0  0  0  0  0  0  0  0  0  0
    4.7200   -0.2020   -0.2220 C   0  0  0  0  0  0  0  0  0  0  0  0
    3.4230   -0.5240    0.1900 N   0  0  0  0  0  0  0  0  0  0  0  0
    2.2000    0.1210   -0.1640 C   0  0  0  0  0  0  0  0  0  0  0  0
    2.3240    1.0930   -0.9440 O   0  0  0  0  0  0  0  0  0  0  0  0
    0.9260   -0.3290    0.3500 C   0  0  0  0  0  0  0  0  0  0  0  0
   -0.2820    0.1170    0.1540 C   0  0  0  0  0  0  0  0  0  0  0  0
   -0.5400    1.2440   -0.6960 C   0  0  0  0  0  0  0  0  0  0  0  0
   -1.6860    1.7700   -1.0440 C   0  0  0  0  0  0  0  0  0  0  0  0
   -1.7220    2.9530   -1.9380 C   0  0  0  0  0  0  0  0  0  0  0  0
   -2.7820    3.4890   -2.2980 O   0  0  0  0  0  0  0  0  0  0  0  0
   -0.5250    3.4820   -2.3900 O   0  0  0  0  0  0  0  0  0  0  0  0
   -0.4670    4.6060   -3.2430 C   0  0  0  0  0  0  0  0  0  0  0  0
   -1.0840    5.8440   -2.6540 C   0  0  0  0  0  0  0  0  0  0  0  0
   -1.3820   -0.6320    0.8000 C   0  0  0  0  0  0  0  0  0  0  0  0
   -2.0270    0.0290    1.9430 C   0  0  1  0  0  0  0  0  0  0  0  0
   -2.6810    1.3160    1.8550 C   0  0  0  0  0  0  0  0  0  0  0  0
   -2.0420    2.4150    2.0400 O   0  0  0  0  0  0  0  0  0  0  0  0
   -4.0770    1.3550    1.5560 N   0  0  0  0  0  0  0  0  0  0  0  0
   -4.7900    0.0970    1.2440 C   0  0  2  0  0  0  0  0  0  0  0  0
   -6.1950    0.3240    1.3500 N   0  0  0  0  0  0  0  0  0  0  0  0
   -6.5330    0.8190    2.7510 C   0  0  0  0  0  0  0  0  0  0  0  0
   -7.2730    0.2210    0.5270 C   0  0  0  0  0  0  0  0  0  0  0  0
   -8.4070    0.5950    1.0920 O   0  0  0  0  0  0  0  0  0  0  0  0
   -7.4200   -0.2120   -0.8370 C   0  0  0  0  0  0  0  0  0  0  0  0
   -6.4750   -0.8110   -1.6260 C   0  0  0  0  0  0  0  0  0  0  0  0
   -6.7040   -1.1560   -2.9680 C   0  0  0  0  0  0  0  0  0  0  0  0
   -7.9030   -0.9120   -3.5800 C   0  0  0  0  0  0  0  0  0  0  0  0
   -8.1260   -1.2560   -4.9150 O   0  0  0  0  0  0  0  0  0  0  0  0
   -8.8690   -0.3140   -2.8140 C   0  0  0  0  0  0  0  0  0  0  0  0
   -8.6470    0.0210   -1.5100 C   0  0  0  0  0  0  0  0  0  0  0  0
   -4.3060   -0.8950    2.2490 C   0  0  0  0  0  0  0  0  0  0  0  0
   -4.9200   -1.8890    2.9970 C   0  0  0  0  0  0  0  0  0  0  0  0
   -3.9760   -2.5070    3.7660 C   0  0  0  0  0  0  0  0  0  0  0  0
   -2.7810   -1.8700    3.4700 C   0  0  0  0  0  0  0  0  0  0  0  0
   -1.4590   -2.2180    4.0810 C   0  0  0  0  0  0  0  0  0  0  0  0
   -3.0130   -0.9080    2.5560 N   0  0  0  0  0  0  0  0  0  0  0  0
    5.7090   -1.1290    0.0300 C   0  0  0  0  0  0  0  0  0  0  0  0
    7.0440   -0.9760   -0.3280 C   0  0  0  0  0  0  0  0  0  0  0  0
    7.9910   -2.0550    0.0050 C   0  0  0  0  0  0  0  0  0  0  0  0
    9.3740   -1.7960   -0.4030 C   0  0  0  0  0  0  0  0  0  0  0  0
   10.2760   -2.7560   -0.1010 C   0  0  0  0  0  0  0  0  0  0  0  0
    9.8450   -4.0070    0.6130 C   0  0  0  0  0  0  0  0  0  0  0  0
  1  2  2  0
  2  3  1  0
  2 46  1  0
  3  4  1  0
  4  5  2  0
  4 44  1  0
  5  6  1  0
  6  7  2  0
  7  8  1  0
  7 43  1  0
  8  9  1  0
  9 10  2  0
  9 11  1  0
 11 12  2  3
 12 13  1  0
 12 20  1  0
 13 14  2  3
 14 15  1  0
 15 16  2  0
 15 17  1  0
 17 18  1  0
 18 19  1  0
 21 20  1  6
 21 22  1  0
 21 42  1  0
 22 23  2  0
 22 24  1  0
 24 25  1  0
 25 26  1  1
 25 37  1  0
 26 27  1  0
 26 28  1  0
 28 29  2  0
 28 30  1  0
 30 31  2  0
 30 36  1  0
 31 32  1  0
 32 33  2  0
 33 34  1  0
 33 35  1  0
 35 36  2  0
 37 38  2  0
 37 42  1  0
 38 39  1  0
 39 40  2  0
 40 41  1  0
 40 42  1  0
 43 44  2  0
 44 45  1  0
 45 46  1  0
 46 47  2  3
 47 48  1  0
M  END
