
     RDKit          3D

 48 52  0  0  0  0  0  0  0  0999 V2000
    5.8980    3.9890    2.6600 C   0  0  0  0  0  0  0  0  0  0  0  0
    6.8530    3.2100    3.3330 O   0  0  0  0  0  0  0  0  0  0  0  0
    7.0010    1.8860    3.0090 C   0  0  0  0  0  0  0  0  0  0  0  0
    6.2420    1.2490    2.0260 C   0  0  0  0  0  0  0  0  0  0  0  0
    6.3890   -0.0760    1.7000 C   0  0  0  0  0  0  0  0  0  0  0  0
    5.5560   -0.6780    0.6650 C   0  0  0  0  0  0  0  0  0  0  0  0
    5.2310   -2.0120    0.7610 C   0  0  0  0  0  0  0  0  0  0  0  0
    4.4310   -2.6040   -0.2150 C   0  0  0  0  0  0  0  0  0  0  0  0
    3.9420   -1.9150   -1.2850 C   0  0  0  0  0  0  0  0  0  0  0  0
    3.1440   -2.4220   -2.3300 N   0  0  0  0  0  0  0  0  0  0  0  0
    2.9390   -3.7760   -2.6650 C   0  0  0  0  0  0  0  0  0  0  0  0
    3.5040   -4.6640   -2.0060 O   0  0  0  0  0  0  0  0  0  0  0  0
    2.0380   -4.1600   -3.8190 C   0  0  0  0  0  0  0  0  0  0  0  0
    1.4490   -2.9350   -4.3780 N   0  0  0  0  0  0  0  0  0  0  0  0
    2.0650   -2.2750   -5.3340 N   0  0  0  0  0  0  0  0  0  0  0  0
    1.5500   -1.1290   -5.8590 C   0  0  0  0  0  0  0  0  0  0  0  0
    2.1320   -0.4930   -6.7720 O   0  0  0  0  0  0  0  0  0  0  0  0
    0.3690   -0.6950   -5.3520 C   0  0  0  0  0  0  0  0  0  0  0  0
   -0.1300    0.3750   -5.8300 O   0  0  0  0  0  0  0  0  0  0  0  0
   -0.2990   -1.3350   -4.3750 N   0  0  0  0  0  0  0  0  0  0  0  0
   -1.5260   -0.8000   -3.9110 C   0  0  1  0  0  0  0  0  0  0  0  0
   -2.7140   -1.5830   -4.4440 C   0  0  0  0  0  0  0  0  0  0  0  0
   -1.5950   -0.5970   -2.4480 C   0  0  0  0  0  0  0  0  0  0  0  0
   -0.6180   -0.8470   -1.7460 O   0  0  0  0  0  0  0  0  0  0  0  0
   -2.7880   -0.1160   -1.8750 N   0  0  0  0  0  0  0  0  0  0  0  0
   -3.0230    0.1310   -0.5020 C   0  0  0  0  0  0  0  0  0  0  0  0
   -2.1200    0.0550    0.5090 C   0  0  0  0  0  0  0  0  0  0  0  0
   -2.4390    0.2970    1.8360 C   0  0  0  0  0  0  0  0  0  0  0  0
   -3.7600    0.6370    2.1500 C   0  0  0  0  0  0  0  0  0  0  0  0
   -4.0850    0.8990    3.5710 C   0  0  0  0  0  0  0  0  0  0  0  0
   -4.7100    0.7260    1.1630 C   0  0  0  0  0  0  0  0  0  0  0  0
   -6.0850    1.0640    1.4930 C   0  0  0  0  0  0  0  0  0  0  0  0
   -6.8040    0.4560    2.4880 C   0  0  0  0  0  0  0  0  0  0  0  0
   -8.1220    0.8180    2.7680 C   0  0  0  0  0  0  0  0  0  0  0  0
   -8.8990    0.1600    3.8430 C   0  0  0  0  0  0  0  0  0  0  0  0
   -8.7050    1.8060    2.0230 C   0  0  0  0  0  0  0  0  0  0  0  0
   -8.0130    2.4440    1.0090 C   0  0  0  0  0  0  0  0  0  0  0  0
   -8.6660    3.5180    0.2040 C   0  0  0  0  0  0  0  0  0  0  0  0
   -6.7110    2.0530    0.7690 C   0  0  0  0  0  0  0  0  0  0  0  0
   -4.3190    0.4710   -0.1410 C   0  0  0  0  0  0  0  0  0  0  0  0
    0.2820   -2.4560   -3.9170 C   0  0  0  0  0  0  0  0  0  0  0  0
   -0.2830   -3.0950   -3.0150 O   0  0  0  0  0  0  0  0  0  0  0  0
    4.3030   -0.5570   -1.3360 C   0  0  0  0  0  0  0  0  0  0  0  0
    5.0830    0.0370   -0.3930 C   0  0  0  0  0  0  0  0  0  0  0  0
    7.3460   -0.8150    2.3890 C   0  0  0  0  0  0  0  0  0  0  0  0
    8.1040   -0.2070    3.3600 C   0  0  0  0  0  0  0  0  0  0  0  0
    7.9500    1.1300    3.6830 C   0  0  0  0  0  0  0  0  0  0  0  0
    8.7750    1.7640    4.7330 C   0  0  0  0  0  0  0  0  0  0  0  0
  1  2  1  0
  2  3  1  0
  3  4  2  0
  3 47  1  0
  4  5  1  0
  5  6  1  0
  5 45  2  0
  6  7  2  0
  6 44  1  0
  7  8  1  0
  8  9  2  0
  9 10  1  0
  9 43  1  0
 10 11  1  0
 11 12  2  0
 11 13  1  0
 13 14  1  0
 14 15  1  0
 14 41  1  0
 15 16  1  0
 16 17  2  0
 16 18  1  0
 18 19  2  0
 18 20  1  0
 20 21  1  0
 20 41  1  0
 21 22  1  1
 21 23  1  0
 23 24  2  0
 23 25  1  0
 25 26  1  0
 26 27  2  0
 26 40  1  0
 27 28  1  0
 28 29  2  0
 29 30  1  0
 29 31  1  0
 31 32  1  0
 31 40  2  0
 32 33  2  0
 32 39  1  0
 33 34  1  0
 34 35  1  0
 34 36  2  0
 36 37  1  0
 37 38  1  0
 37 39  2  0
 41 42  2  0
 43 44  2  0
 45 46  1  0
 46 47  2  0
 47 48  1  0
M  END
