
     RDKit          3D

 47 51  0  0  0  0  0  0  0  0999 V2000
   -3.3640    6.9480   -3.2440 C   0  0  0  0  0  0  0  0  0  0  0  0
   -3.3120    5.8790   -2.2020 C   0  0  0  0  0  0  0  0  0  0  0  0
   -2.5690    4.7400   -2.4300 C   0  0  0  0  0  0  0  0  0  0  0  0
   -2.5070    3.7290   -1.4700 C   0  0  0  0  0  0  0  0  0  0  0  0
   -3.2000    3.8750   -0.2780 C   0  0  0  0  0  0  0  0  0  0  0  0
   -3.1950    2.8590    0.7900 C   0  0  0  0  0  0  0  0  0  0  0  0
   -2.3830    1.7020    0.4220 N   0  0  0  0  0  0  0  0  0  0  0  0
   -3.0220    0.5960   -0.2870 C   0  0  0  0  0  0  0  0  0  0  0  0
   -3.5620   -0.3720    0.7040 C   0  0  0  0  0  0  0  0  0  0  0  0
   -3.3830   -0.1100    1.9230 O   0  0  0  0  0  0  0  0  0  0  0  0
   -4.2620   -1.5600    0.2910 N   0  0  0  0  0  0  0  0  0  0  0  0
   -4.4130   -1.7320   -1.1280 C   0  0  0  0  0  0  0  0  0  0  0  0
   -5.6680   -1.1130   -1.6360 C   0  0  0  0  0  0  0  0  0  0  0  0
   -6.6040   -0.4340   -0.8160 N   0  0  0  0  0  0  0  0  0  0  0  0
   -5.9080   -1.1980   -2.8620 O   0  0  0  0  0  0  0  0  0  0  0  0
   -4.7460   -2.4470    1.2800 C   0  0  0  0  0  0  0  0  0  0  0  0
   -3.9040   -3.5670    1.7270 C   0  0  1  0  0  0  0  0  0  0  0  0
   -3.5340   -4.5570    0.6140 C   0  0  0  0  0  0  0  0  0  0  0  0
   -2.2020   -4.0170    0.2130 C   0  0  0  0  0  0  0  0  0  0  0  0
   -1.7950   -3.0700    1.1350 O   0  0  0  0  0  0  0  0  0  0  0  0
   -2.5490   -3.2070    2.2870 C   0  0  0  0  0  0  0  0  0  0  0  0
   -1.0090    1.7100    0.7770 C   0  0  0  0  0  0  0  0  0  0  0  0
   -0.5690    2.7090    1.3940 O   0  0  0  0  0  0  0  0  0  0  0  0
   -0.0980    0.6040    0.4480 C   0  0  0  0  0  0  0  0  0  0  0  0
    1.2900    0.8240    0.9250 C   0  0  2  0  0  0  0  0  0  0  0  0
    2.1150   -0.2800    0.5600 O   0  0  0  0  0  0  0  0  0  0  0  0
    1.9140   -1.5760    0.9810 C   0  0  0  0  0  0  0  0  0  0  0  0
    0.9510   -1.8170    1.7410 O   0  0  0  0  0  0  0  0  0  0  0  0
    2.8500   -2.6400    0.5170 C   0  0  0  0  0  0  0  0  0  0  0  0
    3.8580   -2.0740   -0.3460 N   0  0  0  0  0  0  0  0  0  0  0  0
    3.5660   -1.5480   -1.6630 C   0  0  0  0  0  0  0  0  0  0  0  0
    4.5160   -2.0270   -2.7070 C   0  0  2  0  0  0  0  0  0  0  0  0
    4.1430   -3.3410   -3.2240 N   0  0  0  0  0  0  0  0  0  0  0  0
    5.9430   -2.0650   -2.3040 C   0  0  0  0  0  0  0  0  0  0  0  0
    6.1950   -2.0150   -0.8610 C   0  0  0  0  0  0  0  0  0  0  0  0
    7.5040   -1.9610   -0.4310 C   0  0  0  0  0  0  0  0  0  0  0  0
    7.8120   -1.9140    0.9270 C   0  0  0  0  0  0  0  0  0  0  0  0
    6.8150   -1.9190    1.8640 C   0  0  0  0  0  0  0  0  0  0  0  0
    5.5000   -1.9730    1.4550 C   0  0  0  0  0  0  0  0  0  0  0  0
    5.2100   -2.0200    0.1020 C   0  0  0  0  0  0  0  0  0  0  0  0
    1.3600    1.0560    2.4210 C   0  0  0  0  0  0  0  0  0  0  0  0
    2.2400    2.2050    2.7920 C   0  0  0  0  0  0  0  0  0  0  0  0
    3.5640    2.1810    2.0710 C   0  0  0  0  0  0  0  0  0  0  0  0
    3.4220    1.9170    0.5880 C   0  0  0  0  0  0  0  0  0  0  0  0
    1.9230    2.0280    0.2650 C   0  0  0  0  0  0  0  0  0  0  0  0
   -3.9400    5.0200   -0.0640 C   0  0  0  0  0  0  0  0  0  0  0  0
   -4.0030    6.0240   -1.0130 C   0  0  0  0  0  0  0  0  0  0  0  0
  1  2  1  0
  2  3  2  0
  2 47  1  0
  3  4  1  0
  4  5  2  0
  5  6  1  0
  5 46  1  0
  6  7  1  0
  7  8  1  0
  7 22  1  0
  8  9  1  0
  9 10  2  0
  9 11  1  0
 11 12  1  0
 11 16  1  0
 12 13  1  0
 13 14  1  0
 13 15  2  0
 17 16  1  6
 17 18  1  0
 17 21  1  0
 18 19  1  0
 19 20  1  0
 20 21  1  0
 22 23  2  0
 22 24  1  0
 25 24  1  6
 25 26  1  0
 25 41  1  0
 25 45  1  0
 26 27  1  0
 27 28  2  0
 27 29  1  0
 29 30  1  0
 30 31  1  0
 30 40  1  0
 31 32  1  0
 32 33  1  1
 32 34  1  0
 34 35  1  0
 35 36  2  0
 35 40  1  0
 36 37  1  0
 37 38  2  0
 38 39  1  0
 39 40  2  0
 41 42  1  0
 42 43  1  0
 43 44  1  0
 44 45  1  0
 46 47  2  0
M  END
