
     RDKit          3D

 48 53  0  0  0  0  0  0  0  0999 V2000
   -3.9230    9.9600    2.3140 C   0  0  0  0  0  0  0  0  0  0  0  0
   -3.9650    8.4830    2.1160 C   0  0  0  0  0  0  0  0  0  0  0  0
   -2.6930    7.9010    2.0440 O   0  0  0  0  0  0  0  0  0  0  0  0
   -2.5760    6.5100    1.8770 C   0  0  0  0  0  0  0  0  0  0  0  0
   -3.6540    5.8890    1.8040 O   0  0  0  0  0  0  0  0  0  0  0  0
   -1.2600    5.8510    1.7990 C   0  0  0  0  0  0  0  0  0  0  0  0
   -1.4210    4.3930    1.5120 C   0  0  0  0  0  0  0  0  0  0  0  0
   -2.0240    4.1740    0.1650 C   0  0  0  0  0  0  0  0  0  0  0  0
   -2.2060    2.7170   -0.1270 C   0  0  0  0  0  0  0  0  0  0  0  0
   -3.4750    2.2060   -0.0420 C   0  0  0  0  0  0  0  0  0  0  0  0
   -3.7390    0.8660   -0.2800 C   0  0  0  0  0  0  0  0  0  0  0  0
   -2.6820    0.0600   -0.6050 C   0  0  0  0  0  0  0  0  0  0  0  0
   -2.9990   -1.3450   -0.8760 C   0  0  0  0  0  0  0  0  0  0  0  0
   -2.3030   -2.3110   -0.4750 O   0  0  0  0  0  0  0  0  0  0  0  0
   -4.1610   -1.6330   -1.6390 N   0  0  0  0  0  0  0  0  0  0  0  0
   -4.6320   -2.9350   -1.9990 C   0  0  0  0  0  0  0  0  0  0  0  0
   -5.3340   -3.5960   -0.8750 C   0  0  0  0  0  0  0  0  0  0  0  0
   -5.3530   -3.0350    0.3770 C   0  0  0  0  0  0  0  0  0  0  0  0
   -6.0140   -3.6200    1.4480 C   0  0  0  0  0  0  0  0  0  0  0  0
   -6.6810   -4.8230    1.2360 C   0  0  0  0  0  0  0  0  0  0  0  0
   -6.6640   -5.3900   -0.0190 C   0  0  0  0  0  0  0  0  0  0  0  0
   -6.0010   -4.7830   -1.0500 C   0  0  0  0  0  0  0  0  0  0  0  0
   -7.4650   -6.6530    0.0830 C   0  0  0  0  0  0  0  0  0  0  0  0
   -8.2150   -6.4860    1.3880 C   0  0  0  0  0  0  0  0  0  0  0  0
   -7.3990   -5.5900    2.1170 O   0  0  0  0  0  0  0  0  0  0  0  0
   -1.4030    0.5860   -0.6880 C   0  0  0  0  0  0  0  0  0  0  0  0
   -1.1120    1.9090   -0.4590 C   0  0  0  0  0  0  0  0  0  0  0  0
    0.1660    2.4510   -0.5970 N   0  0  0  0  0  0  0  0  0  0  0  0
    1.3870    1.7910   -0.7690 C   0  0  0  0  0  0  0  0  0  0  0  0
    1.3840    0.5470   -0.7910 O   0  0  0  0  0  0  0  0  0  0  0  0
    2.6200    2.4430   -0.9220 N   0  0  0  0  0  0  0  0  0  0  0  0
    3.8870    1.8340   -1.0900 C   0  0  0  0  0  0  0  0  0  0  0  0
    4.9460    2.5680   -1.6460 C   0  0  0  0  0  0  0  0  0  0  0  0
    6.2070    2.0760   -1.8290 C   0  0  0  0  0  0  0  0  0  0  0  0
    6.4960    0.7650   -1.4520 C   0  0  0  0  0  0  0  0  0  0  0  0
    7.7670    0.2550   -1.6220 C   0  0  0  0  0  0  0  0  0  0  0  0
    7.9990   -1.0460   -1.2210 C   0  0  0  0  0  0  0  0  0  0  0  0
    7.0180   -1.8270   -0.6710 C   0  0  0  0  0  0  0  0  0  0  0  0
    7.2640   -3.1550   -0.2560 N   0  0  0  0  0  0  0  0  0  0  0  0
    6.1600   -4.0590    0.0780 C   0  0  0  0  0  0  0  0  0  0  0  0
    6.8110   -5.3810    0.5320 C   0  0  0  0  0  0  0  0  0  0  0  0
    7.7060   -5.8680   -0.4760 N   0  0  0  0  0  0  0  0  0  0  0  0
    8.9050   -5.0720   -0.4830 C   0  0  0  0  0  0  0  0  0  0  0  0
    8.5750   -3.6740   -0.1320 C   0  0  0  0  0  0  0  0  0  0  0  0
    9.5290   -2.9310    0.2960 O   0  0  0  0  0  0  0  0  0  0  0  0
    5.7590   -1.2640   -0.5230 C   0  0  0  0  0  0  0  0  0  0  0  0
    5.4760    0.0270   -0.9070 C   0  0  0  0  0  0  0  0  0  0  0  0
    4.1850    0.5460   -0.7250 C   0  0  0  0  0  0  0  0  0  0  0  0
  1  2  1  0
  2  3  1  0
  3  4  1  0
  4  5  2  0
  4  6  1  0
  6  7  1  0
  7  8  1  0
  8  9  1  0
  9 10  2  0
  9 27  1  0
 10 11  1  0
 11 12  2  0
 12 13  1  0
 12 26  1  0
 13 14  2  0
 13 15  1  0
 15 16  1  0
 16 17  1  0
 17 18  2  0
 17 22  1  0
 18 19  1  0
 19 20  2  0
 20 21  1  0
 20 25  1  0
 21 22  2  0
 21 23  1  0
 23 24  1  0
 24 25  1  0
 26 27  2  0
 27 28  1  0
 28 29  1  0
 29 30  2  0
 29 31  1  0
 31 32  1  0
 32 33  2  0
 32 48  1  0
 33 34  1  0
 34 35  2  0
 35 36  1  0
 35 47  1  0
 36 37  2  0
 37 38  1  0
 38 39  1  0
 38 46  2  0
 39 40  1  0
 39 44  1  0
 40 41  1  0
 41 42  1  0
 42 43  1  0
 43 44  1  0
 44 45  2  0
 46 47  1  0
 47 48  2  0
M  END
