
     RDKit          3D

 48 52  0  0  0  0  0  0  0  0999 V2000
   -4.8460   -2.8550    0.9610 C   0  0  0  0  0  0  0  0  0  0  0  0
   -4.2800   -1.7730    0.0360 C   0  0  1  0  0  0  0  0  0  0  0  0
   -5.3050   -1.5320   -1.0470 C   0  0  0  0  0  0  0  0  0  0  0  0
   -3.9370   -0.5420    0.7950 C   0  0  1  0  0  0  0  0  0  0  0  0
   -3.3580    0.5640    0.0010 C   0  0  0  0  0  0  0  0  0  0  0  0
   -3.7860    1.7420    0.0560 O   0  0  0  0  0  0  0  0  0  0  0  0
   -2.2600    0.2820   -0.8500 N   0  0  0  0  0  0  0  0  0  0  0  0
   -1.5500    1.2290   -1.6320 C   0  0  1  0  0  0  0  0  0  0  0  0
   -2.3550    2.1590   -2.5120 C   0  0  0  0  0  0  0  0  0  0  0  0
   -3.1760    1.5230   -3.5450 C   0  0  0  0  0  0  0  0  0  0  0  0
   -2.6080    1.1460   -4.7650 C   0  0  0  0  0  0  0  0  0  0  0  0
   -3.3640    0.5860   -5.7780 C   0  0  0  0  0  0  0  0  0  0  0  0
   -4.7020    0.3790   -5.6240 C   0  0  0  0  0  0  0  0  0  0  0  0
   -5.2930    0.7430   -4.4250 C   0  0  0  0  0  0  0  0  0  0  0  0
   -4.5260    1.2970   -3.4310 C   0  0  0  0  0  0  0  0  0  0  0  0
   -0.7720    2.1160   -0.6910 C   0  0  0  0  0  0  0  0  0  0  0  0
    0.2090    1.5000    0.2090 C   0  0  2  0  0  0  0  0  0  0  0  0
    0.7000    2.6600    0.9870 O   0  0  0  0  0  0  0  0  0  0  0  0
    1.4880    0.9610   -0.3210 C   0  0  2  0  0  0  0  0  0  0  0  0
    1.5010   -0.3010   -1.0800 C   0  0  0  0  0  0  0  0  0  0  0  0
    2.9660   -0.5550   -1.4250 C   0  0  0  0  0  0  0  0  0  0  0  0
    3.5020   -0.0420   -2.5760 C   0  0  0  0  0  0  0  0  0  0  0  0
    4.8450   -0.2590   -2.9090 C   0  0  0  0  0  0  0  0  0  0  0  0
    5.6390   -1.0010   -2.0640 C   0  0  0  0  0  0  0  0  0  0  0  0
    5.1050   -1.5200   -0.9060 C   0  0  0  0  0  0  0  0  0  0  0  0
    3.7740   -1.2940   -0.5950 C   0  0  0  0  0  0  0  0  0  0  0  0
    2.3060    0.6820    0.9010 N   0  0  0  0  0  0  0  0  0  0  0  0
    3.3830    1.5310    1.2240 C   0  0  0  0  0  0  0  0  0  0  0  0
    3.6080    2.5020    0.4620 O   0  0  0  0  0  0  0  0  0  0  0  0
    4.1900    1.2510    2.4260 C   0  0  2  0  0  0  0  0  0  0  0  0
    5.6440    1.1060    2.1160 C   0  0  0  0  0  0  0  0  0  0  0  0
    5.9630   -0.2940    2.3470 N   0  0  0  0  0  0  0  0  0  0  0  0
    7.2300   -0.9270    2.1050 C   0  0  0  0  0  0  0  0  0  0  0  0
    7.5940   -2.1200    2.6740 C   0  0  0  0  0  0  0  0  0  0  0  0
    8.8250   -2.6950    2.4110 C   0  0  0  0  0  0  0  0  0  0  0  0
    9.6810   -2.0280    1.5530 C   0  0  0  0  0  0  0  0  0  0  0  0
    9.3240   -0.8300    0.9780 C   0  0  0  0  0  0  0  0  0  0  0  0
    8.0990   -0.2840    1.2560 C   0  0  0  0  0  0  0  0  0  0  0  0
    4.7970   -0.9150    2.8540 C   0  0  0  0  0  0  0  0  0  0  0  0
    4.6340   -2.1590    3.0780 O   0  0  0  0  0  0  0  0  0  0  0  0
    3.8200    0.0540    3.0820 O   0  0  0  0  0  0  0  0  0  0  0  0
   -4.9350   -0.1190    1.7400 N   0  0  0  0  0  0  0  0  0  0  0  0
   -4.6530   -0.1900    3.1850 C   0  0  0  0  0  0  0  0  0  0  0  0
   -5.8490    0.0640    4.0300 C   0  0  0  0  0  0  0  0  0  0  0  0
   -7.1270   -0.4980    3.4810 C   0  0  0  0  0  0  0  0  0  0  0  0
   -7.3620    0.1220    2.1860 N   0  0  0  0  0  0  0  0  0  0  0  0
   -6.2120    0.3800    1.3990 C   0  0  0  0  0  0  0  0  0  0  0  0
   -6.3370    1.0740    0.3670 O   0  0  0  0  0  0  0  0  0  0  0  0
  2  1  1  1
  2  3  1  0
  2  4  1  0
  4  5  1  0
  4 42  1  6
  5  6  2  0
  5  7  1  0
  7  8  1  0
  8  9  1  1
  8 16  1  0
  9 10  1  0
 10 11  2  0
 10 15  1  0
 11 12  1  0
 12 13  2  0
 13 14  1  0
 14 15  2  0
 16 17  1  0
 17 18  1  1
 17 19  1  0
 19 20  1  1
 19 27  1  0
 20 21  1  0
 21 22  2  0
 21 26  1  0
 22 23  1  0
 23 24  2  0
 24 25  1  0
 25 26  2  0
 27 28  1  0
 28 29  2  0
 30 28  1  6
 30 31  1  0
 30 41  1  0
 31 32  1  0
 32 33  1  0
 32 39  1  0
 33 34  2  0
 33 38  1  0
 34 35  1  0
 35 36  2  0
 36 37  1  0
 37 38  2  0
 39 40  2  0
 39 41  1  0
 42 43  1  0
 42 47  1  0
 43 44  1  0
 44 45  1  0
 45 46  1  0
 46 47  1  0
 47 48  2  0
M  END
