
     RDKit          3D

 48 53  0  0  0  0  0  0  0  0999 V2000
    6.5480    1.6730   -2.1100 C   0  0  0  0  0  0  0  0  0  0  0  0
    6.2470    0.3280   -2.6940 C   0  0  0  0  0  0  0  0  0  0  0  0
    4.8490   -0.1190   -2.5870 C   0  0  0  0  0  0  0  0  0  0  0  0
    4.2690   -0.3020   -1.2230 C   0  0  2  0  0  0  0  0  0  0  0  0
    2.8220   -0.7960   -1.4900 C   0  0  0  0  0  0  0  0  0  0  0  0
    2.5020   -1.0580   -2.6500 O   0  0  0  0  0  0  0  0  0  0  0  0
    1.9290   -0.9310   -0.4100 N   0  0  0  0  0  0  0  0  0  0  0  0
    0.5500   -1.4070   -0.6070 C   0  0  0  0  0  0  0  0  0  0  0  0
   -0.0960   -1.3950    0.7650 C   0  0  1  0  0  0  0  0  0  0  0  0
   -0.2590    0.0470    1.2510 C   0  0  0  0  0  0  0  0  0  0  0  0
   -1.5610    0.3860    0.6190 C   0  0  0  0  0  0  0  0  0  0  0  0
   -2.0810    1.6180    0.5400 C   0  0  0  0  0  0  0  0  0  0  0  0
   -1.4020    2.7800    1.0800 C   0  0  0  0  0  0  0  0  0  0  0  0
   -0.2700    2.6970    1.6570 O   0  0  0  0  0  0  0  0  0  0  0  0
   -1.9450    4.0530    1.0020 O   0  0  0  0  0  0  0  0  0  0  0  0
   -1.2670    5.1420    1.5240 C   0  0  0  0  0  0  0  0  0  0  0  0
   -1.3110    5.5450    2.8370 C   0  0  0  0  0  0  0  0  0  0  0  0
   -0.5960    6.6550    3.2720 C   0  0  0  0  0  0  0  0  0  0  0  0
    0.1880    7.3980    2.4040 C   0  0  0  0  0  0  0  0  0  0  0  0
    0.2300    6.9910    1.0870 C   0  0  0  0  0  0  0  0  0  0  0  0
   -0.4770    5.8940    0.6580 C   0  0  0  0  0  0  0  0  0  0  0  0
   -2.1240   -0.8530    0.1130 C   0  0  2  0  0  0  0  0  0  0  0  0
   -3.5830   -1.0010    0.3550 C   0  0  0  0  0  0  0  0  0  0  0  0
   -4.3480   -0.1480   -0.1600 O   0  0  0  0  0  0  0  0  0  0  0  0
   -4.1370   -2.0350    1.1230 N   0  0  0  0  0  0  0  0  0  0  0  0
   -5.5470   -2.1970    1.3680 C   0  0  0  0  0  0  0  0  0  0  0  0
   -6.1880   -2.7860    0.1480 C   0  0  0  0  0  0  0  0  0  0  0  0
   -6.8500   -2.0340   -0.7960 C   0  0  0  0  0  0  0  0  0  0  0  0
   -7.4280   -2.6420   -1.9020 C   0  0  0  0  0  0  0  0  0  0  0  0
   -7.3700   -4.0070   -2.1070 C   0  0  0  0  0  0  0  0  0  0  0  0
   -6.7130   -4.7710   -1.1740 C   0  0  0  0  0  0  0  0  0  0  0  0
   -6.1310   -4.1490   -0.0590 C   0  0  0  0  0  0  0  0  0  0  0  0
   -6.7720   -6.1910   -1.6020 C   0  0  0  0  0  0  0  0  0  0  0  0
   -7.9490   -6.2330   -2.5270 C   0  0  0  0  0  0  0  0  0  0  0  0
   -7.9230   -4.8690   -3.2050 C   0  0  0  0  0  0  0  0  0  0  0  0
   -1.3900   -1.8630    0.6450 O   0  0  0  0  0  0  0  0  0  0  0  0
    4.1320    0.9100   -0.4740 N   0  0  0  0  0  0  0  0  0  0  0  0
    4.7930    1.3350    0.5840 C   0  0  0  0  0  0  0  0  0  0  0  0
    5.8750    0.7830    1.3620 C   0  0  0  0  0  0  0  0  0  0  0  0
    6.1690    1.3680    2.6030 C   0  0  0  0  0  0  0  0  0  0  0  0
    7.1940    0.9340    3.4020 C   0  0  0  0  0  0  0  0  0  0  0  0
    8.0050   -0.1120    3.0290 C   0  0  0  0  0  0  0  0  0  0  0  0
    7.7400   -0.7030    1.8190 C   0  0  0  0  0  0  0  0  0  0  0  0
    6.6870   -0.2520    1.0050 C   0  0  0  0  0  0  0  0  0  0  0  0
    4.1980    2.5350    0.9170 N   0  0  0  0  0  0  0  0  0  0  0  0
    3.2230    2.8170    0.0950 N   0  0  0  0  0  0  0  0  0  0  0  0
    3.1510    1.8190   -0.7940 C   0  0  0  0  0  0  0  0  0  0  0  0
    2.3360    1.7190   -1.7550 O   0  0  0  0  0  0  0  0  0  0  0  0
  1  2  1  0
  2  3  1  0
  4  3  1  6
  4  5  1  0
  4 37  1  0
  5  6  2  0
  5  7  1  0
  7  8  1  0
  9  8  1  6
  9 10  1  0
  9 36  1  0
 10 11  1  0
 11 12  2  3
 11 22  1  0
 12 13  1  0
 13 14  2  0
 13 15  1  0
 15 16  1  0
 16 17  2  0
 16 21  1  0
 17 18  1  0
 18 19  2  0
 19 20  1  0
 20 21  2  0
 22 23  1  1
 22 36  1  0
 23 24  2  0
 23 25  1  0
 25 26  1  0
 26 27  1  0
 27 28  2  0
 27 32  1  0
 28 29  1  0
 29 30  2  0
 30 31  1  0
 30 35  1  0
 31 32  2  0
 31 33  1  0
 33 34  1  0
 34 35  1  0
 37 38  1  0
 37 47  1  0
 38 39  1  0
 38 45  2  0
 39 40  2  0
 39 44  1  0
 40 41  1  0
 41 42  2  0
 42 43  1  0
 43 44  2  0
 45 46  1  0
 46 47  1  0
 47 48  2  0
M  END
