
     RDKit          3D

 48 52  0  0  0  0  0  0  0  0999 V2000
    4.2850    5.1550    1.4220 C   0  0  0  0  0  0  0  0  0  0  0  0
    2.8930    4.6710    1.1450 C   0  0  0  0  0  0  0  0  0  0  0  0
    1.8160    5.3390    1.6680 C   0  0  0  0  0  0  0  0  0  0  0  0
    0.5570    4.8540    1.3660 C   0  0  0  0  0  0  0  0  0  0  0  0
    0.3770    3.7240    0.5590 C   0  0  0  0  0  0  0  0  0  0  0  0
    1.4430    3.0500    0.0340 C   0  0  0  0  0  0  0  0  0  0  0  0
    2.7040    3.5770    0.3640 C   0  0  0  0  0  0  0  0  0  0  0  0
    1.3680    1.8450   -0.8250 C   0  0  1  0  0  0  0  0  0  0  0  0
    2.3080    0.7770   -0.4600 C   0  0  0  0  0  0  0  0  0  0  0  0
    2.9650    0.2000   -1.3680 O   0  0  0  0  0  0  0  0  0  0  0  0
    2.5290    0.3520    0.8720 N   0  0  0  0  0  0  0  0  0  0  0  0
    3.4000   -0.6600    1.3050 C   0  0  0  0  0  0  0  0  0  0  0  0
    3.5740   -0.7840    2.6940 C   0  0  0  0  0  0  0  0  0  0  0  0
    4.3840   -1.7400    3.2620 C   0  0  0  0  0  0  0  0  0  0  0  0
    5.0670   -2.6280    2.4550 C   0  0  0  0  0  0  0  0  0  0  0  0
    5.9390   -3.6580    3.1060 C   0  0  0  0  0  0  0  0  0  0  0  0
    4.9170   -2.5300    1.0970 C   0  0  0  0  0  0  0  0  0  0  0  0
    5.6610   -3.4910    0.2380 C   0  0  0  0  0  0  0  0  0  0  0  0
    4.0920   -1.5540    0.5470 C   0  0  0  0  0  0  0  0  0  0  0  0
   -0.0060    1.4670   -1.1510 C   0  0  0  0  0  0  0  0  0  0  0  0
   -0.2970    0.4850   -1.9900 C   0  0  0  0  0  0  0  0  0  0  0  0
   -1.5820    0.0150   -2.4070 C   0  0  0  0  0  0  0  0  0  0  0  0
   -1.9550    0.3850   -3.7350 C   0  0  0  0  0  0  0  0  0  0  0  0
   -3.1140   -0.0080   -4.3250 C   0  0  0  0  0  0  0  0  0  0  0  0
   -3.4330    0.4260   -5.7240 C   0  0  0  0  0  0  0  0  0  0  0  0
   -3.9660   -0.8010   -3.6060 C   0  0  0  0  0  0  0  0  0  0  0  0
   -5.2380   -1.2460   -4.1930 C   0  0  0  0  0  0  0  0  0  0  0  0
   -5.0890   -2.3260   -5.2000 C   0  0  0  0  0  0  0  0  0  0  0  0
   -6.2400   -2.8550   -5.8430 N   0  0  0  0  0  0  0  0  0  0  0  0
   -3.9460   -2.7960   -5.5070 O   0  0  0  0  0  0  0  0  0  0  0  0
   -3.6170   -1.1740   -2.3060 C   0  0  0  0  0  0  0  0  0  0  0  0
   -2.4200   -0.7680   -1.6960 C   0  0  0  0  0  0  0  0  0  0  0  0
   -2.1440   -1.1450   -0.3580 N   0  0  0  0  0  0  0  0  0  0  0  0
   -2.7630   -2.1680    0.3720 C   0  0  0  0  0  0  0  0  0  0  0  0
   -3.6520   -2.8720   -0.2320 O   0  0  0  0  0  0  0  0  0  0  0  0
   -2.5050   -2.5440    1.8090 C   0  0  1  0  0  0  0  0  0  0  0  0
   -1.8050   -3.8840    1.8220 C   0  0  0  0  0  0  0  0  0  0  0  0
   -1.8220   -1.5500    2.5670 N   0  0  0  0  0  0  0  0  0  0  0  0
   -2.3500   -0.8240    3.7070 C   0  0  0  0  0  0  0  0  0  0  0  0
   -3.3360   -1.2140    4.4090 O   0  0  0  0  0  0  0  0  0  0  0  0
   -1.5590    0.4160    3.8970 C   0  0  0  0  0  0  0  0  0  0  0  0
   -0.3660    0.2320    3.0050 C   0  0  0  0  0  0  0  0  0  0  0  0
   -0.4890   -1.1030    2.3860 C   0  0  0  0  0  0  0  0  0  0  0  0
    0.4150   -1.7350    1.8060 O   0  0  0  0  0  0  0  0  0  0  0  0
   -1.1240    2.1950   -0.5770 C   0  0  0  0  0  0  0  0  0  0  0  0
   -2.3460    1.8900   -0.7880 O   0  0  0  0  0  0  0  0  0  0  0  0
   -0.9430    3.3200    0.2740 N   0  0  0  0  0  0  0  0  0  0  0  0
   -2.0740    4.0430    0.8380 C   0  0  0  0  0  0  0  0  0  0  0  0
  1  2  1  0
  2  3  2  0
  2  7  1  0
  3  4  1  0
  4  5  2  0
  5  6  1  0
  5 47  1  0
  6  7  2  0
  6  8  1  0
  8  9  1  1
  8 20  1  0
  9 10  2  0
  9 11  1  0
 11 12  1  0
 12 13  2  0
 12 19  1  0
 13 14  1  0
 14 15  2  0
 15 16  1  0
 15 17  1  0
 17 18  1  0
 17 19  2  0
 20 21  2  3
 20 45  1  0
 21 22  1  0
 22 23  2  0
 22 32  1  0
 23 24  1  0
 24 25  1  0
 24 26  2  0
 26 27  1  0
 26 31  1  0
 27 28  1  0
 28 29  1  0
 28 30  2  0
 31 32  2  0
 32 33  1  0
 33 34  1  0
 34 35  2  0
 34 36  1  0
 36 37  1  6
 36 38  1  0
 38 39  1  0
 38 43  1  0
 39 40  2  0
 39 41  1  0
 41 42  1  0
 42 43  1  0
 43 44  2  0
 45 46  2  0
 45 47  1  0
 47 48  1  0
M  END
