
     RDKit          3D

 47 51  0  0  0  0  0  0  0  0999 V2000
   -4.3810   -1.8980   -1.5610 C   0  0  0  0  0  0  0  0  0  0  0  0
   -5.6990   -1.5850   -0.9410 C   0  0  0  0  0  0  0  0  0  0  0  0
   -6.8960   -2.1720   -1.2690 N   0  0  0  0  0  0  0  0  0  0  0  0
   -7.8640   -1.6310   -0.5040 C   0  0  0  0  0  0  0  0  0  0  0  0
   -9.3160   -2.0020   -0.5580 C   0  0  0  0  0  0  0  0  0  0  0  0
   -7.2850   -0.6910    0.3200 C   0  0  0  0  0  0  0  0  0  0  0  0
   -7.9780    0.1320    1.2970 C   0  0  0  0  0  0  0  0  0  0  0  0
   -8.6780    1.2720    0.9250 C   0  0  0  0  0  0  0  0  0  0  0  0
   -9.3460    2.0860    1.8050 C   0  0  0  0  0  0  0  0  0  0  0  0
   -9.3400    1.7750    3.1550 C   0  0  0  0  0  0  0  0  0  0  0  0
   -8.6500    0.6470    3.5440 C   0  0  0  0  0  0  0  0  0  0  0  0
   -7.9790   -0.1670    2.6420 C   0  0  0  0  0  0  0  0  0  0  0  0
   -5.9030   -0.6570    0.0450 C   0  0  0  0  0  0  0  0  0  0  0  0
   -5.0380    0.2470    0.7690 C   0  0  0  0  0  0  0  0  0  0  0  0
   -4.8180    1.3940    0.3590 O   0  0  0  0  0  0  0  0  0  0  0  0
   -4.4390   -0.1540    1.9510 O   0  0  0  0  0  0  0  0  0  0  0  0
   -3.6270    0.5680    2.7860 C   0  0  0  0  0  0  0  0  0  0  0  0
   -2.3410    1.0910    2.3790 C   0  0  0  0  0  0  0  0  0  0  0  0
   -1.8800    1.9890    3.2540 O   0  0  0  0  0  0  0  0  0  0  0  0
   -1.5220    0.8370    1.2780 N   0  0  0  0  0  0  0  0  0  0  0  0
   -0.2480    1.5510    0.9540 C   0  0  0  0  0  0  0  0  0  0  0  0
   -0.4370    1.8780   -0.5400 C   0  0  0  0  0  0  0  0  0  0  0  0
   -1.3640    0.7870   -0.9880 C   0  0  1  0  0  0  0  0  0  0  0  0
   -0.8830    0.0620   -2.1870 C   0  0  0  0  0  0  0  0  0  0  0  0
   -1.6690    0.0220   -3.1490 O   0  0  0  0  0  0  0  0  0  0  0  0
    0.3860   -0.5490   -2.2450 N   0  0  0  0  0  0  0  0  0  0  0  0
    0.8670   -1.2500   -3.3580 C   0  0  0  0  0  0  0  0  0  0  0  0
    0.0410   -1.6990   -4.3650 C   0  0  0  0  0  0  0  0  0  0  0  0
    0.5520   -2.4520   -5.4320 C   0  0  0  0  0  0  0  0  0  0  0  0
    1.8780   -2.7470   -5.4820 C   0  0  0  0  0  0  0  0  0  0  0  0
    2.7180   -2.2880   -4.4550 C   0  0  0  0  0  0  0  0  0  0  0  0
    2.2500   -1.5470   -3.3940 C   0  0  0  0  0  0  0  0  0  0  0  0
    3.0630   -1.0370   -2.3760 N   0  0  0  0  0  0  0  0  0  0  0  0
    4.4480   -1.2670   -2.2120 C   0  0  0  0  0  0  0  0  0  0  0  0
    5.0550   -1.9880   -3.0300 O   0  0  0  0  0  0  0  0  0  0  0  0
    5.2170   -0.6610   -1.0710 C   0  0  2  0  0  0  0  0  0  0  0  0
    5.0290    0.8120   -0.9550 C   0  0  0  0  0  0  0  0  0  0  0  0
    6.1820    1.4240   -0.2930 N   0  0  0  0  0  0  0  0  0  0  0  0
    6.3490    0.9280    1.0430 C   0  0  0  0  0  0  0  0  0  0  0  0
    7.3990    1.6710    1.7810 C   0  0  0  0  0  0  0  0  0  0  0  0
    7.6010    1.1560    3.1980 C   0  0  2  0  0  0  0  0  0  0  0  0
    8.6790    1.9370    3.9080 C   0  0  0  0  0  0  0  0  0  0  0  0
    7.9350   -0.2980    3.2300 C   0  0  0  0  0  0  0  0  0  0  0  0
    7.3800    1.2330   -1.0480 C   0  0  0  0  0  0  0  0  0  0  0  0
    7.2350   -0.0050   -1.9380 C   0  0  0  0  0  0  0  0  0  0  0  0
    6.5850   -1.0010   -1.1990 O   0  0  0  0  0  0  0  0  0  0  0  0
   -1.5860   -0.1280    0.2130 C   0  0  0  0  0  0  0  0  0  0  0  0
  1  2  1  0
  2  3  1  0
  2 13  2  0
  3  4  1  0
  4  5  1  0
  4  6  2  0
  6  7  1  0
  6 13  1  0
  7  8  2  0
  7 12  1  0
  8  9  1  0
  9 10  2  0
 10 11  1  0
 11 12  2  0
 13 14  1  0
 14 15  2  0
 14 16  1  0
 16 17  1  0
 17 18  1  0
 18 19  2  0
 18 20  1  0
 20 21  1  0
 20 47  1  0
 21 22  1  0
 22 23  1  0
 23 24  1  6
 23 47  1  0
 24 25  2  0
 24 26  1  0
 26 27  1  0
 27 28  2  0
 27 32  1  0
 28 29  1  0
 29 30  2  0
 30 31  1  0
 31 32  2  0
 32 33  1  0
 33 34  1  0
 34 35  2  0
 36 34  1  6
 36 37  1  0
 36 46  1  0
 37 38  1  0
 38 39  1  0
 38 44  1  0
 39 40  1  0
 40 41  1  0
 41 42  1  6
 41 43  1  0
 44 45  1  0
 45 46  1  0
M  END
