
     RDKit          3D

 47 50  0  0  0  0  0  0  0  0999 V2000
   -4.9480    6.3400    0.9130 C   0  0  0  0  0  0  0  0  0  0  0  0
   -5.8220    5.3960    0.6470 C   0  0  0  0  0  0  0  0  0  0  0  0
   -6.2220    5.0970   -0.7350 C   0  0  0  0  0  0  0  0  0  0  0  0
   -5.8890    3.6840   -1.0670 N   0  0  0  0  0  0  0  0  0  0  0  0
   -4.5840    3.2230   -1.0100 C   0  0  0  0  0  0  0  0  0  0  0  0
   -3.7160    4.1200   -0.6530 O   0  0  0  0  0  0  0  0  0  0  0  0
   -4.0530    1.8820   -1.2930 C   0  0  0  0  0  0  0  0  0  0  0  0
   -2.5950    1.7230   -0.9510 C   0  0  0  0  0  0  0  0  0  0  0  0
   -2.0270    2.8130   -0.7240 O   0  0  0  0  0  0  0  0  0  0  0  0
   -1.8670    0.5720   -0.8610 N   0  0  0  0  0  0  0  0  0  0  0  0
   -0.5560    0.1700   -0.6590 C   0  0  0  0  0  0  0  0  0  0  0  0
    0.4960    0.9480   -0.5400 C   0  0  0  0  0  0  0  0  0  0  0  0
    0.4050    2.4070   -0.6400 C   0  0  0  0  0  0  0  0  0  0  0  0
    1.0890    3.2320    0.1130 C   0  0  0  0  0  0  0  0  0  0  0  0
    1.9880    2.6280    1.0750 N   0  0  0  0  0  0  0  0  0  0  0  0
    2.7750    3.4290    2.0000 C   0  0  0  0  0  0  0  0  0  0  0  0
    2.0990    1.2170    1.1470 C   0  0  0  0  0  0  0  0  0  0  0  0
    2.3410    0.5970    2.1720 O   0  0  0  0  0  0  0  0  0  0  0  0
    1.8900    0.5060   -0.1780 C   0  0  1  0  0  0  0  0  0  0  0  0
    2.1010   -0.9520   -0.1180 C   0  0  1  0  0  0  0  0  0  0  0  0
    2.7400   -1.3640    1.0770 O   0  0  0  0  0  0  0  0  0  0  0  0
    4.0750   -1.5730    1.2550 C   0  0  0  0  0  0  0  0  0  0  0  0
    4.4940   -2.0610    2.4830 C   0  0  0  0  0  0  0  0  0  0  0  0
    5.8310   -2.3040    2.7690 C   0  0  0  0  0  0  0  0  0  0  0  0
    6.7750   -2.0390    1.7650 C   0  0  0  0  0  0  0  0  0  0  0  0
    8.2020   -2.3110    2.0880 C   0  0  0  0  0  0  0  0  0  0  0  0
    6.3830   -1.5550    0.5400 C   0  0  0  0  0  0  0  0  0  0  0  0
    7.3770   -1.2590   -0.4750 C   0  0  0  0  0  0  0  0  0  0  0  0
    7.0410   -0.8130   -1.6080 O   0  0  0  0  0  0  0  0  0  0  0  0
    8.7410   -1.4330   -0.2900 O   0  0  0  0  0  0  0  0  0  0  0  0
    9.6940   -1.1200   -1.3200 C   0  0  0  0  0  0  0  0  0  0  0  0
   11.0630   -1.4570   -0.7380 C   0  0  0  0  0  0  0  0  0  0  0  0
    5.0370   -1.3300    0.3060 C   0  0  0  0  0  0  0  0  0  0  0  0
    0.8710   -1.7320   -0.2750 C   0  0  0  0  0  0  0  0  0  0  0  0
   -0.3240   -1.3020   -0.5110 C   0  0  0  0  0  0  0  0  0  0  0  0
   -1.4600   -2.2280   -0.6350 C   0  0  0  0  0  0  0  0  0  0  0  0
   -4.7670    0.8980   -1.6600 C   0  0  0  0  0  0  0  0  0  0  0  0
   -6.2050    1.0210   -1.8190 N   0  0  0  0  0  0  0  0  0  0  0  0
   -4.3430   -0.3870   -2.0940 N   0  0  0  0  0  0  0  0  0  0  0  0
   -4.9260   -1.6390   -1.8620 C   0  0  0  0  0  0  0  0  0  0  0  0
   -5.1790   -1.9950   -0.4690 C   0  0  0  0  0  0  0  0  0  0  0  0
   -4.8940   -1.1870    0.5900 C   0  0  0  0  0  0  0  0  0  0  0  0
   -5.1880   -1.6170    1.8980 C   0  0  0  0  0  0  0  0  0  0  0  0
   -5.7620   -2.8490    2.1210 C   0  0  0  0  0  0  0  0  0  0  0  0
   -6.0380   -3.6440    1.0400 C   0  0  0  0  0  0  0  0  0  0  0  0
   -5.7610   -3.2470   -0.2400 C   0  0  0  0  0  0  0  0  0  0  0  0
   -6.0530   -4.0970   -1.4210 C   0  0  0  0  0  0  0  0  0  0  0  0
  1  2  2  0
  2  3  1  0
  3  4  1  0
  4  5  1  0
  5  6  2  0
  5  7  1  0
  7  8  1  0
  7 37  2  3
  8  9  2  0
  8 10  1  0
 10 11  1  0
 11 12  2  0
 11 35  1  0
 12 13  1  0
 12 19  1  0
 13 14  2  0
 14 15  1  0
 15 16  1  0
 15 17  1  0
 17 18  2  0
 19 17  1  1
 19 20  1  0
 20 21  1  1
 20 34  1  0
 21 22  1  0
 22 23  2  0
 22 33  1  0
 23 24  1  0
 24 25  2  0
 25 26  1  0
 25 27  1  0
 27 28  1  0
 27 33  2  0
 28 29  2  0
 28 30  1  0
 30 31  1  0
 31 32  1  0
 34 35  2  0
 35 36  1  0
 37 38  1  0
 37 39  1  0
 39 40  1  0
 40 41  1  0
 41 42  2  0
 41 46  1  0
 42 43  1  0
 43 44  2  0
 44 45  1  0
 45 46  2  0
 46 47  1  0
M  END
