
     RDKit          3D

 46 49  0  0  0  0  0  0  0  0999 V2000
    6.4110   -0.2600    0.7540 C   0  0  0  0  0  0  0  0  0  0  0  0
    6.2590    1.0210    1.5100 C   0  0  0  0  0  0  0  0  0  0  0  0
    7.1880    1.3110    2.5120 C   0  0  0  0  0  0  0  0  0  0  0  0
    7.1090    2.4870    3.2250 C   0  0  0  0  0  0  0  0  0  0  0  0
    6.1140    3.3680    2.9410 C   0  0  0  0  0  0  0  0  0  0  0  0
    5.1790    3.1360    1.9680 C   0  0  0  0  0  0  0  0  0  0  0  0
    4.1060    4.1520    1.7010 C   0  0  0  0  0  0  0  0  0  0  0  0
    5.2620    1.9380    1.2470 C   0  0  0  0  0  0  0  0  0  0  0  0
    4.3690    1.6820    0.3010 O   0  0  0  0  0  0  0  0  0  0  0  0
    3.2520    1.2520   -0.1910 C   0  0  0  0  0  0  0  0  0  0  0  0
    2.8210   -0.1760    0.0100 C   0  0  0  0  0  0  0  0  0  0  0  0
    3.3170   -0.9390    0.8640 O   0  0  0  0  0  0  0  0  0  0  0  0
    1.7780   -0.7170   -0.8270 N   0  0  0  0  0  0  0  0  0  0  0  0
    1.2590   -2.0270   -0.7820 C   0  0  1  0  0  0  0  0  0  0  0  0
    2.0840   -3.2220   -0.9290 C   0  0  0  0  0  0  0  0  0  0  0  0
    3.1720   -3.5740   -0.0620 C   0  0  0  0  0  0  0  0  0  0  0  0
    2.9580   -4.1360    1.1760 C   0  0  0  0  0  0  0  0  0  0  0  0
    4.0090   -4.5340    1.9500 C   0  0  0  0  0  0  0  0  0  0  0  0
    5.3320   -4.3850    1.5090 C   0  0  0  0  0  0  0  0  0  0  0  0
    5.5690   -3.8250    0.2730 C   0  0  0  0  0  0  0  0  0  0  0  0
    4.4770   -3.4320   -0.4840 C   0  0  0  0  0  0  0  0  0  0  0  0
    0.1190   -2.1900    0.2290 C   0  0  1  0  0  0  0  0  0  0  0  0
    0.5110   -1.8580    1.5220 O   0  0  0  0  0  0  0  0  0  0  0  0
   -1.0150   -1.3310   -0.1850 C   0  0  0  0  0  0  0  0  0  0  0  0
   -2.2300   -1.3550    0.6750 C   0  0  2  0  0  0  0  0  0  0  0  0
   -2.9340   -2.6450    0.8370 C   0  0  0  0  0  0  0  0  0  0  0  0
   -3.4600   -3.1980   -0.4450 C   0  0  0  0  0  0  0  0  0  0  0  0
   -2.7430   -3.9850   -1.3100 C   0  0  0  0  0  0  0  0  0  0  0  0
   -3.2960   -4.4420   -2.4880 C   0  0  0  0  0  0  0  0  0  0  0  0
   -4.5830   -4.1420   -2.8640 C   0  0  0  0  0  0  0  0  0  0  0  0
   -5.3110   -3.3570   -2.0070 C   0  0  0  0  0  0  0  0  0  0  0  0
   -4.7760   -2.9040   -0.8480 C   0  0  0  0  0  0  0  0  0  0  0  0
   -3.1690   -0.4090    0.0330 N   0  0  0  0  0  0  0  0  0  0  0  0
   -3.2980    0.9260    0.4770 C   0  0  0  0  0  0  0  0  0  0  0  0
   -2.5720    1.3050    1.4290 O   0  0  0  0  0  0  0  0  0  0  0  0
   -4.2560    1.8780   -0.1490 C   0  0  2  0  0  0  0  0  0  0  0  0
   -4.8560    1.4450   -1.4360 C   0  0  1  0  0  0  0  0  0  0  0  0
   -3.8610    1.1490   -2.5250 C   0  0  0  0  0  0  0  0  0  0  0  0
   -5.8840    0.3490   -1.2650 C   0  0  0  0  0  0  0  0  0  0  0  0
   -3.7950    3.2280   -0.0620 N   0  0  0  0  0  0  0  0  0  0  0  0
   -2.7040    3.7240   -0.8880 C   0  0  0  0  0  0  0  0  0  0  0  0
   -2.4460    5.1730   -0.7490 C   0  0  0  0  0  0  0  0  0  0  0  0
   -3.6520    6.0360   -0.5090 C   0  0  0  0  0  0  0  0  0  0  0  0
   -4.2980    5.5600    0.6980 N   0  0  0  0  0  0  0  0  0  0  0  0
   -4.4160    4.1310    0.8490 C   0  0  0  0  0  0  0  0  0  0  0  0
   -5.0970    3.7260    1.8320 O   0  0  0  0  0  0  0  0  0  0  0  0
  1  2  1  0
  2  3  2  0
  2  8  1  0
  3  4  1  0
  4  5  2  0
  5  6  1  0
  6  7  1  0
  6  8  2  0
  8  9  1  0
  9 10  1  0
 10 11  1  0
 11 12  2  0
 11 13  1  0
 13 14  1  0
 14 15  1  1
 14 22  1  0
 15 16  1  0
 16 17  2  0
 16 21  1  0
 17 18  1  0
 18 19  2  0
 19 20  1  0
 20 21  2  0
 22 23  1  1
 22 24  1  0
 25 24  1  6
 25 26  1  0
 25 33  1  0
 26 27  1  0
 27 28  2  0
 27 32  1  0
 28 29  1  0
 29 30  2  0
 30 31  1  0
 31 32  2  0
 33 34  1  0
 34 35  2  0
 34 36  1  0
 36 37  1  0
 36 40  1  6
 37 38  1  6
 37 39  1  0
 40 41  1  0
 40 45  1  0
 41 42  1  0
 42 43  1  0
 43 44  1  0
 44 45  1  0
 45 46  2  0
M  END
