
     RDKit          3D

 46 49  0  0  0  0  0  0  0  0999 V2000
    4.3640    4.0650    0.8120 C   0  0  0  0  0  0  0  0  0  0  0  0
    5.4750    3.5070    1.1950 C   0  0  0  0  0  0  0  0  0  0  0  0
    6.3440    4.4770    1.8220 O   0  0  0  0  0  0  0  0  0  0  0  0
    5.9740    2.1720    1.1050 C   0  0  0  0  0  0  0  0  0  0  0  0
    5.4070    0.9430    0.6990 C   0  0  0  0  0  0  0  0  0  0  0  0
    4.3330    0.5130   -0.0170 C   0  0  0  0  0  0  0  0  0  0  0  0
    4.1720   -0.9350   -0.1110 C   0  0  0  0  0  0  0  0  0  0  0  0
    3.2270   -1.8440   -0.1970 C   0  0  0  0  0  0  0  0  0  0  0  0
    3.5660   -3.1940   -0.2620 C   0  0  0  0  0  0  0  0  0  0  0  0
    3.8200   -4.4430   -0.3260 C   0  0  0  0  0  0  0  0  0  0  0  0
    5.3090   -4.8820   -0.2690 C   0  0  0  0  0  0  0  0  0  0  0  0
    1.7480   -1.4610   -0.2270 C   0  0  1  0  0  0  0  0  0  0  0  0
    1.2040   -1.6730   -1.4400 O   0  0  0  0  0  0  0  0  0  0  0  0
    1.0610   -2.2590    0.8560 C   0  0  0  0  0  0  0  0  0  0  0  0
    0.0550   -3.0740    0.7860 C   0  0  0  0  0  0  0  0  0  0  0  0
   -0.7770   -3.5160   -0.3130 C   0  0  0  0  0  0  0  0  0  0  0  0
   -0.4000   -4.6650   -0.8570 O   0  0  0  0  0  0  0  0  0  0  0  0
   -1.9470   -2.9080   -0.9130 N   0  0  0  0  0  0  0  0  0  0  0  0
   -3.2740   -2.8520   -0.4280 C   0  0  2  0  0  0  0  0  0  0  0  0
   -4.1960   -3.5660   -1.3870 C   0  0  0  0  0  0  0  0  0  0  0  0
   -5.4030   -2.6890   -1.5070 C   0  0  0  0  0  0  0  0  0  0  0  0
   -5.3630   -1.8370   -0.2670 C   0  0  1  0  0  0  0  0  0  0  0  0
   -5.7040   -2.6660    0.7800 O   0  0  0  0  0  0  0  0  0  0  0  0
   -5.2140   -2.3300    1.9980 C   0  0  0  0  0  0  0  0  0  0  0  0
   -4.3740   -1.1220    2.1190 C   0  0  0  0  0  0  0  0  0  0  0  0
   -3.5030   -0.8460    0.9820 N   0  0  0  0  0  0  0  0  0  0  0  0
   -2.3980   -0.0880    1.1680 C   0  0  0  0  0  0  0  0  0  0  0  0
   -1.5160   -0.5990    2.0110 O   0  0  0  0  0  0  0  0  0  0  0  0
   -1.9120    1.2510    0.6270 C   0  0  2  0  0  0  0  0  0  0  0  0
   -2.6950    1.7840   -0.3530 O   0  0  0  0  0  0  0  0  0  0  0  0
   -3.9060    2.3560   -0.4040 C   0  0  0  0  0  0  0  0  0  0  0  0
   -4.8130    2.4020    0.6290 C   0  0  0  0  0  0  0  0  0  0  0  0
   -6.0270    3.0070    0.4870 C   0  0  0  0  0  0  0  0  0  0  0  0
   -6.4280    3.6040   -0.6720 C   0  0  0  0  0  0  0  0  0  0  0  0
   -5.5050    3.5730   -1.7520 C   0  0  0  0  0  0  0  0  0  0  0  0
   -4.2890    2.9760   -1.6330 C   0  0  0  0  0  0  0  0  0  0  0  0
   -0.4790    1.0570    0.2480 C   0  0  0  0  0  0  0  0  0  0  0  0
    0.0310    1.6850   -0.8770 N   0  0  1  0  0  0  0  0  0  0  0  0
   -0.8670    2.4550   -1.7070 C   0  0  0  0  0  0  0  0  0  0  0  0
    1.2490    2.4520   -0.6390 C   0  0  0  0  0  0  0  0  0  0  0  0
    2.3770    1.7640   -1.2770 C   0  0  0  0  0  0  0  0  0  0  0  0
    2.0960    1.3990   -2.5220 O   0  0  0  0  0  0  0  0  0  0  0  0
    3.6340    1.4490   -0.8030 N   0  0  0  0  0  0  0  0  0  0  0  0
   -3.9020   -1.4700   -0.2790 C   0  0  1  0  0  0  0  0  0  0  0  0
    7.2030    2.0260    1.7110 C   0  0  0  0  0  0  0  0  0  0  0  0
    7.9390    3.0450    2.3790 C   0  0  0  0  0  0  0  0  0  0  0  0
  1  2  2  0
  2  3  1  0
  2  4  1  0
  4  5  1  0
  4 45  2  3
  5  6  2  3
  6  7  1  0
  6 43  1  0
  7  8  2  0
  8  9  1  0
  8 12  1  0
  9 10  2  3
 10 11  1  0
 12 13  1  6
 12 14  1  0
 14 15  2  0
 15 16  1  0
 16 17  2  0
 16 18  1  0
 18 19  1  0
 19 20  1  6
 19 44  1  0
 20 21  1  0
 22 21  1  6
 22 23  1  0
 22 44  1  0
 23 24  1  0
 24 25  1  0
 25 26  1  0
 26 27  1  0
 44 26  1  1
 27 28  2  0
 27 29  1  0
 29 30  1  6
 29 37  1  0
 30 31  1  0
 31 32  2  0
 31 36  1  0
 32 33  1  0
 33 34  2  0
 34 35  1  0
 35 36  2  0
 37 38  1  0
 38 39  1  1
 38 40  1  0
 40 41  1  0
 41 42  2  0
 41 43  1  0
 45 46  1  0
M  CHG  1  38   1
M  END
