
     RDKit          3D

 46 49  0  0  0  0  0  0  0  0999 V2000
   -2.2530    0.2770    6.4650 C   0  0  0  0  0  0  0  0  0  0  0  0
   -2.2460   -0.7880    5.4310 C   0  0  0  0  0  0  0  0  0  0  0  0
   -2.2040   -0.2720    4.0650 N   0  0  0  0  0  0  0  0  0  0  0  0
   -0.8670   -0.0790    3.5530 C   0  0  0  0  0  0  0  0  0  0  0  0
   -0.5010   -0.9680    2.3800 C   0  0  0  0  0  0  0  0  0  0  0  0
    0.9230   -0.9040    2.3130 O   0  0  0  0  0  0  0  0  0  0  0  0
    1.7310   -0.5410    1.2460 C   0  0  0  0  0  0  0  0  0  0  0  0
    2.6200    0.5210    1.4700 C   0  0  0  0  0  0  0  0  0  0  0  0
    3.4950    0.9840    0.4860 C   0  0  0  0  0  0  0  0  0  0  0  0
    3.4670    0.3670   -0.7220 C   0  0  0  0  0  0  0  0  0  0  0  0
    2.5960   -0.6730   -0.9400 C   0  0  0  0  0  0  0  0  0  0  0  0
    1.6900   -1.1810    0.0130 C   0  0  0  0  0  0  0  0  0  0  0  0
    0.9180   -2.2630   -0.4250 N   0  0  0  0  0  0  0  0  0  0  0  0
   -0.4340   -2.5200   -0.7230 C   0  0  0  0  0  0  0  0  0  0  0  0
   -0.7440   -3.7810   -0.5060 O   0  0  0  0  0  0  0  0  0  0  0  0
   -1.5410   -1.7430   -1.2110 C   0  0  0  0  0  0  0  0  0  0  0  0
   -1.7750   -1.7740   -2.5330 O   0  0  0  0  0  0  0  0  0  0  0  0
   -2.5020   -0.9060   -0.6070 N   0  0  0  0  0  0  0  0  0  0  0  0
   -3.5750   -1.2000    0.2990 C   0  0  0  0  0  0  0  0  0  0  0  0
   -4.7460   -0.2810    0.3090 C   0  0  2  0  0  0  0  0  0  0  0  0
   -5.9320   -1.2390    0.6490 C   0  0  0  0  0  0  0  0  0  0  0  0
   -7.2270   -0.5300    0.7140 C   0  0  0  0  0  0  0  0  0  0  0  0
   -5.1150    0.3000   -0.9540 N   0  0  1  0  0  0  0  0  0  0  0  0
   -4.8040    1.7030   -1.0950 C   0  0  0  0  0  0  0  0  0  0  0  0
   -4.6740    2.1180   -2.5570 C   0  0  0  0  0  0  0  0  0  0  0  0
   -5.9130    1.7760   -3.3380 C   0  0  0  0  0  0  0  0  0  0  0  0
   -5.7670    0.4880   -4.1040 C   0  0  0  0  0  0  0  0  0  0  0  0
   -5.9020   -0.6530   -3.0920 C   0  0  0  0  0  0  0  0  0  0  0  0
   -4.7400   -0.5040   -2.0960 C   0  0  0  0  0  0  0  0  0  0  0  0
   -4.7760    0.7320    1.4080 C   0  0  0  0  0  0  0  0  0  0  0  0
   -3.5370    0.9300    2.2070 C   0  0  0  0  0  0  0  0  0  0  0  0
   -3.3950    0.0050    3.3490 C   0  0  0  0  0  0  0  0  0  0  0  0
   -4.4460   -0.5990    3.7220 O   0  0  0  0  0  0  0  0  0  0  0  0
    4.3630    0.7580   -1.8730 C   0  0  0  0  0  0  0  0  0  0  0  0
    5.2920   -0.2380   -1.9670 O   0  0  0  0  0  0  0  0  0  0  0  0
    6.4320    0.0130   -2.6730 C   0  0  2  0  0  0  0  0  0  0  0  0
    7.1720   -1.3130   -2.8070 C   0  0  1  0  0  0  0  0  0  0  0  0
    8.4230   -1.1840   -3.6410 C   0  0  0  0  0  0  0  0  0  0  0  0
    7.4450   -1.7650   -1.5240 O   0  0  0  0  0  0  0  0  0  0  0  0
    7.3110    1.0100   -1.9970 C   0  0  0  0  0  0  0  0  0  0  0  0
    8.2640    0.5100   -1.0200 C   0  0  0  0  0  0  0  0  0  0  0  0
    8.1040    0.2070    0.2530 C   0  0  0  0  0  0  0  0  0  0  0  0
    6.8820    0.2920    1.0520 C   0  0  0  0  0  0  0  0  0  0  0  0
    6.6040    1.7210    1.4500 C   0  0  0  0  0  0  0  0  0  0  0  0
    5.2580    1.8520    1.8730 O   0  0  0  0  0  0  0  0  0  0  0  0
    4.4030    2.1280    0.8140 C   0  0  0  0  0  0  0  0  0  0  0  0
  1  2  1  0
  2  3  1  0
  3  4  1  0
  3 32  1  0
  4  5  1  0
  5  6  1  0
  6  7  1  0
  7  8  2  0
  7 12  1  0
  8  9  1  0
  9 10  2  0
  9 46  1  0
 10 11  1  0
 10 34  1  0
 11 12  2  0
 12 13  1  0
 13 14  1  0
 14 15  2  0
 14 16  1  0
 16 17  2  0
 16 18  1  0
 18 19  1  0
 19 20  1  0
 20 21  1  1
 20 23  1  0
 20 30  1  0
 21 22  1  0
 23 24  1  6
 23 29  1  0
 24 25  1  0
 25 26  1  0
 26 27  1  0
 27 28  1  0
 28 29  1  0
 30 31  1  0
 31 32  1  0
 32 33  2  0
 34 35  1  0
 35 36  1  0
 36 37  1  0
 36 40  1  1
 37 38  1  6
 37 39  1  0
 40 41  1  0
 41 42  2  0
 42 43  1  0
 43 44  1  0
 44 45  1  0
 45 46  1  0
M  CHG  1  23   1
M  END
