
     RDKit          3D

 46 49  0  0  0  0  0  0  0  0999 V2000
   10.0700    0.7560    3.1970 C   0  0  0  0  0  0  0  0  0  0  0  0
    8.7910    0.7380    2.9440 C   0  0  0  0  0  0  0  0  0  0  0  0
    8.2370    0.2020    1.6990 C   0  0  0  0  0  0  0  0  0  0  0  0
    6.9500    0.1930    1.4630 C   0  0  0  0  0  0  0  0  0  0  0  0
    6.4440   -0.3450    0.2200 C   0  0  0  0  0  0  0  0  0  0  0  0
    5.1180   -0.3660   -0.0510 C   0  0  0  0  0  0  0  0  0  0  0  0
    4.2260    0.1790    0.9710 C   0  0  0  0  0  0  0  0  0  0  0  0
    2.7220   -0.0240    0.6500 C   0  0  0  0  0  0  0  0  0  0  0  0
    2.6150    0.1220   -0.8100 C   0  0  2  0  0  0  0  0  0  0  0  0
    1.3290    0.3940   -1.4250 N   0  0  0  0  0  0  0  0  0  0  0  0
    0.2880   -0.5660   -1.2590 C   0  0  0  0  0  0  0  0  0  0  0  0
   -0.1760   -0.9780    0.0700 C   0  0  0  0  0  0  0  0  0  0  0  0
    0.0470   -2.4330    0.2310 N   0  0  0  0  0  0  0  0  0  0  0  0
   -1.1460   -3.0990    0.6670 C   0  0  0  0  0  0  0  0  0  0  0  0
   -2.0950   -3.5110   -0.4000 C   0  0  2  0  0  0  0  0  0  0  0  0
   -2.1440   -2.7190   -1.5160 O   0  0  0  0  0  0  0  0  0  0  0  0
   -3.4700   -3.6440    0.1400 C   0  0  0  0  0  0  0  0  0  0  0  0
   -4.3150   -2.6640    0.3500 C   0  0  0  0  0  0  0  0  0  0  0  0
   -4.0980   -1.2240    0.1010 C   0  0  0  0  0  0  0  0  0  0  0  0
   -3.7930   -0.4990    1.3190 N   0  0  0  0  0  0  0  0  0  0  0  0
   -4.0210   -1.1910    2.5670 C   0  0  0  0  0  0  0  0  0  0  0  0
   -3.3010    0.8350    1.3810 C   0  0  0  0  0  0  0  0  0  0  0  0
   -3.2400    1.3650    2.5200 O   0  0  0  0  0  0  0  0  0  0  0  0
   -2.8730    1.6220    0.2250 C   0  0  1  0  0  0  0  0  0  0  0  0
   -4.0000    2.5160   -0.2660 C   0  0  0  0  0  0  0  0  0  0  0  0
   -4.4920    3.5030    0.7300 C   0  0  0  0  0  0  0  0  0  0  0  0
   -1.6010    2.2920    0.3560 N   0  0  0  0  0  0  0  0  0  0  0  0
   -0.8130    2.0560    1.5760 C   0  0  0  0  0  0  0  0  0  0  0  0
   -1.0930    3.0860    2.6500 C   0  0  0  0  0  0  0  0  0  0  0  0
   -1.0690    3.1940   -0.6360 C   0  0  0  0  0  0  0  0  0  0  0  0
   -0.7690    4.3620   -0.1210 O   0  0  0  0  0  0  0  0  0  0  0  0
   -0.7880    3.1390   -2.0540 C   0  0  0  0  0  0  0  0  0  0  0  0
   -1.6520    3.9830   -2.8420 C   0  0  0  0  0  0  0  0  0  0  0  0
   -1.5800    4.0810   -4.1910 C   0  0  0  0  0  0  0  0  0  0  0  0
   -0.6400    3.3460   -4.8460 C   0  0  0  0  0  0  0  0  0  0  0  0
    0.1980    2.5380   -4.1250 C   0  0  0  0  0  0  0  0  0  0  0  0
    0.1690    2.3970   -2.7170 C   0  0  0  0  0  0  0  0  0  0  0  0
    1.2550    1.5650   -2.2280 C   0  0  0  0  0  0  0  0  0  0  0  0
    2.4720    1.9850   -2.6220 O   0  0  0  0  0  0  0  0  0  0  0  0
   -5.5600   -3.0220    0.8670 O   0  0  0  0  0  0  0  0  0  0  0  0
   -5.7660   -4.1550    1.6520 C   0  0  0  0  0  0  0  0  0  0  0  0
   -5.1440   -5.3200    0.8950 C   0  0  0  0  0  0  0  0  0  0  0  0
   -3.8890   -4.9300    0.4490 O   0  0  0  0  0  0  0  0  0  0  0  0
    3.2590   -1.1510   -1.3960 C   0  0  2  0  0  0  0  0  0  0  0  0
    3.0470   -2.2550   -0.5370 O   0  0  0  0  0  0  0  0  0  0  0  0
    4.7480   -0.9390   -1.3630 C   0  0  0  0  0  0  0  0  0  0  0  0
  1  2  2  0
  2  3  1  0
  3  4  2  3
  4  5  1  0
  5  6  2  3
  6  7  1  0
  6 46  1  0
  7  8  1  0
  8  9  1  0
  9 10  1  1
  9 44  1  0
 10 11  1  0
 10 38  1  0
 11 12  1  0
 12 13  1  0
 13 14  1  0
 14 15  1  0
 15 16  1  6
 15 17  1  0
 17 18  2  0
 17 43  1  0
 18 19  1  0
 18 40  1  0
 19 20  1  0
 20 21  1  0
 20 22  1  0
 22 23  2  0
 22 24  1  0
 24 25  1  1
 24 27  1  0
 25 26  1  0
 27 28  1  0
 27 30  1  0
 28 29  1  0
 30 31  2  0
 30 32  1  0
 32 33  2  0
 32 37  1  0
 33 34  1  0
 34 35  2  0
 35 36  1  0
 36 37  2  0
 37 38  1  0
 38 39  2  0
 40 41  1  0
 41 42  1  0
 42 43  1  0
 44 45  1  1
 44 46  1  0
M  CHG  1  13   1
M  END
