
     RDKit          3D

 46 51  0  0  0  0  0  0  0  0999 V2000
    2.0390   -4.8290   -0.8400 C   0  0  0  0  0  0  0  0  0  0  0  0
    1.8290   -3.6250   -0.1540 O   0  0  0  0  0  0  0  0  0  0  0  0
    1.4600   -2.4210   -0.7680 C   0  0  0  0  0  0  0  0  0  0  0  0
    2.4800   -1.5600   -1.2320 C   0  0  0  0  0  0  0  0  0  0  0  0
    3.7260   -1.9800   -1.0370 O   0  0  0  0  0  0  0  0  0  0  0  0
    5.0030   -1.6090   -1.2170 C   0  0  0  0  0  0  0  0  0  0  0  0
    5.4270   -0.4150   -0.4390 C   0  0  2  0  0  0  0  0  0  0  0  0
    5.3860   -0.7500    1.0700 C   0  0  0  0  0  0  0  0  0  0  0  0
    6.3020    0.6500    1.8340 S   0  0  0  0  0  0  0  0  0  0  0  0
    6.6020    1.7940    0.5250 C   0  0  0  0  0  0  0  0  0  0  0  0
    7.6800    2.5200    0.4340 C   0  0  0  0  0  0  0  0  0  0  0  0
    8.8110    2.5480    1.3400 C   0  0  0  0  0  0  0  0  0  0  0  0
    9.8980    3.3110    1.2040 C   0  0  0  0  0  0  0  0  0  0  0  0
   10.0830    4.2680    0.0530 C   0  0  0  0  0  0  0  0  0  0  0  0
   10.8580    3.0910    2.3070 C   0  0  0  0  0  0  0  0  0  0  0  0
   10.1900    2.0780    3.1310 C   0  0  0  0  0  0  0  0  0  0  0  0
    9.0190    1.7800    2.5600 C   0  0  0  0  0  0  0  0  0  0  0  0
    5.5460    1.9080   -0.5130 C   0  0  0  0  0  0  0  0  0  0  0  0
    4.7920    0.7620   -0.6510 O   0  0  0  0  0  0  0  0  0  0  0  0
    2.0450   -0.3950   -1.8240 C   0  0  0  0  0  0  0  0  0  0  0  0
    0.6990   -0.1190   -1.9380 C   0  0  0  0  0  0  0  0  0  0  0  0
   -0.2700   -0.9720   -1.4780 C   0  0  0  0  0  0  0  0  0  0  0  0
   -1.6830   -0.6100   -1.6270 C   0  0  0  0  0  0  0  0  0  0  0  0
   -1.9930    0.4990   -2.1830 O   0  0  0  0  0  0  0  0  0  0  0  0
   -2.7220   -1.3860   -1.2070 O   0  0  0  0  0  0  0  0  0  0  0  0
   -4.0960   -0.9960   -1.3650 C   0  0  1  0  0  0  0  0  0  0  0  0
   -4.7480   -1.9440   -2.3070 C   0  0  0  0  0  0  0  0  0  0  0  0
   -5.1690   -3.2580   -1.7630 C   0  0  0  0  0  0  0  0  0  0  0  0
   -5.3950   -3.2490   -0.2710 C   0  0  0  0  0  0  0  0  0  0  0  0
   -5.6880   -1.9100    0.1610 N   0  0  0  0  0  0  0  0  0  0  0  0
   -6.9310   -1.5990    0.7400 C   0  0  0  0  0  0  0  0  0  0  0  0
   -7.8520   -2.4410    0.9170 O   0  0  0  0  0  0  0  0  0  0  0  0
   -7.2410   -0.2280    1.1890 C   0  0  0  0  0  0  0  0  0  0  0  0
   -7.8210    0.6840    0.3360 C   0  0  0  0  0  0  0  0  0  0  0  0
   -8.1170    1.9790    0.7490 C   0  0  0  0  0  0  0  0  0  0  0  0
   -7.8300    2.3650    2.0320 C   0  0  0  0  0  0  0  0  0  0  0  0
   -7.2560    1.4400    2.8540 N   0  0  0  0  0  0  0  0  0  0  0  0
   -6.9720    0.1970    2.4570 C   0  0  0  0  0  0  0  0  0  0  0  0
   -6.4390   -0.6170    3.2640 O   0  0  0  0  0  0  0  0  0  0  0  0
   -8.2160    3.7790    2.2850 C   0  0  0  0  0  0  0  0  0  0  0  0
   -8.9640    4.1700    1.0570 C   0  0  0  0  0  0  0  0  0  0  0  0
   -8.7390    3.1310    0.0150 C   0  0  0  0  0  0  0  0  0  0  0  0
   -4.6940   -0.8880   -0.0060 C   0  0  0  0  0  0  0  0  0  0  0  0
    0.1310   -2.1420   -0.8840 C   0  0  0  0  0  0  0  0  0  0  0  0
   -0.8650   -3.0000   -0.4220 O   0  0  0  0  0  0  0  0  0  0  0  0
   -1.4370   -4.0130   -1.2030 C   0  0  0  0  0  0  0  0  0  0  0  0
  1  2  1  0
  2  3  1  0
  3  4  2  0
  3 44  1  0
  4  5  1  0
  4 20  1  0
  5  6  1  0
  7  6  1  6
  7  8  1  0
  7 19  1  0
  8  9  1  0
  9 10  1  0
 10 11  2  3
 10 18  1  0
 11 12  1  0
 12 13  2  0
 12 17  1  0
 13 14  1  0
 13 15  1  0
 15 16  1  0
 16 17  2  0
 18 19  1  0
 20 21  2  0
 21 22  1  0
 22 23  1  0
 22 44  2  0
 23 24  2  0
 23 25  1  0
 26 25  1  1
 26 27  1  0
 26 43  1  0
 27 28  1  0
 28 29  1  0
 29 30  1  0
 30 31  1  0
 30 43  1  0
 31 32  2  0
 31 33  1  0
 33 34  2  0
 33 38  1  0
 34 35  1  0
 35 36  2  0
 35 42  1  0
 36 37  1  0
 36 40  1  0
 37 38  1  0
 38 39  2  0
 40 41  1  0
 41 42  1  0
 44 45  1  0
 45 46  1  0
M  END
