
     RDKit          3D

 45 49  0  0  0  0  0  0  0  0999 V2000
   -5.7570    5.1230   -3.2300 C   0  0  0  0  0  0  0  0  0  0  0  0
   -6.4440    4.1470   -2.4650 O   0  0  0  0  0  0  0  0  0  0  0  0
   -5.8190    3.6050   -1.3350 C   0  0  0  0  0  0  0  0  0  0  0  0
   -4.9600    2.6210   -1.5230 C   0  0  0  0  0  0  0  0  0  0  0  0
   -4.2530    1.9860   -0.4070 C   0  0  0  0  0  0  0  0  0  0  0  0
   -3.4160    1.0180   -0.6350 C   0  0  0  0  0  0  0  0  0  0  0  0
   -2.6390    0.2940    0.4140 C   0  0  2  0  0  0  0  0  0  0  0  0
   -1.2550    0.1240   -0.1020 C   0  0  0  0  0  0  0  0  0  0  0  0
   -0.3140   -0.7250    0.6340 C   0  0  2  0  0  0  0  0  0  0  0  0
   -0.3500   -2.1880    0.1370 C   0  0  0  0  0  0  0  0  0  0  0  0
   -0.6150   -3.0670    1.1420 O   0  0  0  0  0  0  0  0  0  0  0  0
   -1.0030   -4.3650    1.2740 C   0  0  0  0  0  0  0  0  0  0  0  0
   -0.3680   -5.0480    2.3240 C   0  0  0  0  0  0  0  0  0  0  0  0
   -0.6200   -6.3710    2.6210 C   0  0  0  0  0  0  0  0  0  0  0  0
   -1.5240   -7.0660    1.8720 C   0  0  0  0  0  0  0  0  0  0  0  0
   -2.1540   -6.4050    0.8390 C   0  0  0  0  0  0  0  0  0  0  0  0
   -1.9110   -5.0660    0.5260 C   0  0  0  0  0  0  0  0  0  0  0  0
   -2.7050   -4.5420   -0.6230 C   0  0  0  0  0  0  0  0  0  0  0  0
   -2.6950   -5.3370   -1.6700 O   0  0  0  0  0  0  0  0  0  0  0  0
   -3.3950   -3.4460   -0.7550 O   0  0  0  0  0  0  0  0  0  0  0  0
   -3.8710   -2.2840   -1.1410 C   0  0  0  0  0  0  0  0  0  0  0  0
   -4.3830   -1.2840   -0.1370 C   0  0  0  0  0  0  0  0  0  0  0  0
   -3.3810   -0.8340    0.8090 N   0  0  0  0  0  0  0  0  0  0  0  0
   -0.4310   -0.6810    2.1140 C   0  0  0  0  0  0  0  0  0  0  0  0
   -1.3400   -0.2680    2.8650 O   0  0  0  0  0  0  0  0  0  0  0  0
    0.7890   -1.2440    2.5800 N   0  0  0  0  0  0  0  0  0  0  0  0
    1.8580   -1.0120    1.6410 C   0  0  1  0  0  0  0  0  0  0  0  0
    2.6250   -2.2120    1.2310 C   0  0  0  0  0  0  0  0  0  0  0  0
    1.1320   -0.3030    0.4980 C   0  0  2  0  0  0  0  0  0  0  0  0
    1.3810    1.1640    0.7380 C   0  0  0  0  0  0  0  0  0  0  0  0
    2.8280    1.4270    0.5920 N   0  0  0  0  0  0  0  0  0  0  0  0
    3.5330    1.1880   -0.6100 C   0  0  0  0  0  0  0  0  0  0  0  0
    2.9640    0.7430   -1.6170 O   0  0  0  0  0  0  0  0  0  0  0  0
    4.9280    1.4530   -0.6980 N   0  0  0  0  0  0  0  0  0  0  0  0
    5.6870    1.2220   -1.9120 C   0  0  1  0  0  0  0  0  0  0  0  0
    6.5170    2.4310   -2.2810 C   0  0  0  0  0  0  0  0  0  0  0  0
    7.7240    2.4130   -1.3750 C   0  0  0  0  0  0  0  0  0  0  0  0
    7.7940    1.0320   -0.7640 C   0  0  2  0  0  0  0  0  0  0  0  0
    9.0670    0.5050   -0.8110 O   0  0  0  0  0  0  0  0  0  0  0  0
    9.5370    0.2020    0.4770 C   0  0  0  0  0  0  0  0  0  0  0  0
    6.7890    0.2250   -1.5310 C   0  0  0  0  0  0  0  0  0  0  0  0
   -4.5080    2.4620    0.9720 C   0  0  0  0  0  0  0  0  0  0  0  0
   -5.4890    3.5620    1.0240 C   0  0  0  0  0  0  0  0  0  0  0  0
   -6.1050    4.1080    0.0040 C   0  0  0  0  0  0  0  0  0  0  0  0
   -7.0860    5.2200    0.1440 C   0  0  0  0  0  0  0  0  0  0  0  0
  1  2  1  0
  2  3  1  0
  3  4  2  0
  3 44  1  0
  4  5  1  0
  5  6  2  3
  5 42  1  0
  7  6  1  6
  7  8  1  0
  7 23  1  0
  9  8  1  6
  9 10  1  0
  9 24  1  0
  9 29  1  0
 10 11  1  0
 11 12  1  0
 12 13  2  0
 12 17  1  0
 13 14  1  0
 14 15  2  0
 15 16  1  0
 16 17  2  0
 17 18  1  0
 18 19  2  0
 18 20  1  0
 20 21  1  0
 21 22  1  0
 22 23  1  0
 24 25  2  0
 24 26  1  0
 26 27  1  0
 27 28  1  6
 27 29  1  0
 29 30  1  1
 30 31  1  0
 31 32  1  0
 32 33  2  0
 32 34  1  0
 35 34  1  1
 35 36  1  0
 35 41  1  0
 36 37  1  0
 37 38  1  0
 38 39  1  6
 38 41  1  0
 39 40  1  0
 42 43  1  0
 43 44  2  0
 44 45  1  0
M  CHG  1  23   1
M  END
