
     RDKit          3D

 40 44  0  0  0  0  0  0  0  0999 V2000
    8.9390   -1.5110    1.2100 C   0  0  0  0  0  0  0  0  0  0  0  0
    9.4770   -0.9760    0.1040 C   0  0  0  0  0  0  0  0  0  0  0  0
   10.9050   -0.5370    0.0490 C   0  0  0  0  0  0  0  0  0  0  0  0
   11.1850   -0.9540   -1.7290 S   0  0  0  0  0  0  0  0  0  0  0  0
    9.4730   -0.7260   -2.2210 C   0  0  0  0  0  0  0  0  0  0  0  0
    8.7620   -0.7710   -1.1180 C   0  0  0  0  0  0  0  0  0  0  0  0
    7.3140   -0.6110   -1.2050 N   0  0  0  0  0  0  0  0  0  0  0  0
    6.6490    0.4400   -0.5400 C   0  0  0  0  0  0  0  0  0  0  0  0
    7.3870    1.2290    0.1310 O   0  0  0  0  0  0  0  0  0  0  0  0
    5.2080    0.6690   -0.5750 C   0  0  0  0  0  0  0  0  0  0  0  0
    4.3390   -0.1400   -1.2720 C   0  0  0  0  0  0  0  0  0  0  0  0
    2.9790    0.0870   -1.2970 C   0  0  0  0  0  0  0  0  0  0  0  0
    2.4440    1.1500   -0.6120 C   0  0  0  0  0  0  0  0  0  0  0  0
    1.0870    1.3580   -0.6520 O   0  0  0  0  0  0  0  0  0  0  0  0
    0.3390    1.2680    0.5000 C   0  0  0  0  0  0  0  0  0  0  0  0
    0.8340    0.9170    1.7320 C   0  0  0  0  0  0  0  0  0  0  0  0
    0.0420    0.8430    2.8670 C   0  0  0  0  0  0  0  0  0  0  0  0
    0.7780    0.3840    4.3900 Cl  0  0  0  0  0  0  0  0  0  0  0  0
   -1.2950    1.1290    2.7750 C   0  0  0  0  0  0  0  0  0  0  0  0
   -1.8220    1.4830    1.5530 C   0  0  0  0  0  0  0  0  0  0  0  0
   -1.0290    1.5570    0.4190 C   0  0  0  0  0  0  0  0  0  0  0  0
   -1.5070    1.9040   -0.8290 O   0  0  0  0  0  0  0  0  0  0  0  0
   -2.8600    2.1780   -1.0150 C   0  0  0  0  0  0  0  0  0  0  0  0
   -3.6970    0.9500   -0.7140 C   0  0  0  0  0  0  0  0  0  0  0  0
   -3.1210   -0.1230   -0.4280 O   0  0  0  0  0  0  0  0  0  0  0  0
   -5.1040    1.0440   -0.7630 N   0  0  0  0  0  0  0  0  0  0  0  0
   -5.9990   -0.0180   -0.5110 C   0  0  0  0  0  0  0  0  0  0  0  0
   -5.6480   -1.3210   -0.3340 C   0  0  0  0  0  0  0  0  0  0  0  0
   -6.6080   -2.3120   -0.0750 C   0  0  0  0  0  0  0  0  0  0  0  0
   -7.9400   -2.0320    0.0140 C   0  0  0  0  0  0  0  0  0  0  0  0
   -9.0160   -2.7960    0.2480 N   0  0  0  0  0  0  0  0  0  0  0  0
  -10.0910   -1.9880    0.2250 C   0  0  0  0  0  0  0  0  0  0  0  0
   -9.7020   -0.6930   -0.0260 C   0  0  0  0  0  0  0  0  0  0  0  0
  -10.5030    0.5090   -0.1410 C   0  0  0  0  0  0  0  0  0  0  0  0
  -11.7490    0.4620   -0.0070 O   0  0  0  0  0  0  0  0  0  0  0  0
   -8.3130   -0.7170   -0.1620 C   0  0  0  0  0  0  0  0  0  0  0  0
   -7.3750    0.2540   -0.4160 C   0  0  0  0  0  0  0  0  0  0  0  0
    3.2950    1.9710    0.0910 C   0  0  0  0  0  0  0  0  0  0  0  0
    2.6040    3.3540    0.9380 Cl  0  0  0  0  0  0  0  0  0  0  0  0
    4.6580    1.7310    0.1080 C   0  0  0  0  0  0  0  0  0  0  0  0
  1  2  2  0
  2  3  1  0
  2  6  1  0
  3  4  1  0
  4  5  1  0
  5  6  2  0
  6  7  1  0
  7  8  1  0
  8  9  2  0
  8 10  1  0
 10 11  2  0
 10 40  1  0
 11 12  1  0
 12 13  2  0
 13 14  1  0
 13 38  1  0
 14 15  1  0
 15 16  2  0
 15 21  1  0
 16 17  1  0
 17 18  1  0
 17 19  2  0
 19 20  1  0
 20 21  2  0
 21 22  1  0
 22 23  1  0
 23 24  1  0
 24 25  2  0
 24 26  1  0
 26 27  1  0
 27 28  2  0
 27 37  1  0
 28 29  1  0
 29 30  2  0
 30 31  1  0
 30 36  1  0
 31 32  1  0
 32 33  2  0
 33 34  1  0
 33 36  1  0
 34 35  2  0
 36 37  2  0
 38 39  1  0
 38 40  2  0
M  END
