
     RDKit          3D

 40 44  0  0  0  0  0  0  0  0999 V2000
   10.5930    0.6900    0.0900 C   0  0  0  0  0  0  0  0  0  0  0  0
    9.1690    0.3640    0.4010 C   0  0  0  0  0  0  0  0  0  0  0  0
    8.0960    0.4390   -0.4000 N   0  0  0  0  0  0  0  0  0  0  0  0
    6.9820    0.0620    0.2380 C   0  0  0  0  0  0  0  0  0  0  0  0
    5.6110   -0.0080   -0.2470 C   0  0  0  0  0  0  0  0  0  0  0  0
    4.5670   -0.3970    0.5560 C   0  0  0  0  0  0  0  0  0  0  0  0
    3.2490   -0.4770    0.1070 C   0  0  0  0  0  0  0  0  0  0  0  0
    2.9270   -0.1700   -1.1660 C   0  0  0  0  0  0  0  0  0  0  0  0
    1.6430   -0.2150   -1.7370 N   0  0  0  0  0  0  0  0  0  0  0  0
    0.4240   -0.5940   -1.0930 C   0  0  0  0  0  0  0  0  0  0  0  0
    0.5190   -0.9160    0.1040 O   0  0  0  0  0  0  0  0  0  0  0  0
   -0.8350   -0.5980   -1.8010 C   0  0  0  0  0  0  0  0  0  0  0  0
   -2.0020   -0.9270   -1.3430 C   0  0  0  0  0  0  0  0  0  0  0  0
   -2.2670   -1.3850    0.0660 C   0  0  0  0  0  0  0  0  0  0  0  0
   -3.0700   -0.6780    0.7980 O   0  0  0  0  0  0  0  0  0  0  0  0
   -3.8720    0.0250    1.5250 C   0  0  0  0  0  0  0  0  0  0  0  0
   -5.2160    0.2680    1.2070 C   0  0  0  0  0  0  0  0  0  0  0  0
   -5.9740    1.0340    2.0600 C   0  0  0  0  0  0  0  0  0  0  0  0
   -5.4730    1.5740    3.2120 C   0  0  0  0  0  0  0  0  0  0  0  0
   -6.2990    2.3670    4.0730 C   0  0  0  0  0  0  0  0  0  0  0  0
   -7.2050    1.7880    4.9980 N   0  0  0  0  0  0  0  0  0  0  0  0
   -6.2290    3.9980    4.0220 S   0  0  0  0  0  0  0  0  0  0  0  0
   -4.1650    1.3260    3.5010 C   0  0  0  0  0  0  0  0  0  0  0  0
   -3.5100    2.0170    4.9800 Cl  0  0  0  0  0  0  0  0  0  0  0  0
   -3.3590    0.5850    2.7140 C   0  0  0  0  0  0  0  0  0  0  0  0
   -3.2030   -0.9000   -2.2060 C   0  0  0  0  0  0  0  0  0  0  0  0
   -3.1820   -0.4120   -3.4870 C   0  0  0  0  0  0  0  0  0  0  0  0
   -4.3340   -0.4510   -4.2910 C   0  0  0  0  0  0  0  0  0  0  0  0
   -5.5000   -0.9760   -3.8140 C   0  0  0  0  0  0  0  0  0  0  0  0
   -5.5500   -1.4720   -2.5310 C   0  0  0  0  0  0  0  0  0  0  0  0
   -4.3890   -1.4170   -1.7640 C   0  0  0  0  0  0  0  0  0  0  0  0
   -6.8340   -1.9270   -2.3310 O   0  0  0  0  0  0  0  0  0  0  0  0
   -7.5170   -2.0200   -3.5600 C   0  0  0  0  0  0  0  0  0  0  0  0
   -6.7760   -1.1400   -4.3830 O   0  0  0  0  0  0  0  0  0  0  0  0
    3.9850    0.2330   -2.0130 C   0  0  0  0  0  0  0  0  0  0  0  0
    3.6280    0.6410   -3.6800 Cl  0  0  0  0  0  0  0  0  0  0  0  0
    5.2770    0.3050   -1.5480 C   0  0  0  0  0  0  0  0  0  0  0  0
    7.3500   -0.2590    1.4680 O   0  0  0  0  0  0  0  0  0  0  0  0
    8.6650   -0.0900    1.6060 C   0  0  0  0  0  0  0  0  0  0  0  0
    9.4480   -0.3460    2.8410 C   0  0  0  0  0  0  0  0  0  0  0  0
  1  2  1  0
  2  3  1  0
  2 39  2  0
  3  4  2  0
  4  5  1  0
  4 38  1  0
  5  6  2  0
  5 37  1  0
  6  7  1  0
  7  8  2  0
  8  9  1  0
  8 35  1  0
  9 10  1  0
 10 11  2  0
 10 12  1  0
 12 13  2  3
 13 14  1  0
 13 26  1  0
 14 15  1  0
 15 16  1  0
 16 17  2  0
 16 25  1  0
 17 18  1  0
 18 19  2  0
 19 20  1  0
 19 23  1  0
 20 21  1  0
 20 22  2  0
 23 24  1  0
 23 25  2  0
 26 27  2  0
 26 31  1  0
 27 28  1  0
 28 29  2  0
 29 30  1  0
 29 34  1  0
 30 31  2  0
 30 32  1  0
 32 33  1  0
 33 34  1  0
 35 36  1  0
 35 37  2  0
 38 39  1  0
 39 40  1  0
M  END
