
     RDKit          3D

 40 44  0  0  0  0  0  0  0  0999 V2000
   -7.3870   -3.6900    1.1970 C   0  0  0  0  0  0  0  0  0  0  0  0
   -6.2660   -3.8330    2.1140 C   0  0  0  0  0  0  0  0  0  0  0  0
   -6.4060   -4.8370    3.5020 Cl  0  0  0  0  0  0  0  0  0  0  0  0
   -5.0970   -3.1580    1.8690 C   0  0  0  0  0  0  0  0  0  0  0  0
   -3.9050   -3.4770    3.0840 Cl  0  0  0  0  0  0  0  0  0  0  0  0
   -5.0080   -2.2850    0.7770 C   0  0  0  0  0  0  0  0  0  0  0  0
   -4.1770   -1.5020    0.1700 C   0  0  0  0  0  0  0  0  0  0  0  0
   -4.7100   -0.7690   -1.0250 C   0  0  0  0  0  0  0  0  0  0  0  0
   -3.6110    0.4740   -1.2780 S   0  0  1  0  0  0  0  0  0  0  0  0
   -3.3160    0.5670   -2.6950 O   0  0  0  0  0  0  0  0  0  0  0  0
   -4.1580    1.8810   -0.6330 N   0  0  0  0  0  0  0  0  0  0  0  0
   -5.2950    2.5710   -1.1320 C   0  0  0  0  0  0  0  0  0  0  0  0
   -5.7280    3.7680   -0.5510 C   0  0  0  0  0  0  0  0  0  0  0  0
   -6.8140    4.4230   -1.0360 C   0  0  0  0  0  0  0  0  0  0  0  0
   -7.5520    3.9710   -2.1070 C   0  0  0  0  0  0  0  0  0  0  0  0
   -7.1410    2.7930   -2.6930 C   0  0  0  0  0  0  0  0  0  0  0  0
   -6.0420    2.1170   -2.2130 C   0  0  0  0  0  0  0  0  0  0  0  0
   -2.2600   -0.2540   -0.4520 C   0  0  0  0  0  0  0  0  0  0  0  0
   -0.9260    0.1120   -0.5330 C   0  0  0  0  0  0  0  0  0  0  0  0
   -0.0530   -0.4970    0.3430 C   0  0  0  0  0  0  0  0  0  0  0  0
    1.3760   -0.1820    0.3300 C   0  0  0  0  0  0  0  0  0  0  0  0
    1.8600    0.3080   -0.7200 O   0  0  0  0  0  0  0  0  0  0  0  0
    2.2180   -0.4080    1.4480 N   0  0  0  0  0  0  0  0  0  0  0  0
    3.6010   -0.1290    1.4920 C   0  0  0  0  0  0  0  0  0  0  0  0
    4.4100   -0.2260    2.6030 C   0  0  0  0  0  0  0  0  0  0  0  0
    5.6440    0.1070    2.2360 N   0  0  0  0  0  0  0  0  0  0  0  0
    5.7250    0.4230    0.9500 C   0  0  0  0  0  0  0  0  0  0  0  0
    6.9400    0.8260    0.2510 C   0  0  0  0  0  0  0  0  0  0  0  0
    8.0340    0.9060    0.8650 O   0  0  0  0  0  0  0  0  0  0  0  0
    6.9720    1.1360   -1.1000 O   0  0  0  0  0  0  0  0  0  0  0  0
    8.2020    1.5240   -1.7270 C   0  0  0  0  0  0  0  0  0  0  0  0
    9.2090    0.4190   -1.5790 C   0  0  0  0  0  0  0  0  0  0  0  0
   10.4510    0.4680   -2.1700 C   0  0  0  0  0  0  0  0  0  0  0  0
   11.1040   -0.7020   -1.8260 C   0  0  0  0  0  0  0  0  0  0  0  0
   10.2140   -1.4080   -1.0360 C   0  0  0  0  0  0  0  0  0  0  0  0
    9.1190   -0.7090   -0.9210 O   0  0  0  0  0  0  0  0  0  0  0  0
    4.4430    0.2820    0.4570 C   0  0  0  0  0  0  0  0  0  0  0  0
   -0.5240   -1.4240    1.2430 C   0  0  0  0  0  0  0  0  0  0  0  0
   -1.8670   -1.7530    1.2750 C   0  0  0  0  0  0  0  0  0  0  0  0
   -2.7910   -1.1600    0.4030 C   0  0  0  0  0  0  0  0  0  0  0  0
  1  2  1  0
  2  3  1  0
  2  4  2  3
  4  5  1  0
  4  6  1  0
  6  7  2  3
  7  8  1  0
  7 40  1  0
  8  9  2  0
  9 10  2  0
  9 11  1  1
  9 18  1  0
 11 12  1  0
 12 13  2  0
 12 17  1  0
 13 14  1  0
 14 15  2  0
 15 16  1  0
 16 17  2  0
 18 19  2  0
 18 40  1  0
 19 20  1  0
 20 21  1  0
 20 38  2  0
 21 22  2  0
 21 23  1  0
 23 24  1  0
 24 25  2  0
 24 37  1  0
 25 26  1  0
 26 27  1  0
 27 28  1  0
 27 37  2  0
 28 29  2  0
 28 30  1  0
 30 31  1  0
 31 32  1  0
 32 33  2  0
 32 36  1  0
 33 34  1  0
 34 35  2  0
 35 36  1  0
 38 39  1  0
 39 40  2  0
M  END
