
     RDKit          3D

 40 44  0  0  0  0  0  0  0  0999 V2000
   -5.2020    0.1200   -2.7760 C   0  0  0  0  0  0  0  0  0  0  0  0
   -6.0140    1.1260   -2.0320 C   0  0  0  0  0  0  0  0  0  0  0  0
   -7.0730    1.7800   -2.6470 C   0  0  0  0  0  0  0  0  0  0  0  0
   -7.8020    2.7040   -1.9330 C   0  0  0  0  0  0  0  0  0  0  0  0
   -7.4630    2.9640   -0.6060 C   0  0  0  0  0  0  0  0  0  0  0  0
   -8.3980    4.1340    0.2950 Cl  0  0  0  0  0  0  0  0  0  0  0  0
   -6.4160    2.3220    0.0130 C   0  0  0  0  0  0  0  0  0  0  0  0
   -5.9580    2.6200    1.6780 Cl  0  0  0  0  0  0  0  0  0  0  0  0
   -5.7030    1.4060   -0.7150 C   0  0  0  0  0  0  0  0  0  0  0  0
   -4.6220    0.7110   -0.1140 N   0  0  0  0  0  0  0  0  0  0  0  0
   -3.2670    1.1370   -0.1500 C   0  0  0  0  0  0  0  0  0  0  0  0
   -2.9750    2.2000   -0.7510 O   0  0  0  0  0  0  0  0  0  0  0  0
   -2.2480    0.3420    0.5040 N   0  0  0  0  0  0  0  0  0  0  0  0
   -0.9120    0.8170    0.4260 C   0  0  0  0  0  0  0  0  0  0  0  0
    0.1130   -0.0750    1.1460 C   0  0  0  0  0  0  0  0  0  0  0  0
    0.1080   -1.4530    0.5840 C   0  0  0  0  0  0  0  0  0  0  0  0
    0.6810   -1.7180   -0.6310 C   0  0  0  0  0  0  0  0  0  0  0  0
    1.3570   -0.7200   -1.3710 O   0  0  0  0  0  0  0  0  0  0  0  0
    2.5730   -0.2870   -0.8690 C   0  0  0  0  0  0  0  0  0  0  0  0
    3.1730    0.8770   -1.2640 C   0  0  0  0  0  0  0  0  0  0  0  0
    4.4080    1.2630   -0.7280 C   0  0  0  0  0  0  0  0  0  0  0  0
    5.0880    0.5260    0.2050 C   0  0  0  0  0  0  0  0  0  0  0  0
    6.3670    0.8890    0.7580 C   0  0  0  0  0  0  0  0  0  0  0  0
    6.6770    0.3670    1.8820 O   0  0  0  0  0  0  0  0  0  0  0  0
    7.3570    1.7760    0.1900 C   0  0  0  0  0  0  0  0  0  0  0  0
    8.6890    1.8520    0.4470 C   0  0  0  0  0  0  0  0  0  0  0  0
    9.4300    2.7510   -0.1900 C   0  0  0  0  0  0  0  0  0  0  0  0
    8.8220    3.5870   -1.0980 C   0  0  0  0  0  0  0  0  0  0  0  0
    7.1040    3.0430   -1.0230 S   0  0  0  0  0  0  0  0  0  0  0  0
    4.4680   -0.6660    0.6070 C   0  0  0  0  0  0  0  0  0  0  0  0
    3.2690   -1.0400    0.0860 C   0  0  0  0  0  0  0  0  0  0  0  0
    0.6280   -2.9900   -1.2140 C   0  0  0  0  0  0  0  0  0  0  0  0
   -0.0190   -3.9800   -0.5260 C   0  0  0  0  0  0  0  0  0  0  0  0
   -0.6050   -3.7530    0.7000 C   0  0  0  0  0  0  0  0  0  0  0  0
   -0.5460   -2.4770    1.2720 C   0  0  0  0  0  0  0  0  0  0  0  0
   -1.1470   -2.2480    2.5430 N   0  0  0  0  0  0  0  0  0  0  0  0
   -1.7940   -3.3300    3.2040 C   0  0  0  0  0  0  0  0  0  0  0  0
   -2.6860   -3.1050    4.0660 O   0  0  0  0  0  0  0  0  0  0  0  0
   -1.3550   -4.7040    2.8150 C   0  0  0  0  0  0  0  0  0  0  0  0
   -1.2600   -4.7730    1.3910 O   0  0  0  0  0  0  0  0  0  0  0  0
  1  2  1  0
  2  3  2  0
  2  9  1  0
  3  4  1  0
  4  5  2  0
  5  6  1  0
  5  7  1  0
  7  8  1  0
  7  9  2  0
  9 10  1  0
 10 11  1  0
 11 12  2  0
 11 13  1  0
 13 14  1  0
 14 15  1  0
 15 16  1  0
 16 17  1  0
 16 35  2  0
 17 18  1  0
 17 32  2  0
 18 19  1  0
 19 20  2  0
 19 31  1  0
 20 21  1  0
 21 22  2  0
 22 23  1  0
 22 30  1  0
 23 24  2  0
 23 25  1  0
 25 26  2  0
 25 29  1  0
 26 27  1  0
 27 28  2  0
 28 29  1  0
 30 31  2  0
 32 33  1  0
 33 34  2  0
 34 35  1  0
 34 40  1  0
 35 36  1  0
 36 37  1  0
 37 38  2  0
 37 39  1  0
 39 40  1  0
M  END
