
     RDKit          3D

 40 44  0  0  0  0  0  0  0  0999 V2000
    5.1280   -4.4860   -2.9400 C   0  0  0  0  0  0  0  0  0  0  0  0
    3.8700   -3.9450   -2.5610 O   0  0  0  0  0  0  0  0  0  0  0  0
    3.7720   -2.6750   -1.9860 C   0  0  0  0  0  0  0  0  0  0  0  0
    4.8390   -2.0680   -1.8340 O   0  0  0  0  0  0  0  0  0  0  0  0
    2.4610   -2.1880   -1.6260 C   0  0  0  0  0  0  0  0  0  0  0  0
    1.3040   -2.9140   -1.7700 N   0  0  0  0  0  0  0  0  0  0  0  0
    0.2560   -2.2240   -1.3160 C   0  0  0  0  0  0  0  0  0  0  0  0
   -1.1870   -2.6690   -1.2950 C   0  0  0  0  0  0  0  0  0  0  0  0
    0.7610   -1.0360   -0.8750 C   0  0  0  0  0  0  0  0  0  0  0  0
   -0.0500    0.0420   -0.2860 C   0  0  0  0  0  0  0  0  0  0  0  0
   -0.5760    0.9580   -0.9280 O   0  0  0  0  0  0  0  0  0  0  0  0
   -0.2230    0.0080    1.0730 O   0  0  0  0  0  0  0  0  0  0  0  0
   -0.9360    0.8990    1.8590 C   0  0  0  0  0  0  0  0  0  0  0  0
   -2.3780    1.0150    1.5540 C   0  0  0  0  0  0  0  0  0  0  0  0
   -3.0910    2.0250    2.1730 C   0  0  0  0  0  0  0  0  0  0  0  0
   -4.4320    2.2200    1.9630 C   0  0  0  0  0  0  0  0  0  0  0  0
   -5.2240    3.2930    2.6130 C   0  0  0  0  0  0  0  0  0  0  0  0
   -5.0650    1.3420    1.0810 C   0  0  0  0  0  0  0  0  0  0  0  0
   -4.4140    0.3380    0.4510 C   0  0  0  0  0  0  0  0  0  0  0  0
   -3.0490    0.1910    0.7060 C   0  0  0  0  0  0  0  0  0  0  0  0
   -5.0160   -0.5870   -0.4610 C   0  0  0  0  0  0  0  0  0  0  0  0
   -6.5010   -0.3810   -0.6980 C   0  0  0  0  0  0  0  0  0  0  0  0
   -7.1670    0.5980   -0.0920 C   0  0  0  0  0  0  0  0  0  0  0  0
   -8.5260    0.7210   -0.3630 C   0  0  0  0  0  0  0  0  0  0  0  0
   -8.8710   -0.5620   -1.4880 S   0  0  0  0  0  0  0  0  0  0  0  0
   -7.1810   -1.2270   -1.5630 C   0  0  0  0  0  0  0  0  0  0  0  0
   -6.6650   -2.5890   -2.5190 Cl  0  0  0  0  0  0  0  0  0  0  0  0
   -6.4520    1.4890    0.8210 N   0  0  0  0  0  0  0  0  0  0  0  0
    2.1660   -0.9890   -1.0660 C   0  0  0  0  0  0  0  0  0  0  0  0
    2.8920    0.2090   -0.7550 C   0  0  0  0  0  0  0  0  0  0  0  0
    2.4860    0.9030    0.2670 O   0  0  0  0  0  0  0  0  0  0  0  0
    4.0020    0.7720   -1.4040 N   0  0  0  0  0  0  0  0  0  0  0  0
    4.6310    2.0090   -0.9380 C   0  0  0  0  0  0  0  0  0  0  0  0
    5.4660    1.7180    0.2710 C   0  0  0  0  0  0  0  0  0  0  0  0
    6.6960    1.0800    0.1350 C   0  0  0  0  0  0  0  0  0  0  0  0
    7.4880    0.8070    1.2270 C   0  0  0  0  0  0  0  0  0  0  0  0
    7.0470    1.1740    2.4750 C   0  0  0  0  0  0  0  0  0  0  0  0
    5.8410    1.8060    2.6690 C   0  0  0  0  0  0  0  0  0  0  0  0
    5.2990    2.2660    4.2750 Cl  0  0  0  0  0  0  0  0  0  0  0  0
    5.0700    2.0660    1.5450 C   0  0  0  0  0  0  0  0  0  0  0  0
  1  2  1  0
  2  3  1  0
  3  4  2  0
  3  5  1  0
  5  6  1  0
  5 29  2  0
  6  7  1  0
  7  8  1  0
  7  9  2  0
  9 10  1  0
  9 29  1  0
 10 11  2  0
 10 12  1  0
 12 13  1  0
 13 14  1  0
 14 15  2  0
 14 20  1  0
 15 16  1  0
 16 17  1  0
 16 18  2  0
 18 19  1  0
 18 28  1  0
 19 20  2  0
 19 21  1  0
 21 22  1  0
 22 23  1  0
 22 26  2  0
 23 24  2  0
 23 28  1  0
 24 25  1  0
 25 26  1  0
 26 27  1  0
 29 30  1  0
 30 31  2  0
 30 32  1  0
 32 33  1  0
 33 34  1  0
 34 35  2  0
 34 40  1  0
 35 36  1  0
 36 37  2  0
 37 38  1  0
 38 39  1  0
 38 40  2  0
M  END
