
     RDKit          3D

 40 43  0  0  0  0  0  0  0  0999 V2000
    6.0610   -1.5530   -0.1570 C   0  0  0  0  0  0  0  0  0  0  0  0
    5.2700   -2.6190    0.5130 C   0  0  0  0  0  0  0  0  0  0  0  0
    5.9310   -3.6790    1.1180 C   0  0  0  0  0  0  0  0  0  0  0  0
    7.3080   -3.7600    1.1790 O   0  0  0  0  0  0  0  0  0  0  0  0
    5.2360   -4.7240    1.6980 C   0  0  0  0  0  0  0  0  0  0  0  0
    3.8650   -4.6660    1.6460 C   0  0  0  0  0  0  0  0  0  0  0  0
    3.1890   -3.6270    1.0520 C   0  0  0  0  0  0  0  0  0  0  0  0
    3.9010   -2.5590    0.4620 C   0  0  0  0  0  0  0  0  0  0  0  0
    3.1110   -1.4690   -0.1050 C   0  0  0  0  0  0  0  0  0  0  0  0
    2.2660   -1.9150   -0.9810 O   0  0  0  0  0  0  0  0  0  0  0  0
    3.1620   -0.1180    0.1760 N   0  0  0  0  0  0  0  0  0  0  0  0
    2.3550    0.9500   -0.4060 C   0  0  1  0  0  0  0  0  0  0  0  0
    3.2120    1.5070   -1.5300 C   0  0  0  0  0  0  0  0  0  0  0  0
    4.7810    2.1730   -1.0440 S   0  0  0  0  0  0  0  0  0  0  0  0
    4.5800    3.7320   -0.2190 C   0  0  0  0  0  0  0  0  0  0  0  0
    3.3370    4.2980   -0.1140 C   0  0  0  0  0  0  0  0  0  0  0  0
    3.1200    5.5090    0.5270 C   0  0  0  0  0  0  0  0  0  0  0  0
    4.2040    6.1720    1.0830 C   0  0  0  0  0  0  0  0  0  0  0  0
    5.4340    5.6000    0.9710 C   0  0  0  0  0  0  0  0  0  0  0  0
    5.6650    4.4080    0.3430 C   0  0  0  0  0  0  0  0  0  0  0  0
    1.0260    0.5220   -0.9390 C   0  0  2  0  0  0  0  0  0  0  0  0
    0.3770    1.6650   -1.4550 O   0  0  0  0  0  0  0  0  0  0  0  0
    0.1170   -0.0230    0.1120 C   0  0  0  0  0  0  0  0  0  0  0  0
   -1.1600   -0.4830   -0.4760 N   0  0  2  0  0  0  0  0  0  0  0  0
   -0.9660   -0.9000   -1.8360 C   0  0  0  0  0  0  0  0  0  0  0  0
   -2.2630   -1.3800   -2.4090 C   0  0  1  0  0  0  0  0  0  0  0  0
   -2.8400   -2.6070   -1.7970 C   0  0  0  0  0  0  0  0  0  0  0  0
   -3.9920   -3.0040   -2.7510 C   0  0  0  0  0  0  0  0  0  0  0  0
   -5.0340   -1.9220   -2.5170 C   0  0  0  0  0  0  0  0  0  0  0  0
   -4.5780   -0.5600   -2.9090 C   0  0  0  0  0  0  0  0  0  0  0  0
   -3.1780   -0.1960   -2.4830 C   0  0  1  0  0  0  0  0  0  0  0  0
   -3.1870    0.6910   -1.3080 C   0  0  0  0  0  0  0  0  0  0  0  0
   -2.1620    0.4710   -0.2440 C   0  0  1  0  0  0  0  0  0  0  0  0
   -2.9300    0.1180    0.9830 C   0  0  0  0  0  0  0  0  0  0  0  0
   -2.6310   -0.9160    1.6050 O   0  0  0  0  0  0  0  0  0  0  0  0
   -4.0050    0.9180    1.4810 N   0  0  0  0  0  0  0  0  0  0  0  0
   -4.7870    0.6370    2.6460 C   0  0  1  0  0  0  0  0  0  0  0  0
   -4.0140    0.5320    3.9270 C   0  0  0  0  0  0  0  0  0  0  0  0
   -5.7340    1.8390    2.8360 C   0  0  0  0  0  0  0  0  0  0  0  0
   -5.6850   -0.5630    2.5230 C   0  0  0  0  0  0  0  0  0  0  0  0
  1  2  1  0
  2  3  2  0
  2  8  1  0
  3  4  1  0
  3  5  1  0
  5  6  2  0
  6  7  1  0
  7  8  2  0
  8  9  1  0
  9 10  2  0
  9 11  1  0
 11 12  1  0
 12 13  1  6
 12 21  1  0
 13 14  1  0
 14 15  1  0
 15 16  2  0
 15 20  1  0
 16 17  1  0
 17 18  2  0
 18 19  1  0
 19 20  2  0
 21 22  1  1
 21 23  1  0
 24 23  1  6
 24 25  1  0
 24 33  1  0
 26 25  1  1
 26 27  1  0
 26 31  1  0
 27 28  1  0
 28 29  1  0
 29 30  1  0
 31 30  1  1
 31 32  1  0
 32 33  1  0
 33 34  1  1
 34 35  2  0
 34 36  1  0
 36 37  1  0
 37 38  1  1
 37 39  1  0
 37 40  1  0
M  CHG  1  24   1
M  END
