
     RDKit          3D

 40 44  0  0  0  0  0  0  0  0999 V2000
   -5.8210   -5.0890    1.5590 C   0  0  0  0  0  0  0  0  0  0  0  0
   -4.5580   -4.5600    1.2050 O   0  0  0  0  0  0  0  0  0  0  0  0
   -4.2820   -3.1680    1.2600 C   0  0  0  0  0  0  0  0  0  0  0  0
   -5.2410   -2.4890    1.6410 O   0  0  0  0  0  0  0  0  0  0  0  0
   -2.9540   -2.7050    0.8790 C   0  0  0  0  0  0  0  0  0  0  0  0
   -1.9580   -3.5610    0.4660 N   0  0  0  0  0  0  0  0  0  0  0  0
   -0.8530   -2.8850    0.1800 C   0  0  0  0  0  0  0  0  0  0  0  0
    0.4530   -3.4730   -0.3010 C   0  0  0  0  0  0  0  0  0  0  0  0
   -1.1410   -1.5560    0.4130 C   0  0  0  0  0  0  0  0  0  0  0  0
   -0.1930   -0.4870    0.2150 C   0  0  0  0  0  0  0  0  0  0  0  0
    0.5610   -0.1320    1.1460 O   0  0  0  0  0  0  0  0  0  0  0  0
   -0.1130    0.1490   -1.0000 O   0  0  0  0  0  0  0  0  0  0  0  0
    0.7740    1.1860   -1.2160 C   0  0  0  0  0  0  0  0  0  0  0  0
    2.1790    0.7770   -1.0220 C   0  0  0  0  0  0  0  0  0  0  0  0
    2.6250   -0.5090   -1.1360 C   0  0  0  0  0  0  0  0  0  0  0  0
    3.9370   -0.8500   -0.9460 C   0  0  0  0  0  0  0  0  0  0  0  0
    4.4560   -2.2190   -1.0580 C   0  0  0  0  0  0  0  0  0  0  0  0
    4.8180    0.1710   -0.6290 C   0  0  0  0  0  0  0  0  0  0  0  0
    4.4260    1.4760   -0.5030 C   0  0  0  0  0  0  0  0  0  0  0  0
    3.0800    1.7730   -0.7050 C   0  0  0  0  0  0  0  0  0  0  0  0
    5.3000    2.5910   -0.1740 C   0  0  0  0  0  0  0  0  0  0  0  0
    6.7490    2.2010    0.0260 C   0  0  0  0  0  0  0  0  0  0  0  0
    7.1470    0.9320   -0.0940 C   0  0  0  0  0  0  0  0  0  0  0  0
    8.4820    0.6460    0.1020 C   0  0  0  0  0  0  0  0  0  0  0  0
    9.2320    2.2050    0.4700 S   0  0  0  0  0  0  0  0  0  0  0  0
    7.7070    3.1690    0.3420 C   0  0  0  0  0  0  0  0  0  0  0  0
    7.5590    4.8810    0.5710 Cl  0  0  0  0  0  0  0  0  0  0  0  0
    6.1820   -0.1180   -0.4260 N   0  0  0  0  0  0  0  0  0  0  0  0
   -2.4620   -1.4160    0.8550 C   0  0  0  0  0  0  0  0  0  0  0  0
   -3.1670   -0.2150    1.2100 C   0  0  0  0  0  0  0  0  0  0  0  0
   -4.3870   -0.2550    1.6160 O   0  0  0  0  0  0  0  0  0  0  0  0
   -2.6640    1.1160    1.1720 N   0  0  0  0  0  0  0  0  0  0  0  0
   -3.4930    2.2640    1.5630 C   0  0  0  0  0  0  0  0  0  0  0  0
   -4.4610    2.6250    0.5340 C   0  0  0  0  0  0  0  0  0  0  0  0
   -5.2990    3.6980    0.6910 C   0  0  0  0  0  0  0  0  0  0  0  0
   -6.2390    4.0710   -0.2690 C   0  0  0  0  0  0  0  0  0  0  0  0
   -6.2760    3.2830   -1.4040 C   0  0  0  0  0  0  0  0  0  0  0  0
   -5.4530    2.1970   -1.6030 C   0  0  0  0  0  0  0  0  0  0  0  0
   -5.5420    1.2260   -3.0700 Cl  0  0  0  0  0  0  0  0  0  0  0  0
   -4.5430    1.8790   -0.6140 C   0  0  0  0  0  0  0  0  0  0  0  0
  1  2  1  0
  2  3  1  0
  3  4  2  0
  3  5  1  0
  5  6  1  0
  5 29  2  0
  6  7  1  0
  7  8  1  0
  7  9  2  0
  9 10  1  0
  9 29  1  0
 10 11  2  0
 10 12  1  0
 12 13  1  0
 13 14  1  0
 14 15  2  0
 14 20  1  0
 15 16  1  0
 16 17  1  0
 16 18  2  0
 18 19  1  0
 18 28  1  0
 19 20  2  0
 19 21  1  0
 21 22  1  0
 22 23  1  0
 22 26  2  0
 23 24  2  0
 23 28  1  0
 24 25  1  0
 25 26  1  0
 26 27  1  0
 29 30  1  0
 30 31  2  0
 30 32  1  0
 32 33  1  0
 33 34  1  0
 34 35  2  0
 34 40  1  0
 35 36  1  0
 36 37  2  0
 37 38  1  0
 38 39  1  0
 38 40  2  0
M  END
