
     RDKit          3D

 40 44  0  0  0  0  0  0  0  0999 V2000
   -8.0880    0.5480   -0.9070 C   0  0  0  0  0  0  0  0  0  0  0  0
   -6.7160    0.4540   -0.3100 C   0  0  0  0  0  0  0  0  0  0  0  0
   -6.2760    1.4320    0.5790 C   0  0  0  0  0  0  0  0  0  0  0  0
   -5.0360    1.3510    1.1220 C   0  0  0  0  0  0  0  0  0  0  0  0
   -4.1720    0.3250    0.8220 C   0  0  0  0  0  0  0  0  0  0  0  0
   -2.9210    0.2710    1.3780 C   0  0  0  0  0  0  0  0  0  0  0  0
   -2.5620    1.1840    2.2140 O   0  0  0  0  0  0  0  0  0  0  0  0
   -2.0670   -0.7790    1.0240 C   0  0  0  0  0  0  0  0  0  0  0  0
   -0.8730   -1.0270    1.7840 C   0  0  0  0  0  0  0  0  0  0  0  0
    0.3580   -0.7680    1.0250 N   0  0  0  0  0  0  0  0  0  0  0  0
    0.9450    0.4950    1.1150 C   0  0  0  0  0  0  0  0  0  0  0  0
    0.2270    1.2810    1.9370 O   0  0  0  0  0  0  0  0  0  0  0  0
    2.1000    1.1580    0.5670 C   0  0  0  0  0  0  0  0  0  0  0  0
    2.2050    2.5340    0.9090 C   0  0  0  0  0  0  0  0  0  0  0  0
    3.2340    3.2900    0.4490 C   0  0  0  0  0  0  0  0  0  0  0  0
    3.3030    4.9900    0.8790 Cl  0  0  0  0  0  0  0  0  0  0  0  0
    4.2170    2.7670   -0.3610 C   0  0  0  0  0  0  0  0  0  0  0  0
    5.3450    3.6480   -0.7650 C   0  0  0  0  0  0  0  0  0  0  0  0
    6.1160    4.3080    0.0820 C   0  0  0  0  0  0  0  0  0  0  0  0
    7.1420    5.0930   -0.3740 C   0  0  0  0  0  0  0  0  0  0  0  0
    7.0130    4.8920   -2.1920 S   0  0  0  0  0  0  0  0  0  0  0  0
    5.6120    3.7860   -2.1180 C   0  0  0  0  0  0  0  0  0  0  0  0
    4.1010    1.4520   -0.6780 C   0  0  0  0  0  0  0  0  0  0  0  0
    3.0430    0.6100   -0.2270 C   0  0  0  0  0  0  0  0  0  0  0  0
    3.1770   -0.6530   -0.6840 O   0  0  0  0  0  0  0  0  0  0  0  0
    3.3960   -1.8570   -0.1080 C   0  0  0  0  0  0  0  0  0  0  0  0
    2.6670   -2.9770   -0.3730 C   0  0  0  0  0  0  0  0  0  0  0  0
    2.9510   -4.1810    0.2690 C   0  0  0  0  0  0  0  0  0  0  0  0
    2.2090   -5.3470    0.0030 O   0  0  0  0  0  0  0  0  0  0  0  0
    3.9400   -4.2380    1.1460 N   0  0  0  0  0  0  0  0  0  0  0  0
    4.7210   -3.1700    1.4680 C   0  0  0  0  0  0  0  0  0  0  0  0
    4.4140   -2.0020    0.8210 C   0  0  0  0  0  0  0  0  0  0  0  0
    5.3880   -0.5830    1.2180 Cl  0  0  0  0  0  0  0  0  0  0  0  0
   -2.5060   -1.7460    0.1060 C   0  0  0  0  0  0  0  0  0  0  0  0
   -1.6810   -2.8750   -0.2660 C   0  0  0  0  0  0  0  0  0  0  0  0
   -3.7430   -1.6550   -0.4040 N   0  0  0  0  0  0  0  0  0  0  0  0
   -4.6140   -0.6620   -0.0840 C   0  0  0  0  0  0  0  0  0  0  0  0
   -5.8660   -0.5850   -0.6240 C   0  0  0  0  0  0  0  0  0  0  0  0
   -6.3970   -1.6350   -1.4850 C   0  0  0  0  0  0  0  0  0  0  0  0
   -6.3610   -1.7010   -2.7190 O   0  0  0  0  0  0  0  0  0  0  0  0
  1  2  1  0
  2  3  2  0
  2 38  1  0
  3  4  1  0
  4  5  2  0
  5  6  1  0
  5 37  1  0
  6  7  2  0
  6  8  1  0
  8  9  1  0
  8 34  2  0
  9 10  1  0
 10 11  1  0
 11 12  2  0
 11 13  1  0
 13 14  2  0
 13 24  1  0
 14 15  1  0
 15 16  1  0
 15 17  2  0
 17 18  1  0
 17 23  1  0
 18 19  1  0
 18 22  2  0
 19 20  2  0
 20 21  1  0
 21 22  1  0
 23 24  2  0
 24 25  1  0
 25 26  1  0
 26 27  2  0
 26 32  1  0
 27 28  1  0
 28 29  1  0
 28 30  2  0
 30 31  1  0
 31 32  2  0
 32 33  1  0
 34 35  1  0
 34 36  1  0
 36 37  1  0
 37 38  2  0
 38 39  1  0
 39 40  2  0
M  END
