
     RDKit          3D

 40 44  0  0  0  0  0  0  0  0999 V2000
    7.8070    3.2260   -1.5230 C   0  0  0  0  0  0  0  0  0  0  0  0
    8.5110    2.1990   -1.0780 C   0  0  0  0  0  0  0  0  0  0  0  0
    9.9020    1.9380   -1.5950 C   0  0  0  0  0  0  0  0  0  0  0  0
   10.5930    1.3720    0.0240 S   0  0  0  0  0  0  0  0  0  0  0  0
    9.0240    0.6720    0.6100 C   0  0  0  0  0  0  0  0  0  0  0  0
    8.0870    1.2400   -0.0970 C   0  0  0  0  0  0  0  0  0  0  0  0
    6.6810    0.9330    0.0760 N   0  0  0  0  0  0  0  0  0  0  0  0
    6.1710    0.0080    0.9900 C   0  0  0  0  0  0  0  0  0  0  0  0
    6.9530   -0.6270    1.7390 O   0  0  0  0  0  0  0  0  0  0  0  0
    4.7420   -0.2790    1.1390 C   0  0  0  0  0  0  0  0  0  0  0  0
    4.2880   -1.1030    2.1580 C   0  0  0  0  0  0  0  0  0  0  0  0
    2.9460   -1.3890    2.3130 C   0  0  0  0  0  0  0  0  0  0  0  0
    1.9890   -0.8580    1.4490 C   0  0  0  0  0  0  0  0  0  0  0  0
    0.6800   -1.1660    1.6410 O   0  0  0  0  0  0  0  0  0  0  0  0
   -0.1560   -1.8580    0.7720 C   0  0  0  0  0  0  0  0  0  0  0  0
    0.2710   -2.3730   -0.4130 C   0  0  0  0  0  0  0  0  0  0  0  0
   -0.6130   -3.0520   -1.2380 C   0  0  0  0  0  0  0  0  0  0  0  0
    0.0210   -3.6810   -2.7430 Cl  0  0  0  0  0  0  0  0  0  0  0  0
   -1.9240   -3.2170   -0.8820 C   0  0  0  0  0  0  0  0  0  0  0  0
   -2.3390   -2.6960    0.3100 C   0  0  0  0  0  0  0  0  0  0  0  0
   -1.4900   -2.0190    1.1490 C   0  0  0  0  0  0  0  0  0  0  0  0
   -1.9140   -1.5060    2.3260 O   0  0  0  0  0  0  0  0  0  0  0  0
   -3.2190   -1.6050    2.7650 C   0  0  0  0  0  0  0  0  0  0  0  0
   -4.2390   -0.9280    1.9240 C   0  0  0  0  0  0  0  0  0  0  0  0
   -5.4460   -1.1140    2.2140 O   0  0  0  0  0  0  0  0  0  0  0  0
   -3.9360   -0.0920    0.8280 N   0  0  0  0  0  0  0  0  0  0  0  0
   -4.8390    0.5810   -0.0170 C   0  0  0  0  0  0  0  0  0  0  0  0
   -4.3110    1.2790   -1.1060 C   0  0  0  0  0  0  0  0  0  0  0  0
   -5.0900    1.9790   -2.0020 C   0  0  0  0  0  0  0  0  0  0  0  0
   -6.4570    2.0270   -1.8620 C   0  0  0  0  0  0  0  0  0  0  0  0
   -7.4270    2.6330   -2.5920 N   0  0  0  0  0  0  0  0  0  0  0  0
   -8.6140    2.3390   -1.9860 C   0  0  0  0  0  0  0  0  0  0  0  0
   -8.3610    1.5540   -0.8900 C   0  0  0  0  0  0  0  0  0  0  0  0
   -9.3590    1.0290    0.0230 C   0  0  0  0  0  0  0  0  0  0  0  0
   -9.0740    0.3120    1.0160 O   0  0  0  0  0  0  0  0  0  0  0  0
   -7.0060    1.3520   -0.8020 C   0  0  0  0  0  0  0  0  0  0  0  0
   -6.2020    0.6410    0.1040 C   0  0  0  0  0  0  0  0  0  0  0  0
    2.4310   -0.0490    0.4490 C   0  0  0  0  0  0  0  0  0  0  0  0
    1.2860    0.6780   -0.6610 Cl  0  0  0  0  0  0  0  0  0  0  0  0
    3.7980    0.2400    0.2930 C   0  0  0  0  0  0  0  0  0  0  0  0
  1  2  2  0
  2  3  1  0
  2  6  1  0
  3  4  1  0
  4  5  1  0
  5  6  2  0
  6  7  1  0
  7  8  1  0
  8  9  2  0
  8 10  1  0
 10 11  2  0
 10 40  1  0
 11 12  1  0
 12 13  2  0
 13 14  1  0
 13 38  1  0
 14 15  1  0
 15 16  2  0
 15 21  1  0
 16 17  1  0
 17 18  1  0
 17 19  2  0
 19 20  1  0
 20 21  2  0
 21 22  1  0
 22 23  1  0
 23 24  1  0
 24 25  2  0
 24 26  1  0
 26 27  1  0
 27 28  2  0
 27 37  1  0
 28 29  1  0
 29 30  2  0
 30 31  1  0
 30 36  1  0
 31 32  1  0
 32 33  2  0
 33 34  1  0
 33 36  1  0
 34 35  2  0
 36 37  2  0
 38 39  1  0
 38 40  2  0
M  END
