
     RDKit          3D

 40 44  0  0  0  0  0  0  0  0999 V2000
   -7.6780    4.3850   -0.3710 C   0  0  0  0  0  0  0  0  0  0  0  0
   -7.0840    3.1480   -0.2070 C   0  0  0  0  0  0  0  0  0  0  0  0
   -8.1920    1.7110   -0.3930 Cl  0  0  0  0  0  0  0  0  0  0  0  0
   -5.8060    2.7210    0.1210 C   0  0  0  0  0  0  0  0  0  0  0  0
   -4.8450    4.2060    0.3420 Cl  0  0  0  0  0  0  0  0  0  0  0  0
   -5.5140    1.3950    0.0730 C   0  0  0  0  0  0  0  0  0  0  0  0
   -4.5720    0.4820    0.2590 C   0  0  0  0  0  0  0  0  0  0  0  0
   -4.8790   -0.9520    0.0310 C   0  0  0  0  0  0  0  0  0  0  0  0
   -3.6190   -1.8010    0.3670 S   0  0  1  0  0  0  0  0  0  0  0  0
   -3.7630   -2.6710    1.4800 O   0  0  0  0  0  0  0  0  0  0  0  0
   -3.0780   -2.6610   -1.1010 N   0  0  0  0  0  0  0  0  0  0  0  0
   -3.9990   -2.8220   -2.1420 C   0  0  0  0  0  0  0  0  0  0  0  0
   -4.2340   -1.8280   -3.1310 C   0  0  0  0  0  0  0  0  0  0  0  0
   -5.1630   -2.0980   -4.0870 C   0  0  0  0  0  0  0  0  0  0  0  0
   -5.8600   -3.2450   -4.1550 C   0  0  0  0  0  0  0  0  0  0  0  0
   -5.6700   -4.2640   -3.2130 C   0  0  0  0  0  0  0  0  0  0  0  0
   -4.7290   -3.9830   -2.2370 C   0  0  0  0  0  0  0  0  0  0  0  0
   -2.4340   -0.5080    0.6040 C   0  0  0  0  0  0  0  0  0  0  0  0
   -1.0590   -0.5810    0.7960 C   0  0  0  0  0  0  0  0  0  0  0  0
   -0.3470    0.5500    0.9830 C   0  0  0  0  0  0  0  0  0  0  0  0
    1.1270    0.5980    1.0820 C   0  0  0  0  0  0  0  0  0  0  0  0
    1.7920    0.0040    0.1490 O   0  0  0  0  0  0  0  0  0  0  0  0
    1.8580    1.2360    2.0940 N   0  0  0  0  0  0  0  0  0  0  0  0
    3.2800    1.3000    2.0850 C   0  0  0  0  0  0  0  0  0  0  0  0
    4.0540    2.1380    2.8510 C   0  0  0  0  0  0  0  0  0  0  0  0
    5.3300    2.0070    2.5290 N   0  0  0  0  0  0  0  0  0  0  0  0
    5.4730    1.0780    1.5430 C   0  0  0  0  0  0  0  0  0  0  0  0
    6.7340    0.7460    0.9290 C   0  0  0  0  0  0  0  0  0  0  0  0
    7.8010    1.3720    1.2410 O   0  0  0  0  0  0  0  0  0  0  0  0
    6.9080   -0.2490   -0.0240 O   0  0  0  0  0  0  0  0  0  0  0  0
    8.1930   -0.4890   -0.5670 C   0  0  0  0  0  0  0  0  0  0  0  0
    9.1680   -0.8880    0.5110 C   0  0  0  0  0  0  0  0  0  0  0  0
    8.7410   -1.2590    1.7640 C   0  0  0  0  0  0  0  0  0  0  0  0
    9.8310   -1.5620    2.4750 C   0  0  0  0  0  0  0  0  0  0  0  0
   10.9220   -1.3610    1.6180 C   0  0  0  0  0  0  0  0  0  0  0  0
   10.4700   -0.9580    0.4620 O   0  0  0  0  0  0  0  0  0  0  0  0
    4.1900    0.6350    1.2700 C   0  0  0  0  0  0  0  0  0  0  0  0
   -1.0460    1.7710    0.9820 C   0  0  0  0  0  0  0  0  0  0  0  0
   -2.4120    1.7990    0.7850 C   0  0  0  0  0  0  0  0  0  0  0  0
   -3.1590    0.6530    0.5840 C   0  0  0  0  0  0  0  0  0  0  0  0
  1  2  1  0
  2  3  1  0
  2  4  2  3
  4  5  1  0
  4  6  1  0
  6  7  2  3
  7  8  1  0
  7 40  1  0
  8  9  2  0
  9 10  2  0
  9 11  1  6
  9 18  1  0
 11 12  1  0
 12 13  2  0
 12 17  1  0
 13 14  1  0
 14 15  2  0
 15 16  1  0
 16 17  2  0
 18 19  2  0
 18 40  1  0
 19 20  1  0
 20 21  1  0
 20 38  2  0
 21 22  2  0
 21 23  1  0
 23 24  1  0
 24 25  2  0
 24 37  1  0
 25 26  1  0
 26 27  1  0
 27 28  1  0
 27 37  2  0
 28 29  2  0
 28 30  1  0
 30 31  1  0
 31 32  1  0
 32 33  2  0
 32 36  1  0
 33 34  1  0
 34 35  2  0
 35 36  1  0
 38 39  1  0
 39 40  2  0
M  END
