
     RDKit          3D

 40 43  0  0  0  0  0  0  0  0999 V2000
    5.9430   -2.6190    0.9940 C   0  0  0  0  0  0  0  0  0  0  0  0
    5.8280   -2.7930   -0.4800 C   0  0  0  0  0  0  0  0  0  0  0  0
    6.7020   -3.6030   -1.1800 C   0  0  0  0  0  0  0  0  0  0  0  0
    7.7490   -4.2610   -0.5610 O   0  0  0  0  0  0  0  0  0  0  0  0
    6.5790   -3.8060   -2.5580 C   0  0  0  0  0  0  0  0  0  0  0  0
    5.5660   -3.1800   -3.2200 C   0  0  0  0  0  0  0  0  0  0  0  0
    4.7040   -2.3780   -2.5210 C   0  0  0  0  0  0  0  0  0  0  0  0
    4.8090   -2.1690   -1.1720 C   0  0  0  0  0  0  0  0  0  0  0  0
    3.8460   -1.2640   -0.4890 C   0  0  0  0  0  0  0  0  0  0  0  0
    3.7650   -1.2700    0.7820 O   0  0  0  0  0  0  0  0  0  0  0  0
    3.0020   -0.3880   -1.1710 N   0  0  0  0  0  0  0  0  0  0  0  0
    2.0400    0.5210   -0.5790 C   0  0  1  0  0  0  0  0  0  0  0  0
    2.2010    1.9170   -1.1100 C   0  0  0  0  0  0  0  0  0  0  0  0
    3.7980    2.6650   -0.7850 S   0  0  0  0  0  0  0  0  0  0  0  0
    3.9270    3.0780    0.9410 C   0  0  0  0  0  0  0  0  0  0  0  0
    4.3850    2.1830    1.8570 C   0  0  0  0  0  0  0  0  0  0  0  0
    4.4810    2.5530    3.2020 C   0  0  0  0  0  0  0  0  0  0  0  0
    4.1110    3.8080    3.5610 C   0  0  0  0  0  0  0  0  0  0  0  0
    3.6390    4.7480    2.6490 C   0  0  0  0  0  0  0  0  0  0  0  0
    3.5650    4.3370    1.3540 C   0  0  0  0  0  0  0  0  0  0  0  0
    0.6710    0.0040   -0.9590 C   0  0  2  0  0  0  0  0  0  0  0  0
    0.5670   -0.0400   -2.3700 O   0  0  0  0  0  0  0  0  0  0  0  0
   -0.4540    0.8150   -0.3760 C   0  0  0  0  0  0  0  0  0  0  0  0
   -1.7680    0.2370   -0.7050 N   0  0  2  0  0  0  0  0  0  0  0  0
   -2.2320    0.8990   -1.8750 C   0  0  0  0  0  0  0  0  0  0  0  0
   -2.9640    2.1840   -1.5530 C   0  0  1  0  0  0  0  0  0  0  0  0
   -3.3260    2.9260   -2.7960 C   0  0  0  0  0  0  0  0  0  0  0  0
   -4.7550    3.4180   -2.7940 C   0  0  0  0  0  0  0  0  0  0  0  0
   -5.7290    2.2760   -2.7580 C   0  0  0  0  0  0  0  0  0  0  0  0
   -5.2260    1.1830   -1.8460 C   0  0  0  0  0  0  0  0  0  0  0  0
   -4.2240    1.7570   -0.8320 C   0  0  1  0  0  0  0  0  0  0  0  0
   -3.9810    0.8000    0.2800 C   0  0  0  0  0  0  0  0  0  0  0  0
   -2.6240    0.2530    0.4240 C   0  0  1  0  0  0  0  0  0  0  0  0
   -2.7390   -1.1080    0.9940 C   0  0  0  0  0  0  0  0  0  0  0  0
   -2.1030   -2.0790    0.4670 O   0  0  0  0  0  0  0  0  0  0  0  0
   -3.5400   -1.3380    2.1060 N   0  0  0  0  0  0  0  0  0  0  0  0
   -3.7380   -2.6170    2.7490 C   0  0  1  0  0  0  0  0  0  0  0  0
   -2.4800   -3.2730    3.2080 C   0  0  0  0  0  0  0  0  0  0  0  0
   -4.5510   -2.3250    4.0370 C   0  0  0  0  0  0  0  0  0  0  0  0
   -4.5980   -3.4720    1.8820 C   0  0  0  0  0  0  0  0  0  0  0  0
  1  2  1  0
  2  3  2  0
  2  8  1  0
  3  4  1  0
  3  5  1  0
  5  6  2  0
  6  7  1  0
  7  8  2  0
  8  9  1  0
  9 10  2  0
  9 11  1  0
 11 12  1  0
 12 13  1  6
 12 21  1  0
 13 14  1  0
 14 15  1  0
 15 16  2  0
 15 20  1  0
 16 17  1  0
 17 18  2  0
 18 19  1  0
 19 20  2  0
 21 22  1  6
 21 23  1  0
 24 23  1  1
 24 25  1  0
 24 33  1  0
 26 25  1  6
 26 27  1  0
 26 31  1  0
 27 28  1  0
 28 29  1  0
 29 30  1  0
 31 30  1  6
 31 32  1  0
 32 33  1  0
 33 34  1  6
 34 35  2  0
 34 36  1  0
 36 37  1  0
 37 38  1  1
 37 39  1  0
 37 40  1  0
M  CHG  1  24   1
M  END
