
     RDKit          3D

 40 44  0  0  0  0  0  0  0  0999 V2000
   -0.9580    2.4460   -4.2400 C   0  0  0  0  0  0  0  0  0  0  0  0
   -0.6070    2.0630   -2.9140 O   0  0  0  0  0  0  0  0  0  0  0  0
   -1.6040    1.5250   -2.1210 C   0  0  0  0  0  0  0  0  0  0  0  0
   -2.8940    1.3630   -2.5680 C   0  0  0  0  0  0  0  0  0  0  0  0
   -3.8220    0.8190   -1.7130 C   0  0  0  0  0  0  0  0  0  0  0  0
   -3.5140    0.4200   -0.4060 C   0  0  0  0  0  0  0  0  0  0  0  0
   -4.5800   -0.1620    0.4130 C   0  0  0  0  0  0  0  0  0  0  0  0
   -4.4630   -1.3040    0.9630 O   0  0  0  0  0  0  0  0  0  0  0  0
   -5.7880    0.5310    0.6200 N   0  0  0  0  0  0  0  0  0  0  0  0
   -6.8920    0.0800    1.3700 C   0  0  0  0  0  0  0  0  0  0  0  0
   -6.9790    0.3420    2.7130 C   0  0  0  0  0  0  0  0  0  0  0  0
   -5.7170    1.2420    3.5680 Cl  0  0  0  0  0  0  0  0  0  0  0  0
   -8.0820   -0.1080    3.4300 C   0  0  0  0  0  0  0  0  0  0  0  0
   -8.1950    0.2290    5.1520 Cl  0  0  0  0  0  0  0  0  0  0  0  0
   -9.1060   -0.8150    2.8380 C   0  0  0  0  0  0  0  0  0  0  0  0
   -9.0040   -1.0690    1.4910 C   0  0  0  0  0  0  0  0  0  0  0  0
   -9.8210   -1.7340    0.5810 C   0  0  0  0  0  0  0  0  0  0  0  0
   -9.2220   -1.6880   -0.6680 C   0  0  0  0  0  0  0  0  0  0  0  0
   -8.0870   -1.0230   -0.5270 N   0  0  0  0  0  0  0  0  0  0  0  0
   -7.9190   -0.6310    0.7690 C   0  0  0  0  0  0  0  0  0  0  0  0
   -2.2200    0.5930    0.0170 C   0  0  0  0  0  0  0  0  0  0  0  0
   -1.8580    0.1970    1.3690 C   0  0  0  0  0  0  0  0  0  0  0  0
   -0.6990    0.3170    1.8530 O   0  0  0  0  0  0  0  0  0  0  0  0
   -1.2730    1.1340   -0.8170 C   0  0  0  0  0  0  0  0  0  0  0  0
    0.0560    1.3300   -0.4500 O   0  0  0  0  0  0  0  0  0  0  0  0
    0.9190    0.2540   -0.7170 C   0  0  0  0  0  0  0  0  0  0  0  0
    2.3450    0.5310   -0.3340 C   0  0  0  0  0  0  0  0  0  0  0  0
    2.7130    1.6190    0.1250 O   0  0  0  0  0  0  0  0  0  0  0  0
    3.2430   -0.5400   -0.5330 N   0  0  0  0  0  0  0  0  0  0  0  0
    4.6010   -0.4230   -0.2300 C   0  0  0  0  0  0  0  0  0  0  0  0
    5.4160    0.5440    0.2340 C   0  0  0  0  0  0  0  0  0  0  0  0
    6.7250    0.3060    0.4290 C   0  0  0  0  0  0  0  0  0  0  0  0
    7.6960    1.2070    0.9050 C   0  0  0  0  0  0  0  0  0  0  0  0
    8.9990    0.8270    1.0550 C   0  0  0  0  0  0  0  0  0  0  0  0
    9.4630   -0.4210    0.7680 C   0  0  0  0  0  0  0  0  0  0  0  0
   10.8690   -0.7870    0.9490 C   0  0  0  0  0  0  0  0  0  0  0  0
    8.5360   -1.3400    0.2960 C   0  0  0  0  0  0  0  0  0  0  0  0
    8.9370   -2.7340   -0.0520 C   0  0  0  0  0  0  0  0  0  0  0  0
    7.2060   -0.9370    0.1460 C   0  0  0  0  0  0  0  0  0  0  0  0
    5.7520   -1.8320   -0.4260 S   0  0  0  0  0  0  0  0  0  0  0  0
  1  2  1  0
  2  3  1  0
  3  4  2  0
  3 24  1  0
  4  5  1  0
  5  6  2  0
  6  7  1  0
  6 21  1  0
  7  8  2  0
  7  9  1  0
  9 10  1  0
 10 11  2  0
 10 20  1  0
 11 12  1  0
 11 13  1  0
 13 14  1  0
 13 15  2  0
 15 16  1  0
 16 17  1  0
 16 20  2  0
 17 18  2  0
 18 19  1  0
 19 20  1  0
 21 22  1  0
 21 24  2  0
 22 23  2  0
 24 25  1  0
 25 26  1  0
 26 27  1  0
 27 28  2  0
 27 29  1  0
 29 30  1  0
 30 31  2  0
 30 40  1  0
 31 32  1  0
 32 33  2  0
 32 39  1  0
 33 34  1  0
 34 35  2  0
 35 36  1  0
 35 37  1  0
 37 38  1  0
 37 39  2  0
 39 40  1  0
M  END
