
     RDKit          3D

  9  8  0  0  0  0  0  0  0  0999 V2000
    1.1100   -1.5720   -0.0350 C   0  0  0  0  0  0  0  0  0  0  0  0
    0.7970   -0.1090   -0.0170 C   0  0  1  0  0  0  0  0  0  0  0  0
    1.3990    0.4690    1.2550 C   0  0  0  0  0  0  0  0  0  0  0  0
    1.3790    0.5980   -1.1230 N   0  0  0  0  0  0  0  0  0  0  0  0
   -0.7090    0.0840   -0.0190 C   0  0  2  0  0  0  0  0  0  0  0  0
   -1.0760    1.5520   -0.0010 C   0  0  0  0  0  0  0  0  0  0  0  0
   -1.3510   -0.5500    1.1830 C   0  0  0  0  0  0  0  0  0  0  0  0
   -1.3000   -0.5210   -1.2510 C   0  0  0  0  0  0  0  0  0  0  0  0
   -3.0760   -0.2470   -1.1680 Cl  0  0  0  0  0  0  0  0  0  0  0  0
  2  1  1  6
  2  3  1  0
  2  4  1  0
  2  5  1  0
  5  6  1  6
  5  7  1  0
  5  8  1  0
  8  9  1  0
M  CHG  1   4   1
M  END
