
     RDKit          3D

  9  9  0  0  0  0  0  0  0  0999 V2000
    2.4720   -0.0870    0.0870 C   0  0  0  0  0  0  0  0  0  0  0  0
    1.0240   -0.4170    0.0120 C   0  0  0  0  0  0  0  0  0  0  0  0
    0.4950   -1.6270   -0.0720 C   0  0  0  0  0  0  0  0  0  0  0  0
   -0.9640   -1.5310   -0.1250 C   0  0  0  0  0  0  0  0  0  0  0  0
   -1.3540   -0.2770   -0.0750 C   0  0  0  0  0  0  0  0  0  0  0  0
   -2.6610    0.2870   -0.0980 N   0  0  0  0  0  0  0  0  0  0  0  0
   -0.1060    0.5140    0.0160 C   0  0  0  0  0  0  0  0  0  0  0  0
   -0.0370    1.8110    0.0860 C   0  0  0  0  0  0  0  0  0  0  0  0
   -1.4480    2.8450    0.0830 Cl  0  0  0  0  0  0  0  0  0  0  0  0
  1  2  1  0
  2  3  2  0
  2  7  1  0
  3  4  1  0
  4  5  2  0
  5  6  1  0
  5  7  1  0
  7  8  2  3
  8  9  1  0
M  END
