
     RDKit          3D

  9  9  0  0  0  0  0  0  0  0999 V2000
   -2.3670   -0.5690    0.2190 C   0  0  0  0  0  0  0  0  0  0  0  0
   -0.9140   -0.2870    0.0080 C   0  0  0  0  0  0  0  0  0  0  0  0
   -0.1030   -1.3220   -0.1400 C   0  0  0  0  0  0  0  0  0  0  0  0
    1.3220   -1.2820   -0.3530 N   0  0  0  0  0  0  0  0  0  0  0  0
    2.2470   -0.2240   -0.0860 C   0  0  0  0  0  0  0  0  0  0  0  0
    1.9450    1.0540    0.0740 C   0  0  0  0  0  0  0  0  0  0  0  0
    0.6380    1.6980    0.0230 C   0  0  0  0  0  0  0  0  0  0  0  0
   -0.5780    1.1330   -0.0050 C   0  0  0  0  0  0  0  0  0  0  0  0
   -1.9230    2.2170   -0.0660 Cl  0  0  0  0  0  0  0  0  0  0  0  0
  1  2  1  0
  2  3  2  0
  2  8  1  0
  3  4  1  0
  4  5  1  0
  5  6  2  0
  6  7  1  0
  7  8  2  0
  8  9  1  0
M  END
