
     RDKit          3D

  9  9  0  0  0  0  0  0  0  0999 V2000
   -1.5770    1.6840   -0.4670 N   0  0  0  0  0  0  0  0  0  0  0  0
   -1.1840    0.3830   -0.9430 C   0  0  0  0  0  0  0  0  0  0  0  0
   -0.7510   -0.5010    0.1860 C   0  0  1  0  0  0  0  0  0  0  0  0
    0.4260    0.0040    0.9920 C   0  0  0  0  0  0  0  0  0  0  0  0
    1.5820    0.1270   -0.0070 C   0  0  0  0  0  0  0  0  0  0  0  0
    2.8300    0.6270    0.6820 C   0  0  0  0  0  0  0  0  0  0  0  0
    4.1010    0.7300   -0.5690 Cl  0  0  0  0  0  0  0  0  0  0  0  0
   -1.7220   -1.4430    0.7850 C   0  0  0  0  0  0  0  0  0  0  0  0
   -0.6870   -2.0060   -0.1150 C   0  0  0  0  0  0  0  0  0  0  0  0
  1  2  1  0
  3  2  1  6
  3  4  1  0
  3  8  1  0
  3  9  1  0
  4  5  1  0
  5  6  1  0
  6  7  1  0
  8  9  1  0
M  CHG  1   1   1
M  END
