
     RDKit          3D

  9  9  0  0  0  0  0  0  0  0999 V2000
    0.6560    2.0400   -0.2780 C   0  0  0  0  0  0  0  0  0  0  0  0
   -0.0500    0.9400   -0.1240 C   0  0  0  0  0  0  0  0  0  0  0  0
   -1.4710    0.9210   -0.1070 N   0  0  0  0  0  0  0  0  0  0  0  0
   -2.1730   -0.3040    0.0640 C   0  0  0  0  0  0  0  0  0  0  0  0
   -1.5480   -1.4630    0.2120 C   0  0  0  0  0  0  0  0  0  0  0  0
   -2.4970   -2.9290    0.4180 Cl  0  0  0  0  0  0  0  0  0  0  0  0
   -0.0890   -1.4800    0.1990 C   0  0  0  0  0  0  0  0  0  0  0  0
    0.6110   -0.3690    0.0430 C   0  0  0  0  0  0  0  0  0  0  0  0
    2.0890   -0.3740    0.0280 C   0  0  0  0  0  0  0  0  0  0  0  0
  1  2  2  0
  2  3  1  0
  2  8  1  0
  3  4  1  0
  4  5  2  0
  5  6  1  0
  5  7  1  0
  7  8  2  0
  8  9  1  0
M  END
