
     RDKit          3D

  8  8  0  0  0  0  0  0  0  0999 V2000
    2.4420    0.3590    0.5220 C   0  0  0  0  0  0  0  0  0  0  0  0
    1.4240    0.2670   -0.5660 C   0  0  0  0  0  0  0  0  0  0  0  0
    0.0950   -0.2660   -0.1300 C   0  0  1  0  0  0  0  0  0  0  0  0
    0.2910   -1.6050    0.4030 N   0  0  0  0  0  0  0  0  0  0  0  0
   -0.5920    0.5780    0.8910 C   0  0  0  0  0  0  0  0  0  0  0  0
   -1.7230    1.2330    0.1010 C   0  0  0  0  0  0  0  0  0  0  0  0
   -2.1410    0.0480   -0.7780 C   0  0  0  0  0  0  0  0  0  0  0  0
   -0.8030   -0.3330   -1.3480 C   0  0  0  0  0  0  0  0  0  0  0  0
  1  2  1  0
  2  3  1  0
  3  4  1  1
  3  5  1  0
  3  8  1  0
  5  6  1  0
  6  7  1  0
  7  8  1  0
M  CHG  1   4   1
M  END
