
     RDKit          3D

 14 14  0  0  0  0  0  0  0  0999 V2000
   -1.8350   -1.8560    0.0040 N   0  0  0  0  0  0  0  0  0  0  0  0
   -1.5170   -0.8370   -0.9390 C   0  0  0  0  0  0  0  0  0  0  0  0
   -1.3190    0.5210   -0.3850 C   0  0  1  0  0  0  0  0  0  0  0  0
   -1.0140    1.3850   -1.4640 O   0  0  0  0  0  0  0  0  0  0  0  0
   -2.5910    1.1120    0.2100 C   0  0  0  0  0  0  0  0  0  0  0  0
   -2.0760    2.1630    1.0140 O   0  0  0  0  0  0  0  0  0  0  0  0
   -1.1460    1.4910    1.7480 C   0  0  0  0  0  0  0  0  0  0  0  0
   -0.3750    0.6620    0.7490 C   0  0  2  0  0  0  0  0  0  0  0  0
    0.7940    1.2240    0.3460 O   0  0  0  0  0  0  0  0  0  0  0  0
    1.9630    0.6210    0.6560 C   0  0  0  0  0  0  0  0  0  0  0  0
    2.0550   -0.7410    0.0410 C   0  0  2  0  0  0  0  0  0  0  0  0
    3.2440   -1.3960    0.4010 O   0  0  0  0  0  0  0  0  0  0  0  0
    2.1890   -0.5120   -1.4800 C   0  0  0  0  0  0  0  0  0  0  0  0
    3.3300    0.2720   -1.6960 O   0  0  0  0  0  0  0  0  0  0  0  0
  1  2  1  0
  2  3  1  0
  3  4  1  6
  3  5  1  0
  3  8  1  0
  5  6  1  0
  6  7  1  0
  7  8  1  0
  8  9  1  6
  9 10  1  0
 10 11  1  0
 11 12  1  1
 11 13  1  0
 13 14  1  0
M  CHG  1   1   1
M  END
