
     RDKit          3D

 10 10  0  0  0  0  0  0  0  0999 V2000
    3.0120    0.0980    0.1480 C   0  0  0  0  0  0  0  0  0  0  0  0
    1.5550   -0.2120    0.1280 C   0  0  0  0  0  0  0  0  0  0  0  0
    1.1660   -1.4200    0.0230 N   0  0  0  0  0  0  0  0  0  0  0  0
   -0.1710   -1.9040   -0.0120 C   0  0  0  0  0  0  0  0  0  0  0  0
   -1.2250   -0.8540   -0.1430 C   0  0  0  0  0  0  0  0  0  0  0  0
   -0.7420    0.5320   -0.3060 C   0  0  1  0  0  0  0  0  0  0  0  0
   -1.7500    1.4830    0.2700 C   0  0  0  0  0  0  0  0  0  0  0  0
   -1.4510    2.3710    1.0940 O   0  0  0  0  0  0  0  0  0  0  0  0
   -3.0600    1.3340   -0.1590 O   0  0  0  0  0  0  0  0  0  0  0  0
    0.5610    0.8000    0.2220 N   0  0  0  0  0  0  0  0  0  0  0  0
  1  2  1  0
  2  3  2  0
  2 10  1  0
  3  4  1  0
  4  5  1  0
  5  6  1  0
  6  7  1  1
  6 10  1  0
  7  8  2  0
  7  9  1  0
M  END
