
     RDKit          3D

 14 14  0  0  0  0  0  0  0  0999 V2000
    0.4320   -0.5840    1.9770 N   0  0  0  0  0  0  0  0  0  0  0  0
    0.4610   -0.0420    0.6170 C   0  0  1  0  0  0  0  0  0  0  0  0
    1.6790   -0.4390   -0.1420 C   0  0  2  0  0  0  0  0  0  0  0  0
    1.8810   -1.7820   -0.3080 O   0  0  0  0  0  0  0  0  0  0  0  0
    2.9140    0.1310    0.5410 C   0  0  0  0  0  0  0  0  0  0  0  0
    2.8190    1.4910    0.7610 O   0  0  0  0  0  0  0  0  0  0  0  0
   -0.8360   -0.1680   -0.0970 C   0  0  2  0  0  0  0  0  0  0  0  0
   -1.3650   -1.5480   -0.2830 C   0  0  0  0  0  0  0  0  0  0  0  0
   -0.5400   -2.3980   -1.0130 O   0  0  0  0  0  0  0  0  0  0  0  0
   -0.6870    0.4590   -1.4710 C   0  0  0  0  0  0  0  0  0  0  0  0
   -1.9160    1.0370   -1.8350 O   0  0  0  0  0  0  0  0  0  0  0  0
   -2.1940    2.1310   -1.0280 C   0  0  0  0  0  0  0  0  0  0  0  0
   -1.9020    1.9540    0.2980 O   0  0  0  0  0  0  0  0  0  0  0  0
   -1.8710    0.6210    0.6860 C   0  0  0  0  0  0  0  0  0  0  0  0
  2  1  1  1
  2  3  1  0
  2  7  1  0
  3  4  1  1
  3  5  1  0
  5  6  1  0
  7  8  1  6
  7 10  1  0
  7 14  1  0
  8  9  1  0
 10 11  1  0
 11 12  1  0
 12 13  1  0
 13 14  1  0
M  CHG  1   1   1
M  END
