
     RDKit          3D

 13 13  0  0  0  0  0  0  0  0999 V2000
   -0.6390   -1.8870   -0.8240 C   0  0  0  0  0  0  0  0  0  0  0  0
   -1.1600   -0.6600   -0.1010 C   0  0  2  0  0  0  0  0  0  0  0  0
   -1.9920   -1.0740    1.0410 N   0  0  0  0  0  0  0  0  0  0  0  0
   -2.0880    0.1120   -1.0260 C   0  0  0  0  0  0  0  0  0  0  0  0
   -2.6570    1.1450   -0.3140 O   0  0  0  0  0  0  0  0  0  0  0  0
   -1.7210    2.0280    0.1670 C   0  0  0  0  0  0  0  0  0  0  0  0
   -0.2980    1.6430   -0.2110 C   0  0  1  0  0  0  0  0  0  0  0  0
    0.5400    2.5700    0.4130 O   0  0  0  0  0  0  0  0  0  0  0  0
   -0.0450    0.2520    0.3460 C   0  0  2  0  0  0  0  0  0  0  0  0
    1.1700   -0.1730   -0.1800 O   0  0  0  0  0  0  0  0  0  0  0  0
    2.1250   -0.3640    0.8200 C   0  0  0  0  0  0  0  0  0  0  0  0
    3.4110   -0.8270    0.1280 C   0  0  0  0  0  0  0  0  0  0  0  0
    3.8620    0.1220   -0.7820 O   0  0  0  0  0  0  0  0  0  0  0  0
  2  1  1  6
  2  3  1  0
  2  4  1  0
  2  9  1  0
  4  5  1  0
  5  6  1  0
  6  7  1  0
  7  8  1  1
  7  9  1  0
  9 10  1  6
 10 11  1  0
 11 12  1  0
 12 13  1  0
M  CHG  1   3   1
M  END
