
     RDKit          3D

 14 14  0  0  0  0  0  0  0  0999 V2000
    0.7140   -1.7070   -0.1230 N   0  0  0  0  0  0  0  0  0  0  0  0
    0.4740   -0.6520    0.8170 C   0  0  1  0  0  0  0  0  0  0  0  0
    1.2950    0.5620    0.4870 C   0  0  0  0  0  0  0  0  0  0  0  0
    2.7900    0.2560    0.5130 C   0  0  1  0  0  0  0  0  0  0  0  0
    3.0720   -0.7310   -0.4190 O   0  0  0  0  0  0  0  0  0  0  0  0
    3.5080    1.5130    0.1170 C   0  0  0  0  0  0  0  0  0  0  0  0
    4.8860    1.3480    0.0630 O   0  0  0  0  0  0  0  0  0  0  0  0
   -0.9810   -0.2190    0.8210 C   0  0  2  0  0  0  0  0  0  0  0  0
   -1.7530   -1.2980    1.1620 O   0  0  0  0  0  0  0  0  0  0  0  0
   -2.7640   -1.4260    0.2160 C   0  0  0  0  0  0  0  0  0  0  0  0
   -2.7640   -0.0450   -0.4060 C   0  0  1  0  0  0  0  0  0  0  0  0
   -3.4760    0.9490    0.5120 C   0  0  0  0  0  0  0  0  0  0  0  0
   -4.8400    0.6910    0.5440 O   0  0  0  0  0  0  0  0  0  0  0  0
   -1.4040    0.2540   -0.4040 O   0  0  0  0  0  0  0  0  0  0  0  0
  2  1  1  6
  2  3  1  0
  2  8  1  0
  3  4  1  0
  4  5  1  6
  4  6  1  0
  6  7  1  0
  8  9  1  6
  8 14  1  0
  9 10  1  0
 10 11  1  0
 11 12  1  1
 11 14  1  0
 12 13  1  0
M  CHG  1   1   1
M  END
