
     RDKit          3D

 14 14  0  0  0  0  0  0  0  0999 V2000
    0.9350   -2.3500   -1.3910 N   0  0  0  0  0  0  0  0  0  0  0  0
    1.6470   -1.5460   -0.4300 C   0  0  2  0  0  0  0  0  0  0  0  0
    1.8230   -2.1980    0.7840 O   0  0  0  0  0  0  0  0  0  0  0  0
    0.9710   -0.2060   -0.1920 C   0  0  1  0  0  0  0  0  0  0  0  0
   -0.2920   -0.4370    0.2800 O   0  0  0  0  0  0  0  0  0  0  0  0
   -1.3160    0.0080   -0.4950 C   0  0  2  0  0  0  0  0  0  0  0  0
   -2.2140    1.0190    0.2370 C   0  0  0  0  0  0  0  0  0  0  0  0
   -3.4090    0.9380   -0.6980 C   0  0  0  0  0  0  0  0  0  0  0  0
   -3.5360   -0.3760   -1.0690 O   0  0  0  0  0  0  0  0  0  0  0  0
   -2.3520   -1.0280   -0.8360 C   0  0  0  0  0  0  0  0  0  0  0  0
    1.8520    0.5390    0.7880 C   0  0  1  0  0  0  0  0  0  0  0  0
    3.1090    0.7330    0.2360 O   0  0  0  0  0  0  0  0  0  0  0  0
    1.2770    1.8730    1.1760 C   0  0  0  0  0  0  0  0  0  0  0  0
    2.1450    2.4430    2.1080 O   0  0  0  0  0  0  0  0  0  0  0  0
  2  1  1  6
  2  3  1  0
  2  4  1  0
  4  5  1  1
  4 11  1  0
  6  5  1  1
  6  7  1  0
  6 10  1  0
  7  8  1  0
  8  9  1  0
  9 10  1  0
 11 12  1  6
 11 13  1  0
 13 14  1  0
M  CHG  1   1   1
M  END
