
     RDKit          3D

 12 12  0  0  0  0  0  0  0  0999 V2000
    1.2020   -1.1090    1.3090 O   0  0  0  0  0  0  0  0  0  0  0  0
    0.4860   -0.8490    0.3180 C   0  0  0  0  0  0  0  0  0  0  0  0
    0.6110   -1.5900   -0.8010 O   0  0  0  0  0  0  0  0  0  0  0  0
    1.4570   -2.6640   -1.0860 C   0  0  0  0  0  0  0  0  0  0  0  0
    2.8830   -2.2560   -1.0730 C   0  0  0  0  0  0  0  0  0  0  0  0
    3.3230   -1.7560    0.1290 O   0  0  0  0  0  0  0  0  0  0  0  0
   -0.4920    0.2680    0.3870 C   0  0  0  0  0  0  0  0  0  0  0  0
   -1.2550    0.5610   -0.6400 C   0  0  0  0  0  0  0  0  0  0  0  0
   -2.2650    1.6300   -0.7280 C   0  0  0  0  0  0  0  0  0  0  0  0
   -2.4200    2.3320    0.5730 C   0  0  0  0  0  0  0  0  0  0  0  0
   -1.0430    2.4650    1.2300 C   0  0  0  0  0  0  0  0  0  0  0  0
   -0.6150    1.0670    1.6210 C   0  0  0  0  0  0  0  0  0  0  0  0
  1  2  2  0
  2  3  1  0
  2  7  1  0
  3  4  1  0
  4  5  1  0
  5  6  1  0
  7  8  2  0
  7 12  1  0
  8  9  1  0
  9 10  1  0
 10 11  1  0
 11 12  1  0
M  END
