
     RDKit          3D

 12 12  0  0  0  0  0  0  0  0999 V2000
    1.5540   -1.3850   -0.1120 C   0  0  0  0  0  0  0  0  0  0  0  0
    1.6070    0.0700    0.3500 C   0  0  2  0  0  0  0  0  0  0  0  0
    3.0590    0.4830    0.2930 C   0  0  0  0  0  0  0  0  0  0  0  0
    1.0280    0.2600    1.5770 O   0  0  0  0  0  0  0  0  0  0  0  0
   -0.0390    1.1560    1.5650 C   0  0  0  0  0  0  0  0  0  0  0  0
   -1.0990    0.6830    0.6720 C   0  0  0  0  0  0  0  0  0  0  0  0
   -1.5490    1.3410   -0.3900 C   0  0  0  0  0  0  0  0  0  0  0  0
   -2.6060    0.5930   -1.0590 C   0  0  0  0  0  0  0  0  0  0  0  0
   -3.2540    0.9110   -2.0880 O   0  0  0  0  0  0  0  0  0  0  0  0
   -2.7490   -0.6270   -0.2610 C   0  0  0  0  0  0  0  0  0  0  0  0
   -3.6440   -1.6570   -0.5140 O   0  0  0  0  0  0  0  0  0  0  0  0
   -1.8820   -0.5460    0.7120 C   0  0  0  0  0  0  0  0  0  0  0  0
  2  1  1  1
  2  3  1  0
  2  4  1  0
  4  5  1  0
  5  6  1  0
  6  7  2  0
  6 12  1  0
  7  8  1  0
  8  9  2  0
  8 10  1  0
 10 11  1  0
 10 12  2  0
M  END
