
     RDKit          3D

 11 11  0  0  0  0  0  0  0  0999 V2000
   -2.4010    1.6460   -0.0840 C   0  0  0  0  0  0  0  0  0  0  0  0
   -1.3010    0.6580    0.0380 C   0  0  0  0  0  0  0  0  0  0  0  0
   -0.0750    1.0430   -0.0600 N   0  0  0  0  0  0  0  0  0  0  0  0
    1.0340    0.1550    0.0460 C   0  0  2  0  0  0  0  0  0  0  0  0
    2.2030    0.7440   -0.6150 C   0  0  0  0  0  0  0  0  0  0  0  0
    3.3290    0.1880   -0.6820 O   0  0  0  0  0  0  0  0  0  0  0  0
    2.0910    1.9890   -1.2110 O   0  0  0  0  0  0  0  0  0  0  0  0
    0.7500   -1.2340   -0.4590 C   0  0  1  0  0  0  0  0  0  0  0  0
    1.7050   -2.0920    0.1330 O   0  0  0  0  0  0  0  0  0  0  0  0
   -0.6010   -1.7440   -0.0910 C   0  0  0  0  0  0  0  0  0  0  0  0
   -1.5440   -0.7130    0.2620 N   0  0  0  0  0  0  0  0  0  0  0  0
  1  2  1  0
  2  3  2  0
  2 11  1  0
  3  4  1  0
  4  5  1  6
  4  8  1  0
  5  6  2  0
  5  7  1  0
  8  9  1  1
  8 10  1  0
 10 11  1  0
M  END
