
     RDKit          3D

 12 12  0  0  0  0  0  0  0  0999 V2000
    3.1940    0.7860   -1.0500 O   0  0  0  0  0  0  0  0  0  0  0  0
    3.2580   -0.5120   -0.5800 C   0  0  0  0  0  0  0  0  0  0  0  0
    2.3670   -0.8310    0.5660 C   0  0  0  0  0  0  0  0  0  0  0  0
    0.8940   -0.7030    0.3480 C   0  0  0  0  0  0  0  0  0  0  0  0
    0.5000    0.6810   -0.0100 C   0  0  2  0  0  0  0  0  0  0  0  0
    0.8880    1.5490    1.0220 O   0  0  0  0  0  0  0  0  0  0  0  0
   -0.9960    0.8220   -0.2520 C   0  0  1  0  0  0  0  0  0  0  0  0
   -1.1940    2.1730   -0.6020 O   0  0  0  0  0  0  0  0  0  0  0  0
   -1.5150   -0.0220   -1.3580 C   0  0  0  0  0  0  0  0  0  0  0  0
   -2.7930   -0.6830   -0.8440 C   0  0  0  0  0  0  0  0  0  0  0  0
   -2.4930   -0.8110    0.6340 C   0  0  0  0  0  0  0  0  0  0  0  0
   -1.8410    0.5110    0.9240 C   0  0  0  0  0  0  0  0  0  0  0  0
  1  2  1  0
  2  3  1  0
  3  4  1  0
  4  5  1  0
  5  6  1  1
  5  7  1  0
  7  8  1  6
  7  9  1  0
  7 12  1  0
  9 10  1  0
 10 11  1  0
 11 12  1  0
M  END
