
     RDKit          3D

 12 12  0  0  0  0  0  0  0  0999 V2000
    3.4820    0.6920   -0.7780 C   0  0  0  0  0  0  0  0  0  0  0  0
    3.0850   -0.1420    0.4110 C   0  0  0  0  0  0  0  0  0  0  0  0
    1.8280   -0.7290    0.2980 O   0  0  0  0  0  0  0  0  0  0  0  0
    0.6950    0.0530    0.1450 C   0  0  0  0  0  0  0  0  0  0  0  0
    0.8670    1.2990    0.1150 O   0  0  0  0  0  0  0  0  0  0  0  0
   -0.6120   -0.5710    0.0290 C   0  0  0  0  0  0  0  0  0  0  0  0
   -0.8270   -1.8720    0.0570 C   0  0  0  0  0  0  0  0  0  0  0  0
   -2.2900   -2.1550   -0.0890 C   0  0  0  0  0  0  0  0  0  0  0  0
   -2.8410   -0.7880   -0.2030 C   0  0  0  0  0  0  0  0  0  0  0  0
   -1.8890    0.1200   -0.1360 C   0  0  0  0  0  0  0  0  0  0  0  0
   -2.0830    1.5910   -0.2150 C   0  0  0  0  0  0  0  0  0  0  0  0
   -1.4030    2.1490   -1.2780 O   0  0  0  0  0  0  0  0  0  0  0  0
  1  2  1  0
  2  3  1  0
  3  4  1  0
  4  5  2  0
  4  6  1  0
  6  7  2  0
  6 10  1  0
  7  8  1  0
  8  9  1  0
  9 10  2  0
 10 11  1  0
 11 12  1  0
M  END
