
     RDKit          3D

 12 12  0  0  0  0  0  0  0  0999 V2000
    2.5260   -1.4080   -1.4770 C   0  0  0  0  0  0  0  0  0  0  0  0
    2.2820   -0.3720   -0.4410 C   0  0  0  0  0  0  0  0  0  0  0  0
    3.2390    0.2650    0.2020 C   0  0  0  0  0  0  0  0  0  0  0  0
    2.6020    1.1960    1.1310 C   0  0  0  0  0  0  0  0  0  0  0  0
    1.1540    1.0090    0.9370 C   0  0  0  0  0  0  0  0  0  0  0  0
    0.9870    0.0910    0.0170 C   0  0  0  0  0  0  0  0  0  0  0  0
   -0.3400   -0.3730   -0.4540 C   0  0  0  0  0  0  0  0  0  0  0  0
   -0.4630   -1.2560   -1.3390 O   0  0  0  0  0  0  0  0  0  0  0  0
   -1.5070    0.1550    0.0690 O   0  0  0  0  0  0  0  0  0  0  0  0
   -2.7560   -0.2950   -0.3880 C   0  0  0  0  0  0  0  0  0  0  0  0
   -3.9130    0.3680    0.2720 C   0  0  0  0  0  0  0  0  0  0  0  0
   -3.8610    0.1290    1.6370 O   0  0  0  0  0  0  0  0  0  0  0  0
  1  2  1  0
  2  3  2  0
  2  6  1  0
  3  4  1  0
  4  5  1  0
  5  6  2  0
  6  7  1  0
  7  8  2  0
  7  9  1  0
  9 10  1  0
 10 11  1  0
 11 12  1  0
M  END
