
     RDKit          3D

 12 12  0  0  0  0  0  0  0  0999 V2000
    4.2450    0.0890   -0.4450 C   0  0  0  0  0  0  0  0  0  0  0  0
    3.6880   -0.4510    0.8260 C   0  0  0  0  0  0  0  0  0  0  0  0
    2.4420    0.0950    1.1850 O   0  0  0  0  0  0  0  0  0  0  0  0
    1.3160   -0.0110    0.3800 C   0  0  0  0  0  0  0  0  0  0  0  0
    1.4570   -0.6240   -0.6940 O   0  0  0  0  0  0  0  0  0  0  0  0
    0.0360    0.5940    0.8310 C   0  0  0  0  0  0  0  0  0  0  0  0
   -1.0750    0.3810   -0.1640 C   0  0  2  0  0  0  0  0  0  0  0  0
   -0.8150    0.9230   -1.3950 O   0  0  0  0  0  0  0  0  0  0  0  0
   -2.3090    1.0790    0.4060 C   0  0  0  0  0  0  0  0  0  0  0  0
   -3.4700    0.4170   -0.3440 C   0  0  0  0  0  0  0  0  0  0  0  0
   -2.9720   -0.9520   -0.6860 C   0  0  0  0  0  0  0  0  0  0  0  0
   -1.5440   -1.0510   -0.2090 C   0  0  0  0  0  0  0  0  0  0  0  0
  1  2  1  0
  2  3  1  0
  3  4  1  0
  4  5  2  0
  4  6  1  0
  6  7  1  0
  7  8  1  6
  7  9  1  0
  7 12  1  0
  9 10  1  0
 10 11  1  0
 11 12  1  0
M  END
