
     RDKit          3D

 12 12  0  0  0  0  0  0  0  0999 V2000
    4.6040   -0.3620   -0.2870 C   0  0  0  0  0  0  0  0  0  0  0  0
    3.4530   -0.0990    0.4780 O   0  0  0  0  0  0  0  0  0  0  0  0
    2.1820   -0.0300   -0.0450 C   0  0  0  0  0  0  0  0  0  0  0  0
    2.0130   -0.2080   -1.2660 O   0  0  0  0  0  0  0  0  0  0  0  0
    1.0480    0.2490    0.8230 C   0  0  0  0  0  0  0  0  0  0  0  0
   -0.2790    0.2950    0.1210 C   0  0  2  0  0  0  0  0  0  0  0  0
   -0.3410    1.2640   -0.8610 O   0  0  0  0  0  0  0  0  0  0  0  0
   -1.3180    0.5520    1.2210 C   0  0  0  0  0  0  0  0  0  0  0  0
   -2.6550    0.9100    0.6260 C   0  0  0  0  0  0  0  0  0  0  0  0
   -2.8350    0.1970   -0.6710 C   0  0  0  0  0  0  0  0  0  0  0  0
   -2.1320   -1.1410   -0.7260 C   0  0  0  0  0  0  0  0  0  0  0  0
   -0.6490   -1.0310   -0.5010 C   0  0  0  0  0  0  0  0  0  0  0  0
  1  2  1  0
  2  3  1  0
  3  4  2  0
  3  5  1  0
  5  6  1  0
  6  7  1  6
  6  8  1  0
  6 12  1  0
  8  9  1  0
  9 10  1  0
 10 11  1  0
 11 12  1  0
M  END
