
     RDKit          3D

 12 12  0  0  0  0  0  0  0  0999 V2000
    2.5650    0.3750   -0.7450 C   0  0  0  0  0  0  0  0  0  0  0  0
    2.1530   -0.2990    0.5690 C   0  0  2  0  0  0  0  0  0  0  0  0
    3.3800   -0.8840    1.2480 C   0  0  0  0  0  0  0  0  0  0  0  0
    1.1950   -1.1970    0.2880 O   0  0  0  0  0  0  0  0  0  0  0  0
   -0.0570   -1.0930    0.7710 C   0  0  0  0  0  0  0  0  0  0  0  0
   -0.7420    0.1370    0.2360 C   0  0  1  0  0  0  0  0  0  0  0  0
   -0.1340    1.3340    0.5560 O   0  0  0  0  0  0  0  0  0  0  0  0
   -0.8480   -0.0540   -1.2670 C   0  0  0  0  0  0  0  0  0  0  0  0
   -2.3040   -0.2940   -1.6270 C   0  0  0  0  0  0  0  0  0  0  0  0
   -3.0090    0.8570   -1.3470 O   0  0  0  0  0  0  0  0  0  0  0  0
   -2.9550    1.1760   -0.0070 C   0  0  0  0  0  0  0  0  0  0  0  0
   -2.1510    0.2150    0.8070 C   0  0  0  0  0  0  0  0  0  0  0  0
  2  1  1  6
  2  3  1  0
  2  4  1  0
  4  5  1  0
  5  6  1  0
  6  7  1  6
  6  8  1  0
  6 12  1  0
  8  9  1  0
  9 10  1  0
 10 11  1  0
 11 12  1  0
M  END
