
     RDKit          3D

 30 32  0  0  0  0  0  0  0  0999 V2000
   -6.8410    2.9970   -1.0290 C   0  0  0  0  0  0  0  0  0  0  0  0
   -6.5400    1.6610   -0.4520 C   0  0  0  0  0  0  0  0  0  0  0  0
   -5.2310    1.1740   -0.3850 C   0  0  0  0  0  0  0  0  0  0  0  0
   -4.9150   -0.0590    0.1430 C   0  0  0  0  0  0  0  0  0  0  0  0
   -3.5780   -0.6360    0.2480 C   0  0  0  0  0  0  0  0  0  0  0  0
   -2.5040    0.1750   -0.2470 N   0  0  0  0  0  0  0  0  0  0  0  0
   -1.1830   -0.4030   -0.1400 C   0  0  0  0  0  0  0  0  0  0  0  0
   -0.0080    0.2080   -0.5560 C   0  0  0  0  0  0  0  0  0  0  0  0
    1.0080   -0.6730   -0.2740 C   0  0  0  0  0  0  0  0  0  0  0  0
    2.4560   -0.4540   -0.5440 C   0  0  0  0  0  0  0  0  0  0  0  0
    2.8460    0.6030   -1.0710 O   0  0  0  0  0  0  0  0  0  0  0  0
    3.4180   -1.4160   -0.2200 N   0  0  0  0  0  0  0  0  0  0  0  0
    4.7970   -1.4810   -0.3420 C   0  0  0  0  0  0  0  0  0  0  0  0
    5.7580   -0.6170    0.3110 C   0  0  1  0  0  0  0  0  0  0  0  0
    7.1540   -1.1650   -0.1330 C   0  0  0  0  0  0  0  0  0  0  0  0
    8.1380   -0.6720    0.8930 C   0  0  0  0  0  0  0  0  0  0  0  0
    7.7510    0.7340    1.2830 C   0  0  0  0  0  0  0  0  0  0  0  0
    7.1510    1.4340    0.0830 C   0  0  0  0  0  0  0  0  0  0  0  0
    5.7870    0.7940   -0.2660 C   0  0  1  0  0  0  0  0  0  0  0  0
    5.7590    0.7920   -1.6540 O   0  0  0  0  0  0  0  0  0  0  0  0
    0.4330   -1.7770    0.2960 C   0  0  0  0  0  0  0  0  0  0  0  0
   -0.8470   -1.5740    0.3540 O   0  0  0  0  0  0  0  0  0  0  0  0
   -5.9850   -0.8190    0.6200 C   0  0  0  0  0  0  0  0  0  0  0  0
   -5.7640   -2.1690    1.2120 C   0  0  1  0  0  0  0  0  0  0  0  0
   -6.9800   -2.7000    1.6150 F   0  0  0  0  0  0  0  0  0  0  0  0
   -5.1730   -3.0210    0.2810 F   0  0  0  0  0  0  0  0  0  0  0  0
   -4.9460   -2.1330    2.3220 F   0  0  0  0  0  0  0  0  0  0  0  0
   -7.2810   -0.3420    0.5570 C   0  0  0  0  0  0  0  0  0  0  0  0
   -7.5780    0.8930    0.0250 C   0  0  0  0  0  0  0  0  0  0  0  0
   -8.9840    1.3670   -0.0230 C   0  0  0  0  0  0  0  0  0  0  0  0
  1  2  1  0
  2  3  2  0
  2 29  1  0
  3  4  1  0
  4  5  1  0
  4 23  2  0
  5  6  1  0
  6  7  1  0
  7  8  2  0
  7 22  1  0
  8  9  1  0
  9 10  1  0
  9 21  2  0
 10 11  2  0
 10 12  1  0
 12 13  1  0
 14 13  1  6
 14 15  1  0
 14 19  1  0
 15 16  1  0
 16 17  1  0
 17 18  1  0
 18 19  1  0
 19 20  1  6
 21 22  1  0
 23 24  1  0
 23 28  1  0
 24 25  1  1
 24 26  1  0
 24 27  1  0
 28 29  2  0
 29 30  1  0
M  END
