
     RDKit          3D

 30 33  0  0  0  0  0  0  0  0999 V2000
    5.4820    2.4190    1.3510 C   0  0  0  0  0  0  0  0  0  0  0  0
    5.1380    2.3520    0.0970 C   0  0  0  0  0  0  0  0  0  0  0  0
    3.8500    1.8160   -0.3220 C   0  0  0  0  0  0  0  0  0  0  0  0
    2.9730    1.3680    0.6500 O   0  0  0  0  0  0  0  0  0  0  0  0
    2.2680    0.1500    0.4670 C   0  0  0  0  0  0  0  0  0  0  0  0
    3.0490   -0.8620   -0.1460 N   0  0  0  0  0  0  0  0  0  0  0  0
    1.0180    0.0320    0.8450 C   0  0  0  0  0  0  0  0  0  0  0  0
    0.3170    1.2050    1.4840 C   0  0  0  0  0  0  0  0  0  0  0  0
    0.8290    2.1750    2.0660 O   0  0  0  0  0  0  0  0  0  0  0  0
   -1.1050    0.9490    1.2670 C   0  0  0  0  0  0  0  0  0  0  0  0
   -2.1850    1.7470    1.6500 O   0  0  0  0  0  0  0  0  0  0  0  0
   -2.9240    2.4480    0.7020 C   0  0  0  0  0  0  0  0  0  0  0  0
   -2.5910    2.3580   -0.6320 C   0  0  0  0  0  0  0  0  0  0  0  0
   -3.3220    3.0510   -1.5750 C   0  0  0  0  0  0  0  0  0  0  0  0
   -4.3890    3.8400   -1.2030 C   0  0  0  0  0  0  0  0  0  0  0  0
   -4.7230    3.9310    0.1410 C   0  0  0  0  0  0  0  0  0  0  0  0
   -3.9840    3.2300    1.0810 C   0  0  0  0  0  0  0  0  0  0  0  0
   -4.3030    3.3130    2.3960 F   0  0  0  0  0  0  0  0  0  0  0  0
   -1.2950   -0.1910    0.6260 C   0  0  0  0  0  0  0  0  0  0  0  0
   -2.1130   -1.1790    0.0160 N   0  0  0  0  0  0  0  0  0  0  0  0
   -1.3640   -2.3110   -0.3150 C   0  0  0  0  0  0  0  0  0  0  0  0
   -0.0780   -2.1540    0.0640 C   0  0  0  0  0  0  0  0  0  0  0  0
    0.7910   -3.2980   -0.2680 C   0  0  0  0  0  0  0  0  0  0  0  0
    0.0660   -4.4760    0.4260 C   0  0  0  0  0  0  0  0  0  0  0  0
   -1.1240   -4.8090   -0.4000 C   0  0  0  0  0  0  0  0  0  0  0  0
   -1.7290   -3.5730   -0.9860 C   0  0  0  0  0  0  0  0  0  0  0  0
    0.0200   -0.9630    0.8360 C   0  0  1  0  0  0  0  0  0  0  0  0
    3.5250    1.7610   -1.6030 C   0  0  0  0  0  0  0  0  0  0  0  0
    2.3110    1.2530   -1.9560 F   0  0  0  0  0  0  0  0  0  0  0  0
    4.3570    2.1900   -2.5750 F   0  0  0  0  0  0  0  0  0  0  0  0
  1  2  2  0
  2  3  1  0
  3  4  1  0
  3 28  2  3
  4  5  1  0
  5  6  1  0
  5  7  2  3
  7  8  1  0
 27  7  1  6
  8  9  2  0
  8 10  1  0
 10 11  1  0
 10 19  2  0
 11 12  1  0
 12 13  2  0
 12 17  1  0
 13 14  1  0
 14 15  2  0
 15 16  1  0
 16 17  2  0
 17 18  1  0
 19 20  1  0
 19 27  1  0
 20 21  1  0
 21 22  2  0
 21 26  1  0
 22 23  1  0
 22 27  1  0
 23 24  1  0
 24 25  1  0
 25 26  1  0
 28 29  1  0
 28 30  1  0
M  END
