
     RDKit          3D

 30 32  0  0  0  0  0  0  0  0999 V2000
   -6.0920   -3.8720   -1.5200 C   0  0  0  0  0  0  0  0  0  0  0  0
   -5.0750   -2.9070   -0.9830 C   0  0  0  0  0  0  0  0  0  0  0  0
   -3.7120   -2.9210   -1.1800 C   0  0  0  0  0  0  0  0  0  0  0  0
   -3.1580   -1.8280   -0.4900 C   0  0  0  0  0  0  0  0  0  0  0  0
   -1.7320   -1.5450   -0.4680 C   0  0  0  0  0  0  0  0  0  0  0  0
   -1.0270   -1.3670    0.6800 C   0  0  0  0  0  0  0  0  0  0  0  0
    0.3580   -1.0840    0.6540 C   0  0  0  0  0  0  0  0  0  0  0  0
    1.0490   -0.9780   -0.5160 C   0  0  0  0  0  0  0  0  0  0  0  0
    2.4310   -0.7190   -0.6560 N   0  0  0  0  0  0  0  0  0  0  0  0
    3.4020   -0.7200    0.3720 C   0  0  0  0  0  0  0  0  0  0  0  0
    3.0560   -0.9800    1.5470 O   0  0  0  0  0  0  0  0  0  0  0  0
    4.8380   -0.4250    0.1170 C   0  0  2  0  0  0  0  0  0  0  0  0
    5.5420   -0.7020    1.3160 O   0  0  0  0  0  0  0  0  0  0  0  0
    5.0610    1.0770   -0.1040 C   0  0  2  0  0  0  0  0  0  0  0  0
    4.5060    1.5610   -1.4010 C   0  0  0  0  0  0  0  0  0  0  0  0
    6.5460    1.3880   -0.0640 C   0  0  0  0  0  0  0  0  0  0  0  0
    6.6890    2.4960    0.9350 C   0  0  0  0  0  0  0  0  0  0  0  0
    5.2390    2.8620    1.2390 C   0  0  0  0  0  0  0  0  0  0  0  0
    4.5190    1.7090    1.0050 O   0  0  0  0  0  0  0  0  0  0  0  0
    0.3070   -1.1650   -1.6900 C   0  0  0  0  0  0  0  0  0  0  0  0
   -1.0400   -1.4390   -1.6670 C   0  0  0  0  0  0  0  0  0  0  0  0
   -4.2140   -1.1770    0.1110 C   0  0  0  0  0  0  0  0  0  0  0  0
   -4.1760    0.0490    0.9460 C   0  0  0  0  0  0  0  0  0  0  0  0
   -3.9850    1.2600    0.0630 C   0  0  0  0  0  0  0  0  0  0  0  0
   -3.9330    2.5550    0.7980 C   0  0  0  0  0  0  0  0  0  0  0  0
   -5.1510    2.8850    1.5930 C   0  0  2  0  0  0  0  0  0  0  0  0
   -6.2940    2.9700    0.8280 F   0  0  0  0  0  0  0  0  0  0  0  0
   -4.9550    4.1830    2.0920 F   0  0  0  0  0  0  0  0  0  0  0  0
   -5.3330    2.0970    2.7080 F   0  0  0  0  0  0  0  0  0  0  0  0
   -5.3580   -1.8530   -0.2050 N   0  0  0  0  0  0  0  0  0  0  0  0
  1  2  1  0
  2  3  2  0
  2 30  1  0
  3  4  1  0
  4  5  1  0
  4 22  2  0
  5  6  2  0
  5 21  1  0
  6  7  1  0
  7  8  2  0
  8  9  1  0
  8 20  1  0
  9 10  1  0
 10 11  2  0
 10 12  1  0
 12 13  1  1
 12 14  1  0
 14 15  1  6
 14 16  1  0
 14 19  1  0
 16 17  1  0
 17 18  1  0
 18 19  1  0
 20 21  2  0
 22 23  1  0
 22 30  1  0
 23 24  1  0
 24 25  1  0
 25 26  1  0
 26 27  1  6
 26 28  1  0
 26 29  1  0
M  END
