
     RDKit          3D

 30 32  0  0  0  0  0  0  0  0999 V2000
   -2.8760   -4.7710   -1.1570 C   0  0  0  0  0  0  0  0  0  0  0  0
   -2.6670   -3.2500   -0.7780 C   0  0  0  0  0  0  0  0  0  0  0  0
   -2.0540   -3.0940    0.3320 C   0  0  0  0  0  0  0  0  0  0  0  0
   -1.6200   -2.0200    1.1510 C   0  0  0  0  0  0  0  0  0  0  0  0
   -0.8820   -2.3180    2.2700 C   0  0  0  0  0  0  0  0  0  0  0  0
   -0.6740   -3.6140    2.4390 F   0  0  0  0  0  0  0  0  0  0  0  0
   -0.2590   -1.4230    3.2670 C   0  0  0  0  0  0  0  0  0  0  0  0
    0.6130   -0.3710    2.5670 C   0  0  1  0  0  0  0  0  0  0  0  0
    1.3400   -0.9970    1.4790 N   0  0  0  0  0  0  0  0  0  0  0  0
    2.3660   -0.3830    0.7540 C   0  0  0  0  0  0  0  0  0  0  0  0
    2.8610    0.8420    1.1100 C   0  0  0  0  0  0  0  0  0  0  0  0
    3.8980    1.4500    0.4040 C   0  0  0  0  0  0  0  0  0  0  0  0
    4.4240    2.7830    0.8020 C   0  0  0  0  0  0  0  0  0  0  0  0
    4.4370    0.8080   -0.6720 C   0  0  0  0  0  0  0  0  0  0  0  0
    5.4540    1.4370   -1.3390 F   0  0  0  0  0  0  0  0  0  0  0  0
    3.9750   -0.4270   -1.0690 C   0  0  0  0  0  0  0  0  0  0  0  0
    2.9360   -1.0010   -0.3350 C   0  0  0  0  0  0  0  0  0  0  0  0
    2.4390   -2.2250   -0.6880 F   0  0  0  0  0  0  0  0  0  0  0  0
   -0.2410    0.7010    2.0120 C   0  0  0  0  0  0  0  0  0  0  0  0
   -0.0850    1.8970    2.3880 O   0  0  0  0  0  0  0  0  0  0  0  0
   -1.2950    0.5410    1.0390 N   0  0  0  0  0  0  0  0  0  0  0  0
   -1.6090    1.6300    0.1810 C   0  0  0  0  0  0  0  0  0  0  0  0
   -0.8130    1.6880   -1.0940 C   0  0  0  0  0  0  0  0  0  0  0  0
   -1.2160    2.8720   -1.9490 C   0  0  1  0  0  0  0  0  0  0  0  0
   -1.0520    4.2280   -1.3490 C   0  0  0  0  0  0  0  0  0  0  0  0
   -0.0960    3.8180   -2.4050 C   0  0  0  0  0  0  0  0  0  0  0  0
   -2.0720   -0.6500    0.9200 C   0  0  0  0  0  0  0  0  0  0  0  0
   -3.2850   -0.5000    0.5880 O   0  0  0  0  0  0  0  0  0  0  0  0
   -3.0950   -2.4170   -1.8870 C   0  0  0  0  0  0  0  0  0  0  0  0
   -2.8460   -1.0950   -1.9240 O   0  0  0  0  0  0  0  0  0  0  0  0
  1  2  1  0
  2  3  2  3
  2 29  1  0
  3  4  1  0
  4  5  2  0
  4 27  1  0
  5  6  1  0
  5  7  1  0
  7  8  1  0
  8  9  1  6
  8 19  1  0
  9 10  1  0
 10 11  2  0
 10 17  1  0
 11 12  1  0
 12 13  1  0
 12 14  2  0
 14 15  1  0
 14 16  1  0
 16 17  2  0
 17 18  1  0
 19 20  2  0
 19 21  1  0
 21 22  1  0
 21 27  1  0
 22 23  1  0
 24 23  1  1
 24 25  1  0
 24 26  1  0
 25 26  1  0
 27 28  2  0
 29 30  1  0
M  END
