
     RDKit          3D

 31 33  0  0  0  0  0  0  0  0999 V2000
    9.3530    1.7830   -1.2980 C   0  0  0  0  0  0  0  0  0  0  0  0
    8.5160    0.7930   -0.9840 C   0  0  0  0  0  0  0  0  0  0  0  0
    7.1270    0.8110   -1.5430 C   0  0  0  0  0  0  0  0  0  0  0  0
    6.1670    0.8430   -0.5590 O   0  0  0  0  0  0  0  0  0  0  0  0
    5.8180   -0.0300    0.4210 C   0  0  0  0  0  0  0  0  0  0  0  0
    6.3940   -1.2490    0.6170 C   0  0  0  0  0  0  0  0  0  0  0  0
    5.9830   -2.0710    1.6300 C   0  0  0  0  0  0  0  0  0  0  0  0
    4.9650   -1.7000    2.4990 C   0  0  0  0  0  0  0  0  0  0  0  0
    4.3760   -0.4660    2.3070 C   0  0  0  0  0  0  0  0  0  0  0  0
    4.7620    0.3860    1.3000 C   0  0  0  0  0  0  0  0  0  0  0  0
    4.2360    1.5960    1.0510 O   0  0  0  0  0  0  0  0  0  0  0  0
    3.2400    2.3950    1.5220 C   0  0  0  0  0  0  0  0  0  0  0  0
    1.8690    1.8870    1.2820 C   0  0  0  0  0  0  0  0  0  0  0  0
    0.9540    2.6210    0.8050 N   0  0  0  0  0  0  0  0  0  0  0  0
   -0.3090    2.1050    0.5910 C   0  0  0  0  0  0  0  0  0  0  0  0
   -1.2130    2.8900    0.1160 O   0  0  0  0  0  0  0  0  0  0  0  0
   -0.5440    0.7410    0.9110 C   0  0  0  0  0  0  0  0  0  0  0  0
   -1.4350   -0.1930    0.8360 C   0  0  0  0  0  0  0  0  0  0  0  0
   -0.9160   -1.5450    1.4680 C   0  0  0  0  0  0  0  0  0  0  0  0
   -2.6760   -0.3720    0.3010 N   0  0  0  0  0  0  0  0  0  0  0  0
   -3.5140    0.4650   -0.4490 C   0  0  0  0  0  0  0  0  0  0  0  0
   -3.2120    1.6090   -0.7890 O   0  0  0  0  0  0  0  0  0  0  0  0
   -4.8310    0.0420   -0.8930 N   0  0  0  0  0  0  0  0  0  0  0  0
   -5.6630    0.9360   -1.6740 C   0  0  0  0  0  0  0  0  0  0  0  0
   -6.9550    0.1890   -1.9720 C   0  0  1  0  0  0  0  0  0  0  0  0
   -6.6260   -0.9520   -2.8680 C   0  0  0  0  0  0  0  0  0  0  0  0
   -7.3960   -2.0760   -2.7380 O   0  0  0  0  0  0  0  0  0  0  0  0
   -8.5160   -1.9470   -1.9420 C   0  0  0  0  0  0  0  0  0  0  0  0
   -8.0810   -1.3570   -0.6400 C   0  0  0  0  0  0  0  0  0  0  0  0
   -7.5280   -0.1140   -0.7690 O   0  0  0  0  0  0  0  0  0  0  0  0
    1.1510    0.3410    1.6150 S   0  0  0  0  0  0  0  0  0  0  0  0
  1  2  2  0
  2  3  1  0
  3  4  1  0
  4  5  1  0
  5  6  2  0
  5 10  1  0
  6  7  1  0
  7  8  2  0
  8  9  1  0
  9 10  2  0
 10 11  1  0
 11 12  1  0
 12 13  1  0
 13 14  2  0
 13 31  1  0
 14 15  1  0
 15 16  2  0
 15 17  1  0
 17 18  2  3
 17 31  1  0
 18 19  1  0
 18 20  1  0
 20 21  1  0
 21 22  2  0
 21 23  1  0
 23 24  1  0
 25 24  1  1
 25 26  1  0
 25 30  1  0
 26 27  1  0
 27 28  1  0
 28 29  1  0
 29 30  1  0
M  END
