
     RDKit          3D

 31 33  0  0  0  0  0  0  0  0999 V2000
    1.9830    2.9420   -2.1860 C   0  0  0  0  0  0  0  0  0  0  0  0
    2.6500    1.7230   -1.6510 C   0  0  0  0  0  0  0  0  0  0  0  0
    2.5380    1.1460   -0.4180 C   0  0  0  0  0  0  0  0  0  0  0  0
    1.6880    1.6590    0.6740 C   0  0  0  0  0  0  0  0  0  0  0  0
    1.0100    2.6910    0.5260 O   0  0  0  0  0  0  0  0  0  0  0  0
    1.6900    0.9150    1.8860 N   0  0  0  0  0  0  0  0  0  0  0  0
    0.9070    1.3030    3.0270 C   0  0  0  0  0  0  0  0  0  0  0  0
   -0.5840    1.3340    2.7320 C   0  0  0  0  0  0  0  0  0  0  0  0
   -1.0820    0.0250    2.3050 C   0  0  0  0  0  0  0  0  0  0  0  0
   -0.2070   -0.8890    2.1140 O   0  0  0  0  0  0  0  0  0  0  0  0
   -2.4640   -0.2900    2.0920 N   0  0  0  0  0  0  0  0  0  0  0  0
   -3.4550    0.7150    2.2760 C   0  0  0  0  0  0  0  0  0  0  0  0
   -3.7040    1.5980    1.0840 C   0  0  0  0  0  0  0  0  0  0  0  0
   -4.1140    0.9870   -0.0580 O   0  0  0  0  0  0  0  0  0  0  0  0
   -4.3320    2.1400   -1.2510 S   0  0  1  0  0  0  0  0  0  0  0  0
   -3.3260    1.8290   -2.3480 O   0  0  0  0  0  0  0  0  0  0  0  0
   -5.7130    2.0800   -1.8290 O   0  0  0  0  0  0  0  0  0  0  0  0
   -2.8090   -1.6630    1.7170 C   0  0  1  0  0  0  0  0  0  0  0  0
   -4.3210   -1.8080    1.7390 C   0  0  0  0  0  0  0  0  0  0  0  0
   -2.2800   -1.9070    0.3540 C   0  0  0  0  0  0  0  0  0  0  0  0
   -1.3600   -3.0690    0.4250 C   0  0  0  0  0  0  0  0  0  0  0  0
   -1.3800   -3.5940    1.8220 C   0  0  0  0  0  0  0  0  0  0  0  0
   -2.1630   -2.6390    2.6420 C   0  0  0  0  0  0  0  0  0  0  0  0
    3.3330    0.0640   -0.4080 N   0  0  0  0  0  0  0  0  0  0  0  0
    3.9590   -0.0940   -1.5790 C   0  0  0  0  0  0  0  0  0  0  0  0
    3.5370    0.9460   -2.3720 C   0  0  0  0  0  0  0  0  0  0  0  0
    4.0520    1.0590   -3.7490 C   0  0  0  0  0  0  0  0  0  0  0  0
    3.4190    1.7520   -4.5580 O   0  0  0  0  0  0  0  0  0  0  0  0
    5.3050    0.3170   -4.0450 C   0  0  0  0  0  0  0  0  0  0  0  0
    5.0690   -1.1130   -3.5460 C   0  0  0  0  0  0  0  0  0  0  0  0
    4.9330   -1.1270   -2.0610 C   0  0  0  0  0  0  0  0  0  0  0  0
  1  2  1  0
  2  3  2  0
  2 26  1  0
  3  4  1  0
  3 24  1  0
  4  5  2  0
  4  6  1  0
  6  7  1  0
  7  8  1  0
  8  9  1  0
  9 10  2  0
  9 11  1  0
 11 12  1  0
 11 18  1  0
 12 13  1  0
 13 14  1  0
 15 14  1  1
 15 16  2  0
 15 17  2  0
 18 19  1  6
 18 20  1  0
 18 23  1  0
 20 21  1  0
 21 22  1  0
 22 23  1  0
 24 25  1  0
 25 26  2  0
 25 31  1  0
 26 27  1  0
 27 28  2  0
 27 29  1  0
 29 30  1  0
 30 31  1  0
M  END
