
     RDKit          3D

 25 26  0  0  0  0  0  0  0  0999 V2000
    4.3370    5.6250   -0.2090 C   0  0  0  0  0  0  0  0  0  0  0  0
    3.5720    4.9230    0.1470 C   0  0  0  0  0  0  0  0  0  0  0  0
    2.5630    4.0130    0.5910 C   0  0  0  0  0  0  0  0  0  0  0  0
    2.0780    3.0010   -0.0230 O   0  0  0  0  0  0  0  0  0  0  0  0
    2.6770    1.9270   -0.5020 C   0  0  0  0  0  0  0  0  0  0  0  0
    1.5540    0.8030   -0.6120 C   0  0  0  0  0  0  0  0  0  0  0  0
    0.4220    1.2200   -0.2350 C   0  0  0  0  0  0  0  0  0  0  0  0
   -0.9200    0.6880   -0.1370 C   0  0  0  0  0  0  0  0  0  0  0  0
   -1.3720   -0.5230    0.2460 C   0  0  0  0  0  0  0  0  0  0  0  0
   -2.7300   -0.9040    0.2620 C   0  0  0  0  0  0  0  0  0  0  0  0
   -3.6970    0.0540   -0.1620 C   0  0  0  0  0  0  0  0  0  0  0  0
   -5.0850   -0.4190   -0.0790 C   0  0  2  0  0  0  0  0  0  0  0  0
   -5.4100   -0.5580    1.4160 C   0  0  0  0  0  0  0  0  0  0  0  0
   -5.1900   -1.7940   -0.6620 C   0  0  0  0  0  0  0  0  0  0  0  0
   -6.0670    0.5360   -0.6490 C   0  0  0  0  0  0  0  0  0  0  0  0
   -3.2260    1.2170   -0.5350 C   0  0  0  0  0  0  0  0  0  0  0  0
   -1.9270    1.6720   -0.5690 C   0  0  0  0  0  0  0  0  0  0  0  0
    2.1340   -0.5080   -0.7700 C   0  0  0  0  0  0  0  0  0  0  0  0
    3.3240   -0.7210   -1.3820 C   0  0  0  0  0  0  0  0  0  0  0  0
    4.1850    0.1640   -1.9450 O   0  0  0  0  0  0  0  0  0  0  0  0
    3.5510   -2.2280   -1.3410 C   0  0  0  0  0  0  0  0  0  0  0  0
    3.1600   -2.4300    0.1520 C   0  0  1  0  0  0  0  0  0  0  0  0
    3.1290   -3.8160    0.5830 C   0  0  0  0  0  0  0  0  0  0  0  0
    4.1200   -1.5010    0.9010 C   0  0  0  0  0  0  0  0  0  0  0  0
    1.7570   -1.7680    0.0060 C   0  0  0  0  0  0  0  0  0  0  0  0
  1  2  3  0
  2  3  1  0
  3  4  1  0
  4  5  1  0
  5  6  1  0
  6  7  2  3
  6 18  1  0
  7  8  1  0
  8  9  2  0
  8 17  1  0
  9 10  1  0
 10 11  2  0
 11 12  1  0
 11 16  1  0
 12 13  1  1
 12 14  1  0
 12 15  1  0
 16 17  2  0
 18 19  2  0
 18 25  1  0
 19 20  1  0
 19 21  1  0
 21 22  1  0
 22 23  1  1
 22 24  1  0
 22 25  1  0
M  END
