
     RDKit          3D

  6  5  0  0  0  0  0  0  0  0999 V2000
    0.9100   -0.1510    1.5330 O   0  0  0  0  0  0  0  0  0  0  0  0
    0.4920   -0.1160    0.3460 C   0  0  0  0  0  0  0  0  0  0  0  0
    1.4390   -0.3050   -0.6510 O   0  0  0  0  0  0  0  0  0  0  0  0
   -0.9380    0.1170    0.0730 C   0  0  1  0  0  0  0  0  0  0  0  0
   -1.1850    1.5970   -0.9120 Cl  0  0  0  0  0  0  0  0  0  0  0  0
   -1.6420   -1.2340   -0.8780 Cl  0  0  0  0  0  0  0  0  0  0  0  0
  1  2  2  0
  2  3  1  0
  2  4  1  0
  4  5  1  6
  4  6  1  0
M  END
