
     RDKit          3D

 18 19  0  0  0  0  0  0  0  0999 V2000
    0.9460   -2.2500   -0.5810 O   0  0  0  0  0  0  0  0  0  0  0  0
    1.1530   -1.0560   -0.2540 C   0  0  0  0  0  0  0  0  0  0  0  0
    2.5220   -0.5330   -0.0530 C   0  0  0  0  0  0  0  0  0  0  0  0
    3.6350   -1.2340   -0.1890 C   0  0  0  0  0  0  0  0  0  0  0  0
    4.9870   -0.7270    0.0060 C   0  0  0  0  0  0  0  0  0  0  0  0
    5.7220   -1.7000    1.3280 Cl  0  0  0  0  0  0  0  0  0  0  0  0
    2.3220    0.8560    0.3080 C   0  0  0  0  0  0  0  0  0  0  0  0
    3.2720    1.7100    0.5790 N   0  0  0  0  0  0  0  0  0  0  0  0
    2.9080    3.3560    1.0010 Cl  0  0  0  0  0  0  0  0  0  0  0  0
    0.8760    1.1590    0.3240 C   0  0  0  0  0  0  0  0  0  0  0  0
    0.4120    2.2950    0.6060 O   0  0  0  0  0  0  0  0  0  0  0  0
    0.1980   -0.0390   -0.0250 N   0  0  0  0  0  0  0  0  0  0  0  0
   -1.2140   -0.1630   -0.1210 C   0  0  0  0  0  0  0  0  0  0  0  0
   -1.8410   -1.0420    0.6650 C   0  0  0  0  0  0  0  0  0  0  0  0
   -3.3340   -1.1100    0.5000 C   0  0  0  0  0  0  0  0  0  0  0  0
   -3.8360    0.3090    0.6960 C   0  0  0  0  0  0  0  0  0  0  0  0
   -3.1500    1.2670   -0.2200 C   0  0  0  0  0  0  0  0  0  0  0  0
   -2.0520    0.6230   -1.0430 C   0  0  0  0  0  0  0  0  0  0  0  0
  1  2  2  0
  2  3  1  0
  2 12  1  0
  3  4  2  3
  3  7  1  0
  4  5  1  0
  5  6  1  0
  7  8  2  3
  7 10  1  0
  8  9  1  0
 10 11  2  0
 10 12  1  0
 12 13  1  0
 13 14  2  0
 13 18  1  0
 14 15  1  0
 15 16  1  0
 16 17  1  0
 17 18  1  0
M  END
