
     RDKit          3D

 18 19  0  0  0  0  0  0  0  0999 V2000
    5.9450   -0.7080   -1.1130 O   0  0  0  0  0  0  0  0  0  0  0  0
    4.8620   -0.1460   -1.3540 C   0  0  0  0  0  0  0  0  0  0  0  0
    3.7280   -0.3510   -0.4750 C   0  0  0  0  0  0  0  0  0  0  0  0
    3.7990   -1.1600    0.6360 C   0  0  0  0  0  0  0  0  0  0  0  0
    2.7560   -1.3550    1.4520 N   0  0  0  0  0  0  0  0  0  0  0  0
    1.5860   -0.7340    1.1780 C   0  0  0  0  0  0  0  0  0  0  0  0
    1.4250    0.0920    0.0880 C   0  0  0  0  0  0  0  0  0  0  0  0
    0.2110    0.8280   -0.2640 C   0  0  0  0  0  0  0  0  0  0  0  0
   -0.9300    0.5530    0.5840 N   0  0  0  0  0  0  0  0  0  0  0  0
   -1.9580    1.5550    0.2650 C   0  0  0  0  0  0  0  0  0  0  0  0
   -2.9840    1.0710   -0.7120 C   0  0  0  0  0  0  0  0  0  0  0  0
   -3.8240   -0.0620   -0.1490 C   0  0  2  0  0  0  0  0  0  0  0  0
   -4.1420   -1.2460   -1.4440 Cl  0  0  0  0  0  0  0  0  0  0  0  0
   -5.3040    0.5080    0.6220 Cl  0  0  0  0  0  0  0  0  0  0  0  0
   -2.8950   -0.7620    0.8560 C   0  0  0  0  0  0  0  0  0  0  0  0
   -1.5330   -0.7410    0.1960 C   0  0  0  0  0  0  0  0  0  0  0  0
    2.5370    0.2740   -0.7460 C   0  0  0  0  0  0  0  0  0  0  0  0
    2.4090    1.0380   -1.7620 O   0  0  0  0  0  0  0  0  0  0  0  0
  1  2  2  0
  2  3  1  0
  3  4  2  0
  3 17  1  0
  4  5  1  0
  5  6  1  0
  6  7  2  0
  7  8  1  0
  7 17  1  0
  8  9  1  0
  9 10  1  0
  9 16  1  0
 10 11  1  0
 11 12  1  0
 12 13  1  6
 12 14  1  0
 12 15  1  0
 15 16  1  0
 17 18  2  0
M  END
