
     RDKit          3D

 24 25  0  0  0  0  0  0  0  0999 V2000
   -6.2240    1.1490   -1.8280 C   0  0  0  0  0  0  0  0  0  0  0  0
   -5.6860    0.4950   -0.5770 C   0  0  2  0  0  0  0  0  0  0  0  0
   -6.2150   -0.9440   -0.5090 C   0  0  0  0  0  0  0  0  0  0  0  0
   -6.0800    1.1880    0.6880 C   0  0  0  0  0  0  0  0  0  0  0  0
   -5.0020    1.1750    1.7120 C   0  0  0  0  0  0  0  0  0  0  0  0
   -4.9040    2.0420    2.6150 O   0  0  0  0  0  0  0  0  0  0  0  0
   -4.0170    0.1030    1.6540 C   0  0  0  0  0  0  0  0  0  0  0  0
   -3.5980   -0.3070    0.4680 C   0  0  0  0  0  0  0  0  0  0  0  0
   -2.5850   -1.4080    0.3110 C   0  0  0  0  0  0  0  0  0  0  0  0
   -2.1710   -1.9190    1.6360 C   0  0  0  0  0  0  0  0  0  0  0  0
   -0.9460   -1.8850    2.0640 C   0  0  0  0  0  0  0  0  0  0  0  0
    0.1620   -1.3480    1.3070 C   0  0  0  0  0  0  0  0  0  0  0  0
    1.3980   -1.3320    1.7770 C   0  0  0  0  0  0  0  0  0  0  0  0
    2.4930   -0.7990    1.0220 C   0  0  0  0  0  0  0  0  0  0  0  0
    2.3890   -0.2630   -0.2360 C   0  0  0  0  0  0  0  0  0  0  0  0
    3.5040    0.2420   -0.9190 C   0  0  0  0  0  0  0  0  0  0  0  0
    4.7210    0.1870   -0.2890 C   0  0  0  0  0  0  0  0  0  0  0  0
    5.9220    0.7150   -0.9830 C   0  0  2  0  0  0  0  0  0  0  0  0
    6.8870    1.2000    0.0950 C   0  0  0  0  0  0  0  0  0  0  0  0
    5.5980    1.9090   -1.8430 C   0  0  0  0  0  0  0  0  0  0  0  0
    6.6510   -0.3370   -1.7760 C   0  0  0  0  0  0  0  0  0  0  0  0
    4.8720   -0.3470    0.9850 C   0  0  0  0  0  0  0  0  0  0  0  0
    3.7550   -0.8360    1.6290 C   0  0  0  0  0  0  0  0  0  0  0  0
   -4.1790    0.3790   -0.7230 C   0  0  0  0  0  0  0  0  0  0  0  0
  2  1  1  6
  2  3  1  0
  2  4  1  0
  2 24  1  0
  4  5  1  0
  5  6  2  0
  5  7  1  0
  7  8  2  0
  8  9  1  0
  8 24  1  0
  9 10  1  0
 10 11  2  3
 11 12  1  0
 12 13  2  3
 13 14  1  0
 14 15  2  0
 14 23  1  0
 15 16  1  0
 16 17  2  0
 17 18  1  0
 17 22  1  0
 18 19  1  1
 18 20  1  0
 18 21  1  0
 22 23  2  0
M  END
