
     RDKit          3D

 18 19  0  0  0  0  0  0  0  0999 V2000
    0.8430    2.6220   -1.8460 C   0  0  0  0  0  0  0  0  0  0  0  0
    1.0040    1.3540   -1.1030 C   0  0  0  0  0  0  0  0  0  0  0  0
    0.0590    0.5790   -0.6640 C   0  0  0  0  0  0  0  0  0  0  0  0
   -1.3410    0.8700   -0.8630 C   0  0  0  0  0  0  0  0  0  0  0  0
   -1.7120    1.7120   -1.7160 O   0  0  0  0  0  0  0  0  0  0  0  0
   -2.3180    0.1490   -0.0360 C   0  0  0  0  0  0  0  0  0  0  0  0
   -3.6220    0.1340    0.0390 C   0  0  0  0  0  0  0  0  0  0  0  0
   -3.9930   -0.8290    1.0920 C   0  0  0  0  0  0  0  0  0  0  0  0
   -2.7270   -1.3760    1.5790 C   0  0  0  0  0  0  0  0  0  0  0  0
   -1.7430   -0.8000    0.9210 C   0  0  0  0  0  0  0  0  0  0  0  0
   -0.3910   -0.9920    1.0170 N   0  0  0  0  0  0  0  0  0  0  0  0
    0.5020   -0.4630    0.3760 C   0  0  0  0  0  0  0  0  0  0  0  0
    1.8050   -0.4550    0.9110 N   0  0  0  0  0  0  0  0  0  0  0  0
    2.7440   -1.2530    0.1340 C   0  0  0  0  0  0  0  0  0  0  0  0
    2.0860   -1.8500   -0.8010 O   0  0  0  0  0  0  0  0  0  0  0  0
    4.1410   -1.3420    0.3950 C   0  0  1  0  0  0  0  0  0  0  0  0
    4.3940   -1.9290    2.0630 Cl  0  0  0  0  0  0  0  0  0  0  0  0
    4.8420   -2.5140   -0.7750 Cl  0  0  0  0  0  0  0  0  0  0  0  0
  1  2  1  0
  2  3  2  3
  3  4  1  0
  3 12  1  0
  4  5  2  0
  4  6  1  0
  6  7  2  0
  6 10  1  0
  7  8  1  0
  8  9  1  0
  9 10  2  0
 10 11  1  0
 11 12  2  0
 12 13  1  0
 13 14  1  0
 14 15  2  0
 14 16  1  0
 16 17  1  1
 16 18  1  0
M  END
