
     RDKit          3D

 18 19  0  0  0  0  0  0  0  0999 V2000
   -5.4350   -0.2490    0.4210 C   0  0  0  0  0  0  0  0  0  0  0  0
   -4.3930    0.4620    0.0770 C   0  0  0  0  0  0  0  0  0  0  0  0
   -3.0460   -0.0660    0.2570 C   0  0  0  0  0  0  0  0  0  0  0  0
   -1.9960    0.6320   -0.0810 C   0  0  0  0  0  0  0  0  0  0  0  0
   -0.6280    0.2980    0.0150 N   0  0  0  0  0  0  0  0  0  0  0  0
   -0.1730   -0.8510    0.4940 C   0  0  0  0  0  0  0  0  0  0  0  0
   -0.9830   -1.7340    0.9040 O   0  0  0  0  0  0  0  0  0  0  0  0
    1.1630   -1.1720    0.5850 N   0  0  0  0  0  0  0  0  0  0  0  0
    2.0340   -0.2710    0.1660 C   0  0  0  0  0  0  0  0  0  0  0  0
    3.3860   -0.5710    0.2480 C   0  0  0  0  0  0  0  0  0  0  0  0
    4.3650    0.3030   -0.1640 C   0  0  0  0  0  0  0  0  0  0  0  0
    6.0740   -0.0760   -0.0610 Cl  0  0  0  0  0  0  0  0  0  0  0  0
    3.9580    1.5250   -0.6770 C   0  0  0  0  0  0  0  0  0  0  0  0
    5.1790    2.6760   -1.2160 Cl  0  0  0  0  0  0  0  0  0  0  0  0
    2.6150    1.8230   -0.7580 C   0  0  0  0  0  0  0  0  0  0  0  0
    1.6420    0.9520   -0.3480 C   0  0  0  0  0  0  0  0  0  0  0  0
    0.3040    1.2200   -0.4160 C   0  0  0  0  0  0  0  0  0  0  0  0
   -0.0700    2.3250   -0.8790 O   0  0  0  0  0  0  0  0  0  0  0  0
  1  2  2  0
  2  3  1  0
  3  4  2  3
  4  5  1  0
  5  6  1  0
  5 17  1  0
  6  7  2  0
  6  8  1  0
  8  9  1  0
  9 10  2  0
  9 16  1  0
 10 11  1  0
 11 12  1  0
 11 13  2  0
 13 14  1  0
 13 15  1  0
 15 16  2  0
 16 17  1  0
 17 18  2  0
M  END
