
     RDKit          3D

 15 14  0  0  0  0  0  0  0  0999 V2000
    4.2360   -0.3690   -0.1310 C   0  0  0  0  0  0  0  0  0  0  0  0
    2.8820   -0.9270    0.2970 C   0  0  0  0  0  0  0  0  0  0  0  0
    1.9490   -0.9900   -0.8610 C   0  0  0  0  0  0  0  0  0  0  0  0
    2.0680   -1.9280   -1.6300 O   0  0  0  0  0  0  0  0  0  0  0  0
    0.6480    0.2600   -1.1800 P   0  0  0  0  0  0  0  0  0  0  0  0
   -0.7860    0.0240   -0.0210 C   0  0  1  0  0  0  0  0  0  0  0  0
   -0.2500   -0.7160    1.1890 C   0  0  0  0  0  0  0  0  0  0  0  0
   -1.3120    1.3430    0.4840 C   0  0  0  0  0  0  0  0  0  0  0  0
   -1.7570    2.1690   -0.5410 O   0  0  0  0  0  0  0  0  0  0  0  0
   -2.2150    3.3460    0.0490 C   0  0  0  0  0  0  0  0  0  0  0  0
   -1.8550   -0.7980   -0.6400 C   0  0  0  0  0  0  0  0  0  0  0  0
   -3.0120   -0.3300   -0.7980 O   0  0  0  0  0  0  0  0  0  0  0  0
   -1.6160   -2.0960   -1.0610 O   0  0  0  0  0  0  0  0  0  0  0  0
   -2.5410   -2.8730   -1.6220 O   0  0  0  0  0  0  0  0  0  0  0  0
   -3.2970   -3.4840   -0.7380 O   0  0  0  0  0  0  0  0  0  0  0  0
  1  2  1  0
  2  3  1  0
  3  4  2  0
  3  5  1  0
  5  6  1  0
  6  7  1  1
  6  8  1  0
  6 11  1  0
  8  9  1  0
  9 10  1  0
 11 12  2  0
 11 13  1  0
 13 14  1  0
 14 15  1  0
M  END
