
     RDKit          3D

 16 15  0  0  0  0  0  0  0  0999 V2000
    4.7440    0.4990   -0.1150 C   0  0  0  0  0  0  0  0  0  0  0  0
    3.6010    0.7100    0.8800 C   0  0  0  0  0  0  0  0  0  0  0  0
    2.5650   -0.3240    0.6230 C   0  0  0  0  0  0  0  0  0  0  0  0
    2.7100   -1.1830   -0.2900 O   0  0  0  0  0  0  0  0  0  0  0  0
    1.4090   -0.3700    1.3840 O   0  0  0  0  0  0  0  0  0  0  0  0
    0.4040   -1.3600    1.1480 C   0  0  0  0  0  0  0  0  0  0  0  0
   -0.0730   -1.2300   -0.1610 O   0  0  0  0  0  0  0  0  0  0  0  0
   -0.5720   -0.0180   -0.2560 O   0  0  0  0  0  0  0  0  0  0  0  0
   -1.9230   -0.0310   -0.5530 C   0  0  1  0  0  0  0  0  0  0  0  0
   -2.7360   -0.7440    0.4900 C   0  0  0  0  0  0  0  0  0  0  0  0
   -2.3660    1.4070   -0.7140 C   0  0  0  0  0  0  0  0  0  0  0  0
   -2.1620    2.1560    0.4370 O   0  0  0  0  0  0  0  0  0  0  0  0
   -2.1640   -0.7050   -1.8650 C   0  0  0  0  0  0  0  0  0  0  0  0
   -1.2400   -1.1590   -2.5300 O   0  0  0  0  0  0  0  0  0  0  0  0
   -3.8560   -0.8720   -2.5160 P   0  0  0  0  0  0  0  0  0  0  0  0
   -5.0610   -1.3410   -1.6510 O   0  0  0  0  0  0  0  0  0  0  0  0
  1  2  1  0
  2  3  1  0
  3  4  2  0
  3  5  1  0
  5  6  1  0
  6  7  1  0
  7  8  1  0
  8  9  1  0
  9 10  1  1
  9 11  1  0
  9 13  1  0
 11 12  1  0
 13 14  2  0
 13 15  1  0
 15 16  2  0
M  END
