
     RDKit          3D

 16 16  0  0  0  0  0  0  0  0999 V2000
    2.4520    1.5110   -0.6090 C   0  0  0  0  0  0  0  0  0  0  0  0
    1.9770    0.9100   -1.7180 O   0  0  0  0  0  0  0  0  0  0  0  0
    0.9880    0.1510   -1.7350 O   0  0  0  0  0  0  0  0  0  0  0  0
    0.5420   -0.5230   -0.6530 C   0  0  1  0  0  0  0  0  0  0  0  0
    1.5770   -1.4320   -0.0760 C   0  0  0  0  0  0  0  0  0  0  0  0
    2.6880   -1.5160   -0.6490 O   0  0  0  0  0  0  0  0  0  0  0  0
    1.3770   -2.1910    1.0610 O   0  0  0  0  0  0  0  0  0  0  0  0
   -0.0720    0.4070    0.3510 C   0  0  0  0  0  0  0  0  0  0  0  0
   -1.5420    0.1820    0.2690 C   0  0  1  0  0  0  0  0  0  0  0  0
   -2.2760    0.5110    1.5420 C   0  0  0  0  0  0  0  0  0  0  0  0
   -2.1920    1.1620   -1.1730 P   0  0  0  0  0  0  0  0  0  0  0  0
   -3.3090    2.2120   -1.0380 O   0  0  0  0  0  0  0  0  0  0  0  0
   -1.6500   -1.2490   -0.0930 C   0  0  0  0  0  0  0  0  0  0  0  0
   -2.4830   -2.1250    0.3340 O   0  0  0  0  0  0  0  0  0  0  0  0
   -0.5850   -1.4590   -1.0590 C   0  0  0  0  0  0  0  0  0  0  0  0
   -0.5430   -2.2290   -2.0330 O   0  0  0  0  0  0  0  0  0  0  0  0
  1  2  1  0
  2  3  1  0
  4  3  1  6
  4  5  1  0
  4  8  1  0
  4 15  1  0
  5  6  2  0
  5  7  1  0
  8  9  1  0
  9 10  1  1
  9 11  1  0
  9 13  1  0
 11 12  2  0
 13 14  2  0
 13 15  1  0
 15 16  2  0
M  END
