
     RDKit          3D

 16 15  0  0  0  0  0  0  0  0999 V2000
    4.2270    0.0760   -0.1580 C   0  0  0  0  0  0  0  0  0  0  0  0
    3.1310    1.1150    0.2180 C   0  0  0  0  0  0  0  0  0  0  0  0
    2.0920    0.3000    0.6280 O   0  0  0  0  0  0  0  0  0  0  0  0
    0.5600    1.0280    0.2980 P   0  0  0  0  0  0  0  0  0  0  0  0
    0.6440    2.4890   -0.6020 O   0  0  0  0  0  0  0  0  0  0  0  0
   -0.5280   -0.2240   -0.5730 C   0  0  2  0  0  0  0  0  0  0  0  0
   -1.8770    0.0280   -0.3240 O   0  0  0  0  0  0  0  0  0  0  0  0
   -1.9640    0.8500    0.7200 O   0  0  0  0  0  0  0  0  0  0  0  0
   -3.3180    1.1940    0.7890 C   0  0  0  0  0  0  0  0  0  0  0  0
   -3.3610    2.5080    0.0690 C   0  0  0  0  0  0  0  0  0  0  0  0
   -4.0950    3.4140    0.3440 O   0  0  0  0  0  0  0  0  0  0  0  0
   -0.2480   -1.6600   -0.0250 C   0  0  2  0  0  0  0  0  0  0  0  0
   -1.4660   -2.1610    0.7290 C   0  0  0  0  0  0  0  0  0  0  0  0
    0.8220   -1.5840    0.8740 O   0  0  0  0  0  0  0  0  0  0  0  0
    0.0660   -2.5270   -1.2580 C   0  0  0  0  0  0  0  0  0  0  0  0
    1.0920   -2.5640   -1.5070 O   0  0  0  0  0  0  0  0  0  0  0  0
  1  2  1  0
  2  3  1  0
  3  4  1  0
  4  5  1  0
  4  6  1  0
  6  7  1  1
  6 12  1  0
  7  8  1  0
  8  9  1  0
  9 10  1  0
 10 11  2  0
 12 13  1  1
 12 14  1  0
 12 15  1  0
 15 16  2  0
M  END
