
     RDKit          3D

 15 14  0  0  0  0  0  0  0  0999 V2000
   -2.7200    1.7480   -0.2900 C   0  0  0  0  0  0  0  0  0  0  0  0
   -2.1070    0.3080   -0.3300 C   0  0  2  0  0  0  0  0  0  0  0  0
   -2.9620   -0.4630    0.6310 C   0  0  0  0  0  0  0  0  0  0  0  0
   -0.6830    0.4690    0.0330 C   0  0  0  0  0  0  0  0  0  0  0  0
    0.2300   -0.6850    0.0520 C   0  0  1  0  0  0  0  0  0  0  0  0
    1.4990   -0.1370    0.4460 O   0  0  0  0  0  0  0  0  0  0  0  0
    2.4360   -0.2550   -0.5530 C   0  0  0  0  0  0  0  0  0  0  0  0
    3.7280    0.3410   -0.0600 C   0  0  0  0  0  0  0  0  0  0  0  0
    3.5470    1.6820    0.2570 O   0  0  0  0  0  0  0  0  0  0  0  0
    4.6890    2.1860    0.6860 O   0  0  0  0  0  0  0  0  0  0  0  0
   -0.0690   -1.8190    0.9140 C   0  0  0  0  0  0  0  0  0  0  0  0
    0.6630   -2.0460    1.9310 O   0  0  0  0  0  0  0  0  0  0  0  0
   -1.1160   -2.6640    0.6680 O   0  0  0  0  0  0  0  0  0  0  0  0
   -2.3600   -0.3550   -2.0390 P   0  0  0  0  0  0  0  0  0  0  0  0
   -3.5940   -1.2350   -2.3730 O   0  0  0  0  0  0  0  0  0  0  0  0
  2  1  1  6
  2  3  1  0
  2  4  1  0
  2 14  1  0
  5  4  1  1
  5  6  1  0
  5 11  1  0
  6  7  1  0
  7  8  1  0
  8  9  1  0
  9 10  1  0
 11 12  2  0
 11 13  1  0
 14 15  2  0
M  END
