
     RDKit          3D

 17 16  0  0  0  0  0  0  0  0999 V2000
    2.2790    2.9600    1.2260 C   0  0  0  0  0  0  0  0  0  0  0  0
    1.3500    2.0480    0.6330 O   0  0  0  0  0  0  0  0  0  0  0  0
    1.4720    0.6740    0.7980 C   0  0  0  0  0  0  0  0  0  0  0  0
    2.4520    0.2870    1.5030 O   0  0  0  0  0  0  0  0  0  0  0  0
    0.5690   -0.2620    0.2240 N   0  0  0  0  0  0  0  0  0  0  0  0
    0.7640   -1.6570    0.4410 C   0  0  0  0  0  0  0  0  0  0  0  0
    1.6240   -2.4000   -0.5050 C   0  0  0  0  0  0  0  0  0  0  0  0
    1.2190   -2.4130   -1.8130 O   0  0  0  0  0  0  0  0  0  0  0  0
   -0.5630    0.2300   -0.5110 C   0  0  2  0  0  0  0  0  0  0  0  0
   -1.7580   -0.3010   -0.1180 O   0  0  0  0  0  0  0  0  0  0  0  0
   -2.5920    0.6990    0.1860 O   0  0  0  0  0  0  0  0  0  0  0  0
   -3.6230    0.4920    1.0910 C   0  0  0  0  0  0  0  0  0  0  0  0
   -3.7230   -0.6540    1.5910 O   0  0  0  0  0  0  0  0  0  0  0  0
   -4.5240    1.4870    1.4510 O   0  0  0  0  0  0  0  0  0  0  0  0
   -0.3130   -0.0250   -1.9820 C   0  0  0  0  0  0  0  0  0  0  0  0
    0.7570    0.4930   -2.4410 O   0  0  0  0  0  0  0  0  0  0  0  0
   -1.1850   -0.7640   -2.7640 O   0  0  0  0  0  0  0  0  0  0  0  0
  1  2  1  0
  2  3  1  0
  3  4  2  0
  3  5  1  0
  5  6  1  0
  5  9  1  0
  6  7  1  0
  7  8  1  0
  9 10  1  1
  9 15  1  0
 10 11  1  0
 11 12  1  0
 12 13  2  0
 12 14  1  0
 15 16  2  0
 15 17  1  0
M  END
