
     RDKit          3D

 18 18  0  0  0  0  0  0  0  0999 V2000
    1.4650   -0.1100   -1.1850 O   0  0  0  0  0  0  0  0  0  0  0  0
    1.2510   -0.0570    0.0390 C   0  0  0  0  0  0  0  0  0  0  0  0
    1.9940    0.8330    0.8500 N   0  0  0  0  0  0  0  0  0  0  0  0
    2.9900    1.6720    0.2710 C   0  0  0  0  0  0  0  0  0  0  0  0
    4.0650    0.8400   -0.3880 C   0  0  0  0  0  0  0  0  0  0  0  0
    4.6650    0.0190    0.5510 O   0  0  0  0  0  0  0  0  0  0  0  0
    5.6060   -0.7020   -0.0510 O   0  0  0  0  0  0  0  0  0  0  0  0
    0.2690   -0.9010    0.5400 O   0  0  0  0  0  0  0  0  0  0  0  0
   -0.4800   -1.7920   -0.2440 C   0  0  0  0  0  0  0  0  0  0  0  0
   -1.2800   -1.1350   -1.3170 C   0  0  0  0  0  0  0  0  0  0  0  0
   -2.2340   -0.1980   -0.8730 O   0  0  0  0  0  0  0  0  0  0  0  0
   -3.2600   -0.5760   -0.0330 C   0  0  0  0  0  0  0  0  0  0  0  0
   -3.2960   -1.7880    0.3070 O   0  0  0  0  0  0  0  0  0  0  0  0
   -4.2770    0.3180    0.4700 C   0  0  0  0  0  0  0  0  0  0  0  0
   -5.2740   -0.0030    1.2740 C   0  0  0  0  0  0  0  0  0  0  0  0
   -6.0220    1.1400    1.5170 O   0  0  0  0  0  0  0  0  0  0  0  0
   -5.7650    1.9830    0.5140 O   0  0  0  0  0  0  0  0  0  0  0  0
   -4.4650    1.6860    0.2500 O   0  0  0  0  0  0  0  0  0  0  0  0
  1  2  2  0
  2  3  1  0
  2  8  1  0
  3  4  1  0
  4  5  1  0
  5  6  1  0
  6  7  1  0
  8  9  1  0
  9 10  1  0
 10 11  1  0
 11 12  1  0
 12 13  2  0
 12 14  1  0
 14 15  2  0
 14 18  1  0
 15 16  1  0
 16 17  1  0
 17 18  1  0
M  END
