
     RDKit          3D

 17 16  0  0  0  0  0  0  0  0999 V2000
   -1.1520    3.5640    0.2840 N   0  0  0  0  0  0  0  0  0  0  0  0
   -1.1430    2.1830   -0.0940 C   0  0  0  0  0  0  0  0  0  0  0  0
   -2.1100    1.7820   -0.7690 O   0  0  0  0  0  0  0  0  0  0  0  0
   -0.0640    1.2690    0.2830 C   0  0  0  0  0  0  0  0  0  0  0  0
   -0.2260   -0.1320   -0.1940 C   0  0  2  0  0  0  0  0  0  0  0  0
   -1.3610   -0.7400    0.2790 O   0  0  0  0  0  0  0  0  0  0  0  0
   -2.0940   -1.4090   -0.6640 C   0  0  0  0  0  0  0  0  0  0  0  0
   -3.2940   -1.9860    0.0410 C   0  0  0  0  0  0  0  0  0  0  0  0
   -4.1200   -2.6530   -0.6490 O   0  0  0  0  0  0  0  0  0  0  0  0
   -3.5090   -1.8070    1.3860 O   0  0  0  0  0  0  0  0  0  0  0  0
    0.9880   -0.8770    0.3300 C   0  0  0  0  0  0  0  0  0  0  0  0
    0.8720   -1.8650    1.0610 O   0  0  0  0  0  0  0  0  0  0  0  0
    2.2240   -0.4110   -0.0390 O   0  0  0  0  0  0  0  0  0  0  0  0
    3.3340   -1.0660    0.4210 O   0  0  0  0  0  0  0  0  0  0  0  0
    4.5370   -0.3920    0.4940 C   0  0  0  0  0  0  0  0  0  0  0  0
    4.5540    0.8150    0.1270 O   0  0  0  0  0  0  0  0  0  0  0  0
    5.7110   -0.9680    0.9440 O   0  0  0  0  0  0  0  0  0  0  0  0
  1  2  1  0
  2  3  2  0
  2  4  1  0
  5  4  1  1
  5  6  1  0
  5 11  1  0
  6  7  1  0
  7  8  1  0
  8  9  2  0
  8 10  1  0
 11 12  2  0
 11 13  1  0
 13 14  1  0
 14 15  1  0
 15 16  2  0
 15 17  1  0
M  END
