
     RDKit          3D

 18 18  0  0  0  0  0  0  0  0999 V2000
    2.0860    1.3990   -0.2520 O   0  0  0  0  0  0  0  0  0  0  0  0
    2.3230    0.1950   -0.5100 C   0  0  0  0  0  0  0  0  0  0  0  0
    3.6770   -0.2750   -0.5680 N   0  0  0  0  0  0  0  0  0  0  0  0
    4.7420    0.6740   -0.3220 C   0  0  0  0  0  0  0  0  0  0  0  0
    4.6240    1.2250    0.9540 O   0  0  0  0  0  0  0  0  0  0  0  0
    5.5650    2.0850    1.2140 O   0  0  0  0  0  0  0  0  0  0  0  0
    6.6490    1.8990    0.4930 O   0  0  0  0  0  0  0  0  0  0  0  0
    1.2800   -0.6880   -0.7390 O   0  0  0  0  0  0  0  0  0  0  0  0
   -0.0800   -0.2300   -0.6840 C   0  0  0  0  0  0  0  0  0  0  0  0
   -1.0030   -1.3890   -0.9700 C   0  0  0  0  0  0  0  0  0  0  0  0
   -2.3110   -0.9610   -0.9220 O   0  0  0  0  0  0  0  0  0  0  0  0
   -2.7050   -0.4760    0.3170 C   0  0  1  0  0  0  0  0  0  0  0  0
   -3.1910    0.9800    0.1650 C   0  0  0  0  0  0  0  0  0  0  0  0
   -4.4440    1.0520    0.7240 O   0  0  0  0  0  0  0  0  0  0  0  0
   -5.3680    0.4390    0.0380 O   0  0  0  0  0  0  0  0  0  0  0  0
   -5.1600   -0.9500   -0.0150 C   0  0  0  0  0  0  0  0  0  0  0  0
   -3.9120   -1.2330    0.7050 C   0  0  0  0  0  0  0  0  0  0  0  0
   -3.8680   -2.0500    1.5770 O   0  0  0  0  0  0  0  0  0  0  0  0
  1  2  2  0
  2  3  1  0
  2  8  1  0
  3  4  1  0
  4  5  1  0
  5  6  1  0
  6  7  1  0
  8  9  1  0
  9 10  1  0
 10 11  1  0
 12 11  1  6
 12 13  1  0
 12 17  1  0
 13 14  1  0
 14 15  1  0
 15 16  1  0
 16 17  1  0
 17 18  2  0
M  END
