
     RDKit          3D

 24 24  0  0  0  0  0  0  0  0999 V2000
    7.7300   -2.1470    1.2070 O   0  0  0  0  0  0  0  0  0  0  0  0
    6.2070   -2.3010    1.4600 P   0  0  0  0  0  0  0  0  0  0  0  0
    5.0500   -2.9320    0.1250 C   0  0  0  0  0  0  0  0  0  0  0  0
    3.9370   -1.9540   -0.0090 C   0  0  0  0  0  0  0  0  0  0  0  0
    2.7760   -2.0220    0.7040 C   0  0  0  0  0  0  0  0  0  0  0  0
    1.8050   -1.0760    0.5130 C   0  0  0  0  0  0  0  0  0  0  0  0
    1.9260   -0.0110   -0.3900 C   0  0  0  0  0  0  0  0  0  0  0  0
    0.8570    0.9380   -0.5280 C   0  0  0  0  0  0  0  0  0  0  0  0
    0.8370    1.9630   -1.3220 C   0  0  0  0  0  0  0  0  0  0  0  0
    1.8190    2.3580   -2.1890 O   0  0  0  0  0  0  0  0  0  0  0  0
    2.6790    3.8890   -2.0000 P   0  0  0  0  0  0  0  0  0  0  0  0
    1.6390    5.2320   -2.2960 O   0  0  0  0  0  0  0  0  0  0  0  0
    3.2590    3.9580   -0.3470 O   0  0  0  0  0  0  0  0  0  0  0  0
   -0.2840    0.7340    0.2800 O   0  0  0  0  0  0  0  0  0  0  0  0
   -1.3070   -0.0480   -0.3270 C   0  0  0  0  0  0  0  0  0  0  0  0
   -2.4660   -0.2240    0.5650 C   0  0  0  0  0  0  0  0  0  0  0  0
   -3.6530    0.2050    0.2010 C   0  0  0  0  0  0  0  0  0  0  0  0
   -4.7920    0.0480    1.0460 N   0  0  0  0  0  0  0  0  0  0  0  0
   -5.9160   -0.6990    0.5970 C   0  0  0  0  0  0  0  0  0  0  0  0
   -5.8390   -1.1960   -0.5610 O   0  0  0  0  0  0  0  0  0  0  0  0
   -7.1380   -0.8960    1.4410 C   0  0  0  0  0  0  0  0  0  0  0  0
   -6.9600   -0.2540    2.6470 O   0  0  0  0  0  0  0  0  0  0  0  0
    3.1040    0.0340   -1.0950 C   0  0  0  0  0  0  0  0  0  0  0  0
    4.1140   -0.9190   -0.9220 C   0  0  0  0  0  0  0  0  0  0  0  0
  1  2  2  0
  2  3  1  0
  3  4  1  0
  4  5  2  0
  4 24  1  0
  5  6  1  0
  6  7  2  0
  7  8  1  0
  7 23  1  0
  8  9  2  3
  8 14  1  0
  9 10  1  0
 10 11  1  0
 11 12  1  0
 11 13  1  0
 14 15  1  0
 15 16  1  0
 16 17  2  3
 17 18  1  0
 18 19  1  0
 19 20  2  0
 19 21  1  0
 21 22  1  0
 23 24  2  0
M  END
