
     RDKit          3D

 22 23  0  0  0  0  0  0  0  0999 V2000
    3.8720   -0.5500   -1.5200 N   0  0  0  0  0  0  0  0  0  0  0  0
    3.2380    0.3220   -0.8290 C   0  0  0  0  0  0  0  0  0  0  0  0
    3.8380    1.7160   -0.8210 C   0  0  0  0  0  0  0  0  0  0  0  0
    3.8610    2.2370    0.5630 C   0  0  0  0  0  0  0  0  0  0  0  0
    4.8510    2.8150    0.9990 O   0  0  0  0  0  0  0  0  0  0  0  0
    2.6950    2.0350    1.3430 N   0  0  0  0  0  0  0  0  0  0  0  0
    1.8170    0.9770    1.0200 C   0  0  0  0  0  0  0  0  0  0  0  0
    0.7600    0.7220    1.6530 O   0  0  0  0  0  0  0  0  0  0  0  0
    2.0480    0.0710   -0.0830 N   0  0  0  0  0  0  0  0  0  0  0  0
    1.1970   -0.9760   -0.4330 C   0  0  2  0  0  0  0  0  0  0  0  0
   -0.0120   -0.4090   -0.9170 O   0  0  0  0  0  0  0  0  0  0  0  0
   -1.0270   -1.2810   -0.6880 C   0  0  2  0  0  0  0  0  0  0  0  0
   -2.1060   -0.5960    0.1220 C   0  0  0  0  0  0  0  0  0  0  0  0
   -2.5680    0.4800   -0.5800 O   0  0  0  0  0  0  0  0  0  0  0  0
   -3.7380    1.3760    0.0940 P   0  0  0  0  0  0  0  0  0  0  0  0
   -2.9040    2.6520    0.0320 O   0  0  0  0  0  0  0  0  0  0  0  0
   -3.8090    1.5510    1.7750 O   0  0  0  0  0  0  0  0  0  0  0  0
   -4.9810    1.9780   -0.7920 O   0  0  0  0  0  0  0  0  0  0  0  0
   -0.4870   -2.5020   -0.0320 C   0  0  1  0  0  0  0  0  0  0  0  0
   -0.2660   -3.5090   -0.9630 O   0  0  0  0  0  0  0  0  0  0  0  0
    0.8150   -1.9900    0.5620 C   0  0  1  0  0  0  0  0  0  0  0  0
    1.7190   -3.0670    0.5360 O   0  0  0  0  0  0  0  0  0  0  0  0
  1  2  2  0
  2  3  1  0
  2  9  1  0
  3  4  1  0
  4  5  2  0
  4  6  1  0
  6  7  1  0
  7  8  2  0
  7  9  1  0
 10  9  1  1
 10 11  1  0
 10 21  1  0
 11 12  1  0
 12 13  1  1
 12 19  1  0
 13 14  1  0
 14 15  1  0
 15 16  1  0
 15 17  1  0
 15 18  1  0
 19 20  1  6
 19 21  1  0
 21 22  1  6
M  END
