
     RDKit          3D

 18 17  0  0  0  0  0  0  0  0999 V2000
    1.7120   -0.5060    1.0880 O   0  0  0  0  0  0  0  0  0  0  0  0
    1.7040   -0.4420   -0.1690 C   0  0  0  0  0  0  0  0  0  0  0  0
    0.5030   -0.2440   -0.9910 C   0  0  0  0  0  0  0  0  0  0  0  0
   -0.7570   -0.1210   -0.1920 C   0  0  1  0  0  0  0  0  0  0  0  0
   -1.0710   -1.3060    0.6490 C   0  0  0  0  0  0  0  0  0  0  0  0
   -1.1920   -2.4710   -0.0580 O   0  0  0  0  0  0  0  0  0  0  0  0
   -2.1770   -2.4870   -1.0150 C   0  0  0  0  0  0  0  0  0  0  0  0
   -3.4420   -2.2660   -0.4690 O   0  0  0  0  0  0  0  0  0  0  0  0
   -3.6950   -3.2250    0.4170 O   0  0  0  0  0  0  0  0  0  0  0  0
   -0.6440    1.0200    0.6140 O   0  0  0  0  0  0  0  0  0  0  0  0
   -1.6080    1.9530    0.2400 C   0  0  0  0  0  0  0  0  0  0  0  0
   -1.4970    3.1800    1.0970 C   0  0  0  0  0  0  0  0  0  0  0  0
   -2.4660    4.0870    0.7030 O   0  0  0  0  0  0  0  0  0  0  0  0
   -2.4000    5.1800    1.4330 O   0  0  0  0  0  0  0  0  0  0  0  0
    2.9540   -0.5710   -0.8270 N   0  0  0  0  0  0  0  0  0  0  0  0
    4.1940   -0.7700   -0.0680 C   0  0  0  0  0  0  0  0  0  0  0  0
    5.2830   -0.8700   -0.8960 O   0  0  0  0  0  0  0  0  0  0  0  0
    6.3470   -1.0450   -0.1710 O   0  0  0  0  0  0  0  0  0  0  0  0
  1  2  2  0
  2  3  1  0
  2 15  1  0
  4  3  1  1
  4  5  1  0
  4 10  1  0
  5  6  1  0
  6  7  1  0
  7  8  1  0
  8  9  1  0
 10 11  1  0
 11 12  1  0
 12 13  1  0
 13 14  1  0
 15 16  1  0
 16 17  1  0
 17 18  1  0
M  END
