
     RDKit          3D

 37 40  0  0  0  0  0  0  0  0999 V2000
    4.2620    1.9050    4.2850 C   0  0  0  0  0  0  0  0  0  0  0  0
    4.3230    1.1550    2.9640 C   0  0  1  0  0  0  0  0  0  0  0  0
    2.9120    1.1330    2.3990 C   0  0  0  0  0  0  0  0  0  0  0  0
    2.8970    0.4050    1.0900 C   0  0  0  0  0  0  0  0  0  0  0  0
    1.5690    0.3870    0.5520 N   0  0  0  0  0  0  0  0  0  0  0  0
    0.5150   -0.2460    1.2530 C   0  0  0  0  0  0  0  0  0  0  0  0
    0.7290   -0.8070    2.3540 O   0  0  0  0  0  0  0  0  0  0  0  0
   -0.8760   -0.2690    0.7100 C   0  0  0  0  0  0  0  0  0  0  0  0
   -1.7180   -0.9770    1.6320 N   0  0  0  0  0  0  0  0  0  0  0  0
   -3.0950   -1.1330    1.3450 C   0  0  0  0  0  0  0  0  0  0  0  0
   -3.7840   -0.6880    0.2650 N   0  0  0  0  0  0  0  0  0  0  0  0
   -5.0790   -1.0340    0.3500 C   0  0  0  0  0  0  0  0  0  0  0  0
   -6.1570   -0.7540   -0.5920 C   0  0  0  0  0  0  0  0  0  0  0  0
   -6.0290   -0.0550   -1.7860 C   0  0  0  0  0  0  0  0  0  0  0  0
   -7.2720   -0.0070   -2.3820 C   0  0  0  0  0  0  0  0  0  0  0  0
   -8.1120   -0.6830   -1.5240 C   0  0  0  0  0  0  0  0  0  0  0  0
   -9.5680   -0.8910   -1.7520 C   0  0  0  0  0  0  0  0  0  0  0  0
  -10.2710   -1.5600   -0.8540 C   0  0  0  0  0  0  0  0  0  0  0  0
  -11.9230   -1.5790   -1.4990 S   0  0  0  0  0  0  0  0  0  0  0  0
  -12.7710   -0.7050   -0.5780 O   0  0  0  0  0  0  0  0  0  0  0  0
  -11.5480   -0.6650   -2.9660 C   0  0  0  0  0  0  0  0  0  0  0  0
  -10.2620   -0.4130   -2.8860 C   0  0  0  0  0  0  0  0  0  0  0  0
   -7.3980   -1.0960   -0.4940 O   0  0  0  0  0  0  0  0  0  0  0  0
   -5.2000   -1.7100    1.5090 N   0  0  0  0  0  0  0  0  0  0  0  0
   -4.0160   -1.7710    2.1070 N   0  0  0  0  0  0  0  0  0  0  0  0
    5.1580    1.8360    1.9950 N   0  0  0  0  0  0  0  0  0  0  0  0
    6.3190    1.2610    1.4330 C   0  0  0  0  0  0  0  0  0  0  0  0
    6.6720    0.1000    1.7720 O   0  0  0  0  0  0  0  0  0  0  0  0
    7.1420    1.9200    0.4820 N   0  0  0  0  0  0  0  0  0  0  0  0
    8.3330    1.3320   -0.0930 C   0  0  0  0  0  0  0  0  0  0  0  0
    7.9040    0.3370   -1.1060 C   0  0  0  0  0  0  0  0  0  0  0  0
    7.6860   -0.9490   -0.7820 N   0  0  0  0  0  0  0  0  0  0  0  0
    7.3000   -1.8740   -1.6610 C   0  0  0  0  0  0  0  0  0  0  0  0
    7.1080   -1.5180   -2.9710 C   0  0  0  0  0  0  0  0  0  0  0  0
    7.3270   -0.1900   -3.3340 C   0  0  0  0  0  0  0  0  0  0  0  0
    7.0950    0.3150   -4.9990 Cl  0  0  0  0  0  0  0  0  0  0  0  0
    7.7180    0.6870   -2.3810 N   0  0  0  0  0  0  0  0  0  0  0  0
  2  1  1  1
  2  3  1  0
  2 26  1  0
  3  4  1  0
  4  5  1  0
  5  6  1  0
  6  7  2  0
  6  8  1  0
  8  9  1  0
  9 10  1  0
 10 11  2  0
 10 25  1  0
 11 12  1  0
 12 13  1  0
 12 24  2  0
 13 14  2  0
 13 23  1  0
 14 15  1  0
 15 16  2  0
 16 17  1  0
 16 23  1  0
 17 18  2  0
 17 22  1  0
 19 18  1  1
 19 20  2  0
 19 21  1  0
 21 22  2  0
 24 25  1  0
 26 27  1  0
 27 28  2  0
 27 29  1  0
 29 30  1  0
 30 31  1  0
 31 32  2  0
 31 37  1  0
 32 33  1  0
 33 34  2  0
 34 35  1  0
 35 36  1  0
 35 37  2  0
M  END
