
     RDKit          3D

 37 40  0  0  0  0  0  0  0  0999 V2000
   -6.5820    2.8680    1.1040 C   0  0  0  0  0  0  0  0  0  0  0  0
   -7.3360    1.6710    1.2580 C   0  0  0  0  0  0  0  0  0  0  0  0
   -8.4980    1.9380    1.8810 O   0  0  0  0  0  0  0  0  0  0  0  0
   -7.2730    0.2540    0.9680 C   0  0  0  0  0  0  0  0  0  0  0  0
   -6.3600   -0.4110    0.4000 C   0  0  0  0  0  0  0  0  0  0  0  0
   -5.1020   -0.3360   -0.1970 N   0  0  0  0  0  0  0  0  0  0  0  0
   -4.1550    0.6050   -0.4810 C   0  0  0  0  0  0  0  0  0  0  0  0
   -4.2920    1.7750   -0.1980 O   0  0  0  0  0  0  0  0  0  0  0  0
   -2.9020    0.2800   -1.1480 N   0  0  0  0  0  0  0  0  0  0  0  0
   -1.9920    1.3690   -1.3880 C   0  0  0  0  0  0  0  0  0  0  0  0
   -0.7600    0.9490   -2.0520 C   0  0  0  0  0  0  0  0  0  0  0  0
   -0.6970    0.9190   -3.4270 C   0  0  0  0  0  0  0  0  0  0  0  0
    0.4490    0.5350   -4.0770 C   0  0  0  0  0  0  0  0  0  0  0  0
    1.5040    0.1910   -3.3670 N   0  0  0  0  0  0  0  0  0  0  0  0
    1.4750    0.2100   -2.0160 C   0  0  0  0  0  0  0  0  0  0  0  0
    2.4520   -0.0990   -1.0910 C   0  0  0  0  0  0  0  0  0  0  0  0
    3.8070   -0.5550   -1.3390 C   0  0  0  0  0  0  0  0  0  0  0  0
    4.0750   -1.4610   -2.1750 N   0  0  0  0  0  0  0  0  0  0  0  0
    2.8610   -2.2530   -3.1070 Cl  0  0  0  0  0  0  0  0  0  0  0  0
    4.8670    0.0430   -0.6090 N   0  0  0  0  0  0  0  0  0  0  0  0
    6.1800    0.2060   -1.1990 C   0  0  0  0  0  0  0  0  0  0  0  0
    7.1250    0.8630   -0.2100 C   0  0  2  0  0  0  0  0  0  0  0  0
    8.4910    0.9410   -0.8120 C   0  0  0  0  0  0  0  0  0  0  0  0
    9.3080    0.7490    0.3160 O   0  0  0  0  0  0  0  0  0  0  0  0
    8.6160   -0.2430    1.0170 C   0  0  1  0  0  0  0  0  0  0  0  0
    8.8720   -1.5970    0.3940 C   0  0  0  0  0  0  0  0  0  0  0  0
    9.0660   -0.3160    2.4730 C   0  0  0  0  0  0  0  0  0  0  0  0
    7.2670    0.1090    0.9330 O   0  0  0  0  0  0  0  0  0  0  0  0
    1.8640    0.1090    0.1520 C   0  0  0  0  0  0  0  0  0  0  0  0
    2.5390   -0.0980    1.3770 N   0  0  0  0  0  0  0  0  0  0  0  0
    0.6250    0.5130   -0.0750 N   0  0  0  0  0  0  0  0  0  0  0  0
    0.3510    0.5870   -1.3650 N   0  0  0  0  0  0  0  0  0  0  0  0
   -7.0470   -2.1870    0.3400 S   0  0  0  0  0  0  0  0  0  0  0  0
   -8.7820   -1.5780    0.4160 C   0  0  1  0  0  0  0  0  0  0  0  0
   -9.5930   -2.7230    0.9520 C   0  0  0  0  0  0  0  0  0  0  0  0
   -8.4810   -0.5410    1.4520 C   0  0  1  0  0  0  0  0  0  0  0  0
   -8.1530   -1.0820    2.7320 N   0  0  0  0  0  0  0  0  0  0  0  0
  1  2  1  0
  2  3  2  0
  2  4  1  0
  4  5  2  0
  4 36  1  0
  5  6  1  0
  5 33  1  0
  6  7  1  0
  7  8  2  0
  7  9  1  0
  9 10  1  0
 10 11  1  0
 11 12  2  0
 11 32  1  0
 12 13  1  0
 13 14  2  0
 14 15  1  0
 15 16  2  0
 15 32  1  0
 16 17  1  0
 16 29  1  0
 17 18  2  3
 17 20  1  0
 18 19  1  0
 20 21  1  0
 22 21  1  6
 22 23  1  0
 22 28  1  0
 23 24  1  0
 24 25  1  0
 25 26  1  6
 25 27  1  0
 25 28  1  0
 29 30  1  0
 29 31  2  0
 31 32  1  0
 33 34  1  0
 34 35  1  1
 34 36  1  0
 36 37  1  1
M  END
