
     RDKit          3D

 37 41  0  0  0  0  0  0  0  0999 V2000
   -3.8420    4.5050   -0.1090 C   0  0  0  0  0  0  0  0  0  0  0  0
   -4.4040    3.6830    1.0370 C   0  0  0  0  0  0  0  0  0  0  0  0
   -4.2690    2.3230    0.6660 O   0  0  0  0  0  0  0  0  0  0  0  0
   -3.0730    1.7210    0.3910 C   0  0  0  0  0  0  0  0  0  0  0  0
   -2.0400    2.4280    0.4760 O   0  0  0  0  0  0  0  0  0  0  0  0
   -2.9290    0.3280    0.0100 C   0  0  0  0  0  0  0  0  0  0  0  0
   -3.9430   -0.6220   -0.1420 C   0  0  0  0  0  0  0  0  0  0  0  0
   -5.3350   -0.4360    0.0250 N   0  0  0  0  0  0  0  0  0  0  0  0
   -6.2410   -1.5100   -0.1520 C   0  0  1  0  0  0  0  0  0  0  0  0
   -6.2030   -2.5930    0.8260 C   0  0  0  0  0  0  0  0  0  0  0  0
   -5.3530   -2.9090    1.7020 N   0  0  0  0  0  0  0  0  0  0  0  0
   -7.4010   -3.3100    0.6170 O   0  0  0  0  0  0  0  0  0  0  0  0
   -8.3680   -2.4820    0.0260 C   0  0  0  0  0  0  0  0  0  0  0  0
   -7.7160   -1.1000   -0.0440 C   0  0  1  0  0  0  0  0  0  0  0  0
   -8.0460   -0.2530    1.5010 S   0  0  0  0  0  0  0  0  0  0  0  0
   -3.3700   -1.7830   -0.5020 N   0  0  0  0  0  0  0  0  0  0  0  0
   -2.0480   -1.6610   -0.5990 C   0  0  0  0  0  0  0  0  0  0  0  0
   -1.0580   -2.5590   -0.9310 C   0  0  0  0  0  0  0  0  0  0  0  0
    0.2330   -2.0940   -0.9330 C   0  0  0  0  0  0  0  0  0  0  0  0
    0.5530   -0.7640   -0.6140 C   0  0  0  0  0  0  0  0  0  0  0  0
    1.9270   -0.4330   -0.6680 N   0  0  0  0  0  0  0  0  0  0  0  0
    2.5310    0.7730   -0.2850 C   0  0  0  0  0  0  0  0  0  0  0  0
    1.8370    1.6960    0.1640 O   0  0  0  0  0  0  0  0  0  0  0  0
    3.9950    0.9840   -0.4000 C   0  0  0  0  0  0  0  0  0  0  0  0
    4.6570    2.1020   -0.0530 N   0  0  0  0  0  0  0  0  0  0  0  0
    5.9750    1.9570   -0.2880 C   0  0  0  0  0  0  0  0  0  0  0  0
    7.2560    3.1180   -0.0170 Cl  0  0  0  0  0  0  0  0  0  0  0  0
    6.1520    0.6930   -0.8050 C   0  0  0  0  0  0  0  0  0  0  0  0
    7.3580    0.0690   -1.2060 N   0  0  0  0  0  0  0  0  0  0  0  0
    8.3960   -0.0240   -0.4410 C   0  0  0  0  0  0  0  0  0  0  0  0
    8.5340    0.4490    0.8740 N   0  0  0  0  0  0  0  0  0  0  0  0
    9.9480    0.6280    1.1670 C   0  0  0  0  0  0  0  0  0  0  0  0
   10.7030   -0.0930    0.0810 C   0  0  0  0  0  0  0  0  0  0  0  0
    9.6580   -0.6280   -0.7660 N   0  0  0  0  0  0  0  0  0  0  0  0
    4.9270    0.1410   -0.8550 N   0  0  0  0  0  0  0  0  0  0  0  0
   -0.4390    0.0890   -0.2940 C   0  0  0  0  0  0  0  0  0  0  0  0
   -1.7600   -0.3520   -0.2820 C   0  0  0  0  0  0  0  0  0  0  0  0
  1  2  1  0
  2  3  1  0
  3  4  1  0
  4  5  2  0
  4  6  1  0
  6  7  2  0
  6 37  1  0
  7  8  1  0
  7 16  1  0
  9  8  1  1
  9 10  1  0
  9 14  1  0
 10 11  2  0
 10 12  1  0
 12 13  1  0
 13 14  1  0
 14 15  1  1
 16 17  1  0
 17 18  2  0
 17 37  1  0
 18 19  1  0
 19 20  2  0
 20 21  1  0
 20 36  1  0
 21 22  1  0
 22 23  2  0
 22 24  1  0
 24 25  2  0
 24 35  1  0
 25 26  1  0
 26 27  1  0
 26 28  2  0
 28 29  1  0
 28 35  1  0
 29 30  2  3
 30 31  1  0
 30 34  1  0
 31 32  1  0
 32 33  1  0
 33 34  1  0
 36 37  2  0
M  END
