
     RDKit          3D

 37 41  0  0  0  0  0  0  0  0999 V2000
   -3.5260   -3.1070   -1.2080 C   0  0  0  0  0  0  0  0  0  0  0  0
   -4.1230   -2.2660   -0.1000 C   0  0  2  0  0  0  0  0  0  0  0  0
   -5.6290   -2.1740   -0.2680 C   0  0  0  0  0  0  0  0  0  0  0  0
   -6.1430   -3.6100   -0.2030 C   0  0  0  0  0  0  0  0  0  0  0  0
   -5.8240   -4.2000    1.0130 O   0  0  0  0  0  0  0  0  0  0  0  0
   -3.5010   -1.0010    0.0590 N   0  0  0  0  0  0  0  0  0  0  0  0
   -3.5800   -0.1020   -1.0410 C   0  0  0  0  0  0  0  0  0  0  0  0
   -2.7840    1.1760   -0.5500 C   0  0  0  0  0  0  0  0  0  0  0  0
   -3.4620    2.2010   -0.4910 C   0  0  0  0  0  0  0  0  0  0  0  0
   -3.3420    3.5950   -0.1380 C   0  0  0  0  0  0  0  0  0  0  0  0
   -4.3560    4.4950   -0.2190 C   0  0  0  0  0  0  0  0  0  0  0  0
   -3.8640    5.7770    0.2180 C   0  0  0  0  0  0  0  0  0  0  0  0
   -2.6510    5.7170    0.5570 N   0  0  0  0  0  0  0  0  0  0  0  0
   -2.1890    4.3410    0.3820 C   0  0  1  0  0  0  0  0  0  0  0  0
   -1.7500    3.7700    2.0280 Cl  0  0  0  0  0  0  0  0  0  0  0  0
   -1.3630    0.8210   -0.3740 C   0  0  0  0  0  0  0  0  0  0  0  0
   -0.7340   -0.1840   -0.3190 N   0  0  0  0  0  0  0  0  0  0  0  0
    0.5550   -0.3290   -0.2350 C   0  0  0  0  0  0  0  0  0  0  0  0
    1.2630   -1.5010   -0.1720 N   0  0  0  0  0  0  0  0  0  0  0  0
    2.5920   -1.4850   -0.0890 C   0  0  0  0  0  0  0  0  0  0  0  0
    3.2370   -2.6980   -0.0300 N   0  0  0  0  0  0  0  0  0  0  0  0
    4.5650   -2.7630    0.0550 C   0  0  0  0  0  0  0  0  0  0  0  0
    5.1610   -3.9030    0.1100 O   0  0  0  0  0  0  0  0  0  0  0  0
    5.3050   -1.6580    0.0840 N   0  0  0  0  0  0  0  0  0  0  0  0
    4.7100   -0.4290    0.0280 C   0  0  0  0  0  0  0  0  0  0  0  0
    5.5110    0.8060    0.0620 C   0  0  0  0  0  0  0  0  0  0  0  0
    6.9180    0.4320    0.1430 N   0  0  0  0  0  0  0  0  0  0  0  0
    7.7800    0.2120   -0.8600 C   0  0  0  0  0  0  0  0  0  0  0  0
    7.4730    0.3040   -2.0780 O   0  0  0  0  0  0  0  0  0  0  0  0
    8.9790   -0.1120   -0.3530 N   0  0  0  0  0  0  0  0  0  0  0  0
    8.8960   -0.1010    0.9550 N   0  0  0  0  0  0  0  0  0  0  0  0
    7.6420    0.2300    1.2710 C   0  0  0  0  0  0  0  0  0  0  0  0
    7.1290    0.3570    2.4340 O   0  0  0  0  0  0  0  0  0  0  0  0
    3.3640   -0.3490   -0.0580 C   0  0  0  0  0  0  0  0  0  0  0  0
    2.6880    0.8440   -0.1190 C   0  0  0  0  0  0  0  0  0  0  0  0
    1.2890    0.8160   -0.2060 C   0  0  0  0  0  0  0  0  0  0  0  0
    0.0310    2.0480   -0.3050 S   0  0  0  0  0  0  0  0  0  0  0  0
  2  1  1  6
  2  3  1  0
  2  6  1  0
  3  4  1  0
  4  5  1  0
  6  7  1  0
  7  8  1  0
  8  9  2  3
  8 16  1  0
  9 10  1  0
 10 11  2  0
 10 14  1  0
 11 12  1  0
 12 13  2  0
 13 14  1  0
 14 15  1  1
 16 17  2  0
 16 37  1  0
 17 18  1  0
 18 19  2  0
 18 36  1  0
 19 20  1  0
 20 21  1  0
 20 34  2  0
 21 22  1  0
 22 23  2  0
 22 24  1  0
 24 25  2  0
 25 26  1  0
 25 34  1  0
 26 27  1  0
 27 28  1  0
 27 32  1  0
 28 29  2  0
 28 30  1  0
 30 31  1  0
 31 32  1  0
 32 33  2  0
 34 35  1  0
 35 36  2  0
 36 37  1  0
M  CHG  1  13   1
M  END
