
     RDKit          3D

 31 33  0  0  0  0  0  0  0  0999 V2000
    7.8310   -1.3560    3.4220 C   0  0  0  0  0  0  0  0  0  0  0  0
    7.3270   -2.2870    2.3220 C   0  0  0  0  0  0  0  0  0  0  0  0
    6.4070   -1.6740    1.5080 O   0  0  0  0  0  0  0  0  0  0  0  0
    6.8620   -0.5530    0.8530 C   0  0  0  0  0  0  0  0  0  0  0  0
    5.6990   -0.0360    0.0130 C   0  0  0  0  0  0  0  0  0  0  0  0
    4.5390    0.3000    0.9250 C   0  0  1  0  0  0  0  0  0  0  0  0
    4.9050    1.3580    1.9300 C   0  0  0  0  0  0  0  0  0  0  0  0
    3.3720    0.6440    0.1340 N   0  0  1  0  0  0  0  0  0  0  0  0
    2.1490    0.4760    0.8980 C   0  0  0  0  0  0  0  0  0  0  0  0
    1.3790    1.7340    0.7260 C   0  0  0  0  0  0  0  0  0  0  0  0
    0.0660    1.9290    1.2170 N   0  0  0  0  0  0  0  0  0  0  0  0
   -0.9770    1.8930    0.4840 C   0  0  0  0  0  0  0  0  0  0  0  0
   -2.3810    2.0490    0.6960 C   0  0  0  0  0  0  0  0  0  0  0  0
   -3.2000    1.5520   -0.1620 C   0  0  0  0  0  0  0  0  0  0  0  0
   -4.7200    1.6060   -0.1290 C   0  0  0  0  0  0  0  0  0  0  0  0
   -5.2020    1.3110    1.2270 C   0  0  0  0  0  0  0  0  0  0  0  0
   -5.9830    0.3050    1.5830 C   0  0  0  0  0  0  0  0  0  0  0  0
   -6.5030   -0.6650    0.7790 O   0  0  0  0  0  0  0  0  0  0  0  0
   -5.8210   -1.5330   -0.0920 C   0  0  0  0  0  0  0  0  0  0  0  0
   -6.4520   -1.6020   -1.4180 C   0  0  0  0  0  0  0  0  0  0  0  0
   -5.6590   -1.5990   -2.5870 N   0  0  1  0  0  0  0  0  0  0  0  0
   -5.8500   -0.3760   -3.3920 C   0  0  0  0  0  0  0  0  0  0  0  0
   -4.3040   -2.0080   -2.5080 C   0  0  0  0  0  0  0  0  0  0  0  0
   -3.2990   -0.9250   -2.9520 C   0  0  0  0  0  0  0  0  0  0  0  0
   -3.1480    0.0120   -1.9570 N   0  0  0  0  0  0  0  0  0  0  0  0
   -2.5810    0.8370   -1.3060 C   0  0  0  0  0  0  0  0  0  0  0  0
   -0.9170    1.5870   -1.3060 S   0  0  0  0  0  0  0  0  0  0  0  0
    2.1520    2.5880    0.0530 C   0  0  0  0  0  0  0  0  0  0  0  0
    1.6210    4.1900   -0.3610 Cl  0  0  0  0  0  0  0  0  0  0  0  0
    3.4240    1.9940   -0.2510 C   0  0  0  0  0  0  0  0  0  0  0  0
    4.4360    2.5380   -0.7680 O   0  0  0  0  0  0  0  0  0  0  0  0
  1  2  1  0
  2  3  1  0
  3  4  1  0
  4  5  1  0
  5  6  1  0
  6  7  1  1
  6  8  1  0
  8  9  1  1
  8 30  1  0
  9 10  1  0
 10 11  1  0
 10 28  2  0
 11 12  2  3
 12 13  1  0
 12 27  1  0
 13 14  2  0
 14 15  1  0
 14 26  1  0
 15 16  1  0
 16 17  2  0
 17 18  1  0
 18 19  1  0
 19 20  1  0
 20 21  1  0
 21 22  1  1
 21 23  1  0
 23 24  1  0
 24 25  1  0
 25 26  2  0
 26 27  1  0
 28 29  1  0
 28 30  1  0
 30 31  2  0
M  CHG  2   8   1  21   1
M  END
