
     RDKit          3D

 31 34  0  0  0  0  0  0  0  0999 V2000
    6.6380    0.3940   -1.5770 C   0  0  0  0  0  0  0  0  0  0  0  0
    6.0030   -0.6580   -0.7160 C   0  0  0  0  0  0  0  0  0  0  0  0
    4.6040   -0.8550   -0.9740 N   0  0  0  0  0  0  0  0  0  0  0  0
    3.9030   -0.9200    0.2820 C   0  0  1  0  0  0  0  0  0  0  0  0
    3.4860    0.4660    0.7380 C   0  0  0  0  0  0  0  0  0  0  0  0
    2.6720    0.2550    2.0210 C   0  0  0  0  0  0  0  0  0  0  0  0
    1.3450   -0.2860    1.6130 C   0  0  1  0  0  0  0  0  0  0  0  0
    0.5230    0.8540    1.1560 N   0  0  0  0  0  0  0  0  0  0  0  0
   -0.7850    0.5350    0.7260 C   0  0  0  0  0  0  0  0  0  0  0  0
   -1.2500   -0.7350    0.7380 N   0  0  0  0  0  0  0  0  0  0  0  0
   -2.4790   -1.0890    0.3440 C   0  0  0  0  0  0  0  0  0  0  0  0
   -2.9400   -2.4350    0.3680 N   0  0  0  0  0  0  0  0  0  0  0  0
   -4.2270   -2.8220   -0.0420 C   0  0  0  0  0  0  0  0  0  0  0  0
   -5.0420   -1.9780   -0.4550 O   0  0  0  0  0  0  0  0  0  0  0  0
   -4.6060   -4.2250    0.0190 C   0  0  0  0  0  0  0  0  0  0  0  0
   -3.8780   -5.3180    0.4380 C   0  0  0  0  0  0  0  0  0  0  0  0
   -4.6540   -6.4060    0.3100 N   0  0  0  0  0  0  0  0  0  0  0  0
   -5.8390   -6.0770   -0.1660 N   0  0  0  0  0  0  0  0  0  0  0  0
   -5.8270   -4.7470   -0.3500 C   0  0  0  0  0  0  0  0  0  0  0  0
   -3.2670   -0.0850   -0.0820 N   0  0  0  0  0  0  0  0  0  0  0  0
   -2.8370    1.1560   -0.1020 N   0  0  0  0  0  0  0  0  0  0  0  0
   -1.6150    1.5610    0.2810 C   0  0  0  0  0  0  0  0  0  0  0  0
   -1.2000    2.9090    0.2150 N   0  0  0  0  0  0  0  0  0  0  0  0
   -2.0720    3.9330   -0.2150 C   0  0  0  0  0  0  0  0  0  0  0  0
   -1.4840    5.1170   -0.6790 C   0  0  0  0  0  0  0  0  0  0  0  0
   -2.2700    6.1410   -1.0830 C   0  0  0  0  0  0  0  0  0  0  0  0
   -3.6470    6.1080   -1.0740 C   0  0  0  0  0  0  0  0  0  0  0  0
   -4.2160    4.9440   -0.6170 C   0  0  0  0  0  0  0  0  0  0  0  0
   -3.4360    3.8800   -0.1960 C   0  0  0  0  0  0  0  0  0  0  0  0
    1.4160   -1.2500    0.4620 C   0  0  0  0  0  0  0  0  0  0  0  0
    2.7640   -1.8820    0.2870 C   0  0  0  0  0  0  0  0  0  0  0  0
  1  2  1  0
  2  3  1  0
  4  3  1  6
  4  5  1  0
  4 31  1  0
  5  6  1  0
  6  7  1  0
  7  8  1  6
  7 30  1  0
  8  9  1  0
  9 10  2  0
  9 22  1  0
 10 11  1  0
 11 12  1  0
 11 20  2  0
 12 13  1  0
 13 14  2  0
 13 15  1  0
 15 16  1  0
 15 19  2  0
 16 17  2  0
 17 18  1  0
 18 19  1  0
 20 21  1  0
 21 22  2  0
 22 23  1  0
 23 24  1  0
 24 25  2  0
 24 29  1  0
 25 26  1  0
 26 27  2  0
 27 28  1  0
 28 29  2  0
 30 31  1  0
M  CHG  1   3   1
M  END
