
     RDKit          3D

 31 35  0  0  0  0  0  0  0  0999 V2000
   -0.3180   -1.2150    1.8790 C   0  0  0  0  0  0  0  0  0  0  0  0
    0.2820   -0.0060    1.3160 N   0  0  0  0  0  0  0  0  0  0  0  0
   -0.3950    1.2190    1.0880 C   0  0  0  0  0  0  0  0  0  0  0  0
   -2.0660    1.6640    1.3380 S   0  0  0  0  0  0  0  0  0  0  0  0
   -3.2740    0.4480    1.6560 C   0  0  0  0  0  0  0  0  0  0  0  0
   -3.5580   -0.5170    0.4840 C   0  0  1  0  0  0  0  0  0  0  0  0
   -4.5890   -1.4790    0.9140 C   0  0  0  0  0  0  0  0  0  0  0  0
   -5.6830   -1.7850   -0.0270 C   0  0  0  0  0  0  0  0  0  0  0  0
   -5.7600   -1.0100   -1.1480 O   0  0  0  0  0  0  0  0  0  0  0  0
   -5.4070    0.3050   -0.9620 C   0  0  2  0  0  0  0  0  0  0  0  0
   -6.2770    1.0390    0.0280 C   0  0  0  0  0  0  0  0  0  0  0  0
   -7.5030    1.3030   -0.8590 C   0  0  0  0  0  0  0  0  0  0  0  0
   -7.0210    1.5280   -2.1200 O   0  0  0  0  0  0  0  0  0  0  0  0
   -5.7480    1.0430   -2.2380 C   0  0  0  0  0  0  0  0  0  0  0  0
   -3.9470    0.3640   -0.6720 C   0  0  0  0  0  0  0  0  0  0  0  0
    0.4630    2.0740    0.5620 N   0  0  0  0  0  0  0  0  0  0  0  0
    1.7310    1.4810    0.4110 C   0  0  0  0  0  0  0  0  0  0  0  0
    2.7190    2.1070   -0.0690 O   0  0  0  0  0  0  0  0  0  0  0  0
    1.6590    0.1270    0.8890 C   0  0  0  0  0  0  0  0  0  0  0  0
    2.6300   -0.7900    1.0340 C   0  0  0  0  0  0  0  0  0  0  0  0
    2.4240   -2.1170    1.7030 C   0  0  0  0  0  0  0  0  0  0  0  0
    3.6940   -2.7800    1.5970 N   0  0  0  0  0  0  0  0  0  0  0  0
    4.5320   -2.0570    0.9810 C   0  0  0  0  0  0  0  0  0  0  0  0
    3.9660   -0.7990    0.5800 N   0  0  0  0  0  0  0  0  0  0  0  0
    4.7360    0.1500   -0.1590 C   0  0  1  0  0  0  0  0  0  0  0  0
    5.6370    1.0220    0.6750 C   0  0  0  0  0  0  0  0  0  0  0  0
    6.2150    2.0910   -0.2430 C   0  0  0  0  0  0  0  0  0  0  0  0
    7.0330    1.4750   -1.3280 C   0  0  2  0  0  0  0  0  0  0  0  0
    7.2710    2.7080   -2.6060 Cl  0  0  0  0  0  0  0  0  0  0  0  0
    6.3670    0.2910   -1.9940 C   0  0  0  0  0  0  0  0  0  0  0  0
    5.8010   -0.6780   -1.0130 C   0  0  0  0  0  0  0  0  0  0  0  0
  1  2  1  0
  2  3  1  0
  2 19  1  0
  3  4  1  0
  3 16  2  0
  4  5  1  0
  6  5  1  1
  6  7  1  0
  6 15  1  0
  7  8  1  0
  8  9  1  0
  9 10  1  0
 10 11  1  1
 10 14  1  0
 10 15  1  0
 11 12  1  0
 12 13  1  0
 13 14  1  0
 16 17  1  0
 17 18  2  0
 17 19  1  0
 19 20  2  3
 20 21  1  0
 20 24  1  0
 21 22  1  0
 22 23  2  0
 23 24  1  0
 25 24  1  1
 25 26  1  0
 25 31  1  0
 26 27  1  0
 27 28  1  0
 28 29  1  6
 28 30  1  0
 30 31  1  0
M  CHG  1  22   1
M  END
