
     RDKit          3D

 31 34  0  0  0  0  0  0  0  0999 V2000
   -0.9810   -2.9220   -1.3470 C   0  0  0  0  0  0  0  0  0  0  0  0
   -1.1230   -1.5880   -0.7700 C   0  0  0  0  0  0  0  0  0  0  0  0
   -1.7790   -1.3760    0.3790 C   0  0  0  0  0  0  0  0  0  0  0  0
   -2.3440   -2.5420    1.0280 C   0  0  0  0  0  0  0  0  0  0  0  0
   -2.9310   -2.5350    2.1480 N   0  0  0  0  0  0  0  0  0  0  0  0
   -2.0030   -0.0150    0.8760 C   0  0  1  0  0  0  0  0  0  0  0  0
   -0.9180    0.9550    0.5220 C   0  0  0  0  0  0  0  0  0  0  0  0
   -1.2080    2.2150    0.0660 C   0  0  0  0  0  0  0  0  0  0  0  0
   -2.3550    2.6990   -0.0800 O   0  0  0  0  0  0  0  0  0  0  0  0
   -0.1920    3.0680   -0.2700 N   0  0  0  0  0  0  0  0  0  0  0  0
    1.0740    2.7140   -0.1670 N   0  0  0  0  0  0  0  0  0  0  0  0
    1.4250    1.5170    0.2690 C   0  0  0  0  0  0  0  0  0  0  0  0
    2.6830    0.9260    0.4870 C   0  0  0  0  0  0  0  0  0  0  0  0
    3.9780    1.5440    0.2390 C   0  0  0  0  0  0  0  0  0  0  0  0
    4.1080    2.8420   -0.2180 C   0  0  0  0  0  0  0  0  0  0  0  0
    5.3070    3.4110   -0.4190 N   0  0  0  0  0  0  0  0  0  0  0  0
    6.4510    2.7270   -0.1800 C   0  0  0  0  0  0  0  0  0  0  0  0
    6.3500    1.4760    0.2590 N   0  0  0  0  0  0  0  0  0  0  0  0
    5.1430    0.8800    0.4700 C   0  0  0  0  0  0  0  0  0  0  0  0
    5.1560   -0.5190    0.9290 C   0  0  0  0  0  0  0  0  0  0  0  0
    4.9170   -1.4130   -0.2650 C   0  0  0  0  0  0  0  0  0  0  0  0
    4.8950   -2.8180    0.0990 N   0  0  0  0  0  0  0  0  0  0  0  0
    2.3690   -0.2880    0.9580 N   0  0  0  0  0  0  0  0  0  0  0  0
    1.0620   -0.4730    1.0400 N   0  0  0  0  0  0  0  0  0  0  0  0
    0.4150    0.6220    0.6200 C   0  0  0  0  0  0  0  0  0  0  0  0
   -3.2650    0.5410    0.2920 N   0  0  0  0  0  0  0  0  0  0  0  0
   -4.4360   -0.1620    0.8420 C   0  0  0  0  0  0  0  0  0  0  0  0
   -5.7130    0.4810    0.3420 C   0  0  0  0  0  0  0  0  0  0  0  0
   -5.4250    1.5120   -0.6890 C   0  0  0  0  0  0  0  0  0  0  0  0
   -4.4980    0.9320   -1.7220 C   0  0  0  0  0  0  0  0  0  0  0  0
   -3.2860    0.2640   -1.1560 C   0  0  0  0  0  0  0  0  0  0  0  0
  1  2  1  0
  2  3  2  3
  3  4  1  0
  3  6  1  0
  4  5  2  0
  6  7  1  0
  6 26  1  6
  7  8  1  0
  7 25  2  0
  8  9  2  0
  8 10  1  0
 10 11  1  0
 11 12  2  0
 12 13  1  0
 12 25  1  0
 13 14  1  0
 13 23  2  0
 14 15  2  0
 14 19  1  0
 15 16  1  0
 16 17  2  0
 17 18  1  0
 18 19  2  0
 19 20  1  0
 20 21  1  0
 21 22  1  0
 23 24  1  0
 24 25  1  0
 26 27  1  0
 26 31  1  0
 27 28  1  0
 28 29  1  0
 29 30  1  0
 30 31  1  0
M  CHG  1  22   1
M  END
