
     RDKit          3D

 31 34  0  0  0  0  0  0  0  0999 V2000
    6.9720    1.0040   -2.0070 C   0  0  0  0  0  0  0  0  0  0  0  0
    5.9500    0.5350   -1.3380 C   0  0  0  0  0  0  0  0  0  0  0  0
    5.4480   -0.6880   -1.5120 O   0  0  0  0  0  0  0  0  0  0  0  0
    4.4410   -0.9070   -0.7290 C   0  0  0  0  0  0  0  0  0  0  0  0
    3.6460   -2.1870   -0.6740 C   0  0  0  0  0  0  0  0  0  0  0  0
    2.2980   -1.9650   -1.8680 S   0  0  0  0  0  0  0  0  0  0  0  0
    1.2010   -0.6430   -1.2190 C   0  0  0  0  0  0  0  0  0  0  0  0
    0.5730   -1.2210    0.0320 C   0  0  1  0  0  0  0  0  0  0  0  0
   -0.3590   -0.3050    0.7270 C   0  0  0  0  0  0  0  0  0  0  0  0
   -1.4910    0.1540   -0.0140 N   0  0  1  0  0  0  0  0  0  0  0  0
   -2.5880   -0.7450    0.1620 C   0  0  0  0  0  0  0  0  0  0  0  0
   -3.8480   -0.3130   -0.5480 C   0  0  0  0  0  0  0  0  0  0  0  0
   -4.0170    1.1810   -0.6110 C   0  0  0  0  0  0  0  0  0  0  0  0
   -3.2090    1.8680    0.4650 C   0  0  2  0  0  0  0  0  0  0  0  0
   -3.8660    1.7590    1.8270 C   0  0  0  0  0  0  0  0  0  0  0  0
   -5.0690    2.6920    1.6390 C   0  0  0  0  0  0  0  0  0  0  0  0
   -4.5220    3.6800    0.6620 C   0  0  0  0  0  0  0  0  0  0  0  0
   -3.2990    3.2390    0.2250 O   0  0  0  0  0  0  0  0  0  0  0  0
   -1.7710    1.4970    0.4500 C   0  0  0  0  0  0  0  0  0  0  0  0
    0.0710   -2.5590   -0.2020 N   0  0  0  0  0  0  0  0  0  0  0  0
   -0.1000   -2.9880   -1.4270 N   0  0  0  0  0  0  0  0  0  0  0  0
   -0.5550   -4.2060   -1.7270 C   0  0  0  0  0  0  0  0  0  0  0  0
   -0.8710   -5.0800   -0.7220 C   0  0  0  0  0  0  0  0  0  0  0  0
   -0.6980   -4.6480    0.5800 C   0  0  0  0  0  0  0  0  0  0  0  0
   -0.2210   -3.3700    0.8220 C   0  0  0  0  0  0  0  0  0  0  0  0
   -0.0840   -3.0310    2.0280 O   0  0  0  0  0  0  0  0  0  0  0  0
    4.2650    0.1980   -0.0120 N   0  0  0  0  0  0  0  0  0  0  0  0
    5.1990    1.1480   -0.3600 C   0  0  0  0  0  0  0  0  0  0  0  0
    5.2890    2.3500    0.1680 C   0  0  0  0  0  0  0  0  0  0  0  0
    4.3240    2.7460    1.2270 C   0  0  0  0  0  0  0  0  0  0  0  0
    6.4850    3.5040   -0.3130 Cl  0  0  0  0  0  0  0  0  0  0  0  0
  1  2  2  0
  2  3  1  0
  2 28  1  0
  3  4  1  0
  4  5  1  0
  4 27  2  0
  5  6  1  0
  6  7  1  0
  8  7  1  6
  8  9  1  0
  8 20  1  0
 10  9  1  1
 10 11  1  0
 10 19  1  0
 11 12  1  0
 12 13  1  0
 14 13  1  6
 14 15  1  0
 14 18  1  0
 14 19  1  0
 15 16  1  0
 16 17  1  0
 17 18  1  0
 20 21  1  0
 20 25  1  0
 21 22  2  0
 22 23  1  0
 23 24  2  0
 24 25  1  0
 25 26  2  0
 27 28  1  0
 28 29  2  3
 29 30  1  0
 29 31  1  0
M  CHG  1  10   1
M  END
