
     RDKit          3D

 31 34  0  0  0  0  0  0  0  0999 V2000
    4.7470   -1.5260   -2.2800 C   0  0  0  0  0  0  0  0  0  0  0  0
    3.9780   -0.8990   -1.3330 O   0  0  0  0  0  0  0  0  0  0  0  0
    3.9660   -0.9510    0.0290 C   0  0  0  0  0  0  0  0  0  0  0  0
    3.0070   -0.2440    0.7730 C   0  0  0  0  0  0  0  0  0  0  0  0
    2.0840    0.7470    0.1200 C   0  0  0  0  0  0  0  0  0  0  0  0
    0.8050    0.2130   -0.0950 N   0  0  1  0  0  0  0  0  0  0  0  0
    0.4910   -1.0930    0.3760 C   0  0  0  0  0  0  0  0  0  0  0  0
   -0.1220   -1.7820   -0.8720 C   0  0  0  0  0  0  0  0  0  0  0  0
   -1.0350   -0.8190   -1.5320 C   0  0  0  0  0  0  0  0  0  0  0  0
   -1.4970    0.3510   -0.7140 C   0  0  1  0  0  0  0  0  0  0  0  0
   -2.5020    0.0640    0.2270 N   0  0  0  0  0  0  0  0  0  0  0  0
   -3.0360   -1.2800    0.1880 C   0  0  0  0  0  0  0  0  0  0  0  0
   -4.1570   -1.1820    1.2420 C   0  0  2  0  0  0  0  0  0  0  0  0
   -4.7960   -2.5400    1.3300 C   0  0  0  0  0  0  0  0  0  0  0  0
   -5.1470   -0.1610    0.6550 C   0  0  0  0  0  0  0  0  0  0  0  0
   -3.9780    0.9580   -0.1190 S   0  0  2  0  0  0  0  0  0  0  0  0
   -4.1660    1.0050   -1.6070 O   0  0  0  0  0  0  0  0  0  0  0  0
   -3.9790    2.2770    0.5390 O   0  0  0  0  0  0  0  0  0  0  0  0
   -0.3400    1.0850   -0.0150 C   0  0  2  0  0  0  0  0  0  0  0  0
    0.0680    2.2810   -0.8710 C   0  0  0  0  0  0  0  0  0  0  0  0
   -0.8760    3.3620   -0.9540 C   0  0  0  0  0  0  0  0  0  0  0  0
   -1.5290    3.8150   -2.0150 C   0  0  0  0  0  0  0  0  0  0  0  0
   -2.3930    4.9460   -1.6290 C   0  0  0  0  0  0  0  0  0  0  0  0
   -2.3330    4.9240   -0.3010 C   0  0  0  0  0  0  0  0  0  0  0  0
   -1.2540    4.2950    0.1300 C   0  0  0  0  0  0  0  0  0  0  0  0
   -0.4970    4.5890    1.6620 Cl  0  0  0  0  0  0  0  0  0  0  0  0
    3.2420   -0.4970    2.0710 C   0  0  0  0  0  0  0  0  0  0  0  0
    2.5930    0.0100    3.3130 C   0  0  0  0  0  0  0  0  0  0  0  0
    4.3150   -1.3340    2.1370 N   0  0  0  0  0  0  0  0  0  0  0  0
    4.7360   -1.5900    0.8900 N   0  0  0  0  0  0  0  0  0  0  0  0
    5.8660   -2.4320    0.5390 C   0  0  0  0  0  0  0  0  0  0  0  0
  1  2  1  0
  2  3  1  0
  3  4  2  0
  3 30  1  0
  4  5  1  0
  4 27  1  0
  6  5  1  1
  6  7  1  0
  6 19  1  0
  7  8  1  0
  8  9  1  0
  9 10  1  0
 10 11  1  1
 10 19  1  0
 11 12  1  0
 11 16  1  0
 12 13  1  0
 13 14  1  6
 13 15  1  0
 16 15  1  1
 16 17  2  0
 16 18  2  0
 19 20  1  6
 20 21  1  0
 21 22  2  0
 21 25  1  0
 22 23  1  0
 23 24  2  0
 24 25  2  0
 25 26  1  0
 27 28  1  0
 27 29  2  0
 29 30  1  0
 30 31  1  0
M  CHG  1   6   1
M  END
