
     RDKit          3D

 31 33  0  0  0  0  0  0  0  0999 V2000
   -3.6570   -2.0710    1.3150 C   0  0  0  0  0  0  0  0  0  0  0  0
   -3.8660   -0.8470    0.4460 C   0  0  2  0  0  0  0  0  0  0  0  0
   -5.0030   -1.1670   -0.5030 C   0  0  0  0  0  0  0  0  0  0  0  0
   -2.6290   -0.6220   -0.4490 C   0  0  0  0  0  0  0  0  0  0  0  0
   -2.5400    0.8740   -0.6490 C   0  0  2  0  0  0  0  0  0  0  0  0
   -1.9310    1.3150   -1.8420 N   0  0  0  0  0  0  0  0  0  0  0  0
   -0.6510    1.1330   -2.3590 C   0  0  0  0  0  0  0  0  0  0  0  0
   -0.3020    1.6370   -3.6180 C   0  0  0  0  0  0  0  0  0  0  0  0
    0.9380    1.4870   -4.1620 C   0  0  0  0  0  0  0  0  0  0  0  0
    1.9240    0.7920   -3.4320 C   0  0  0  0  0  0  0  0  0  0  0  0
    1.6360    0.2830   -2.2050 C   0  0  0  0  0  0  0  0  0  0  0  0
    2.6260   -0.4550   -1.3840 C   0  0  0  0  0  0  0  0  0  0  0  0
    2.1780   -1.1080    0.2300 S   0  0  0  0  0  0  0  0  0  0  0  0
    3.7750   -1.8160    0.5810 C   0  0  0  0  0  0  0  0  0  0  0  0
    4.0820   -2.5930    1.8010 C   0  0  0  0  0  0  0  0  0  0  0  0
    3.1590   -2.7230    2.6580 O   0  0  0  0  0  0  0  0  0  0  0  0
    5.3330   -3.1580    1.9940 O   0  0  0  0  0  0  0  0  0  0  0  0
    4.5160   -1.5120   -0.5190 C   0  0  0  0  0  0  0  0  0  0  0  0
    5.8840   -1.9170   -0.5840 O   0  0  0  0  0  0  0  0  0  0  0  0
    6.9540   -1.1030   -0.3800 C   0  0  0  0  0  0  0  0  0  0  0  0
    7.0560   -0.3730    0.8570 C   0  0  0  0  0  0  0  0  0  0  0  0
    6.2130   -0.3170    1.7610 O   0  0  0  0  0  0  0  0  0  0  0  0
    8.2410    0.3790    1.1030 O   0  0  0  0  0  0  0  0  0  0  0  0
    3.8780   -0.8100   -1.5070 C   0  0  0  0  0  0  0  0  0  0  0  0
    4.9160   -0.3600   -3.1100 Br  0  0  0  0  0  0  0  0  0  0  0  0
    0.3540    0.4710   -1.7080 C   0  0  0  0  0  0  0  0  0  0  0  0
   -2.0300    1.4540    0.6370 C   0  0  0  0  0  0  0  0  0  0  0  0
   -3.1240    1.2460    1.6690 C   0  0  2  0  0  0  0  0  0  0  0  0
   -3.7250    2.6380    1.9130 C   0  0  0  0  0  0  0  0  0  0  0  0
   -2.5820    0.7820    2.9880 C   0  0  0  0  0  0  0  0  0  0  0  0
   -4.2340    0.3630    1.2310 C   0  0  0  0  0  0  0  0  0  0  0  0
  2  1  1  1
  2  3  1  0
  2  4  1  0
  2 31  1  0
  4  5  1  0
  5  6  1  6
  5 27  1  0
  6  7  1  0
  7  8  2  0
  7 26  1  0
  8  9  1  0
  9 10  2  0
 10 11  1  0
 11 12  1  0
 11 26  2  0
 12 13  1  0
 12 24  2  0
 13 14  1  0
 14 15  1  0
 14 18  2  0
 15 16  2  0
 15 17  1  0
 18 19  1  0
 18 24  1  0
 19 20  1  0
 20 21  1  0
 21 22  2  0
 21 23  1  0
 24 25  1  0
 27 28  1  0
 28 29  1  1
 28 30  1  0
 28 31  1  0
M  END
