
     RDKit          3D

 31 34  0  0  0  0  0  0  0  0999 V2000
   -5.0900    2.5050   -0.9340 C   0  0  0  0  0  0  0  0  0  0  0  0
   -4.7250    1.2080   -1.6460 C   0  0  1  0  0  0  0  0  0  0  0  0
   -3.2680    0.8710   -1.1350 C   0  0  0  0  0  0  0  0  0  0  0  0
   -3.4490   -0.1150   -0.1750 N   0  0  2  0  0  0  0  0  0  0  0  0
   -2.9080   -0.3640    1.0720 C   0  0  0  0  0  0  0  0  0  0  0  0
   -3.8060   -1.0210    2.0120 C   0  0  0  0  0  0  0  0  0  0  0  0
   -3.5470   -1.1490    3.2990 N   0  0  0  0  0  0  0  0  0  0  0  0
   -2.4400   -0.6690    3.7690 N   0  0  0  0  0  0  0  0  0  0  0  0
   -1.5030   -0.0390    3.0180 C   0  0  0  0  0  0  0  0  0  0  0  0
   -1.7620    0.0940    1.6360 C   0  0  0  0  0  0  0  0  0  0  0  0
   -0.7610    0.7140    0.7750 C   0  0  0  0  0  0  0  0  0  0  0  0
   -0.7700    0.2920   -0.5120 C   0  0  0  0  0  0  0  0  0  0  0  0
    0.2010    0.9020   -1.4360 C   0  0  0  0  0  0  0  0  0  0  0  0
    1.5850    0.9510   -0.8190 C   0  0  2  0  0  0  0  0  0  0  0  0
    2.2260   -0.3920   -0.9250 C   0  0  0  0  0  0  0  0  0  0  0  0
    3.5790   -0.3890   -0.3620 C   0  0  0  0  0  0  0  0  0  0  0  0
    4.0800    0.6710    0.0670 O   0  0  0  0  0  0  0  0  0  0  0  0
    4.3450   -1.5420   -0.2830 O   0  0  0  0  0  0  0  0  0  0  0  0
    5.6330   -1.4890    0.2600 C   0  0  0  0  0  0  0  0  0  0  0  0
    6.6020   -0.6130   -0.4590 C   0  0  0  0  0  0  0  0  0  0  0  0
    7.9550   -0.6490    0.2320 C   0  0  0  0  0  0  0  0  0  0  0  0
    8.9430    0.2440   -0.5000 C   0  0  0  0  0  0  0  0  0  0  0  0
   10.5200    0.2040    0.3040 Cl  0  0  0  0  0  0  0  0  0  0  0  0
    1.5270    1.3910    0.5580 N   0  0  0  0  0  0  0  0  0  0  0  0
    0.4930    1.2770    1.2390 C   0  0  0  0  0  0  0  0  0  0  0  0
    0.4760    1.8240    2.9720 S   0  0  0  0  0  0  0  0  0  0  0  0
   -0.3530    0.4200    3.7870 C   0  0  0  0  0  0  0  0  0  0  0  0
   -4.0060   -1.3440   -0.8270 C   0  0  0  0  0  0  0  0  0  0  0  0
   -5.3180   -1.0370   -1.4880 C   0  0  1  0  0  0  0  0  0  0  0  0
   -6.3900   -1.8780   -0.7700 C   0  0  0  0  0  0  0  0  0  0  0  0
   -5.6300    0.2710   -1.2510 O   0  0  0  0  0  0  0  0  0  0  0  0
  2  1  1  1
  2  3  1  0
  2 31  1  0
  3  4  1  0
  4  5  1  6
  4 28  1  0
  5  6  2  0
  5 10  1  0
  6  7  1  0
  7  8  2  0
  8  9  1  0
  9 10  2  0
  9 27  1  0
 10 11  1  0
 11 12  2  0
 11 25  1  0
 12 13  1  0
 13 14  1  0
 14 15  1  1
 14 24  1  0
 15 16  1  0
 16 17  2  0
 16 18  1  0
 18 19  1  0
 19 20  1  0
 20 21  1  0
 21 22  1  0
 22 23  1  0
 24 25  2  0
 25 26  1  0
 26 27  1  0
 28 29  1  0
 29 30  1  1
 29 31  1  0
M  CHG  2   4   1  24   1
M  END
