
     RDKit          3D

 31 35  0  0  0  0  0  0  0  0999 V2000
   -8.5490   -1.1390    1.6460 O   0  0  0  0  0  0  0  0  0  0  0  0
   -7.8020   -0.1180    1.4650 C   0  0  0  0  0  0  0  0  0  0  0  0
   -8.2260    1.0500    2.0440 C   0  0  0  0  0  0  0  0  0  0  0  0
   -7.5670    2.2540    1.9650 C   0  0  0  0  0  0  0  0  0  0  0  0
   -8.1590    3.7070    2.7250 Cl  0  0  0  0  0  0  0  0  0  0  0  0
   -6.1110    2.2140    1.0590 S   0  0  0  0  0  0  0  0  0  0  0  0
   -5.7580    0.6770    0.4240 C   0  0  0  0  0  0  0  0  0  0  0  0
   -6.6780   -0.3080    0.7220 C   0  0  0  0  0  0  0  0  0  0  0  0
   -6.3280   -1.6590    0.1410 C   0  0  0  0  0  0  0  0  0  0  0  0
   -5.9480   -1.5020   -1.2980 C   0  0  0  0  0  0  0  0  0  0  0  0
   -5.1400   -0.3550   -1.5940 N   0  0  2  0  0  0  0  0  0  0  0  0
   -4.1310   -0.6960   -2.5540 C   0  0  0  0  0  0  0  0  0  0  0  0
   -2.7660   -0.7330   -2.0090 C   0  0  0  0  0  0  0  0  0  0  0  0
   -1.8630    0.3040   -1.9460 C   0  0  0  0  0  0  0  0  0  0  0  0
   -0.7100   -0.1820   -1.3590 C   0  0  0  0  0  0  0  0  0  0  0  0
    0.5450    0.5580   -1.0740 C   0  0  0  0  0  0  0  0  0  0  0  0
    1.4470   -0.2900   -0.4860 O   0  0  0  0  0  0  0  0  0  0  0  0
    2.6750    0.3490   -0.1840 C   0  0  1  0  0  0  0  0  0  0  0  0
    2.8530    0.1670    1.2830 C   0  0  0  0  0  0  0  0  0  0  0  0
    3.9330    0.7530    2.0230 C   0  0  0  0  0  0  0  0  0  0  0  0
    5.0710    1.3510    1.4000 N   0  0  0  0  0  0  0  0  0  0  0  0
    6.3360    0.9840    1.9710 C   0  0  0  0  0  0  0  0  0  0  0  0
    6.8550   -0.2920    1.6170 N   0  0  0  0  0  0  0  0  0  0  0  0
    7.2870   -0.4930    0.2790 C   0  0  0  0  0  0  0  0  0  0  0  0
    6.1770   -0.9300   -0.6880 C   0  0  0  0  0  0  0  0  0  0  0  0
    4.9310   -0.3330   -0.2050 C   0  0  2  0  0  0  0  0  0  0  0  0
    3.6980   -0.4350   -1.0300 C   0  0  0  0  0  0  0  0  0  0  0  0
    5.1670    1.1510   -0.0030 C   0  0  0  0  0  0  0  0  0  0  0  0
   -0.9410   -1.4450   -1.0960 O   0  0  0  0  0  0  0  0  0  0  0  0
   -2.1410   -1.7900   -1.4690 N   0  0  0  0  0  0  0  0  0  0  0  0
   -4.5910    0.2870   -0.4010 C   0  0  0  0  0  0  0  0  0  0  0  0
  1  2  2  0
  2  3  1  0
  2  8  1  0
  3  4  2  0
  4  5  1  0
  4  6  1  0
  6  7  1  0
  7  8  2  0
  7 31  1  0
  8  9  1  0
  9 10  1  0
 10 11  1  0
 11 12  1  6
 11 31  1  0
 12 13  1  0
 13 14  1  0
 13 30  2  0
 14 15  2  0
 15 16  1  0
 15 29  1  0
 16 17  1  0
 18 17  1  6
 18 19  1  0
 18 27  1  0
 19 20  1  0
 20 21  1  0
 21 22  1  0
 21 28  1  0
 22 23  1  0
 23 24  1  0
 24 25  1  0
 26 25  1  6
 26 27  1  0
 26 28  1  0
 29 30  1  0
M  CHG  2  11   1  23   1
M  END
