
     RDKit          3D

 31 34  0  0  0  0  0  0  0  0999 V2000
    1.8460   -3.1650    2.1420 C   0  0  0  0  0  0  0  0  0  0  0  0
    1.1700   -2.1900    1.2670 N   0  0  0  0  0  0  0  0  0  0  0  0
   -0.0560   -1.7650    1.8010 N   0  0  0  0  0  0  0  0  0  0  0  0
   -0.7000   -0.8820    1.1410 C   0  0  0  0  0  0  0  0  0  0  0  0
   -0.2490   -0.2760   -0.1390 C   0  0  0  0  0  0  0  0  0  0  0  0
    0.8970   -0.6560   -0.6560 C   0  0  0  0  0  0  0  0  0  0  0  0
    1.7170   -1.6840    0.0340 C   0  0  0  0  0  0  0  0  0  0  0  0
    2.8470   -2.2650   -0.3970 C   0  0  0  0  0  0  0  0  0  0  0  0
    3.5630   -3.6300    0.6040 Cl  0  0  0  0  0  0  0  0  0  0  0  0
    3.6440   -2.0070   -1.6010 C   0  0  0  0  0  0  0  0  0  0  0  0
    4.3760   -0.9190   -1.9400 C   0  0  0  0  0  0  0  0  0  0  0  0
    4.5080    0.2710   -1.1030 C   0  0  0  0  0  0  0  0  0  0  0  0
    4.9920    0.2850    0.1620 C   0  0  0  0  0  0  0  0  0  0  0  0
    4.1100    0.8140    1.1680 O   0  0  0  0  0  0  0  0  0  0  0  0
    3.5380    2.4500    0.8600 S   0  0  2  0  0  0  0  0  0  0  0  0
    1.8350    2.6900    1.0670 C   0  0  0  0  0  0  0  0  0  0  0  0
    1.1270    3.4740    0.0170 C   0  0  2  0  0  0  0  0  0  0  0  0
    0.3520    4.5360    0.6600 C   0  0  0  0  0  0  0  0  0  0  0  0
   -0.2600    5.3850    1.1540 N   0  0  0  0  0  0  0  0  0  0  0  0
    0.1650    2.6420   -0.7330 C   0  0  0  0  0  0  0  0  0  0  0  0
    0.3790    2.4300   -1.9130 O   0  0  0  0  0  0  0  0  0  0  0  0
   -1.0220    2.1000   -0.0250 C   0  0  0  0  0  0  0  0  0  0  0  0
   -1.2640    0.7050   -0.6040 C   0  0  2  0  0  0  0  0  0  0  0  0
   -2.6680    0.3600   -0.1200 C   0  0  0  0  0  0  0  0  0  0  0  0
   -3.0750   -1.0030   -0.6070 C   0  0  0  0  0  0  0  0  0  0  0  0
   -4.4110   -1.3380   -0.1510 N   0  0  2  0  0  0  0  0  0  0  0  0
   -5.0410   -2.2640   -1.0920 C   0  0  0  0  0  0  0  0  0  0  0  0
   -6.3290   -1.5000   -0.9240 C   0  0  0  0  0  0  0  0  0  0  0  0
   -5.4040   -0.3510   -0.5280 C   0  0  0  0  0  0  0  0  0  0  0  0
    4.1630    2.6740   -0.6730 O   0  0  0  0  0  0  0  0  0  0  0  0
    4.0580    1.6190   -1.5380 C   0  0  0  0  0  0  0  0  0  0  0  0
  1  2  1  0
  2  3  1  0
  2  7  1  0
  3  4  2  0
  4  5  1  0
  5  6  2  0
  5 23  1  0
  6  7  1  0
  7  8  2  0
  8  9  1  0
  8 10  1  0
 10 11  2  0
 11 12  1  0
 12 13  2  0
 12 31  1  0
 13 14  1  0
 14 15  1  0
 15 16  1  6
 15 30  1  0
 16 17  1  0
 17 18  1  1
 17 20  1  0
 18 19  3  0
 20 21  2  0
 20 22  1  0
 22 23  1  0
 23 24  1  1
 24 25  1  0
 26 25  1  6
 26 27  1  0
 26 29  1  0
 27 28  1  0
 28 29  1  0
 30 31  1  0
M  CHG  2   3   1  26   1
M  END
