
     RDKit          3D

 15 15  0  0  0  0  0  0  0  0999 V2000
   -2.5850    1.6590   -0.9260 C   0  0  0  0  0  0  0  0  0  0  0  0
   -2.1000    0.7630    0.1790 C   0  0  1  0  0  0  0  0  0  0  0  0
   -2.7790    1.2150    1.4640 C   0  0  0  0  0  0  0  0  0  0  0  0
   -2.4990   -0.6840   -0.0170 C   0  0  0  0  0  0  0  0  0  0  0  0
   -1.9600   -1.2700   -1.2830 C   0  0  0  0  0  0  0  0  0  0  0  0
   -2.3900   -2.5950   -1.3530 O   0  0  0  0  0  0  0  0  0  0  0  0
   -0.6380    0.9070    0.4030 C   0  0  0  0  0  0  0  0  0  0  0  0
   -0.0270    1.7240   -0.3280 O   0  0  0  0  0  0  0  0  0  0  0  0
    0.0890    0.2310    1.3300 O   0  0  0  0  0  0  0  0  0  0  0  0
    1.4260    0.2590    1.6330 C   0  0  0  0  0  0  0  0  0  0  0  0
    2.4400   -0.1970    0.6980 C   0  0  2  0  0  0  0  0  0  0  0  0
    2.6020    0.4710   -0.6230 C   0  0  0  0  0  0  0  0  0  0  0  0
    3.8760   -0.3060   -1.0710 C   0  0  0  0  0  0  0  0  0  0  0  0
    3.5570   -1.6560   -0.4660 C   0  0  0  0  0  0  0  0  0  0  0  0
    2.3930   -1.5320    0.2960 O   0  0  0  0  0  0  0  0  0  0  0  0
  2  1  1  6
  2  3  1  0
  2  4  1  0
  2  7  1  0
  4  5  1  0
  5  6  1  0
  7  8  2  0
  7  9  1  0
  9 10  1  0
 11 10  1  6
 11 12  1  0
 11 15  1  0
 12 13  1  0
 13 14  1  0
 14 15  1  0
M  END
