
     RDKit          3D

 15 15  0  0  0  0  0  0  0  0999 V2000
    3.6360   -0.4310    1.5450 C   0  0  0  0  0  0  0  0  0  0  0  0
    2.6140   -0.3130    0.7210 C   0  0  0  0  0  0  0  0  0  0  0  0
    2.8230   -0.2650   -0.7100 C   0  0  0  0  0  0  0  0  0  0  0  0
    1.9040   -0.1510   -1.6340 C   0  0  0  0  0  0  0  0  0  0  0  0
    2.3550   -0.1240   -3.0430 C   0  0  0  0  0  0  0  0  0  0  0  0
    1.5410   -0.0170   -4.0040 O   0  0  0  0  0  0  0  0  0  0  0  0
    3.6980   -0.2170   -3.3440 O   0  0  0  0  0  0  0  0  0  0  0  0
    0.4730   -0.0480   -1.4120 C   0  0  0  0  0  0  0  0  0  0  0  0
   -0.3390    0.0610   -2.3970 O   0  0  0  0  0  0  0  0  0  0  0  0
   -0.1560   -0.0530   -0.1810 O   0  0  0  0  0  0  0  0  0  0  0  0
   -1.5340    0.0500   -0.0280 C   0  0  1  0  0  0  0  0  0  0  0  0
   -2.1330   -0.9920    0.8820 C   0  0  0  0  0  0  0  0  0  0  0  0
   -3.4330   -0.3310    1.3270 C   0  0  0  0  0  0  0  0  0  0  0  0
   -3.2660    1.1390    1.1290 C   0  0  0  0  0  0  0  0  0  0  0  0
   -1.8030    1.3200    0.7890 C   0  0  0  0  0  0  0  0  0  0  0  0
  1  2  2  0
  2  3  1  0
  3  4  2  3
  4  5  1  0
  4  8  1  0
  5  6  2  0
  5  7  1  0
  8  9  2  0
  8 10  1  0
 11 10  1  1
 11 12  1  0
 11 15  1  0
 12 13  1  0
 13 14  1  0
 14 15  1  0
M  END
