
     RDKit          3D

 15 15  0  0  0  0  0  0  0  0999 V2000
   -5.6820   -0.3140    0.8320 C   0  0  0  0  0  0  0  0  0  0  0  0
   -4.5770   -0.9460    0.1830 O   0  0  0  0  0  0  0  0  0  0  0  0
   -3.2900   -0.4560    0.3180 C   0  0  0  0  0  0  0  0  0  0  0  0
   -3.1210    0.5640    1.0310 O   0  0  0  0  0  0  0  0  0  0  0  0
   -2.1630   -1.1350   -0.3700 C   0  0  0  0  0  0  0  0  0  0  0  0
   -1.7530   -0.4380   -1.6460 C   0  0  0  0  0  0  0  0  0  0  0  0
   -1.3090    0.9710   -1.4030 C   0  0  0  0  0  0  0  0  0  0  0  0
   -0.1250    1.0120   -0.4750 C   0  0  0  0  0  0  0  0  0  0  0  0
    0.9670    0.3160   -0.9920 O   0  0  0  0  0  0  0  0  0  0  0  0
    2.0020    0.4020   -0.0940 C   0  0  1  0  0  0  0  0  0  0  0  0
    2.4310   -0.9670    0.4450 C   0  0  0  0  0  0  0  0  0  0  0  0
    3.5170   -0.6590    1.4850 C   0  0  0  0  0  0  0  0  0  0  0  0
    4.6460   -0.1750    0.8760 O   0  0  0  0  0  0  0  0  0  0  0  0
    4.4830    0.2460   -0.4180 C   0  0  0  0  0  0  0  0  0  0  0  0
    3.2380    1.0420   -0.6690 C   0  0  0  0  0  0  0  0  0  0  0  0
  1  2  1  0
  2  3  1  0
  3  4  2  0
  3  5  1  0
  5  6  1  0
  6  7  1  0
  7  8  1  0
  8  9  1  0
 10  9  1  6
 10 11  1  0
 10 15  1  0
 11 12  1  0
 12 13  1  0
 13 14  1  0
 14 15  1  0
M  END
