
     RDKit          3D

 15 15  0  0  0  0  0  0  0  0999 V2000
    5.9580   -1.4060    0.2410 C   0  0  0  0  0  0  0  0  0  0  0  0
    4.8480   -1.6680   -0.6080 O   0  0  0  0  0  0  0  0  0  0  0  0
    3.5850   -1.1650   -0.2980 C   0  0  0  0  0  0  0  0  0  0  0  0
    3.5060   -0.4860    0.7540 O   0  0  0  0  0  0  0  0  0  0  0  0
    2.4340   -1.4410   -1.1850 C   0  0  0  0  0  0  0  0  0  0  0  0
    1.1560   -0.8760   -0.6620 C   0  0  0  0  0  0  0  0  0  0  0  0
    0.7280   -1.4320    0.6680 C   0  0  0  0  0  0  0  0  0  0  0  0
   -0.5660   -0.7790    1.0600 C   0  0  0  0  0  0  0  0  0  0  0  0
   -1.1520   -1.0640    2.1370 O   0  0  0  0  0  0  0  0  0  0  0  0
   -1.1530    0.1590    0.2440 O   0  0  0  0  0  0  0  0  0  0  0  0
   -2.3600    0.8190    0.5310 C   0  0  2  0  0  0  0  0  0  0  0  0
   -3.3460    0.4870   -0.5830 C   0  0  0  0  0  0  0  0  0  0  0  0
   -4.2780    1.6840   -0.6490 C   0  0  0  0  0  0  0  0  0  0  0  0
   -3.7640    2.6880    0.3510 C   0  0  0  0  0  0  0  0  0  0  0  0
   -2.2790    2.3100    0.4320 C   0  0  0  0  0  0  0  0  0  0  0  0
  1  2  1  0
  2  3  1  0
  3  4  2  0
  3  5  1  0
  5  6  1  0
  6  7  1  0
  7  8  1  0
  8  9  2  0
  8 10  1  0
 11 10  1  6
 11 12  1  0
 11 15  1  0
 12 13  1  0
 13 14  1  0
 14 15  1  0
M  END
