
     RDKit          3D

 15 15  0  0  0  0  0  0  0  0999 V2000
   -5.6240    0.7570    0.4750 C   0  0  0  0  0  0  0  0  0  0  0  0
   -4.2220    1.0800    0.9340 C   0  0  0  0  0  0  0  0  0  0  0  0
   -3.3310    0.1870    0.2630 O   0  0  0  0  0  0  0  0  0  0  0  0
   -1.9660    0.2200    0.4630 C   0  0  0  0  0  0  0  0  0  0  0  0
   -1.4610    1.0480    1.2510 O   0  0  0  0  0  0  0  0  0  0  0  0
   -1.1060   -0.7230   -0.2560 C   0  0  2  0  0  0  0  0  0  0  0  0
   -1.5510   -2.1590   -0.0980 C   0  0  0  0  0  0  0  0  0  0  0  0
    0.2630   -0.5720    0.0470 O   0  0  0  0  0  0  0  0  0  0  0  0
    1.2150   -0.2020   -0.8830 C   0  0  0  0  0  0  0  0  0  0  0  0
    0.8390    0.0110   -2.0560 O   0  0  0  0  0  0  0  0  0  0  0  0
    2.6390   -0.0580   -0.5120 C   0  0  0  0  0  0  0  0  0  0  0  0
    3.1180   -0.2630    0.7030 C   0  0  0  0  0  0  0  0  0  0  0  0
    4.5990   -0.0250    0.7040 C   0  0  0  0  0  0  0  0  0  0  0  0
    4.7180    0.9730   -0.4570 C   0  0  0  0  0  0  0  0  0  0  0  0
    3.7290    0.3350   -1.4420 C   0  0  0  0  0  0  0  0  0  0  0  0
  1  2  1  0
  2  3  1  0
  3  4  1  0
  4  5  2  0
  4  6  1  0
  6  7  1  1
  6  8  1  0
  8  9  1  0
  9 10  2  0
  9 11  1  0
 11 12  2  0
 11 15  1  0
 12 13  1  0
 13 14  1  0
 14 15  1  0
M  END
