
     RDKit          3D

 15 15  0  0  0  0  0  0  0  0999 V2000
    4.9130   -0.4420    2.1310 C   0  0  0  0  0  0  0  0  0  0  0  0
    4.1740   -0.2290    0.8460 C   0  0  0  0  0  0  0  0  0  0  0  0
    4.8420    0.0150   -0.3420 C   0  0  0  0  0  0  0  0  0  0  0  0
    3.8320    0.1550   -1.2870 C   0  0  0  0  0  0  0  0  0  0  0  0
    2.6220   -0.0060   -0.6430 C   0  0  0  0  0  0  0  0  0  0  0  0
    1.2970    0.0630   -1.2630 C   0  0  0  0  0  0  0  0  0  0  0  0
    0.2100   -0.1080   -0.5440 C   0  0  0  0  0  0  0  0  0  0  0  0
   -1.1030   -0.0370   -1.1720 C   0  0  0  0  0  0  0  0  0  0  0  0
   -1.2240    0.1880   -2.4040 O   0  0  0  0  0  0  0  0  0  0  0  0
   -2.2740   -0.2110   -0.4490 O   0  0  0  0  0  0  0  0  0  0  0  0
   -3.5240   -0.1350   -1.0920 C   0  0  0  0  0  0  0  0  0  0  0  0
   -4.6390   -0.3590   -0.0960 C   0  0  0  0  0  0  0  0  0  0  0  0
   -4.6080    0.6830    1.0030 C   0  0  0  0  0  0  0  0  0  0  0  0
   -3.3790    0.6270    1.6980 O   0  0  0  0  0  0  0  0  0  0  0  0
    2.9030   -0.2280    0.6040 O   0  0  0  0  0  0  0  0  0  0  0  0
  1  2  1  0
  2  3  2  0
  2 15  1  0
  3  4  1  0
  4  5  2  0
  5  6  1  0
  5 15  1  0
  6  7  2  3
  7  8  1  0
  8  9  2  0
  8 10  1  0
 10 11  1  0
 11 12  1  0
 12 13  1  0
 13 14  1  0
M  END
