
     RDKit          3D

 15 15  0  0  0  0  0  0  0  0999 V2000
   -4.5720   -0.4980    1.0840 C   0  0  0  0  0  0  0  0  0  0  0  0
   -3.9750   -0.3450   -0.0870 C   0  0  0  0  0  0  0  0  0  0  0  0
   -4.5440    0.6120   -1.0630 C   0  0  0  0  0  0  0  0  0  0  0  0
   -2.7580   -1.1240   -0.4040 C   0  0  0  0  0  0  0  0  0  0  0  0
   -1.6680   -0.3200   -0.6650 O   0  0  0  0  0  0  0  0  0  0  0  0
   -1.3300    0.4990    0.4040 C   0  0  0  0  0  0  0  0  0  0  0  0
   -0.1340    1.3170   -0.0140 C   0  0  0  0  0  0  0  0  0  0  0  0
    0.9930    0.5690   -0.3560 O   0  0  0  0  0  0  0  0  0  0  0  0
    1.6370   -0.2800    0.5250 C   0  0  0  0  0  0  0  0  0  0  0  0
    1.1720   -0.3660    1.6820 O   0  0  0  0  0  0  0  0  0  0  0  0
    2.8520   -1.0700    0.1060 C   0  0  2  0  0  0  0  0  0  0  0  0
    4.0610   -0.7020    0.8980 C   0  0  0  0  0  0  0  0  0  0  0  0
    4.7990    0.2290   -0.0500 C   0  0  0  0  0  0  0  0  0  0  0  0
    3.8290    0.4320   -1.1740 C   0  0  0  0  0  0  0  0  0  0  0  0
    3.1170   -0.7590   -1.2240 O   0  0  0  0  0  0  0  0  0  0  0  0
  1  2  2  0
  2  3  1  0
  2  4  1  0
  4  5  1  0
  5  6  1  0
  6  7  1  0
  7  8  1  0
  8  9  1  0
  9 10  2  0
 11  9  1  1
 11 12  1  0
 11 15  1  0
 12 13  1  0
 13 14  1  0
 14 15  1  0
M  END
