
     RDKit          3D

 15 15  0  0  0  0  0  0  0  0999 V2000
    5.4010    0.8930   -0.8300 C   0  0  0  0  0  0  0  0  0  0  0  0
    3.9470    1.0140   -0.6290 C   0  0  0  0  0  0  0  0  0  0  0  0
    3.3100    0.1480    0.1200 C   0  0  0  0  0  0  0  0  0  0  0  0
    4.0770   -0.9480    0.7560 C   0  0  0  0  0  0  0  0  0  0  0  0
    1.8670    0.2920    0.3030 C   0  0  0  0  0  0  0  0  0  0  0  0
    1.2190    1.2300   -0.2430 O   0  0  0  0  0  0  0  0  0  0  0  0
    1.1230   -0.5840    1.0800 O   0  0  0  0  0  0  0  0  0  0  0  0
   -0.2540   -0.4310    1.2430 C   0  0  0  0  0  0  0  0  0  0  0  0
   -1.0000   -0.5020   -0.0370 C   0  0  0  0  0  0  0  0  0  0  0  0
   -0.3650   -0.6870   -1.1020 O   0  0  0  0  0  0  0  0  0  0  0  0
   -2.3730   -0.3740   -0.1280 O   0  0  0  0  0  0  0  0  0  0  0  0
   -3.0520   -0.4480   -1.3820 C   0  0  0  0  0  0  0  0  0  0  0  0
   -4.5290   -0.2820   -1.2250 C   0  0  2  0  0  0  0  0  0  0  0  0
   -5.1140    0.9500   -0.6420 C   0  0  0  0  0  0  0  0  0  0  0  0
   -5.0560   -0.3700    0.1580 C   0  0  0  0  0  0  0  0  0  0  0  0
  1  2  1  0
  2  3  2  3
  3  4  1  0
  3  5  1  0
  5  6  2  0
  5  7  1  0
  7  8  1  0
  8  9  1  0
  9 10  2  0
  9 11  1  0
 11 12  1  0
 13 12  1  1
 13 14  1  0
 13 15  1  0
 14 15  1  0
M  END
