
     RDKit          3D

 15 16  0  0  0  0  0  0  0  0999 V2000
    0.7500   -1.0820    1.9170 Cl  0  0  0  0  0  0  0  0  0  0  0  0
   -0.7800   -0.5690    1.2560 C   0  0  0  0  0  0  0  0  0  0  0  0
   -1.7760   -0.0610    2.0940 C   0  0  0  0  0  0  0  0  0  0  0  0
   -2.9590    0.3300    1.5940 N   0  0  0  0  0  0  0  0  0  0  0  0
   -3.2200    0.2480    0.2810 C   0  0  0  0  0  0  0  0  0  0  0  0
   -2.2500   -0.2490   -0.5540 C   0  0  0  0  0  0  0  0  0  0  0  0
   -2.6040   -0.3530   -2.2770 Cl  0  0  0  0  0  0  0  0  0  0  0  0
   -1.0250   -0.6630   -0.0910 C   0  0  0  0  0  0  0  0  0  0  0  0
   -0.0330   -1.1680   -0.9670 N   0  0  0  0  0  0  0  0  0  0  0  0
    0.9100   -0.3060   -1.6190 C   0  0  0  0  0  0  0  0  0  0  0  0
    1.7820    0.4590   -0.6820 C   0  0  0  0  0  0  0  0  0  0  0  0
    3.0030    0.0510   -0.3320 N   0  0  0  0  0  0  0  0  0  0  0  0
    3.5020    0.9640    0.5120 C   0  0  0  0  0  0  0  0  0  0  0  0
    2.5510    1.9000    0.6400 N   0  0  0  0  0  0  0  0  0  0  0  0
    1.5390    1.5790   -0.0790 O   0  0  0  0  0  0  0  0  0  0  0  0
  1  2  1  0
  2  3  2  0
  2  8  1  0
  3  4  1  0
  4  5  2  0
  5  6  1  0
  6  7  1  0
  6  8  2  0
  8  9  1  0
  9 10  1  0
 10 11  1  0
 11 12  2  0
 11 15  1  0
 12 13  1  0
 13 14  2  0
 14 15  1  0
M  END
