
     RDKit          3D

 15 16  0  0  0  0  0  0  0  0999 V2000
   -2.2520   -2.1320   -0.2340 C   0  0  0  0  0  0  0  0  0  0  0  0
   -1.9330   -0.7460    0.0770 N   0  0  0  0  0  0  0  0  0  0  0  0
   -2.8640    0.1310    0.3800 N   0  0  0  0  0  0  0  0  0  0  0  0
   -2.5530    1.4100    0.6660 C   0  0  0  0  0  0  0  0  0  0  0  0
   -1.2320    1.8170    0.6420 C   0  0  0  0  0  0  0  0  0  0  0  0
   -0.8720    3.5070    1.0240 Cl  0  0  0  0  0  0  0  0  0  0  0  0
   -0.2320    0.9230    0.3290 C   0  0  0  0  0  0  0  0  0  0  0  0
    1.1140    1.3230    0.3010 N   0  0  0  0  0  0  0  0  0  0  0  0
    2.1870    0.4430   -0.0160 C   0  0  0  0  0  0  0  0  0  0  0  0
    3.1000    0.4140   -0.9940 C   0  0  0  0  0  0  0  0  0  0  0  0
    3.6620   -0.8020   -0.4180 C   0  0  0  0  0  0  0  0  0  0  0  0
    4.9650   -1.9250   -0.7500 Cl  0  0  0  0  0  0  0  0  0  0  0  0
    2.7750   -0.7440    0.5020 N   0  0  0  0  0  0  0  0  0  0  0  0
   -0.6230   -0.3690    0.0470 C   0  0  0  0  0  0  0  0  0  0  0  0
    0.2450   -1.2090   -0.2410 O   0  0  0  0  0  0  0  0  0  0  0  0
  1  2  1  0
  2  3  1  0
  2 14  1  0
  3  4  2  0
  4  5  1  0
  5  6  1  0
  5  7  2  0
  7  8  1  0
  7 14  1  0
  8  9  1  0
  9 10  2  0
  9 13  1  0
 10 11  1  0
 11 12  1  0
 11 13  2  0
 14 15  2  0
M  END
