
     RDKit          3D

 15 16  0  0  0  0  0  0  0  0999 V2000
   -3.6610    1.8120   -0.0110 O   0  0  0  0  0  0  0  0  0  0  0  0
   -2.8040    0.7040    0.1200 C   0  0  0  0  0  0  0  0  0  0  0  0
   -1.4870    0.7520    0.0650 C   0  0  0  0  0  0  0  0  0  0  0  0
   -0.5700    2.2360   -0.1850 Cl  0  0  0  0  0  0  0  0  0  0  0  0
   -0.8910   -0.5670    0.2360 C   0  0  0  0  0  0  0  0  0  0  0  0
    0.5530   -0.8420    0.2230 C   0  0  0  0  0  0  0  0  0  0  0  0
    1.0150   -2.0940    0.3890 N   0  0  0  0  0  0  0  0  0  0  0  0
    2.3390   -2.3180    0.3730 N   0  0  0  0  0  0  0  0  0  0  0  0
    3.2120   -1.3430    0.1990 N   0  0  0  0  0  0  0  0  0  0  0  0
    2.7890   -0.0890    0.0320 C   0  0  0  0  0  0  0  0  0  0  0  0
    3.7450    1.0530   -0.1690 C   0  0  0  0  0  0  0  0  0  0  0  0
    4.1650    1.7260    1.4360 Cl  0  0  0  0  0  0  0  0  0  0  0  0
    1.4590    0.1330    0.0480 N   0  0  0  0  0  0  0  0  0  0  0  0
   -1.8780   -1.3970    0.3920 C   0  0  0  0  0  0  0  0  0  0  0  0
   -3.1810   -0.7140    0.3400 C   0  0  0  0  0  0  0  0  0  0  0  0
  1  2  1  0
  2  3  2  0
  2 15  1  0
  3  4  1  0
  3  5  1  0
  5  6  1  0
  5 14  2  0
  6  7  2  0
  6 13  1  0
  7  8  1  0
  8  9  2  0
  9 10  1  0
 10 11  1  0
 10 13  2  0
 11 12  1  0
 14 15  1  0
M  END
