
     RDKit          3D

 27 29  0  0  0  0  0  0  0  0999 V2000
    6.5780    1.3640    2.7710 O   0  0  0  0  0  0  0  0  0  0  0  0
    5.7390    0.9810    1.8700 C   0  0  0  0  0  0  0  0  0  0  0  0
    4.4350    1.0290    2.1870 O   0  0  0  0  0  0  0  0  0  0  0  0
    6.3410    0.5410    0.6200 C   0  0  0  0  0  0  0  0  0  0  0  0
    5.5560    0.2430   -0.4360 O   0  0  0  0  0  0  0  0  0  0  0  0
    4.5050   -0.6140   -0.6710 C   0  0  0  0  0  0  0  0  0  0  0  0
    4.7670   -1.9090   -0.9500 C   0  0  0  0  0  0  0  0  0  0  0  0
    6.0750   -2.6350   -1.1160 C   0  0  0  0  0  0  0  0  0  0  0  0
    5.9920   -3.8630   -1.3420 O   0  0  0  0  0  0  0  0  0  0  0  0
    7.2900   -2.0390   -1.0380 O   0  0  0  0  0  0  0  0  0  0  0  0
    3.2230   -2.6410   -1.1710 S   0  0  0  0  0  0  0  0  0  0  0  0
    2.2680   -1.1580   -0.8800 C   0  0  0  0  0  0  0  0  0  0  0  0
    0.7760   -1.1820   -0.9440 C   0  0  0  0  0  0  0  0  0  0  0  0
    0.1340   -2.3600   -1.2910 C   0  0  0  0  0  0  0  0  0  0  0  0
   -1.2190   -2.4570   -1.3590 C   0  0  0  0  0  0  0  0  0  0  0  0
   -2.0140   -1.3860   -1.0840 C   0  0  0  0  0  0  0  0  0  0  0  0
   -1.4010   -0.2080   -0.7380 C   0  0  0  0  0  0  0  0  0  0  0  0
   -2.2170    0.9170   -0.4450 N   0  0  0  0  0  0  0  0  0  0  0  0
   -3.6560    0.8620   -0.4330 C   0  0  1  0  0  0  0  0  0  0  0  0
   -4.2020   -0.0920    0.6090 C   0  0  0  0  0  0  0  0  0  0  0  0
   -4.9060    0.7110    1.7080 C   0  0  0  0  0  0  0  0  0  0  0  0
   -6.1270    1.3970    1.1390 C   0  0  0  0  0  0  0  0  0  0  0  0
   -5.6940    2.2680    0.0010 C   0  0  0  0  0  0  0  0  0  0  0  0
   -4.1940    2.2520   -0.1840 C   0  0  0  0  0  0  0  0  0  0  0  0
   -0.0040   -0.1140   -0.6700 C   0  0  0  0  0  0  0  0  0  0  0  0
    3.1840   -0.2530   -0.6460 C   0  0  0  0  0  0  0  0  0  0  0  0
    2.6780    1.6140   -0.4100 Br  0  0  0  0  0  0  0  0  0  0  0  0
  1  2  2  0
  2  3  1  0
  2  4  1  0
  4  5  1  0
  5  6  1  0
  6  7  2  0
  6 26  1  0
  7  8  1  0
  7 11  1  0
  8  9  2  0
  8 10  1  0
 11 12  1  0
 12 13  1  0
 12 26  2  0
 13 14  2  0
 13 25  1  0
 14 15  1  0
 15 16  2  0
 16 17  1  0
 17 18  1  0
 17 25  2  0
 19 18  1  1
 19 20  1  0
 19 24  1  0
 20 21  1  0
 21 22  1  0
 22 23  1  0
 23 24  1  0
 26 27  1  0
M  END
