
     RDKit          3D

 15 16  0  0  0  0  0  0  0  0999 V2000
   -4.2160   -0.9150    0.0400 C   0  0  0  0  0  0  0  0  0  0  0  0
   -2.9590   -0.0890    0.1070 C   0  0  0  0  0  0  0  0  0  0  0  0
   -1.6910   -0.5320    0.1540 N   0  0  0  0  0  0  0  0  0  0  0  0
   -0.8320    0.5070    0.2070 C   0  0  0  0  0  0  0  0  0  0  0  0
    0.5520    0.6220    0.2670 C   0  0  0  0  0  0  0  0  0  0  0  0
    1.3490   -0.5480    0.2830 N   0  0  0  0  0  0  0  0  0  0  0  0
    2.7850   -0.3930    0.3470 C   0  0  0  0  0  0  0  0  0  0  0  0
    3.4290   -1.7670    0.3530 C   0  0  2  0  0  0  0  0  0  0  0  0
    5.1840   -1.6320    0.4300 Cl  0  0  0  0  0  0  0  0  0  0  0  0
    3.0020   -2.7040   -1.0900 Cl  0  0  0  0  0  0  0  0  0  0  0  0
    1.1170    1.8300    0.3110 N   0  0  0  0  0  0  0  0  0  0  0  0
    0.3280    2.9100    0.2940 C   0  0  0  0  0  0  0  0  0  0  0  0
   -1.0200    2.8290    0.2350 N   0  0  0  0  0  0  0  0  0  0  0  0
   -1.6370    1.6270    0.1900 C   0  0  0  0  0  0  0  0  0  0  0  0
   -2.8830    1.2200    0.1300 O   0  0  0  0  0  0  0  0  0  0  0  0
  1  2  1  0
  2  3  2  0
  2 15  1  0
  3  4  1  0
  4  5  2  0
  4 14  1  0
  5  6  1  0
  5 11  1  0
  6  7  1  0
  7  8  1  0
  8  9  1  6
  8 10  1  0
 11 12  2  0
 12 13  1  0
 13 14  2  0
 14 15  1  0
M  END
