
     RDKit          3D

 19 19  0  0  0  0  0  0  0  0999 V2000
   -2.8720    1.1330    3.5450 C   0  0  0  0  0  0  0  0  0  0  0  0
   -2.2840    1.8970    2.4040 C   0  0  0  0  0  0  0  0  0  0  0  0
   -1.8030    0.9620    1.2860 C   0  0  1  0  0  0  0  0  0  0  0  0
   -0.7650    0.0770    1.9040 C   0  0  0  0  0  0  0  0  0  0  0  0
   -0.2230   -0.8900    0.8930 C   0  0  0  0  0  0  0  0  0  0  0  0
    0.4150   -0.1360   -0.2280 C   0  0  0  0  0  0  0  0  0  0  0  0
    0.9820   -1.0260   -1.2860 C   0  0  0  0  0  0  0  0  0  0  0  0
    2.0370   -1.9210   -0.7060 C   0  0  0  0  0  0  0  0  0  0  0  0
    3.1510   -1.1020   -0.0990 C   0  0  0  0  0  0  0  0  0  0  0  0
    3.8220   -0.2050   -1.1040 C   0  0  0  0  0  0  0  0  0  0  0  0
    4.9190    0.5690   -0.4030 C   0  0  2  0  0  0  0  0  0  0  0  0
    5.6090    1.4720   -1.3760 C   0  0  0  0  0  0  0  0  0  0  0  0
    5.8720   -0.4240    0.2080 C   0  0  0  0  0  0  0  0  0  0  0  0
   -2.8390    0.1690    0.8350 O   0  0  0  0  0  0  0  0  0  0  0  0
   -3.2100    0.3410   -0.4700 C   0  0  2  0  0  0  0  0  0  0  0  0
   -4.6900    0.7510   -0.4310 C   0  0  0  0  0  0  0  0  0  0  0  0
   -5.3670    0.0130   -1.5340 C   0  0  0  0  0  0  0  0  0  0  0  0
   -4.3680   -0.8680   -2.2030 C   0  0  0  0  0  0  0  0  0  0  0  0
   -3.2610   -0.9630   -1.1970 C   0  0  0  0  0  0  0  0  0  0  0  0
  1  2  1  0
  3  2  1  1
  3  4  1  0
  3 14  1  0
  4  5  1  0
  5  6  1  0
  6  7  1  0
  7  8  1  0
  8  9  1  0
  9 10  1  0
 10 11  1  0
 11 12  1  6
 11 13  1  0
 15 14  1  1
 15 16  1  0
 15 19  1  0
 16 17  1  0
 17 18  1  0
 18 19  1  0
M  END
