
     RDKit          3D

 15 16  0  0  0  0  0  0  0  0999 V2000
   -1.1640   -2.4070    1.0480 O   0  0  0  0  0  0  0  0  0  0  0  0
   -0.2630   -1.5940    0.6900 C   0  0  0  0  0  0  0  0  0  0  0  0
    1.0400   -1.8540    0.7910 N   0  0  0  0  0  0  0  0  0  0  0  0
    1.7080   -0.7990    0.3300 C   0  0  0  0  0  0  0  0  0  0  0  0
    3.0180   -0.4900    0.1860 N   0  0  0  0  0  0  0  0  0  0  0  0
    3.4540    0.6740   -0.3190 C   0  0  0  0  0  0  0  0  0  0  0  0
    2.5300    1.6300   -0.7240 C   0  0  0  0  0  0  0  0  0  0  0  0
    1.2380    1.3290   -0.5830 N   0  0  0  0  0  0  0  0  0  0  0  0
    0.7900    0.1580   -0.0740 C   0  0  0  0  0  0  0  0  0  0  0  0
   -0.4330   -0.3410    0.1510 N   0  0  0  0  0  0  0  0  0  0  0  0
   -1.7020    0.2250   -0.0820 C   0  0  0  0  0  0  0  0  0  0  0  0
   -1.9950    1.3740   -0.5750 C   0  0  0  0  0  0  0  0  0  0  0  0
   -0.9660    2.6500   -1.1340 Cl  0  0  0  0  0  0  0  0  0  0  0  0
   -2.9060   -0.6370    0.2990 C   0  0  0  0  0  0  0  0  0  0  0  0
   -4.4200    0.1760   -0.0380 Cl  0  0  0  0  0  0  0  0  0  0  0  0
  1  2  2  0
  2  3  1  0
  2 10  1  0
  3  4  1  0
  4  5  2  0
  4  9  1  0
  5  6  1  0
  6  7  2  0
  7  8  1  0
  8  9  2  0
  9 10  1  0
 10 11  1  0
 11 12  2  3
 11 14  1  0
 12 13  1  0
 14 15  1  0
M  END
