
     RDKit          3D

 26 28  0  0  0  0  0  0  0  0999 V2000
    0.3610    0.4640   -1.6600 C   0  0  0  0  0  0  0  0  0  0  0  0
   -0.0090   -0.2860   -0.3890 C   0  0  2  0  0  0  0  0  0  0  0  0
   -1.4040   -0.7530   -0.3640 C   0  0  0  0  0  0  0  0  0  0  0  0
   -2.5550    0.1630   -0.5050 C   0  0  1  0  0  0  0  0  0  0  0  0
   -3.7940   -0.7470   -0.4270 C   0  0  0  0  0  0  0  0  0  0  0  0
   -3.6620   -1.7040   -1.4900 O   0  0  0  0  0  0  0  0  0  0  0  0
   -2.6840    1.2710    0.4670 C   0  0  0  0  0  0  0  0  0  0  0  0
   -3.7880    2.1250    0.3590 O   0  0  0  0  0  0  0  0  0  0  0  0
   -5.1000    1.7540    0.5330 C   0  0  0  0  0  0  0  0  0  0  0  0
   -5.4030    1.0470    1.5900 N   0  0  0  0  0  0  0  0  0  0  0  0
   -6.1690    2.0750   -0.3420 N   0  0  0  0  0  0  0  0  0  0  0  0
    0.3780    0.4320    0.7490 N   0  0  0  0  0  0  0  0  0  0  0  0
    1.6450    0.1810    1.2950 N   0  0  0  0  0  0  0  0  0  0  0  0
    2.7220   -0.3930    0.5040 C   0  0  0  0  0  0  0  0  0  0  0  0
    2.2100   -1.2950   -0.4170 C   0  0  0  0  0  0  0  0  0  0  0  0
    3.5960   -1.8530   -1.2520 S   0  0  0  0  0  0  0  0  0  0  0  0
    4.8370   -0.8770   -0.3600 C   0  0  0  0  0  0  0  0  0  0  0  0
    6.2190   -0.7700   -0.4530 C   0  0  0  0  0  0  0  0  0  0  0  0
    6.8180   -1.4620   -1.3140 O   0  0  0  0  0  0  0  0  0  0  0  0
    6.8580    0.0820    0.3970 N   0  0  0  0  0  0  0  0  0  0  0  0
    6.0790    0.7480    1.2580 C   0  0  0  0  0  0  0  0  0  0  0  0
    6.7230    1.5370    2.0360 O   0  0  0  0  0  0  0  0  0  0  0  0
    4.7670    0.6750    1.3770 N   0  0  0  0  0  0  0  0  0  0  0  0
    4.0410   -0.1820    0.5350 C   0  0  0  0  0  0  0  0  0  0  0  0
    0.8120   -1.6080   -0.5450 C   0  0  1  0  0  0  0  0  0  0  0  0
    0.2840   -2.4710    0.4070 O   0  0  0  0  0  0  0  0  0  0  0  0
  2  1  1  6
  2  3  1  0
  2 12  1  0
  2 25  1  0
  4  3  1  1
  4  5  1  0
  4  7  1  0
  5  6  1  0
  7  8  1  0
  8  9  1  0
  9 10  2  0
  9 11  1  0
 12 13  1  0
 13 14  1  0
 14 15  2  0
 14 24  1  0
 15 16  1  0
 15 25  1  0
 16 17  1  0
 17 18  1  0
 17 24  2  0
 18 19  2  0
 18 20  1  0
 20 21  1  0
 21 22  2  0
 21 23  1  0
 23 24  1  0
 25 26  1  1
M  CHG  1  12   1
M  END
