
     RDKit          3D

 26 28  0  0  0  0  0  0  0  0999 V2000
   -6.1520    3.6280   -0.0140 N   0  0  0  0  0  0  0  0  0  0  0  0
   -5.6650    2.3980    0.4850 C   0  0  0  0  0  0  0  0  0  0  0  0
   -6.3110    1.6760    1.4110 N   0  0  0  0  0  0  0  0  0  0  0  0
   -5.8530    0.5070    1.8880 C   0  0  0  0  0  0  0  0  0  0  0  0
   -4.6850    0.0390    1.4080 N   0  0  0  0  0  0  0  0  0  0  0  0
   -3.9930    0.7270    0.4730 C   0  0  0  0  0  0  0  0  0  0  0  0
   -4.4600    1.9250   -0.0180 C   0  0  0  0  0  0  0  0  0  0  0  0
   -3.5680    2.3630   -0.9200 N   0  0  0  0  0  0  0  0  0  0  0  0
   -2.5550    1.4680   -1.0070 C   0  0  0  0  0  0  0  0  0  0  0  0
   -2.8110    0.4730   -0.1610 N   0  0  0  0  0  0  0  0  0  0  0  0
   -2.0360   -0.7010    0.1020 C   0  0  2  0  0  0  0  0  0  0  0  0
   -0.6750   -0.5370   -0.1910 O   0  0  0  0  0  0  0  0  0  0  0  0
   -0.1850   -1.8020    0.0490 C   0  0  2  0  0  0  0  0  0  0  0  0
    1.2400   -1.9900   -0.3880 C   0  0  0  0  0  0  0  0  0  0  0  0
    2.3860   -0.8710    0.4350 S   0  0  0  0  0  0  0  0  0  0  0  0
    4.0370   -1.2220   -0.1960 C   0  0  0  0  0  0  0  0  0  0  0  0
    5.0950   -0.3450    0.4200 C   0  0  0  0  0  0  0  0  0  0  0  0
    4.8720    1.1150    0.1760 C   0  0  2  0  0  0  0  0  0  0  0  0
    4.8560    1.4530   -1.2330 N   0  0  0  0  0  0  0  0  0  0  0  0
    5.9800    1.8600    0.8230 C   0  0  0  0  0  0  0  0  0  0  0  0
    6.7490    2.6420    0.2130 O   0  0  0  0  0  0  0  0  0  0  0  0
    6.1820    1.6860    2.1820 O   0  0  0  0  0  0  0  0  0  0  0  0
   -1.1090   -2.6650   -0.7840 C   0  0  1  0  0  0  0  0  0  0  0  0
   -1.3610   -3.8910   -0.1610 O   0  0  0  0  0  0  0  0  0  0  0  0
   -2.3920   -1.8490   -0.8300 C   0  0  1  0  0  0  0  0  0  0  0  0
   -3.4830   -2.5650   -0.3700 O   0  0  0  0  0  0  0  0  0  0  0  0
  1  2  1  0
  2  3  2  0
  2  7  1  0
  3  4  1  0
  4  5  2  0
  5  6  1  0
  6  7  2  0
  6 10  1  0
  7  8  1  0
  8  9  2  0
  9 10  1  0
 11 10  1  6
 11 12  1  0
 11 25  1  0
 12 13  1  0
 13 14  1  6
 13 23  1  0
 14 15  1  0
 15 16  1  0
 16 17  1  0
 17 18  1  0
 18 19  1  6
 18 20  1  0
 20 21  2  0
 20 22  1  0
 23 24  1  1
 23 25  1  0
 25 26  1  1
M  CHG  1  19   1
M  END
