
     RDKit          3D

 26 27  0  0  0  0  0  0  0  0999 V2000
   -3.2510    0.0160    1.1800 C   0  0  0  0  0  0  0  0  0  0  0  0
   -3.4660   -0.9180    0.0230 C   0  0  1  0  0  0  0  0  0  0  0  0
   -3.9770   -2.2320    0.5510 C   0  0  0  0  0  0  0  0  0  0  0  0
   -4.5700   -0.3720   -0.7000 O   0  0  0  0  0  0  0  0  0  0  0  0
   -3.9880    0.5240   -1.6020 C   0  0  0  0  0  0  0  0  0  0  0  0
   -2.9200   -0.2310   -2.0800 O   0  0  0  0  0  0  0  0  0  0  0  0
   -2.3920   -0.9460   -0.9700 C   0  0  2  0  0  0  0  0  0  0  0  0
   -1.9720   -2.2670   -1.5200 C   0  0  0  0  0  0  0  0  0  0  0  0
   -1.4120   -3.1530   -0.5530 N   0  0  0  0  0  0  0  0  0  0  0  0
   -1.1240   -0.2170   -0.5940 C   0  0  0  0  0  0  0  0  0  0  0  0
   -0.1010   -0.6620    0.1440 N   0  0  0  0  0  0  0  0  0  0  0  0
    0.8440    0.3300    0.2470 C   0  0  0  0  0  0  0  0  0  0  0  0
    2.0950    0.1870    1.0290 C   0  0  2  0  0  0  0  0  0  0  0  0
    1.8180   -0.0570    2.4000 O   0  0  0  0  0  0  0  0  0  0  0  0
    3.1550    1.1870    0.7910 C   0  0  0  0  0  0  0  0  0  0  0  0
    3.9040    1.2820   -0.8090 S   0  0  0  0  0  0  0  0  0  0  0  0
    5.5330    0.5310   -0.8540 C   0  0  0  0  0  0  0  0  0  0  0  0
    5.5830   -0.9110   -0.5490 C   0  0  0  0  0  0  0  0  0  0  0  0
    5.5960   -1.3030    0.8350 N   0  0  0  0  0  0  0  0  0  0  0  0
    5.6090   -1.8300   -1.4170 O   0  0  0  0  0  0  0  0  0  0  0  0
    0.3540    1.3530   -0.4380 N   0  0  0  0  0  0  0  0  0  0  0  0
    0.7970    2.7070   -0.6120 C   0  0  0  0  0  0  0  0  0  0  0  0
    0.0170    3.6300    0.3140 C   0  0  0  0  0  0  0  0  0  0  0  0
   -1.1220    3.2200    1.0190 N   0  0  0  0  0  0  0  0  0  0  0  0
    0.4540    4.7950    0.4080 O   0  0  0  0  0  0  0  0  0  0  0  0
   -0.8530    1.0230   -0.9580 N   0  0  0  0  0  0  0  0  0  0  0  0
  2  1  1  1
  2  3  1  0
  2  4  1  0
  2  7  1  0
  4  5  1  0
  5  6  1  0
  6  7  1  0
  7  8  1  6
  7 10  1  0
  8  9  1  0
 10 11  1  0
 10 26  2  0
 11 12  2  0
 12 13  1  0
 12 21  1  0
 13 14  1  1
 13 15  1  0
 15 16  1  0
 16 17  1  0
 17 18  1  0
 18 19  1  0
 18 20  2  0
 21 22  1  0
 21 26  1  0
 22 23  1  0
 23 24  1  0
 23 25  2  0
M  CHG  1   9   1
M  END
