
     RDKit          3D

 26 27  0  0  0  0  0  0  0  0999 V2000
    4.4060    1.9510    1.1510 C   0  0  0  0  0  0  0  0  0  0  0  0
    3.7320    0.5960    1.1410 C   0  0  1  0  0  0  0  0  0  0  0  0
    4.7480   -0.3920    1.5880 C   0  0  0  0  0  0  0  0  0  0  0  0
    5.1030   -1.4890    0.7670 N   0  0  0  0  0  0  0  0  0  0  0  0
    5.3150   -0.2690    2.7190 O   0  0  0  0  0  0  0  0  0  0  0  0
    2.6020    0.5840    2.1630 C   0  0  0  0  0  0  0  0  0  0  0  0
    1.3850    1.3130    1.6530 C   0  0  0  0  0  0  0  0  0  0  0  0
    0.9860    0.6370    0.3420 C   0  0  1  0  0  0  0  0  0  0  0  0
   -0.2980    1.0740   -0.1290 N   0  0  0  0  0  0  0  0  0  0  0  0
   -1.3630    0.1540   -0.2660 C   0  0  0  0  0  0  0  0  0  0  0  0
   -1.1640   -1.0520    0.0320 O   0  0  0  0  0  0  0  0  0  0  0  0
   -2.6530    0.5260   -0.7260 N   0  0  0  0  0  0  0  0  0  0  0  0
   -3.7420   -0.3720   -0.8830 C   0  0  0  0  0  0  0  0  0  0  0  0
   -4.7900   -0.1660   -0.1370 C   0  0  0  0  0  0  0  0  0  0  0  0
   -4.8910    0.9170    0.8270 C   0  0  0  0  0  0  0  0  0  0  0  0
   -3.8860    1.8770    1.0850 N   0  0  0  0  0  0  0  0  0  0  0  0
   -5.9540    1.0610    1.5270 O   0  0  0  0  0  0  0  0  0  0  0  0
   -3.6650   -1.4880   -1.8640 C   0  0  0  0  0  0  0  0  0  0  0  0
   -2.6030   -1.6660   -2.6040 C   0  0  0  0  0  0  0  0  0  0  0  0
   -2.8860   -3.0760   -3.6310 S   0  0  0  0  0  0  0  0  0  0  0  0
   -1.9300   -4.1670   -3.1730 O   0  0  0  0  0  0  0  0  0  0  0  0
   -4.5160   -3.4020   -3.0010 C   0  0  0  0  0  0  0  0  0  0  0  0
   -5.2950   -4.3320   -3.3520 O   0  0  0  0  0  0  0  0  0  0  0  0
   -4.7150   -2.3870   -2.0360 N   0  0  0  0  0  0  0  0  0  0  0  0
    2.1140    0.9160   -0.6260 C   0  0  0  0  0  0  0  0  0  0  0  0
    3.2710    0.2150   -0.1600 N   0  0  0  0  0  0  0  0  0  0  0  0
  2  1  1  6
  2  3  1  0
  2  6  1  0
  2 26  1  0
  3  4  1  0
  3  5  2  0
  6  7  1  0
  7  8  1  0
  8  9  1  6
  8 25  1  0
  9 10  1  0
 10 11  2  0
 10 12  1  0
 12 13  1  0
 13 14  2  3
 13 18  1  0
 14 15  1  0
 15 16  1  0
 15 17  2  0
 18 19  2  0
 18 24  1  0
 20 19  1  1
 20 21  2  0
 20 22  1  0
 22 23  2  0
 22 24  1  0
 25 26  1  0
M  CHG  1  26   1
M  END
