
     RDKit          3D

 26 27  0  0  0  0  0  0  0  0999 V2000
   -3.5190   -2.8980   -0.4440 N   0  0  0  0  0  0  0  0  0  0  0  0
   -3.4540   -1.6380   -1.0380 C   0  0  0  0  0  0  0  0  0  0  0  0
   -3.4200   -1.5030   -2.2790 O   0  0  0  0  0  0  0  0  0  0  0  0
   -3.4090   -0.4540   -0.0940 C   0  0  2  0  0  0  0  0  0  0  0  0
   -2.1570   -0.4270    0.4500 N   0  0  0  0  0  0  0  0  0  0  0  0
   -0.9700    0.1040   -0.2920 C   0  0  0  0  0  0  0  0  0  0  0  0
   -1.1080    0.4810   -1.4070 O   0  0  0  0  0  0  0  0  0  0  0  0
    0.1800    0.0690    0.6100 N   0  0  0  0  0  0  0  0  0  0  0  0
    1.2940   -0.3980   -0.6460 C   0  0  0  0  0  0  0  0  0  0  0  0
    0.8420   -0.4330   -1.7100 O   0  0  0  0  0  0  0  0  0  0  0  0
    2.5510   -0.7130   -0.2270 N   0  0  0  0  0  0  0  0  0  0  0  0
    3.2770   -1.5000   -1.2460 C   0  0  0  0  0  0  0  0  0  0  0  0
    4.7360   -1.3090   -1.2640 C   0  0  0  0  0  0  0  0  0  0  0  0
    5.2780   -0.7790   -0.0960 O   0  0  0  0  0  0  0  0  0  0  0  0
    5.0470    0.6320   -0.0730 C   0  0  2  0  0  0  0  0  0  0  0  0
    6.3410    1.2340    0.3650 C   0  0  0  0  0  0  0  0  0  0  0  0
    6.3670    2.6690    0.4100 N   0  0  0  0  0  0  0  0  0  0  0  0
    3.9070    0.9740    0.8720 C   0  0  0  0  0  0  0  0  0  0  0  0
    3.1250   -0.3630    1.0250 C   0  0  0  0  0  0  0  0  0  0  0  0
   -4.5910   -0.2550    0.7470 C   0  0  2  0  0  0  0  0  0  0  0  0
   -5.0140   -1.4220    1.5030 N   0  0  0  0  0  0  0  0  0  0  0  0
   -5.7050    0.4710    0.1070 C   0  0  0  0  0  0  0  0  0  0  0  0
   -6.8880    0.1550   -0.2790 C   0  0  0  0  0  0  0  0  0  0  0  0
   -7.6680    1.0950   -0.8400 O   0  0  0  0  0  0  0  0  0  0  0  0
   -7.4240    2.4230   -0.3860 C   0  0  0  0  0  0  0  0  0  0  0  0
   -5.5860    2.2680   -0.2170 S   0  0  0  0  0  0  0  0  0  0  0  0
  1  2  1  0
  2  3  2  0
  2  4  1  0
  4  5  1  1
  4 20  1  0
  5  6  1  0
  6  7  2  0
  6  8  1  0
  8  9  1  0
  9 10  2  0
  9 11  1  0
 11 12  1  0
 11 19  1  0
 12 13  1  0
 13 14  1  0
 14 15  1  0
 15 16  1  1
 15 18  1  0
 16 17  1  0
 18 19  1  0
 20 21  1  6
 20 22  1  0
 22 23  2  0
 22 26  1  0
 23 24  1  0
 24 25  1  0
 25 26  1  0
M  CHG  1  17   1
M  END
