
     RDKit          3D

 26 27  0  0  0  0  0  0  0  0999 V2000
    8.9720    0.5470   -0.5390 C   0  0  0  0  0  0  0  0  0  0  0  0
    7.7050    0.5720   -1.3860 C   0  0  1  0  0  0  0  0  0  0  0  0
    7.8570   -0.2430   -2.5150 O   0  0  0  0  0  0  0  0  0  0  0  0
    6.5990    0.1520   -0.5170 C   0  0  0  0  0  0  0  0  0  0  0  0
    5.7240    1.0820   -0.0120 C   0  0  0  0  0  0  0  0  0  0  0  0
    4.6660    0.6910    0.8150 C   0  0  0  0  0  0  0  0  0  0  0  0
    4.5830   -0.6570    1.0660 C   0  0  0  0  0  0  0  0  0  0  0  0
    3.5020   -1.0660    1.9060 N   0  0  0  0  0  0  0  0  0  0  0  0
    2.2630   -1.3660    1.3370 N   0  0  0  0  0  0  0  0  0  0  0  0
    1.0420   -0.7300    1.6740 C   0  0  0  0  0  0  0  0  0  0  0  0
    1.0480    0.1650    2.5420 O   0  0  0  0  0  0  0  0  0  0  0  0
   -0.2030   -1.0960    1.0360 C   0  0  0  0  0  0  0  0  0  0  0  0
   -0.1850   -1.9930    0.1470 O   0  0  0  0  0  0  0  0  0  0  0  0
   -1.4540   -0.4930    1.3620 N   0  0  0  0  0  0  0  0  0  0  0  0
   -2.6310   -0.9470    0.6520 C   0  0  1  0  0  0  0  0  0  0  0  0
   -3.7150   -1.4140    1.6500 C   0  0  0  0  0  0  0  0  0  0  0  0
   -3.9330   -0.2690    0.7060 C   0  0  2  0  0  0  0  0  0  0  0  0
   -5.0550   -0.6510   -0.6620 S   0  0  0  0  0  0  0  0  0  0  0  0
   -4.4580   -0.1120   -1.9790 O   0  0  0  0  0  0  0  0  0  0  0  0
   -6.5730    0.2580   -0.3890 C   0  0  2  0  0  0  0  0  0  0  0  0
   -7.5670   -0.0140   -1.4960 C   0  0  0  0  0  0  0  0  0  0  0  0
   -8.8040    0.6900   -1.3090 N   0  0  0  0  0  0  0  0  0  0  0  0
   -6.3170    1.7100   -0.1830 C   0  0  0  0  0  0  0  0  0  0  0  0
   -5.6810    2.2770   -1.3010 O   0  0  0  0  0  0  0  0  0  0  0  0
    5.4520   -1.5720    0.5640 N   0  0  0  0  0  0  0  0  0  0  0  0
    6.4230   -1.1360   -0.2050 N   0  0  0  0  0  0  0  0  0  0  0  0
  2  1  1  1
  2  3  1  0
  2  4  1  0
  4  5  2  0
  4 26  1  0
  5  6  1  0
  6  7  2  0
  7  8  1  0
  7 25  1  0
  8  9  1  0
  9 10  1  0
 10 11  2  0
 10 12  1  0
 12 13  2  0
 12 14  1  0
 15 14  1  1
 15 16  1  0
 15 17  1  0
 17 16  1  1
 17 18  1  0
 18 19  2  0
 18 20  1  1
 20 21  1  6
 20 23  1  0
 21 22  1  0
 23 24  1  0
 25 26  2  0
M  CHG  1  25   1
M  END
