
     RDKit          3D

 26 27  0  0  0  0  0  0  0  0999 V2000
    4.2480    1.5930   -0.8950 C   0  0  0  0  0  0  0  0  0  0  0  0
    3.8930    0.8530    0.3780 C   0  0  1  0  0  0  0  0  0  0  0  0
    3.5070   -0.8840    0.0330 S   0  0  0  0  0  0  0  0  0  0  0  0
    1.9460   -0.9650   -0.9780 C   0  0  0  0  0  0  0  0  0  0  0  0
    0.8890   -0.4880   -0.1090 C   0  0  0  0  0  0  0  0  0  0  0  0
   -0.4820   -0.3390   -0.3840 N   0  0  0  0  0  0  0  0  0  0  0  0
   -1.0260    0.7090   -1.2330 C   0  0  0  0  0  0  0  0  0  0  0  0
   -0.1860    1.3380   -1.9380 O   0  0  0  0  0  0  0  0  0  0  0  0
   -2.4600    1.0600   -1.3080 C   0  0  2  0  0  0  0  0  0  0  0  0
   -2.5770    2.3670   -0.6540 N   0  0  0  0  0  0  0  0  0  0  0  0
   -3.0460    3.5300   -1.3250 C   0  0  0  0  0  0  0  0  0  0  0  0
   -3.1360    4.7840   -0.6220 N   0  0  0  0  0  0  0  0  0  0  0  0
   -3.3690    3.4170   -2.5290 O   0  0  0  0  0  0  0  0  0  0  0  0
   -3.3040    0.0100   -0.6830 C   0  0  0  0  0  0  0  0  0  0  0  0
   -2.7630   -0.3430    0.7040 C   0  0  1  0  0  0  0  0  0  0  0  0
   -3.6140   -1.0800    1.4780 O   0  0  0  0  0  0  0  0  0  0  0  0
   -3.4050   -2.3620    1.8990 C   0  0  0  0  0  0  0  0  0  0  0  0
   -4.2310   -2.9880    2.5760 O   0  0  0  0  0  0  0  0  0  0  0  0
   -2.1860   -2.9870    1.5380 N   0  0  0  0  0  0  0  0  0  0  0  0
   -1.2110   -2.2740    0.7510 C   0  0  0  0  0  0  0  0  0  0  0  0
   -0.0250   -2.9230    0.1780 C   0  0  0  0  0  0  0  0  0  0  0  0
   -0.6140   -4.2350   -0.2900 N   0  0  0  0  0  0  0  0  0  0  0  0
   -1.4520   -1.0500    0.3740 C   0  0  0  0  0  0  0  0  0  0  0  0
    4.9820    0.9090    1.3670 C   0  0  0  0  0  0  0  0  0  0  0  0
    5.4000    2.1790    1.8370 N   0  0  0  0  0  0  0  0  0  0  0  0
    5.5530   -0.1240    1.8110 O   0  0  0  0  0  0  0  0  0  0  0  0
  2  1  1  6
  2  3  1  0
  2 24  1  0
  3  4  1  0
  4  5  1  0
  5  6  1  0
  6  7  1  0
  6 23  1  0
  7  8  2  0
  7  9  1  0
  9 10  1  1
  9 14  1  0
 10 11  1  0
 11 12  1  0
 11 13  2  0
 15 14  1  6
 15 16  1  0
 15 23  1  0
 16 17  1  0
 17 18  2  0
 17 19  1  0
 19 20  1  0
 20 21  1  0
 20 23  2  0
 21 22  1  0
 24 25  1  0
 24 26  2  0
M  CHG  1  22   1
M  END
