
     RDKit          3D

 26 28  0  0  0  0  0  0  0  0999 V2000
   -4.5090   -0.4900   -1.1590 C   0  0  0  0  0  0  0  0  0  0  0  0
   -4.1060   -0.0790    0.3160 C   0  0  1  0  0  0  0  0  0  0  0  0
   -3.6630    1.3010    0.2920 C   0  0  0  0  0  0  0  0  0  0  0  0
   -3.1940    2.0450    1.3760 N   0  0  0  0  0  0  0  0  0  0  0  0
   -3.7230    1.9160   -0.8710 O   0  0  0  0  0  0  0  0  0  0  0  0
   -5.3790   -0.2180    1.0160 N   0  0  0  0  0  0  0  0  0  0  0  0
   -5.6130   -1.5140    1.5790 C   0  0  0  0  0  0  0  0  0  0  0  0
   -6.2790   -1.6690    2.6230 O   0  0  0  0  0  0  0  0  0  0  0  0
   -4.9980   -2.6370    0.8090 C   0  0  0  0  0  0  0  0  0  0  0  0
   -3.7560   -2.3690    0.3000 O   0  0  0  0  0  0  0  0  0  0  0  0
   -3.1880   -1.1800    0.7180 C   0  0  1  0  0  0  0  0  0  0  0  0
   -1.8740   -1.0720    0.0270 C   0  0  0  0  0  0  0  0  0  0  0  0
   -0.9650   -1.8970   -0.5100 C   0  0  0  0  0  0  0  0  0  0  0  0
    0.2200   -1.3810   -0.9400 C   0  0  0  0  0  0  0  0  0  0  0  0
    0.4890   -0.1010   -0.8430 C   0  0  0  0  0  0  0  0  0  0  0  0
    1.5360    0.8390   -0.8820 N   0  0  0  0  0  0  0  0  0  0  0  0
    2.9120    0.6220   -0.6730 C   0  0  0  0  0  0  0  0  0  0  0  0
    3.3310   -0.5320   -0.4640 O   0  0  0  0  0  0  0  0  0  0  0  0
    3.8360    1.7100   -0.6740 N   0  0  0  0  0  0  0  0  0  0  0  0
    5.2010    1.5800   -0.3950 C   0  0  1  0  0  0  0  0  0  0  0  0
    5.4870    1.0210    0.9920 C   0  0  0  0  0  0  0  0  0  0  0  0
    6.9380    0.8290    0.9000 N   0  0  0  0  0  0  0  0  0  0  0  0
    7.1570    0.4280   -0.4620 C   0  0  0  0  0  0  0  0  0  0  0  0
    8.2300   -0.0220   -0.9180 O   0  0  0  0  0  0  0  0  0  0  0  0
    5.9360    0.6240   -1.2200 N   0  0  0  0  0  0  0  0  0  0  0  0
   -1.1030    0.5000   -0.0690 S   0  0  0  0  0  0  0  0  0  0  0  0
  2  1  1  6
  2  3  1  0
  2  6  1  0
  2 11  1  0
  3  4  1  0
  3  5  2  0
  6  7  1  0
  7  8  2  0
  7  9  1  0
  9 10  1  0
 10 11  1  0
 11 12  1  6
 12 13  2  0
 12 26  1  0
 13 14  1  0
 14 15  2  0
 15 16  1  0
 15 26  1  0
 16 17  1  0
 17 18  2  0
 17 19  1  0
 20 19  1  6
 20 21  1  0
 20 25  1  0
 21 22  1  0
 22 23  1  0
 23 24  2  0
 23 25  1  0
M  CHG  1  22   1
M  END
