
     RDKit          3D

 26 27  0  0  0  0  0  0  0  0999 V2000
    3.5800   -0.9230    3.4510 N   0  0  0  0  0  0  0  0  0  0  0  0
    4.8620   -0.9240    2.8460 C   0  0  0  0  0  0  0  0  0  0  0  0
    5.8670   -0.9660    3.5990 O   0  0  0  0  0  0  0  0  0  0  0  0
    5.0070   -0.8780    1.3710 C   0  0  0  0  0  0  0  0  0  0  0  0
    3.7040   -0.8270    0.7680 N   0  0  0  0  0  0  0  0  0  0  0  0
    2.8980    0.2150    1.0320 C   0  0  0  0  0  0  0  0  0  0  0  0
    3.3100    1.1560    1.8260 O   0  0  0  0  0  0  0  0  0  0  0  0
    1.6560    0.5220    0.6210 N   0  0  0  0  0  0  0  0  0  0  0  0
    0.4310    0.7300    0.1550 C   0  0  0  0  0  0  0  0  0  0  0  0
   -0.0200    1.8440    0.6240 O   0  0  0  0  0  0  0  0  0  0  0  0
   -0.4110    0.0330   -0.6780 N   0  0  0  0  0  0  0  0  0  0  0  0
   -1.7030    0.5200   -0.9890 C   0  0  0  0  0  0  0  0  0  0  0  0
   -2.7150   -0.1800   -0.5500 C   0  0  0  0  0  0  0  0  0  0  0  0
   -2.6370   -1.3970    0.2190 C   0  0  0  0  0  0  0  0  0  0  0  0
   -3.7460   -2.0180    0.6030 C   0  0  0  0  0  0  0  0  0  0  0  0
   -3.5290   -3.2780    1.4010 C   0  0  0  0  0  0  0  0  0  0  0  0
   -2.7610   -2.9620    2.6600 C   0  0  0  0  0  0  0  0  0  0  0  0
   -1.3600   -2.6820    2.3990 N   0  0  0  0  0  0  0  0  0  0  0  0
   -1.1280   -2.1560    0.7250 S   0  0  0  0  0  0  0  0  0  0  0  0
   -0.7530   -3.3360   -0.1510 O   0  0  0  0  0  0  0  0  0  0  0  0
   -1.9380    1.7230   -1.7600 C   0  0  0  0  0  0  0  0  0  0  0  0
   -3.1150    2.1040   -2.0000 O   0  0  0  0  0  0  0  0  0  0  0  0
   -0.8360    2.4710   -2.2440 N   0  0  0  0  0  0  0  0  0  0  0  0
   -1.1110    3.6680   -3.0090 C   0  0  1  0  0  0  0  0  0  0  0  0
   -0.0880    4.7380   -3.1210 C   0  0  0  0  0  0  0  0  0  0  0  0
   -0.2150    3.7760   -4.2480 C   0  0  0  0  0  0  0  0  0  0  0  0
  1  2  1  0
  2  3  2  0
  2  4  1  0
  4  5  1  0
  5  6  1  0
  6  7  2  0
  6  8  1  0
  8  9  1  0
  9 10  2  0
  9 11  1  0
 11 12  1  0
 12 13  2  3
 12 21  1  0
 13 14  1  0
 14 15  2  0
 14 19  1  0
 15 16  1  0
 16 17  1  0
 17 18  1  0
 19 18  1  1
 19 20  2  0
 21 22  2  0
 21 23  1  0
 24 23  1  1
 24 25  1  0
 24 26  1  0
 25 26  1  0
M  CHG  1  18   1
M  END
