
     RDKit          3D

 40 43  0  0  0  0  0  0  0  0999 V2000
   -0.0010   -1.4760    3.5880 C   0  0  0  0  0  0  0  0  0  0  0  0
    0.0110   -0.4420    2.4850 C   0  0  0  0  0  0  0  0  0  0  0  0
    1.0950    0.0150    1.9080 N   0  0  0  0  0  0  0  0  0  0  0  0
    1.1960    0.8140    1.0510 C   0  0  0  0  0  0  0  0  0  0  0  0
    2.2380    1.5200    0.2000 C   0  0  2  0  0  0  0  0  0  0  0  0
    3.5890    1.1420    0.7170 C   0  0  0  0  0  0  0  0  0  0  0  0
    4.6460    2.0110    0.2490 N   0  0  0  0  0  0  0  0  0  0  0  0
    5.9810    1.6020    0.0210 C   0  0  0  0  0  0  0  0  0  0  0  0
    6.8110    2.4520   -0.3830 O   0  0  0  0  0  0  0  0  0  0  0  0
    6.4720    0.2840    0.2140 N   0  0  0  0  0  0  0  0  0  0  0  0
    7.8240   -0.0680   -0.0300 C   0  0  0  0  0  0  0  0  0  0  0  0
    8.8250    0.7130   -0.4530 N   0  0  0  0  0  0  0  0  0  0  0  0
    9.9630   -0.0230   -0.5610 C   0  0  0  0  0  0  0  0  0  0  0  0
   11.1070    0.3120   -0.9160 O   0  0  0  0  0  0  0  0  0  0  0  0
    9.6390   -1.2770   -0.1960 N   0  0  0  0  0  0  0  0  0  0  0  0
    8.3540   -1.2880    0.1210 N   0  0  0  0  0  0  0  0  0  0  0  0
    4.2860    3.3920   -0.0040 C   0  0  0  0  0  0  0  0  0  0  0  0
    2.9890    3.6340    0.7380 C   0  0  0  0  0  0  0  0  0  0  0  0
    2.0150    2.8690    0.1090 O   0  0  0  0  0  0  0  0  0  0  0  0
   -0.5540    1.2730    0.7180 S   0  0  0  0  0  0  0  0  0  0  0  0
   -1.1680    0.0790    2.0350 C   0  0  0  0  0  0  0  0  0  0  0  0
   -2.5610   -0.1220    2.3400 C   0  0  0  0  0  0  0  0  0  0  0  0
   -3.1510   -1.3850    1.7380 C   0  0  0  0  0  0  0  0  0  0  0  0
   -3.0410   -1.3510    0.2240 C   0  0  2  0  0  0  0  0  0  0  0  0
   -3.7740   -0.1930   -0.3400 C   0  0  0  0  0  0  0  0  0  0  0  0
   -3.3140    0.6600   -1.1280 O   0  0  0  0  0  0  0  0  0  0  0  0
   -5.0880    0.0850   -0.0460 N   0  0  0  0  0  0  0  0  0  0  0  0
   -5.9280    1.1630   -0.5350 C   0  0  0  0  0  0  0  0  0  0  0  0
   -7.0210    1.1000    0.1590 N   0  0  0  0  0  0  0  0  0  0  0  0
   -8.0620    2.3500   -0.3330 S   0  0  0  0  0  0  0  0  0  0  0  0
   -7.8840    3.4810    0.7390 O   0  0  0  0  0  0  0  0  0  0  0  0
   -7.1970    2.8720   -1.7220 N   0  0  0  0  0  0  0  0  0  0  0  0
   -5.9580    2.1720   -1.5480 C   0  0  2  0  0  0  0  0  0  0  0  0
   -5.5700    1.5500   -3.2260 Cl  0  0  0  0  0  0  0  0  0  0  0  0
   -3.3580   -2.6290   -0.4560 C   0  0  1  0  0  0  0  0  0  0  0  0
   -4.7510   -3.1310   -0.2090 C   0  0  0  0  0  0  0  0  0  0  0  0
   -3.1500   -2.4740   -1.8820 N   0  0  0  0  0  0  0  0  0  0  0  0
   -2.2430   -3.3070   -2.6270 C   0  0  0  0  0  0  0  0  0  0  0  0
   -2.0240   -3.1760   -4.0100 N   0  0  0  0  0  0  0  0  0  0  0  0
   -1.6110   -4.2020   -2.0060 O   0  0  0  0  0  0  0  0  0  0  0  0
  1  2  1  0
  2  3  1  0
  2 21  2  0
  3  4  2  0
  5  4  1  1
  4 20  1  0
  5  6  1  0
  5 19  1  0
  6  7  1  0
  7  8  1  0
  7 17  1  0
  8  9  2  0
  8 10  1  0
 10 11  1  0
 11 12  2  0
 11 16  1  0
 12 13  1  0
 13 14  2  0
 13 15  1  0
 15 16  1  0
 17 18  1  0
 18 19  1  0
 20 21  1  0
 21 22  1  0
 22 23  1  0
 24 23  1  1
 24 25  1  0
 24 35  1  0
 25 26  2  0
 25 27  1  0
 27 28  1  0
 28 29  2  0
 28 33  1  0
 29 30  1  0
 30 31  2  0
 30 32  1  6
 32 33  1  0
 33 34  1  6
 35 36  1  6
 35 37  1  0
 37 38  1  0
 38 39  1  0
 38 40  2  0
M  END
