
     RDKit          3D

 40 42  0  0  0  0  0  0  0  0999 V2000
    5.3920   -2.6770   -0.4100 C   0  0  0  0  0  0  0  0  0  0  0  0
    4.1890   -1.9690    0.2290 C   0  0  0  0  0  0  0  0  0  0  0  0
    3.1930   -1.6770   -0.8610 C   0  0  0  0  0  0  0  0  0  0  0  0
    1.9640   -0.9880   -0.4140 C   0  0  1  0  0  0  0  0  0  0  0  0
    1.1690   -1.6070    0.5280 O   0  0  0  0  0  0  0  0  0  0  0  0
    1.2170   -2.7700    1.2280 C   0  0  0  0  0  0  0  0  0  0  0  0
    1.4250   -2.7840    2.6050 C   0  0  0  0  0  0  0  0  0  0  0  0
    1.4860   -3.9270    3.3740 C   0  0  0  0  0  0  0  0  0  0  0  0
    1.3330   -5.1420    2.7630 C   0  0  0  0  0  0  0  0  0  0  0  0
    1.1240   -5.1490    1.3930 C   0  0  0  0  0  0  0  0  0  0  0  0
    1.0610   -4.0170    0.6180 C   0  0  0  0  0  0  0  0  0  0  0  0
    0.8190   -4.1700   -0.7740 N   0  0  0  0  0  0  0  0  0  0  0  0
    0.0990   -3.3150   -1.6190 C   0  0  0  0  0  0  0  0  0  0  0  0
    0.4780   -3.2750   -2.8500 O   0  0  0  0  0  0  0  0  0  0  0  0
   -0.9920   -2.4930   -1.2810 N   0  0  0  0  0  0  0  0  0  0  0  0
   -2.1890   -2.9020   -0.5680 C   0  0  1  0  0  0  0  0  0  0  0  0
   -2.0660   -4.2510    0.0530 C   0  0  0  0  0  0  0  0  0  0  0  0
   -2.5560   -1.8640    0.4310 C   0  0  0  0  0  0  0  0  0  0  0  0
   -1.8770   -1.8450    1.5150 O   0  0  0  0  0  0  0  0  0  0  0  0
   -3.5950   -0.9150    0.2500 N   0  0  0  0  0  0  0  0  0  0  0  0
   -4.0510   -0.4980   -1.0260 C   0  0  0  0  0  0  0  0  0  0  0  0
   -4.4000    0.9320   -1.2160 C   0  0  1  0  0  0  0  0  0  0  0  0
   -5.6730    1.2530   -0.8110 O   0  0  0  0  0  0  0  0  0  0  0  0
   -5.8550    1.5690    0.5000 C   0  0  0  0  0  0  0  0  0  0  0  0
   -4.8340    2.4300    1.1420 C   0  0  0  0  0  0  0  0  0  0  0  0
   -3.4140    2.2150    0.7110 C   0  0  0  0  0  0  0  0  0  0  0  0
   -3.3750    1.9430   -0.7690 C   0  0  1  0  0  0  0  0  0  0  0  0
   -2.0420    1.6680   -1.3460 C   0  0  0  0  0  0  0  0  0  0  0  0
   -0.8680    1.8140   -0.4000 C   0  0  0  0  0  0  0  0  0  0  0  0
    0.2470    2.4470   -1.1350 C   0  0  0  0  0  0  0  0  0  0  0  0
    1.4810    2.6540   -0.4750 N   0  0  1  0  0  0  0  0  0  0  0  0
    1.4210    3.1110    0.8800 C   0  0  0  0  0  0  0  0  0  0  0  0
    1.3990    4.6430    0.9790 C   0  0  1  0  0  0  0  0  0  0  0  0
    0.2370    5.2610    0.2830 C   0  0  0  0  0  0  0  0  0  0  0  0
    1.3420    4.9620    2.3310 O   0  0  0  0  0  0  0  0  0  0  0  0
    2.4620    1.5880   -0.6890 C   0  0  2  0  0  0  0  0  0  0  0  0
    3.7990    2.1950   -0.2210 C   0  0  0  0  0  0  0  0  0  0  0  0
    2.5920    1.3990   -2.1590 C   0  0  0  0  0  0  0  0  0  0  0  0
    2.2590    0.3990    0.1180 C   0  0  0  0  0  0  0  0  0  0  0  0
    2.3300    0.5120    1.3340 O   0  0  0  0  0  0  0  0  0  0  0  0
  1  2  1  0
  2  3  1  0
  4  3  1  1
  4  5  1  0
  4 39  1  0
  5  6  1  0
  6  7  2  0
  6 11  1  0
  7  8  1  0
  8  9  2  0
  9 10  1  0
 10 11  2  0
 11 12  1  0
 12 13  1  0
 13 14  2  0
 13 15  1  0
 15 16  1  0
 16 17  1  1
 16 18  1  0
 18 19  2  0
 18 20  1  0
 20 21  1  0
 22 21  1  1
 22 23  1  0
 22 27  1  0
 23 24  1  0
 24 25  1  0
 25 26  1  0
 27 26  1  1
 27 28  1  0
 28 29  1  0
 29 30  1  0
 30 31  1  0
 31 32  1  1
 31 36  1  0
 32 33  1  0
 33 34  1  6
 33 35  1  0
 36 37  1  1
 36 38  1  0
 36 39  1  0
 39 40  2  0
M  CHG  1  31   1
M  END
