
     RDKit          3D

 40 42  0  0  0  0  0  0  0  0999 V2000
   -1.6980   -4.4830   -1.9430 C   0  0  0  0  0  0  0  0  0  0  0  0
   -2.8810   -3.6310   -1.7880 C   0  0  0  0  0  0  0  0  0  0  0  0
   -2.8970   -2.5630   -0.9650 C   0  0  0  0  0  0  0  0  0  0  0  0
   -1.6440   -2.3010   -0.2250 C   0  0  0  0  0  0  0  0  0  0  0  0
   -1.2660   -3.3560    0.6930 N   0  0  0  0  0  0  0  0  0  0  0  0
   -0.2800   -3.0360    1.6680 C   0  0  0  0  0  0  0  0  0  0  0  0
    0.4530   -3.8930    2.1920 O   0  0  0  0  0  0  0  0  0  0  0  0
   -0.1500   -1.5970    2.0530 C   0  0  0  0  0  0  0  0  0  0  0  0
    0.8250   -1.3630    3.1470 C   0  0  0  0  0  0  0  0  0  0  0  0
    2.1650   -1.1390    2.5620 C   0  0  0  0  0  0  0  0  0  0  0  0
    3.0120   -2.0840    2.8540 O   0  0  0  0  0  0  0  0  0  0  0  0
    2.6080   -0.0760    1.7640 N   0  0  0  0  0  0  0  0  0  0  0  0
    3.6510   -0.4510    0.7730 C   0  0  0  0  0  0  0  0  0  0  0  0
    3.2250    0.0010   -0.5960 C   0  0  2  0  0  0  0  0  0  0  0  0
    4.4830   -0.0230   -1.4150 C   0  0  0  0  0  0  0  0  0  0  0  0
    4.8550    1.0370   -1.9580 O   0  0  0  0  0  0  0  0  0  0  0  0
    5.2580   -1.1890   -1.5900 N   0  0  0  0  0  0  0  0  0  0  0  0
    6.4820   -1.2000   -2.3760 C   0  0  0  0  0  0  0  0  0  0  0  0
    7.0550   -2.5980   -2.3520 C   0  0  0  0  0  0  0  0  0  0  0  0
    8.2320   -2.6620   -3.0950 O   0  0  0  0  0  0  0  0  0  0  0  0
    2.7510    1.2770   -0.5990 O   0  0  0  0  0  0  0  0  0  0  0  0
    1.7320    1.5610    0.3010 C   0  0  0  0  0  0  0  0  0  0  0  0
    2.2980    1.2880    1.6790 C   0  0  1  0  0  0  0  0  0  0  0  0
    1.6020    1.9600    2.7590 C   0  0  0  0  0  0  0  0  0  0  0  0
    1.9210    1.6720    3.9340 O   0  0  0  0  0  0  0  0  0  0  0  0
    0.5610    2.9480    2.6070 N   0  0  0  0  0  0  0  0  0  0  0  0
   -0.5260    3.0650    1.6980 C   0  0  0  0  0  0  0  0  0  0  0  0
   -1.4580    2.1490    1.2320 C   0  0  0  0  0  0  0  0  0  0  0  0
   -2.4320    2.5540    0.3420 C   0  0  0  0  0  0  0  0  0  0  0  0
   -2.4470    3.9080   -0.0730 C   0  0  0  0  0  0  0  0  0  0  0  0
   -1.5520    4.8490    0.3560 C   0  0  0  0  0  0  0  0  0  0  0  0
   -0.6090    4.4070    1.2350 C   0  0  0  0  0  0  0  0  0  0  0  0
    0.3570    5.4730    1.7270 C   0  0  0  0  0  0  0  0  0  0  0  0
   -3.5510    1.7870   -0.2680 C   0  0  1  0  0  0  0  0  0  0  0  0
   -4.6300    1.4590    0.7860 C   0  0  0  0  0  0  0  0  0  0  0  0
   -4.3720    2.6350   -1.2650 C   0  0  0  0  0  0  0  0  0  0  0  0
   -3.1930    0.5830   -1.1130 C   0  0  0  0  0  0  0  0  0  0  0  0
   -4.2010   -0.4520   -0.9240 C   0  0  0  0  0  0  0  0  0  0  0  0
   -4.1160   -1.7500   -0.8590 C   0  0  0  0  0  0  0  0  0  0  0  0
   -5.3840   -2.5690   -0.6590 C   0  0  0  0  0  0  0  0  0  0  0  0
  1  2  1  0
  2  3  2  3
  3  4  1  0
  3 39  1  0
  4  5  1  0
  5  6  1  0
  6  7  2  0
  6  8  1  0
  8  9  1  0
  9 10  1  0
 10 11  2  0
 10 12  1  0
 12 13  1  0
 12 23  1  0
 13 14  1  0
 14 15  1  6
 14 21  1  0
 15 16  2  0
 15 17  1  0
 17 18  1  0
 18 19  1  0
 19 20  1  0
 21 22  1  0
 23 22  1  6
 23 24  1  0
 24 25  2  0
 24 26  1  0
 26 27  1  0
 27 28  1  0
 27 32  2  0
 28 29  2  0
 29 30  1  0
 29 34  1  0
 30 31  2  0
 31 32  1  0
 32 33  1  0
 34 35  1  1
 34 36  1  0
 34 37  1  0
 37 38  1  0
 38 39  2  0
 39 40  1  0
M  END
