
     RDKit          3D

 40 43  0  0  0  0  0  0  0  0999 V2000
   -6.3550    4.0340   -0.2560 C   0  0  0  0  0  0  0  0  0  0  0  0
   -6.2220    2.7620   -0.9010 O   0  0  0  0  0  0  0  0  0  0  0  0
   -5.5850    1.7820   -0.0360 C   0  0  0  0  0  0  0  0  0  0  0  0
   -6.4740    0.9980    0.5340 C   0  0  0  0  0  0  0  0  0  0  0  0
   -6.3090   -0.1140    1.4610 C   0  0  0  0  0  0  0  0  0  0  0  0
   -5.8870   -1.3580    1.1920 C   0  0  0  0  0  0  0  0  0  0  0  0
   -5.4660   -2.0520    0.0150 C   0  0  0  0  0  0  0  0  0  0  0  0
   -4.3310   -2.2770   -0.6120 C   0  0  0  0  0  0  0  0  0  0  0  0
   -2.9000   -1.9030   -0.3760 C   0  0  0  0  0  0  0  0  0  0  0  0
   -2.1450   -1.1460   -1.2020 C   0  0  0  0  0  0  0  0  0  0  0  0
   -2.2450   -1.3430   -2.6930 C   0  0  0  0  0  0  0  0  0  0  0  0
   -1.6120   -0.5390   -3.4340 O   0  0  0  0  0  0  0  0  0  0  0  0
   -2.9400   -2.2960   -3.5050 N   0  0  0  0  0  0  0  0  0  0  0  0
   -3.9860   -3.1120   -3.1160 N   0  0  0  0  0  0  0  0  0  0  0  0
   -4.6720   -3.0590   -1.8560 C   0  0  0  0  0  0  0  0  0  0  0  0
   -5.6930   -3.7830   -1.8370 O   0  0  0  0  0  0  0  0  0  0  0  0
   -1.1640   -0.1020   -1.0250 C   0  0  0  0  0  0  0  0  0  0  0  0
   -0.2800   -0.0260   -2.0170 O   0  0  0  0  0  0  0  0  0  0  0  0
   -0.8340    0.9030   -0.0910 N   0  0  0  0  0  0  0  0  0  0  0  0
    0.4550    0.7660    0.6000 C   0  0  1  0  0  0  0  0  0  0  0  0
    0.6450   -0.4170    1.4590 C   0  0  0  0  0  0  0  0  0  0  0  0
    1.8680   -0.0910    2.3360 C   0  0  0  0  0  0  0  0  0  0  0  0
    3.0770   -0.2160    1.3500 C   0  0  2  0  0  0  0  0  0  0  0  0
    4.3280   -0.1860    2.0850 C   0  0  0  0  0  0  0  0  0  0  0  0
    4.1710    0.1460    3.3450 O   0  0  0  0  0  0  0  0  0  0  0  0
    5.6710   -0.4430    1.6850 C   0  0  0  0  0  0  0  0  0  0  0  0
    6.2380   -0.8100    0.5890 C   0  0  0  0  0  0  0  0  0  0  0  0
    5.5960   -1.0970   -0.6850 C   0  0  0  0  0  0  0  0  0  0  0  0
    6.1330   -0.1000   -1.7190 C   0  0  0  0  0  0  0  0  0  0  0  0
    7.6430   -0.2370   -1.8280 C   0  0  0  0  0  0  0  0  0  0  0  0
    8.1910   -1.2240   -0.8520 C   0  0  0  0  0  0  0  0  0  0  0  0
    7.7660   -0.9830    0.5520 C   0  0  0  0  0  0  0  0  0  0  0  0
    2.9250    0.9040    0.3370 C   0  0  0  0  0  0  0  0  0  0  0  0
    1.6020    0.7720   -0.4040 C   0  0  0  0  0  0  0  0  0  0  0  0
   -1.5980    2.0910    0.2600 C   0  0  0  0  0  0  0  0  0  0  0  0
   -3.0370    1.8670    0.6560 C   0  0  0  0  0  0  0  0  0  0  0  0
   -2.9580    1.5310    2.0660 C   0  0  0  0  0  0  0  0  0  0  0  0
   -3.8700    1.2000    3.0680 N   0  0  0  0  0  0  0  0  0  0  0  0
   -1.7610    1.5260    2.5580 O   0  0  0  0  0  0  0  0  0  0  0  0
   -4.1460    1.9040   -0.0070 C   0  0  0  0  0  0  0  0  0  0  0  0
  1  2  1  0
  2  3  1  0
  3  4  2  0
  3 40  1  0
  4  5  1  0
  5  6  2  0
  6  7  1  0
  7  8  2  0
  8  9  1  0
  8 15  1  0
  9 10  2  0
 10 11  1  0
 10 17  1  0
 11 12  2  0
 11 13  1  0
 13 14  1  0
 14 15  1  0
 15 16  2  0
 17 18  2  0
 17 19  1  0
 20 19  1  6
 19 35  1  0
 20 21  1  0
 20 34  1  0
 21 22  1  0
 22 23  1  0
 23 24  1  1
 23 33  1  0
 24 25  2  0
 24 26  1  0
 26 27  2  3
 27 28  1  0
 27 32  1  0
 28 29  1  0
 29 30  1  0
 30 31  1  0
 31 32  1  0
 33 34  1  0
 35 36  1  0
 36 37  1  0
 36 40  2  0
 37 38  1  0
 37 39  2  0
M  END
