
     RDKit          3D

 40 43  0  0  0  0  0  0  0  0999 V2000
    4.5750    2.3470    3.3850 C   0  0  0  0  0  0  0  0  0  0  0  0
    3.1320    2.3370    3.0670 C   0  0  0  0  0  0  0  0  0  0  0  0
    2.5690    1.3930    2.1000 C   0  0  0  0  0  0  0  0  0  0  0  0
    2.9840    1.4250    0.6650 C   0  0  1  0  0  0  0  0  0  0  0  0
    4.4640    1.1250    0.6180 C   0  0  0  0  0  0  0  0  0  0  0  0
    2.2400    0.4810    0.0200 O   0  0  0  0  0  0  0  0  0  0  0  0
    2.7980   -0.6340   -0.4820 C   0  0  2  0  0  0  0  0  0  0  0  0
    2.1920   -0.9620   -1.8640 C   0  0  0  0  0  0  0  0  0  0  0  0
    2.4950   -1.8610    0.3780 C   0  0  1  0  0  0  0  0  0  0  0  0
    3.4590   -2.0830    1.3380 O   0  0  0  0  0  0  0  0  0  0  0  0
    4.1540   -3.2610    1.2080 C   0  0  0  0  0  0  0  0  0  0  0  0
    1.0800   -1.9220    0.8660 C   0  0  0  0  0  0  0  0  0  0  0  0
    0.6110   -3.2010    0.6400 O   0  0  0  0  0  0  0  0  0  0  0  0
   -0.7330   -3.3980    0.7400 C   0  0  0  0  0  0  0  0  0  0  0  0
   -1.2640   -4.1760   -0.4130 C   0  0  0  0  0  0  0  0  0  0  0  0
   -1.2670   -5.5620   -0.5780 C   0  0  0  0  0  0  0  0  0  0  0  0
   -1.8650   -5.8540   -1.7900 C   0  0  0  0  0  0  0  0  0  0  0  0
   -2.2170   -4.6870   -2.3450 N   0  0  0  0  0  0  0  0  0  0  0  0
   -1.8590   -3.6560   -1.5220 C   0  0  0  0  0  0  0  0  0  0  0  0
   -2.0650   -2.1850   -1.7640 C   0  0  0  0  0  0  0  0  0  0  0  0
   -3.4880   -1.7880   -1.5910 C   0  0  2  0  0  0  0  0  0  0  0  0
   -3.9690   -0.8140   -2.6480 C   0  0  0  0  0  0  0  0  0  0  0  0
   -4.9100   -0.0010   -2.0440 O   0  0  0  0  0  0  0  0  0  0  0  0
   -4.4650    1.1560   -1.4950 C   0  0  0  0  0  0  0  0  0  0  0  0
   -3.2670    1.0850   -0.6410 C   0  0  2  0  0  0  0  0  0  0  0  0
   -2.0500    1.3230   -1.5080 C   0  0  0  0  0  0  0  0  0  0  0  0
   -1.1340    1.4840   -2.1680 N   0  0  0  0  0  0  0  0  0  0  0  0
   -3.0630   -0.1620    0.1450 C   0  0  0  0  0  0  0  0  0  0  0  0
   -3.8030   -1.2960   -0.2760 N   0  0  0  0  0  0  0  0  0  0  0  0
   -3.1620    2.2540    0.3580 C   0  0  2  0  0  0  0  0  0  0  0  0
   -4.3030    3.0190    0.0200 O   0  0  0  0  0  0  0  0  0  0  0  0
   -1.9590    3.0830    0.2300 C   0  0  0  0  0  0  0  0  0  0  0  0
   -2.3020    4.3910   -0.1770 C   0  0  0  0  0  0  0  0  0  0  0  0
   -1.3960    5.3930   -0.3940 C   0  0  0  0  0  0  0  0  0  0  0  0
   -0.0940    5.0580   -0.1940 C   0  0  0  0  0  0  0  0  0  0  0  0
    0.3450    3.7580    0.2180 C   0  0  0  0  0  0  0  0  0  0  0  0
   -0.5990    2.8020    0.4230 C   0  0  0  0  0  0  0  0  0  0  0  0
    1.7900    3.7310    0.3100 N   0  0  0  0  0  0  0  0  0  0  0  0
    2.8000    2.8040    0.0540 C   0  0  0  0  0  0  0  0  0  0  0  0
    3.7480    3.0570   -0.7970 O   0  0  0  0  0  0  0  0  0  0  0  0
  1  2  1  0
  2  3  1  0
  3  4  1  0
  4  5  1  1
  4  6  1  0
  4 39  1  0
  6  7  1  0
  7  8  1  6
  7  9  1  0
  9 10  1  1
  9 12  1  0
 10 11  1  0
 12 13  1  0
 13 14  1  0
 14 15  1  0
 15 16  1  0
 15 19  2  0
 16 17  2  0
 17 18  1  0
 18 19  1  0
 19 20  1  0
 21 20  1  1
 21 22  1  0
 21 29  1  0
 22 23  1  0
 23 24  1  0
 24 25  1  0
 25 26  1  6
 25 28  1  0
 25 30  1  0
 26 27  3  0
 28 29  1  0
 30 31  1  6
 30 32  1  0
 32 33  1  0
 32 37  2  0
 33 34  2  0
 34 35  1  0
 35 36  2  0
 36 37  1  0
 36 38  1  0
 38 39  1  0
 39 40  2  0
M  CHG  1  29   1
M  END
