
     RDKit          3D

 39 43  0  0  0  0  0  0  0  0999 V2000
  -10.8490    2.5490   -1.8470 N   0  0  0  0  0  0  0  0  0  0  0  0
   -9.4870    1.6860   -2.5660 S   0  0  0  0  0  0  0  0  0  0  0  0
   -8.2730    1.2590   -1.3260 C   0  0  0  0  0  0  0  0  0  0  0  0
   -8.1740    0.1650   -0.5640 N   0  0  0  0  0  0  0  0  0  0  0  0
   -7.1010    0.2720    0.2310 C   0  0  0  0  0  0  0  0  0  0  0  0
   -6.5900   -0.7040    1.2500 C   0  0  2  0  0  0  0  0  0  0  0  0
   -5.2030   -0.8970    1.1620 N   0  0  0  0  0  0  0  0  0  0  0  0
   -4.7320   -1.8780    0.5180 C   0  0  0  0  0  0  0  0  0  0  0  0
   -3.3530   -2.1830    0.3530 N   0  0  0  0  0  0  0  0  0  0  0  0
   -2.3360   -1.1990    0.4530 C   0  0  0  0  0  0  0  0  0  0  0  0
   -1.0140   -1.5370    0.2900 C   0  0  0  0  0  0  0  0  0  0  0  0
    0.0260   -0.6130    0.3770 C   0  0  0  0  0  0  0  0  0  0  0  0
    1.4080   -1.0180    0.1990 C   0  0  0  0  0  0  0  0  0  0  0  0
    1.6560   -2.2280   -0.0300 O   0  0  0  0  0  0  0  0  0  0  0  0
    2.4900   -0.1140    0.2700 N   0  0  0  0  0  0  0  0  0  0  0  0
    3.8260   -0.5980    0.0820 C   0  0  0  0  0  0  0  0  0  0  0  0
    4.8310    0.4990    0.1920 C   0  0  0  0  0  0  0  0  0  0  0  0
    4.4370    1.6730    0.4240 O   0  0  0  0  0  0  0  0  0  0  0  0
    6.2120    0.2970    0.0510 N   0  0  0  0  0  0  0  0  0  0  0  0
    7.2040    1.3510    0.1540 C   0  0  1  0  0  0  0  0  0  0  0  0
    8.1590    1.1560    1.2750 C   0  0  0  0  0  0  0  0  0  0  0  0
    9.5460    0.9950    0.9290 N   0  0  0  0  0  0  0  0  0  0  0  0
    9.9850    0.5060   -0.3350 C   0  0  0  0  0  0  0  0  0  0  0  0
   11.1180    0.0730   -0.6010 O   0  0  0  0  0  0  0  0  0  0  0  0
    8.9570    0.5430   -1.3810 C   0  0  0  0  0  0  0  0  0  0  0  0
    8.7240   -0.0760   -2.5090 C   0  0  0  0  0  0  0  0  0  0  0  0
    7.5100    0.4320   -3.0760 N   0  0  0  0  0  0  0  0  0  0  0  0
    7.0250    1.3270   -2.3230 N   0  0  0  0  0  0  0  0  0  0  0  0
    7.8520    1.5200   -1.1830 C   0  0  1  0  0  0  0  0  0  0  0  0
   -0.3060    0.6870    0.6370 C   0  0  0  0  0  0  0  0  0  0  0  0
   -1.6520    1.0020    0.7970 C   0  0  0  0  0  0  0  0  0  0  0  0
   -2.6370    0.0830    0.7070 N   0  0  0  0  0  0  0  0  0  0  0  0
   -6.1680   -2.7770   -0.1050 S   0  0  0  0  0  0  0  0  0  0  0  0
   -7.3340   -2.0160    1.1130 C   0  0  2  0  0  0  0  0  0  0  0  0
   -8.6690   -1.9090    0.5420 C   0  0  0  0  0  0  0  0  0  0  0  0
   -8.9450   -2.4750   -0.5430 O   0  0  0  0  0  0  0  0  0  0  0  0
   -9.6350   -1.1750    1.2060 O   0  0  0  0  0  0  0  0  0  0  0  0
   -6.5400    1.4570   -0.0600 N   0  0  0  0  0  0  0  0  0  0  0  0
   -7.2570    2.0360   -0.9970 O   0  0  0  0  0  0  0  0  0  0  0  0
  1  2  1  0
  2  3  1  0
  3  4  2  0
  3 39  1  0
  4  5  1  0
  6  5  1  6
  5 38  2  0
  6  7  1  0
  6 34  1  0
  7  8  2  0
  8  9  1  0
  8 33  1  0
  9 10  1  0
 10 11  2  0
 10 32  1  0
 11 12  1  0
 12 13  1  0
 12 30  2  0
 13 14  2  0
 13 15  1  0
 15 16  1  0
 16 17  1  0
 17 18  2  0
 17 19  1  0
 20 19  1  6
 20 21  1  0
 20 29  1  0
 21 22  1  0
 22 23  1  0
 23 24  2  0
 23 25  1  0
 25 26  2  0
 25 29  1  0
 26 27  1  0
 27 28  2  0
 29 28  1  6
 30 31  1  0
 31 32  2  0
 33 34  1  0
 34 35  1  6
 35 36  2  0
 35 37  1  0
 38 39  1  0
M  END
