
     RDKit          3D

 40 43  0  0  0  0  0  0  0  0999 V2000
   -4.7090    4.5500    2.1900 C   0  0  0  0  0  0  0  0  0  0  0  0
   -5.7540    3.7870    1.6300 O   0  0  0  0  0  0  0  0  0  0  0  0
   -5.4020    2.7310    0.7890 C   0  0  0  0  0  0  0  0  0  0  0  0
   -6.4370    1.9870    0.2430 C   0  0  0  0  0  0  0  0  0  0  0  0
   -6.1090    0.9590   -0.5740 C   0  0  0  0  0  0  0  0  0  0  0  0
   -4.7670    0.6740   -0.8460 C   0  0  0  0  0  0  0  0  0  0  0  0
   -3.7270    1.3790   -0.3300 C   0  0  0  0  0  0  0  0  0  0  0  0
   -2.3150    1.1700   -0.5080 C   0  0  0  0  0  0  0  0  0  0  0  0
   -1.5230    2.1180   -0.0350 O   0  0  0  0  0  0  0  0  0  0  0  0
   -1.5780    0.1380   -1.1010 N   0  0  0  0  0  0  0  0  0  0  0  0
   -2.1860   -1.0460   -1.6500 C   0  0  0  0  0  0  0  0  0  0  0  0
   -2.6800   -2.0750   -0.7000 C   0  0  2  0  0  0  0  0  0  0  0  0
   -1.7710   -2.2470    0.3300 O   0  0  0  0  0  0  0  0  0  0  0  0
   -2.9180   -3.4120   -1.4130 C   0  0  0  0  0  0  0  0  0  0  0  0
   -2.5230   -4.5050   -0.5470 N   0  0  0  0  0  0  0  0  0  0  0  0
   -1.3050   -5.1450   -1.0250 C   0  0  0  0  0  0  0  0  0  0  0  0
   -0.1900   -4.3080   -1.1200 C   0  0  0  0  0  0  0  0  0  0  0  0
    0.7100   -3.6220   -1.1790 C   0  0  0  0  0  0  0  0  0  0  0  0
    1.8310   -2.7500   -1.2500 C   0  0  0  0  0  0  0  0  0  0  0  0
    2.0310   -2.0900   -0.0400 O   0  0  0  0  0  0  0  0  0  0  0  0
    1.3800   -1.6860    1.0490 C   0  0  0  0  0  0  0  0  0  0  0  0
    1.3240   -2.4240    2.2310 C   0  0  0  0  0  0  0  0  0  0  0  0
    0.6510   -2.0130    3.3540 C   0  0  0  0  0  0  0  0  0  0  0  0
   -0.0040   -0.8130    3.3190 C   0  0  0  0  0  0  0  0  0  0  0  0
    0.0350   -0.0660    2.1740 C   0  0  0  0  0  0  0  0  0  0  0  0
    0.7130   -0.4620    1.0230 C   0  0  0  0  0  0  0  0  0  0  0  0
    0.7320    0.4870   -0.1120 C   0  0  1  0  0  0  0  0  0  0  0  0
    2.1260    0.6690   -0.5930 N   0  0  0  0  0  0  0  0  0  0  0  0
    2.9360    1.7500   -0.1780 C   0  0  0  0  0  0  0  0  0  0  0  0
    2.4490    2.5790    0.6330 O   0  0  0  0  0  0  0  0  0  0  0  0
    4.3310    1.9350   -0.6670 C   0  0  2  0  0  0  0  0  0  0  0  0
    5.0580    0.6130   -0.4330 C   0  0  0  0  0  0  0  0  0  0  0  0
    6.3870    0.6900   -0.8260 O   0  0  0  0  0  0  0  0  0  0  0  0
    6.7510    1.9300   -1.3070 C   0  0  0  0  0  0  0  0  0  0  0  0
    6.4600    3.0270   -0.2790 C   0  0  2  0  0  0  0  0  0  0  0  0
    7.4860    2.9730    0.7650 C   0  0  0  0  0  0  0  0  0  0  0  0
    8.3060    2.9180    1.5760 N   0  0  0  0  0  0  0  0  0  0  0  0
    5.0600    2.9410    0.2340 C   0  0  0  0  0  0  0  0  0  0  0  0
   -0.1340    0.3220   -1.2460 C   0  0  0  0  0  0  0  0  0  0  0  0
   -4.0950    2.4420    0.5160 C   0  0  0  0  0  0  0  0  0  0  0  0
  1  2  1  0
  2  3  1  0
  3  4  2  0
  3 40  1  0
  4  5  1  0
  5  6  2  0
  6  7  1  0
  7  8  1  0
  7 40  2  0
  8  9  2  0
  8 10  1  0
 10 11  1  0
 10 39  1  0
 11 12  1  0
 12 13  1  1
 12 14  1  0
 14 15  1  0
 15 16  1  0
 16 17  1  0
 17 18  3  0
 18 19  1  0
 19 20  1  0
 20 21  1  0
 21 22  2  0
 21 26  1  0
 22 23  1  0
 23 24  2  0
 24 25  1  0
 25 26  2  0
 26 27  1  0
 27 28  1  6
 27 39  1  0
 28 29  1  0
 29 30  2  0
 31 29  1  1
 31 32  1  0
 31 38  1  0
 32 33  1  0
 33 34  1  0
 34 35  1  0
 35 36  1  1
 35 38  1  0
 36 37  3  0
M  CHG  1  15   1
M  END
