
     RDKit          3D

 40 44  0  0  0  0  0  0  0  0999 V2000
    4.4200   -2.1290    1.0230 C   0  0  0  0  0  0  0  0  0  0  0  0
    4.6930   -1.2820   -0.2320 C   0  0  1  0  0  0  0  0  0  0  0  0
    5.3340   -2.2220   -1.2310 C   0  0  0  0  0  0  0  0  0  0  0  0
    3.3670   -0.8550   -0.8130 C   0  0  0  0  0  0  0  0  0  0  0  0
    2.5600   -0.0610    0.0830 N   0  0  0  0  0  0  0  0  0  0  0  0
    1.2070   -0.5590   -0.0050 C   0  0  0  0  0  0  0  0  0  0  0  0
    0.4590   -0.4730    1.2880 C   0  0  1  0  0  0  0  0  0  0  0  0
    0.3310    0.8200    1.7900 O   0  0  0  0  0  0  0  0  0  0  0  0
   -0.9210   -1.0600    1.2180 C   0  0  2  0  0  0  0  0  0  0  0  0
   -0.8950   -2.4770    0.6370 C   0  0  0  0  0  0  0  0  0  0  0  0
   -2.3030   -2.9810    0.6050 C   0  0  0  0  0  0  0  0  0  0  0  0
   -3.1210   -2.7830   -0.4940 C   0  0  0  0  0  0  0  0  0  0  0  0
   -4.4220   -3.2340   -0.5550 C   0  0  0  0  0  0  0  0  0  0  0  0
   -4.9590   -3.9200    0.5210 C   0  0  0  0  0  0  0  0  0  0  0  0
   -4.1580   -4.1260    1.6270 C   0  0  0  0  0  0  0  0  0  0  0  0
   -2.8540   -3.6670    1.6720 C   0  0  0  0  0  0  0  0  0  0  0  0
   -1.8010   -0.2990    0.3560 N   0  0  0  0  0  0  0  0  0  0  0  0
   -3.0440    0.2560    0.7580 C   0  0  0  0  0  0  0  0  0  0  0  0
   -3.3880    0.0590    1.9620 O   0  0  0  0  0  0  0  0  0  0  0  0
   -3.8540    0.9830   -0.1190 O   0  0  0  0  0  0  0  0  0  0  0  0
   -5.0560    1.4850    0.3770 C   0  0  1  0  0  0  0  0  0  0  0  0
   -5.2200    2.9650    0.1690 C   0  0  0  0  0  0  0  0  0  0  0  0
   -6.5490    3.2410    0.0140 O   0  0  0  0  0  0  0  0  0  0  0  0
   -7.2520    2.0830   -0.1520 C   0  0  1  0  0  0  0  0  0  0  0  0
   -8.0600    2.0670   -1.2820 O   0  0  0  0  0  0  0  0  0  0  0  0
   -7.2460    1.8390   -2.3720 C   0  0  0  0  0  0  0  0  0  0  0  0
   -6.0630    1.0310   -1.8800 C   0  0  0  0  0  0  0  0  0  0  0  0
   -6.2720    0.9600   -0.3880 C   0  0  1  0  0  0  0  0  0  0  0  0
    2.7450    1.5810   -0.2860 S   0  0  1  0  0  0  0  0  0  0  0  0
    2.3800    1.7790   -1.7400 O   0  0  0  0  0  0  0  0  0  0  0  0
    1.9320    2.4980    0.5780 O   0  0  0  0  0  0  0  0  0  0  0  0
    4.4100    2.0560   -0.0740 C   0  0  0  0  0  0  0  0  0  0  0  0
    4.8230    2.4120    1.1980 C   0  0  0  0  0  0  0  0  0  0  0  0
    6.1140    2.8150    1.4650 C   0  0  0  0  0  0  0  0  0  0  0  0
    6.9810    2.8450    0.3810 C   0  0  0  0  0  0  0  0  0  0  0  0
    6.5940    2.4950   -0.8940 C   0  0  0  0  0  0  0  0  0  0  0  0
    5.3000    2.1020   -1.1070 C   0  0  0  0  0  0  0  0  0  0  0  0
    7.7090    2.6360   -1.7520 O   0  0  0  0  0  0  0  0  0  0  0  0
    8.8340    2.8490   -0.9510 C   0  0  0  0  0  0  0  0  0  0  0  0
    8.3290    3.2040    0.3370 O   0  0  0  0  0  0  0  0  0  0  0  0
  2  1  1  1
  2  3  1  0
  2  4  1  0
  4  5  1  0
  5  6  1  0
 29  5  1  1
  6  7  1  0
  7  8  1  6
  7  9  1  0
  9 10  1  6
  9 17  1  0
 10 11  1  0
 11 12  2  0
 11 16  1  0
 12 13  1  0
 13 14  2  0
 14 15  1  0
 15 16  2  0
 17 18  1  0
 18 19  2  0
 18 20  1  0
 21 20  1  6
 21 22  1  0
 21 28  1  0
 22 23  1  0
 24 23  1  6
 24 25  1  0
 24 28  1  0
 25 26  1  0
 26 27  1  0
 28 27  1  6
 29 30  2  0
 29 31  2  0
 29 32  1  0
 32 33  2  0
 32 37  1  0
 33 34  1  0
 34 35  2  0
 35 36  1  0
 35 40  1  0
 36 37  2  0
 36 38  1  0
 38 39  1  0
 39 40  1  0
M  END
