
     RDKit          3D

 40 43  0  0  0  0  0  0  0  0999 V2000
   -1.5470   -1.6170    2.9770 C   0  0  0  0  0  0  0  0  0  0  0  0
   -0.7800   -1.1890    1.7700 C   0  0  2  0  0  0  0  0  0  0  0  0
    0.0530    0.0540    1.9600 C   0  0  0  0  0  0  0  0  0  0  0  0
    0.8260    0.4390    0.6970 C   0  0  1  0  0  0  0  0  0  0  0  0
    1.6090    1.7180    1.0170 C   0  0  0  0  0  0  0  0  0  0  0  0
    1.7450   -0.5980    0.3250 N   0  0  0  0  0  0  0  0  0  0  0  0
    2.1540   -1.5760    1.1100 N   0  0  0  0  0  0  0  0  0  0  0  0
    2.9730   -2.3480    0.4500 N   0  0  0  0  0  0  0  0  0  0  0  0
    3.1100   -1.8830   -0.7750 N   0  0  0  0  0  0  0  0  0  0  0  0
    2.3280   -0.7650   -0.8590 C   0  0  0  0  0  0  0  0  0  0  0  0
    2.2430    0.0470   -2.0470 N   0  0  0  0  0  0  0  0  0  0  0  0
    3.3350    0.8740   -2.3740 N   0  0  0  0  0  0  0  0  0  0  0  0
    4.6110    0.6140   -1.7620 C   0  0  0  0  0  0  0  0  0  0  0  0
    5.0210    1.3150   -0.7000 N   0  0  0  0  0  0  0  0  0  0  0  0
    6.2130    1.0020   -0.1500 C   0  0  0  0  0  0  0  0  0  0  0  0
    7.0210    0.0160   -0.6130 C   0  0  0  0  0  0  0  0  0  0  0  0
    8.3090   -0.2930    0.0190 C   0  0  0  0  0  0  0  0  0  0  0  0
    8.4450   -1.5140    0.7380 N   0  0  0  0  0  0  0  0  0  0  0  0
    9.2290    0.5460   -0.1080 O   0  0  0  0  0  0  0  0  0  0  0  0
    6.6040   -0.7150   -1.7130 C   0  0  0  0  0  0  0  0  0  0  0  0
    5.3910   -0.4040   -2.2800 C   0  0  0  0  0  0  0  0  0  0  0  0
    4.8570   -1.3220   -3.6690 Cl  0  0  0  0  0  0  0  0  0  0  0  0
   -1.5110   -1.1180    0.5170 C   0  0  0  0  0  0  0  0  0  0  0  0
   -1.0420   -1.8780   -0.4240 O   0  0  0  0  0  0  0  0  0  0  0  0
   -2.6390   -0.3740    0.1300 N   0  0  0  0  0  0  0  0  0  0  0  0
   -3.3480    0.5530    0.9470 C   0  0  0  0  0  0  0  0  0  0  0  0
   -3.1900    0.5270    2.2110 N   0  0  0  0  0  0  0  0  0  0  0  0
   -3.8870    1.4380    2.9960 N   0  0  0  0  0  0  0  0  0  0  0  0
   -3.6390    2.8240    2.8370 C   0  0  0  0  0  0  0  0  0  0  0  0
   -2.8010    3.2250    2.0000 O   0  0  0  0  0  0  0  0  0  0  0  0
   -4.3140    3.7840    3.6020 O   0  0  0  0  0  0  0  0  0  0  0  0
   -4.4430    1.7270    0.1580 S   0  0  0  0  0  0  0  0  0  0  0  0
   -5.0480    0.9440   -1.3300 C   0  0  2  0  0  0  0  0  0  0  0  0
   -6.5480    0.9140   -1.4310 C   0  0  0  0  0  0  0  0  0  0  0  0
   -6.7390   -0.3100   -2.7780 S   0  0  0  0  0  0  0  0  0  0  0  0
   -6.7140    0.4750   -4.0800 O   0  0  0  0  0  0  0  0  0  0  0  0
   -5.0920   -1.0950   -2.6160 C   0  0  0  0  0  0  0  0  0  0  0  0
   -4.6040   -0.5010   -1.3140 C   0  0  1  0  0  0  0  0  0  0  0  0
   -3.1280   -0.6060   -1.2480 C   0  0  2  0  0  0  0  0  0  0  0  0
   -2.7430   -1.8550   -1.7160 O   0  0  0  0  0  0  0  0  0  0  0  0
  2  1  1  1
  2  3  1  0
  2 23  1  0
  3  4  1  0
  4  5  1  1
  4  6  1  0
  6  7  1  0
  6 10  1  0
  7  8  2  0
  8  9  1  0
  9 10  2  0
 10 11  1  0
 11 12  1  0
 12 13  1  0
 13 14  2  0
 13 21  1  0
 14 15  1  0
 15 16  2  0
 16 17  1  0
 16 20  1  0
 17 18  1  0
 17 19  2  0
 20 21  2  0
 21 22  1  0
 23 24  2  0
 23 25  1  0
 25 26  1  0
 25 39  1  0
 26 27  2  3
 26 32  1  0
 27 28  1  0
 28 29  1  0
 29 30  2  0
 29 31  1  0
 32 33  1  0
 33 34  1  1
 33 38  1  0
 35 34  1  1
 35 36  2  0
 35 37  1  0
 38 37  1  6
 38 39  1  0
 39 40  1  1
M  END
