
     RDKit          3D

 40 42  0  0  0  0  0  0  0  0999 V2000
   -5.3230    4.4110   -0.6110 C   0  0  0  0  0  0  0  0  0  0  0  0
   -4.0840    3.7710   -1.0750 C   0  0  0  0  0  0  0  0  0  0  0  0
   -3.9030    2.4620   -1.0160 C   0  0  0  0  0  0  0  0  0  0  0  0
   -2.5520    2.0390   -1.5460 C   0  0  0  0  0  0  0  0  0  0  0  0
   -1.5670    2.7700   -0.8020 N   0  0  0  0  0  0  0  0  0  0  0  0
   -0.3490    3.2400   -1.3390 C   0  0  0  0  0  0  0  0  0  0  0  0
    0.1640    4.2310   -0.7240 O   0  0  0  0  0  0  0  0  0  0  0  0
    0.2470    2.6210   -2.5040 C   0  0  0  0  0  0  0  0  0  0  0  0
    0.6820    1.2100   -2.2400 C   0  0  0  0  0  0  0  0  0  0  0  0
    1.3030    1.1170   -0.9090 C   0  0  0  0  0  0  0  0  0  0  0  0
    0.7340    1.8220    0.0200 O   0  0  0  0  0  0  0  0  0  0  0  0
    2.4270    0.3650   -0.5340 N   0  0  0  0  0  0  0  0  0  0  0  0
    3.5670    1.0970    0.0800 C   0  0  0  0  0  0  0  0  0  0  0  0
    4.0360    0.1980    1.2030 C   0  0  2  0  0  0  0  0  0  0  0  0
    5.3330   -0.4620    0.9240 C   0  0  0  0  0  0  0  0  0  0  0  0
    5.4080   -1.7040    1.1290 O   0  0  0  0  0  0  0  0  0  0  0  0
    6.4440    0.2690    0.4460 N   0  0  0  0  0  0  0  0  0  0  0  0
    7.7040   -0.3690    0.1740 C   0  0  0  0  0  0  0  0  0  0  0  0
    8.7470    0.6000   -0.3230 C   0  0  0  0  0  0  0  0  0  0  0  0
    8.9750    1.5960    0.6330 O   0  0  0  0  0  0  0  0  0  0  0  0
    3.0590   -0.6460    1.6550 O   0  0  0  0  0  0  0  0  0  0  0  0
    2.6470   -1.6080    0.7790 C   0  0  0  0  0  0  0  0  0  0  0  0
    2.6390   -1.0390   -0.6300 C   0  0  1  0  0  0  0  0  0  0  0  0
    1.8350   -1.8200   -1.5570 C   0  0  0  0  0  0  0  0  0  0  0  0
    2.0420   -1.6550   -2.7900 O   0  0  0  0  0  0  0  0  0  0  0  0
    0.8140   -2.7780   -1.2190 N   0  0  0  0  0  0  0  0  0  0  0  0
   -0.2760   -2.7000   -0.2840 C   0  0  0  0  0  0  0  0  0  0  0  0
   -1.1810   -1.6820   -0.0220 C   0  0  0  0  0  0  0  0  0  0  0  0
   -2.1390   -1.8840    0.9390 C   0  0  0  0  0  0  0  0  0  0  0  0
   -2.1770   -3.1300    1.6360 C   0  0  0  0  0  0  0  0  0  0  0  0
   -1.3080   -4.1460    1.4040 C   0  0  0  0  0  0  0  0  0  0  0  0
   -0.3560   -3.9260    0.4380 C   0  0  0  0  0  0  0  0  0  0  0  0
    0.5960   -5.0690    0.1670 C   0  0  0  0  0  0  0  0  0  0  0  0
   -3.2650   -1.0800    1.4860 C   0  0  2  0  0  0  0  0  0  0  0  0
   -3.3390   -1.2580    3.0190 C   0  0  0  0  0  0  0  0  0  0  0  0
   -4.5110   -1.8570    0.9740 C   0  0  0  0  0  0  0  0  0  0  0  0
   -3.5280    0.3200    1.2140 C   0  0  0  0  0  0  0  0  0  0  0  0
   -4.7530    0.6390    0.4450 C   0  0  0  0  0  0  0  0  0  0  0  0
   -4.9080    1.5520   -0.5020 C   0  0  0  0  0  0  0  0  0  0  0  0
   -6.2820    1.6890   -1.1090 C   0  0  0  0  0  0  0  0  0  0  0  0
  1  2  1  0
  2  3  2  3
  3  4  1  0
  3 39  1  0
  4  5  1  0
  5  6  1  0
  6  7  2  0
  6  8  1  0
  8  9  1  0
  9 10  1  0
 10 11  2  0
 10 12  1  0
 12 13  1  0
 12 23  1  0
 13 14  1  0
 14 15  1  6
 14 21  1  0
 15 16  2  0
 15 17  1  0
 17 18  1  0
 18 19  1  0
 19 20  1  0
 21 22  1  0
 23 22  1  1
 23 24  1  0
 24 25  2  0
 24 26  1  0
 26 27  1  0
 27 28  1  0
 27 32  2  0
 28 29  2  0
 29 30  1  0
 29 34  1  0
 30 31  2  0
 31 32  1  0
 32 33  1  0
 34 35  1  1
 34 36  1  0
 34 37  1  0
 37 38  1  0
 38 39  2  0
 39 40  1  0
M  END
