
     RDKit          3D

 39 43  0  0  0  0  0  0  0  0999 V2000
    8.7190    2.4470   -1.7550 N   0  0  0  0  0  0  0  0  0  0  0  0
    8.1580    1.1820   -2.8760 S   0  0  0  0  0  0  0  0  0  0  0  0
    7.4660   -0.1690   -1.9430 C   0  0  0  0  0  0  0  0  0  0  0  0
    6.1710   -0.2980   -1.5610 N   0  0  0  0  0  0  0  0  0  0  0  0
    6.0590   -1.4360   -0.8880 C   0  0  0  0  0  0  0  0  0  0  0  0
    4.7960   -1.9360   -0.2770 C   0  0  2  0  0  0  0  0  0  0  0  0
    4.2590   -0.8570    0.5000 N   0  0  0  0  0  0  0  0  0  0  0  0
    4.6400   -0.7370    1.7010 C   0  0  0  0  0  0  0  0  0  0  0  0
    4.2220    0.2590    2.6020 N   0  0  0  0  0  0  0  0  0  0  0  0
    2.9090    0.7950    2.6420 C   0  0  0  0  0  0  0  0  0  0  0  0
    1.8700    0.4050    1.8310 C   0  0  0  0  0  0  0  0  0  0  0  0
    0.5970    0.9300    1.8650 C   0  0  0  0  0  0  0  0  0  0  0  0
   -0.3920    0.4070    0.9380 C   0  0  0  0  0  0  0  0  0  0  0  0
   -0.0860   -0.5080    0.1100 O   0  0  0  0  0  0  0  0  0  0  0  0
   -1.7350    0.8520    0.8760 N   0  0  0  0  0  0  0  0  0  0  0  0
   -2.7060    0.3310   -0.0420 C   0  0  0  0  0  0  0  0  0  0  0  0
   -3.9940    1.0240    0.1730 C   0  0  0  0  0  0  0  0  0  0  0  0
   -4.0620    1.9070    1.0610 O   0  0  0  0  0  0  0  0  0  0  0  0
   -5.1640    0.7530   -0.5620 N   0  0  0  0  0  0  0  0  0  0  0  0
   -6.4400    1.4240   -0.3640 C   0  0  1  0  0  0  0  0  0  0  0  0
   -6.8070    2.1640   -1.6170 C   0  0  0  0  0  0  0  0  0  0  0  0
   -7.8300    1.5760   -2.4210 N   0  0  0  0  0  0  0  0  0  0  0  0
   -8.1070    0.1590   -2.3260 C   0  0  0  0  0  0  0  0  0  0  0  0
   -8.6970   -0.4980   -3.1980 O   0  0  0  0  0  0  0  0  0  0  0  0
   -7.6450   -0.4950   -1.1140 C   0  0  0  0  0  0  0  0  0  0  0  0
   -7.3360   -1.6860   -0.7090 C   0  0  0  0  0  0  0  0  0  0  0  0
   -6.9290   -1.6540    0.6720 N   0  0  0  0  0  0  0  0  0  0  0  0
   -6.9980   -0.4310    1.0970 N   0  0  0  0  0  0  0  0  0  0  0  0
   -7.4500    0.4230    0.0600 C   0  0  1  0  0  0  0  0  0  0  0  0
    0.3230    1.9120    2.7630 C   0  0  0  0  0  0  0  0  0  0  0  0
    1.3690    2.3220    3.5960 C   0  0  0  0  0  0  0  0  0  0  0  0
    2.5940    1.7840    3.5300 N   0  0  0  0  0  0  0  0  0  0  0  0
    5.7810   -2.1270    1.9960 S   0  0  0  0  0  0  0  0  0  0  0  0
    5.0120   -3.1280    0.6310 C   0  0  2  0  0  0  0  0  0  0  0  0
    5.8210   -4.1980    0.1520 C   0  0  0  0  0  0  0  0  0  0  0  0
    6.1690   -4.3190   -1.0410 O   0  0  0  0  0  0  0  0  0  0  0  0
    6.2560   -5.1750    1.0360 O   0  0  0  0  0  0  0  0  0  0  0  0
    7.2450   -2.0100   -0.8450 N   0  0  0  0  0  0  0  0  0  0  0  0
    8.0830   -1.2260   -1.4900 O   0  0  0  0  0  0  0  0  0  0  0  0
  1  2  1  0
  2  3  1  0
  3  4  2  0
  3 39  1  0
  4  5  1  0
  6  5  1  1
  5 38  2  0
  6  7  1  0
  6 34  1  0
  7  8  2  0
  8  9  1  0
  8 33  1  0
  9 10  1  0
 10 11  2  0
 10 32  1  0
 11 12  1  0
 12 13  1  0
 12 30  2  0
 13 14  2  0
 13 15  1  0
 15 16  1  0
 16 17  1  0
 17 18  2  0
 17 19  1  0
 20 19  1  6
 20 21  1  0
 20 29  1  0
 21 22  1  0
 22 23  1  0
 23 24  2  0
 23 25  1  0
 25 26  2  0
 25 29  1  0
 26 27  1  0
 27 28  2  0
 29 28  1  1
 30 31  1  0
 31 32  2  0
 33 34  1  0
 34 35  1  6
 35 36  2  0
 35 37  1  0
 38 39  1  0
M  END
