
     RDKit          3D

 40 43  0  0  0  0  0  0  0  0999 V2000
   -0.7790    3.2920    1.1370 C   0  0  0  0  0  0  0  0  0  0  0  0
   -0.0910    1.9470    0.9120 C   0  0  0  0  0  0  0  0  0  0  0  0
    1.0840    1.7360    1.4450 N   0  0  0  0  0  0  0  0  0  0  0  0
    1.7470    0.6590    1.2440 C   0  0  0  0  0  0  0  0  0  0  0  0
    3.1140    0.1820    1.6900 C   0  0  2  0  0  0  0  0  0  0  0  0
    4.0350    0.1650    0.5010 C   0  0  0  0  0  0  0  0  0  0  0  0
    5.2270   -0.5790    0.7740 N   0  0  0  0  0  0  0  0  0  0  0  0
    6.4350   -0.1630    0.1550 C   0  0  0  0  0  0  0  0  0  0  0  0
    6.4270    0.8690   -0.5880 O   0  0  0  0  0  0  0  0  0  0  0  0
    7.6670   -0.8510    0.3240 N   0  0  0  0  0  0  0  0  0  0  0  0
    8.8020   -0.3150   -0.3500 C   0  0  0  0  0  0  0  0  0  0  0  0
    8.8790    0.7690   -1.1430 N   0  0  0  0  0  0  0  0  0  0  0  0
   10.1760    0.8880   -1.5650 C   0  0  0  0  0  0  0  0  0  0  0  0
   10.6630    1.7670   -2.3150 O   0  0  0  0  0  0  0  0  0  0  0  0
   10.8570   -0.1220   -1.0260 N   0  0  0  0  0  0  0  0  0  0  0  0
   10.0290   -0.8270   -0.3070 N   0  0  0  0  0  0  0  0  0  0  0  0
    5.1850   -1.7220    1.6540 C   0  0  0  0  0  0  0  0  0  0  0  0
    3.7140   -2.0690    1.8700 C   0  0  0  0  0  0  0  0  0  0  0  0
    3.0080   -1.0090    2.3610 O   0  0  0  0  0  0  0  0  0  0  0  0
    0.6650   -0.2520    0.1740 S   0  0  0  0  0  0  0  0  0  0  0  0
   -0.6170    0.9740    0.1160 C   0  0  0  0  0  0  0  0  0  0  0  0
   -1.9430    0.8780   -0.5480 C   0  0  0  0  0  0  0  0  0  0  0  0
   -2.7320   -0.3100   -0.1780 C   0  0  0  0  0  0  0  0  0  0  0  0
   -3.9820   -0.4580   -0.9660 C   0  0  2  0  0  0  0  0  0  0  0  0
   -5.0430    0.4630   -0.7840 C   0  0  0  0  0  0  0  0  0  0  0  0
   -6.2500   -0.0150   -1.0090 O   0  0  0  0  0  0  0  0  0  0  0  0
   -5.1800    1.7590   -0.4180 N   0  0  0  0  0  0  0  0  0  0  0  0
   -6.3900    2.5510   -0.3120 C   0  0  0  0  0  0  0  0  0  0  0  0
   -5.9480    3.6170    0.3560 N   0  0  0  0  0  0  0  0  0  0  0  0
   -7.3150    4.6600    0.5760 S   0  0  0  0  0  0  0  0  0  0  0  0
   -7.5200    5.4000   -0.7770 O   0  0  0  0  0  0  0  0  0  0  0  0
   -8.5070    3.3230    0.4620 N   0  0  0  0  0  0  0  0  0  0  0  0
   -7.7400    2.7230   -0.7010 C   0  0  2  0  0  0  0  0  0  0  0  0
   -8.6820    1.3790   -1.2850 Cl  0  0  0  0  0  0  0  0  0  0  0  0
   -4.5270   -1.8900   -0.8180 C   0  0  1  0  0  0  0  0  0  0  0  0
   -5.7240   -2.1740   -1.6640 C   0  0  0  0  0  0  0  0  0  0  0  0
   -3.4980   -2.8360   -0.9060 N   0  0  0  0  0  0  0  0  0  0  0  0
   -3.1380   -3.6490    0.2170 C   0  0  0  0  0  0  0  0  0  0  0  0
   -2.1140   -4.5960    0.1710 N   0  0  0  0  0  0  0  0  0  0  0  0
   -3.7850   -3.5050    1.3190 O   0  0  0  0  0  0  0  0  0  0  0  0
  1  2  1  0
  2  3  1  0
  2 21  2  0
  3  4  2  0
  5  4  1  6
  4 20  1  0
  5  6  1  0
  5 19  1  0
  6  7  1  0
  7  8  1  0
  7 17  1  0
  8  9  2  0
  8 10  1  0
 10 11  1  0
 11 12  2  0
 11 16  1  0
 12 13  1  0
 13 14  2  0
 13 15  1  0
 15 16  1  0
 17 18  1  0
 18 19  1  0
 20 21  1  0
 21 22  1  0
 22 23  1  0
 24 23  1  1
 24 25  1  0
 24 35  1  0
 25 26  2  0
 25 27  1  0
 27 28  1  0
 28 29  2  0
 28 33  1  0
 29 30  1  0
 30 31  2  0
 30 32  1  6
 32 33  1  0
 33 34  1  1
 35 36  1  6
 35 37  1  0
 37 38  1  0
 38 39  1  0
 38 40  2  0
M  END
