
     RDKit          3D

 40 43  0  0  0  0  0  0  0  0999 V2000
   -4.6480    4.0160   -0.2760 C   0  0  0  0  0  0  0  0  0  0  0  0
   -4.2470    2.6340    0.1910 C   0  0  1  0  0  0  0  0  0  0  0  0
   -4.1500    1.7370   -0.8940 O   0  0  0  0  0  0  0  0  0  0  0  0
   -3.1380    0.8700   -1.1590 C   0  0  0  0  0  0  0  0  0  0  0  0
   -2.9820    0.3890   -2.2800 O   0  0  0  0  0  0  0  0  0  0  0  0
   -2.1940    0.4940   -0.0630 C   0  0  2  0  0  0  0  0  0  0  0  0
   -0.7930    0.8460   -0.3670 C   0  0  0  0  0  0  0  0  0  0  0  0
   -0.0170    0.3030   -1.4590 C   0  0  0  0  0  0  0  0  0  0  0  0
    0.4110   -1.1290   -1.3520 C   0  0  2  0  0  0  0  0  0  0  0  0
    1.2970   -1.2980   -0.1750 C   0  0  0  0  0  0  0  0  0  0  0  0
    0.9050   -1.0720    1.0240 O   0  0  0  0  0  0  0  0  0  0  0  0
    2.6460   -1.7250   -0.3070 N   0  0  0  0  0  0  0  0  0  0  0  0
    3.1320   -2.0570   -1.4370 C   0  0  0  0  0  0  0  0  0  0  0  0
    4.4890   -2.4760   -1.4780 N   0  0  0  0  0  0  0  0  0  0  0  0
    5.4670   -1.6550   -0.7380 C   0  0  0  0  0  0  0  0  0  0  0  0
    5.5740   -0.7140   -0.1070 N   0  0  0  0  0  0  0  0  0  0  0  0
    6.7000   -0.2850    0.4330 N   0  0  0  0  0  0  0  0  0  0  0  0
    7.7400   -0.8010    0.3460 C   0  0  0  0  0  0  0  0  0  0  0  0
    9.1120   -0.6620    0.7420 C   0  0  0  0  0  0  0  0  0  0  0  0
   10.1560   -1.4710    0.4840 N   0  0  0  0  0  0  0  0  0  0  0  0
   11.2400   -0.9880    1.0330 N   0  0  0  0  0  0  0  0  0  0  0  0
   10.8880    0.1430    1.6510 C   0  0  0  0  0  0  0  0  0  0  0  0
   11.6760    0.8890    2.2940 O   0  0  0  0  0  0  0  0  0  0  0  0
    9.5910    0.3430    1.4740 N   0  0  0  0  0  0  0  0  0  0  0  0
    7.2400   -2.2890   -0.7290 S   0  0  0  0  0  0  0  0  0  0  0  0
    2.3110   -1.9550   -2.5680 N   0  0  0  0  0  0  0  0  0  0  0  0
    1.1190   -1.5590   -2.5960 C   0  0  0  0  0  0  0  0  0  0  0  0
    0.2010   -1.4800   -4.1030 Cl  0  0  0  0  0  0  0  0  0  0  0  0
   -2.4400   -0.9750    0.1550 C   0  0  0  0  0  0  0  0  0  0  0  0
   -3.8490   -1.2810    0.5630 C   0  0  0  0  0  0  0  0  0  0  0  0
   -4.7530   -0.4570    0.6460 O   0  0  0  0  0  0  0  0  0  0  0  0
   -4.1840   -2.6510    0.8840 N   0  0  0  0  0  0  0  0  0  0  0  0
   -5.4500   -3.0260    1.2650 N   0  0  0  0  0  0  0  0  0  0  0  0
   -6.0890   -3.9040    0.3100 C   0  0  0  0  0  0  0  0  0  0  0  0
   -6.4780   -1.6810    1.7540 S   0  0  0  0  0  0  0  0  0  0  0  0
   -2.5460    1.2170    1.2270 C   0  0  0  0  0  0  0  0  0  0  0  0
   -2.9150    2.6420    0.9040 C   0  0  2  0  0  0  0  0  0  0  0  0
   -2.9770    3.4620    2.1470 C   0  0  0  0  0  0  0  0  0  0  0  0
   -3.3140    4.8200    2.0710 N   0  0  0  0  0  0  0  0  0  0  0  0
   -2.7250    2.9310    3.2440 O   0  0  0  0  0  0  0  0  0  0  0  0
  2  1  1  6
  2  3  1  0
  2 37  1  0
  3  4  1  0
  4  5  2  0
  4  6  1  0
  6  7  1  6
  6 29  1  0
  6 36  1  0
  7  8  1  0
  9  8  1  6
  9 10  1  0
  9 27  1  0
 10 11  2  0
 10 12  1  0
 12 13  2  0
 13 14  1  0
 13 26  1  0
 14 15  1  0
 15 16  2  0
 15 25  1  0
 16 17  1  0
 17 18  2  0
 18 19  1  0
 18 25  1  0
 19 20  2  0
 19 24  1  0
 20 21  1  0
 21 22  1  0
 22 23  2  0
 22 24  1  0
 26 27  2  0
 27 28  1  0
 29 30  1  0
 30 31  2  0
 30 32  1  0
 32 33  1  0
 33 34  1  0
 33 35  1  0
 36 37  1  0
 37 38  1  1
 38 39  1  0
 38 40  2  0
M  END
