
     RDKit          3D

 40 43  0  0  0  0  0  0  0  0999 V2000
    4.3910   -2.6230   -2.2650 C   0  0  0  0  0  0  0  0  0  0  0  0
    3.4140   -2.0250   -1.2410 C   0  0  0  0  0  0  0  0  0  0  0  0
    4.2510   -1.2400   -0.2950 C   0  0  0  0  0  0  0  0  0  0  0  0
    3.4630   -0.5480    0.8190 C   0  0  1  0  0  0  0  0  0  0  0  0
    4.5760    0.1790    1.6190 C   0  0  0  0  0  0  0  0  0  0  0  0
    2.4660    0.2260    0.4720 O   0  0  0  0  0  0  0  0  0  0  0  0
    2.3960    1.2080   -0.3920 C   0  0  2  0  0  0  0  0  0  0  0  0
    3.5040    1.4900   -1.3640 C   0  0  0  0  0  0  0  0  0  0  0  0
    1.9920    2.5600    0.1810 C   0  0  1  0  0  0  0  0  0  0  0  0
    2.9180    3.5580   -0.0200 O   0  0  0  0  0  0  0  0  0  0  0  0
    3.4200    4.1560    1.1000 C   0  0  0  0  0  0  0  0  0  0  0  0
    0.6680    3.0550   -0.3440 C   0  0  0  0  0  0  0  0  0  0  0  0
   -0.4180    2.5070    0.2800 O   0  0  0  0  0  0  0  0  0  0  0  0
   -0.9010    3.1810    1.3760 C   0  0  0  0  0  0  0  0  0  0  0  0
   -2.2980    3.5730    1.0930 C   0  0  0  0  0  0  0  0  0  0  0  0
   -2.7990    4.7980    0.6990 C   0  0  0  0  0  0  0  0  0  0  0  0
   -4.1610    4.6900    0.5580 C   0  0  0  0  0  0  0  0  0  0  0  0
   -4.4560    3.4220    0.8630 N   0  0  0  0  0  0  0  0  0  0  0  0
   -3.3650    2.7090    1.1930 C   0  0  0  0  0  0  0  0  0  0  0  0
   -3.2650    1.2890    1.5840 C   0  0  0  0  0  0  0  0  0  0  0  0
   -3.2740    0.3670    0.3380 C   0  0  2  0  0  0  0  0  0  0  0  0
   -4.3780    0.7530   -0.5720 C   0  0  0  0  0  0  0  0  0  0  0  0
   -4.3650    0.0350   -1.7220 O   0  0  0  0  0  0  0  0  0  0  0  0
   -3.2320   -0.6300   -2.0720 C   0  0  0  0  0  0  0  0  0  0  0  0
   -3.1850   -2.0470   -1.5180 C   0  0  2  0  0  0  0  0  0  0  0  0
   -4.2110   -2.7310   -2.3830 C   0  0  0  0  0  0  0  0  0  0  0  0
   -5.0030   -3.2840   -3.0610 N   0  0  0  0  0  0  0  0  0  0  0  0
   -3.6390   -2.0120   -0.1180 C   0  0  0  0  0  0  0  0  0  0  0  0
   -3.2270   -0.9860    0.7470 N   0  0  0  0  0  0  0  0  0  0  0  0
   -1.8210   -2.5540   -1.8130 C   0  0  2  0  0  0  0  0  0  0  0  0
   -2.1280   -3.8070   -2.5070 O   0  0  0  0  0  0  0  0  0  0  0  0
   -0.9550   -2.8850   -0.6360 C   0  0  0  0  0  0  0  0  0  0  0  0
   -1.3430   -4.1600   -0.1270 C   0  0  0  0  0  0  0  0  0  0  0  0
   -0.7380   -4.7430    0.9430 C   0  0  0  0  0  0  0  0  0  0  0  0
    0.2740   -4.0270    1.5060 C   0  0  0  0  0  0  0  0  0  0  0  0
    0.7190   -2.7540    1.0590 C   0  0  0  0  0  0  0  0  0  0  0  0
    0.0660   -2.1880   -0.0460 C   0  0  0  0  0  0  0  0  0  0  0  0
    1.8070   -2.3030    1.8710 N   0  0  0  0  0  0  0  0  0  0  0  0
    3.0460   -1.6820    1.7020 C   0  0  0  0  0  0  0  0  0  0  0  0
    4.0800   -2.0910    2.3910 O   0  0  0  0  0  0  0  0  0  0  0  0
  1  2  1  0
  2  3  1  0
  3  4  1  0
  4  5  1  1
  4  6  1  0
  4 39  1  0
  6  7  1  0
  7  8  1  1
  7  9  1  0
  9 10  1  6
  9 12  1  0
 10 11  1  0
 12 13  1  0
 13 14  1  0
 14 15  1  0
 15 16  1  0
 15 19  2  0
 16 17  2  0
 17 18  1  0
 18 19  1  0
 19 20  1  0
 21 20  1  1
 21 22  1  0
 21 29  1  0
 22 23  1  0
 23 24  1  0
 24 25  1  0
 25 26  1  6
 25 28  1  0
 25 30  1  0
 26 27  3  0
 28 29  1  0
 30 31  1  6
 30 32  1  0
 32 33  1  0
 32 37  2  0
 33 34  2  0
 34 35  1  0
 35 36  2  0
 36 37  1  0
 36 38  1  0
 38 39  1  0
 39 40  2  0
M  CHG  1  29   1
M  END
