
     RDKit          3D

 40 43  0  0  0  0  0  0  0  0999 V2000
   -2.0550   -4.0610    2.4470 C   0  0  0  0  0  0  0  0  0  0  0  0
   -2.8020   -4.2360    1.2650 O   0  0  0  0  0  0  0  0  0  0  0  0
   -3.2580   -3.0200    0.6040 C   0  0  0  0  0  0  0  0  0  0  0  0
   -4.1460   -2.3510    1.3360 C   0  0  0  0  0  0  0  0  0  0  0  0
   -4.8330   -1.0770    1.0420 C   0  0  0  0  0  0  0  0  0  0  0  0
   -4.5640    0.1720    1.2910 C   0  0  0  0  0  0  0  0  0  0  0  0
   -5.1900    1.4760    1.0090 C   0  0  0  0  0  0  0  0  0  0  0  0
   -5.2370    2.0640   -0.2050 C   0  0  0  0  0  0  0  0  0  0  0  0
   -4.7000    1.5620   -1.4880 C   0  0  0  0  0  0  0  0  0  0  0  0
   -3.5540    2.1510   -1.9210 C   0  0  0  0  0  0  0  0  0  0  0  0
   -3.5870    3.6280   -2.2710 C   0  0  0  0  0  0  0  0  0  0  0  0
   -2.8010    4.0070   -3.1700 O   0  0  0  0  0  0  0  0  0  0  0  0
   -4.3810    4.6930   -1.7350 N   0  0  0  0  0  0  0  0  0  0  0  0
   -5.4940    4.6140   -0.8460 N   0  0  0  0  0  0  0  0  0  0  0  0
   -5.8230    3.4430   -0.0780 C   0  0  0  0  0  0  0  0  0  0  0  0
   -6.6890    3.5900    0.7900 O   0  0  0  0  0  0  0  0  0  0  0  0
   -2.2060    1.7030   -2.0910 C   0  0  0  0  0  0  0  0  0  0  0  0
   -1.4420    2.2440   -2.9520 O   0  0  0  0  0  0  0  0  0  0  0  0
   -1.5410    0.6160   -1.3390 N   0  0  0  0  0  0  0  0  0  0  0  0
   -0.1630    0.7900   -0.9480 C   0  0  1  0  0  0  0  0  0  0  0  0
   -0.0180    0.9030    0.5480 C   0  0  0  0  0  0  0  0  0  0  0  0
    0.8460   -0.1750    1.1090 C   0  0  0  0  0  0  0  0  0  0  0  0
    2.2790   -0.1210    0.5560 C   0  0  2  0  0  0  0  0  0  0  0  0
    3.0820    0.8460    1.2920 C   0  0  0  0  0  0  0  0  0  0  0  0
    2.3910    1.6890    2.0270 O   0  0  0  0  0  0  0  0  0  0  0  0
    4.4780    1.0360    1.3390 C   0  0  0  0  0  0  0  0  0  0  0  0
    5.4790    0.4020    0.8150 C   0  0  0  0  0  0  0  0  0  0  0  0
    6.9090    0.9280    1.0950 C   0  0  0  0  0  0  0  0  0  0  0  0
    7.7100   -0.2830    1.5170 C   0  0  0  0  0  0  0  0  0  0  0  0
    6.7540   -1.2950    2.0940 C   0  0  0  0  0  0  0  0  0  0  0  0
    5.9410   -1.9430    0.9720 C   0  0  0  0  0  0  0  0  0  0  0  0
    5.5090   -0.8230    0.0080 C   0  0  0  0  0  0  0  0  0  0  0  0
    2.2100    0.3600   -0.8790 C   0  0  0  0  0  0  0  0  0  0  0  0
    0.8530   -0.1590   -1.4310 C   0  0  0  0  0  0  0  0  0  0  0  0
   -2.2940   -0.4920   -0.9210 C   0  0  0  0  0  0  0  0  0  0  0  0
   -2.1850   -1.8500   -1.3990 C   0  0  0  0  0  0  0  0  0  0  0  0
   -1.6830   -2.1330   -2.7440 C   0  0  0  0  0  0  0  0  0  0  0  0
   -1.2350   -1.1970   -3.6850 N   0  0  0  0  0  0  0  0  0  0  0  0
   -1.6300   -3.3530   -3.1710 O   0  0  0  0  0  0  0  0  0  0  0  0
   -2.6230   -2.8910   -0.6770 C   0  0  0  0  0  0  0  0  0  0  0  0
  1  2  1  0
  2  3  1  0
  3  4  2  0
  3 40  1  0
  4  5  1  0
  5  6  2  0
  6  7  1  0
  7  8  2  0
  8  9  1  0
  8 15  1  0
  9 10  2  0
 10 11  1  0
 10 17  1  0
 11 12  2  0
 11 13  1  0
 13 14  1  0
 14 15  1  0
 15 16  2  0
 17 18  2  0
 17 19  1  0
 20 19  1  1
 19 35  1  0
 20 21  1  0
 20 34  1  0
 21 22  1  0
 22 23  1  0
 23 24  1  1
 23 33  1  0
 24 25  2  0
 24 26  1  0
 26 27  2  3
 27 28  1  0
 27 32  1  0
 28 29  1  0
 29 30  1  0
 30 31  1  0
 31 32  1  0
 33 34  1  0
 35 36  1  0
 36 37  1  0
 36 40  2  0
 37 38  1  0
 37 39  2  0
M  END
