
     RDKit          3D

 39 43  0  0  0  0  0  0  0  0999 V2000
   -5.9600    4.7840    3.1160 N   0  0  0  0  0  0  0  0  0  0  0  0
   -6.8400    3.2620    2.9800 S   0  0  0  0  0  0  0  0  0  0  0  0
   -5.7160    1.8870    2.7430 C   0  0  0  0  0  0  0  0  0  0  0  0
   -5.2600    1.3920    1.5890 N   0  0  0  0  0  0  0  0  0  0  0  0
   -4.4490    0.3730    1.8770 C   0  0  0  0  0  0  0  0  0  0  0  0
   -3.6800   -0.5210    0.9410 C   0  0  2  0  0  0  0  0  0  0  0  0
   -3.0900    0.2890   -0.0260 N   0  0  0  0  0  0  0  0  0  0  0  0
   -3.2250    0.0810   -1.2450 C   0  0  0  0  0  0  0  0  0  0  0  0
   -2.6720    0.8380   -2.2930 N   0  0  0  0  0  0  0  0  0  0  0  0
   -1.3480    1.3230   -2.2780 C   0  0  0  0  0  0  0  0  0  0  0  0
   -0.4750    1.0720   -1.2400 C   0  0  0  0  0  0  0  0  0  0  0  0
    0.8220    1.5390   -1.1950 C   0  0  0  0  0  0  0  0  0  0  0  0
    1.7210    1.2500   -0.0710 C   0  0  0  0  0  0  0  0  0  0  0  0
    2.8930    1.7310   -0.1070 O   0  0  0  0  0  0  0  0  0  0  0  0
    1.3770    0.4750    1.0480 N   0  0  0  0  0  0  0  0  0  0  0  0
    2.3100    0.2130    2.1160 C   0  0  0  0  0  0  0  0  0  0  0  0
    3.4960   -0.5730    1.7290 C   0  0  0  0  0  0  0  0  0  0  0  0
    4.3860   -0.7930    2.6300 O   0  0  0  0  0  0  0  0  0  0  0  0
    3.6730   -1.0820    0.4250 N   0  0  0  0  0  0  0  0  0  0  0  0
    4.8600   -1.8610    0.0630 C   0  0  1  0  0  0  0  0  0  0  0  0
    4.4180   -3.2690   -0.2440 C   0  0  0  0  0  0  0  0  0  0  0  0
    4.9240   -3.8070   -1.4800 N   0  0  0  0  0  0  0  0  0  0  0  0
    4.9220   -2.9980   -2.6460 C   0  0  0  0  0  0  0  0  0  0  0  0
    4.8760   -3.3950   -3.8130 O   0  0  0  0  0  0  0  0  0  0  0  0
    4.9800   -1.5500   -2.3890 C   0  0  0  0  0  0  0  0  0  0  0  0
    4.6630   -0.4460   -3.0240 C   0  0  0  0  0  0  0  0  0  0  0  0
    4.9750    0.6730   -2.2050 N   0  0  0  0  0  0  0  0  0  0  0  0
    5.4720    0.2490   -1.0950 N   0  0  0  0  0  0  0  0  0  0  0  0
    5.5460   -1.1840   -1.0600 C   0  0  1  0  0  0  0  0  0  0  0  0
    1.2630    2.3020   -2.2540 C   0  0  0  0  0  0  0  0  0  0  0  0
    0.3910    2.5510   -3.2870 C   0  0  0  0  0  0  0  0  0  0  0  0
   -0.8600    2.0790   -3.2940 N   0  0  0  0  0  0  0  0  0  0  0  0
   -4.2800   -1.3820   -1.3870 S   0  0  0  0  0  0  0  0  0  0  0  0
   -4.6540   -1.5000    0.3860 C   0  0  2  0  0  0  0  0  0  0  0  0
   -6.0640   -1.2230    0.6790 C   0  0  0  0  0  0  0  0  0  0  0  0
   -6.9020   -1.0280   -0.2230 O   0  0  0  0  0  0  0  0  0  0  0  0
   -6.4930   -1.1750    1.9960 O   0  0  0  0  0  0  0  0  0  0  0  0
   -4.4240    0.2630    3.1940 N   0  0  0  0  0  0  0  0  0  0  0  0
   -5.1890    1.1780    3.7000 O   0  0  0  0  0  0  0  0  0  0  0  0
  1  2  1  0
  2  3  1  0
  3  4  2  0
  3 39  1  0
  4  5  1  0
  6  5  1  1
  5 38  2  0
  6  7  1  0
  6 34  1  0
  7  8  2  0
  8  9  1  0
  8 33  1  0
  9 10  1  0
 10 11  2  0
 10 32  1  0
 11 12  1  0
 12 13  1  0
 12 30  2  0
 13 14  2  0
 13 15  1  0
 15 16  1  0
 16 17  1  0
 17 18  2  0
 17 19  1  0
 20 19  1  6
 20 21  1  0
 20 29  1  0
 21 22  1  0
 22 23  1  0
 23 24  2  0
 23 25  1  0
 25 26  2  0
 25 29  1  0
 26 27  1  0
 27 28  2  0
 29 28  1  1
 30 31  1  0
 31 32  2  0
 33 34  1  0
 34 35  1  6
 35 36  2  0
 35 37  1  0
 38 39  1  0
M  END
