
     RDKit          3D

 40 43  0  0  0  0  0  0  0  0999 V2000
   -4.4410   -5.2530    0.6330 C   0  0  0  0  0  0  0  0  0  0  0  0
   -3.4970   -4.1960    0.5070 O   0  0  0  0  0  0  0  0  0  0  0  0
   -3.4440   -3.4320   -0.6580 C   0  0  0  0  0  0  0  0  0  0  0  0
   -4.3150   -3.9060   -1.7710 C   0  0  0  0  0  0  0  0  0  0  0  0
   -4.3410   -3.1870   -2.8470 C   0  0  0  0  0  0  0  0  0  0  0  0
   -3.6030   -2.0430   -2.9020 C   0  0  0  0  0  0  0  0  0  0  0  0
   -2.8500   -1.5170   -2.0770 C   0  0  0  0  0  0  0  0  0  0  0  0
   -2.3790   -0.1370   -2.0120 C   0  0  0  0  0  0  0  0  0  0  0  0
   -2.8070    0.6750   -2.7350 O   0  0  0  0  0  0  0  0  0  0  0  0
   -1.3450    0.2430   -1.0160 N   0  0  0  0  0  0  0  0  0  0  0  0
   -1.5700    1.7650   -0.8850 C   0  0  0  0  0  0  0  0  0  0  0  0
   -3.0920    1.8410   -0.5490 C   0  0  2  0  0  0  0  0  0  0  0  0
   -3.7330    2.4990   -1.5540 O   0  0  0  0  0  0  0  0  0  0  0  0
   -3.3410    2.5000    0.7490 C   0  0  0  0  0  0  0  0  0  0  0  0
   -3.5130    3.9660    0.4610 N   0  0  0  0  0  0  0  0  0  0  0  0
   -2.9220    4.5630    1.5470 C   0  0  0  0  0  0  0  0  0  0  0  0
   -1.3850    4.6210    1.1700 C   0  0  0  0  0  0  0  0  0  0  0  0
   -0.4740    4.6440    0.9590 C   0  0  0  0  0  0  0  0  0  0  0  0
    0.9230    4.6730    0.6520 C   0  0  0  0  0  0  0  0  0  0  0  0
    1.7440    3.5080    0.8850 O   0  0  0  0  0  0  0  0  0  0  0  0
    1.6730    2.2810    1.5400 C   0  0  0  0  0  0  0  0  0  0  0  0
    2.1980    2.4020    2.9100 C   0  0  0  0  0  0  0  0  0  0  0  0
    2.2410    1.4440    3.8580 C   0  0  0  0  0  0  0  0  0  0  0  0
    1.7030    0.1510    3.4420 C   0  0  0  0  0  0  0  0  0  0  0  0
    1.2550    0.1030    2.2110 C   0  0  0  0  0  0  0  0  0  0  0  0
    1.2030    1.0720    1.2060 C   0  0  0  0  0  0  0  0  0  0  0  0
    0.9240    0.5160   -0.1960 C   0  0  1  0  0  0  0  0  0  0  0  0
    2.1100   -0.1690   -0.7020 N   0  0  0  0  0  0  0  0  0  0  0  0
    2.4420   -1.4870   -0.5430 C   0  0  0  0  0  0  0  0  0  0  0  0
    1.7450   -2.3630    0.0080 O   0  0  0  0  0  0  0  0  0  0  0  0
    3.7990   -1.9480   -1.0860 C   0  0  2  0  0  0  0  0  0  0  0  0
    4.2100   -3.2560   -0.6500 C   0  0  0  0  0  0  0  0  0  0  0  0
    5.3380   -3.4670    0.1880 O   0  0  0  0  0  0  0  0  0  0  0  0
    5.8070   -2.2010    0.6360 C   0  0  0  0  0  0  0  0  0  0  0  0
    6.1480   -1.4210   -0.5180 C   0  0  2  0  0  0  0  0  0  0  0  0
    7.2520   -0.5110   -0.6470 C   0  0  0  0  0  0  0  0  0  0  0  0
    8.2080    0.2860   -0.7780 N   0  0  0  0  0  0  0  0  0  0  0  0
    4.8010   -0.8230   -1.0570 C   0  0  0  0  0  0  0  0  0  0  0  0
   -0.3300   -0.3270   -0.3170 C   0  0  0  0  0  0  0  0  0  0  0  0
   -2.6690   -2.3010   -0.7000 C   0  0  0  0  0  0  0  0  0  0  0  0
  1  2  1  0
  2  3  1  0
  3  4  2  0
  3 40  1  0
  4  5  1  0
  5  6  2  0
  6  7  1  0
  7  8  1  0
  7 40  2  0
  8  9  2  0
  8 10  1  0
 10 11  1  0
 10 39  1  0
 11 12  1  0
 12 13  1  6
 12 14  1  0
 14 15  1  0
 15 16  1  0
 16 17  1  0
 17 18  3  0
 18 19  1  0
 19 20  1  0
 20 21  1  0
 21 22  2  0
 21 26  1  0
 22 23  1  0
 23 24  2  0
 24 25  1  0
 25 26  2  0
 26 27  1  0
 27 28  1  1
 27 39  1  0
 28 29  1  0
 29 30  2  0
 31 29  1  1
 31 32  1  0
 31 38  1  0
 32 33  1  0
 33 34  1  0
 34 35  1  0
 35 36  1  1
 35 38  1  0
 36 37  3  0
M  CHG  1  15   1
M  END
