
     RDKit          3D

 40 43  0  0  0  0  0  0  0  0999 V2000
   -4.5500   -3.4840    2.9010 C   0  0  0  0  0  0  0  0  0  0  0  0
   -4.3920   -2.4050    1.8540 C   0  0  1  0  0  0  0  0  0  0  0  0
   -3.2100   -1.6600    2.2200 O   0  0  0  0  0  0  0  0  0  0  0  0
   -2.7090   -0.7040    1.3570 C   0  0  0  0  0  0  0  0  0  0  0  0
   -2.3110    0.3530    1.8950 O   0  0  0  0  0  0  0  0  0  0  0  0
   -2.6510   -0.9120   -0.0680 C   0  0  2  0  0  0  0  0  0  0  0  0
   -1.3140   -1.0920   -0.7240 C   0  0  0  0  0  0  0  0  0  0  0  0
   -0.2210   -0.2020   -0.7420 C   0  0  0  0  0  0  0  0  0  0  0  0
    0.6240    0.3250    0.3300 C   0  0  2  0  0  0  0  0  0  0  0  0
    1.6580    1.2430   -0.2370 C   0  0  0  0  0  0  0  0  0  0  0  0
    1.3040    1.9660   -1.2460 O   0  0  0  0  0  0  0  0  0  0  0  0
    2.9450    1.3280    0.2870 N   0  0  0  0  0  0  0  0  0  0  0  0
    3.3360    0.5560    1.2330 C   0  0  0  0  0  0  0  0  0  0  0  0
    4.6680    0.7150    1.7000 N   0  0  0  0  0  0  0  0  0  0  0  0
    5.7540    0.6980    0.7800 C   0  0  0  0  0  0  0  0  0  0  0  0
    6.0320    0.5410   -0.3540 N   0  0  0  0  0  0  0  0  0  0  0  0
    7.2030    0.6230   -0.8830 N   0  0  0  0  0  0  0  0  0  0  0  0
    8.2010    0.8810   -0.2660 C   0  0  0  0  0  0  0  0  0  0  0  0
    9.6540    1.0570   -0.4120 C   0  0  0  0  0  0  0  0  0  0  0  0
   10.5690    1.3640    0.5170 N   0  0  0  0  0  0  0  0  0  0  0  0
   11.7340    1.4090   -0.0970 N   0  0  0  0  0  0  0  0  0  0  0  0
   11.5610    1.1320   -1.4190 C   0  0  0  0  0  0  0  0  0  0  0  0
   12.4300    1.0780   -2.3310 O   0  0  0  0  0  0  0  0  0  0  0  0
   10.2490    0.9120   -1.6070 N   0  0  0  0  0  0  0  0  0  0  0  0
    7.4660    1.0760    1.4700 S   0  0  0  0  0  0  0  0  0  0  0  0
    2.3920   -0.3490    1.7350 N   0  0  0  0  0  0  0  0  0  0  0  0
    1.1810   -0.4780    1.3530 C   0  0  0  0  0  0  0  0  0  0  0  0
    0.3700   -1.7820    2.2550 Cl  0  0  0  0  0  0  0  0  0  0  0  0
   -3.5450    0.0800   -0.8050 C   0  0  0  0  0  0  0  0  0  0  0  0
   -3.3290    1.4820   -0.6600 C   0  0  0  0  0  0  0  0  0  0  0  0
   -2.3400    1.9590   -0.0680 O   0  0  0  0  0  0  0  0  0  0  0  0
   -4.2680    2.3980   -1.1990 N   0  0  0  0  0  0  0  0  0  0  0  0
   -4.2460    3.7580   -1.1590 N   0  0  0  0  0  0  0  0  0  0  0  0
   -3.0700    4.4430   -0.8100 C   0  0  0  0  0  0  0  0  0  0  0  0
   -5.6750    4.4250   -0.4030 S   0  0  0  0  0  0  0  0  0  0  0  0
   -3.3410   -2.2640   -0.4590 C   0  0  0  0  0  0  0  0  0  0  0  0
   -4.0640   -3.0060    0.5410 C   0  0  2  0  0  0  0  0  0  0  0  0
   -5.3690   -3.5300   -0.0180 C   0  0  0  0  0  0  0  0  0  0  0  0
   -6.4990   -2.6830   -0.1080 N   0  0  0  0  0  0  0  0  0  0  0  0
   -5.5100   -4.7110   -0.4190 O   0  0  0  0  0  0  0  0  0  0  0  0
  2  1  1  1
  2  3  1  0
  2 37  1  0
  3  4  1  0
  4  5  2  0
  4  6  1  0
  6  7  1  6
  6 29  1  0
  6 36  1  0
  7  8  1  0
  9  8  1  6
  9 10  1  0
  9 27  1  0
 10 11  2  0
 10 12  1  0
 12 13  2  0
 13 14  1  0
 13 26  1  0
 14 15  1  0
 15 16  2  0
 15 25  1  0
 16 17  1  0
 17 18  2  0
 18 19  1  0
 18 25  1  0
 19 20  2  0
 19 24  1  0
 20 21  1  0
 21 22  1  0
 22 23  2  0
 22 24  1  0
 26 27  2  0
 27 28  1  0
 29 30  1  0
 30 31  2  0
 30 32  1  0
 32 33  1  0
 33 34  1  0
 33 35  1  0
 36 37  1  0
 37 38  1  6
 38 39  1  0
 38 40  2  0
M  END
