
     RDKit          3D

 40 43  0  0  0  0  0  0  0  0999 V2000
   -7.3000   -2.0470   -0.6200 C   0  0  0  0  0  0  0  0  0  0  0  0
   -6.2880   -1.2090   -1.1230 O   0  0  0  0  0  0  0  0  0  0  0  0
   -5.4000   -0.5280   -0.1390 C   0  0  0  0  0  0  0  0  0  0  0  0
   -5.4940    0.7530   -0.2900 C   0  0  0  0  0  0  0  0  0  0  0  0
   -4.9350    1.9110    0.3160 C   0  0  0  0  0  0  0  0  0  0  0  0
   -4.3930    2.1760    1.4670 C   0  0  0  0  0  0  0  0  0  0  0  0
   -4.0840    1.4520    2.6780 C   0  0  0  0  0  0  0  0  0  0  0  0
   -2.9680    0.9030    3.1360 C   0  0  0  0  0  0  0  0  0  0  0  0
   -1.5940    0.8250    2.5730 C   0  0  0  0  0  0  0  0  0  0  0  0
   -1.0460   -0.3840    2.4050 C   0  0  0  0  0  0  0  0  0  0  0  0
   -0.7480   -1.2840    3.5820 C   0  0  0  0  0  0  0  0  0  0  0  0
    0.2640   -2.0120    3.5280 O   0  0  0  0  0  0  0  0  0  0  0  0
   -1.4870   -1.4390    4.8170 N   0  0  0  0  0  0  0  0  0  0  0  0
   -2.6340   -0.7540    5.2080 N   0  0  0  0  0  0  0  0  0  0  0  0
   -3.3110    0.2740    4.4600 C   0  0  0  0  0  0  0  0  0  0  0  0
   -4.3420    0.6750    5.0450 O   0  0  0  0  0  0  0  0  0  0  0  0
   -0.6330   -1.1200    1.2320 C   0  0  0  0  0  0  0  0  0  0  0  0
    0.4710   -1.8430    1.3350 O   0  0  0  0  0  0  0  0  0  0  0  0
   -1.1850   -1.2340   -0.0600 N   0  0  0  0  0  0  0  0  0  0  0  0
   -0.3840   -0.7490   -1.2230 C   0  0  1  0  0  0  0  0  0  0  0  0
   -0.2710    0.7220   -1.2990 C   0  0  0  0  0  0  0  0  0  0  0  0
    1.1040    1.2890   -1.2540 C   0  0  0  0  0  0  0  0  0  0  0  0
    2.0730    0.3680   -0.5500 C   0  0  2  0  0  0  0  0  0  0  0  0
    3.4340    1.0180   -0.6180 C   0  0  0  0  0  0  0  0  0  0  0  0
    4.0150    1.2850    0.4420 O   0  0  0  0  0  0  0  0  0  0  0  0
    4.0310    1.3140   -1.8940 C   0  0  0  0  0  0  0  0  0  0  0  0
    5.1860    1.8620   -2.1360 C   0  0  0  0  0  0  0  0  0  0  0  0
    5.6770    2.1110   -3.5150 C   0  0  0  0  0  0  0  0  0  0  0  0
    6.9210    1.3090   -3.7680 C   0  0  0  0  0  0  0  0  0  0  0  0
    7.8340    1.3680   -2.5990 C   0  0  0  0  0  0  0  0  0  0  0  0
    7.5170    2.4620   -1.6000 C   0  0  0  0  0  0  0  0  0  0  0  0
    6.1090    2.2780   -1.0410 C   0  0  0  0  0  0  0  0  0  0  0  0
    2.1090   -1.0130   -1.0890 C   0  0  0  0  0  0  0  0  0  0  0  0
    0.8100   -1.5720   -1.4960 C   0  0  0  0  0  0  0  0  0  0  0  0
   -2.4660   -1.7980   -0.3890 C   0  0  0  0  0  0  0  0  0  0  0  0
   -3.4640   -1.9700    0.6690 C   0  0  0  0  0  0  0  0  0  0  0  0
   -3.1010   -2.9220    1.7240 C   0  0  0  0  0  0  0  0  0  0  0  0
   -1.8810   -3.6070    1.6720 N   0  0  0  0  0  0  0  0  0  0  0  0
   -3.8690   -3.1550    2.6830 O   0  0  0  0  0  0  0  0  0  0  0  0
   -4.6720   -1.4140    0.7230 C   0  0  0  0  0  0  0  0  0  0  0  0
  1  2  1  0
  2  3  1  0
  3  4  2  0
  3 40  1  0
  4  5  1  0
  5  6  2  0
  6  7  1  0
  7  8  2  0
  8  9  1  0
  8 15  1  0
  9 10  2  0
 10 11  1  0
 10 17  1  0
 11 12  2  0
 11 13  1  0
 13 14  1  0
 14 15  1  0
 15 16  2  0
 17 18  2  0
 17 19  1  0
 20 19  1  1
 19 35  1  0
 20 21  1  0
 20 34  1  0
 21 22  1  0
 22 23  1  0
 23 24  1  6
 23 33  1  0
 24 25  2  0
 24 26  1  0
 26 27  2  3
 27 28  1  0
 27 32  1  0
 28 29  1  0
 29 30  1  0
 30 31  1  0
 31 32  1  0
 33 34  1  0
 35 36  1  0
 36 37  1  0
 36 40  2  0
 37 38  1  0
 37 39  2  0
M  END
