
     RDKit          3D

 40 42  0  0  0  0  0  0  0  0999 V2000
   -4.9020    2.1390    1.2020 C   0  0  0  0  0  0  0  0  0  0  0  0
   -4.8620    2.2140   -0.3020 C   0  0  0  0  0  0  0  0  0  0  0  0
   -4.1410    1.1130   -0.9680 C   0  0  0  0  0  0  0  0  0  0  0  0
   -2.6610    0.9480   -0.6280 C   0  0  1  0  0  0  0  0  0  0  0  0
   -1.8600    2.0120   -0.9310 O   0  0  0  0  0  0  0  0  0  0  0  0
   -1.6870    3.3400   -0.8520 C   0  0  0  0  0  0  0  0  0  0  0  0
   -2.2440    4.2410   -1.7600 C   0  0  0  0  0  0  0  0  0  0  0  0
   -2.1160    5.6080   -1.7340 C   0  0  0  0  0  0  0  0  0  0  0  0
   -1.3690    6.1440   -0.7180 C   0  0  0  0  0  0  0  0  0  0  0  0
   -0.7920    5.2940    0.2080 C   0  0  0  0  0  0  0  0  0  0  0  0
   -0.9210    3.9270    0.1760 C   0  0  0  0  0  0  0  0  0  0  0  0
   -0.2020    3.1850    1.1530 N   0  0  0  0  0  0  0  0  0  0  0  0
    0.7260    2.1260    0.9180 C   0  0  0  0  0  0  0  0  0  0  0  0
    0.8240    1.2450    1.8510 O   0  0  0  0  0  0  0  0  0  0  0  0
    1.5360    1.9540   -0.2210 N   0  0  0  0  0  0  0  0  0  0  0  0
    2.6420    2.8040   -0.6340 C   0  0  1  0  0  0  0  0  0  0  0  0
    2.4060    4.2440   -0.1910 C   0  0  0  0  0  0  0  0  0  0  0  0
    3.9430    2.3050   -0.1200 C   0  0  0  0  0  0  0  0  0  0  0  0
    4.8070    3.2190    0.1370 O   0  0  0  0  0  0  0  0  0  0  0  0
    4.3040    0.9700    0.1040 N   0  0  0  0  0  0  0  0  0  0  0  0
    4.2010   -0.1370   -0.8160 C   0  0  0  0  0  0  0  0  0  0  0  0
    4.4720   -1.4330   -0.1270 C   0  0  1  0  0  0  0  0  0  0  0  0
    4.9230   -1.2520    1.1810 O   0  0  0  0  0  0  0  0  0  0  0  0
    5.6740   -2.3500    1.5320 C   0  0  0  0  0  0  0  0  0  0  0  0
    5.2820   -3.6080    0.8240 C   0  0  0  0  0  0  0  0  0  0  0  0
    3.8010   -3.6840    0.5180 C   0  0  0  0  0  0  0  0  0  0  0  0
    3.2810   -2.3640   -0.0510 C   0  0  1  0  0  0  0  0  0  0  0  0
    2.1770   -1.7940    0.7730 C   0  0  0  0  0  0  0  0  0  0  0  0
    0.8650   -2.5160    0.4630 C   0  0  0  0  0  0  0  0  0  0  0  0
   -0.2340   -1.5200    0.5280 C   0  0  0  0  0  0  0  0  0  0  0  0
   -1.5090   -1.9160   -0.0300 N   0  0  1  0  0  0  0  0  0  0  0  0
   -1.6460   -3.3250   -0.1970 C   0  0  0  0  0  0  0  0  0  0  0  0
   -1.9360   -3.7550   -1.6240 C   0  0  1  0  0  0  0  0  0  0  0  0
   -0.8340   -3.3900   -2.5920 C   0  0  0  0  0  0  0  0  0  0  0  0
   -2.0570   -5.1510   -1.6990 O   0  0  0  0  0  0  0  0  0  0  0  0
   -2.5350   -1.2840    0.7820 C   0  0  1  0  0  0  0  0  0  0  0  0
   -3.9130   -1.8170    0.4930 C   0  0  0  0  0  0  0  0  0  0  0  0
   -2.2890   -1.5860    2.2620 C   0  0  0  0  0  0  0  0  0  0  0  0
   -2.4470    0.1880    0.6050 C   0  0  0  0  0  0  0  0  0  0  0  0
   -2.1620    0.8550    1.6100 O   0  0  0  0  0  0  0  0  0  0  0  0
  1  2  1  0
  2  3  1  0
  4  3  1  1
  4  5  1  0
  4 39  1  0
  5  6  1  0
  6  7  2  0
  6 11  1  0
  7  8  1  0
  8  9  2  0
  9 10  1  0
 10 11  2  0
 11 12  1  0
 12 13  1  0
 13 14  2  0
 13 15  1  0
 15 16  1  0
 16 17  1  1
 16 18  1  0
 18 19  2  0
 18 20  1  0
 20 21  1  0
 22 21  1  1
 22 23  1  0
 22 27  1  0
 23 24  1  0
 24 25  1  0
 25 26  1  0
 27 26  1  1
 27 28  1  0
 28 29  1  0
 29 30  1  0
 30 31  1  0
 31 32  1  1
 31 36  1  0
 32 33  1  0
 33 34  1  6
 33 35  1  0
 36 37  1  6
 36 38  1  0
 36 39  1  0
 39 40  2  0
M  CHG  1  31   1
M  END
