
     RDKit          3D

 40 42  0  0  0  0  0  0  0  0999 V2000
   -5.7440    3.1670   -1.0540 C   0  0  0  0  0  0  0  0  0  0  0  0
   -4.2140    2.9510   -1.1160 C   0  0  0  0  0  0  0  0  0  0  0  0
   -3.9470    1.5430   -0.7020 C   0  0  0  0  0  0  0  0  0  0  0  0
   -2.4930    1.1310   -0.7250 C   0  0  1  0  0  0  0  0  0  0  0  0
   -1.7530    1.9030    0.1250 O   0  0  0  0  0  0  0  0  0  0  0  0
   -1.5430    3.1980    0.4840 C   0  0  0  0  0  0  0  0  0  0  0  0
   -1.9300    3.6610    1.7560 C   0  0  0  0  0  0  0  0  0  0  0  0
   -1.7450    4.9540    2.1650 C   0  0  0  0  0  0  0  0  0  0  0  0
   -1.1590    5.8490    1.3110 C   0  0  0  0  0  0  0  0  0  0  0  0
   -0.7630    5.4400    0.0580 C   0  0  0  0  0  0  0  0  0  0  0  0
   -0.9520    4.1400   -0.3440 C   0  0  0  0  0  0  0  0  0  0  0  0
   -0.4590    3.8390   -1.6730 N   0  0  0  0  0  0  0  0  0  0  0  0
    0.4060    2.7640   -2.0160 C   0  0  0  0  0  0  0  0  0  0  0  0
    0.1300    2.2430   -3.1750 O   0  0  0  0  0  0  0  0  0  0  0  0
    1.4680    2.2120   -1.3110 N   0  0  0  0  0  0  0  0  0  0  0  0
    2.7290    2.7470   -0.9090 C   0  0  1  0  0  0  0  0  0  0  0  0
    2.3750    3.9440    0.0000 C   0  0  0  0  0  0  0  0  0  0  0  0
    3.6130    1.8350   -0.1590 C   0  0  0  0  0  0  0  0  0  0  0  0
    4.0410    2.2570    0.9910 O   0  0  0  0  0  0  0  0  0  0  0  0
    4.0650    0.5550   -0.5220 N   0  0  0  0  0  0  0  0  0  0  0  0
    3.2330   -0.4970   -1.0100 C   0  0  0  0  0  0  0  0  0  0  0  0
    3.9600   -1.8150   -1.1920 C   0  0  1  0  0  0  0  0  0  0  0  0
    5.3250   -1.6730   -0.9580 O   0  0  0  0  0  0  0  0  0  0  0  0
    5.7960   -2.2740    0.1730 C   0  0  0  0  0  0  0  0  0  0  0  0
    4.9360   -2.0340    1.3780 C   0  0  0  0  0  0  0  0  0  0  0  0
    3.4810   -2.4700    1.1710 C   0  0  0  0  0  0  0  0  0  0  0  0
    3.3910   -2.8820   -0.2760 C   0  0  1  0  0  0  0  0  0  0  0  0
    2.1280   -3.5050   -0.7070 C   0  0  0  0  0  0  0  0  0  0  0  0
    0.9300   -3.2810    0.2220 C   0  0  0  0  0  0  0  0  0  0  0  0
   -0.3480   -3.3340   -0.5240 C   0  0  0  0  0  0  0  0  0  0  0  0
   -1.4390   -2.5150   -0.0580 N   0  0  1  0  0  0  0  0  0  0  0  0
   -1.8430   -2.9310    1.2640 C   0  0  0  0  0  0  0  0  0  0  0  0
   -2.7310   -4.1520    1.1170 C   0  0  1  0  0  0  0  0  0  0  0  0
   -3.2440   -4.6110    2.4800 C   0  0  0  0  0  0  0  0  0  0  0  0
   -3.8650   -3.9110    0.3610 O   0  0  0  0  0  0  0  0  0  0  0  0
   -1.1960   -1.0950   -0.1730 C   0  0  2  0  0  0  0  0  0  0  0  0
   -0.4750   -0.9160   -1.4930 C   0  0  0  0  0  0  0  0  0  0  0  0
   -0.5170   -0.5210    1.0210 C   0  0  0  0  0  0  0  0  0  0  0  0
   -2.4670   -0.3370   -0.3400 C   0  0  0  0  0  0  0  0  0  0  0  0
   -3.5340   -0.8910   -0.1670 O   0  0  0  0  0  0  0  0  0  0  0  0
  1  2  1  0
  2  3  1  0
  4  3  1  1
  4  5  1  0
  4 39  1  0
  5  6  1  0
  6  7  2  0
  6 11  1  0
  7  8  1  0
  8  9  2  0
  9 10  1  0
 10 11  2  0
 11 12  1  0
 12 13  1  0
 13 14  2  0
 13 15  1  0
 15 16  1  0
 16 17  1  1
 16 18  1  0
 18 19  2  0
 18 20  1  0
 20 21  1  0
 22 21  1  1
 22 23  1  0
 22 27  1  0
 23 24  1  0
 24 25  1  0
 25 26  1  0
 27 26  1  1
 27 28  1  0
 28 29  1  0
 29 30  1  0
 30 31  1  0
 31 32  1  1
 31 36  1  0
 32 33  1  0
 33 34  1  1
 33 35  1  0
 36 37  1  6
 36 38  1  0
 36 39  1  0
 39 40  2  0
M  CHG  1  31   1
M  END
