
     RDKit          3D

 40 43  0  0  0  0  0  0  0  0999 V2000
   -0.3100   -0.5950    1.2570 C   0  0  0  0  0  0  0  0  0  0  0  0
    0.2770    0.0640    0.0320 C   0  0  0  0  0  0  0  0  0  0  0  0
    1.5190    0.4960   -0.0240 N   0  0  0  0  0  0  0  0  0  0  0  0
    2.1310    0.9660   -0.8740 C   0  0  0  0  0  0  0  0  0  0  0  0
    3.5160    1.5150   -1.2320 C   0  0  2  0  0  0  0  0  0  0  0  0
    4.3790    0.3070   -1.4920 C   0  0  0  0  0  0  0  0  0  0  0  0
    5.7260    0.5440   -1.0140 N   0  0  0  0  0  0  0  0  0  0  0  0
    6.5330   -0.5300   -0.5850 C   0  0  0  0  0  0  0  0  0  0  0  0
    7.6890   -0.2670   -0.1690 O   0  0  0  0  0  0  0  0  0  0  0  0
    6.1460   -1.8870   -0.5920 N   0  0  0  0  0  0  0  0  0  0  0  0
    7.0370   -2.9050   -0.1250 C   0  0  0  0  0  0  0  0  0  0  0  0
    8.3010   -2.7010    0.3620 N   0  0  0  0  0  0  0  0  0  0  0  0
    8.8070   -3.8940    0.6760 C   0  0  0  0  0  0  0  0  0  0  0  0
    9.9460   -4.1440    1.1570 O   0  0  0  0  0  0  0  0  0  0  0  0
    7.8740   -4.8180    0.3880 N   0  0  0  0  0  0  0  0  0  0  0  0
    6.8230   -4.2190   -0.0900 N   0  0  0  0  0  0  0  0  0  0  0  0
    6.1640    1.9260   -1.0010 C   0  0  0  0  0  0  0  0  0  0  0  0
    5.1970    2.6920   -0.1280 C   0  0  0  0  0  0  0  0  0  0  0  0
    3.9340    2.1740   -0.0830 O   0  0  0  0  0  0  0  0  0  0  0  0
    0.8340    0.9570   -2.2320 S   0  0  0  0  0  0  0  0  0  0  0  0
   -0.4350    0.1950   -1.1360 C   0  0  0  0  0  0  0  0  0  0  0  0
   -1.7840   -0.0770   -1.5720 C   0  0  0  0  0  0  0  0  0  0  0  0
   -2.8470    0.9110   -1.3830 C   0  0  0  0  0  0  0  0  0  0  0  0
   -3.2860    1.3310   -0.0530 C   0  0  2  0  0  0  0  0  0  0  0  0
   -3.8800    0.4540    0.9010 C   0  0  0  0  0  0  0  0  0  0  0  0
   -4.1630    0.9920    2.0780 O   0  0  0  0  0  0  0  0  0  0  0  0
   -4.2520   -0.8330    0.9270 N   0  0  0  0  0  0  0  0  0  0  0  0
   -4.8080   -1.5760    2.0180 C   0  0  0  0  0  0  0  0  0  0  0  0
   -5.2520   -2.7140    1.4610 N   0  0  0  0  0  0  0  0  0  0  0  0
   -5.9650   -3.6530    2.7520 S   0  0  0  0  0  0  0  0  0  0  0  0
   -4.8610   -4.3360    3.5660 O   0  0  0  0  0  0  0  0  0  0  0  0
   -6.3550   -2.1390    3.7040 N   0  0  0  0  0  0  0  0  0  0  0  0
   -4.9340   -1.6930    3.4240 C   0  0  2  0  0  0  0  0  0  0  0  0
   -4.5110   -0.4450    4.5310 Cl  0  0  0  0  0  0  0  0  0  0  0  0
   -4.2820    2.5280   -0.1500 C   0  0  1  0  0  0  0  0  0  0  0  0
   -3.5430    3.6510   -0.7890 C   0  0  0  0  0  0  0  0  0  0  0  0
   -5.4770    2.1260   -0.8700 N   0  0  0  0  0  0  0  0  0  0  0  0
   -6.7390    2.0400   -0.2950 C   0  0  0  0  0  0  0  0  0  0  0  0
   -7.9330    1.6500   -0.9450 N   0  0  0  0  0  0  0  0  0  0  0  0
   -6.8620    2.3410    0.9440 O   0  0  0  0  0  0  0  0  0  0  0  0
  1  2  1  0
  2  3  1  0
  2 21  2  0
  3  4  2  0
  5  4  1  1
  4 20  1  0
  5  6  1  0
  5 19  1  0
  6  7  1  0
  7  8  1  0
  7 17  1  0
  8  9  2  0
  8 10  1  0
 10 11  1  0
 11 12  2  0
 11 16  1  0
 12 13  1  0
 13 14  2  0
 13 15  1  0
 15 16  1  0
 17 18  1  0
 18 19  1  0
 20 21  1  0
 21 22  1  0
 22 23  1  0
 24 23  1  6
 24 25  1  0
 24 35  1  0
 25 26  2  0
 25 27  1  0
 27 28  1  0
 28 29  2  0
 28 33  1  0
 29 30  1  0
 30 31  2  0
 30 32  1  1
 32 33  1  0
 33 34  1  1
 35 36  1  6
 35 37  1  0
 37 38  1  0
 38 39  1  0
 38 40  2  0
M  END
