
     RDKit          3D

 40 44  0  0  0  0  0  0  0  0999 V2000
    5.2290    1.1270   -1.2230 C   0  0  0  0  0  0  0  0  0  0  0  0
    4.0870    0.2610   -1.6300 C   0  0  2  0  0  0  0  0  0  0  0  0
    3.4380    0.9250   -2.8350 C   0  0  0  0  0  0  0  0  0  0  0  0
    3.1420   -0.1680   -0.5690 C   0  0  0  0  0  0  0  0  0  0  0  0
    2.4640    0.8210    0.1230 N   0  0  0  0  0  0  0  0  0  0  0  0
    1.2660    1.3630   -0.4680 C   0  0  0  0  0  0  0  0  0  0  0  0
    0.0130    0.7990    0.0770 C   0  0  1  0  0  0  0  0  0  0  0  0
   -0.2100    1.0440    1.4180 O   0  0  0  0  0  0  0  0  0  0  0  0
   -1.2470    0.9760   -0.6940 C   0  0  2  0  0  0  0  0  0  0  0  0
   -1.9310    2.2840   -0.6670 C   0  0  0  0  0  0  0  0  0  0  0  0
   -1.2090    3.4410   -1.1490 C   0  0  0  0  0  0  0  0  0  0  0  0
   -1.1560    3.6630   -2.5190 C   0  0  0  0  0  0  0  0  0  0  0  0
   -0.5340    4.7640   -3.0460 C   0  0  0  0  0  0  0  0  0  0  0  0
    0.0620    5.6930   -2.2330 C   0  0  0  0  0  0  0  0  0  0  0  0
    0.0310    5.5070   -0.8480 C   0  0  0  0  0  0  0  0  0  0  0  0
   -0.6070    4.3840   -0.3590 C   0  0  0  0  0  0  0  0  0  0  0  0
   -2.2330   -0.0350   -0.2230 N   0  0  0  0  0  0  0  0  0  0  0  0
   -2.6360   -1.0550   -1.1160 C   0  0  0  0  0  0  0  0  0  0  0  0
   -2.1810   -1.1070   -2.2810 O   0  0  0  0  0  0  0  0  0  0  0  0
   -3.5510   -2.0180   -0.7020 O   0  0  0  0  0  0  0  0  0  0  0  0
   -3.9620   -3.0570   -1.6060 C   0  0  1  0  0  0  0  0  0  0  0  0
   -3.5600   -4.3860   -1.0550 C   0  0  0  0  0  0  0  0  0  0  0  0
   -4.6700   -5.1710   -0.9840 O   0  0  0  0  0  0  0  0  0  0  0  0
   -5.8110   -4.4220   -1.0910 C   0  0  1  0  0  0  0  0  0  0  0  0
   -6.4420   -4.1690    0.1100 O   0  0  0  0  0  0  0  0  0  0  0  0
   -7.0000   -2.9020    0.0270 C   0  0  0  0  0  0  0  0  0  0  0  0
   -6.0800   -2.0790   -0.8400 C   0  0  0  0  0  0  0  0  0  0  0  0
   -5.4560   -3.1270   -1.7260 C   0  0  1  0  0  0  0  0  0  0  0  0
    2.9890    1.4480    1.5620 S   0  0  2  0  0  0  0  0  0  0  0  0
    1.9870    2.5250    2.0180 O   0  0  0  0  0  0  0  0  0  0  0  0
    4.2880    2.1640    1.4510 O   0  0  0  0  0  0  0  0  0  0  0  0
    3.1180    0.2670    2.8660 C   0  0  0  0  0  0  0  0  0  0  0  0
    2.0940    0.0130    3.7390 C   0  0  0  0  0  0  0  0  0  0  0  0
    2.2220   -0.9420    4.7530 C   0  0  0  0  0  0  0  0  0  0  0  0
    3.3930   -1.6630    4.9030 C   0  0  0  0  0  0  0  0  0  0  0  0
    4.4180   -1.4090    4.0310 C   0  0  0  0  0  0  0  0  0  0  0  0
    4.2720   -0.4640    3.0390 C   0  0  0  0  0  0  0  0  0  0  0  0
    5.4690   -2.2630    4.4000 O   0  0  0  0  0  0  0  0  0  0  0  0
    4.9110   -3.2910    5.2270 C   0  0  0  0  0  0  0  0  0  0  0  0
    3.7680   -2.6660    5.8270 O   0  0  0  0  0  0  0  0  0  0  0  0
  2  1  1  1
  2  3  1  0
  2  4  1  0
  4  5  1  0
  5  6  1  0
 29  5  1  6
  6  7  1  0
  7  8  1  1
  7  9  1  0
  9 10  1  1
  9 17  1  0
 10 11  1  0
 11 12  2  0
 11 16  1  0
 12 13  1  0
 13 14  2  0
 14 15  1  0
 15 16  2  0
 17 18  1  0
 18 19  2  0
 18 20  1  0
 21 20  1  1
 21 22  1  0
 21 28  1  0
 22 23  1  0
 24 23  1  1
 24 25  1  0
 24 28  1  0
 25 26  1  0
 26 27  1  0
 28 27  1  1
 29 30  2  0
 29 31  2  0
 29 32  1  0
 32 33  2  0
 32 37  1  0
 33 34  1  0
 34 35  2  0
 35 36  1  0
 35 40  1  0
 36 37  2  0
 36 38  1  0
 38 39  1  0
 39 40  1  0
M  END
