
     RDKit          3D

 40 43  0  0  0  0  0  0  0  0999 V2000
   -3.9060   -0.7930    4.1890 C   0  0  0  0  0  0  0  0  0  0  0  0
   -4.2130    0.4830    3.4270 C   0  0  1  0  0  0  0  0  0  0  0  0
   -3.0380    1.2320    3.1830 O   0  0  0  0  0  0  0  0  0  0  0  0
   -2.6980    1.6100    1.8930 C   0  0  0  0  0  0  0  0  0  0  0  0
   -2.2880    2.7690    1.6200 O   0  0  0  0  0  0  0  0  0  0  0  0
   -2.8480    0.5470    0.8390 C   0  0  2  0  0  0  0  0  0  0  0  0
   -1.6680   -0.4080    1.1310 C   0  0  0  0  0  0  0  0  0  0  0  0
   -0.3570    0.2760    1.0300 C   0  0  0  0  0  0  0  0  0  0  0  0
    0.8190   -0.6030    1.3890 C   0  0  2  0  0  0  0  0  0  0  0  0
    2.0520    0.2380    1.2350 C   0  0  0  0  0  0  0  0  0  0  0  0
    2.1410    1.3220    1.9030 O   0  0  0  0  0  0  0  0  0  0  0  0
    3.0760   -0.1660    0.3740 N   0  0  0  0  0  0  0  0  0  0  0  0
    3.1010   -1.3000   -0.2350 C   0  0  0  0  0  0  0  0  0  0  0  0
    4.1760   -1.6490   -1.0920 N   0  0  0  0  0  0  0  0  0  0  0  0
    5.3920   -0.9110   -0.9850 C   0  0  0  0  0  0  0  0  0  0  0  0
    5.8230    0.0310   -0.3010 N   0  0  0  0  0  0  0  0  0  0  0  0
    7.0240    0.4810   -0.4560 N   0  0  0  0  0  0  0  0  0  0  0  0
    7.8370    0.1050   -1.2050 C   0  0  0  0  0  0  0  0  0  0  0  0
    9.2290    0.3110   -1.6790 C   0  0  0  0  0  0  0  0  0  0  0  0
    9.8960   -0.3470   -2.6250 N   0  0  0  0  0  0  0  0  0  0  0  0
   11.1330    0.1610   -2.7390 N   0  0  0  0  0  0  0  0  0  0  0  0
   11.2480    1.1540   -1.8530 C   0  0  0  0  0  0  0  0  0  0  0  0
   12.2420    1.8750   -1.6490 O   0  0  0  0  0  0  0  0  0  0  0  0
   10.0760    1.2380   -1.2090 N   0  0  0  0  0  0  0  0  0  0  0  0
    6.8520   -1.2850   -2.0430 S   0  0  0  0  0  0  0  0  0  0  0  0
    1.9800   -2.1330   -0.0330 N   0  0  0  0  0  0  0  0  0  0  0  0
    0.9580   -1.8540    0.6840 C   0  0  0  0  0  0  0  0  0  0  0  0
   -0.3010   -3.1220    0.8550 Cl  0  0  0  0  0  0  0  0  0  0  0  0
   -2.6960    1.0960   -0.5270 C   0  0  0  0  0  0  0  0  0  0  0  0
   -2.8680    0.0310   -1.5410 C   0  0  0  0  0  0  0  0  0  0  0  0
   -3.1990   -1.1270   -1.2010 O   0  0  0  0  0  0  0  0  0  0  0  0
   -2.6640    0.2840   -2.9270 N   0  0  0  0  0  0  0  0  0  0  0  0
   -2.8360   -0.7400   -3.8360 N   0  0  0  0  0  0  0  0  0  0  0  0
   -4.0940   -0.6590   -4.5460 C   0  0  0  0  0  0  0  0  0  0  0  0
   -2.6840   -2.3480   -3.1560 S   0  0  0  0  0  0  0  0  0  0  0  0
   -4.1330   -0.1810    0.9880 C   0  0  0  0  0  0  0  0  0  0  0  0
   -4.9630    0.1430    2.1820 C   0  0  2  0  0  0  0  0  0  0  0  0
   -6.0580    1.1250    1.8830 C   0  0  0  0  0  0  0  0  0  0  0  0
   -5.8200    2.5130    1.6840 N   0  0  0  0  0  0  0  0  0  0  0  0
   -7.2830    0.7760    1.7870 O   0  0  0  0  0  0  0  0  0  0  0  0
  2  1  1  6
  2  3  1  0
  2 37  1  0
  3  4  1  0
  4  5  2  0
  4  6  1  0
  6  7  1  1
  6 29  1  0
  6 36  1  0
  7  8  1  0
  9  8  1  6
  9 10  1  0
  9 27  1  0
 10 11  2  0
 10 12  1  0
 12 13  2  0
 13 14  1  0
 13 26  1  0
 14 15  1  0
 15 16  2  0
 15 25  1  0
 16 17  1  0
 17 18  2  0
 18 19  1  0
 18 25  1  0
 19 20  2  0
 19 24  1  0
 20 21  1  0
 21 22  1  0
 22 23  2  0
 22 24  1  0
 26 27  2  0
 27 28  1  0
 29 30  1  0
 30 31  2  0
 30 32  1  0
 32 33  1  0
 33 34  1  0
 33 35  1  0
 36 37  1  0
 37 38  1  6
 38 39  1  0
 38 40  2  0
M  END
