
     RDKit          3D

 40 43  0  0  0  0  0  0  0  0999 V2000
   -3.3080    3.3880   -1.6320 C   0  0  0  0  0  0  0  0  0  0  0  0
   -2.8340    2.1040   -1.2340 O   0  0  0  0  0  0  0  0  0  0  0  0
   -3.2330    1.6170    0.0670 C   0  0  0  0  0  0  0  0  0  0  0  0
   -4.5460    1.4330    0.2180 C   0  0  0  0  0  0  0  0  0  0  0  0
   -5.3840    0.9800    1.2800 C   0  0  0  0  0  0  0  0  0  0  0  0
   -6.1510   -0.0700    1.4820 C   0  0  0  0  0  0  0  0  0  0  0  0
   -6.5130   -1.2470    0.7320 C   0  0  0  0  0  0  0  0  0  0  0  0
   -5.9000   -2.3260    0.3410 C   0  0  0  0  0  0  0  0  0  0  0  0
   -4.4930   -2.7980    0.5300 C   0  0  0  0  0  0  0  0  0  0  0  0
   -3.7520   -2.8500   -0.5710 C   0  0  0  0  0  0  0  0  0  0  0  0
   -4.0990   -3.7960   -1.7130 C   0  0  0  0  0  0  0  0  0  0  0  0
   -3.1750   -4.0750   -2.5080 O   0  0  0  0  0  0  0  0  0  0  0  0
   -5.3480   -4.4390   -2.0360 N   0  0  0  0  0  0  0  0  0  0  0  0
   -6.6040   -4.0880   -1.5430 N   0  0  0  0  0  0  0  0  0  0  0  0
   -6.8710   -3.1460   -0.4810 C   0  0  0  0  0  0  0  0  0  0  0  0
   -8.0880   -3.0080   -0.2270 O   0  0  0  0  0  0  0  0  0  0  0  0
   -2.5940   -2.1210   -1.0180 C   0  0  0  0  0  0  0  0  0  0  0  0
   -2.3950   -1.9580   -2.2860 O   0  0  0  0  0  0  0  0  0  0  0  0
   -1.5300   -1.4870   -0.2520 N   0  0  0  0  0  0  0  0  0  0  0  0
   -0.1970   -1.3740   -0.8130 C   0  0  1  0  0  0  0  0  0  0  0  0
    0.3320   -0.0520   -1.1150 C   0  0  0  0  0  0  0  0  0  0  0  0
    1.5220    0.4840   -0.3990 C   0  0  0  0  0  0  0  0  0  0  0  0
    2.4840   -0.5200    0.1150 C   0  0  2  0  0  0  0  0  0  0  0  0
    3.9130   -0.1480   -0.1630 C   0  0  0  0  0  0  0  0  0  0  0  0
    4.6390   -0.9030   -0.8550 O   0  0  0  0  0  0  0  0  0  0  0  0
    4.4880    1.0790    0.3520 C   0  0  0  0  0  0  0  0  0  0  0  0
    5.7260    1.4180    0.1240 C   0  0  0  0  0  0  0  0  0  0  0  0
    6.2640    2.7000    0.6840 C   0  0  0  0  0  0  0  0  0  0  0  0
    6.8150    3.4810   -0.4970 C   0  0  0  0  0  0  0  0  0  0  0  0
    7.8220    2.7110   -1.2830 C   0  0  0  0  0  0  0  0  0  0  0  0
    8.0180    1.3260   -0.7080 C   0  0  0  0  0  0  0  0  0  0  0  0
    6.6760    0.6120   -0.6700 C   0  0  0  0  0  0  0  0  0  0  0  0
    2.2280   -1.8740   -0.4550 C   0  0  0  0  0  0  0  0  0  0  0  0
    0.7930   -2.2600   -0.1090 C   0  0  0  0  0  0  0  0  0  0  0  0
   -1.8060   -1.0320    1.0790 C   0  0  0  0  0  0  0  0  0  0  0  0
   -1.5100    0.3610    1.4180 C   0  0  0  0  0  0  0  0  0  0  0  0
   -0.4390    0.5400    2.4360 C   0  0  0  0  0  0  0  0  0  0  0  0
   -0.0520    1.8050    2.9320 N   0  0  0  0  0  0  0  0  0  0  0  0
    0.1510   -0.4550    2.8800 O   0  0  0  0  0  0  0  0  0  0  0  0
   -2.1290    1.4310    0.9690 C   0  0  0  0  0  0  0  0  0  0  0  0
  1  2  1  0
  2  3  1  0
  3  4  2  0
  3 40  1  0
  4  5  1  0
  5  6  2  0
  6  7  1  0
  7  8  2  0
  8  9  1  0
  8 15  1  0
  9 10  2  0
 10 11  1  0
 10 17  1  0
 11 12  2  0
 11 13  1  0
 13 14  1  0
 14 15  1  0
 15 16  2  0
 17 18  2  0
 17 19  1  0
 20 19  1  1
 19 35  1  0
 20 21  1  0
 20 34  1  0
 21 22  1  0
 22 23  1  0
 23 24  1  6
 23 33  1  0
 24 25  2  0
 24 26  1  0
 26 27  2  3
 27 28  1  0
 27 32  1  0
 28 29  1  0
 29 30  1  0
 30 31  1  0
 31 32  1  0
 33 34  1  0
 35 36  1  0
 36 37  1  0
 36 40  2  0
 37 38  1  0
 37 39  2  0
M  END
