
     RDKit          3D

 39 43  0  0  0  0  0  0  0  0999 V2000
   -9.1850   -3.8480    1.3200 N   0  0  0  0  0  0  0  0  0  0  0  0
   -7.7820   -2.8520    1.6770 S   0  0  0  0  0  0  0  0  0  0  0  0
   -7.7650   -1.3710    0.6770 C   0  0  0  0  0  0  0  0  0  0  0  0
   -6.7990   -0.4420    0.7560 N   0  0  0  0  0  0  0  0  0  0  0  0
   -7.1200    0.5120   -0.1340 C   0  0  0  0  0  0  0  0  0  0  0  0
   -6.4120    1.7750   -0.4720 C   0  0  2  0  0  0  0  0  0  0  0  0
   -5.0420    1.5050   -0.5740 N   0  0  0  0  0  0  0  0  0  0  0  0
   -4.1920    2.3750   -0.2430 C   0  0  0  0  0  0  0  0  0  0  0  0
   -2.7810    2.3130   -0.2670 N   0  0  0  0  0  0  0  0  0  0  0  0
   -2.0930    1.2110   -0.8450 C   0  0  0  0  0  0  0  0  0  0  0  0
   -0.7230    1.1480   -0.8700 C   0  0  0  0  0  0  0  0  0  0  0  0
   -0.0130    0.0990   -1.4200 C   0  0  0  0  0  0  0  0  0  0  0  0
    1.4490    0.0860   -1.4190 C   0  0  0  0  0  0  0  0  0  0  0  0
    2.0470    1.0720   -0.8870 O   0  0  0  0  0  0  0  0  0  0  0  0
    2.2470   -0.9270   -1.9570 N   0  0  0  0  0  0  0  0  0  0  0  0
    3.6960   -0.9190   -1.9440 C   0  0  0  0  0  0  0  0  0  0  0  0
    4.2560   -0.8740   -0.5960 C   0  0  0  0  0  0  0  0  0  0  0  0
    3.5100   -0.8480    0.4100 O   0  0  0  0  0  0  0  0  0  0  0  0
    5.6500   -0.8590   -0.3790 N   0  0  0  0  0  0  0  0  0  0  0  0
    6.1810   -0.8150    0.9650 C   0  0  1  0  0  0  0  0  0  0  0  0
    6.9990   -2.0370    1.2970 C   0  0  0  0  0  0  0  0  0  0  0  0
    8.4220   -1.8310    1.3310 N   0  0  0  0  0  0  0  0  0  0  0  0
    9.1010   -0.6930    0.8180 C   0  0  0  0  0  0  0  0  0  0  0  0
   10.3250   -0.6040    0.6020 O   0  0  0  0  0  0  0  0  0  0  0  0
    8.2500    0.4600    0.5300 C   0  0  0  0  0  0  0  0  0  0  0  0
    8.2950    1.5540   -0.1960 C   0  0  0  0  0  0  0  0  0  0  0  0
    7.0730    2.2790   -0.0180 N   0  0  0  0  0  0  0  0  0  0  0  0
    6.3120    1.6410    0.7960 N   0  0  0  0  0  0  0  0  0  0  0  0
    6.9400    0.4590    1.2310 C   0  0  1  0  0  0  0  0  0  0  0  0
   -0.7540   -0.9250   -1.9650 C   0  0  0  0  0  0  0  0  0  0  0  0
   -2.1510   -0.8800   -1.9490 C   0  0  0  0  0  0  0  0  0  0  0  0
   -2.7760    0.1730   -1.3960 N   0  0  0  0  0  0  0  0  0  0  0  0
   -5.1210    3.7950    0.3180 S   0  0  0  0  0  0  0  0  0  0  0  0
   -6.7030    2.8640    0.5350 C   0  0  2  0  0  0  0  0  0  0  0  0
   -6.7560    2.3990    1.9210 C   0  0  0  0  0  0  0  0  0  0  0  0
   -5.9420    2.8420    2.8020 O   0  0  0  0  0  0  0  0  0  0  0  0
   -7.6650    1.4600    2.4070 O   0  0  0  0  0  0  0  0  0  0  0  0
   -8.2670    0.1030   -0.7030 N   0  0  0  0  0  0  0  0  0  0  0  0
   -8.6620   -1.0330   -0.2190 O   0  0  0  0  0  0  0  0  0  0  0  0
  1  2  1  0
  2  3  1  0
  3  4  2  0
  3 39  1  0
  4  5  1  0
  6  5  1  1
  5 38  2  0
  6  7  1  0
  6 34  1  0
  7  8  2  0
  8  9  1  0
  8 33  1  0
  9 10  1  0
 10 11  2  0
 10 32  1  0
 11 12  1  0
 12 13  1  0
 12 30  2  0
 13 14  2  0
 13 15  1  0
 15 16  1  0
 16 17  1  0
 17 18  2  0
 17 19  1  0
 20 19  1  6
 20 21  1  0
 20 29  1  0
 21 22  1  0
 22 23  1  0
 23 24  2  0
 23 25  1  0
 25 26  2  0
 25 29  1  0
 26 27  1  0
 27 28  2  0
 29 28  1  6
 30 31  1  0
 31 32  2  0
 33 34  1  0
 34 35  1  1
 35 36  2  0
 35 37  1  0
 38 39  1  0
M  END
