
     RDKit          3D

 40 43  0  0  0  0  0  0  0  0999 V2000
   -1.9290    2.0840   -0.3030 C   0  0  0  0  0  0  0  0  0  0  0  0
   -1.5250    0.6400   -0.0720 C   0  0  2  0  0  0  0  0  0  0  0  0
   -0.1030    0.4340   -0.5680 C   0  0  0  0  0  0  0  0  0  0  0  0
    0.9130    1.2720    0.1280 C   0  0  1  0  0  0  0  0  0  0  0  0
    1.0270    0.9920    1.6010 C   0  0  0  0  0  0  0  0  0  0  0  0
    2.2260    1.1330   -0.4840 N   0  0  0  0  0  0  0  0  0  0  0  0
    2.3400    0.7760   -1.7740 N   0  0  0  0  0  0  0  0  0  0  0  0
    3.6140    0.7280   -2.0580 N   0  0  0  0  0  0  0  0  0  0  0  0
    4.3180    1.0500   -0.9740 N   0  0  0  0  0  0  0  0  0  0  0  0
    3.4430    1.3070    0.0250 C   0  0  0  0  0  0  0  0  0  0  0  0
    3.8330    1.6850    1.3270 N   0  0  0  0  0  0  0  0  0  0  0  0
    4.8330    0.9380    2.0000 N   0  0  0  0  0  0  0  0  0  0  0  0
    5.9110    0.3560    1.3010 C   0  0  0  0  0  0  0  0  0  0  0  0
    6.8740    1.1260    0.7690 N   0  0  0  0  0  0  0  0  0  0  0  0
    7.9320    0.6290    0.1120 C   0  0  0  0  0  0  0  0  0  0  0  0
    8.0910   -0.7430   -0.0560 C   0  0  0  0  0  0  0  0  0  0  0  0
    9.2470   -1.2790   -0.7650 C   0  0  0  0  0  0  0  0  0  0  0  0
    9.8380   -2.4510   -0.2490 N   0  0  0  0  0  0  0  0  0  0  0  0
    9.6930   -0.7200   -1.7840 O   0  0  0  0  0  0  0  0  0  0  0  0
    7.1190   -1.5610    0.4760 C   0  0  0  0  0  0  0  0  0  0  0  0
    6.0520   -1.0010    1.1420 C   0  0  0  0  0  0  0  0  0  0  0  0
    4.8330   -2.0840    1.7860 Cl  0  0  0  0  0  0  0  0  0  0  0  0
   -2.4330   -0.3210   -0.7670 C   0  0  0  0  0  0  0  0  0  0  0  0
   -1.8380   -0.9660   -1.7110 O   0  0  0  0  0  0  0  0  0  0  0  0
   -3.7770   -0.5680   -0.5120 N   0  0  0  0  0  0  0  0  0  0  0  0
   -4.4560   -1.5420   -1.3490 C   0  0  0  0  0  0  0  0  0  0  0  0
   -4.0500   -2.6980   -1.6020 N   0  0  0  0  0  0  0  0  0  0  0  0
   -2.9650   -3.4540   -1.2580 N   0  0  0  0  0  0  0  0  0  0  0  0
   -3.0560   -4.2380   -0.0290 C   0  0  0  0  0  0  0  0  0  0  0  0
   -4.1290   -4.1450    0.6080 O   0  0  0  0  0  0  0  0  0  0  0  0
   -2.0490   -5.0340    0.4320 O   0  0  0  0  0  0  0  0  0  0  0  0
   -6.0700   -0.9730   -1.9830 S   0  0  0  0  0  0  0  0  0  0  0  0
   -6.6680    0.2440   -0.8380 C   0  0  2  0  0  0  0  0  0  0  0  0
   -7.3390    1.4390   -1.5560 C   0  0  0  0  0  0  0  0  0  0  0  0
   -7.6350    2.4670   -0.0650 S   0  0  0  0  0  0  0  0  0  0  0  0
   -9.0400    2.1070    0.4230 O   0  0  0  0  0  0  0  0  0  0  0  0
   -6.3880    1.6640    1.0160 C   0  0  0  0  0  0  0  0  0  0  0  0
   -5.5800    0.9900   -0.0760 C   0  0  1  0  0  0  0  0  0  0  0  0
   -4.5340    0.1180    0.5170 C   0  0  2  0  0  0  0  0  0  0  0  0
   -3.6990    0.8300    1.3330 O   0  0  0  0  0  0  0  0  0  0  0  0
  2  1  1  6
  2  3  1  0
  2 23  1  0
  3  4  1  0
  4  5  1  1
  4  6  1  0
  6  7  1  0
  6 10  1  0
  7  8  2  0
  8  9  1  0
  9 10  2  0
 10 11  1  0
 11 12  1  0
 12 13  1  0
 13 14  2  0
 13 21  1  0
 14 15  1  0
 15 16  2  0
 16 17  1  0
 16 20  1  0
 17 18  1  0
 17 19  2  0
 20 21  2  0
 21 22  1  0
 23 24  2  0
 23 25  1  0
 25 26  1  0
 25 39  1  0
 26 27  2  3
 26 32  1  0
 27 28  1  0
 28 29  1  0
 29 30  2  0
 29 31  1  0
 32 33  1  0
 33 34  1  6
 33 38  1  0
 35 34  1  6
 35 36  2  0
 35 37  1  0
 38 37  1  1
 38 39  1  0
 39 40  1  6
M  END
