
     RDKit          3D

 10 10  0  0  0  0  0  0  0  0999 V2000
   -2.5960    0.3480    0.2690 C   0  0  0  0  0  0  0  0  0  0  0  0
   -1.1600    0.6240   -0.0530 C   0  0  0  0  0  0  0  0  0  0  0  0
   -0.6480    1.7750   -0.5300 N   0  0  0  0  0  0  0  0  0  0  0  0
    0.6810    1.6590   -0.6990 C   0  0  0  0  0  0  0  0  0  0  0  0
    1.0870    0.3950   -0.3270 C   0  0  0  0  0  0  0  0  0  0  0  0
    2.4350   -0.1580   -0.3500 C   0  0  0  0  0  0  0  0  0  0  0  0
    3.3700    0.5770   -0.7500 O   0  0  0  0  0  0  0  0  0  0  0  0
    2.7450   -1.4430    0.0440 O   0  0  0  0  0  0  0  0  0  0  0  0
   -0.0880   -0.2350    0.0740 C   0  0  0  0  0  0  0  0  0  0  0  0
   -0.1670   -1.6300    0.5680 C   0  0  0  0  0  0  0  0  0  0  0  0
  1  2  1  0
  2  3  1  0
  2  9  2  0
  3  4  1  0
  4  5  2  0
  5  6  1  0
  5  9  1  0
  6  7  2  0
  6  8  1  0
  9 10  1  0
M  END
