
     RDKit          3D

 10 10  0  0  0  0  0  0  0  0999 V2000
   -1.9380    0.3880   -0.8500 C   0  0  0  0  0  0  0  0  0  0  0  0
   -0.9600   -0.0880    0.2150 C   0  0  1  0  0  0  0  0  0  0  0  0
   -1.7890   -0.6950    1.3290 C   0  0  0  0  0  0  0  0  0  0  0  0
   -0.1370   -1.2740   -0.4080 C   0  0  0  0  0  0  0  0  0  0  0  0
    1.1650   -0.7780   -0.4980 C   0  0  0  0  0  0  0  0  0  0  0  0
    2.4180   -0.1120   -0.5170 C   0  0  0  0  0  0  0  0  0  0  0  0
    2.1180    1.2350    0.0670 N   0  0  0  0  0  0  0  0  0  0  0  0
    0.9000    1.7130    0.6350 C   0  0  0  0  0  0  0  0  0  0  0  0
    0.8930    2.8890    1.1020 O   0  0  0  0  0  0  0  0  0  0  0  0
   -0.2460    0.9450    0.6890 O   0  0  0  0  0  0  0  0  0  0  0  0
  2  1  1  6
  2  3  1  0
  2  4  1  0
  2 10  1  0
  4  5  1  0
  5  6  1  0
  6  7  1  0
  7  8  1  0
  8  9  2  0
  8 10  1  0
M  END
