
     RDKit          3D

 10 10  0  0  0  0  0  0  0  0999 V2000
   -3.2820    0.8990   -0.7630 C   0  0  0  0  0  0  0  0  0  0  0  0
   -2.5410   -0.1990   -0.0320 C   0  0  0  0  0  0  0  0  0  0  0  0
   -1.1620    0.0870   -0.1290 O   0  0  0  0  0  0  0  0  0  0  0  0
   -0.1810   -0.7110    0.4300 C   0  0  0  0  0  0  0  0  0  0  0  0
   -0.4920   -1.7470    1.0610 O   0  0  0  0  0  0  0  0  0  0  0  0
    1.2390   -0.3780    0.3060 C   0  0  0  0  0  0  0  0  0  0  0  0
    1.7870    0.7210   -0.3500 C   0  0  0  0  0  0  0  0  0  0  0  0
    3.1590    0.6700   -0.2360 C   0  0  0  0  0  0  0  0  0  0  0  0
    3.4470   -0.4650    0.4920 C   0  0  0  0  0  0  0  0  0  0  0  0
    2.2900   -1.0590    0.7960 N   0  0  0  0  0  0  0  0  0  0  0  0
  1  2  1  0
  2  3  1  0
  3  4  1  0
  4  5  2  0
  4  6  1  0
  6  7  2  0
  6 10  1  0
  7  8  1  0
  8  9  2  0
  9 10  1  0
M  END
