
     RDKit          3D

 10 10  0  0  0  0  0  0  0  0999 V2000
   -3.1290   -0.2300    0.0420 C   0  0  0  0  0  0  0  0  0  0  0  0
   -1.8960    0.3080    0.6620 C   0  0  0  0  0  0  0  0  0  0  0  0
   -2.0300    1.0200    1.6850 O   0  0  0  0  0  0  0  0  0  0  0  0
   -0.5930    0.0070    0.0870 C   0  0  0  0  0  0  0  0  0  0  0  0
   -0.3200   -0.7680   -1.0390 C   0  0  0  0  0  0  0  0  0  0  0  0
    1.0100   -0.7990   -1.2350 N   0  0  0  0  0  0  0  0  0  0  0  0
    1.6430   -0.0810   -0.2930 C   0  0  0  0  0  0  0  0  0  0  0  0
    3.1080    0.1610   -0.1190 C   0  0  0  0  0  0  0  0  0  0  0  0
    0.6370    0.4260    0.5390 C   0  0  0  0  0  0  0  0  0  0  0  0
    0.9070    1.2280    1.6420 O   0  0  0  0  0  0  0  0  0  0  0  0
  1  2  1  0
  2  3  2  0
  2  4  1  0
  4  5  2  0
  4  9  1  0
  5  6  1  0
  6  7  1  0
  7  8  1  0
  7  9  2  0
  9 10  1  0
M  END
