
     RDKit          3D

  9  9  0  0  0  0  0  0  0  0999 V2000
    2.5770    1.3390   -0.4420 N   0  0  0  0  0  0  0  0  0  0  0  0
    2.5050    0.2060    0.4480 C   0  0  0  0  0  0  0  0  0  0  0  0
    1.9110   -0.9810   -0.2800 C   0  0  0  0  0  0  0  0  0  0  0  0
    0.6520   -0.7740   -0.7580 O   0  0  0  0  0  0  0  0  0  0  0  0
   -0.3070   -0.4730    0.1660 C   0  0  1  0  0  0  0  0  0  0  0  0
   -0.8090    0.9400   -0.1620 C   0  0  0  0  0  0  0  0  0  0  0  0
   -2.2850    0.9230    0.0230 C   0  0  0  0  0  0  0  0  0  0  0  0
   -2.7230   -0.5100   -0.0810 C   0  0  0  0  0  0  0  0  0  0  0  0
   -1.5170   -1.3670    0.1100 C   0  0  0  0  0  0  0  0  0  0  0  0
  1  2  1  0
  2  3  1  0
  3  4  1  0
  5  4  1  6
  5  6  1  0
  5  9  1  0
  6  7  1  0
  7  8  1  0
  8  9  1  0
M  END
