
     RDKit          3D

 10 10  0  0  0  0  0  0  0  0999 V2000
    3.1860    1.1330    0.1070 C   0  0  0  0  0  0  0  0  0  0  0  0
    2.2200    0.1790    0.4530 O   0  0  0  0  0  0  0  0  0  0  0  0
    1.3720   -0.3590   -0.4620 C   0  0  0  0  0  0  0  0  0  0  0  0
    1.3980   -0.0510   -1.6580 O   0  0  0  0  0  0  0  0  0  0  0  0
    0.3720   -1.3520    0.0110 C   0  0  0  0  0  0  0  0  0  0  0  0
   -0.9610   -0.6540   -0.0610 C   0  0  0  0  0  0  0  0  0  0  0  0
   -2.1960   -1.2350    0.0380 C   0  0  0  0  0  0  0  0  0  0  0  0
   -3.1420   -0.2140   -0.0750 C   0  0  0  0  0  0  0  0  0  0  0  0
   -2.4440    0.9400   -0.2390 C   0  0  0  0  0  0  0  0  0  0  0  0
   -1.1540    0.6630   -0.2290 N   0  0  0  0  0  0  0  0  0  0  0  0
  1  2  1  0
  2  3  1  0
  3  4  2  0
  3  5  1  0
  5  6  1  0
  6  7  2  0
  6 10  1  0
  7  8  1  0
  8  9  2  0
  9 10  1  0
M  END
