
     RDKit          3D

 10 11  0  0  0  0  0  0  0  0999 V2000
    3.3280   -0.6710   -0.4790 O   0  0  0  0  0  0  0  0  0  0  0  0
    2.0130   -0.2470   -0.2730 C   0  0  0  0  0  0  0  0  0  0  0  0
    1.7200    1.0030    0.2310 C   0  0  0  0  0  0  0  0  0  0  0  0
    0.4160    1.3740    0.4160 C   0  0  0  0  0  0  0  0  0  0  0  0
   -0.6530    0.5550    0.1220 C   0  0  0  0  0  0  0  0  0  0  0  0
   -0.3690   -0.7050   -0.3870 C   0  0  0  0  0  0  0  0  0  0  0  0
    0.9450   -1.0800   -0.5730 C   0  0  0  0  0  0  0  0  0  0  0  0
   -1.5870   -1.3340   -0.6010 O   0  0  0  0  0  0  0  0  0  0  0  0
   -2.6290   -0.5820   -0.0130 C   0  0  0  0  0  0  0  0  0  0  0  0
   -2.0540    0.7260    0.2300 N   0  0  0  0  0  0  0  0  0  0  0  0
  1  2  1  0
  2  3  2  0
  2  7  1  0
  3  4  1  0
  4  5  2  0
  5  6  1  0
  5 10  1  0
  6  7  2  0
  6  8  1  0
  8  9  1  0
  9 10  1  0
M  END
