
     RDKit          3D

  8  8  0  0  0  0  0  0  0  0999 V2000
    3.0450   -0.8450   -0.0100 N   0  0  0  0  0  0  0  0  0  0  0  0
    2.2910    0.2560    0.5700 C   0  0  0  0  0  0  0  0  0  0  0  0
    1.1990    0.6090   -0.3530 C   0  0  0  0  0  0  0  0  0  0  0  0
   -0.0550    0.5460   -0.0050 C   0  0  0  0  0  0  0  0  0  0  0  0
   -0.6390    0.1400    1.2870 C   0  0  0  0  0  0  0  0  0  0  0  0
   -1.7390   -0.8190    0.7930 C   0  0  0  0  0  0  0  0  0  0  0  0
   -2.2910   -0.1170   -0.3980 C   0  0  0  0  0  0  0  0  0  0  0  0
   -1.2650    0.8880   -0.8560 C   0  0  0  0  0  0  0  0  0  0  0  0
  1  2  1  0
  2  3  1  0
  3  4  2  3
  4  5  1  0
  4  8  1  0
  5  6  1  0
  6  7  1  0
  7  8  1  0
M  END
