
     RDKit          3D

  8  7  0  0  0  0  0  0  0  0999 V2000
   -1.1150   -1.3290   -1.4770 C   0  0  0  0  0  0  0  0  0  0  0  0
   -0.8870   -0.1800   -0.5150 C   0  0  1  0  0  0  0  0  0  0  0  0
   -2.0550   -0.0700    0.4310 C   0  0  0  0  0  0  0  0  0  0  0  0
   -1.9250    0.9890    1.3760 N   0  0  0  0  0  0  0  0  0  0  0  0
    0.3620   -0.4060    0.1500 N   0  0  0  0  0  0  0  0  0  0  0  0
    1.4860    0.2030   -0.5160 C   0  0  0  0  0  0  0  0  0  0  0  0
    2.6770    0.2280    0.4450 C   0  0  0  0  0  0  0  0  0  0  0  0
    3.7810    0.8080   -0.1590 O   0  0  0  0  0  0  0  0  0  0  0  0
  2  1  1  6
  2  3  1  0
  2  5  1  0
  3  4  1  0
  5  6  1  0
  6  7  1  0
  7  8  1  0
M  CHG  2   4   1   5   1
M  END
