
     RDKit          3D

  9  8  0  0  0  0  0  0  0  0999 V2000
   -2.3510   -1.6580   -0.0590 N   0  0  0  0  0  0  0  0  0  0  0  0
   -2.0640   -0.3930    0.4940 C   0  0  0  0  0  0  0  0  0  0  0  0
   -0.7670    0.2130    0.2890 C   0  0  0  0  0  0  0  0  0  0  0  0
    0.2010   -0.3630   -0.4060 C   0  0  0  0  0  0  0  0  0  0  0  0
    1.4890    0.3020   -0.5740 C   0  0  0  0  0  0  0  0  0  0  0  0
    2.5060   -0.5040   -0.0300 O   0  0  0  0  0  0  0  0  0  0  0  0
    3.6670    0.1830   -0.2270 N   0  0  0  0  0  0  0  0  0  0  0  0
   -2.9750    0.2340    1.1920 C   0  0  0  0  0  0  0  0  0  0  0  0
   -2.7630    1.4860    1.7680 O   0  0  0  0  0  0  0  0  0  0  0  0
  1  2  1  0
  2  3  1  0
  2  8  2  3
  3  4  2  3
  4  5  1  0
  5  6  1  0
  6  7  1  0
  8  9  1  0
M  CHG  1   7   1
M  END
