
     RDKit          3D

  9  8  0  0  0  0  0  0  0  0999 V2000
    2.5680   -1.8360   -0.0720 N   0  0  0  0  0  0  0  0  0  0  0  0
    2.5220   -0.7140    0.7790 C   0  0  0  0  0  0  0  0  0  0  0  0
    1.5040    0.0790    0.6990 C   0  0  0  0  0  0  0  0  0  0  0  0
    1.4660    1.1790    1.5380 O   0  0  0  0  0  0  0  0  0  0  0  0
    0.4150   -0.1500   -0.2340 C   0  0  0  0  0  0  0  0  0  0  0  0
   -0.6310    0.6300   -0.3450 C   0  0  0  0  0  0  0  0  0  0  0  0
   -0.7390    1.7410    0.4560 O   0  0  0  0  0  0  0  0  0  0  0  0
   -1.6940    0.3330   -1.3130 C   0  0  0  0  0  0  0  0  0  0  0  0
   -2.9910    0.1370   -0.6530 N   0  0  0  0  0  0  0  0  0  0  0  0
  1  2  1  0
  2  3  2  3
  3  4  1  0
  3  5  1  0
  5  6  2  3
  6  7  1  0
  6  8  1  0
  8  9  1  0
M  CHG  1   9   1
M  END
