
     RDKit          3D

  9  8  0  0  0  0  0  0  0  0999 V2000
   -2.9320   -0.5500   -0.3210 N   0  0  0  0  0  0  0  0  0  0  0  0
   -2.4780    0.6370    0.3350 C   0  0  0  0  0  0  0  0  0  0  0  0
   -1.1860    0.8180    0.4430 C   0  0  0  0  0  0  0  0  0  0  0  0
   -0.7440    1.9650    1.0770 O   0  0  0  0  0  0  0  0  0  0  0  0
   -0.2910   -0.1840   -0.1030 C   0  0  0  0  0  0  0  0  0  0  0  0
    1.0330   -0.0720   -0.0320 C   0  0  0  0  0  0  0  0  0  0  0  0
    1.6160    1.0420    0.5840 O   0  0  0  0  0  0  0  0  0  0  0  0
    1.8960   -1.0980   -0.5910 C   0  0  0  0  0  0  0  0  0  0  0  0
    3.1750   -0.9910   -0.5240 N   0  0  0  0  0  0  0  0  0  0  0  0
  1  2  1  0
  2  3  2  3
  3  4  1  0
  3  5  1  0
  5  6  2  3
  6  7  1  0
  6  8  1  0
  8  9  2  0
M  CHG  1   9   1
M  END
