
     RDKit          3D

  9  8  0  0  0  0  0  0  0  0999 V2000
   -1.5950    0.9680    0.6430 N   0  0  0  0  0  0  0  0  0  0  0  0
   -0.5860   -0.0180    0.6430 C   0  0  0  0  0  0  0  0  0  0  0  0
   -0.5450   -0.8940    1.6270 C   0  0  0  0  0  0  0  0  0  0  0  0
   -1.4610   -0.9160    2.7040 N   0  0  0  0  0  0  0  0  0  0  0  0
    0.3870   -0.0400   -0.4470 C   0  0  0  0  0  0  0  0  0  0  0  0
    1.3710   -1.0160   -0.4290 O   0  0  0  0  0  0  0  0  0  0  0  0
    0.3740    0.8150   -1.4380 C   0  0  0  0  0  0  0  0  0  0  0  0
    1.3760    0.7510   -2.5130 C   0  0  0  0  0  0  0  0  0  0  0  0
    2.2870   -0.2720   -2.3540 O   0  0  0  0  0  0  0  0  0  0  0  0
  1  2  1  0
  2  3  2  3
  2  5  1  0
  3  4  1  0
  5  6  1  0
  5  7  2  3
  7  8  1  0
  8  9  1  0
M  CHG  1   4   1
M  END
