
     RDKit          3D

  9  9  0  0  0  0  0  0  0  0999 V2000
   -1.9300    0.3310    0.8750 C   0  0  0  0  0  0  0  0  0  0  0  0
   -1.0060   -0.0780   -0.2800 C   0  0  2  0  0  0  0  0  0  0  0  0
   -1.9150   -0.5410   -1.3410 N   0  0  0  0  0  0  0  0  0  0  0  0
   -0.1600   -1.2460    0.1060 C   0  0  0  0  0  0  0  0  0  0  0  0
    1.0810   -0.8520    0.8860 C   0  0  0  0  0  0  0  0  0  0  0  0
    1.8310    0.1480   -0.0050 C   0  0  2  0  0  0  0  0  0  0  0  0
    3.1150    0.3660    0.4270 O   0  0  0  0  0  0  0  0  0  0  0  0
    0.9780    1.4030    0.0190 C   0  0  0  0  0  0  0  0  0  0  0  0
   -0.2550    1.0860   -0.8240 C   0  0  0  0  0  0  0  0  0  0  0  0
  2  1  1  1
  2  3  1  0
  2  4  1  0
  2  9  1  0
  4  5  1  0
  5  6  1  0
  6  7  1  1
  6  8  1  0
  8  9  1  0
M  END
