
     RDKit          3D

 13 14  0  0  0  0  0  0  0  0999 V2000
    3.9400    0.2280   -0.7140 N   0  0  0  0  0  0  0  0  0  0  0  0
    2.5270    0.2130   -0.5430 C   0  0  0  0  0  0  0  0  0  0  0  0
    1.6670    1.0000   -1.2780 C   0  0  0  0  0  0  0  0  0  0  0  0
    0.2990    0.9600   -1.0860 C   0  0  0  0  0  0  0  0  0  0  0  0
   -0.2700    0.1270   -0.1430 C   0  0  0  0  0  0  0  0  0  0  0  0
   -1.7170    0.0990    0.0460 C   0  0  0  0  0  0  0  0  0  0  0  0
   -2.6070    1.1520    0.1360 C   0  0  0  0  0  0  0  0  0  0  0  0
   -3.8710    0.6260    0.3140 C   0  0  0  0  0  0  0  0  0  0  0  0
   -3.7350   -0.6760    0.3280 O   0  0  0  0  0  0  0  0  0  0  0  0
   -2.4940   -1.0360    0.1750 C   0  0  0  0  0  0  0  0  0  0  0  0
    0.5950   -0.6590    0.5910 C   0  0  0  0  0  0  0  0  0  0  0  0
    0.0160   -1.5190    1.5630 N   0  0  0  0  0  0  0  0  0  0  0  0
    1.9640   -0.6200    0.3990 C   0  0  0  0  0  0  0  0  0  0  0  0
  1  2  1  0
  2  3  2  0
  2 13  1  0
  3  4  1  0
  4  5  2  0
  5  6  1  0
  5 11  1  0
  6  7  1  0
  6 10  2  0
  7  8  2  0
  8  9  1  0
  9 10  1  0
 11 12  1  0
 11 13  2  0
M  END
