
     RDKit          3D

 13 14  0  0  0  0  0  0  0  0999 V2000
    3.6810   -0.4060   -0.2000 N   0  0  0  0  0  0  0  0  0  0  0  0
    2.9080    0.7180   -0.6230 C   0  0  0  0  0  0  0  0  0  0  0  0
    1.6490    0.9020    0.1840 C   0  0  0  0  0  0  0  0  0  0  0  0
    0.6910   -0.1800    0.1340 C   0  0  0  0  0  0  0  0  0  0  0  0
    0.9100   -1.5290    0.0980 C   0  0  0  0  0  0  0  0  0  0  0  0
   -0.2860   -2.1810    0.0110 N   0  0  0  0  0  0  0  0  0  0  0  0
   -1.2670   -1.2770   -0.0080 C   0  0  0  0  0  0  0  0  0  0  0  0
   -2.6580   -1.3600   -0.0570 C   0  0  0  0  0  0  0  0  0  0  0  0
   -3.4110   -0.2040   -0.0300 C   0  0  0  0  0  0  0  0  0  0  0  0
   -2.8570    1.0530    0.0420 C   0  0  0  0  0  0  0  0  0  0  0  0
   -3.5980    2.2140    0.0710 O   0  0  0  0  0  0  0  0  0  0  0  0
   -1.4820    1.1190    0.0900 C   0  0  0  0  0  0  0  0  0  0  0  0
   -0.7000   -0.0140    0.0660 C   0  0  0  0  0  0  0  0  0  0  0  0
  1  2  1  0
  2  3  1  0
  3  4  1  0
  4  5  2  0
  4 13  1  0
  5  6  1  0
  6  7  1  0
  7  8  2  0
  7 13  1  0
  8  9  1  0
  9 10  2  0
 10 11  1  0
 10 12  1  0
 12 13  2  0
M  END
