
     RDKit          3D

 13 13  0  0  0  0  0  0  0  0999 V2000
    5.4940    0.4300   -0.7210 N   0  0  0  0  0  0  0  0  0  0  0  0
    4.2610    0.8970   -0.2070 C   0  0  0  0  0  0  0  0  0  0  0  0
    3.2240    0.1010   -0.1560 C   0  0  0  0  0  0  0  0  0  0  0  0
    1.9720    0.6060    0.3760 C   0  0  0  0  0  0  0  0  0  0  0  0
    0.9290   -0.1850    0.4310 C   0  0  0  0  0  0  0  0  0  0  0  0
   -0.3050    0.2810    0.9450 N   0  0  0  0  0  0  0  0  0  0  0  0
   -1.5030   -0.0220    0.2600 C   0  0  0  0  0  0  0  0  0  0  0  0
   -1.4370   -0.7670   -0.8930 C   0  0  0  0  0  0  0  0  0  0  0  0
   -2.6200   -1.0480   -1.5400 C   0  0  0  0  0  0  0  0  0  0  0  0
   -3.8530   -0.6220   -1.0880 C   0  0  0  0  0  0  0  0  0  0  0  0
   -4.9700   -0.9680   -1.8250 O   0  0  0  0  0  0  0  0  0  0  0  0
   -3.9180    0.1260    0.0710 C   0  0  0  0  0  0  0  0  0  0  0  0
   -2.7360    0.4120    0.7250 C   0  0  0  0  0  0  0  0  0  0  0  0
  1  2  1  0
  2  3  2  3
  3  4  1  0
  4  5  2  3
  5  6  1  0
  6  7  1  0
  7  8  2  0
  7 13  1  0
  8  9  1  0
  9 10  2  0
 10 11  1  0
 10 12  1  0
 12 13  2  0
M  END
