
     RDKit          3D

 13 14  0  0  0  0  0  0  0  0999 V2000
   -2.9460    1.5110   -1.5850 N   0  0  0  0  0  0  0  0  0  0  0  0
   -3.1130    0.1410   -1.3650 C   0  0  0  0  0  0  0  0  0  0  0  0
   -2.2960   -0.7310   -0.8440 C   0  0  0  0  0  0  0  0  0  0  0  0
   -0.9580   -0.4850   -0.3430 C   0  0  0  0  0  0  0  0  0  0  0  0
   -0.3670    0.7570   -0.3600 C   0  0  0  0  0  0  0  0  0  0  0  0
    0.9330    0.9060    0.1460 C   0  0  0  0  0  0  0  0  0  0  0  0
    1.6590   -0.1370    0.6670 C   0  0  0  0  0  0  0  0  0  0  0  0
    1.0250   -1.3650    0.6640 C   0  0  0  0  0  0  0  0  0  0  0  0
   -0.2300   -1.5680    0.1880 C   0  0  0  0  0  0  0  0  0  0  0  0
   -0.8100   -2.8620    0.2210 N   0  0  0  0  0  0  0  0  0  0  0  0
    2.9770    0.3880    1.1020 C   0  0  0  0  0  0  0  0  0  0  0  0
    2.8520    1.8760    0.9690 C   0  0  0  0  0  0  0  0  0  0  0  0
    1.6760    2.0850    0.2040 O   0  0  0  0  0  0  0  0  0  0  0  0
  1  2  1  0
  2  3  2  3
  3  4  1  0
  4  5  2  0
  4  9  1  0
  5  6  1  0
  6  7  2  0
  6 13  1  0
  7  8  1  0
  7 11  1  0
  8  9  2  0
  9 10  1  0
 11 12  1  0
 12 13  1  0
M  END
