
     RDKit          3D

 13 13  0  0  0  0  0  0  0  0999 V2000
   -2.3010   -2.4400    0.1500 C   0  0  0  0  0  0  0  0  0  0  0  0
   -1.1490   -1.5190   -0.1000 C   0  0  0  0  0  0  0  0  0  0  0  0
   -1.3370   -0.1940   -0.0190 C   0  0  0  0  0  0  0  0  0  0  0  0
   -2.6270    0.3900    0.3050 C   0  0  0  0  0  0  0  0  0  0  0  0
   -2.5970    1.8480    0.3370 C   0  0  0  0  0  0  0  0  0  0  0  0
   -1.5100    2.5330    0.0960 C   0  0  0  0  0  0  0  0  0  0  0  0
   -0.2260    1.9430   -0.2270 C   0  0  0  0  0  0  0  0  0  0  0  0
   -0.1650    0.6220   -0.2770 C   0  0  0  0  0  0  0  0  0  0  0  0
    1.0910    0.0320   -0.5930 N   0  0  0  0  0  0  0  0  0  0  0  0
    2.2250    0.2460    0.2670 C   0  0  0  0  0  0  0  0  0  0  0  0
    3.4290   -0.4430   -0.2240 C   0  0  0  0  0  0  0  0  0  0  0  0
    4.6790   -0.3860    0.4490 N   0  0  0  0  0  0  0  0  0  0  0  0
    3.3190   -1.1100   -1.2980 O   0  0  0  0  0  0  0  0  0  0  0  0
  1  2  1  0
  2  3  2  3
  3  4  1  0
  3  8  1  0
  4  5  1  0
  5  6  2  0
  6  7  1  0
  7  8  2  0
  8  9  1  0
  9 10  1  0
 10 11  1  0
 11 12  1  0
 11 13  2  0
M  END
