
     RDKit          3D

 13 13  0  0  0  0  0  0  0  0999 V2000
   -3.4450    0.4140    0.8990 C   0  0  0  0  0  0  0  0  0  0  0  0
   -2.9300   -0.5300    0.1240 C   0  0  0  0  0  0  0  0  0  0  0  0
   -3.7220   -1.6320   -0.5310 C   0  0  0  0  0  0  0  0  0  0  0  0
   -2.7040   -2.3800   -1.2690 C   0  0  0  0  0  0  0  0  0  0  0  0
   -1.4950   -1.8880   -1.1300 C   0  0  0  0  0  0  0  0  0  0  0  0
   -1.5430   -0.6940   -0.2460 C   0  0  0  0  0  0  0  0  0  0  0  0
   -0.4740    0.0170    0.0950 C   0  0  0  0  0  0  0  0  0  0  0  0
   -0.6470    1.1240    0.9540 N   0  0  0  0  0  0  0  0  0  0  0  0
    0.8280   -0.3410   -0.4060 N   0  0  0  0  0  0  0  0  0  0  0  0
    1.9250    0.5770   -0.4620 C   0  0  0  0  0  0  0  0  0  0  0  0
    2.4390    0.9520    0.9120 C   0  0  0  0  0  0  0  0  0  0  0  0
    3.5020    1.8430    0.8350 O   0  0  0  0  0  0  0  0  0  0  0  0
    4.5750    1.3500    0.1410 C   0  0  0  0  0  0  0  0  0  0  0  0
  1  2  2  0
  2  3  1  0
  2  6  1  0
  3  4  1  0
  4  5  2  0
  5  6  1  0
  6  7  2  3
  7  8  1  0
  7  9  1  0
  9 10  1  0
 10 11  1  0
 11 12  1  0
 12 13  1  0
M  END
