
     RDKit          3D

 12 13  0  0  0  0  0  0  0  0999 V2000
   -3.5610    0.1950    0.0240 C   0  0  0  0  0  0  0  0  0  0  0  0
   -3.1990    0.1040   -1.2680 C   0  0  0  0  0  0  0  0  0  0  0  0
   -1.8340   -0.0010   -1.6440 N   0  0  0  0  0  0  0  0  0  0  0  0
   -0.7980   -0.0130   -0.6550 C   0  0  0  0  0  0  0  0  0  0  0  0
    0.4610   -0.0970   -1.0190 C   0  0  0  0  0  0  0  0  0  0  0  0
    1.6210   -0.1250   -0.1640 C   0  0  0  0  0  0  0  0  0  0  0  0
    2.7880    0.5940   -0.4090 C   0  0  0  0  0  0  0  0  0  0  0  0
    3.7130    0.3440    0.5700 C   0  0  0  0  0  0  0  0  0  0  0  0
    3.1090   -0.5420    1.4310 C   0  0  0  0  0  0  0  0  0  0  0  0
    1.8690   -0.7990    0.9650 N   0  0  0  0  0  0  0  0  0  0  0  0
   -1.2520    0.0880    0.7180 C   0  0  0  0  0  0  0  0  0  0  0  0
   -2.5400    0.1860    1.0580 C   0  0  0  0  0  0  0  0  0  0  0  0
  1  2  2  0
  1 12  1  0
  2  3  1  0
  3  4  1  0
  4  5  2  3
  4 11  1  0
  5  6  1  0
  6  7  2  0
  6 10  1  0
  7  8  1  0
  8  9  2  0
  9 10  1  0
 11 12  2  0
M  END
