
     RDKit          3D

 27 29  0  0  0  0  0  0  0  0999 V2000
   -6.1020    1.5280   -0.1000 C   0  0  0  0  0  0  0  0  0  0  0  0
   -4.6540    1.3370   -0.4210 C   0  0  0  0  0  0  0  0  0  0  0  0
   -4.0280    1.9640   -1.4760 C   0  0  0  0  0  0  0  0  0  0  0  0
   -2.7170    1.5340   -1.4360 C   0  0  0  0  0  0  0  0  0  0  0  0
   -2.5900    0.6760   -0.3800 C   0  0  0  0  0  0  0  0  0  0  0  0
   -1.3370   -0.0270    0.0350 C   0  0  1  0  0  0  0  0  0  0  0  0
   -1.1910    0.0710    1.4730 N   0  0  0  0  0  0  0  0  0  0  0  0
    0.2480    0.9040    1.9150 S   0  0  1  0  0  0  0  0  0  0  0  0
    0.2210    2.3330    1.4090 O   0  0  0  0  0  0  0  0  0  0  0  0
    0.2870    0.9960    3.4200 O   0  0  0  0  0  0  0  0  0  0  0  0
    1.6780    0.1280    1.3780 C   0  0  0  0  0  0  0  0  0  0  0  0
    2.5530    0.7630    0.5290 C   0  0  0  0  0  0  0  0  0  0  0  0
    3.7160    0.1020    0.1050 C   0  0  0  0  0  0  0  0  0  0  0  0
    4.6060    0.7710   -0.7680 N   0  0  0  0  0  0  0  0  0  0  0  0
    4.7370    2.1020   -0.8580 C   0  0  0  0  0  0  0  0  0  0  0  0
    5.6630    2.3390   -1.7810 N   0  0  0  0  0  0  0  0  0  0  0  0
    6.1180    1.2050   -2.2740 N   0  0  0  0  0  0  0  0  0  0  0  0
    5.4600    0.2220   -1.6430 C   0  0  0  0  0  0  0  0  0  0  0  0
    5.6510   -1.0150   -1.8720 O   0  0  0  0  0  0  0  0  0  0  0  0
    3.9850   -1.1810    0.5370 C   0  0  0  0  0  0  0  0  0  0  0  0
    3.1060   -1.8160    1.3880 C   0  0  0  0  0  0  0  0  0  0  0  0
    1.9760   -1.1450    1.7850 C   0  0  0  0  0  0  0  0  0  0  0  0
    1.0710   -1.7930    2.6590 N   0  0  0  0  0  0  0  0  0  0  0  0
   -1.4380   -1.4990   -0.3000 C   0  0  2  0  0  0  0  0  0  0  0  0
   -1.6340   -1.7280   -1.7770 C   0  0  0  0  0  0  0  0  0  0  0  0
   -2.5080   -2.1250    0.5350 C   0  0  0  0  0  0  0  0  0  0  0  0
   -3.7750    0.5980    0.1850 O   0  0  0  0  0  0  0  0  0  0  0  0
  1  2  1  0
  2  3  2  0
  2 27  1  0
  3  4  1  0
  4  5  2  0
  5  6  1  0
  5 27  1  0
  6  7  1  1
  6 24  1  0
  8  7  1  1
  8  9  2  0
  8 10  2  0
  8 11  1  0
 11 12  2  0
 11 22  1  0
 12 13  1  0
 13 14  1  0
 13 20  2  0
 14 15  1  0
 14 18  1  0
 15 16  2  0
 16 17  1  0
 17 18  1  0
 18 19  2  0
 20 21  1  0
 21 22  2  0
 22 23  1  0
 24 25  1  6
 24 26  1  0
M  END
