
     RDKit          3D

 27 29  0  0  0  0  0  0  0  0999 V2000
   -7.1420    0.6130    0.3810 C   0  0  0  0  0  0  0  0  0  0  0  0
   -5.8220    1.0480   -0.2330 C   0  0  0  0  0  0  0  0  0  0  0  0
   -5.2660    0.0640   -1.1620 C   0  0  0  0  0  0  0  0  0  0  0  0
   -4.0820   -0.4860   -0.9490 C   0  0  0  0  0  0  0  0  0  0  0  0
   -3.2660   -0.1820    0.1680 N   0  0  0  0  0  0  0  0  0  0  0  0
   -1.8620    0.0230    0.1160 C   0  0  0  0  0  0  0  0  0  0  0  0
   -1.0320   -1.0530    0.3420 C   0  0  0  0  0  0  0  0  0  0  0  0
   -1.5490   -2.4130    0.6490 C   0  0  1  0  0  0  0  0  0  0  0  0
   -2.2430   -2.4270    1.8220 F   0  0  0  0  0  0  0  0  0  0  0  0
   -2.2360   -2.9810   -0.3980 F   0  0  0  0  0  0  0  0  0  0  0  0
    0.2790   -0.8260    0.2790 N   0  0  0  0  0  0  0  0  0  0  0  0
    0.8360    0.4070    0.0060 C   0  0  0  0  0  0  0  0  0  0  0  0
    2.2900    0.4990   -0.0290 C   0  0  0  0  0  0  0  0  0  0  0  0
    3.0590   -0.6390    0.2100 C   0  0  0  0  0  0  0  0  0  0  0  0
    4.4170   -0.5450    0.1760 C   0  0  0  0  0  0  0  0  0  0  0  0
    5.1770   -1.6850    0.4160 C   0  0  0  0  0  0  0  0  0  0  0  0
    6.5490   -1.5970    0.3830 C   0  0  0  0  0  0  0  0  0  0  0  0
    7.3440   -2.6770    0.6090 F   0  0  0  0  0  0  0  0  0  0  0  0
    7.1310   -0.3820    0.1130 C   0  0  0  0  0  0  0  0  0  0  0  0
    6.3980    0.7600   -0.1270 C   0  0  0  0  0  0  0  0  0  0  0  0
    5.0070    0.6650   -0.0930 C   0  0  0  0  0  0  0  0  0  0  0  0
    4.3030    1.7710   -0.3250 N   0  0  0  0  0  0  0  0  0  0  0  0
    2.9350    1.6630   -0.2880 C   0  0  0  0  0  0  0  0  0  0  0  0
    2.3580    2.7580   -0.5200 O   0  0  0  0  0  0  0  0  0  0  0  0
   -0.0060    1.4110   -0.2040 N   0  0  0  0  0  0  0  0  0  0  0  0
   -1.3740    1.2770   -0.1610 C   0  0  0  0  0  0  0  0  0  0  0  0
   -2.1080    2.2790   -0.3710 O   0  0  0  0  0  0  0  0  0  0  0  0
  1  2  1  0
  2  3  1  0
  3  4  2  3
  4  5  1  0
  5  6  1  0
  6  7  2  0
  6 26  1  0
  7  8  1  0
  7 11  1  0
  8  9  1  1
  8 10  1  0
 11 12  2  0
 12 13  1  0
 12 25  1  0
 13 14  2  0
 13 23  1  0
 14 15  1  0
 15 16  2  0
 15 21  1  0
 16 17  1  0
 17 18  1  0
 17 19  2  0
 19 20  1  0
 20 21  2  0
 21 22  1  0
 22 23  1  0
 23 24  2  0
 25 26  1  0
 26 27  2  0
M  END
