
     RDKit          3D

 27 29  0  0  0  0  0  0  0  0999 V2000
   -6.6720    1.9530    1.4110 C   0  0  0  0  0  0  0  0  0  0  0  0
   -6.5950    1.1390    0.1770 C   0  0  0  0  0  0  0  0  0  0  0  0
   -5.4660    0.7850   -0.3300 C   0  0  0  0  0  0  0  0  0  0  0  0
   -5.2700   -0.0420   -1.5810 C   0  0  0  0  0  0  0  0  0  0  0  0
   -4.5420   -1.4480   -1.1700 S   0  0  0  0  0  0  0  0  0  0  0  0
   -5.9140   -2.1250   -0.4910 C   0  0  0  0  0  0  0  0  0  0  0  0
   -4.4470   -1.6840   -2.9480 O   0  0  0  0  0  0  0  0  0  0  0  0
   -3.3500   -0.7790   -0.4620 N   0  0  0  0  0  0  0  0  0  0  0  0
   -3.1440    0.2670    0.1720 C   0  0  0  0  0  0  0  0  0  0  0  0
   -1.8120    0.6080    0.7450 C   0  0  0  0  0  0  0  0  0  0  0  0
   -0.7740   -0.3940    0.4400 C   0  0  0  0  0  0  0  0  0  0  0  0
   -1.0670   -1.3960   -0.2210 O   0  0  0  0  0  0  0  0  0  0  0  0
    0.5690   -0.2600    0.8760 N   0  0  0  0  0  0  0  0  0  0  0  0
    1.5320   -1.2220    0.5670 N   0  0  0  0  0  0  0  0  0  0  0  0
    2.9360   -0.9170    0.6670 C   0  0  0  0  0  0  0  0  0  0  0  0
    3.6330   -1.1650    1.8320 C   0  0  0  0  0  0  0  0  0  0  0  0
    4.9960   -0.8560    1.9360 C   0  0  0  0  0  0  0  0  0  0  0  0
    5.6550   -0.2980    0.8640 C   0  0  0  0  0  0  0  0  0  0  0  0
    4.9710   -0.0450   -0.3080 C   0  0  0  0  0  0  0  0  0  0  0  0
    3.6300   -0.3540   -0.3980 C   0  0  0  0  0  0  0  0  0  0  0  0
    5.4770    0.5240   -1.5060 N   0  0  0  0  0  0  0  0  0  0  0  0
    6.8100    0.9780   -1.7470 C   0  0  0  0  0  0  0  0  0  0  0  0
    6.9620    1.7990   -2.7100 O   0  0  0  0  0  0  0  0  0  0  0  0
    8.0210    0.5880   -0.9890 C   0  0  0  0  0  0  0  0  0  0  0  0
    7.8970    0.8560    0.4860 C   0  0  0  0  0  0  0  0  0  0  0  0
    6.9950   -0.0470    1.1120 O   0  0  0  0  0  0  0  0  0  0  0  0
   -4.2470    1.1910    0.3050 N   0  0  0  0  0  0  0  0  0  0  0  0
  1  2  1  0
  2  3  2  3
  3  4  1  0
  3 27  1  0
  4  5  1  0
  5  6  1  0
  5  7  2  0
  5  8  1  0
  8  9  2  0
  9 10  1  0
  9 27  1  0
 10 11  1  0
 11 12  2  0
 11 13  1  0
 13 14  1  0
 14 15  1  0
 15 16  2  0
 15 20  1  0
 16 17  1  0
 17 18  2  0
 18 19  1  0
 18 26  1  0
 19 20  2  0
 19 21  1  0
 21 22  1  0
 22 23  2  0
 22 24  1  0
 24 25  1  0
 25 26  1  0
M  END
