
     RDKit          3D

 27 29  0  0  0  0  0  0  0  0999 V2000
   -3.2620   -3.8420   -1.6230 C   0  0  0  0  0  0  0  0  0  0  0  0
   -2.9100   -3.3280   -0.2440 C   0  0  2  0  0  0  0  0  0  0  0  0
   -4.0570   -3.7310    0.6700 C   0  0  0  0  0  0  0  0  0  0  0  0
   -2.9120   -1.9070   -0.2730 O   0  0  0  0  0  0  0  0  0  0  0  0
   -1.8480   -1.1100    0.0830 C   0  0  0  0  0  0  0  0  0  0  0  0
   -0.7860   -1.6530    0.4660 O   0  0  0  0  0  0  0  0  0  0  0  0
   -1.9110    0.3560    0.0300 C   0  0  0  0  0  0  0  0  0  0  0  0
   -3.0810    0.9570   -0.3910 C   0  0  0  0  0  0  0  0  0  0  0  0
   -3.1520    2.3150   -0.4410 C   0  0  0  0  0  0  0  0  0  0  0  0
   -2.0340    3.0710   -0.0650 C   0  0  0  0  0  0  0  0  0  0  0  0
   -0.8740    2.4660    0.3520 C   0  0  0  0  0  0  0  0  0  0  0  0
   -0.8080    1.0850    0.4020 C   0  0  0  0  0  0  0  0  0  0  0  0
    0.4270    0.5240    0.8260 N   0  0  0  0  0  0  0  0  0  0  0  0
    1.4460    0.3260   -0.1510 C   0  0  0  0  0  0  0  0  0  0  0  0
    1.1910    0.6600   -1.3310 O   0  0  0  0  0  0  0  0  0  0  0  0
    2.7540   -0.2350    0.1610 C   0  0  0  0  0  0  0  0  0  0  0  0
    3.0060   -1.9230   -0.4600 S   0  0  0  0  0  0  0  0  0  0  0  0
    4.6860   -2.3650   -0.0670 C   0  0  0  0  0  0  0  0  0  0  0  0
    5.1530   -3.0420    0.9810 N   0  0  0  0  0  0  0  0  0  0  0  0
    6.4780   -3.1450    0.8350 N   0  0  0  0  0  0  0  0  0  0  0  0
    6.8690   -2.5320   -0.3120 C   0  0  0  0  0  0  0  0  0  0  0  0
    8.0230   -2.4190   -0.7910 O   0  0  0  0  0  0  0  0  0  0  0  0
    5.7380   -2.0460   -0.8720 N   0  0  0  0  0  0  0  0  0  0  0  0
    0.3070    3.2640    0.7470 C   0  0  0  0  0  0  0  0  0  0  0  0
    0.2540    4.6220    0.0890 C   0  0  0  0  0  0  0  0  0  0  0  0
   -1.0560    5.2850    0.4210 C   0  0  0  0  0  0  0  0  0  0  0  0
   -2.1300    4.4800   -0.1280 N   0  0  0  0  0  0  0  0  0  0  0  0
  2  1  1  6
  2  3  1  0
  2  4  1  0
  4  5  1  0
  5  6  2  0
  5  7  1  0
  7  8  2  0
  7 12  1  0
  8  9  1  0
  9 10  2  0
 10 11  1  0
 10 27  1  0
 11 12  2  0
 11 24  1  0
 12 13  1  0
 13 14  1  0
 14 15  2  0
 14 16  1  0
 16 17  1  0
 17 18  1  0
 18 19  2  0
 18 23  1  0
 19 20  1  0
 20 21  1  0
 21 22  2  0
 21 23  1  0
 24 25  1  0
 25 26  1  0
 26 27  1  0
M  END
