
     RDKit          3D

 27 29  0  0  0  0  0  0  0  0999 V2000
   -4.3490   -4.8100   -0.5260 N   0  0  0  0  0  0  0  0  0  0  0  0
   -3.2210   -3.9190   -0.3610 C   0  0  0  0  0  0  0  0  0  0  0  0
   -2.1540   -4.4640   -0.0650 O   0  0  0  0  0  0  0  0  0  0  0  0
   -3.4250   -2.5450   -0.5450 N   0  0  0  0  0  0  0  0  0  0  0  0
   -2.4210   -1.5620   -0.4170 C   0  0  0  0  0  0  0  0  0  0  0  0
   -1.1190   -1.8380   -0.0960 C   0  0  0  0  0  0  0  0  0  0  0  0
   -0.1710   -0.8440    0.0180 C   0  0  0  0  0  0  0  0  0  0  0  0
    1.1880   -1.0200    0.3430 N   0  0  0  0  0  0  0  0  0  0  0  0
    1.8550   -2.2330    0.6160 C   0  0  0  0  0  0  0  0  0  0  0  0
    1.2350   -3.3140    0.5850 O   0  0  0  0  0  0  0  0  0  0  0  0
    3.3300   -2.2550    0.9510 C   0  0  0  0  0  0  0  0  0  0  0  0
    3.8500   -0.9410    0.9360 O   0  0  0  0  0  0  0  0  0  0  0  0
    5.1580   -0.6370    1.2010 C   0  0  0  0  0  0  0  0  0  0  0  0
    5.9780   -1.5050    1.4740 O   0  0  0  0  0  0  0  0  0  0  0  0
    5.6150    0.8050    1.1590 C   0  0  0  0  0  0  0  0  0  0  0  0
    6.8420    1.2870    1.3880 C   0  0  0  0  0  0  0  0  0  0  0  0
    7.0580    2.6000    1.3040 C   0  0  0  0  0  0  0  0  0  0  0  0
    5.9940    3.4090    0.9820 C   0  0  0  0  0  0  0  0  0  0  0  0
    4.6650    2.1710    0.8070 S   0  0  0  0  0  0  0  0  0  0  0  0
   -0.6210    0.4330   -0.2120 C   0  0  0  0  0  0  0  0  0  0  0  0
   -1.9360    0.7010   -0.5360 C   0  0  0  0  0  0  0  0  0  0  0  0
   -2.4040    2.0930   -0.7820 C   0  0  2  0  0  0  0  0  0  0  0  0
   -3.5420    2.3630    0.1750 C   0  0  0  0  0  0  0  0  0  0  0  0
   -4.7560    2.4330   -0.7530 C   0  0  0  0  0  0  0  0  0  0  0  0
   -4.1490    3.0720   -1.9250 N   0  0  0  0  0  0  0  0  0  0  0  0
   -2.9900    2.2340   -2.1740 C   0  0  0  0  0  0  0  0  0  0  0  0
   -2.8300   -0.2720   -0.6400 N   0  0  0  0  0  0  0  0  0  0  0  0
  1  2  1  0
  2  3  2  0
  2  4  1  0
  4  5  1  0
  5  6  2  0
  5 27  1  0
  6  7  1  0
  7  8  1  0
  7 20  2  0
  8  9  1  0
  9 10  2  0
  9 11  1  0
 11 12  1  0
 12 13  1  0
 13 14  2  0
 13 15  1  0
 15 16  2  0
 15 19  1  0
 16 17  1  0
 17 18  2  0
 18 19  1  0
 20 21  1  0
 22 21  1  6
 21 27  2  0
 22 23  1  0
 22 26  1  0
 23 24  1  0
 24 25  1  0
 25 26  1  0
M  END
