
     RDKit          3D

 27 29  0  0  0  0  0  0  0  0999 V2000
   -6.7870   -0.9950    1.5680 C   0  0  0  0  0  0  0  0  0  0  0  0
   -5.7940   -0.2310    0.8070 C   0  0  0  0  0  0  0  0  0  0  0  0
   -4.6100   -0.7960    0.3300 C   0  0  0  0  0  0  0  0  0  0  0  0
   -3.6940   -0.0540   -0.3830 C   0  0  0  0  0  0  0  0  0  0  0  0
   -2.4480   -0.6890   -0.8730 C   0  0  0  0  0  0  0  0  0  0  0  0
   -1.6120    0.2420   -1.5980 N   0  0  0  0  0  0  0  0  0  0  0  0
   -0.1980   -0.6210   -2.1130 S   0  0  1  0  0  0  0  0  0  0  0  0
   -0.6680   -1.7360   -3.0070 O   0  0  0  0  0  0  0  0  0  0  0  0
    0.6530    0.2850   -2.9720 O   0  0  0  0  0  0  0  0  0  0  0  0
    0.7070   -1.2240   -0.7480 C   0  0  0  0  0  0  0  0  0  0  0  0
    0.4260   -2.4780   -0.2480 C   0  0  0  0  0  0  0  0  0  0  0  0
    1.1320   -2.9930    0.8450 C   0  0  0  0  0  0  0  0  0  0  0  0
    2.1200   -2.2200    1.4170 C   0  0  0  0  0  0  0  0  0  0  0  0
    2.4220   -0.9640    0.9400 C   0  0  0  0  0  0  0  0  0  0  0  0
    3.4380   -0.1760    1.5330 N   0  0  0  0  0  0  0  0  0  0  0  0
    3.7250    1.1150    1.0160 C   0  0  0  0  0  0  0  0  0  0  0  0
    4.8280    1.3870    0.3570 C   0  0  0  0  0  0  0  0  0  0  0  0
    5.9450    0.4670    0.0280 C   0  0  0  0  0  0  0  0  0  0  0  0
    7.0870    1.4440   -0.1710 C   0  0  0  0  0  0  0  0  0  0  0  0
    6.4620    2.5280   -0.8410 O   0  0  0  0  0  0  0  0  0  0  0  0
    5.2100    2.6720   -0.2080 C   0  0  0  0  0  0  0  0  0  0  0  0
    4.5430    3.7450   -0.1510 O   0  0  0  0  0  0  0  0  0  0  0  0
    1.6990   -0.4960   -0.1420 C   0  0  0  0  0  0  0  0  0  0  0  0
   -3.9720    1.2380   -0.6090 N   0  0  0  0  0  0  0  0  0  0  0  0
   -5.1160    1.7950   -0.1510 C   0  0  0  0  0  0  0  0  0  0  0  0
   -5.4230    3.1670   -0.3850 N   0  0  0  0  0  0  0  0  0  0  0  0
   -6.0250    1.0730    0.5520 N   0  0  0  0  0  0  0  0  0  0  0  0
  1  2  1  0
  2  3  2  0
  2 27  1  0
  3  4  1  0
  4  5  1  0
  4 24  2  0
  5  6  1  0
  7  6  1  1
  7  8  2  0
  7  9  2  0
  7 10  1  0
 10 11  2  0
 10 23  1  0
 11 12  1  0
 12 13  2  0
 13 14  1  0
 14 15  1  0
 14 23  2  0
 15 16  1  0
 16 17  2  3
 17 18  1  0
 17 21  1  0
 18 19  1  0
 19 20  1  0
 20 21  1  0
 21 22  2  0
 24 25  1  0
 25 26  1  0
 25 27  2  0
M  END
