
     RDKit          3D

 24 26  0  0  0  0  0  0  0  0999 V2000
   -3.1680    0.8200   -1.9960 C   0  0  0  0  0  0  0  0  0  0  0  0
   -2.1380    0.9960   -1.2240 C   0  0  0  0  0  0  0  0  0  0  0  0
   -1.4260    0.1600   -0.3640 C   0  0  0  0  0  0  0  0  0  0  0  0
   -1.4900   -1.1570   -0.3990 C   0  0  0  0  0  0  0  0  0  0  0  0
   -2.3940   -1.7500   -1.4750 C   0  0  0  0  0  0  0  0  0  0  0  0
   -0.8920   -2.1620    0.4270 C   0  0  0  0  0  0  0  0  0  0  0  0
   -1.2030   -3.6280    0.0980 C   0  0  0  0  0  0  0  0  0  0  0  0
   -0.1420   -2.0860    1.3970 O   0  0  0  0  0  0  0  0  0  0  0  0
   -0.5500    0.9250    0.3390 N   0  0  0  0  0  0  0  0  0  0  0  0
    0.3910    0.5860    1.3730 C   0  0  0  0  0  0  0  0  0  0  0  0
    1.7190    0.1950    0.8490 C   0  0  0  0  0  0  0  0  0  0  0  0
    1.9090    0.1910   -0.3850 O   0  0  0  0  0  0  0  0  0  0  0  0
    2.7410   -0.1630    1.7540 N   0  0  0  0  0  0  0  0  0  0  0  0
    3.5000   -1.1910    1.5750 C   0  0  0  0  0  0  0  0  0  0  0  0
    4.4990   -1.6340    2.3560 N   0  0  0  0  0  0  0  0  0  0  0  0
    5.0480   -2.7320    1.8300 C   0  0  0  0  0  0  0  0  0  0  0  0
    4.3810   -2.9890    0.6930 N   0  0  0  0  0  0  0  0  0  0  0  0
    3.4430   -2.0500    0.5430 N   0  0  0  0  0  0  0  0  0  0  0  0
   -0.6920    2.2370   -0.0720 C   0  0  0  0  0  0  0  0  0  0  0  0
   -0.0390    3.4040    0.3120 C   0  0  0  0  0  0  0  0  0  0  0  0
   -0.3660    4.6080   -0.2690 C   0  0  0  0  0  0  0  0  0  0  0  0
   -1.3290    4.6770   -1.2230 C   0  0  0  0  0  0  0  0  0  0  0  0
   -1.9800    3.5230   -1.6080 C   0  0  0  0  0  0  0  0  0  0  0  0
   -1.6490    2.3130   -1.0230 C   0  0  0  0  0  0  0  0  0  0  0  0
  1  2  2  0
  2  3  1  0
  2 24  1  0
  3  4  2  3
  3  9  1  0
  4  5  1  0
  4  6  1  0
  6  7  1  0
  6  8  2  0
  9 10  1  0
  9 19  1  0
 10 11  1  0
 11 12  2  0
 11 13  1  0
 13 14  2  3
 14 15  1  0
 14 18  1  0
 15 16  1  0
 16 17  2  0
 17 18  1  0
 19 20  2  0
 19 24  1  0
 20 21  1  0
 21 22  2  0
 22 23  1  0
 23 24  2  0
M  END
