
     RDKit          3D

 20 20  0  0  0  0  0  0  0  0999 V2000
   -5.8090   -1.4440   -0.9010 C   0  0  0  0  0  0  0  0  0  0  0  0
   -4.9430   -0.2720   -1.3400 C   0  0  2  0  0  0  0  0  0  0  0  0
   -3.6820   -0.7300   -1.5720 O   0  0  0  0  0  0  0  0  0  0  0  0
   -2.9160   -0.4690   -0.4450 C   0  0  1  0  0  0  0  0  0  0  0  0
   -1.5000   -0.3020   -0.8330 C   0  0  0  0  0  0  0  0  0  0  0  0
   -1.1600   -0.4070   -2.0520 O   0  0  0  0  0  0  0  0  0  0  0  0
   -0.4820   -0.0320    0.0580 O   0  0  0  0  0  0  0  0  0  0  0  0
    0.8630    0.1280   -0.2950 C   0  0  1  0  0  0  0  0  0  0  0  0
    1.4000    1.5020    0.0080 C   0  0  0  0  0  0  0  0  0  0  0  0
    1.7730   -0.8930    0.3330 C   0  0  1  0  0  0  0  0  0  0  0  0
    1.4490   -2.1920   -0.0150 O   0  0  0  0  0  0  0  0  0  0  0  0
    3.1280   -0.5970   -0.1260 N   0  0  0  0  0  0  0  0  0  0  0  0
    4.1770   -0.2640    0.7640 C   0  0  0  0  0  0  0  0  0  0  0  0
    3.9470   -0.2170    2.0040 O   0  0  0  0  0  0  0  0  0  0  0  0
    5.5220    0.0200    0.2010 C   0  0  0  0  0  0  0  0  0  0  0  0
    6.4770    0.3520    1.3290 C   0  0  0  0  0  0  0  0  0  0  0  0
    6.0080    1.4850    2.0240 O   0  0  0  0  0  0  0  0  0  0  0  0
   -3.5050    0.6980    0.2500 C   0  0  0  0  0  0  0  0  0  0  0  0
   -4.8980    0.8060   -0.3040 C   0  0  2  0  0  0  0  0  0  0  0  0
   -5.8610    0.5160    0.6710 O   0  0  0  0  0  0  0  0  0  0  0  0
  2  1  1  1
  2  3  1  0
  2 19  1  0
  3  4  1  0
  4  5  1  6
  4 18  1  0
  5  6  2  0
  5  7  1  0
  7  8  1  0
  8  9  1  1
  8 10  1  0
 10 11  1  6
 10 12  1  0
 12 13  1  0
 13 14  2  0
 13 15  1  0
 15 16  1  0
 16 17  1  0
 18 19  1  0
 19 20  1  1
M  END
