
     RDKit          3D

 19 19  0  0  0  0  0  0  0  0999 V2000
   -4.9780   -1.2990    0.3860 C   0  0  0  0  0  0  0  0  0  0  0  0
   -3.6750   -1.8510    0.4460 O   0  0  0  0  0  0  0  0  0  0  0  0
   -2.8310   -0.8270    0.0990 C   0  0  0  0  0  0  0  0  0  0  0  0
   -1.3710   -1.1750    0.0830 C   0  0  1  0  0  0  0  0  0  0  0  0
   -0.9810   -1.5930    1.3500 O   0  0  0  0  0  0  0  0  0  0  0  0
   -0.9990   -2.1410   -0.9960 C   0  0  0  0  0  0  0  0  0  0  0  0
   -0.1940   -1.0160   -1.6610 C   0  0  1  0  0  0  0  0  0  0  0  0
   -0.7680   -0.6560   -2.9060 O   0  0  0  0  0  0  0  0  0  0  0  0
   -0.5170   -0.1000   -0.5340 C   0  0  1  0  0  0  0  0  0  0  0  0
   -1.3450    1.0200   -0.9650 C   0  0  0  0  0  0  0  0  0  0  0  0
   -2.0400    1.9240   -1.3220 N   0  0  0  0  0  0  0  0  0  0  0  0
    0.6050    0.4210    0.2990 C   0  0  1  0  0  0  0  0  0  0  0  0
    0.1290    0.9770    1.4610 O   0  0  0  0  0  0  0  0  0  0  0  0
    1.8050   -0.4210    0.4750 C   0  0  0  0  0  0  0  0  0  0  0  0
    2.7580    0.3040    1.4020 C   0  0  0  0  0  0  0  0  0  0  0  0
    3.2010    1.6040    0.9180 C   0  0  0  0  0  0  0  0  0  0  0  0
    2.3880    2.6050    0.9190 O   0  0  0  0  0  0  0  0  0  0  0  0
    4.4810    1.8620    0.4390 O   0  0  0  0  0  0  0  0  0  0  0  0
    4.8890    3.0980   -0.0190 C   0  0  0  0  0  0  0  0  0  0  0  0
  1  2  1  0
  2  3  1  0
  3  4  1  0
  4  5  1  1
  4  6  1  0
  4  9  1  0
  6  7  1  0
  7  8  1  6
  7  9  1  0
  9 10  1  6
  9 12  1  0
 10 11  3  0
 12 13  1  1
 12 14  1  0
 14 15  1  0
 15 16  1  0
 16 17  2  0
 16 18  1  0
 18 19  1  0
M  END
