
     RDKit          3D

 19 19  0  0  0  0  0  0  0  0999 V2000
    5.4950    0.9930   -0.6380 C   0  0  0  0  0  0  0  0  0  0  0  0
    4.0360    0.8100   -0.3160 C   0  0  1  0  0  0  0  0  0  0  0  0
    3.2030    1.2120   -1.3450 O   0  0  0  0  0  0  0  0  0  0  0  0
    2.6480    0.1460   -2.0460 C   0  0  0  0  0  0  0  0  0  0  0  0
    1.8780   -0.7920   -1.1630 C   0  0  2  0  0  0  0  0  0  0  0  0
    0.4110   -0.6260   -1.2730 C   0  0  0  0  0  0  0  0  0  0  0  0
   -0.0860   -0.6840   -2.4270 O   0  0  0  0  0  0  0  0  0  0  0  0
   -0.4490   -0.4100   -0.1690 N   0  0  0  0  0  0  0  0  0  0  0  0
   -1.8840   -0.2630   -0.4290 C   0  0  0  0  0  0  0  0  0  0  0  0
   -2.6410   -0.0410    0.8570 C   0  0  2  0  0  0  0  0  0  0  0  0
   -2.4540   -1.1100    1.6970 O   0  0  0  0  0  0  0  0  0  0  0  0
   -4.0780    0.2280    0.5410 C   0  0  2  0  0  0  0  0  0  0  0  0
   -4.6640   -0.9680   -0.1570 C   0  0  0  0  0  0  0  0  0  0  0  0
   -4.2370    1.3190   -0.3160 O   0  0  0  0  0  0  0  0  0  0  0  0
   -4.8470    0.4830    1.8420 C   0  0  0  0  0  0  0  0  0  0  0  0
   -6.2140    0.6560    1.5260 O   0  0  0  0  0  0  0  0  0  0  0  0
    2.3250   -0.7120    0.1480 O   0  0  0  0  0  0  0  0  0  0  0  0
    3.7170   -0.5960    0.0950 C   0  0  2  0  0  0  0  0  0  0  0  0
    4.3650   -0.9880    1.3920 C   0  0  0  0  0  0  0  0  0  0  0  0
  2  1  1  6
  2  3  1  0
  2 18  1  0
  3  4  1  0
  4  5  1  0
  5  6  1  1
  5 17  1  0
  6  7  2  0
  6  8  1  0
  8  9  1  0
  9 10  1  0
 10 11  1  1
 10 12  1  0
 12 13  1  6
 12 14  1  0
 12 15  1  0
 15 16  1  0
 17 18  1  0
 18 19  1  1
M  END
