
     RDKit          3D

 20 20  0  0  0  0  0  0  0  0999 V2000
    5.8350    3.3550   -0.1330 N   0  0  0  0  0  0  0  0  0  0  0  0
    4.8850    2.9800   -0.7030 C   0  0  0  0  0  0  0  0  0  0  0  0
    3.6980    2.5350   -1.4260 C   0  0  2  0  0  0  0  0  0  0  0  0
    2.5850    2.5160   -0.5850 O   0  0  0  0  0  0  0  0  0  0  0  0
    3.9220    1.1640   -2.0590 C   0  0  0  0  0  0  0  0  0  0  0  0
    2.6600    0.7620   -2.7890 C   0  0  0  0  0  0  0  0  0  0  0  0
    1.5440    0.7000   -1.9600 O   0  0  0  0  0  0  0  0  0  0  0  0
    1.4710   -0.1310   -0.8750 C   0  0  0  0  0  0  0  0  0  0  0  0
    2.4660   -0.8580   -0.6410 O   0  0  0  0  0  0  0  0  0  0  0  0
    0.2540   -0.1860    0.0180 C   0  0  1  0  0  0  0  0  0  0  0  0
   -0.6460    0.7080   -0.5430 O   0  0  0  0  0  0  0  0  0  0  0  0
   -0.2810   -1.5600    0.0850 C   0  0  1  0  0  0  0  0  0  0  0  0
    0.8080   -2.3680    0.5830 O   0  0  0  0  0  0  0  0  0  0  0  0
   -1.3730   -1.7300    1.0660 C   0  0  0  0  0  0  0  0  0  0  0  0
   -2.6200   -0.9400    0.9380 C   0  0  1  0  0  0  0  0  0  0  0  0
   -3.2650   -1.1140   -0.2890 O   0  0  0  0  0  0  0  0  0  0  0  0
   -3.5700   -1.6310    2.0070 C   0  0  0  0  0  0  0  0  0  0  0  0
   -4.4870   -0.4460    2.2560 C   0  0  0  0  0  0  0  0  0  0  0  0
   -3.5080    0.5280    2.5480 O   0  0  0  0  0  0  0  0  0  0  0  0
   -2.5920    0.4210    1.4820 C   0  0  0  0  0  0  0  0  0  0  0  0
  1  2  3  0
  2  3  1  0
  3  4  1  1
  3  5  1  0
  5  6  1  0
  6  7  1  0
  7  8  1  0
  8  9  2  0
  8 10  1  0
 10 11  1  6
 10 12  1  0
 12 13  1  1
 12 14  1  0
 14 15  1  0
 15 16  1  6
 15 17  1  0
 15 20  1  0
 17 18  1  0
 18 19  1  0
 19 20  1  0
M  END
