
     RDKit          3D

 20 21  0  0  0  0  0  0  0  0999 V2000
   -5.0890   -0.3990    2.3280 N   0  0  0  0  0  0  0  0  0  0  0  0
   -4.8240    0.2540    1.0720 C   0  0  2  0  0  0  0  0  0  0  0  0
   -5.7670   -0.2610    0.1530 O   0  0  0  0  0  0  0  0  0  0  0  0
   -5.3060   -1.5690    0.0540 C   0  0  0  0  0  0  0  0  0  0  0  0
   -3.9500   -1.4480   -0.1890 O   0  0  0  0  0  0  0  0  0  0  0  0
   -3.5450   -0.2470    0.4130 C   0  0  1  0  0  0  0  0  0  0  0  0
   -3.2080    0.6980   -0.6960 C   0  0  2  0  0  0  0  0  0  0  0  0
   -4.3370    0.9180   -1.5150 O   0  0  0  0  0  0  0  0  0  0  0  0
   -2.0440    0.2180   -1.5100 C   0  0  0  0  0  0  0  0  0  0  0  0
   -0.8150    0.0920   -0.7140 C   0  0  0  0  0  0  0  0  0  0  0  0
   -0.8100    0.4470    0.4900 O   0  0  0  0  0  0  0  0  0  0  0  0
    0.3660   -0.4100   -1.2330 O   0  0  0  0  0  0  0  0  0  0  0  0
    1.5650   -0.5480   -0.5240 C   0  0  0  0  0  0  0  0  0  0  0  0
    2.0430    0.8130   -0.0830 C   0  0  0  0  0  0  0  0  0  0  0  0
    3.2350    0.7810    0.6310 O   0  0  0  0  0  0  0  0  0  0  0  0
    4.3140    0.2750   -0.0260 C   0  0  1  0  0  0  0  0  0  0  0  0
    5.4760    1.2390   -0.1310 C   0  0  0  0  0  0  0  0  0  0  0  0
    6.6510    0.2880   -0.0070 C   0  0  0  0  0  0  0  0  0  0  0  0
    6.2340   -0.5180    1.0530 O   0  0  0  0  0  0  0  0  0  0  0  0
    4.9520   -0.9060    0.6700 C   0  0  0  0  0  0  0  0  0  0  0  0
  2  1  1  1
  2  3  1  0
  2  6  1  0
  3  4  1  0
  4  5  1  0
  6  5  1  6
  6  7  1  0
  7  8  1  6
  7  9  1  0
  9 10  1  0
 10 11  2  0
 10 12  1  0
 12 13  1  0
 13 14  1  0
 14 15  1  0
 16 15  1  1
 16 17  1  0
 16 20  1  0
 17 18  1  0
 18 19  1  0
 19 20  1  0
M  END
