
     RDKit          3D

 20 20  0  0  0  0  0  0  0  0999 V2000
    5.7810    1.6130   -0.6000 C   0  0  0  0  0  0  0  0  0  0  0  0
    5.2290    0.5870    0.1570 O   0  0  0  0  0  0  0  0  0  0  0  0
    4.0930    0.0510   -0.3930 C   0  0  1  0  0  0  0  0  0  0  0  0
    4.3080   -1.4100   -0.7500 C   0  0  0  0  0  0  0  0  0  0  0  0
    4.6360   -2.1830    0.3500 O   0  0  0  0  0  0  0  0  0  0  0  0
    2.8790    0.2020    0.5000 C   0  0  0  0  0  0  0  0  0  0  0  0
    1.7550   -0.3730   -0.1350 O   0  0  0  0  0  0  0  0  0  0  0  0
    0.5140   -0.3560    0.4990 C   0  0  0  0  0  0  0  0  0  0  0  0
    0.4640    0.1860    1.6320 O   0  0  0  0  0  0  0  0  0  0  0  0
   -0.6510   -0.9090   -0.0720 N   0  0  0  0  0  0  0  0  0  0  0  0
   -1.9210   -0.8750    0.6100 C   0  0  1  0  0  0  0  0  0  0  0  0
   -1.8420   -1.5950    1.9400 C   0  0  0  0  0  0  0  0  0  0  0  0
   -2.3060    0.5820    0.7640 C   0  0  0  0  0  0  0  0  0  0  0  0
   -3.0850    0.9250   -0.4920 C   0  0  2  0  0  0  0  0  0  0  0  0
   -3.1650    2.4150   -0.7060 C   0  0  0  0  0  0  0  0  0  0  0  0
   -3.8660    2.7550   -1.8370 O   0  0  0  0  0  0  0  0  0  0  0  0
   -4.4410    0.2960   -0.3180 C   0  0  0  0  0  0  0  0  0  0  0  0
   -4.2680   -1.0150    0.0470 O   0  0  0  0  0  0  0  0  0  0  0  0
   -3.0180   -1.5280   -0.2140 C   0  0  2  0  0  0  0  0  0  0  0  0
   -3.0500   -2.8840    0.1900 O   0  0  0  0  0  0  0  0  0  0  0  0
  1  2  1  0
  2  3  1  0
  3  4  1  1
  3  6  1  0
  4  5  1  0
  6  7  1  0
  7  8  1  0
  8  9  2  0
  8 10  1  0
 10 11  1  0
 11 12  1  1
 11 13  1  0
 11 19  1  0
 13 14  1  0
 14 15  1  1
 14 17  1  0
 15 16  1  0
 17 18  1  0
 18 19  1  0
 19 20  1  1
M  END
