
     RDKit          3D

 39 42  0  0  0  0  0  0  0  0999 V2000
   -7.3290   -2.7940   -0.1940 C   0  0  0  0  0  0  0  0  0  0  0  0
   -6.3700   -1.8980    0.5160 C   0  0  0  0  0  0  0  0  0  0  0  0
   -6.0110   -2.1540    1.8140 C   0  0  0  0  0  0  0  0  0  0  0  0
   -5.1210   -1.3240    2.4780 C   0  0  0  0  0  0  0  0  0  0  0  0
   -4.7520   -1.6240    3.8780 C   0  0  0  0  0  0  0  0  0  0  0  0
   -4.6040   -0.2350    1.8090 C   0  0  0  0  0  0  0  0  0  0  0  0
   -4.9510    0.0450    0.4990 C   0  0  0  0  0  0  0  0  0  0  0  0
   -4.3720    1.2100   -0.2270 C   0  0  1  0  0  0  0  0  0  0  0  0
   -2.9910    1.1660   -0.2490 O   0  0  0  0  0  0  0  0  0  0  0  0
   -2.1780    2.0500    0.4230 C   0  0  0  0  0  0  0  0  0  0  0  0
   -2.5950    3.0860    1.2100 C   0  0  0  0  0  0  0  0  0  0  0  0
   -1.7220    3.9570    1.8730 C   0  0  0  0  0  0  0  0  0  0  0  0
   -0.3770    3.7480    1.7130 C   0  0  0  0  0  0  0  0  0  0  0  0
    0.1070    2.7250    0.9350 C   0  0  0  0  0  0  0  0  0  0  0  0
   -0.7650    1.8800    0.2940 C   0  0  0  0  0  0  0  0  0  0  0  0
   -0.4130    0.8410   -0.4920 O   0  0  0  0  0  0  0  0  0  0  0  0
    0.6420    0.1690   -0.9620 C   0  0  0  0  0  0  0  0  0  0  0  0
    1.5190   -0.5720    0.0230 C   0  0  1  0  0  0  0  0  0  0  0  0
    2.4480   -1.5170   -0.6870 C   0  0  0  0  0  0  0  0  0  0  0  0
    3.8170   -1.1730   -0.6230 N   0  0  0  0  0  0  0  0  0  0  0  0
    4.7350   -2.1370   -1.1200 C   0  0  0  0  0  0  0  0  0  0  0  0
    6.1160   -1.5920   -0.9530 C   0  0  0  0  0  0  0  0  0  0  0  0
    6.7060   -0.7280   -1.8410 C   0  0  0  0  0  0  0  0  0  0  0  0
    7.9900   -0.2430   -1.6550 C   0  0  0  0  0  0  0  0  0  0  0  0
    8.7290   -0.6220   -0.5500 C   0  0  0  0  0  0  0  0  0  0  0  0
   10.1130   -0.0940   -0.3590 C   0  0  0  0  0  0  0  0  0  0  0  0
   10.4770    0.7530   -1.3790 O   0  0  0  0  0  0  0  0  0  0  0  0
    8.1510   -1.4890    0.3510 C   0  0  0  0  0  0  0  0  0  0  0  0
    8.9080   -1.8600    1.4560 O   0  0  0  0  0  0  0  0  0  0  0  0
    6.8700   -1.9600    0.1470 C   0  0  0  0  0  0  0  0  0  0  0  0
    4.2680   -0.5140    0.5540 C   0  0  0  0  0  0  0  0  0  0  0  0
    3.3440    0.7030    0.7170 C   0  0  0  0  0  0  0  0  0  0  0  0
    2.0910    0.2060    0.9610 O   0  0  0  0  0  0  0  0  0  0  0  0
   -4.9820    1.2820   -1.5770 C   0  0  0  0  0  0  0  0  0  0  0  0
   -4.1770    1.1630   -2.5620 O   0  0  0  0  0  0  0  0  0  0  0  0
   -6.3400    1.4700   -1.8650 N   0  0  0  0  0  0  0  0  0  0  0  0
   -6.8890    1.5380   -3.2000 C   0  0  0  0  0  0  0  0  0  0  0  0
   -8.3170    1.7360   -3.1000 N   0  0  0  0  0  0  0  0  0  0  0  0
   -5.8270   -0.7870   -0.1290 C   0  0  0  0  0  0  0  0  0  0  0  0
  1  2  1  0
  2  3  2  0
  2 39  1  0
  3  4  1  0
  4  5  1  0
  4  6  2  0
  6  7  1  0
  7  8  1  0
  7 39  2  0
  8  9  1  6
  8 34  1  0
  9 10  1  0
 10 11  2  0
 10 15  1  0
 11 12  1  0
 12 13  2  0
 13 14  1  0
 14 15  2  0
 15 16  1  0
 16 17  1  0
 18 17  1  6
 18 19  1  0
 18 33  1  0
 19 20  1  0
 20 21  1  0
 20 31  1  0
 21 22  1  0
 22 23  2  0
 22 30  1  0
 23 24  1  0
 24 25  2  0
 25 26  1  0
 25 28  1  0
 26 27  1  0
 28 29  1  0
 28 30  2  0
 31 32  1  0
 32 33  1  0
 34 35  2  0
 34 36  1  0
 36 37  1  0
 37 38  1  0
M  END
