
     RDKit          3D

 39 42  0  0  0  0  0  0  0  0999 V2000
    8.2840    1.1920    2.2650 C   0  0  0  0  0  0  0  0  0  0  0  0
    8.8000    0.5600    1.0960 N   0  0  0  0  0  0  0  0  0  0  0  0
    8.1240    0.8830   -0.1310 C   0  0  1  0  0  0  0  0  0  0  0  0
    7.9510    2.2680   -0.2710 O   0  0  0  0  0  0  0  0  0  0  0  0
    9.0020    0.3370   -1.2560 C   0  0  0  0  0  0  0  0  0  0  0  0
    8.7320   -1.1060   -1.5140 C   0  0  0  0  0  0  0  0  0  0  0  0
    8.1150   -1.8410   -0.3670 C   0  0  0  0  0  0  0  0  0  0  0  0
    6.8790   -1.2000    0.1670 C   0  0  0  0  0  0  0  0  0  0  0  0
    6.7800    0.2150   -0.2860 C   0  0  2  0  0  0  0  0  0  0  0  0
    6.4880    0.1950   -1.6700 O   0  0  0  0  0  0  0  0  0  0  0  0
    5.6730    0.9870    0.3720 C   0  0  0  0  0  0  0  0  0  0  0  0
    4.3750    0.3720    0.1530 N   0  0  0  0  0  0  0  0  0  0  0  0
    3.2640    1.0330    0.7410 C   0  0  0  0  0  0  0  0  0  0  0  0
    3.4280    2.1050    1.4180 O   0  0  0  0  0  0  0  0  0  0  0  0
    1.9210    0.5560    0.6200 N   0  0  0  0  0  0  0  0  0  0  0  0
    0.8450    1.2890    1.2510 C   0  0  0  0  0  0  0  0  0  0  0  0
   -0.5140    0.6550    1.0250 C   0  0  0  0  0  0  0  0  0  0  0  0
   -0.7840    0.6210   -0.4450 C   0  0  0  0  0  0  0  0  0  0  0  0
   -2.0000    0.0800   -0.7770 O   0  0  0  0  0  0  0  0  0  0  0  0
   -3.2450    0.5140   -0.5300 C   0  0  0  0  0  0  0  0  0  0  0  0
   -3.5160    1.6860    0.1040 C   0  0  0  0  0  0  0  0  0  0  0  0
   -4.8150    2.1340    0.3670 C   0  0  0  0  0  0  0  0  0  0  0  0
   -5.8530    1.3450   -0.0410 C   0  0  0  0  0  0  0  0  0  0  0  0
   -7.2290    1.7600    0.2040 C   0  0  0  0  0  0  0  0  0  0  0  0
   -7.5630    3.0840    0.2170 C   0  0  0  0  0  0  0  0  0  0  0  0
   -8.8540    3.5090    0.4460 C   0  0  0  0  0  0  0  0  0  0  0  0
   -9.8460    2.5660    0.6720 C   0  0  0  0  0  0  0  0  0  0  0  0
   -9.4900    1.2470    0.6550 C   0  0  0  0  0  0  0  0  0  0  0  0
   -8.2040    0.8190    0.4260 C   0  0  0  0  0  0  0  0  0  0  0  0
   -5.5950    0.1390   -0.6950 C   0  0  0  0  0  0  0  0  0  0  0  0
   -4.3240   -0.3060   -0.9540 C   0  0  0  0  0  0  0  0  0  0  0  0
   -3.9960   -1.4680   -1.5830 O   0  0  0  0  0  0  0  0  0  0  0  0
   -4.8030   -2.4690   -2.0910 C   0  0  0  0  0  0  0  0  0  0  0  0
   -5.6670   -3.1730   -1.1270 C   0  0  0  0  0  0  0  0  0  0  0  0
   -6.9820   -3.2110   -1.2030 C   0  0  0  0  0  0  0  0  0  0  0  0
   -7.8640   -3.9080   -0.2520 C   0  0  0  0  0  0  0  0  0  0  0  0
   -7.1560   -4.5560    0.7810 O   0  0  0  0  0  0  0  0  0  0  0  0
   -5.7850   -4.5380    0.8910 C   0  0  0  0  0  0  0  0  0  0  0  0
   -5.0660   -3.8950    0.0070 C   0  0  0  0  0  0  0  0  0  0  0  0
  1  2  1  0
  2  3  1  0
  3  4  1  6
  3  5  1  0
  3  9  1  0
  5  6  1  0
  6  7  1  0
  7  8  1  0
  8  9  1  0
  9 10  1  6
  9 11  1  0
 11 12  1  0
 12 13  1  0
 13 14  2  0
 13 15  1  0
 15 16  1  0
 16 17  1  0
 17 18  1  0
 18 19  1  0
 19 20  1  0
 20 21  2  0
 20 31  1  0
 21 22  1  0
 22 23  2  0
 23 24  1  0
 23 30  1  0
 24 25  2  0
 24 29  1  0
 25 26  1  0
 26 27  2  0
 27 28  1  0
 28 29  2  0
 30 31  2  0
 31 32  1  0
 32 33  1  0
 33 34  1  0
 34 35  2  0
 34 39  1  0
 35 36  1  0
 36 37  1  0
 37 38  1  0
 38 39  2  0
M  END
