
     RDKit          3D

 39 42  0  0  0  0  0  0  0  0999 V2000
   -2.4300    7.0170    2.0350 C   0  0  0  0  0  0  0  0  0  0  0  0
   -2.3310    5.5610    1.6780 C   0  0  0  0  0  0  0  0  0  0  0  0
   -1.2180    4.8330    2.0370 C   0  0  0  0  0  0  0  0  0  0  0  0
   -1.1210    3.5150    1.7200 C   0  0  0  0  0  0  0  0  0  0  0  0
   -2.1620    2.9070    1.0260 C   0  0  0  0  0  0  0  0  0  0  0  0
   -2.0030    1.5220    0.6840 N   0  0  0  0  0  0  0  0  0  0  0  0
   -3.0730    0.6670    0.5520 C   0  0  0  0  0  0  0  0  0  0  0  0
   -4.2550    1.1500    0.7640 O   0  0  0  0  0  0  0  0  0  0  0  0
   -2.9830   -0.7450    0.1910 C   0  0  0  0  0  0  0  0  0  0  0  0
   -4.0870   -1.5730    0.1610 N   0  0  0  0  0  0  0  0  0  0  0  0
   -3.7360   -2.8060   -0.2100 C   0  0  0  0  0  0  0  0  0  0  0  0
   -4.4440   -3.9990   -0.3980 C   0  0  0  0  0  0  0  0  0  0  0  0
   -3.7910   -5.1500   -0.7980 C   0  0  0  0  0  0  0  0  0  0  0  0
   -2.4300   -5.1740   -1.0270 C   0  0  0  0  0  0  0  0  0  0  0  0
   -1.7410   -4.0100   -0.8430 C   0  0  0  0  0  0  0  0  0  0  0  0
   -2.3890   -2.8350   -0.4380 C   0  0  0  0  0  0  0  0  0  0  0  0
   -1.9250   -1.5340   -0.1830 C   0  0  0  0  0  0  0  0  0  0  0  0
   -0.4960   -1.1620   -0.3320 C   0  0  0  0  0  0  0  0  0  0  0  0
   -0.2950   -0.3960   -1.6010 C   0  0  0  0  0  0  0  0  0  0  0  0
    1.1270    0.0190   -1.8190 C   0  0  0  0  0  0  0  0  0  0  0  0
    1.9190   -0.3430   -0.9190 O   0  0  0  0  0  0  0  0  0  0  0  0
    1.5110    0.7510   -2.9490 N   0  0  0  0  0  0  0  0  0  0  0  0
    2.8300    1.1900   -3.2310 C   0  0  0  0  0  0  0  0  0  0  0  0
    3.4640    2.1430   -2.2600 C   0  0  1  0  0  0  0  0  0  0  0  0
    2.6760    3.2850   -2.0750 O   0  0  0  0  0  0  0  0  0  0  0  0
    3.9320    1.5320   -1.0150 C   0  0  0  0  0  0  0  0  0  0  0  0
    4.7490    0.5540   -1.1270 O   0  0  0  0  0  0  0  0  0  0  0  0
    3.5560    1.9380    0.2490 O   0  0  0  0  0  0  0  0  0  0  0  0
    4.0430    1.3110    1.4180 C   0  0  0  0  0  0  0  0  0  0  0  0
    5.5450    1.4190    1.5160 C   0  0  0  0  0  0  0  0  0  0  0  0
    5.9120    2.8870    1.5480 C   0  0  2  0  0  0  0  0  0  0  0  0
    7.4120    2.9940    1.6460 C   0  0  0  0  0  0  0  0  0  0  0  0
    5.3950    3.4620    2.7210 O   0  0  0  0  0  0  0  0  0  0  0  0
   -1.8250   -6.4620   -1.4540 C   0  0  0  0  0  0  0  0  0  0  0  0
   -2.3040   -7.5160   -0.4790 C   0  0  0  0  0  0  0  0  0  0  0  0
   -3.7750   -7.4910   -0.2240 C   0  0  0  0  0  0  0  0  0  0  0  0
   -4.5220   -6.4280   -1.0040 C   0  0  0  0  0  0  0  0  0  0  0  0
   -3.2720    3.5900    0.6550 C   0  0  0  0  0  0  0  0  0  0  0  0
   -3.3310    4.9440    1.0020 C   0  0  0  0  0  0  0  0  0  0  0  0
  1  2  1  0
  2  3  2  0
  2 39  1  0
  3  4  1  0
  4  5  2  0
  5  6  1  0
  5 38  1  0
  6  7  1  0
  7  8  2  0
  7  9  1  0
  9 10  1  0
  9 17  2  0
 10 11  1  0
 11 12  2  0
 11 16  1  0
 12 13  1  0
 13 14  2  0
 13 37  1  0
 14 15  1  0
 14 34  1  0
 15 16  2  0
 16 17  1  0
 17 18  1  0
 18 19  1  0
 19 20  1  0
 20 21  2  0
 20 22  1  0
 22 23  1  0
 23 24  1  0
 24 25  1  1
 24 26  1  0
 26 27  2  0
 26 28  1  0
 28 29  1  0
 29 30  1  0
 30 31  1  0
 31 32  1  1
 31 33  1  0
 34 35  1  0
 35 36  1  0
 36 37  1  0
 38 39  2  0
M  END
