
     RDKit          3D

 39 42  0  0  0  0  0  0  0  0999 V2000
   -2.1120    2.8350    2.6190 N   0  0  0  0  0  0  0  0  0  0  0  0
   -2.9070    1.7350    2.0630 C   0  0  0  0  0  0  0  0  0  0  0  0
   -2.4870    0.9710    1.1970 C   0  0  0  0  0  0  0  0  0  0  0  0
   -2.2760   -0.0420    0.2150 C   0  0  2  0  0  0  0  0  0  0  0  0
   -1.6810    0.5040   -1.0620 C   0  0  0  0  0  0  0  0  0  0  0  0
   -0.4330    0.5170   -1.3820 C   0  0  0  0  0  0  0  0  0  0  0  0
    0.7170    0.0470   -0.6680 C   0  0  0  0  0  0  0  0  0  0  0  0
    1.8330    0.5500   -1.1300 C   0  0  0  0  0  0  0  0  0  0  0  0
    3.1970    0.2900   -0.6410 C   0  0  0  0  0  0  0  0  0  0  0  0
    4.1670    0.8670   -1.2190 O   0  0  0  0  0  0  0  0  0  0  0  0
    3.4630   -0.5700    0.4340 N   0  0  0  0  0  0  0  0  0  0  0  0
    4.7260   -0.8980    0.9740 C   0  0  0  0  0  0  0  0  0  0  0  0
    5.9300   -0.4370    0.5250 C   0  0  0  0  0  0  0  0  0  0  0  0
    7.1390   -0.8190    1.1190 C   0  0  0  0  0  0  0  0  0  0  0  0
    8.4300   -0.3600    0.6330 C   0  0  0  0  0  0  0  0  0  0  0  0
    9.4690   -0.7350    1.2130 O   0  0  0  0  0  0  0  0  0  0  0  0
    8.5500    0.4870   -0.4650 O   0  0  0  0  0  0  0  0  0  0  0  0
    9.7750    0.9550   -0.9780 C   0  0  0  0  0  0  0  0  0  0  0  0
   10.5240    1.7870    0.0350 C   0  0  0  0  0  0  0  0  0  0  0  0
   11.7390    2.2380   -0.4930 O   0  0  0  0  0  0  0  0  0  0  0  0
    7.1110   -1.6880    2.1910 C   0  0  0  0  0  0  0  0  0  0  0  0
    5.9020   -2.1370    2.6260 C   0  0  0  0  0  0  0  0  0  0  0  0
    4.7380   -1.7560    2.0370 N   0  0  0  0  0  0  0  0  0  0  0  0
    1.4880    1.4750   -2.2330 C   0  0  0  0  0  0  0  0  0  0  0  0
    0.0990    1.0700   -2.6800 C   0  0  0  0  0  0  0  0  0  0  0  0
   -3.5330   -0.6970   -0.2470 C   0  0  0  0  0  0  0  0  0  0  0  0
   -3.7510   -2.0410   -0.0590 C   0  0  0  0  0  0  0  0  0  0  0  0
   -4.8840   -2.7060   -0.5480 C   0  0  0  0  0  0  0  0  0  0  0  0
   -5.8350   -1.9850   -1.2550 C   0  0  0  0  0  0  0  0  0  0  0  0
   -5.6410   -0.6330   -1.4550 C   0  0  0  0  0  0  0  0  0  0  0  0
   -4.5110    0.0050   -0.9610 C   0  0  0  0  0  0  0  0  0  0  0  0
   -6.6940    0.0610   -2.2350 C   0  0  0  0  0  0  0  0  0  0  0  0
   -8.0440   -0.2950   -1.6380 C   0  0  0  0  0  0  0  0  0  0  0  0
   -8.2450   -1.7800   -1.5050 C   0  0  0  0  0  0  0  0  0  0  0  0
   -7.0490   -2.6090   -1.8400 C   0  0  0  0  0  0  0  0  0  0  0  0
   -4.2340    1.6250    2.7380 C   0  0  0  0  0  0  0  0  0  0  0  0
   -4.8400    0.3070    2.7540 C   0  0  0  0  0  0  0  0  0  0  0  0
   -4.1030   -0.7310    2.8170 O   0  0  0  0  0  0  0  0  0  0  0  0
   -6.2150    0.0880    2.7030 O   0  0  0  0  0  0  0  0  0  0  0  0
  1  2  1  0
  2  3  2  3
  2 36  1  0
  4  3  1  1
  4  5  1  0
  4 26  1  0
  5  6  2  3
  6  7  1  0
  6 25  1  0
  7  8  2  0
  8  9  1  0
  8 24  1  0
  9 10  2  0
  9 11  1  0
 11 12  1  0
 12 13  2  0
 12 23  1  0
 13 14  1  0
 14 15  1  0
 14 21  2  0
 15 16  2  0
 15 17  1  0
 17 18  1  0
 18 19  1  0
 19 20  1  0
 21 22  1  0
 22 23  2  0
 24 25  1  0
 26 27  2  0
 26 31  1  0
 27 28  1  0
 28 29  2  0
 29 30  1  0
 29 35  1  0
 30 31  2  0
 30 32  1  0
 32 33  1  0
 33 34  1  0
 34 35  1  0
 36 37  1  0
 37 38  2  0
 37 39  1  0
M  END
