
     RDKit          3D

 40 42  0  0  0  0  0  0  0  0999 V2000
   -5.9230    2.8230   -2.2980 C   0  0  0  0  0  0  0  0  0  0  0  0
   -6.3780    1.4970   -1.7900 C   0  0  1  0  0  0  0  0  0  0  0  0
   -5.6490    0.3220   -2.3660 C   0  0  0  0  0  0  0  0  0  0  0  0
   -4.7600   -0.2780   -1.3040 N   0  0  0  0  0  0  0  0  0  0  0  0
   -3.4200    0.0440   -1.4030 C   0  0  0  0  0  0  0  0  0  0  0  0
   -3.1010    0.7560   -2.4270 O   0  0  0  0  0  0  0  0  0  0  0  0
   -2.3030   -0.3090   -0.5110 C   0  0  0  0  0  0  0  0  0  0  0  0
   -1.0410    0.0080   -0.7020 C   0  0  0  0  0  0  0  0  0  0  0  0
   -0.4190    0.7680   -1.7980 C   0  0  0  0  0  0  0  0  0  0  0  0
    0.5570    0.0210   -2.5620 N   0  0  0  0  0  0  0  0  0  0  0  0
    1.7470   -0.5250   -2.0440 C   0  0  0  0  0  0  0  0  0  0  0  0
    2.0040   -0.3610   -0.8280 O   0  0  0  0  0  0  0  0  0  0  0  0
    2.6410   -1.2420   -2.8500 O   0  0  0  0  0  0  0  0  0  0  0  0
    3.8270   -1.7800   -2.3320 C   0  0  0  0  0  0  0  0  0  0  0  0
    4.7050   -0.6670   -1.8170 C   0  0  0  0  0  0  0  0  0  0  0  0
    5.9780   -1.2840   -1.2700 C   0  0  0  0  0  0  0  0  0  0  0  0
    6.8850   -0.2020   -0.7380 C   0  0  0  0  0  0  0  0  0  0  0  0
    6.5080    0.9850   -0.8040 O   0  0  0  0  0  0  0  0  0  0  0  0
    8.1360   -0.4990   -0.1710 N   0  0  0  0  0  0  0  0  0  0  0  0
    9.0770    0.3920    0.3610 C   0  0  0  0  0  0  0  0  0  0  0  0
    8.9510    1.7520    0.4360 C   0  0  0  0  0  0  0  0  0  0  0  0
    9.9410    2.5760    0.9870 C   0  0  0  0  0  0  0  0  0  0  0  0
   11.0920    2.0010    1.4750 C   0  0  0  0  0  0  0  0  0  0  0  0
   12.0970    2.7940    2.0300 O   0  0  0  0  0  0  0  0  0  0  0  0
   11.2580    0.6480    1.4180 C   0  0  0  0  0  0  0  0  0  0  0  0
   10.2670   -0.1260    0.8720 C   0  0  0  0  0  0  0  0  0  0  0  0
   10.4770   -1.4680    0.8380 F   0  0  0  0  0  0  0  0  0  0  0  0
   -0.2560   -0.5030    0.3500 O   0  0  0  0  0  0  0  0  0  0  0  0
   -1.0770   -0.7610    1.4390 C   0  0  2  0  0  0  0  0  0  0  0  0
   -1.1490    0.5060    2.2650 C   0  0  0  0  0  0  0  0  0  0  0  0
   -0.6020   -1.9170    2.2840 C   0  0  0  0  0  0  0  0  0  0  0  0
   -2.4040   -1.0420    0.7780 C   0  0  0  0  0  0  0  0  0  0  0  0
   -5.4610   -1.1160   -0.3830 C   0  0  0  0  0  0  0  0  0  0  0  0
   -6.4760   -0.3670    0.4380 C   0  0  1  0  0  0  0  0  0  0  0  0
   -6.4050   -0.6220    1.9050 C   0  0  2  0  0  0  0  0  0  0  0  0
   -6.6030   -1.9690    2.2210 O   0  0  0  0  0  0  0  0  0  0  0  0
   -7.3780    0.2440    2.6870 C   0  0  0  0  0  0  0  0  0  0  0  0
   -8.7970   -0.0020    2.2730 C   0  0  0  0  0  0  0  0  0  0  0  0
   -9.1020   -1.3370    2.5000 F   0  0  0  0  0  0  0  0  0  0  0  0
   -6.2820    1.4060    0.0400 S   0  0  0  0  0  0  0  0  0  0  0  0
  2  1  1  6
  2  3  1  0
  2 40  1  0
  3  4  1  0
  4  5  1  0
  4 33  1  0
  5  6  2  0
  5  7  1  0
  7  8  2  0
  7 32  1  0
  8  9  1  0
  8 28  1  0
  9 10  1  0
 10 11  1  0
 11 12  2  0
 11 13  1  0
 13 14  1  0
 14 15  1  0
 15 16  1  0
 16 17  1  0
 17 18  2  0
 17 19  1  0
 19 20  1  0
 20 21  2  0
 20 26  1  0
 21 22  1  0
 22 23  2  0
 23 24  1  0
 23 25  1  0
 25 26  2  0
 26 27  1  0
 28 29  1  0
 29 30  1  1
 29 31  1  0
 29 32  1  0
 34 33  1  6
 34 35  1  0
 34 40  1  0
 35 36  1  6
 35 37  1  0
 37 38  1  0
 38 39  1  0
M  END
