
     RDKit          3D

 40 42  0  0  0  0  0  0  0  0999 V2000
   -8.0440    2.6610   -0.9420 C   0  0  0  0  0  0  0  0  0  0  0  0
   -7.4190    1.8610   -2.0610 C   0  0  0  0  0  0  0  0  0  0  0  0
   -6.7400    0.7230   -1.4790 N   0  0  0  0  0  0  0  0  0  0  0  0
   -5.6770    0.8640   -0.5410 C   0  0  0  0  0  0  0  0  0  0  0  0
   -5.3840    2.0820   -0.2740 O   0  0  0  0  0  0  0  0  0  0  0  0
   -4.9620   -0.2690    0.0790 C   0  0  2  0  0  0  0  0  0  0  0  0
   -3.9480    0.2920    0.9740 N   0  0  0  0  0  0  0  0  0  0  0  0
   -2.7520   -0.3930    1.2460 C   0  0  0  0  0  0  0  0  0  0  0  0
   -2.3840   -0.4720    2.4650 O   0  0  0  0  0  0  0  0  0  0  0  0
   -1.9850   -0.9870    0.1230 C   0  0  2  0  0  0  0  0  0  0  0  0
   -1.6410   -2.4080    0.5270 C   0  0  0  0  0  0  0  0  0  0  0  0
   -0.8370   -0.2420   -0.2090 O   0  0  0  0  0  0  0  0  0  0  0  0
    0.1880    0.0290    0.6610 C   0  0  0  0  0  0  0  0  0  0  0  0
    1.2740   -0.8030    0.7250 C   0  0  0  0  0  0  0  0  0  0  0  0
    1.4760   -2.2540   -0.3370 S   0  0  0  0  0  0  0  0  0  0  0  0
    3.0090   -3.0870    0.0400 C   0  0  0  0  0  0  0  0  0  0  0  0
    4.2310   -2.3580   -0.2800 C   0  0  0  0  0  0  0  0  0  0  0  0
    5.3260   -2.9250    0.0170 O   0  0  0  0  0  0  0  0  0  0  0  0
    4.3420   -1.0890   -0.8850 N   0  0  0  0  0  0  0  0  0  0  0  0
    5.6170   -0.4760   -1.1440 C   0  0  0  0  0  0  0  0  0  0  0  0
    6.0730    0.6800   -0.7060 C   0  0  0  0  0  0  0  0  0  0  0  0
    7.4150    0.9230   -1.2040 C   0  0  0  0  0  0  0  0  0  0  0  0
    7.8290   -0.0980   -1.9750 C   0  0  0  0  0  0  0  0  0  0  0  0
    9.1180   -0.1660   -2.6240 C   0  0  0  0  0  0  0  0  0  0  0  0
    9.5600   -1.1330   -3.3740 C   0  0  0  0  0  0  0  0  0  0  0  0
   10.8140   -1.0550   -3.9240 F   0  0  0  0  0  0  0  0  0  0  0  0
    8.8160   -2.2130   -3.6240 F   0  0  0  0  0  0  0  0  0  0  0  0
    6.7130   -1.0160   -1.9670 C   0  0  0  0  0  0  0  0  0  0  0  0
    6.6210   -2.1210   -2.5470 O   0  0  0  0  0  0  0  0  0  0  0  0
    2.2820   -0.4840    1.6330 C   0  0  0  0  0  0  0  0  0  0  0  0
    2.1890    0.6310    2.4350 C   0  0  0  0  0  0  0  0  0  0  0  0
    1.1030    1.4810    2.3820 C   0  0  0  0  0  0  0  0  0  0  0  0
    1.0170    2.6090    3.1970 O   0  0  0  0  0  0  0  0  0  0  0  0
    2.0760    2.8870    4.1030 C   0  0  0  0  0  0  0  0  0  0  0  0
    0.1130    1.1670    1.4910 C   0  0  0  0  0  0  0  0  0  0  0  0
   -1.0140    2.0000    1.3920 O   0  0  0  0  0  0  0  0  0  0  0  0
   -0.9390    3.0640    0.4500 C   0  0  0  0  0  0  0  0  0  0  0  0
   -2.8680   -0.9690   -1.1030 C   0  0  0  0  0  0  0  0  0  0  0  0
   -4.3060   -1.2030   -0.9100 C   0  0  1  0  0  0  0  0  0  0  0  0
   -4.6080   -2.6530   -0.6120 C   0  0  0  0  0  0  0  0  0  0  0  0
  1  2  1  0
  2  3  1  0
  3  4  1  0
  4  5  2  0
  6  4  1  6
  6  7  1  0
  6 39  1  0
  7  8  1  0
  8  9  2  0
  8 10  1  0
 10 11  1  1
 10 12  1  0
 10 38  1  0
 12 13  1  0
 13 14  1  0
 13 35  2  0
 14 15  1  0
 14 30  2  0
 15 16  1  0
 16 17  1  0
 17 18  2  0
 17 19  1  0
 19 20  1  0
 20 21  2  0
 20 28  1  0
 21 22  1  0
 22 23  2  0
 23 24  1  0
 23 28  1  0
 24 25  2  3
 25 26  1  0
 25 27  1  0
 28 29  2  0
 30 31  1  0
 31 32  2  0
 32 33  1  0
 32 35  1  0
 33 34  1  0
 35 36  1  0
 36 37  1  0
 38 39  1  0
 39 40  1  1
M  END
