
     RDKit          3D

 40 42  0  0  0  0  0  0  0  0999 V2000
   -6.1830   -0.7800   -1.8940 C   0  0  0  0  0  0  0  0  0  0  0  0
   -6.5820   -1.8120   -1.1910 C   0  0  0  0  0  0  0  0  0  0  0  0
   -5.7100   -2.9790   -1.0250 C   0  0  0  0  0  0  0  0  0  0  0  0
   -4.2790   -2.9370   -1.3830 C   0  0  0  0  0  0  0  0  0  0  0  0
   -3.6000   -1.9110   -0.5910 N   0  0  0  0  0  0  0  0  0  0  0  0
   -2.2050   -1.6810   -0.7590 C   0  0  0  0  0  0  0  0  0  0  0  0
   -1.5290   -2.3550   -1.5910 O   0  0  0  0  0  0  0  0  0  0  0  0
   -1.5780   -0.6350    0.0670 C   0  0  1  0  0  0  0  0  0  0  0  0
   -2.2670    0.6730   -0.2210 C   0  0  0  0  0  0  0  0  0  0  0  0
   -2.1410    1.0560   -1.6900 C   0  0  0  0  0  0  0  0  0  0  0  0
   -1.8470   -0.9830    1.5220 C   0  0  0  0  0  0  0  0  0  0  0  0
   -0.4210   -1.8360    2.2450 S   0  0  0  0  0  0  0  0  0  0  0  0
    1.0420   -0.7360    1.8870 C   0  0  1  0  0  0  0  0  0  0  0  0
    2.1160   -1.6430    1.4100 C   0  0  0  0  0  0  0  0  0  0  0  0
    3.4120   -0.9940    1.1330 C   0  0  0  0  0  0  0  0  0  0  0  0
    3.7110    0.1820    1.4770 O   0  0  0  0  0  0  0  0  0  0  0  0
    4.4600   -1.6840    0.4260 N   0  0  0  0  0  0  0  0  0  0  0  0
    5.7240   -1.0830    0.1420 C   0  0  0  0  0  0  0  0  0  0  0  0
    6.5870   -2.0410   -0.5950 C   0  0  0  0  0  0  0  0  0  0  0  0
    6.1730   -3.2020   -0.8860 O   0  0  0  0  0  0  0  0  0  0  0  0
    7.8760   -1.7330   -1.0050 O   0  0  0  0  0  0  0  0  0  0  0  0
    8.6610   -2.6870   -1.7090 C   0  0  0  0  0  0  0  0  0  0  0  0
    0.4790    0.2240    0.8980 C   0  0  1  0  0  0  0  0  0  0  0  0
    1.2870    1.3450    0.4530 C   0  0  0  0  0  0  0  0  0  0  0  0
    1.9480    1.3360   -0.7860 C   0  0  0  0  0  0  0  0  0  0  0  0
    2.7080    2.4130   -1.1930 C   0  0  0  0  0  0  0  0  0  0  0  0
    2.8330    3.5240   -0.3860 C   0  0  0  0  0  0  0  0  0  0  0  0
    2.1990    3.5740    0.8410 C   0  0  0  0  0  0  0  0  0  0  0  0
    2.3230    4.6940    1.6600 O   0  0  0  0  0  0  0  0  0  0  0  0
    3.0780    5.8120    1.3000 C   0  0  0  0  0  0  0  0  0  0  0  0
    3.0230    6.8570    2.3810 C   0  0  0  0  0  0  0  0  0  0  0  0
    3.7730    7.9790    2.0360 O   0  0  0  0  0  0  0  0  0  0  0  0
    1.4510    2.4840    1.2140 C   0  0  0  0  0  0  0  0  0  0  0  0
   -0.1710   -0.4840   -0.1800 N   0  0  0  0  0  0  0  0  0  0  0  0
   -6.2410   -4.0790   -0.5440 C   0  0  0  0  0  0  0  0  0  0  0  0
   -5.5220   -5.2170   -0.3510 F   0  0  0  0  0  0  0  0  0  0  0  0
   -7.6760   -4.1090   -0.1880 C   0  0  0  0  0  0  0  0  0  0  0  0
   -8.4330   -3.1380   -0.7950 O   0  0  0  0  0  0  0  0  0  0  0  0
   -7.9140   -1.8580   -0.5330 C   0  0  2  0  0  0  0  0  0  0  0  0
   -8.7220   -0.9250   -1.1210 F   0  0  0  0  0  0  0  0  0  0  0  0
  1  2  2  0
  2  3  1  0
  2 39  1  0
  3  4  1  0
  3 35  2  0
  4  5  1  0
  5  6  1  0
  6  7  2  0
  6  8  1  0
  8  9  1  6
  8 11  1  0
  8 34  1  0
  9 10  1  0
 11 12  1  0
 12 13  1  0
 13 14  1  6
 13 23  1  0
 14 15  1  0
 15 16  2  0
 15 17  1  0
 17 18  1  0
 18 19  1  0
 19 20  2  0
 19 21  1  0
 21 22  1  0
 23 24  1  6
 23 34  1  0
 24 25  2  0
 24 33  1  0
 25 26  1  0
 26 27  2  0
 27 28  1  0
 28 29  1  0
 28 33  2  0
 29 30  1  0
 30 31  1  0
 31 32  1  0
 35 36  1  0
 35 37  1  0
 37 38  1  0
 38 39  1  0
 39 40  1  6
M  END
