
     RDKit          3D

 40 42  0  0  0  0  0  0  0  0999 V2000
   -7.5740   -0.4860    1.2530 C   0  0  0  0  0  0  0  0  0  0  0  0
   -6.8040    0.0110    0.0110 C   0  0  2  0  0  0  0  0  0  0  0  0
   -7.8600    0.5760   -0.9340 C   0  0  0  0  0  0  0  0  0  0  0  0
   -6.0860   -1.1410   -0.5560 C   0  0  0  0  0  0  0  0  0  0  0  0
   -4.7640   -1.3160   -0.3280 O   0  0  0  0  0  0  0  0  0  0  0  0
   -3.9780   -0.1780   -0.2910 C   0  0  2  0  0  0  0  0  0  0  0  0
   -3.8480    0.3740   -1.6820 C   0  0  0  0  0  0  0  0  0  0  0  0
   -2.6030   -0.5040    0.2390 C   0  0  0  0  0  0  0  0  0  0  0  0
   -1.7400    0.7150    0.2400 C   0  0  0  0  0  0  0  0  0  0  0  0
   -2.1590    1.7370   -0.3480 O   0  0  0  0  0  0  0  0  0  0  0  0
   -0.5170    0.7580    0.8560 O   0  0  0  0  0  0  0  0  0  0  0  0
    0.3860    1.8150    0.9220 C   0  0  0  0  0  0  0  0  0  0  0  0
    1.0160    2.2630   -0.3340 C   0  0  2  0  0  0  0  0  0  0  0  0
   -0.0010    2.7460   -1.2050 O   0  0  0  0  0  0  0  0  0  0  0  0
    1.7870    1.2980   -1.1530 C   0  0  0  0  0  0  0  0  0  0  0  0
    2.8820    0.5940   -0.5760 N   0  0  0  0  0  0  0  0  0  0  0  0
    2.6250   -0.4940    0.2540 C   0  0  0  0  0  0  0  0  0  0  0  0
    2.1880   -1.6600   -0.5950 C   0  0  0  0  0  0  0  0  0  0  0  0
    2.1890   -1.6400   -1.9590 C   0  0  0  0  0  0  0  0  0  0  0  0
    1.8110   -2.7670   -2.6980 C   0  0  0  0  0  0  0  0  0  0  0  0
    1.8240   -2.7010   -4.0330 F   0  0  0  0  0  0  0  0  0  0  0  0
    1.4350   -3.9100   -2.0630 C   0  0  0  0  0  0  0  0  0  0  0  0
    1.4280   -3.9550   -0.6640 C   0  0  0  0  0  0  0  0  0  0  0  0
    1.0540   -5.0990    0.0210 O   0  0  0  0  0  0  0  0  0  0  0  0
    1.8030   -2.8320    0.0290 C   0  0  0  0  0  0  0  0  0  0  0  0
    1.7940   -2.8760    1.4010 F   0  0  0  0  0  0  0  0  0  0  0  0
    4.1450    0.9280   -1.0400 C   0  0  0  0  0  0  0  0  0  0  0  0
    5.3500    0.3180   -0.3930 C   0  0  2  0  0  0  0  0  0  0  0  0
    5.3570   -1.0470   -0.4880 O   0  0  0  0  0  0  0  0  0  0  0  0
    5.5850    0.8600    0.9690 C   0  0  0  0  0  0  0  0  0  0  0  0
    5.8910    0.1120    1.9690 C   0  0  0  0  0  0  0  0  0  0  0  0
    6.0420   -1.3500    1.8320 C   0  0  0  0  0  0  0  0  0  0  0  0
    6.1680   -2.4880    1.7070 N   0  0  0  0  0  0  0  0  0  0  0  0
    6.0310    0.6280    3.3300 C   0  0  0  0  0  0  0  0  0  0  0  0
    5.8630    1.8670    3.6920 C   0  0  0  0  0  0  0  0  0  0  0  0
    5.5030    3.0370    2.8870 C   0  0  0  0  0  0  0  0  0  0  0  0
    5.5210    2.6230    1.1460 S   0  0  0  0  0  0  0  0  0  0  0  0
   -4.5700    0.8060    0.6660 C   0  0  0  0  0  0  0  0  0  0  0  0
   -3.8730    1.3430    1.5280 O   0  0  0  0  0  0  0  0  0  0  0  0
   -5.9480    1.0580    0.5050 N   0  0  0  0  0  0  0  0  0  0  0  0
  2  1  1  1
  2  3  1  0
  2  4  1  0
  2 40  1  0
  4  5  1  0
  5  6  1  0
  6  7  1  6
  6  8  1  0
  6 38  1  0
  8  9  1  0
  9 10  2  0
  9 11  1  0
 11 12  1  0
 12 13  1  0
 13 14  1  6
 13 15  1  0
 15 16  1  0
 16 17  1  0
 16 27  1  0
 17 18  1  0
 18 19  2  0
 18 25  1  0
 19 20  1  0
 20 21  1  0
 20 22  2  0
 22 23  1  0
 23 24  1  0
 23 25  2  0
 25 26  1  0
 27 28  1  0
 28 29  1  1
 28 30  1  0
 30 31  2  0
 30 37  1  0
 31 32  1  0
 31 34  1  0
 32 33  3  0
 34 35  2  0
 35 36  1  0
 36 37  1  0
 38 39  2  0
 38 40  1  0
M  END
