
     RDKit          3D

 40 43  0  0  0  0  0  0  0  0999 V2000
   -3.1480    2.6040    1.5070 C   0  0  0  0  0  0  0  0  0  0  0  0
   -2.1980    2.0860    0.5170 C   0  0  0  0  0  0  0  0  0  0  0  0
   -0.3580    2.3930    0.5960 S   0  0  0  0  0  0  0  0  0  0  0  0
    0.0500    1.4910   -0.8630 C   0  0  0  0  0  0  0  0  0  0  0  0
   -1.1470    1.0460   -1.2870 C   0  0  0  0  0  0  0  0  0  0  0  0
   -2.2740    1.3360   -0.6080 C   0  0  0  0  0  0  0  0  0  0  0  0
   -3.6520    0.8640   -1.0340 C   0  0  0  0  0  0  0  0  0  0  0  0
   -4.3510    1.5660   -1.8010 O   0  0  0  0  0  0  0  0  0  0  0  0
   -4.1580   -0.3360   -0.5920 O   0  0  0  0  0  0  0  0  0  0  0  0
   -5.4190   -0.7740   -0.9870 C   0  0  1  0  0  0  0  0  0  0  0  0
   -5.2920   -2.0170   -1.8860 C   0  0  0  0  0  0  0  0  0  0  0  0
   -6.3600   -1.0930    0.0910 C   0  0  0  0  0  0  0  0  0  0  0  0
   -7.4980   -1.5120   -0.2480 O   0  0  0  0  0  0  0  0  0  0  0  0
   -6.0850   -0.9670    1.4620 N   0  0  0  0  0  0  0  0  0  0  0  0
   -7.0630   -1.3080    2.4940 C   0  0  1  0  0  0  0  0  0  0  0  0
   -6.5450   -1.7440    3.7930 C   0  0  0  0  0  0  0  0  0  0  0  0
   -7.1620   -0.3430    3.6290 C   0  0  1  0  0  0  0  0  0  0  0  0
   -6.2550    0.8490    3.6940 C   0  0  2  0  0  0  0  0  0  0  0  0
   -6.4270    1.6690    2.5770 F   0  0  0  0  0  0  0  0  0  0  0  0
   -4.9450    0.4420    3.8250 F   0  0  0  0  0  0  0  0  0  0  0  0
   -1.0370    0.2130   -2.5820 C   0  0  0  0  0  0  0  0  0  0  0  0
   -0.0540    0.9620   -3.4170 C   0  0  0  0  0  0  0  0  0  0  0  0
    1.3660    0.9460   -2.8890 C   0  0  2  0  0  0  0  0  0  0  0  0
    1.9190   -0.4170   -3.0940 C   0  0  0  0  0  0  0  0  0  0  0  0
    3.2350   -0.6590   -2.6730 N   0  0  0  0  0  0  0  0  0  0  0  0
    4.3380    0.0680   -3.1930 C   0  0  0  0  0  0  0  0  0  0  0  0
    4.0590    0.9390   -4.0480 O   0  0  0  0  0  0  0  0  0  0  0  0
    5.7530   -0.2000   -2.7370 C   0  0  0  0  0  0  0  0  0  0  0  0
    5.7920   -1.2090   -1.8160 O   0  0  0  0  0  0  0  0  0  0  0  0
    7.0820   -1.4780   -1.4180 C   0  0  0  0  0  0  0  0  0  0  0  0
    7.7210   -0.2800   -0.7600 C   0  0  0  0  0  0  0  0  0  0  0  0
    6.9380    0.0960    0.4100 N   0  0  0  0  0  0  0  0  0  0  0  0
    6.7140   -0.7540    1.5140 C   0  0  0  0  0  0  0  0  0  0  0  0
    7.1970   -1.8950    1.5260 O   0  0  0  0  0  0  0  0  0  0  0  0
    5.9050   -0.2930    2.6600 C   0  0  0  0  0  0  0  0  0  0  0  0
    5.6170   -1.0270    3.7900 C   0  0  0  0  0  0  0  0  0  0  0  0
    4.8380   -0.2440    4.6190 C   0  0  0  0  0  0  0  0  0  0  0  0
    4.6850    0.9480    3.9490 C   0  0  0  0  0  0  0  0  0  0  0  0
    5.3320    0.8770    2.7930 O   0  0  0  0  0  0  0  0  0  0  0  0
    1.3510    1.2900   -1.4420 C   0  0  0  0  0  0  0  0  0  0  0  0
  1  2  1  0
  2  3  1  0
  2  6  2  0
  3  4  1  0
  4  5  2  0
  4 40  1  0
  5  6  1  0
  5 21  1  0
  6  7  1  0
  7  8  2  0
  7  9  1  0
  9 10  1  0
 10 11  1  1
 10 12  1  0
 12 13  2  0
 12 14  1  0
 15 14  1  6
 15 16  1  0
 15 17  1  0
 17 16  1  1
 17 18  1  0
 18 19  1  6
 18 20  1  0
 21 22  1  0
 22 23  1  0
 23 24  1  1
 23 40  1  0
 24 25  1  0
 25 26  1  0
 26 27  2  0
 26 28  1  0
 28 29  1  0
 29 30  1  0
 30 31  1  0
 31 32  1  0
 32 33  1  0
 33 34  2  0
 33 35  1  0
 35 36  2  0
 35 39  1  0
 36 37  1  0
 37 38  2  0
 38 39  1  0
M  END
