
     RDKit          3D

 40 42  0  0  0  0  0  0  0  0999 V2000
   -5.5980   -0.9710   -0.0950 C   0  0  0  0  0  0  0  0  0  0  0  0
   -4.4950   -1.7980   -0.6480 C   0  0  0  0  0  0  0  0  0  0  0  0
   -3.3110   -1.3510   -0.9110 C   0  0  0  0  0  0  0  0  0  0  0  0
   -2.8840    0.0570   -0.6910 C   0  0  2  0  0  0  0  0  0  0  0  0
   -2.7200    0.7620   -2.0430 C   0  0  0  0  0  0  0  0  0  0  0  0
   -1.4560   -0.1380   -0.2340 N   0  0  0  0  0  0  0  0  0  0  0  0
   -1.1170   -0.9350    0.8590 C   0  0  0  0  0  0  0  0  0  0  0  0
   -2.0190   -1.5330    1.5010 O   0  0  0  0  0  0  0  0  0  0  0  0
    0.3200   -1.0560    1.2350 C   0  0  0  0  0  0  0  0  0  0  0  0
    1.0870   -0.2790    0.3520 O   0  0  0  0  0  0  0  0  0  0  0  0
    2.5120   -0.2000    0.4680 C   0  0  0  0  0  0  0  0  0  0  0  0
    2.9460   -0.8830    1.4110 O   0  0  0  0  0  0  0  0  0  0  0  0
    3.2440    0.6150   -0.4670 C   0  0  0  0  0  0  0  0  0  0  0  0
    2.5340    1.3450   -1.4400 C   0  0  0  0  0  0  0  0  0  0  0  0
    3.1500    2.1640   -2.3370 C   0  0  0  0  0  0  0  0  0  0  0  0
    2.4150    2.8410   -3.2490 F   0  0  0  0  0  0  0  0  0  0  0  0
    4.5050    2.3110   -2.3290 C   0  0  0  0  0  0  0  0  0  0  0  0
    5.2380    1.6030   -1.3810 C   0  0  0  0  0  0  0  0  0  0  0  0
    4.6090    0.7560   -0.4510 C   0  0  0  0  0  0  0  0  0  0  0  0
    5.3760    0.0160    0.4520 N   0  0  0  0  0  0  0  0  0  0  0  0
    6.7380    0.1980    0.7250 C   0  0  0  0  0  0  0  0  0  0  0  0
    7.4070    1.0800    0.1650 O   0  0  0  0  0  0  0  0  0  0  0  0
    7.4110   -0.7000    1.7240 C   0  0  0  0  0  0  0  0  0  0  0  0
    8.8620   -0.4430    1.8920 C   0  0  0  0  0  0  0  0  0  0  0  0
    9.7120   -0.6230    0.6850 C   0  0  0  0  0  0  0  0  0  0  0  0
   11.0670   -0.3550    0.9700 O   0  0  0  0  0  0  0  0  0  0  0  0
   -3.4970    0.8600    0.3100 C   0  0  0  0  0  0  0  0  0  0  0  0
   -3.1630    0.7630    1.5540 O   0  0  0  0  0  0  0  0  0  0  0  0
   -4.5210    1.8640    0.1190 N   0  0  0  0  0  0  0  0  0  0  0  0
   -5.0770    2.6350    1.1800 C   0  0  2  0  0  0  0  0  0  0  0  0
   -6.5910    2.5480    1.2460 C   0  0  0  0  0  0  0  0  0  0  0  0
   -6.8930    3.8550    1.9650 C   0  0  0  0  0  0  0  0  0  0  0  0
   -6.0740    4.7480    1.2940 O   0  0  0  0  0  0  0  0  0  0  0  0
   -4.8950    4.1280    0.9910 C   0  0  0  0  0  0  0  0  0  0  0  0
   -2.3350   -2.2630   -1.5410 C   0  0  0  0  0  0  0  0  0  0  0  0
   -2.4720   -3.4970   -1.8930 C   0  0  0  0  0  0  0  0  0  0  0  0
   -1.3930   -4.1680   -2.4780 F   0  0  0  0  0  0  0  0  0  0  0  0
   -3.6660   -4.3620   -1.7730 C   0  0  1  0  0  0  0  0  0  0  0  0
   -3.3290   -5.6520   -1.0170 C   0  0  0  0  0  0  0  0  0  0  0  0
   -4.9610   -3.5360   -0.9030 S   0  0  0  0  0  0  0  0  0  0  0  0
  1  2  1  0
  2  3  2  0
  2 40  1  0
  3  4  1  0
  3 35  1  0
  4  5  1  6
  4  6  1  0
  4 27  1  0
  6  7  1  0
  7  8  2  0
  7  9  1  0
  9 10  1  0
 10 11  1  0
 11 12  2  0
 11 13  1  0
 13 14  2  0
 13 19  1  0
 14 15  1  0
 15 16  1  0
 15 17  2  0
 17 18  1  0
 18 19  2  0
 19 20  1  0
 20 21  1  0
 21 22  2  0
 21 23  1  0
 23 24  1  0
 24 25  1  0
 25 26  1  0
 27 28  2  0
 27 29  1  0
 30 29  1  6
 30 31  1  0
 30 34  1  0
 31 32  1  0
 32 33  1  0
 33 34  1  0
 35 36  2  0
 36 37  1  0
 36 38  1  0
 38 39  1  1
 38 40  1  0
M  END
