
     RDKit          3D

 40 43  0  0  0  0  0  0  0  0999 V2000
    4.1660   -4.6150    2.6430 C   0  0  0  0  0  0  0  0  0  0  0  0
    3.5590   -3.3380    2.5990 O   0  0  0  0  0  0  0  0  0  0  0  0
    3.9660   -2.4820    1.5700 C   0  0  0  0  0  0  0  0  0  0  0  0
    4.9100   -2.8400    0.6320 C   0  0  0  0  0  0  0  0  0  0  0  0
    5.3090   -1.9970   -0.3800 C   0  0  0  0  0  0  0  0  0  0  0  0
    4.7550   -0.7470   -0.4730 C   0  0  0  0  0  0  0  0  0  0  0  0
    3.7930   -0.3320    0.4520 C   0  0  0  0  0  0  0  0  0  0  0  0
    3.1040    1.2870    0.3030 S   0  0  2  0  0  0  0  0  0  0  0  0
    4.2050    2.2190   -0.2090 O   0  0  0  0  0  0  0  0  0  0  0  0
    2.7620    1.8190    1.6640 O   0  0  0  0  0  0  0  0  0  0  0  0
    1.7830    1.2260   -0.7140 N   0  0  0  0  0  0  0  0  0  0  0  0
    1.9550    0.8230   -2.0470 C   0  0  0  0  0  0  0  0  0  0  0  0
    2.2540    1.8870   -2.9890 C   0  0  0  0  0  0  0  0  0  0  0  0
    1.4570    2.7420   -3.7420 C   0  0  0  0  0  0  0  0  0  0  0  0
    2.0100    3.6310   -4.5350 C   0  0  0  0  0  0  0  0  0  0  0  0
    3.3990    3.7190   -4.6250 C   0  0  0  0  0  0  0  0  0  0  0  0
    3.9350    2.4450   -3.4980 S   0  0  0  0  0  0  0  0  0  0  0  0
    0.5160    1.6450   -0.2680 C   0  0  0  0  0  0  0  0  0  0  0  0
   -0.2900    0.4700    0.1970 C   0  0  1  0  0  0  0  0  0  0  0  0
    0.2090   -0.2530    1.2370 O   0  0  0  0  0  0  0  0  0  0  0  0
   -1.7660    0.7050    0.3100 C   0  0  2  0  0  0  0  0  0  0  0  0
   -2.2530    1.3050    1.5930 C   0  0  0  0  0  0  0  0  0  0  0  0
   -1.7470    2.6120    1.9650 C   0  0  0  0  0  0  0  0  0  0  0  0
   -2.2900    3.7760    1.4390 C   0  0  0  0  0  0  0  0  0  0  0  0
   -1.8310    5.0260    1.8290 C   0  0  0  0  0  0  0  0  0  0  0  0
   -0.8180    5.1560    2.7540 C   0  0  0  0  0  0  0  0  0  0  0  0
   -0.2750    4.0060    3.2810 C   0  0  0  0  0  0  0  0  0  0  0  0
   -0.7440    2.7600    2.8810 C   0  0  0  0  0  0  0  0  0  0  0  0
   -2.3640   -0.6510    0.2910 N   0  0  0  0  0  0  0  0  0  0  0  0
   -3.2650   -1.0960   -0.6790 C   0  0  0  0  0  0  0  0  0  0  0  0
   -3.6010   -0.2900   -1.6130 O   0  0  0  0  0  0  0  0  0  0  0  0
   -3.7980   -2.4430   -0.6150 C   0  0  0  0  0  0  0  0  0  0  0  0
   -3.0140   -3.4910   -0.2000 C   0  0  0  0  0  0  0  0  0  0  0  0
   -3.5020   -4.7890   -0.1310 C   0  0  0  0  0  0  0  0  0  0  0  0
   -4.8010   -4.9780   -0.4960 C   0  0  0  0  0  0  0  0  0  0  0  0
   -5.6280   -3.9600   -0.9190 C   0  0  0  0  0  0  0  0  0  0  0  0
   -6.9010   -4.2370   -1.2610 F   0  0  0  0  0  0  0  0  0  0  0  0
   -5.1060   -2.6710   -0.9760 C   0  0  0  0  0  0  0  0  0  0  0  0
   -6.0220   -1.6030   -1.4360 C   0  0  0  0  0  0  0  0  0  0  0  0
    3.4180   -1.2050    1.4520 C   0  0  0  0  0  0  0  0  0  0  0  0
  1  2  1  0
  2  3  1  0
  3  4  2  0
  3 40  1  0
  4  5  1  0
  5  6  2  0
  6  7  1  0
  7  8  1  0
  7 40  2  0
  8  9  2  0
  8 10  2  0
  8 11  1  6
 11 12  1  0
 11 18  1  0
 12 13  1  0
 13 14  2  0
 13 17  1  0
 14 15  1  0
 15 16  2  0
 16 17  1  0
 18 19  1  0
 19 20  1  1
 19 21  1  0
 21 22  1  1
 21 29  1  0
 22 23  1  0
 23 24  2  0
 23 28  1  0
 24 25  1  0
 25 26  2  0
 26 27  1  0
 27 28  2  0
 29 30  1  0
 30 31  2  0
 30 32  1  0
 32 33  2  0
 32 38  1  0
 33 34  1  0
 34 35  2  0
 35 36  1  0
 36 37  1  0
 36 38  2  0
 38 39  1  0
M  END
