
     RDKit          3D

 40 42  0  0  0  0  0  0  0  0999 V2000
   11.7720    0.3880   -3.1800 C   0  0  0  0  0  0  0  0  0  0  0  0
   10.5630    0.1730   -2.4710 O   0  0  0  0  0  0  0  0  0  0  0  0
   10.4220    0.4090   -1.1120 C   0  0  0  0  0  0  0  0  0  0  0  0
   11.4490    0.8360   -0.5120 O   0  0  0  0  0  0  0  0  0  0  0  0
    9.1810    0.1850   -0.3980 C   0  0  0  0  0  0  0  0  0  0  0  0
    7.9890   -0.2720   -0.9020 C   0  0  0  0  0  0  0  0  0  0  0  0
    7.1110   -0.3180    0.1490 C   0  0  0  0  0  0  0  0  0  0  0  0
    7.8080    0.1160    1.2680 C   0  0  0  0  0  0  0  0  0  0  0  0
    7.2790    0.2370    2.6390 C   0  0  0  0  0  0  0  0  0  0  0  0
    5.9150    0.0390    2.7490 O   0  0  0  0  0  0  0  0  0  0  0  0
    4.8910    0.7610    2.1840 C   0  0  0  0  0  0  0  0  0  0  0  0
    5.1750    1.8480    1.4020 C   0  0  0  0  0  0  0  0  0  0  0  0
    4.1330    2.5550    0.8420 C   0  0  0  0  0  0  0  0  0  0  0  0
    2.8360    2.1630    1.0750 C   0  0  0  0  0  0  0  0  0  0  0  0
    2.5170    1.0750    1.8540 C   0  0  0  0  0  0  0  0  0  0  0  0
    0.8130    0.6680    2.1160 S   0  0  0  0  0  0  0  0  0  0  0  0
    0.2750   -0.3970    0.7420 C   0  0  2  0  0  0  0  0  0  0  0  0
   -1.0710   -0.8590    0.9360 N   0  0  0  0  0  0  0  0  0  0  0  0
   -2.2040   -0.3930    0.1910 C   0  0  0  0  0  0  0  0  0  0  0  0
   -2.0390    0.4730   -0.6940 O   0  0  0  0  0  0  0  0  0  0  0  0
   -3.5600   -0.9620    0.5020 C   0  0  0  0  0  0  0  0  0  0  0  0
   -4.6000   -0.3560   -0.3430 N   0  0  1  0  0  0  0  0  0  0  0  0
   -5.6780   -1.2860   -0.3920 C   0  0  0  0  0  0  0  0  0  0  0  0
   -6.2820   -1.6640    0.9230 C   0  0  2  0  0  0  0  0  0  0  0  0
   -5.3990   -2.2760    1.8080 O   0  0  0  0  0  0  0  0  0  0  0  0
   -7.4360   -2.6370    0.6720 C   0  0  0  0  0  0  0  0  0  0  0  0
   -8.0880   -2.9360    1.8760 O   0  0  0  0  0  0  0  0  0  0  0  0
   -4.8530    0.9300    0.1910 C   0  0  0  0  0  0  0  0  0  0  0  0
   -5.5900    1.9110   -0.6490 C   0  0  2  0  0  0  0  0  0  0  0  0
   -7.0760    1.7280   -0.7140 C   0  0  0  0  0  0  0  0  0  0  0  0
   -7.6410    1.5170   -2.0780 C   0  0  0  0  0  0  0  0  0  0  0  0
   -6.9200    2.2140   -3.1850 C   0  0  0  0  0  0  0  0  0  0  0  0
   -5.8140    3.0600   -2.5930 C   0  0  0  0  0  0  0  0  0  0  0  0
   -4.9850    2.1900   -1.8750 O   0  0  0  0  0  0  0  0  0  0  0  0
    1.2520   -1.4840    0.4620 C   0  0  1  0  0  0  0  0  0  0  0  0
    1.3460   -2.4680    1.6220 C   0  0  0  0  0  0  0  0  0  0  0  0
    0.9200   -2.2620   -0.7920 C   0  0  0  0  0  0  0  0  0  0  0  0
    2.5350   -0.9760    0.2740 O   0  0  0  0  0  0  0  0  0  0  0  0
    3.5630    0.3780    2.4080 C   0  0  0  0  0  0  0  0  0  0  0  0
    9.0300    0.4040    0.8990 O   0  0  0  0  0  0  0  0  0  0  0  0
  1  2  1  0
  2  3  1  0
  3  4  2  0
  3  5  1  0
  5  6  2  0
  5 40  1  0
  6  7  1  0
  7  8  2  0
  8  9  1  0
  8 40  1  0
  9 10  1  0
 10 11  1  0
 11 12  2  0
 11 39  1  0
 12 13  1  0
 13 14  2  0
 14 15  1  0
 15 16  1  0
 15 39  2  0
 16 17  1  0
 17 18  1  1
 17 35  1  0
 18 19  1  0
 19 20  2  0
 19 21  1  0
 22 21  1  1
 22 23  1  0
 22 28  1  0
 23 24  1  0
 24 25  1  1
 24 26  1  0
 26 27  1  0
 29 28  1  6
 29 30  1  0
 29 34  1  0
 30 31  1  0
 31 32  1  0
 32 33  1  0
 33 34  1  0
 35 36  1  1
 35 37  1  0
 35 38  1  0
M  CHG  1  22   1
M  END
