
     RDKit          3D

 40 43  0  0  0  0  0  0  0  0999 V2000
    6.5270   -0.5090    2.2420 C   0  0  0  0  0  0  0  0  0  0  0  0
    7.3400   -0.4150    1.0320 C   0  0  0  0  0  0  0  0  0  0  0  0
    6.9780   -0.3840   -0.1920 C   0  0  0  0  0  0  0  0  0  0  0  0
    8.1580   -0.2810   -1.0980 O   0  0  0  0  0  0  0  0  0  0  0  0
    8.8300    0.9440   -0.9690 C   0  0  2  0  0  0  0  0  0  0  0  0
    7.9470    2.1460   -1.2890 C   0  0  0  0  0  0  0  0  0  0  0  0
    9.0050    3.1580   -1.6620 C   0  0  0  0  0  0  0  0  0  0  0  0
   10.0380    2.4660   -2.2620 O   0  0  0  0  0  0  0  0  0  0  0  0
    9.8810    1.1160   -2.0440 C   0  0  0  0  0  0  0  0  0  0  0  0
    5.7620   -0.4210   -0.9140 C   0  0  0  0  0  0  0  0  0  0  0  0
    5.8970   -0.3630   -2.2240 O   0  0  0  0  0  0  0  0  0  0  0  0
    4.4110   -0.5120   -0.4120 C   0  0  0  0  0  0  0  0  0  0  0  0
    4.1310   -0.5710    0.7960 O   0  0  0  0  0  0  0  0  0  0  0  0
    3.2990   -0.5400   -1.3080 N   0  0  0  0  0  0  0  0  0  0  0  0
    1.9620   -0.6940   -0.8990 C   0  0  0  0  0  0  0  0  0  0  0  0
    0.6500    0.1860   -1.8110 S   0  0  0  0  0  0  0  0  0  0  0  0
   -0.6680   -0.4260   -0.8770 C   0  0  0  0  0  0  0  0  0  0  0  0
   -0.1120   -1.2400    0.0470 C   0  0  0  0  0  0  0  0  0  0  0  0
    1.2680   -1.3800    0.0240 C   0  0  0  0  0  0  0  0  0  0  0  0
    1.9510   -2.4860    0.7890 C   0  0  0  0  0  0  0  0  0  0  0  0
    1.3280   -3.0750    1.7070 O   0  0  0  0  0  0  0  0  0  0  0  0
    3.2160   -2.9250    0.5530 O   0  0  0  0  0  0  0  0  0  0  0  0
    3.8770   -3.9500    1.2220 C   0  0  0  0  0  0  0  0  0  0  0  0
   -1.0020   -1.9530    1.0740 C   0  0  0  0  0  0  0  0  0  0  0  0
   -2.3890   -1.5090    0.9310 C   0  0  0  0  0  0  0  0  0  0  0  0
   -2.8230   -1.3980   -0.5140 C   0  0  1  0  0  0  0  0  0  0  0  0
   -4.2340   -1.5620   -0.7750 C   0  0  0  0  0  0  0  0  0  0  0  0
   -4.5620   -2.4130   -1.7010 O   0  0  0  0  0  0  0  0  0  0  0  0
   -5.3350   -0.9240   -0.1660 N   0  0  0  0  0  0  0  0  0  0  0  0
   -6.6650   -1.2640   -0.6330 C   0  0  0  0  0  0  0  0  0  0  0  0
   -7.5040   -0.0340   -0.7170 C   0  0  2  0  0  0  0  0  0  0  0  0
   -7.3650    0.6520   -2.0850 C   0  0  0  0  0  0  0  0  0  0  0  0
   -6.1660    1.3000   -2.2230 O   0  0  0  0  0  0  0  0  0  0  0  0
   -7.4250    0.8390    0.3120 O   0  0  0  0  0  0  0  0  0  0  0  0
   -6.4830    0.7140    1.2600 C   0  0  2  0  0  0  0  0  0  0  0  0
   -6.0900    2.1280    1.7200 C   0  0  0  0  0  0  0  0  0  0  0  0
   -7.2750    2.8650    2.2830 C   0  0  0  0  0  0  0  0  0  0  0  0
   -8.3840    3.0140    1.2580 C   0  0  0  0  0  0  0  0  0  0  0  0
   -5.2110    0.0220    0.8820 C   0  0  0  0  0  0  0  0  0  0  0  0
   -2.1620   -0.1470   -1.0130 C   0  0  0  0  0  0  0  0  0  0  0  0
  1  2  1  0
  2  3  2  3
  3  4  1  0
  3 10  1  0
  5  4  1  6
  5  6  1  0
  5  9  1  0
  6  7  1  0
  7  8  1  0
  8  9  1  0
 10 11  2  0
 10 12  1  0
 12 13  2  0
 12 14  1  0
 14 15  1  0
 15 16  1  0
 15 19  2  0
 16 17  1  0
 17 18  2  0
 17 40  1  0
 18 19  1  0
 18 24  1  0
 19 20  1  0
 20 21  2  0
 20 22  1  0
 22 23  1  0
 24 25  1  0
 25 26  1  0
 26 27  1  1
 26 40  1  0
 27 28  2  0
 27 29  1  0
 29 30  1  0
 29 39  1  0
 30 31  1  0
 31 32  1  6
 31 34  1  0
 32 33  1  0
 34 35  1  0
 35 36  1  6
 35 39  1  0
 36 37  1  0
 37 38  1  0
M  END
