
     RDKit          3D

 40 43  0  0  0  0  0  0  0  0999 V2000
   -3.8850   -3.6390    5.2770 C   0  0  0  0  0  0  0  0  0  0  0  0
   -4.0430   -3.3610    3.9590 C   0  0  0  0  0  0  0  0  0  0  0  0
   -3.2830   -2.3880    3.2050 C   0  0  0  0  0  0  0  0  0  0  0  0
   -3.6860   -2.3710    1.9510 C   0  0  0  0  0  0  0  0  0  0  0  0
   -3.1210   -1.5050    0.9520 N   0  0  0  0  0  0  0  0  0  0  0  0
   -3.5370   -1.5190   -0.3800 C   0  0  0  0  0  0  0  0  0  0  0  0
   -4.3500   -2.3250   -0.8430 O   0  0  0  0  0  0  0  0  0  0  0  0
   -2.9890   -0.5130   -1.3490 C   0  0  0  0  0  0  0  0  0  0  0  0
   -2.7280    0.8150   -0.6850 C   0  0  2  0  0  0  0  0  0  0  0  0
   -3.8910    1.6260   -0.6300 O   0  0  0  0  0  0  0  0  0  0  0  0
   -1.6300    1.4250   -1.2620 O   0  0  0  0  0  0  0  0  0  0  0  0
   -0.8700    1.0700   -0.1590 C   0  0  1  0  0  0  0  0  0  0  0  0
    0.1230    2.1100    0.2390 C   0  0  1  0  0  0  0  0  0  0  0  0
    1.1250    2.2840   -0.8490 C   0  0  0  0  0  0  0  0  0  0  0  0
    2.0110    1.2810   -1.3320 C   0  0  0  0  0  0  0  0  0  0  0  0
    2.4820    0.1790   -0.8480 C   0  0  0  0  0  0  0  0  0  0  0  0
    2.1440   -0.3270    0.5070 C   0  0  0  0  0  0  0  0  0  0  0  0
    3.4550   -0.6540   -1.6160 C   0  0  0  0  0  0  0  0  0  0  0  0
    3.9880   -0.1710   -2.7750 C   0  0  0  0  0  0  0  0  0  0  0  0
    4.8770   -0.9400   -3.5480 C   0  0  0  0  0  0  0  0  0  0  0  0
    5.2190   -2.1920   -3.1410 C   0  0  0  0  0  0  0  0  0  0  0  0
    6.1000   -2.9910   -3.8810 O   0  0  0  0  0  0  0  0  0  0  0  0
    6.4640   -4.2920   -3.4750 C   0  0  0  0  0  0  0  0  0  0  0  0
    4.6740   -2.6570   -1.9760 C   0  0  0  0  0  0  0  0  0  0  0  0
    3.7960   -1.8960   -1.2150 C   0  0  0  0  0  0  0  0  0  0  0  0
    3.3070   -2.4870   -0.0500 O   0  0  0  0  0  0  0  0  0  0  0  0
    3.6630   -3.7780    0.3610 C   0  0  0  0  0  0  0  0  0  0  0  0
   -0.6150    3.5000    0.1490 C   0  0  0  0  0  0  0  0  0  0  0  0
   -1.6180    3.6340   -0.5430 O   0  0  0  0  0  0  0  0  0  0  0  0
   -0.0880    4.5830    0.8760 N   0  0  0  0  0  0  0  0  0  0  0  0
   -0.5890    5.9260    0.9120 C   0  0  0  0  0  0  0  0  0  0  0  0
   -2.2590    6.1730    1.4560 S   0  0  0  0  0  0  0  0  0  0  0  0
   -3.5280    5.6320    0.3040 C   0  0  0  0  0  0  0  0  0  0  0  0
   -2.0670    0.7830    0.6270 C   0  0  1  0  0  0  0  0  0  0  0  0
   -2.5720    1.8500    1.5700 C   0  0  0  0  0  0  0  0  0  0  0  0
   -2.0980   -0.5720    1.2740 C   0  0  0  0  0  0  0  0  0  0  0  0
   -1.2150   -0.8570    2.0930 O   0  0  0  0  0  0  0  0  0  0  0  0
   -4.7460   -3.3380    1.8120 C   0  0  0  0  0  0  0  0  0  0  0  0
   -5.4380   -3.6740    0.8050 O   0  0  0  0  0  0  0  0  0  0  0  0
   -4.9310   -3.9270    3.0800 O   0  0  0  0  0  0  0  0  0  0  0  0
  1  2  2  0
  2  3  1  0
  2 40  1  0
  3  4  2  0
  4  5  1  0
  4 38  1  0
  5  6  1  0
  5 36  1  0
  6  7  2  0
  6  8  1  0
  8  9  1  0
  9 10  1  1
  9 11  1  0
  9 34  1  0
 12 11  1  6
 12 13  1  0
 12 34  1  0
 13 14  1  6
 13 28  1  0
 14 15  1  0
 15 16  2  3
 16 17  1  0
 16 18  1  0
 18 19  2  0
 18 25  1  0
 19 20  1  0
 20 21  2  0
 21 22  1  0
 21 24  1  0
 22 23  1  0
 24 25  2  0
 25 26  1  0
 26 27  1  0
 28 29  2  0
 28 30  1  0
 30 31  1  0
 31 32  1  0
 32 33  1  0
 34 35  1  1
 34 36  1  0
 36 37  2  0
 38 39  2  0
 38 40  1  0
M  END
