
     RDKit          3D

 40 43  0  0  0  0  0  0  0  0999 V2000
   12.0580   -1.6160    0.4540 C   0  0  0  0  0  0  0  0  0  0  0  0
   11.0220   -0.8770    1.0700 O   0  0  0  0  0  0  0  0  0  0  0  0
    9.8480   -0.5840    0.3560 C   0  0  0  0  0  0  0  0  0  0  0  0
    9.6640   -0.9950   -0.9440 C   0  0  0  0  0  0  0  0  0  0  0  0
    8.4930   -0.6970   -1.6370 C   0  0  0  0  0  0  0  0  0  0  0  0
    7.4980    0.0200   -1.0230 C   0  0  0  0  0  0  0  0  0  0  0  0
    6.3440    0.2940   -1.7590 O   0  0  0  0  0  0  0  0  0  0  0  0
    5.2680    1.0270   -1.2020 C   0  0  0  0  0  0  0  0  0  0  0  0
    4.1820    1.1520   -2.2440 C   0  0  2  0  0  0  0  0  0  0  0  0
    4.6590    1.8650   -3.4730 C   0  0  0  0  0  0  0  0  0  0  0  0
    2.9870    1.8400   -1.7110 C   0  0  0  0  0  0  0  0  0  0  0  0
    2.5690    2.8920   -2.2100 O   0  0  0  0  0  0  0  0  0  0  0  0
    2.3450    1.2650   -0.6260 O   0  0  0  0  0  0  0  0  0  0  0  0
    1.2040    1.7980   -0.0150 C   0  0  2  0  0  0  0  0  0  0  0  0
    1.5120    2.1570    1.4100 C   0  0  0  0  0  0  0  0  0  0  0  0
    0.0300    0.8740   -0.1360 C   0  0  0  0  0  0  0  0  0  0  0  0
    0.2190   -0.1770   -0.7600 O   0  0  0  0  0  0  0  0  0  0  0  0
   -1.2140    1.1880    0.4270 N   0  0  0  0  0  0  0  0  0  0  0  0
   -2.3890    0.3440    0.3420 C   0  0  0  0  0  0  0  0  0  0  0  0
   -2.4980   -0.7620   -0.3880 C   0  0  0  0  0  0  0  0  0  0  0  0
   -3.5980   -1.5040   -0.4660 C   0  0  0  0  0  0  0  0  0  0  0  0
   -3.9730   -2.6350   -1.1070 O   0  0  0  0  0  0  0  0  0  0  0  0
   -5.2860   -3.1310   -0.9260 C   0  0  2  0  0  0  0  0  0  0  0  0
   -5.3290   -4.5420   -0.4370 C   0  0  0  0  0  0  0  0  0  0  0  0
   -6.5970   -5.1450   -0.9800 C   0  0  0  0  0  0  0  0  0  0  0  0
   -7.2420   -4.0740   -1.8420 C   0  0  0  0  0  0  0  0  0  0  0  0
   -6.0480   -3.1950   -2.2300 C   0  0  2  0  0  0  0  0  0  0  0  0
   -5.3740   -3.8650   -3.2230 O   0  0  0  0  0  0  0  0  0  0  0  0
   -4.7160   -0.5460    0.6520 S   0  0  0  0  0  0  0  0  0  0  0  0
   -3.5370    0.7020    1.0530 C   0  0  0  0  0  0  0  0  0  0  0  0
   -3.7780    1.8410    1.9470 C   0  0  0  0  0  0  0  0  0  0  0  0
   -2.8100    2.6560    2.1150 O   0  0  0  0  0  0  0  0  0  0  0  0
   -4.9630    2.1200    2.6300 N   0  0  0  0  0  0  0  0  0  0  0  0
   -6.1580    1.3530    2.6110 C   0  0  0  0  0  0  0  0  0  0  0  0
   -7.2920    2.1510    1.9430 C   0  0  0  0  0  0  0  0  0  0  0  0
   -7.1280    3.5050    2.2510 O   0  0  0  0  0  0  0  0  0  0  0  0
   -6.5220    3.7110    3.4670 C   0  0  0  0  0  0  0  0  0  0  0  0
   -5.0420    3.3460    3.4610 C   0  0  0  0  0  0  0  0  0  0  0  0
    7.6750    0.4370    0.2790 C   0  0  0  0  0  0  0  0  0  0  0  0
    8.8410    0.1420    0.9760 C   0  0  0  0  0  0  0  0  0  0  0  0
  1  2  1  0
  2  3  1  0
  3  4  2  0
  3 40  1  0
  4  5  1  0
  5  6  2  0
  6  7  1  0
  6 39  1  0
  7  8  1  0
  8  9  1  0
  9 10  1  6
  9 11  1  0
 11 12  2  0
 11 13  1  0
 13 14  1  0
 14 15  1  1
 14 16  1  0
 16 17  2  0
 16 18  1  0
 18 19  1  0
 19 20  1  0
 19 30  2  0
 20 21  2  0
 21 22  1  0
 21 29  1  0
 23 22  1  6
 23 24  1  0
 23 27  1  0
 24 25  1  0
 25 26  1  0
 26 27  1  0
 27 28  1  6
 29 30  1  0
 30 31  1  0
 31 32  2  0
 31 33  1  0
 33 34  1  0
 33 38  1  0
 34 35  1  0
 35 36  1  0
 36 37  1  0
 37 38  1  0
 39 40  2  0
M  END
