
     RDKit          3D

 40 43  0  0  0  0  0  0  0  0999 V2000
   11.9140    1.4510    2.4080 C   0  0  0  0  0  0  0  0  0  0  0  0
   12.0620    0.6080    1.4080 C   0  0  0  0  0  0  0  0  0  0  0  0
   11.8120    1.0430    0.0180 C   0  0  0  0  0  0  0  0  0  0  0  0
   10.7420    0.2110   -0.5310 N   0  0  0  0  0  0  0  0  0  0  0  0
    9.4360    0.2100    0.0550 C   0  0  0  0  0  0  0  0  0  0  0  0
    9.2800    0.9790    1.0510 O   0  0  0  0  0  0  0  0  0  0  0  0
    8.3370   -0.6090   -0.4310 C   0  0  1  0  0  0  0  0  0  0  0  0
    8.5740   -2.0960   -0.2930 C   0  0  0  0  0  0  0  0  0  0  0  0
    7.1810   -0.2730    0.3560 O   0  0  0  0  0  0  0  0  0  0  0  0
    6.0240    0.1940   -0.2260 C   0  0  0  0  0  0  0  0  0  0  0  0
    6.0300    0.2960   -1.4780 O   0  0  0  0  0  0  0  0  0  0  0  0
    4.8010    0.5740    0.5060 C   0  0  0  0  0  0  0  0  0  0  0  0
    3.3650   -0.0370   -0.3970 S   0  0  0  0  0  0  0  0  0  0  0  0
    3.2370    0.7510   -2.0420 C   0  0  0  0  0  0  0  0  0  0  0  0
    1.9180    0.2530   -2.6170 C   0  0  1  0  0  0  0  0  0  0  0  0
    1.9450   -1.1120   -2.6920 O   0  0  0  0  0  0  0  0  0  0  0  0
    0.7540    0.7990   -1.8180 C   0  0  0  0  0  0  0  0  0  0  0  0
   -0.4380    0.3580   -2.4310 O   0  0  0  0  0  0  0  0  0  0  0  0
   -1.6600    0.7790   -1.8630 C   0  0  0  0  0  0  0  0  0  0  0  0
   -1.5850    1.5160   -0.8610 O   0  0  0  0  0  0  0  0  0  0  0  0
   -2.9570    0.3320   -2.4780 C   0  0  1  0  0  0  0  0  0  0  0  0
   -3.0880   -1.1900   -2.2490 C   0  0  0  0  0  0  0  0  0  0  0  0
   -2.6670   -1.3780   -0.8510 N   0  0  0  0  0  0  0  0  0  0  0  0
   -3.6820   -0.7490   -0.0770 C   0  0  0  0  0  0  0  0  0  0  0  0
   -4.0250   -1.2890    1.1380 C   0  0  0  0  0  0  0  0  0  0  0  0
   -5.0240   -0.6850    1.8940 C   0  0  0  0  0  0  0  0  0  0  0  0
   -5.6770    0.4370    1.4580 C   0  0  0  0  0  0  0  0  0  0  0  0
   -6.6890    1.0470    2.2200 O   0  0  0  0  0  0  0  0  0  0  0  0
   -8.0040    0.5520    2.1010 C   0  0  0  0  0  0  0  0  0  0  0  0
   -8.4160   -0.4210    3.0160 C   0  0  0  0  0  0  0  0  0  0  0  0
   -9.6840   -0.9570    2.9660 C   0  0  0  0  0  0  0  0  0  0  0  0
  -10.5910   -0.5520    2.0110 C   0  0  0  0  0  0  0  0  0  0  0  0
  -10.1700    0.4070    1.1160 C   0  0  0  0  0  0  0  0  0  0  0  0
   -8.8990    0.9540    1.1550 C   0  0  0  0  0  0  0  0  0  0  0  0
  -11.3080    0.6650    0.2110 C   0  0  0  0  0  0  0  0  0  0  0  0
  -12.2980   -0.2230    0.5280 O   0  0  0  0  0  0  0  0  0  0  0  0
  -11.9860   -0.9010    1.6720 C   0  0  0  0  0  0  0  0  0  0  0  0
   -5.3260    0.9690    0.2440 C   0  0  0  0  0  0  0  0  0  0  0  0
   -4.3410    0.3840   -0.5130 C   0  0  0  0  0  0  0  0  0  0  0  0
   -3.9960    0.9340   -1.7420 O   0  0  0  0  0  0  0  0  0  0  0  0
  1  2  2  0
  2  3  1  0
  3  4  1  0
  4  5  1  0
  5  6  2  0
  5  7  1  0
  7  8  1  1
  7  9  1  0
  9 10  1  0
 10 11  2  0
 10 12  1  0
 12 13  1  0
 13 14  1  0
 14 15  1  0
 15 16  1  1
 15 17  1  0
 17 18  1  0
 18 19  1  0
 19 20  2  0
 21 19  1  1
 21 22  1  0
 21 40  1  0
 22 23  1  0
 23 24  1  0
 24 25  2  0
 24 39  1  0
 25 26  1  0
 26 27  2  0
 27 28  1  0
 27 38  1  0
 28 29  1  0
 29 30  2  0
 29 34  1  0
 30 31  1  0
 31 32  2  0
 32 33  1  0
 32 37  1  0
 33 34  2  0
 33 35  1  0
 35 36  1  0
 36 37  1  0
 38 39  2  0
 39 40  1  0
M  CHG  1  23   1
M  END
