
     RDKit          3D

 40 44  0  0  0  0  0  0  0  0999 V2000
    6.8010   -0.6010    0.1340 O   0  0  0  0  0  0  0  0  0  0  0  0
    7.0280    0.3550   -0.6160 C   0  0  0  0  0  0  0  0  0  0  0  0
    6.1200    0.7220   -1.5610 O   0  0  0  0  0  0  0  0  0  0  0  0
    4.8920    0.1270   -1.8140 C   0  0  0  0  0  0  0  0  0  0  0  0
    3.9260    0.1350   -0.6490 C   0  0  1  0  0  0  0  0  0  0  0  0
    3.7350    1.4830   -0.0530 C   0  0  0  0  0  0  0  0  0  0  0  0
    2.3800    2.0800   -0.3200 C   0  0  0  0  0  0  0  0  0  0  0  0
    1.8770    1.6780   -1.6860 C   0  0  0  0  0  0  0  0  0  0  0  0
    2.0070    0.2170   -1.9510 C   0  0  2  0  0  0  0  0  0  0  0  0
    0.6720   -0.4050   -2.0720 C   0  0  0  0  0  0  0  0  0  0  0  0
   -0.2180    0.0360   -2.8410 O   0  0  0  0  0  0  0  0  0  0  0  0
    0.3800   -1.5170   -1.3130 O   0  0  0  0  0  0  0  0  0  0  0  0
   -0.8020   -2.2390   -1.2800 C   0  0  0  0  0  0  0  0  0  0  0  0
   -1.9320   -1.3510   -0.8250 C   0  0  0  0  0  0  0  0  0  0  0  0
   -3.1320   -2.0910   -0.7920 O   0  0  0  0  0  0  0  0  0  0  0  0
   -4.2950   -1.4400   -0.3960 C   0  0  0  0  0  0  0  0  0  0  0  0
   -5.4910   -2.1180   -0.3480 C   0  0  0  0  0  0  0  0  0  0  0  0
   -6.6490   -1.4700    0.0460 C   0  0  0  0  0  0  0  0  0  0  0  0
   -6.6680   -0.1420    0.4040 C   0  0  0  0  0  0  0  0  0  0  0  0
   -7.7690    0.5680    0.8000 O   0  0  0  0  0  0  0  0  0  0  0  0
   -9.0870    0.2700    0.9440 C   0  0  0  0  0  0  0  0  0  0  0  0
   -9.8210   -0.1020   -0.3060 C   0  0  0  0  0  0  0  0  0  0  0  0
  -11.2640   -0.4320   -0.1000 C   0  0  2  0  0  0  0  0  0  0  0  0
  -12.1130    0.6460    0.4690 C   0  0  0  0  0  0  0  0  0  0  0  0
  -13.2040   -0.1800    1.1680 C   0  0  0  0  0  0  0  0  0  0  0  0
  -12.8190   -1.4920    0.9800 O   0  0  0  0  0  0  0  0  0  0  0  0
  -11.4640   -1.5090    0.8740 N   0  0  0  0  0  0  0  0  0  0  0  0
   -5.4190    0.5040    0.3380 C   0  0  0  0  0  0  0  0  0  0  0  0
   -4.2610   -0.1110   -0.0470 C   0  0  0  0  0  0  0  0  0  0  0  0
    2.7600   -0.4820   -1.0580 O   0  0  0  0  0  0  0  0  0  0  0  0
    8.3260    1.0960   -0.4560 C   0  0  0  0  0  0  0  0  0  0  0  0
    8.6470    2.1770   -1.2590 C   0  0  0  0  0  0  0  0  0  0  0  0
   10.2970    2.6090   -0.5790 S   0  0  0  0  0  0  0  0  0  0  0  0
   10.2930    1.3150    0.6330 C   0  0  0  0  0  0  0  0  0  0  0  0
   11.4530    1.0860    1.6110 C   0  0  2  0  0  0  0  0  0  0  0  0
   12.1780   -0.1810    1.3100 C   0  0  0  0  0  0  0  0  0  0  0  0
   11.4490   -1.1970    2.1670 C   0  0  0  0  0  0  0  0  0  0  0  0
   10.3840   -0.3950    2.8570 C   0  0  0  0  0  0  0  0  0  0  0  0
   10.8570    0.8880    2.8360 O   0  0  0  0  0  0  0  0  0  0  0  0
    9.2150    0.7630    0.4420 N   0  0  0  0  0  0  0  0  0  0  0  0
  1  2  2  0
  2  3  1  0
  2 31  1  0
  3  4  1  0
  5  4  1  6
  5  6  1  0
  5 30  1  0
  6  7  1  0
  7  8  1  0
  8  9  1  0
  9 10  1  1
  9 30  1  0
 10 11  2  0
 10 12  1  0
 12 13  1  0
 13 14  1  0
 14 15  1  0
 15 16  1  0
 16 17  2  0
 16 29  1  0
 17 18  1  0
 18 19  2  0
 19 20  1  0
 19 28  1  0
 20 21  1  0
 21 22  1  0
 23 22  1  1
 23 24  1  0
 23 27  1  0
 24 25  1  0
 25 26  1  0
 26 27  1  0
 28 29  2  0
 31 32  2  0
 31 40  1  0
 32 33  1  0
 33 34  1  0
 35 34  1  6
 34 40  2  0
 35 36  1  0
 35 39  1  0
 36 37  1  0
 37 38  1  0
 38 39  1  0
M  END
