
     RDKit          3D

 39 41  0  0  0  0  0  0  0  0999 V2000
    0.0000    6.6540   -2.3700 C   0  0  0  0  0  0  0  0  0  0  0  0
   -0.0050    7.2410   -1.1760 O   0  0  0  0  0  0  0  0  0  0  0  0
    0.4170    6.6170   -0.0710 C   0  0  0  0  0  0  0  0  0  0  0  0
   -0.2680    5.3350    0.2880 C   0  0  1  0  0  0  0  0  0  0  0  0
    0.5160    4.1690   -0.4150 C   0  0  0  0  0  0  0  0  0  0  0  0
    0.0990    2.9860   -0.0650 O   0  0  0  0  0  0  0  0  0  0  0  0
   -0.3230    1.8260    0.2730 C   0  0  0  0  0  0  0  0  0  0  0  0
   -1.6130    1.4190   -0.1590 C   0  0  0  0  0  0  0  0  0  0  0  0
   -2.0670    0.1800    0.1980 C   0  0  0  0  0  0  0  0  0  0  0  0
   -3.4280   -0.3270   -0.2220 C   0  0  1  0  0  0  0  0  0  0  0  0
   -3.2330   -1.5900   -1.0490 C   0  0  0  0  0  0  0  0  0  0  0  0
   -4.5560   -2.0940   -1.5200 C   0  0  2  0  0  0  0  0  0  0  0  0
   -4.5920   -3.6300   -1.4710 C   0  0  0  0  0  0  0  0  0  0  0  0
   -4.7580   -1.7370   -2.9710 C   0  0  0  0  0  0  0  0  0  0  0  0
   -5.7270   -1.4960   -0.7710 C   0  0  0  0  0  0  0  0  0  0  0  0
   -5.4400   -1.2510    0.6500 C   0  0  1  0  0  0  0  0  0  0  0  0
   -5.7730   -2.4350    1.5350 C   0  0  0  0  0  0  0  0  0  0  0  0
   -5.2820   -2.3430    2.7730 O   0  0  0  0  0  0  0  0  0  0  0  0
   -6.4370   -3.5170    1.2890 O   0  0  0  0  0  0  0  0  0  0  0  0
   -6.8350   -4.6500    1.8900 C   0  0  0  0  0  0  0  0  0  0  0  0
   -4.1520   -0.7420    0.9940 N   0  0  0  0  0  0  0  0  0  0  0  0
   -1.3190   -0.6770    0.9580 C   0  0  0  0  0  0  0  0  0  0  0  0
   -0.0720   -0.3040    1.3840 C   0  0  0  0  0  0  0  0  0  0  0  0
    0.4220    0.9280    1.0490 C   0  0  0  0  0  0  0  0  0  0  0  0
    1.7660    1.3360    1.5790 C   0  0  0  0  0  0  0  0  0  0  0  0
    2.3700   -0.0060    2.6510 S   0  0  0  0  0  0  0  0  0  0  0  0
    2.9440   -1.4040    1.7500 C   0  0  0  0  0  0  0  0  0  0  0  0
    4.3790   -1.4410    1.4120 C   0  0  0  0  0  0  0  0  0  0  0  0
    5.2050   -1.2590    2.4050 O   0  0  0  0  0  0  0  0  0  0  0  0
    5.0050   -1.6650    0.1790 N   0  0  0  0  0  0  0  0  0  0  0  0
    6.4550   -1.7370    0.1270 C   0  0  1  0  0  0  0  0  0  0  0  0
    6.8430   -3.2370    0.2380 C   0  0  0  0  0  0  0  0  0  0  0  0
    6.7910   -3.5960   -1.2270 C   0  0  0  0  0  0  0  0  0  0  0  0
    7.0190   -2.4450   -1.9540 O   0  0  0  0  0  0  0  0  0  0  0  0
    7.1360   -1.3660   -1.1090 C   0  0  2  0  0  0  0  0  0  0  0  0
    8.6150   -1.1150   -0.7490 C   0  0  0  0  0  0  0  0  0  0  0  0
    9.3970   -0.8730   -1.8470 O   0  0  0  0  0  0  0  0  0  0  0  0
    0.1320    5.0400    1.6510 O   0  0  0  0  0  0  0  0  0  0  0  0
   -1.0360    4.7530    2.3320 C   0  0  0  0  0  0  0  0  0  0  0  0
  1  2  1  0
  2  3  1  0
  4  3  1  6
  4  5  1  0
  4 38  1  0
  5  6  1  0
  6  7  1  0
  7  8  2  0
  7 24  1  0
  8  9  1  0
 10  9  1  1
  9 22  2  0
 10 11  1  0
 10 21  1  0
 11 12  1  0
 12 13  1  6
 12 14  1  0
 12 15  1  0
 15 16  1  0
 16 17  1  1
 16 21  1  0
 17 18  2  0
 17 19  1  0
 19 20  1  0
 22 23  1  0
 23 24  2  0
 24 25  1  0
 25 26  1  0
 26 27  1  0
 27 28  1  0
 28 29  2  0
 28 30  1  0
 31 30  1  6
 31 32  1  0
 31 35  1  0
 32 33  1  0
 33 34  1  0
 34 35  1  0
 35 36  1  1
 36 37  1  0
 38 39  1  0
M  CHG  1  21   1
M  END
