
     RDKit          3D

 40 42  0  0  0  0  0  0  0  0999 V2000
   -1.5610    5.4790   -3.2490 C   0  0  0  0  0  0  0  0  0  0  0  0
   -2.7150    4.8370   -2.6470 N   0  0  0  0  0  0  0  0  0  0  0  0
   -2.3540    3.5020   -2.1280 C   0  0  0  0  0  0  0  0  0  0  0  0
   -3.3190    3.2140   -1.0300 C   0  0  0  0  0  0  0  0  0  0  0  0
   -3.2280    2.0380   -0.3600 O   0  0  0  0  0  0  0  0  0  0  0  0
   -2.2670    1.5050    0.4270 C   0  0  0  0  0  0  0  0  0  0  0  0
   -1.1140    2.1660    0.7280 C   0  0  0  0  0  0  0  0  0  0  0  0
   -0.1280    1.6050    1.5380 C   0  0  0  0  0  0  0  0  0  0  0  0
   -0.2610    0.3820    2.0640 C   0  0  0  0  0  0  0  0  0  0  0  0
    0.6930   -0.3140    2.8620 C   0  0  0  0  0  0  0  0  0  0  0  0
    1.9040   -0.1180    3.1750 C   0  0  0  0  0  0  0  0  0  0  0  0
    2.8970    0.8410    2.9050 C   0  0  0  0  0  0  0  0  0  0  0  0
    4.0610    0.6140    3.5010 O   0  0  0  0  0  0  0  0  0  0  0  0
    2.9560    1.9770    2.1580 O   0  0  0  0  0  0  0  0  0  0  0  0
    4.0950    2.7930    2.0390 C   0  0  0  0  0  0  0  0  0  0  0  0
    5.1950    1.9960    1.4560 C   0  0  0  0  0  0  0  0  0  0  0  0
    4.9900    0.8060    0.8110 C   0  0  0  0  0  0  0  0  0  0  0  0
    5.9760    0.0370    0.2610 C   0  0  0  0  0  0  0  0  0  0  0  0
    5.6000   -1.0490   -0.3050 O   0  0  0  0  0  0  0  0  0  0  0  0
    7.2800    0.2820    0.2440 N   0  0  0  0  0  0  0  0  0  0  0  0
    8.1970   -0.6750   -0.4060 C   0  0  0  0  0  0  0  0  0  0  0  0
    8.3470   -0.2820   -1.8640 C   0  0  2  0  0  0  0  0  0  0  0  0
    9.2910   -1.2780   -2.5040 C   0  0  0  0  0  0  0  0  0  0  0  0
    8.8850    0.9830   -1.9700 O   0  0  0  0  0  0  0  0  0  0  0  0
    7.8850    1.3670    0.7830 C   0  0  0  0  0  0  0  0  0  0  0  0
    9.1400    1.5220    0.7210 O   0  0  0  0  0  0  0  0  0  0  0  0
    6.8300    2.4730    1.5310 S   0  0  0  0  0  0  0  0  0  0  0  0
   -1.4670   -0.2940    1.7420 C   0  0  0  0  0  0  0  0  0  0  0  0
   -2.4570    0.2000    0.9640 C   0  0  0  0  0  0  0  0  0  0  0  0
   -3.6300   -0.4440    0.6460 O   0  0  0  0  0  0  0  0  0  0  0  0
   -4.0670   -1.7110    1.0360 C   0  0  1  0  0  0  0  0  0  0  0  0
   -5.3490   -1.5180    1.8180 C   0  0  0  0  0  0  0  0  0  0  0  0
   -6.5000   -1.5780    0.8740 C   0  0  0  0  0  0  0  0  0  0  0  0
   -6.6520   -2.9250    0.2080 C   0  0  0  0  0  0  0  0  0  0  0  0
   -5.3530   -3.6110   -0.0380 C   0  0  2  0  0  0  0  0  0  0  0  0
   -5.4550   -4.2960   -1.4130 C   0  0  0  0  0  0  0  0  0  0  0  0
   -5.0940   -4.7460    0.9320 C   0  0  0  0  0  0  0  0  0  0  0  0
   -6.1460   -5.6780    0.7710 O   0  0  0  0  0  0  0  0  0  0  0  0
   -4.2290   -2.6450   -0.1450 C   0  0  2  0  0  0  0  0  0  0  0  0
   -3.0600   -3.3610   -0.3960 O   0  0  0  0  0  0  0  0  0  0  0  0
  1  2  1  0
  2  3  1  0
  3  4  1  0
  4  5  1  0
  5  6  1  0
  6  7  2  0
  6 29  1  0
  7  8  1  0
  8  9  2  0
  9 10  1  0
  9 28  1  0
 10 11  2  3
 11 12  1  0
 12 13  2  0
 12 14  1  0
 14 15  1  0
 15 16  1  0
 16 17  2  0
 16 27  1  0
 17 18  1  0
 18 19  2  0
 18 20  1  0
 20 21  1  0
 20 25  1  0
 21 22  1  0
 22 23  1  6
 22 24  1  0
 25 26  2  0
 25 27  1  0
 28 29  2  0
 29 30  1  0
 31 30  1  6
 31 32  1  0
 31 39  1  0
 32 33  1  0
 33 34  1  0
 34 35  1  0
 35 36  1  6
 35 37  1  0
 35 39  1  0
 37 38  1  0
 39 40  1  1
M  CHG  1   2   1
M  END
