
     RDKit          3D

 40 43  0  0  0  0  0  0  0  0999 V2000
    1.4580    2.2080    0.8170 C   0  0  0  0  0  0  0  0  0  0  0  0
    1.0460    2.0920   -0.6230 C   0  0  0  0  0  0  0  0  0  0  0  0
   -0.3870    1.6790   -0.7870 C   0  0  2  0  0  0  0  0  0  0  0  0
   -1.3600    3.0460    0.0220 S   0  0  0  0  0  0  0  0  0  0  0  0
   -3.0900    2.5520   -0.2240 C   0  0  2  0  0  0  0  0  0  0  0  0
   -3.9580    3.3610    0.4730 O   0  0  0  0  0  0  0  0  0  0  0  0
   -4.7920    4.0330   -0.3780 C   0  0  0  0  0  0  0  0  0  0  0  0
   -3.2590    1.1480    0.1260 N   0  0  0  0  0  0  0  0  0  0  0  0
   -4.5760    0.6230    0.0510 C   0  0  0  0  0  0  0  0  0  0  0  0
   -5.2300    0.5440   -1.1810 C   0  0  0  0  0  0  0  0  0  0  0  0
   -6.4960    0.0500   -1.3360 C   0  0  0  0  0  0  0  0  0  0  0  0
   -7.1890   -0.3990   -0.2510 C   0  0  0  0  0  0  0  0  0  0  0  0
   -6.5700   -0.3360    0.9900 C   0  0  0  0  0  0  0  0  0  0  0  0
   -5.2920    0.1640    1.1360 C   0  0  0  0  0  0  0  0  0  0  0  0
   -7.1840   -0.7820    2.2430 C   0  0  0  0  0  0  0  0  0  0  0  0
   -6.5670   -0.3960    3.2630 O   0  0  0  0  0  0  0  0  0  0  0  0
   -8.3430   -1.5630    2.4080 O   0  0  0  0  0  0  0  0  0  0  0  0
   -8.9650   -2.2890    1.3360 C   0  0  0  0  0  0  0  0  0  0  0  0
   -9.4910   -1.3210    0.2910 C   0  0  0  0  0  0  0  0  0  0  0  0
   -8.4630   -0.8710   -0.5740 O   0  0  0  0  0  0  0  0  0  0  0  0
   -2.1510    0.3590    0.5270 C   0  0  0  0  0  0  0  0  0  0  0  0
   -2.3360   -0.4510    1.4680 O   0  0  0  0  0  0  0  0  0  0  0  0
   -0.8020    0.4450   -0.1080 C   0  0  0  0  0  0  0  0  0  0  0  0
   -0.0870   -0.6140   -0.0510 C   0  0  0  0  0  0  0  0  0  0  0  0
   -0.6550   -1.7470    0.6720 O   0  0  0  0  0  0  0  0  0  0  0  0
    1.1770   -0.8510   -0.5930 N   0  0  0  0  0  0  0  0  0  0  0  0
    1.3740   -1.0110   -2.0150 C   0  0  0  0  0  0  0  0  0  0  0  0
    1.7930   -2.4610   -2.2660 C   0  0  0  0  0  0  0  0  0  0  0  0
    2.6980   -3.0310   -1.2380 C   0  0  0  0  0  0  0  0  0  0  0  0
    2.4700   -2.6320    0.1800 C   0  0  0  0  0  0  0  0  0  0  0  0
    2.3420   -1.0790    0.2400 C   0  0  1  0  0  0  0  0  0  0  0  0
    3.5910   -0.4970   -0.3360 C   0  0  0  0  0  0  0  0  0  0  0  0
    4.7680   -0.7580    0.5450 C   0  0  0  0  0  0  0  0  0  0  0  0
    4.6820   -1.3540    1.6430 O   0  0  0  0  0  0  0  0  0  0  0  0
    6.0060   -0.3230    0.1270 O   0  0  0  0  0  0  0  0  0  0  0  0
    7.1850   -0.4970    0.8540 C   0  0  1  0  0  0  0  0  0  0  0  0
    8.1990   -1.3720    0.1390 C   0  0  0  0  0  0  0  0  0  0  0  0
    7.7900    0.8460    1.2470 C   0  0  0  0  0  0  0  0  0  0  0  0
    8.1180    1.6720    0.0210 C   0  0  0  0  0  0  0  0  0  0  0  0
    9.0270    1.0520   -0.8180 O   0  0  0  0  0  0  0  0  0  0  0  0
  1  2  1  0
  3  2  1  1
  3  4  1  0
  3 23  1  0
  4  5  1  0
  5  6  1  1
  5  8  1  0
  6  7  1  0
  8  9  1  0
  8 21  1  0
  9 10  2  0
  9 14  1  0
 10 11  1  0
 11 12  2  0
 12 13  1  0
 12 20  1  0
 13 14  2  0
 13 15  1  0
 15 16  2  0
 15 17  1  0
 17 18  1  0
 18 19  1  0
 19 20  1  0
 21 22  2  0
 21 23  1  0
 23 24  2  3
 24 25  1  0
 24 26  1  0
 26 27  1  0
 26 31  1  0
 27 28  1  0
 28 29  1  0
 29 30  1  0
 30 31  1  0
 31 32  1  6
 32 33  1  0
 33 34  2  0
 33 35  1  0
 35 36  1  0
 36 37  1  6
 36 38  1  0
 38 39  1  0
 39 40  1  0
M  END
