
     RDKit          3D

 45 49  0  0  0  0  0  0  0  0999 V2000
   -7.3700   -1.2070   -1.1100 C   0  0  0  0  0  0  0  0  0  0  0  0
   -6.5420   -0.5140   -2.1850 C   0  0  0  0  0  0  0  0  0  0  0  0
   -5.1010   -0.8370   -2.0850 C   0  0  0  0  0  0  0  0  0  0  0  0
   -4.3650   -0.4260   -0.8520 C   0  0  2  0  0  0  0  0  0  0  0  0
   -4.3540    1.0460   -0.6600 C   0  0  0  0  0  0  0  0  0  0  0  0
   -5.6330    1.7610   -0.4790 C   0  0  0  0  0  0  0  0  0  0  0  0
   -2.9660   -0.9920   -0.9030 C   0  0  2  0  0  0  0  0  0  0  0  0
   -2.9800   -2.5410   -0.9580 C   0  0  0  0  0  0  0  0  0  0  0  0
   -3.5120   -3.1330    0.2660 C   0  0  0  0  0  0  0  0  0  0  0  0
   -3.4950   -2.4970    1.4000 C   0  0  0  0  0  0  0  0  0  0  0  0
   -3.9380   -2.8070    2.7680 C   0  0  0  0  0  0  0  0  0  0  0  0
   -4.5790   -3.3660    3.7750 C   0  0  0  0  0  0  0  0  0  0  0  0
   -3.8560   -2.5010    4.6920 C   0  0  0  0  0  0  0  0  0  0  0  0
   -3.2220   -1.9500    3.6780 C   0  0  0  0  0  0  0  0  0  0  0  0
   -2.3020   -1.0840    2.8190 C   0  0  2  0  0  0  0  0  0  0  0  0
   -2.3140    0.2420    3.4380 N   0  0  0  0  0  0  0  0  0  0  0  0
   -3.6730    0.6500    3.7530 C   0  0  0  0  0  0  0  0  0  0  0  0
   -2.9420   -1.1250    1.5070 C   0  0  1  0  0  0  0  0  0  0  0  0
   -2.1950   -0.7250    0.3170 N   0  0  0  0  0  0  0  0  0  0  0  0
   -0.9190   -0.3160    0.3260 C   0  0  0  0  0  0  0  0  0  0  0  0
   -0.2880   -0.5740    1.4820 O   0  0  0  0  0  0  0  0  0  0  0  0
    0.0030    0.3370   -0.5600 C   0  0  0  0  0  0  0  0  0  0  0  0
    1.1830    0.4530   -0.1880 N   0  0  0  0  0  0  0  0  0  0  0  0
    2.4240    0.6310    0.0830 N   0  0  0  0  0  0  0  0  0  0  0  0
    3.2700   -0.3340    0.7510 C   0  0  0  0  0  0  0  0  0  0  0  0
    2.6610   -1.4060    1.0770 O   0  0  0  0  0  0  0  0  0  0  0  0
    4.6690   -0.1520    1.0490 C   0  0  0  0  0  0  0  0  0  0  0  0
    5.3480   -0.9120    1.9210 O   0  0  0  0  0  0  0  0  0  0  0  0
    6.5800   -0.5530    2.0090 C   0  0  0  0  0  0  0  0  0  0  0  0
    6.8140    0.5110    1.1680 C   0  0  0  0  0  0  0  0  0  0  0  0
    5.5730    0.7570    0.5560 C   0  0  0  0  0  0  0  0  0  0  0  0
    5.3580    1.8170   -0.4590 C   0  0  0  0  0  0  0  0  0  0  0  0
    8.1090    1.1410    1.0410 C   0  0  0  0  0  0  0  0  0  0  0  0
    8.2200    2.3140    0.5760 O   0  0  0  0  0  0  0  0  0  0  0  0
    9.3130    0.4020    1.4610 C   0  0  0  0  0  0  0  0  0  0  0  0
    9.0200   -0.9530    2.0040 C   0  0  2  0  0  0  0  0  0  0  0  0
    9.0140   -1.9460    0.8560 C   0  0  0  0  0  0  0  0  0  0  0  0
    7.7490   -1.0470    2.8110 C   0  0  0  0  0  0  0  0  0  0  0  0
   -0.2890    0.9570   -1.8470 C   0  0  0  0  0  0  0  0  0  0  0  0
   -1.3700    1.0470   -2.4430 O   0  0  0  0  0  0  0  0  0  0  0  0
    0.7990    1.5720   -2.5930 N   0  0  0  0  0  0  0  0  0  0  0  0
    0.5830    2.2010   -3.8790 C   0  0  2  0  0  0  0  0  0  0  0  0
    1.9240    2.7230   -4.3740 C   0  0  0  0  0  0  0  0  0  0  0  0
   -0.3430    3.3970   -3.7230 C   0  0  0  0  0  0  0  0  0  0  0  0
   -0.0240    1.2760   -4.8940 C   0  0  0  0  0  0  0  0  0  0  0  0
  1  2  1  0
  2  3  1  0
  4  3  1  6
  4  5  1  0
  4  7  1  0
  5  6  1  0
  7  8  1  1
  7 19  1  0
  8  9  1  0
  9 10  2  0
 10 11  1  0
 10 18  1  0
 11 12  2  0
 11 14  1  0
 12 13  1  0
 13 14  2  0
 14 15  1  0
 15 16  1  1
 15 18  1  0
 16 17  1  0
 18 19  1  6
 19 20  1  0
 20 21  2  0
 20 22  1  0
 22 23  2  3
 22 39  1  0
 23 24  1  0
 24 25  1  0
 25 26  2  0
 25 27  1  0
 27 28  1  0
 27 31  2  0
 28 29  1  0
 29 30  2  0
 29 38  1  0
 30 31  1  0
 30 33  1  0
 31 32  1  0
 33 34  2  0
 33 35  1  0
 35 36  1  0
 36 37  1  6
 36 38  1  0
 39 40  2  0
 39 41  1  0
 41 42  1  0
 42 43  1  6
 42 44  1  0
 42 45  1  0
M  CHG  1  16   1
M  END
