
     RDKit          3D

 45 48  0  0  0  0  0  0  0  0999 V2000
    3.0480    3.3910    1.2600 C   0  0  0  0  0  0  0  0  0  0  0  0
    2.0790    3.2930    2.1070 O   0  0  0  0  0  0  0  0  0  0  0  0
    1.0230    3.1580    2.8430 C   0  0  0  0  0  0  0  0  0  0  0  0
    0.9830    3.8420    4.0300 C   0  0  0  0  0  0  0  0  0  0  0  0
   -0.0470    3.8910    5.0420 C   0  0  0  0  0  0  0  0  0  0  0  0
   -1.3670    3.6580    4.9150 C   0  0  0  0  0  0  0  0  0  0  0  0
   -2.0540    3.2900    3.6570 C   0  0  0  0  0  0  0  0  0  0  0  0
   -1.5450    2.7180    2.5600 C   0  0  0  0  0  0  0  0  0  0  0  0
   -2.3950    2.4450    1.4390 C   0  0  0  0  0  0  0  0  0  0  0  0
   -3.6290    2.7440    1.5980 O   0  0  0  0  0  0  0  0  0  0  0  0
   -2.0570    1.9050    0.2040 N   0  0  0  0  0  0  0  0  0  0  0  0
   -3.0510    1.6530   -0.8900 C   0  0  2  0  0  0  0  0  0  0  0  0
   -3.7750    0.3910   -0.5150 C   0  0  0  0  0  0  0  0  0  0  0  0
   -3.3840   -0.2310    0.5010 O   0  0  0  0  0  0  0  0  0  0  0  0
   -4.8610   -0.1210   -1.2380 N   0  0  0  0  0  0  0  0  0  0  0  0
   -5.6100   -1.2750   -0.9860 C   0  0  0  0  0  0  0  0  0  0  0  0
   -5.3780   -2.1430    0.0350 C   0  0  0  0  0  0  0  0  0  0  0  0
   -6.1710   -3.2930    0.2660 C   0  0  0  0  0  0  0  0  0  0  0  0
   -7.2230   -3.5390   -0.5860 C   0  0  0  0  0  0  0  0  0  0  0  0
   -7.4710   -2.6890   -1.6090 C   0  0  0  0  0  0  0  0  0  0  0  0
   -6.6830   -1.5660   -1.8190 C   0  0  0  0  0  0  0  0  0  0  0  0
   -2.3590    1.6160   -2.1890 C   0  0  1  0  0  0  0  0  0  0  0  0
   -1.3240    0.5060   -2.2860 C   0  0  0  0  0  0  0  0  0  0  0  0
   -3.2160    1.6140   -3.4000 C   0  0  0  0  0  0  0  0  0  0  0  0
   -0.1180    2.3040    2.4370 C   0  0  0  0  0  0  0  0  0  0  0  0
    0.0720    1.1390    1.9570 C   0  0  0  0  0  0  0  0  0  0  0  0
    1.3030    0.3980    1.6950 C   0  0  0  0  0  0  0  0  0  0  0  0
    1.2930   -0.8260    1.2010 C   0  0  0  0  0  0  0  0  0  0  0  0
    0.0310   -1.4490    0.9150 N   0  0  0  0  0  0  0  0  0  0  0  0
   -0.0490   -2.8620    1.3230 C   0  0  0  0  0  0  0  0  0  0  0  0
    1.0140   -3.2020    2.2980 C   0  0  0  0  0  0  0  0  0  0  0  0
    2.4060   -2.7620    1.9590 C   0  0  0  0  0  0  0  0  0  0  0  0
    2.4850   -1.6650    0.9150 C   0  0  1  0  0  0  0  0  0  0  0  0
    2.5650   -2.0710   -0.4520 C   0  0  1  0  0  0  0  0  0  0  0  0
    2.7200   -0.9070   -1.4370 C   0  0  1  0  0  0  0  0  0  0  0  0
    4.1550   -0.5630   -1.6080 C   0  0  0  0  0  0  0  0  0  0  0  0
    4.9400   -1.0860   -0.7960 O   0  0  0  0  0  0  0  0  0  0  0  0
    4.7700    0.3120   -2.6030 C   0  0  0  0  0  0  0  0  0  0  0  0
    4.9380    1.7450   -2.2410 C   0  0  0  0  0  0  0  0  0  0  0  0
    3.7450    2.4850   -1.9980 N   0  0  0  0  0  0  0  0  0  0  0  0
    2.3700   -1.7210   -2.7000 C   0  0  0  0  0  0  0  0  0  0  0  0
    3.2940   -2.8820   -2.4220 C   0  0  0  0  0  0  0  0  0  0  0  0
    3.7460   -3.5840   -3.3480 O   0  0  0  0  0  0  0  0  0  0  0  0
    3.5090   -2.9810   -0.9850 N   0  0  0  0  0  0  0  0  0  0  0  0
    4.5110   -3.8700   -0.4610 C   0  0  0  0  0  0  0  0  0  0  0  0
  1  2  1  0
  2  3  1  0
  3  4  2  0
  3 25  1  0
  4  5  1  0
  5  6  2  0
  6  7  1  0
  7  8  2  0
  8  9  1  0
  8 25  1  0
  9 10  2  0
  9 11  1  0
 12 11  1  1
 12 13  1  0
 12 22  1  0
 13 14  2  0
 13 15  1  0
 15 16  1  0
 16 17  2  0
 16 21  1  0
 17 18  1  0
 18 19  2  0
 19 20  1  0
 20 21  2  0
 22 23  1  1
 22 24  1  0
 25 26  2  3
 26 27  1  0
 27 28  2  3
 28 29  1  0
 28 33  1  0
 29 30  1  0
 30 31  1  0
 31 32  1  0
 33 32  1  1
 33 34  1  0
 34 35  1  0
 34 44  1  1
 35 36  1  6
 35 41  1  0
 36 37  2  0
 36 38  1  0
 38 39  1  0
 39 40  1  0
 41 42  1  0
 42 43  2  0
 42 44  1  0
 44 45  1  0
M  CHG  1  40   1
M  END
