
     RDKit          3D

 45 49  0  0  0  0  0  0  0  0999 V2000
  -11.0660    0.4750   -1.7770 C   0  0  0  0  0  0  0  0  0  0  0  0
  -10.1970   -0.0510   -0.5990 C   0  0  2  0  0  0  0  0  0  0  0  0
  -10.7850    0.5910    0.5720 N   0  0  0  0  0  0  0  0  0  0  0  0
   -8.8170    0.3640   -0.9270 C   0  0  0  0  0  0  0  0  0  0  0  0
   -7.7500    0.0350   -0.0780 N   0  0  0  0  0  0  0  0  0  0  0  0
   -7.6640    0.6430    1.1990 C   0  0  0  0  0  0  0  0  0  0  0  0
   -6.5630   -0.1700    1.9190 C   0  0  0  0  0  0  0  0  0  0  0  0
   -6.9440   -1.5580    1.4660 C   0  0  0  0  0  0  0  0  0  0  0  0
   -7.3500   -1.3210    0.0200 C   0  0  2  0  0  0  0  0  0  0  0  0
   -6.3750   -1.8820   -0.9050 C   0  0  0  0  0  0  0  0  0  0  0  0
   -5.0550   -1.4470   -1.0760 N   0  0  0  0  0  0  0  0  0  0  0  0
   -3.9570   -2.1670   -0.4140 C   0  0  0  0  0  0  0  0  0  0  0  0
   -3.4300   -1.5690    0.8060 C   0  0  0  0  0  0  0  0  0  0  0  0
   -2.1410   -1.1520    0.8760 C   0  0  0  0  0  0  0  0  0  0  0  0
   -1.5160   -0.5230    2.0960 C   0  0  0  0  0  0  0  0  0  0  0  0
   -0.4490    0.3680    1.4640 C   0  0  0  0  0  0  0  0  0  0  0  0
    0.0010   -0.5040    0.3300 C   0  0  1  0  0  0  0  0  0  0  0  0
    1.0050   -1.5380    0.8310 C   0  0  0  0  0  0  0  0  0  0  0  0
    2.2090   -0.9070    1.2940 N   0  0  0  0  0  0  0  0  0  0  0  0
    3.0410   -0.1050    0.4690 C   0  0  0  0  0  0  0  0  0  0  0  0
    2.7470    0.0600   -0.7270 O   0  0  0  0  0  0  0  0  0  0  0  0
    4.2160    0.5270    0.9640 N   0  0  0  0  0  0  0  0  0  0  0  0
    5.0460    1.3380    0.0970 C   0  0  1  0  0  0  0  0  0  0  0  0
    4.9280    2.8250    0.4920 C   0  0  0  0  0  0  0  0  0  0  0  0
    5.0980    3.0280    1.9690 C   0  0  0  0  0  0  0  0  0  0  0  0
    6.0290    2.0780    2.5150 O   0  0  0  0  0  0  0  0  0  0  0  0
    6.8980    1.3860    1.6570 C   0  0  0  0  0  0  0  0  0  0  0  0
    8.1940    1.0850    2.0000 C   0  0  0  0  0  0  0  0  0  0  0  0
    9.0150    0.4030    1.1250 C   0  0  0  0  0  0  0  0  0  0  0  0
    8.5940   -0.0070   -0.1140 C   0  0  0  0  0  0  0  0  0  0  0  0
    7.2890    0.2990   -0.4540 C   0  0  0  0  0  0  0  0  0  0  0  0
    6.4550    0.9800    0.4050 C   0  0  0  0  0  0  0  0  0  0  0  0
    9.4340   -0.7380   -1.0770 C   0  0  0  0  0  0  0  0  0  0  0  0
   10.8880   -0.7670   -0.6740 C   0  0  2  0  0  0  0  0  0  0  0  0
   11.7920   -0.6730   -1.8820 C   0  0  0  0  0  0  0  0  0  0  0  0
   11.1710   -2.0830    0.0230 C   0  0  0  0  0  0  0  0  0  0  0  0
   11.2510    0.3360    0.2780 C   0  0  0  0  0  0  0  0  0  0  0  0
   10.4110    0.1030    1.5410 C   0  0  0  0  0  0  0  0  0  0  0  0
   -1.1500   -1.1910   -0.0710 O   0  0  0  0  0  0  0  0  0  0  0  0
   -4.5890   -0.4260   -1.9670 C   0  0  0  0  0  0  0  0  0  0  0  0
   -3.3840   -0.1370   -1.9670 O   0  0  0  0  0  0  0  0  0  0  0  0
   -5.5230    0.2510   -2.8550 C   0  0  0  0  0  0  0  0  0  0  0  0
   -4.8330    1.3570   -3.6390 C   0  0  0  0  0  0  0  0  0  0  0  0
   -4.3090    2.3780   -2.7400 C   0  0  0  0  0  0  0  0  0  0  0  0
   -3.1620    2.3620   -2.3580 O   0  0  0  0  0  0  0  0  0  0  0  0
  2  1  1  6
  2  3  1  0
  2  4  1  0
  4  5  1  0
  5  6  1  0
  5  9  1  0
  6  7  1  0
  7  8  1  0
  8  9  1  0
  9 10  1  6
 10 11  1  0
 11 12  1  0
 11 40  1  0
 12 13  1  0
 13 14  2  3
 14 15  1  0
 14 39  1  0
 15 16  1  0
 16 17  1  0
 17 18  1  1
 17 39  1  0
 18 19  1  0
 19 20  1  0
 20 21  2  0
 20 22  1  0
 23 22  1  1
 23 24  1  0
 23 32  1  0
 24 25  1  0
 25 26  1  0
 26 27  1  0
 27 28  2  0
 27 32  1  0
 28 29  1  0
 29 30  2  0
 29 38  1  0
 30 31  1  0
 30 33  1  0
 31 32  2  0
 33 34  1  0
 34 35  1  6
 34 36  1  0
 34 37  1  0
 37 38  1  0
 40 41  2  0
 40 42  1  0
 42 43  1  0
 43 44  1  0
 44 45  2  0
M  CHG  1   3   1
M  END
