
     RDKit          3D

 45 49  0  0  0  0  0  0  0  0999 V2000
   -3.6950   -1.4520   -0.7490 C   0  0  0  0  0  0  0  0  0  0  0  0
   -3.0840   -0.3550    0.0040 C   0  0  0  0  0  0  0  0  0  0  0  0
   -3.8310    0.3200    0.9330 C   0  0  0  0  0  0  0  0  0  0  0  0
   -5.2770    0.0230    1.1890 C   0  0  0  0  0  0  0  0  0  0  0  0
   -6.1490    0.6260    0.1610 C   0  0  0  0  0  0  0  0  0  0  0  0
   -7.6280    0.4460    0.2750 C   0  0  2  0  0  0  0  0  0  0  0  0
   -8.1460   -0.9240    0.2290 C   0  0  1  0  0  0  0  0  0  0  0  0
   -7.7680   -1.5190   -1.0050 O   0  0  0  0  0  0  0  0  0  0  0  0
   -7.9730   -1.8880    1.3130 C   0  0  0  0  0  0  0  0  0  0  0  0
   -8.2530   -1.4440    2.5990 O   0  0  0  0  0  0  0  0  0  0  0  0
   -8.1710    1.1150   -1.0270 C   0  0  0  0  0  0  0  0  0  0  0  0
   -8.4240    2.5740   -0.8100 C   0  0  0  0  0  0  0  0  0  0  0  0
   -9.6590    2.6640    0.0770 C   0  0  0  0  0  0  0  0  0  0  0  0
   -9.4830    1.8190    1.1990 N   0  0  0  0  0  0  0  0  0  0  0  0
  -10.6060    1.2100    1.7800 C   0  0  0  0  0  0  0  0  0  0  0  0
   -8.2010    1.2870    1.4030 C   0  0  0  0  0  0  0  0  0  0  0  0
   -3.2260    1.3350    1.6460 C   0  0  0  0  0  0  0  0  0  0  0  0
   -1.9170    1.6840    1.4520 C   0  0  0  0  0  0  0  0  0  0  0  0
   -1.1930    0.9670    0.4900 C   0  0  0  0  0  0  0  0  0  0  0  0
   -1.7450   -0.0430   -0.2380 C   0  0  0  0  0  0  0  0  0  0  0  0
   -1.0520   -0.7680   -1.2090 N   0  0  0  0  0  0  0  0  0  0  0  0
    0.2870   -0.6340   -1.6140 C   0  0  0  0  0  0  0  0  0  0  0  0
    1.0070    0.2230   -1.0730 O   0  0  0  0  0  0  0  0  0  0  0  0
    0.8770   -1.4440   -2.6340 N   0  0  0  0  0  0  0  0  0  0  0  0
    2.2500   -1.3120   -3.0540 C   0  0  0  0  0  0  0  0  0  0  0  0
    3.2550   -1.5630   -1.9570 C   0  0  0  0  0  0  0  0  0  0  0  0
    4.6180   -1.3740   -2.5570 C   0  0  0  0  0  0  0  0  0  0  0  0
    5.7170   -1.5750   -1.6620 N   0  0  2  0  0  0  0  0  0  0  0  0
    5.8220   -3.0110   -1.4480 C   0  0  0  0  0  0  0  0  0  0  0  0
    7.0190   -3.4000   -0.6140 C   0  0  0  0  0  0  0  0  0  0  0  0
    7.2030   -2.4370    0.5570 C   0  0  0  0  0  0  0  0  0  0  0  0
    5.8930   -1.7220    0.7210 C   0  0  0  0  0  0  0  0  0  0  0  0
    5.7160   -0.7940   -0.4740 C   0  0  1  0  0  0  0  0  0  0  0  0
    6.7670    0.2450   -0.4390 C   0  0  0  0  0  0  0  0  0  0  0  0
    7.0540    0.9670   -1.5630 C   0  0  0  0  0  0  0  0  0  0  0  0
    8.0270    1.9680   -1.5810 C   0  0  0  0  0  0  0  0  0  0  0  0
    8.7410    2.2570   -0.4290 C   0  0  0  0  0  0  0  0  0  0  0  0
    8.4670    1.5440    0.7040 C   0  0  0  0  0  0  0  0  0  0  0  0
    7.5040    0.5620    0.7010 C   0  0  0  0  0  0  0  0  0  0  0  0
    9.1960    1.8260    1.9070 N   0  0  0  0  0  0  0  0  0  0  0  0
    8.8940    1.0570    3.1020 C   0  0  0  0  0  0  0  0  0  0  0  0
   10.1750    2.8370    1.8650 C   0  0  0  0  0  0  0  0  0  0  0  0
   10.7180    3.1970    2.9440 O   0  0  0  0  0  0  0  0  0  0  0  0
   10.5990    3.5050    0.5980 C   0  0  0  0  0  0  0  0  0  0  0  0
    9.7140    3.2600   -0.4540 O   0  0  0  0  0  0  0  0  0  0  0  0
  1  2  1  0
  2  3  2  0
  2 20  1  0
  3  4  1  0
  3 17  1  0
  4  5  1  0
  6  5  1  6
  6  7  1  0
  6 11  1  0
  6 16  1  0
  7  8  1  6
  7  9  1  0
  9 10  1  0
 11 12  1  0
 12 13  1  0
 13 14  1  0
 14 15  1  0
 14 16  1  0
 17 18  2  0
 18 19  1  0
 19 20  2  0
 20 21  1  0
 21 22  1  0
 22 23  2  0
 22 24  1  0
 24 25  1  0
 25 26  1  0
 26 27  1  0
 28 27  1  1
 28 29  1  0
 28 33  1  0
 29 30  1  0
 30 31  1  0
 31 32  1  0
 32 33  1  0
 33 34  1  6
 34 35  2  0
 34 39  1  0
 35 36  1  0
 36 37  2  0
 37 38  1  0
 37 45  1  0
 38 39  2  0
 38 40  1  0
 40 41  1  0
 40 42  1  0
 42 43  2  0
 42 44  1  0
 44 45  1  0
M  CHG  1  28   1
M  END
