
     RDKit          3D

 45 48  0  0  0  0  0  0  0  0999 V2000
   -6.0770   -2.6080    0.1880 C   0  0  0  0  0  0  0  0  0  0  0  0
   -5.7530   -1.8210   -0.9910 C   0  0  0  0  0  0  0  0  0  0  0  0
   -4.5710   -1.2420   -1.2300 C   0  0  0  0  0  0  0  0  0  0  0  0
   -3.4200   -1.3710   -0.2440 C   0  0  1  0  0  0  0  0  0  0  0  0
   -3.2140   -2.8660   -0.2080 C   0  0  0  0  0  0  0  0  0  0  0  0
   -3.0260   -3.5040    0.9800 C   0  0  0  0  0  0  0  0  0  0  0  0
   -2.8750   -4.8930    1.0630 C   0  0  0  0  0  0  0  0  0  0  0  0
   -2.9230   -5.6280   -0.1180 C   0  0  0  0  0  0  0  0  0  0  0  0
   -2.7950   -7.0610   -0.0130 C   0  0  0  0  0  0  0  0  0  0  0  0
   -2.6790   -8.2200    0.0730 N   0  0  0  0  0  0  0  0  0  0  0  0
   -3.1080   -4.9890   -1.2940 C   0  0  0  0  0  0  0  0  0  0  0  0
   -3.2560   -3.6140   -1.3700 C   0  0  0  0  0  0  0  0  0  0  0  0
   -2.2340   -0.6870   -0.8120 C   0  0  2  0  0  0  0  0  0  0  0  0
   -1.0170   -0.7390   -0.0330 N   0  0  0  0  0  0  0  0  0  0  0  0
   -0.0200   -1.7250   -0.1150 C   0  0  0  0  0  0  0  0  0  0  0  0
   -0.1980   -2.6740   -0.9240 O   0  0  0  0  0  0  0  0  0  0  0  0
    1.1700   -1.6960    0.6750 N   0  0  0  0  0  0  0  0  0  0  0  0
    1.4240   -0.5200    1.5230 C   0  0  0  0  0  0  0  0  0  0  0  0
    2.9410   -0.2960    1.6570 C   0  0  2  0  0  0  0  0  0  0  0  0
    3.5250    0.0310    0.3520 C   0  0  0  0  0  0  0  0  0  0  0  0
    2.7190    0.0470   -0.6520 O   0  0  0  0  0  0  0  0  0  0  0  0
    4.8950    0.3310    0.0590 C   0  0  0  0  0  0  0  0  0  0  0  0
    5.8190    0.4360    1.0770 C   0  0  0  0  0  0  0  0  0  0  0  0
    7.1470    0.6830    0.7560 C   0  0  0  0  0  0  0  0  0  0  0  0
    7.5940    0.8330   -0.5430 C   0  0  0  0  0  0  0  0  0  0  0  0
    9.0330    1.0890   -0.8460 C   0  0  0  0  0  0  0  0  0  0  0  0
    9.2350    2.2390   -1.5870 O   0  0  0  0  0  0  0  0  0  0  0  0
    8.7990    3.3730   -0.9460 C   0  0  0  0  0  0  0  0  0  0  0  0
    6.6620    0.7310   -1.5850 C   0  0  0  0  0  0  0  0  0  0  0  0
    5.3540    0.4850   -1.2480 C   0  0  0  0  0  0  0  0  0  0  0  0
    3.5680   -1.4940    2.3390 C   0  0  0  0  0  0  0  0  0  0  0  0
    2.7050   -2.7330    2.1620 C   0  0  0  0  0  0  0  0  0  0  0  0
    2.1400   -2.7430    0.7520 C   0  0  1  0  0  0  0  0  0  0  0  0
    1.5850   -4.1240    0.4630 C   0  0  0  0  0  0  0  0  0  0  0  0
   -2.4740    0.7520   -1.0720 C   0  0  0  0  0  0  0  0  0  0  0  0
   -1.4810    1.4510   -1.5150 O   0  0  0  0  0  0  0  0  0  0  0  0
   -3.6630    1.4770   -0.8890 N   0  0  0  0  0  0  0  0  0  0  0  0
   -3.8380    2.8790   -1.1390 C   0  0  0  0  0  0  0  0  0  0  0  0
   -3.1710    3.8840   -0.3110 C   0  0  2  0  0  0  0  0  0  0  0  0
   -1.6970    3.9270   -0.2200 C   0  0  0  0  0  0  0  0  0  0  0  0
   -1.4070    5.0560    0.6340 O   0  0  0  0  0  0  0  0  0  0  0  0
   -3.7360    3.7430    1.1360 C   0  0  0  0  0  0  0  0  0  0  0  0
   -4.9270    4.6430    1.1970 C   0  0  0  0  0  0  0  0  0  0  0  0
   -4.9750    5.4150   -0.0140 N   0  0  0  0  0  0  0  0  0  0  0  0
   -3.7280    5.2760   -0.7010 C   0  0  0  0  0  0  0  0  0  0  0  0
  1  2  1  0
  2  3  2  3
  4  3  1  6
  4  5  1  0
  4 13  1  0
  5  6  2  0
  5 12  1  0
  6  7  1  0
  7  8  2  0
  8  9  1  0
  8 11  1  0
  9 10  3  0
 11 12  2  0
 13 14  1  1
 13 35  1  0
 14 15  1  0
 15 16  2  0
 15 17  1  0
 17 18  1  0
 17 33  1  0
 18 19  1  0
 19 20  1  6
 19 31  1  0
 20 21  2  0
 20 22  1  0
 22 23  2  0
 22 30  1  0
 23 24  1  0
 24 25  2  0
 25 26  1  0
 25 29  1  0
 26 27  1  0
 27 28  1  0
 29 30  2  0
 31 32  1  0
 32 33  1  0
 33 34  1  1
 35 36  2  0
 35 37  1  0
 37 38  1  0
 39 38  1  6
 39 40  1  0
 39 42  1  0
 39 45  1  0
 40 41  1  0
 42 43  1  0
 43 44  1  0
 44 45  1  0
M  CHG  1  44   1
M  END
