
     RDKit          3D

 45 48  0  0  0  0  0  0  0  0999 V2000
   -1.4250    6.4230    2.7360 C   0  0  0  0  0  0  0  0  0  0  0  0
   -2.3870    6.7290    1.6050 C   0  0  0  0  0  0  0  0  0  0  0  0
   -3.0100    5.5520    1.0730 N   0  0  0  0  0  0  0  0  0  0  0  0
   -2.3140    4.4770    0.4920 C   0  0  0  0  0  0  0  0  0  0  0  0
   -1.0530    4.5520    0.4370 O   0  0  0  0  0  0  0  0  0  0  0  0
   -2.9100    3.2720   -0.0600 C   0  0  0  0  0  0  0  0  0  0  0  0
   -1.9610    2.2780   -0.6590 C   0  0  1  0  0  0  0  0  0  0  0  0
   -1.1820    2.9570   -1.7550 C   0  0  0  0  0  0  0  0  0  0  0  0
   -1.1870    1.6020    0.4110 C   0  0  0  0  0  0  0  0  0  0  0  0
   -0.3840    0.4870   -0.1240 C   0  0  2  0  0  0  0  0  0  0  0  0
    1.0490    0.6960   -0.0290 N   0  0  0  0  0  0  0  0  0  0  0  0
    2.0380   -0.2590    0.0040 C   0  0  0  0  0  0  0  0  0  0  0  0
    1.5780   -1.4750   -0.0650 O   0  0  0  0  0  0  0  0  0  0  0  0
    3.4720   -0.1540    0.1110 C   0  0  0  0  0  0  0  0  0  0  0  0
    4.1600   -1.1780    0.8110 C   0  0  0  0  0  0  0  0  0  0  0  0
    5.4730   -1.1160    1.0620 N   0  0  0  0  0  0  0  0  0  0  0  0
    6.0750   -2.2740    1.7530 C   0  0  1  0  0  0  0  0  0  0  0  0
    5.1730   -2.8410    2.8060 C   0  0  0  0  0  0  0  0  0  0  0  0
    6.3920   -3.3640    0.7270 C   0  0  0  0  0  0  0  0  0  0  0  0
    7.3820   -2.9310   -0.3150 C   0  0  0  0  0  0  0  0  0  0  0  0
    8.6150   -2.6250    0.2150 O   0  0  0  0  0  0  0  0  0  0  0  0
    9.5330   -2.1880   -0.7220 C   0  0  0  0  0  0  0  0  0  0  0  0
    6.1960   -0.0630    0.6550 C   0  0  0  0  0  0  0  0  0  0  0  0
    7.4400   -0.0150    0.9140 O   0  0  0  0  0  0  0  0  0  0  0  0
    5.6200    0.9910   -0.0420 C   0  0  0  0  0  0  0  0  0  0  0  0
    6.3870    2.0420   -0.4920 C   0  0  0  0  0  0  0  0  0  0  0  0
    5.7630    3.0200   -1.2140 C   0  0  0  0  0  0  0  0  0  0  0  0
    4.4270    3.0030   -1.5100 C   0  0  0  0  0  0  0  0  0  0  0  0
    3.6880    1.9180   -1.0340 C   0  0  0  0  0  0  0  0  0  0  0  0
    4.2430    0.8970   -0.2940 C   0  0  0  0  0  0  0  0  0  0  0  0
   -0.6950    0.0790   -1.5450 C   0  0  0  0  0  0  0  0  0  0  0  0
   -2.1910    0.0440   -1.8160 C   0  0  1  0  0  0  0  0  0  0  0  0
   -2.3640   -0.3520   -3.2410 C   0  0  0  0  0  0  0  0  0  0  0  0
   -2.7100   -1.1140   -0.9410 C   0  0  0  0  0  0  0  0  0  0  0  0
   -4.1710   -1.3130   -1.0830 C   0  0  0  0  0  0  0  0  0  0  0  0
   -4.7440   -0.5630   -1.9290 O   0  0  0  0  0  0  0  0  0  0  0  0
   -4.9730   -2.2240   -0.3890 N   0  0  0  0  0  0  0  0  0  0  0  0
   -6.4390   -2.2020   -0.6530 C   0  0  1  0  0  0  0  0  0  0  0  0
   -6.8340   -3.4650   -1.3350 C   0  0  0  0  0  0  0  0  0  0  0  0
   -7.0840   -1.9580    0.6760 C   0  0  0  0  0  0  0  0  0  0  0  0
   -6.6430   -2.8180    1.7330 N   0  0  0  0  0  0  0  0  0  0  0  0
   -5.1800   -2.7610    1.9030 C   0  0  0  0  0  0  0  0  0  0  0  0
   -4.6230   -3.2140    0.5680 C   0  0  2  0  0  0  0  0  0  0  0  0
   -3.2250   -3.6970    0.6150 C   0  0  0  0  0  0  0  0  0  0  0  0
   -2.8830    1.2700   -1.3850 C   0  0  0  0  0  0  0  0  0  0  0  0
  1  2  1  0
  2  3  1  0
  3  4  1  0
  4  5  2  0
  4  6  1  0
  6  7  1  0
  7  8  1  6
  7  9  1  0
  7 45  1  0
  9 10  1  0
 10 11  1  6
 10 31  1  0
 11 12  1  0
 12 13  2  0
 12 14  1  0
 14 15  2  0
 14 30  1  0
 15 16  1  0
 16 17  1  0
 16 23  1  0
 17 18  1  1
 17 19  1  0
 19 20  1  0
 20 21  1  0
 21 22  1  0
 23 24  2  0
 23 25  1  0
 25 26  2  0
 25 30  1  0
 26 27  1  0
 27 28  2  0
 28 29  1  0
 29 30  2  0
 31 32  1  0
 32 33  1  6
 32 34  1  0
 32 45  1  0
 34 35  1  0
 35 36  2  0
 35 37  1  0
 37 38  1  0
 37 43  1  0
 38 39  1  1
 38 40  1  0
 40 41  1  0
 41 42  1  0
 42 43  1  0
 43 44  1  1
M  CHG  1  41   1
M  END
