
     RDKit          3D

 45 48  0  0  0  0  0  0  0  0999 V2000
    6.9280    0.5250    2.2090 C   0  0  0  0  0  0  0  0  0  0  0  0
    7.2360   -0.4220    1.1900 N   0  0  0  0  0  0  0  0  0  0  0  0
    6.1470   -0.7420    0.2970 C   0  0  0  0  0  0  0  0  0  0  0  0
    5.8970    0.2740   -0.7270 C   0  0  0  0  0  0  0  0  0  0  0  0
    6.6880    1.3910   -0.7850 C   0  0  0  0  0  0  0  0  0  0  0  0
    6.4990    2.3320   -1.8010 C   0  0  0  0  0  0  0  0  0  0  0  0
    7.3830    3.5170   -1.8020 C   0  0  0  0  0  0  0  0  0  0  0  0
    5.5270    2.1640   -2.7580 C   0  0  0  0  0  0  0  0  0  0  0  0
    5.3810    3.2000   -3.8220 C   0  0  0  0  0  0  0  0  0  0  0  0
    4.7620    1.0370   -2.6610 C   0  0  0  0  0  0  0  0  0  0  0  0
    4.8970    0.0750   -1.6830 C   0  0  0  0  0  0  0  0  0  0  0  0
    3.9920   -1.0560   -1.5850 C   0  0  0  0  0  0  0  0  0  0  0  0
    3.8700   -1.8980   -2.4980 O   0  0  0  0  0  0  0  0  0  0  0  0
    3.2070   -1.2200   -0.4120 N   0  0  0  0  0  0  0  0  0  0  0  0
    2.3010   -2.3750   -0.2760 C   0  0  0  0  0  0  0  0  0  0  0  0
    1.5860   -2.3060    1.0740 C   0  0  0  0  0  0  0  0  0  0  0  0
    0.7360   -1.1350    1.2290 C   0  0  0  0  0  0  0  0  0  0  0  0
   -0.5980   -1.2290    1.4420 C   0  0  0  0  0  0  0  0  0  0  0  0
   -1.3230   -0.0230    1.5810 C   0  0  0  0  0  0  0  0  0  0  0  0
   -0.4540    1.0210    1.6420 O   0  0  0  0  0  0  0  0  0  0  0  0
   -2.6490    0.4240    1.6710 N   0  0  0  0  0  0  0  0  0  0  0  0
   -2.6960    1.8590    2.1510 C   0  0  0  0  0  0  0  0  0  0  0  0
   -2.5500    2.8980    1.1380 C   0  0  1  0  0  0  0  0  0  0  0  0
   -3.6670    3.0960    0.1500 C   0  0  0  0  0  0  0  0  0  0  0  0
   -3.9880    4.6000    0.0040 C   0  0  0  0  0  0  0  0  0  0  0  0
   -2.7050    5.3620   -0.1950 C   0  0  0  0  0  0  0  0  0  0  0  0
   -1.8190    5.0600    0.9970 C   0  0  0  0  0  0  0  0  0  0  0  0
   -2.4900    4.1540    1.8500 O   0  0  0  0  0  0  0  0  0  0  0  0
   -3.8920   -0.2090    1.3710 C   0  0  2  0  0  0  0  0  0  0  0  0
   -4.4160   -1.2490    2.3030 C   0  0  0  0  0  0  0  0  0  0  0  0
   -4.2530   -0.4730   -0.0670 C   0  0  1  0  0  0  0  0  0  0  0  0
   -3.4090   -1.3040   -0.9030 C   0  0  0  0  0  0  0  0  0  0  0  0
   -3.7830   -2.7380   -1.1150 C   0  0  0  0  0  0  0  0  0  0  0  0
   -4.8490   -2.7280   -2.2270 C   0  0  0  0  0  0  0  0  0  0  0  0
   -6.1580   -2.8860   -1.4960 C   0  0  1  0  0  0  0  0  0  0  0  0
   -6.2460   -4.2420   -1.1130 O   0  0  0  0  0  0  0  0  0  0  0  0
   -6.3320   -1.9820   -0.3630 C   0  0  0  0  0  0  0  0  0  0  0  0
   -7.2450   -2.3550    0.4560 O   0  0  0  0  0  0  0  0  0  0  0  0
   -5.6660   -0.8070   -0.0560 N   0  0  0  0  0  0  0  0  0  0  0  0
   -1.1250   -2.5770    1.4990 C   0  0  0  0  0  0  0  0  0  0  0  0
   -0.8980   -3.5250    0.5400 C   0  0  0  0  0  0  0  0  0  0  0  0
   -1.2550   -4.8610    0.6680 C   0  0  0  0  0  0  0  0  0  0  0  0
   -1.8600   -5.2480    1.8010 N   0  0  0  0  0  0  0  0  0  0  0  0
   -2.0990   -4.3340    2.7690 C   0  0  0  0  0  0  0  0  0  0  0  0
   -1.7580   -3.0250    2.6630 C   0  0  0  0  0  0  0  0  0  0  0  0
  1  2  1  0
  2  3  1  0
  3  4  1  0
  4  5  2  0
  4 11  1  0
  5  6  1  0
  6  7  1  0
  6  8  2  0
  8  9  1  0
  8 10  1  0
 10 11  2  0
 11 12  1  0
 12 13  2  0
 12 14  1  0
 14 15  1  0
 15 16  1  0
 16 17  1  0
 17 18  2  3
 18 19  1  0
 18 40  1  0
 19 20  2  0
 19 21  1  0
 21 22  1  0
 21 29  1  0
 23 22  1  1
 23 24  1  0
 23 28  1  0
 24 25  1  0
 25 26  1  0
 26 27  1  0
 27 28  1  0
 29 30  1  1
 29 31  1  0
 31 32  1  1
 31 39  1  0
 32 33  1  0
 33 34  1  0
 34 35  1  0
 35 36  1  1
 35 37  1  0
 37 38  2  0
 37 39  1  0
 40 41  2  0
 40 45  1  0
 41 42  1  0
 42 43  2  0
 43 44  1  0
 44 45  2  0
M  CHG  1   2   1
M  END
