
     RDKit          3D

 37 40  0  0  0  0  0  0  0  0999 V2000
    3.2240    1.1330   -1.3320 C   0  0  0  0  0  0  0  0  0  0  0  0
    3.0280    0.3740   -0.0600 C   0  0  1  0  0  0  0  0  0  0  0  0
    1.6330   -0.1740   -0.0030 C   0  0  0  0  0  0  0  0  0  0  0  0
    0.4950    0.7660   -0.0190 C   0  0  2  0  0  0  0  0  0  0  0  0
    0.5840    1.7130    1.1610 C   0  0  0  0  0  0  0  0  0  0  0  0
   -0.7350   -0.1580    0.2470 C   0  0  0  0  0  0  0  0  0  0  0  0
   -1.8380    0.7530    0.6420 C   0  0  2  0  0  0  0  0  0  0  0  0
   -3.0790   -0.1170    0.8990 C   0  0  2  0  0  0  0  0  0  0  0  0
   -2.5960   -1.0480    2.0350 C   0  0  0  0  0  0  0  0  0  0  0  0
   -3.3720   -1.0120   -0.2520 C   0  0  0  0  0  0  0  0  0  0  0  0
   -4.8060   -1.3290   -0.4810 C   0  0  1  0  0  0  0  0  0  0  0  0
   -5.3720   -2.3810    0.4380 C   0  0  0  0  0  0  0  0  0  0  0  0
   -4.6570   -3.6880    0.3120 C   0  0  0  0  0  0  0  0  0  0  0  0
   -4.7750   -4.1480   -1.0160 O   0  0  0  0  0  0  0  0  0  0  0  0
   -5.6090   -0.0740   -0.4970 C   0  0  0  0  0  0  0  0  0  0  0  0
   -5.4680    0.7520    0.7380 C   0  0  2  0  0  0  0  0  0  0  0  0
   -6.6390    0.3580    1.6490 C   0  0  0  0  0  0  0  0  0  0  0  0
   -5.7860    2.1960    0.3210 C   0  0  0  0  0  0  0  0  0  0  0  0
   -7.0990    2.2600   -0.1860 O   0  0  0  0  0  0  0  0  0  0  0  0
   -4.1940    0.6690    1.4680 C   0  0  0  0  0  0  0  0  0  0  0  0
   -2.0600    1.7890   -0.3970 C   0  0  0  0  0  0  0  0  0  0  0  0
   -0.9750    1.9770   -1.3820 C   0  0  1  0  0  0  0  0  0  0  0  0
   -1.4180    1.5230   -2.7850 C   0  0  0  0  0  0  0  0  0  0  0  0
   -0.7570    3.4930   -1.5460 C   0  0  0  0  0  0  0  0  0  0  0  0
    0.2220    1.4220   -1.1540 O   0  0  0  0  0  0  0  0  0  0  0  0
    3.9360   -0.8030    0.1410 C   0  0  2  0  0  0  0  0  0  0  0  0
    3.5760   -1.3760    1.3760 O   0  0  0  0  0  0  0  0  0  0  0  0
    5.3860   -0.5970    0.1540 C   0  0  2  0  0  0  0  0  0  0  0  0
    6.1020   -0.0440   -1.0320 C   0  0  0  0  0  0  0  0  0  0  0  0
    6.1010   -1.0810   -2.1420 C   0  0  0  0  0  0  0  0  0  0  0  0
    7.0070   -2.2210   -1.6590 C   0  0  0  0  0  0  0  0  0  0  0  0
    7.2400   -2.1030   -0.2690 O   0  0  0  0  0  0  0  0  0  0  0  0
    6.0610   -1.9600    0.4220 C   0  0  1  0  0  0  0  0  0  0  0  0
    6.2710   -1.6070    1.8570 C   0  0  0  0  0  0  0  0  0  0  0  0
    6.0150   -0.1610    1.4590 C   0  0  1  0  0  0  0  0  0  0  0  0
    7.3660    0.5330    1.3090 C   0  0  0  0  0  0  0  0  0  0  0  0
    5.2070    0.4540    2.3780 O   0  0  0  0  0  0  0  0  0  0  0  0
  2  1  1  6
  2  3  1  0
  2 26  1  0
  3  4  1  0
  4  5  1  1
  4  6  1  0
  4 25  1  0
  7  6  1  6
  7  8  1  0
  7 21  1  0
  8  9  1  1
  8 10  1  0
  8 20  1  0
 10 11  1  0
 11 12  1  1
 11 15  1  0
 12 13  1  0
 13 14  1  0
 15 16  1  0
 16 17  1  1
 16 18  1  0
 16 20  1  0
 18 19  1  0
 21 22  1  0
 22 23  1  6
 22 24  1  0
 22 25  1  0
 26 27  1  1
 26 28  1  0
 28 29  1  6
 28 33  1  0
 28 35  1  0
 29 30  1  0
 30 31  1  0
 31 32  1  0
 32 33  1  0
 33 34  1  1
 34 35  1  0
 35 36  1  6
 35 37  1  0
M  END
