
     RDKit          3D

 37 40  0  0  0  0  0  0  0  0999 V2000
    3.2980   -1.6020    2.9510 C   0  0  0  0  0  0  0  0  0  0  0  0
    1.9180   -1.4120    2.4250 C   0  0  0  0  0  0  0  0  0  0  0  0
    1.5370   -2.1880    1.4430 C   0  0  0  0  0  0  0  0  0  0  0  0
    2.5210   -3.1930    0.9360 C   0  0  0  0  0  0  0  0  0  0  0  0
    2.4850   -3.4700   -0.3660 O   0  0  0  0  0  0  0  0  0  0  0  0
    1.6800   -2.7700   -1.1940 C   0  0  0  0  0  0  0  0  0  0  0  0
    0.4960   -2.0930   -0.6660 C   0  0  0  0  0  0  0  0  0  0  0  0
    0.2150   -2.1610    0.8080 C   0  0  1  0  0  0  0  0  0  0  0  0
   -0.6750   -3.2980    1.2110 C   0  0  0  0  0  0  0  0  0  0  0  0
   -0.3940   -4.6960    1.0110 C   0  0  2  0  0  0  0  0  0  0  0  0
   -0.2090   -5.2380   -0.3710 C   0  0  0  0  0  0  0  0  0  0  0  0
   -1.6880   -5.4180    1.5190 C   0  0  0  0  0  0  0  0  0  0  0  0
   -0.5290   -0.9590    1.3060 C   0  0  2  0  0  0  0  0  0  0  0  0
   -1.6740   -0.5670    0.4060 C   0  0  0  0  0  0  0  0  0  0  0  0
   -2.8740   -0.5460    0.7960 O   0  0  0  0  0  0  0  0  0  0  0  0
   -1.4870   -0.1990   -0.9190 O   0  0  0  0  0  0  0  0  0  0  0  0
   -2.4830    0.1740   -1.8100 C   0  0  2  0  0  0  0  0  0  0  0  0
   -2.5970   -0.7330   -3.0130 C   0  0  0  0  0  0  0  0  0  0  0  0
   -3.9960   -0.5740   -3.5720 C   0  0  0  0  0  0  0  0  0  0  0  0
   -4.3260    0.8600   -3.8960 C   0  0  1  0  0  0  0  0  0  0  0  0
   -5.4620    0.8490   -4.7240 O   0  0  0  0  0  0  0  0  0  0  0  0
   -4.6720    1.6740   -2.6750 C   0  0  0  0  0  0  0  0  0  0  0  0
   -3.4620    2.4270   -2.1440 C   0  0  1  0  0  0  0  0  0  0  0  0
   -3.7110    2.7330   -0.6870 C   0  0  0  0  0  0  0  0  0  0  0  0
   -2.2010    1.5970   -2.2500 C   0  0  0  0  0  0  0  0  0  0  0  0
    0.1900    0.2190    1.8420 C   0  0  2  0  0  0  0  0  0  0  0  0
    0.9600    1.0420    0.8870 C   0  0  0  0  0  0  0  0  0  0  0  0
    1.6650    2.2510    1.4610 C   0  0  2  0  0  0  0  0  0  0  0  0
    0.7250    3.2220    2.1170 C   0  0  0  0  0  0  0  0  0  0  0  0
    2.1800    3.0060    0.2100 C   0  0  0  0  0  0  0  0  0  0  0  0
    3.1380    4.0890    0.5740 C   0  0  2  0  0  0  0  0  0  0  0  0
    3.8530    4.5020   -0.7120 C   0  0  0  0  0  0  0  0  0  0  0  0
    4.7740    5.5200   -0.4520 O   0  0  0  0  0  0  0  0  0  0  0  0
    4.2130    3.6220    1.5340 C   0  0  0  0  0  0  0  0  0  0  0  0
    3.9640    2.1460    1.7680 C   0  0  0  0  0  0  0  0  0  0  0  0
    2.7090    1.8890    2.2600 O   0  0  0  0  0  0  0  0  0  0  0  0
    1.0260   -0.3270    3.0030 C   0  0  0  0  0  0  0  0  0  0  0  0
  1  2  1  0
  2  3  2  0
  2 37  1  0
  3  4  1  0
  3  8  1  0
  4  5  1  0
  5  6  1  0
  6  7  1  0
  7  8  1  0
  8  9  1  6
  8 13  1  0
  9 10  1  0
 10 11  1  6
 10 12  1  0
 13 14  1  6
 13 26  1  0
 14 15  2  0
 14 16  1  0
 17 16  1  1
 17 18  1  0
 17 25  1  0
 18 19  1  0
 19 20  1  0
 20 21  1  6
 20 22  1  0
 22 23  1  0
 23 24  1  1
 23 25  1  0
 26 27  1  6
 26 37  1  0
 27 28  1  0
 28 29  1  1
 28 30  1  0
 28 36  1  0
 30 31  1  0
 31 32  1  6
 31 34  1  0
 32 33  1  0
 34 35  1  0
 35 36  1  0
M  END
