
     RDKit          3D

 37 39  0  0  0  0  0  0  0  0999 V2000
   -6.5060    1.2030    0.8790 C   0  0  0  0  0  0  0  0  0  0  0  0
   -5.2780    1.1890    0.9530 C   0  0  0  0  0  0  0  0  0  0  0  0
   -3.7910    1.1740    1.0690 C   0  0  1  0  0  0  0  0  0  0  0  0
   -3.4530    2.6660    1.1970 C   0  0  0  0  0  0  0  0  0  0  0  0
   -3.4930    0.5720    2.3780 C   0  0  0  0  0  0  0  0  0  0  0  0
   -4.1640    1.4740    3.4390 C   0  0  0  0  0  0  0  0  0  0  0  0
   -3.1860    0.6660   -0.1490 C   0  0  1  0  0  0  0  0  0  0  0  0
   -3.5080    1.4690   -1.2670 O   0  0  0  0  0  0  0  0  0  0  0  0
   -1.8040    0.1680   -0.2360 C   0  0  1  0  0  0  0  0  0  0  0  0
   -0.7040    1.1170    0.1080 C   0  0  0  0  0  0  0  0  0  0  0  0
   -0.6320    2.3590   -0.7190 C   0  0  2  0  0  0  0  0  0  0  0  0
    0.1510    2.1440   -2.0050 C   0  0  0  0  0  0  0  0  0  0  0  0
    1.6140    2.2260   -1.5840 C   0  0  1  0  0  0  0  0  0  0  0  0
    2.4180    2.7880   -2.6990 C   0  0  0  0  0  0  0  0  0  0  0  0
    3.0480    3.8540   -2.4790 O   0  0  0  0  0  0  0  0  0  0  0  0
    2.5010    2.1980   -3.9430 O   0  0  0  0  0  0  0  0  0  0  0  0
    1.6450    3.1000   -0.3730 C   0  0  1  0  0  0  0  0  0  0  0  0
    0.2280    3.3630    0.0700 C   0  0  0  0  0  0  0  0  0  0  0  0
    2.5050    2.6060    0.7330 C   0  0  0  0  0  0  0  0  0  0  0  0
    1.8740    2.4220    1.8130 O   0  0  0  0  0  0  0  0  0  0  0  0
    3.8180    2.3970    0.5430 O   0  0  0  0  0  0  0  0  0  0  0  0
    4.5880    1.4390   -0.0840 C   0  0  1  0  0  0  0  0  0  0  0  0
    6.0140    1.9530   -0.0970 C   0  0  0  0  0  0  0  0  0  0  0  0
    4.6060    0.0930    0.5990 C   0  0  0  0  0  0  0  0  0  0  0  0
    4.0450   -1.0140   -0.2310 C   0  0  0  0  0  0  0  0  0  0  0  0
    3.0030   -1.8350    0.5230 C   0  0  0  0  0  0  0  0  0  0  0  0
    1.7690   -2.0400   -0.3660 C   0  0  0  0  0  0  0  0  0  0  0  0
    0.5740   -2.1110    0.5190 C   0  0  2  0  0  0  0  0  0  0  0  0
    0.7110   -3.3040    1.4760 C   0  0  0  0  0  0  0  0  0  0  0  0
    0.7280   -4.6220    0.7850 C   0  0  0  0  0  0  0  0  0  0  0  0
   -0.3770   -4.6640   -0.2400 C   0  0  0  0  0  0  0  0  0  0  0  0
   -1.3250   -3.5470    0.0250 C   0  0  0  0  0  0  0  0  0  0  0  0
   -0.7490   -2.1700   -0.2440 C   0  0  2  0  0  0  0  0  0  0  0  0
   -0.5630   -2.0650   -1.7200 C   0  0  0  0  0  0  0  0  0  0  0  0
   -1.8670   -2.1530   -2.4700 C   0  0  0  0  0  0  0  0  0  0  0  0
   -1.6770   -1.1700    0.3730 C   0  0  2  0  0  0  0  0  0  0  0  0
   -2.9640   -1.7550    0.4030 O   0  0  0  0  0  0  0  0  0  0  0  0
  1  2  3  0
  2  3  1  0
  3  4  1  1
  3  5  1  0
  3  7  1  0
  5  6  1  0
  7  8  1  6
  7  9  1  0
  9 10  1  1
  9 36  1  0
 11 10  1  1
 11 12  1  0
 11 18  1  0
 12 13  1  0
 13 14  1  6
 13 17  1  0
 14 15  2  0
 14 16  1  0
 17 18  1  0
 17 19  1  1
 19 20  2  0
 19 21  1  0
 21 22  1  0
 22 23  1  1
 22 24  1  0
 24 25  1  0
 25 26  1  0
 26 27  1  0
 28 27  1  6
 28 29  1  0
 28 33  1  0
 29 30  1  0
 30 31  1  0
 31 32  1  0
 32 33  1  0
 33 34  1  6
 33 36  1  0
 34 35  1  0
 36 37  1  6
M  END
