
     RDKit          3D

 37 40  0  0  0  0  0  0  0  0999 V2000
   -5.3110   -3.5320    0.7340 C   0  0  0  0  0  0  0  0  0  0  0  0
   -5.2190   -2.1250    0.2400 C   0  0  2  0  0  0  0  0  0  0  0  0
   -6.2230   -1.8390   -0.6980 O   0  0  0  0  0  0  0  0  0  0  0  0
   -6.1510   -0.6990   -1.4640 C   0  0  0  0  0  0  0  0  0  0  0  0
   -7.1690   -0.0160   -1.7390 O   0  0  0  0  0  0  0  0  0  0  0  0
   -4.8410   -0.2610   -1.9820 C   0  0  0  0  0  0  0  0  0  0  0  0
   -3.7420   -0.5750   -0.8900 C   0  0  2  0  0  0  0  0  0  0  0  0
   -4.3040    0.1240    0.2370 O   0  0  0  0  0  0  0  0  0  0  0  0
   -2.4840    0.0760   -1.3100 C   0  0  0  0  0  0  0  0  0  0  0  0
   -1.2560    0.0180   -0.5280 C   0  0  1  0  0  0  0  0  0  0  0  0
   -0.6710   -1.3480   -0.3980 C   0  0  0  0  0  0  0  0  0  0  0  0
    0.5980   -1.5410   -1.2330 C   0  0  0  0  0  0  0  0  0  0  0  0
    1.6440   -0.5290   -0.8610 C   0  0  2  0  0  0  0  0  0  0  0  0
    2.5240   -1.1440    0.0020 O   0  0  0  0  0  0  0  0  0  0  0  0
    3.7910   -1.3290   -0.4190 C   0  0  2  0  0  0  0  0  0  0  0  0
    4.2190   -2.7590   -0.6110 C   0  0  0  0  0  0  0  0  0  0  0  0
    5.5210   -2.7820   -1.3510 C   0  0  0  0  0  0  0  0  0  0  0  0
    6.0600   -1.4340   -1.6950 C   0  0  0  0  0  0  0  0  0  0  0  0
    6.0510   -0.4420   -0.5730 C   0  0  0  0  0  0  0  0  0  0  0  0
    4.8570   -0.6110    0.3460 C   0  0  2  0  0  0  0  0  0  0  0  0
    5.3430   -1.3360    1.5670 C   0  0  0  0  0  0  0  0  0  0  0  0
    4.4210    0.7710    0.7970 C   0  0  0  0  0  0  0  0  0  0  0  0
    1.0960    0.6910   -0.2180 C   0  0  0  0  0  0  0  0  0  0  0  0
   -0.2770    1.1340   -0.6950 C   0  0  1  0  0  0  0  0  0  0  0  0
   -0.0880    1.5920   -2.1070 C   0  0  0  0  0  0  0  0  0  0  0  0
   -0.6200    2.2880    0.2300 C   0  0  2  0  0  0  0  0  0  0  0  0
   -1.9160    2.9580   -0.0440 C   0  0  0  0  0  0  0  0  0  0  0  0
    0.5450    3.2410    0.3440 C   0  0  0  0  0  0  0  0  0  0  0  0
    0.1540    4.4360    1.1920 C   0  0  0  0  0  0  0  0  0  0  0  0
   -0.4480    3.9260    2.4530 C   0  0  0  0  0  0  0  0  0  0  0  0
   -0.6210    2.4650    2.5770 C   0  0  2  0  0  0  0  0  0  0  0  0
   -1.9030    2.2360    3.4030 C   0  0  0  0  0  0  0  0  0  0  0  0
    0.4960    1.8620    3.4490 C   0  0  0  0  0  0  0  0  0  0  0  0
   -0.7360    1.6970    1.4860 O   0  0  0  0  0  0  0  0  0  0  0  0
   -3.8580   -1.9980   -0.5700 C   0  0  2  0  0  0  0  0  0  0  0  0
   -4.1030   -2.9250   -1.7400 C   0  0  0  0  0  0  0  0  0  0  0  0
   -3.0180   -2.9370   -2.5810 O   0  0  0  0  0  0  0  0  0  0  0  0
  2  1  1  6
  2  3  1  0
  2 35  1  0
  3  4  1  0
  4  5  2  0
  4  6  1  0
  6  7  1  0
  7  8  1  1
  7  9  1  0
  7 35  1  0
 10  9  1  6
 10 11  1  0
 10 24  1  0
 11 12  1  0
 12 13  1  0
 13 14  1  1
 13 23  1  0
 15 14  1  1
 15 16  1  0
 15 20  1  0
 16 17  1  0
 17 18  1  0
 18 19  1  0
 19 20  1  0
 20 21  1  1
 20 22  1  0
 23 24  1  0
 24 25  1  6
 24 26  1  0
 26 27  1  6
 26 28  1  0
 26 34  1  0
 28 29  1  0
 29 30  1  0
 30 31  1  0
 31 32  1  1
 31 33  1  0
 31 34  1  0
 35 36  1  6
 36 37  1  0
M  END
