
     RDKit          3D

 37 41  0  0  0  0  0  0  0  0999 V2000
   -3.0070   -3.0000   -1.6840 C   0  0  0  0  0  0  0  0  0  0  0  0
   -1.9760   -2.1920   -1.3310 O   0  0  0  0  0  0  0  0  0  0  0  0
   -1.5110   -2.3190   -0.0480 C   0  0  1  0  0  0  0  0  0  0  0  0
   -0.1740   -2.9620    0.0300 C   0  0  1  0  0  0  0  0  0  0  0  0
   -0.0470   -4.3470   -0.5210 C   0  0  0  0  0  0  0  0  0  0  0  0
    1.4800   -4.3580   -0.6980 C   0  0  0  0  0  0  0  0  0  0  0  0
    1.9160   -3.0640   -0.4330 O   0  0  0  0  0  0  0  0  0  0  0  0
    0.8840   -2.2960   -0.8170 C   0  0  2  0  0  0  0  0  0  0  0  0
    0.9010   -0.8170   -0.5570 C   0  0  2  0  0  0  0  0  0  0  0  0
    2.2050   -0.1960   -0.8100 C   0  0  1  0  0  0  0  0  0  0  0  0
    2.5280   -0.5990   -2.2880 C   0  0  0  0  0  0  0  0  0  0  0  0
    1.5730    0.0860   -3.1680 C   0  0  0  0  0  0  0  0  0  0  0  0
    1.0280    1.4070   -2.8200 C   0  0  0  0  0  0  0  0  0  0  0  0
    1.5250    2.0980   -1.5920 C   0  0  0  0  0  0  0  0  0  0  0  0
    2.4960    1.2390   -0.8480 C   0  0  2  0  0  0  0  0  0  0  0  0
    3.7480    1.4700   -1.7620 C   0  0  0  0  0  0  0  0  0  0  0  0
    3.0390    1.6970    0.4440 C   0  0  2  0  0  0  0  0  0  0  0  0
    2.1200    2.2060    1.4820 C   0  0  0  0  0  0  0  0  0  0  0  0
    4.1280    2.7820    0.3560 C   0  0  0  0  0  0  0  0  0  0  0  0
    3.8340    0.4540    0.8700 C   0  0  1  0  0  0  0  0  0  0  0  0
    3.6490    0.1300    2.3110 C   0  0  0  0  0  0  0  0  0  0  0  0
    3.3820   -0.6820   -0.0210 C   0  0  0  0  0  0  0  0  0  0  0  0
    0.1390   -0.5620    0.6630 C   0  0  0  0  0  0  0  0  0  0  0  0
   -1.3340   -1.0360    0.7190 C   0  0  2  0  0  0  0  0  0  0  0  0
   -1.5030   -1.3460    2.1840 C   0  0  2  0  0  0  0  0  0  0  0  0
   -2.7330   -1.9170    2.7120 C   0  0  0  0  0  0  0  0  0  0  0  0
   -1.2040   -0.2210    2.9990 O   0  0  0  0  0  0  0  0  0  0  0  0
   -2.2560    0.0290    0.2070 C   0  0  1  0  0  0  0  0  0  0  0  0
   -1.9430    0.1740   -1.1720 O   0  0  0  0  0  0  0  0  0  0  0  0
   -3.7010   -0.2840    0.1910 C   0  0  0  0  0  0  0  0  0  0  0  0
   -4.6360    0.6960    0.8290 C   0  0  0  0  0  0  0  0  0  0  0  0
   -4.3470    2.0120    0.6970 O   0  0  0  0  0  0  0  0  0  0  0  0
   -3.1200    2.3620    0.2320 C   0  0  1  0  0  0  0  0  0  0  0  0
   -3.0760    2.5970   -1.2380 C   0  0  0  0  0  0  0  0  0  0  0  0
   -2.7670    3.7120    0.8840 C   0  0  0  0  0  0  0  0  0  0  0  0
   -3.7430    4.6660    0.5120 O   0  0  0  0  0  0  0  0  0  0  0  0
   -2.0140    1.4190    0.7390 C   0  0  0  0  0  0  0  0  0  0  0  0
  1  2  1  0
  3  2  1  6
  3  4  1  0
  3 24  1  0
  4  5  1  6
  4  8  1  0
  5  6  1  0
  6  7  1  0
  8  7  1  1
  8  9  1  0
  9 10  1  0
  9 23  1  1
 10 11  1  6
 10 15  1  0
 10 22  1  0
 11 12  1  0
 12 13  1  0
 13 14  1  0
 14 15  1  0
 15 16  1  6
 15 17  1  0
 17 18  1  1
 17 19  1  0
 17 20  1  0
 20 21  1  1
 20 22  1  0
 24 23  1  1
 24 25  1  0
 24 28  1  0
 25 26  1  6
 25 27  1  0
 28 29  1  6
 28 30  1  0
 28 37  1  0
 30 31  1  0
 31 32  1  0
 32 33  1  0
 33 34  1  6
 33 35  1  0
 33 37  1  0
 35 36  1  0
M  END
