
     RDKit          3D

 37 40  0  0  0  0  0  0  0  0999 V2000
   -5.3760    3.7580   -0.8520 C   0  0  0  0  0  0  0  0  0  0  0  0
   -4.6320    3.0100    0.2600 C   0  0  1  0  0  0  0  0  0  0  0  0
   -5.5910    2.8250    1.4320 C   0  0  0  0  0  0  0  0  0  0  0  0
   -4.7850    2.0850    2.4940 C   0  0  0  0  0  0  0  0  0  0  0  0
   -4.5040    0.7180    1.9660 C   0  0  0  0  0  0  0  0  0  0  0  0
   -3.6110    0.7540    0.7140 C   0  0  1  0  0  0  0  0  0  0  0  0
   -2.3130    1.3540    1.1400 C   0  0  0  0  0  0  0  0  0  0  0  0
   -1.3460    1.0690   -0.0240 C   0  0  0  0  0  0  0  0  0  0  0  0
   -1.1310   -0.3990   -0.0150 C   0  0  2  0  0  0  0  0  0  0  0  0
   -0.0410   -0.9070   -0.8640 C   0  0  1  0  0  0  0  0  0  0  0  0
   -0.2230   -0.5850   -2.2360 O   0  0  0  0  0  0  0  0  0  0  0  0
    1.3580   -0.7240   -0.4300 C   0  0  2  0  0  0  0  0  0  0  0  0
    1.9040    0.6330   -0.2440 C   0  0  0  0  0  0  0  0  0  0  0  0
    3.4150    0.6970   -0.4270 C   0  0  1  0  0  0  0  0  0  0  0  0
    3.6890    1.3000   -1.8130 C   0  0  0  0  0  0  0  0  0  0  0  0
    3.9510    1.6890    0.5650 C   0  0  0  0  0  0  0  0  0  0  0  0
    5.4140    1.9110    0.5230 C   0  0  1  0  0  0  0  0  0  0  0  0
    5.8300    2.9650    1.5760 C   0  0  0  0  0  0  0  0  0  0  0  0
    6.2700    0.7140    0.8300 C   0  0  0  0  0  0  0  0  0  0  0  0
    7.7150    1.1900    0.7510 C   0  0  0  0  0  0  0  0  0  0  0  0
    8.2310    1.8710    1.6580 O   0  0  0  0  0  0  0  0  0  0  0  0
    8.4850    0.8630   -0.3560 O   0  0  0  0  0  0  0  0  0  0  0  0
    4.0540   -0.4630   -0.3470 O   0  0  0  0  0  0  0  0  0  0  0  0
    3.6140   -1.6410   -0.7830 C   0  0  2  0  0  0  0  0  0  0  0  0
    3.7290   -2.7720    0.2290 C   0  0  0  0  0  0  0  0  0  0  0  0
    4.5250   -2.0970   -1.9420 C   0  0  0  0  0  0  0  0  0  0  0  0
    2.2410   -1.5620   -1.3720 C   0  0  1  0  0  0  0  0  0  0  0  0
    1.6700   -2.7980   -1.6030 O   0  0  0  0  0  0  0  0  0  0  0  0
   -2.4530   -1.0880   -0.2190 C   0  0  1  0  0  0  0  0  0  0  0  0
   -2.6980   -1.4450   -1.6870 C   0  0  0  0  0  0  0  0  0  0  0  0
   -4.1190   -1.9640   -1.8380 C   0  0  0  0  0  0  0  0  0  0  0  0
   -4.5900   -2.7210   -0.6410 C   0  0  0  0  0  0  0  0  0  0  0  0
   -3.4910   -3.3650    0.1330 C   0  0  1  0  0  0  0  0  0  0  0  0
   -2.9940   -4.5780   -0.6630 C   0  0  0  0  0  0  0  0  0  0  0  0
   -2.3740   -2.4500    0.4990 C   0  0  0  0  0  0  0  0  0  0  0  0
   -3.5510   -0.5040    0.2550 O   0  0  0  0  0  0  0  0  0  0  0  0
   -4.2960    1.6640   -0.2770 C   0  0  0  0  0  0  0  0  0  0  0  0
  2  1  1  6
  2  3  1  0
  2 37  1  0
  3  4  1  0
  4  5  1  0
  6  5  1  1
  6  7  1  0
  6 36  1  0
  6 37  1  0
  7  8  1  0
  9  8  1  6
  9 10  1  0
  9 29  1  0
 10 11  1  6
 10 12  1  0
 12 13  1  6
 12 27  1  0
 13 14  1  0
 14 15  1  6
 14 16  1  0
 14 23  1  0
 16 17  1  0
 17 18  1  1
 17 19  1  0
 19 20  1  0
 20 21  2  0
 20 22  1  0
 23 24  1  0
 24 25  1  1
 24 26  1  0
 24 27  1  0
 27 28  1  1
 29 30  1  6
 29 35  1  0
 29 36  1  0
 30 31  1  0
 31 32  1  0
 32 33  1  0
 33 34  1  6
 33 35  1  0
M  END
