
     RDKit          3D

 37 39  0  0  0  0  0  0  0  0999 V2000
   -4.4340   -1.0680    0.3850 C   0  0  0  0  0  0  0  0  0  0  0  0
   -3.3790   -1.0850   -0.7210 C   0  0  2  0  0  0  0  0  0  0  0  0
   -2.9340   -2.5100   -0.8810 C   0  0  0  0  0  0  0  0  0  0  0  0
   -1.5460   -2.7240   -1.3170 C   0  0  2  0  0  0  0  0  0  0  0  0
   -1.5590   -3.4470   -2.5390 O   0  0  0  0  0  0  0  0  0  0  0  0
   -0.7050   -3.5930   -0.3670 C   0  0  2  0  0  0  0  0  0  0  0  0
   -1.0440   -5.0490   -0.7290 C   0  0  0  0  0  0  0  0  0  0  0  0
   -1.0640   -3.4210    1.0630 C   0  0  0  0  0  0  0  0  0  0  0  0
    0.7080   -3.3040   -0.7350 C   0  0  0  0  0  0  0  0  0  0  0  0
    1.7280   -3.3640    0.3600 C   0  0  1  0  0  0  0  0  0  0  0  0
    1.8470   -4.8030    0.8810 C   0  0  0  0  0  0  0  0  0  0  0  0
    3.0610   -3.0420   -0.2850 C   0  0  0  0  0  0  0  0  0  0  0  0
    3.4560   -1.6070   -0.2770 C   0  0  0  0  0  0  0  0  0  0  0  0
    2.7000   -0.7250    0.6370 C   0  0  0  0  0  0  0  0  0  0  0  0
    2.9940    0.7130    0.6510 C   0  0  1  0  0  0  0  0  0  0  0  0
    4.3740    1.2050    0.4900 C   0  0  1  0  0  0  0  0  0  0  0  0
    5.0920    1.0390   -0.7830 C   0  0  0  0  0  0  0  0  0  0  0  0
    6.4070    1.7970   -0.4650 C   0  0  0  0  0  0  0  0  0  0  0  0
    5.9020    3.0000    0.2530 C   0  0  0  0  0  0  0  0  0  0  0  0
    4.4210    2.7550    0.5710 C   0  0  0  0  0  0  0  0  0  0  0  0
    2.0680    1.4590   -0.3200 C   0  0  0  0  0  0  0  0  0  0  0  0
    1.8510    0.7570   -1.3490 O   0  0  0  0  0  0  0  0  0  0  0  0
    1.6480    2.6610    0.0250 O   0  0  0  0  0  0  0  0  0  0  0  0
    0.5430    3.3790    0.3490 C   0  0  0  0  0  0  0  0  0  0  0  0
   -0.4520    2.8340    1.2950 C   0  0  2  0  0  0  0  0  0  0  0  0
   -0.4500    1.3400    1.4400 C   0  0  0  0  0  0  0  0  0  0  0  0
   -1.8440    0.8640    1.8010 C   0  0  0  0  0  0  0  0  0  0  0  0
   -2.6730    1.0050    0.5140 C   0  0  2  0  0  0  0  0  0  0  0  0
   -2.3060   -0.0920   -0.4740 C   0  0  0  0  0  0  0  0  0  0  0  0
   -2.3120    2.3710   -0.0280 C   0  0  1  0  0  0  0  0  0  0  0  0
   -3.5280    3.0910   -0.5800 C   0  0  1  0  0  0  0  0  0  0  0  0
   -3.0020    4.3660   -1.2290 C   0  0  0  0  0  0  0  0  0  0  0  0
   -4.1830    2.3130   -1.5390 O   0  0  0  0  0  0  0  0  0  0  0  0
   -4.4900    3.5080    0.4980 C   0  0  0  0  0  0  0  0  0  0  0  0
   -5.6560    4.2060   -0.0920 C   0  0  0  0  0  0  0  0  0  0  0  0
   -5.6200    5.3580   -0.4300 O   0  0  0  0  0  0  0  0  0  0  0  0
   -1.7420    3.2060    0.9180 O   0  0  0  0  0  0  0  0  0  0  0  0
  2  1  1  1
  2  3  1  0
  2 29  1  0
  3  4  1  0
  4  5  1  6
  4  6  1  0
  6  7  1  6
  6  8  1  0
  6  9  1  0
  9 10  1  0
 10 11  1  6
 10 12  1  0
 12 13  1  0
 13 14  1  0
 15 14  1  6
 15 16  1  0
 15 21  1  0
 16 17  1  6
 16 20  1  0
 17 18  1  0
 18 19  1  0
 19 20  1  0
 21 22  2  0
 21 23  1  0
 23 24  1  0
 25 24  1  6
 25 26  1  0
 25 37  1  0
 26 27  1  0
 27 28  1  0
 28 29  1  6
 28 30  1  0
 30 31  1  0
 30 37  1  1
 31 32  1  6
 31 33  1  0
 31 34  1  0
 34 35  1  0
 35 36  2  0
M  END
