
     RDKit          3D

 41 44  0  0  0  0  0  0  0  0999 V2000
   -0.3320   -0.0230   -4.5080 C   0  0  0  0  0  0  0  0  0  0  0  0
   -1.1370   -0.4910   -3.4670 O   0  0  0  0  0  0  0  0  0  0  0  0
   -0.5840   -0.7810   -2.2310 C   0  0  0  0  0  0  0  0  0  0  0  0
    0.7680   -0.5980   -2.0630 C   0  0  0  0  0  0  0  0  0  0  0  0
    1.3830   -0.8700   -0.8500 C   0  0  0  0  0  0  0  0  0  0  0  0
    2.8380   -0.6680   -0.7140 C   0  0  0  0  0  0  0  0  0  0  0  0
    3.0770    0.7500   -0.2460 C   0  0  1  0  0  0  0  0  0  0  0  0
    2.4750    1.0040    0.9790 O   0  0  0  0  0  0  0  0  0  0  0  0
    4.5150    1.0810   -0.2030 C   0  0  0  0  0  0  0  0  0  0  0  0
    5.5130    0.2890   -0.7160 C   0  0  0  0  0  0  0  0  0  0  0  0
    6.8550    0.6730   -0.6360 C   0  0  0  0  0  0  0  0  0  0  0  0
    7.2180    1.8560   -0.0410 C   0  0  0  0  0  0  0  0  0  0  0  0
    8.8740    2.4490    0.1460 S   0  0  0  0  0  0  0  0  0  0  0  0
   10.1630    1.3310   -0.3440 C   0  0  0  0  0  0  0  0  0  0  0  0
   10.2860    0.2380    0.5520 N   0  0  0  0  0  0  0  0  0  0  0  0
   11.1280    0.2810    1.7700 C   0  0  0  0  0  0  0  0  0  0  0  0
   10.2610   -0.4870    2.7360 C   0  0  0  0  0  0  0  0  0  0  0  0
    9.5370   -1.3790    1.9310 O   0  0  0  0  0  0  0  0  0  0  0  0
    9.7210   -1.0530    0.5930 C   0  0  0  0  0  0  0  0  0  0  0  0
    9.4530   -1.7430   -0.4340 O   0  0  0  0  0  0  0  0  0  0  0  0
    6.2120    2.6730    0.4840 C   0  0  0  0  0  0  0  0  0  0  0  0
    4.9090    2.2590    0.3850 C   0  0  0  0  0  0  0  0  0  0  0  0
    0.5900   -1.3260    0.1640 C   0  0  0  0  0  0  0  0  0  0  0  0
   -0.7860   -1.5100   -0.0130 C   0  0  0  0  0  0  0  0  0  0  0  0
   -1.4030   -1.2500   -1.1890 C   0  0  0  0  0  0  0  0  0  0  0  0
   -2.7710   -1.4010   -1.4930 N   0  0  0  0  0  0  0  0  0  0  0  0
   -3.7950   -1.8480   -0.6230 C   0  0  0  0  0  0  0  0  0  0  0  0
   -3.4960   -2.1490    0.5460 O   0  0  0  0  0  0  0  0  0  0  0  0
   -5.1980   -1.9810   -1.0240 C   0  0  2  0  0  0  0  0  0  0  0  0
   -5.7940   -0.7350   -1.6500 C   0  0  0  0  0  0  0  0  0  0  0  0
   -7.2810   -1.0650   -1.4920 C   0  0  0  0  0  0  0  0  0  0  0  0
   -7.3800   -2.1430   -0.6380 O   0  0  0  0  0  0  0  0  0  0  0  0
   -6.1670   -2.1770    0.1180 C   0  0  2  0  0  0  0  0  0  0  0  0
   -6.2410   -1.0660    1.0670 C   0  0  0  0  0  0  0  0  0  0  0  0
   -5.2970   -0.8650    1.8640 O   0  0  0  0  0  0  0  0  0  0  0  0
   -7.3090   -0.1860    1.1580 O   0  0  0  0  0  0  0  0  0  0  0  0
   -7.4110    0.8820    2.0480 C   0  0  1  0  0  0  0  0  0  0  0  0
   -7.4680    2.2340    1.3670 C   0  0  0  0  0  0  0  0  0  0  0  0
   -8.5820    0.7630    2.9930 C   0  0  0  0  0  0  0  0  0  0  0  0
   -9.8990    0.7050    2.2240 C   0  0  0  0  0  0  0  0  0  0  0  0
  -10.0830    1.8500    1.4590 O   0  0  0  0  0  0  0  0  0  0  0  0
  1  2  1  0
  2  3  1  0
  3  4  2  0
  3 25  1  0
  4  5  1  0
  5  6  1  0
  5 23  2  0
  6  7  1  0
  7  8  1  1
  7  9  1  0
  9 10  2  0
  9 22  1  0
 10 11  1  0
 11 12  2  0
 12 13  1  0
 12 21  1  0
 13 14  1  0
 14 15  1  0
 15 16  1  0
 15 19  1  0
 16 17  1  0
 17 18  1  0
 18 19  1  0
 19 20  2  0
 21 22  2  0
 23 24  1  0
 24 25  2  0
 25 26  1  0
 26 27  1  0
 27 28  2  0
 29 27  1  1
 29 30  1  0
 29 33  1  0
 30 31  1  0
 31 32  1  0
 32 33  1  0
 33 34  1  1
 34 35  2  0
 34 36  1  0
 36 37  1  0
 37 38  1  6
 37 39  1  0
 39 40  1  0
 40 41  1  0
M  END
