
     RDKit          3D

 41 45  0  0  0  0  0  0  0  0999 V2000
   -4.9640   -1.4310    1.2090 O   0  0  0  0  0  0  0  0  0  0  0  0
   -4.0850   -0.4850    0.9990 C   0  0  0  0  0  0  0  0  0  0  0  0
   -4.5820    0.5670    0.2470 N   0  0  0  0  0  0  0  0  0  0  0  0
   -5.8500    0.7350   -0.3530 C   0  0  0  0  0  0  0  0  0  0  0  0
   -6.8140   -0.2200   -0.4710 C   0  0  0  0  0  0  0  0  0  0  0  0
   -8.0420    0.0200   -1.1090 C   0  0  0  0  0  0  0  0  0  0  0  0
   -8.9810   -0.9710   -1.2080 C   0  0  0  0  0  0  0  0  0  0  0  0
  -10.1920   -0.6930   -1.8530 C   0  0  0  0  0  0  0  0  0  0  0  0
  -10.4350    0.5630   -2.3830 C   0  0  0  0  0  0  0  0  0  0  0  0
   -9.4820    1.5670   -2.2830 C   0  0  0  0  0  0  0  0  0  0  0  0
   -8.3020    1.2570   -1.6410 C   0  0  0  0  0  0  0  0  0  0  0  0
   -7.3510    2.2100   -1.5290 N   0  0  0  0  0  0  0  0  0  0  0  0
   -6.1750    1.9790   -0.9180 C   0  0  0  0  0  0  0  0  0  0  0  0
   -5.3180    2.9150   -0.8440 O   0  0  0  0  0  0  0  0  0  0  0  0
   -2.8080   -0.7450    1.6080 C   0  0  0  0  0  0  0  0  0  0  0  0
   -1.5470   -0.1280    1.6240 C   0  0  0  0  0  0  0  0  0  0  0  0
   -0.9110    0.6300    0.7950 C   0  0  0  0  0  0  0  0  0  0  0  0
   -1.3060    1.0910   -0.4920 C   0  0  0  0  0  0  0  0  0  0  0  0
   -0.5340    1.8860   -1.2310 C   0  0  0  0  0  0  0  0  0  0  0  0
    0.6990    2.3250   -0.8240 O   0  0  0  0  0  0  0  0  0  0  0  0
    1.8920    1.7380   -1.3560 C   0  0  0  0  0  0  0  0  0  0  0  0
    1.9340    0.2910   -1.0200 C   0  0  0  0  0  0  0  0  0  0  0  0
    3.0240   -0.4290   -1.4620 O   0  0  0  0  0  0  0  0  0  0  0  0
    4.3430   -0.2960   -1.1270 C   0  0  0  0  0  0  0  0  0  0  0  0
    4.8370    0.6210   -0.2180 C   0  0  0  0  0  0  0  0  0  0  0  0
    6.1860    0.7180    0.0840 C   0  0  0  0  0  0  0  0  0  0  0  0
    7.1010   -0.1170   -0.5250 C   0  0  0  0  0  0  0  0  0  0  0  0
    8.5230   -0.0440   -0.2300 C   0  0  0  0  0  0  0  0  0  0  0  0
    9.2870   -1.1800   -0.2920 C   0  0  0  0  0  0  0  0  0  0  0  0
   10.6270   -1.1560   -0.0160 C   0  0  0  0  0  0  0  0  0  0  0  0
   11.2400    0.0470    0.3370 C   0  0  0  0  0  0  0  0  0  0  0  0
   10.4650    1.1800    0.3950 C   0  0  0  0  0  0  0  0  0  0  0  0
    9.1260    1.1570    0.1200 C   0  0  0  0  0  0  0  0  0  0  0  0
    6.6030   -1.0280   -1.4290 C   0  0  0  0  0  0  0  0  0  0  0  0
    5.2800   -1.1330   -1.7350 C   0  0  0  0  0  0  0  0  0  0  0  0
   -2.9590   -1.6370    2.6980 C   0  0  0  0  0  0  0  0  0  0  0  0
   -1.8350   -2.0690    3.4790 C   0  0  0  0  0  0  0  0  0  0  0  0
   -1.7350   -2.1760    4.8570 C   0  0  0  0  0  0  0  0  0  0  0  0
   -0.4670   -2.6350    5.1410 C   0  0  0  0  0  0  0  0  0  0  0  0
    0.1630   -2.7940    3.9320 C   0  0  0  0  0  0  0  0  0  0  0  0
   -0.6620   -2.4560    3.0000 O   0  0  0  0  0  0  0  0  0  0  0  0
  1  2  2  0
  2  3  1  0
  2 15  1  0
  3  4  1  0
  4  5  2  0
  4 13  1  0
  5  6  1  0
  6  7  2  0
  6 11  1  0
  7  8  1  0
  8  9  2  0
  9 10  1  0
 10 11  2  0
 11 12  1  0
 12 13  1  0
 13 14  2  0
 15 16  1  0
 15 36  2  3
 16 17  2  3
 17 18  1  0
 18 19  2  3
 19 20  1  0
 20 21  1  0
 21 22  1  0
 22 23  1  0
 23 24  1  0
 24 25  2  0
 24 35  1  0
 25 26  1  0
 26 27  2  0
 27 28  1  0
 27 34  1  0
 28 29  2  0
 28 33  1  0
 29 30  1  0
 30 31  2  0
 31 32  1  0
 32 33  2  0
 34 35  2  0
 36 37  1  0
 37 38  2  0
 37 41  1  0
 38 39  1  0
 39 40  2  0
 40 41  1  0
M  END
