
     RDKit          3D

 41 44  0  0  0  0  0  0  0  0999 V2000
    8.6660    3.4200    0.0650 C   0  0  0  0  0  0  0  0  0  0  0  0
    8.4020    2.1600   -0.5170 O   0  0  0  0  0  0  0  0  0  0  0  0
    7.6180    1.2610    0.1870 C   0  0  0  0  0  0  0  0  0  0  0  0
    7.0740    1.5160    1.4270 C   0  0  0  0  0  0  0  0  0  0  0  0
    6.3050    0.6000    2.0910 C   0  0  0  0  0  0  0  0  0  0  0  0
    5.7530    0.8420    3.3360 O   0  0  0  0  0  0  0  0  0  0  0  0
    5.9640    2.0910    4.0030 C   0  0  0  0  0  0  0  0  0  0  0  0
    6.0590   -0.6350    1.4980 C   0  0  0  0  0  0  0  0  0  0  0  0
    6.5790   -0.9460    0.2540 C   0  0  0  0  0  0  0  0  0  0  0  0
    7.3460    0.0090   -0.3700 C   0  0  0  0  0  0  0  0  0  0  0  0
    7.9230   -0.2850   -1.7130 C   0  0  0  0  0  0  0  0  0  0  0  0
    6.3420   -2.1880   -0.3600 O   0  0  0  0  0  0  0  0  0  0  0  0
    5.8740   -3.2210    0.5170 C   0  0  0  0  0  0  0  0  0  0  0  0
    4.6960   -2.5820    1.2630 C   0  0  2  0  0  0  0  0  0  0  0  0
    3.9180   -1.8590    0.1850 C   0  0  0  0  0  0  0  0  0  0  0  0
    3.8670   -0.6210    0.1990 O   0  0  0  0  0  0  0  0  0  0  0  0
    3.2720   -2.6150   -0.8080 N   0  0  0  0  0  0  0  0  0  0  0  0
    2.5030   -2.0150   -1.8530 C   0  0  0  0  0  0  0  0  0  0  0  0
    1.2840   -1.3310   -1.3490 C   0  0  1  0  0  0  0  0  0  0  0  0
    0.3340   -2.3960   -0.7970 C   0  0  0  0  0  0  0  0  0  0  0  0
   -0.9100   -1.6750   -0.4830 N   0  0  0  0  0  0  0  0  0  0  0  0
   -2.1660   -2.0960   -0.9590 C   0  0  0  0  0  0  0  0  0  0  0  0
   -2.2450   -3.1140   -1.6810 O   0  0  0  0  0  0  0  0  0  0  0  0
   -3.3570   -1.3040   -0.5780 C   0  0  0  0  0  0  0  0  0  0  0  0
   -4.6070   -1.7440   -1.2920 C   0  0  0  0  0  0  0  0  0  0  0  0
   -5.8090   -0.9360   -0.8910 C   0  0  1  0  0  0  0  0  0  0  0  0
   -6.0520   -1.0910    0.6160 C   0  0  0  0  0  0  0  0  0  0  0  0
   -5.6710    0.5350   -1.2170 C   0  0  0  0  0  0  0  0  0  0  0  0
   -6.8860    1.2390   -0.7930 C   0  0  0  0  0  0  0  0  0  0  0  0
   -7.2580    1.8300    0.3460 C   0  0  0  0  0  0  0  0  0  0  0  0
   -8.4640    2.4160    0.4510 C   0  0  0  0  0  0  0  0  0  0  0  0
   -9.2860    2.3810   -0.6490 C   0  0  0  0  0  0  0  0  0  0  0  0
  -10.6230    2.9150   -0.8390 C   0  0  0  0  0  0  0  0  0  0  0  0
  -11.2050    2.7760   -1.9390 O   0  0  0  0  0  0  0  0  0  0  0  0
  -11.2610    3.6130    0.2840 C   0  0  0  0  0  0  0  0  0  0  0  0
  -12.5320    4.0570   -0.0510 O   0  0  0  0  0  0  0  0  0  0  0  0
   -8.3420    1.5090   -1.8440 S   0  0  0  0  0  0  0  0  0  0  0  0
   -0.7220   -0.4950    0.3390 C   0  0  0  0  0  0  0  0  0  0  0  0
    0.7260   -0.3760    0.6770 C   0  0  0  0  0  0  0  0  0  0  0  0
    1.5180   -0.3350   -0.4670 O   0  0  0  0  0  0  0  0  0  0  0  0
    5.2770   -1.6130    2.1290 O   0  0  0  0  0  0  0  0  0  0  0  0
  1  2  1  0
  2  3  1  0
  3  4  2  0
  3 10  1  0
  4  5  1  0
  5  6  1  0
  5  8  2  0
  6  7  1  0
  8  9  1  0
  8 41  1  0
  9 10  2  0
  9 12  1  0
 10 11  1  0
 12 13  1  0
 13 14  1  0
 14 15  1  6
 14 41  1  0
 15 16  2  0
 15 17  1  0
 17 18  1  0
 19 18  1  1
 19 20  1  0
 19 40  1  0
 20 21  1  0
 21 22  1  0
 21 38  1  0
 22 23  2  0
 22 24  1  0
 24 25  1  0
 25 26  1  0
 26 27  1  1
 26 28  1  0
 28 29  1  0
 29 30  2  0
 29 37  1  0
 30 31  1  0
 31 32  2  0
 32 33  1  0
 32 37  1  0
 33 34  2  0
 33 35  1  0
 35 36  1  0
 38 39  1  0
 39 40  1  0
M  END
