
     RDKit          3D

 41 44  0  0  0  0  0  0  0  0999 V2000
   -7.1680    5.8520    1.1300 C   0  0  0  0  0  0  0  0  0  0  0  0
   -6.2410    5.4600   -0.0220 C   0  0  2  0  0  0  0  0  0  0  0  0
   -6.9150    4.4110   -0.8370 C   0  0  0  0  0  0  0  0  0  0  0  0
   -6.2560    3.1550   -0.3640 C   0  0  0  0  0  0  0  0  0  0  0  0
   -5.2220    3.5630    0.6390 C   0  0  1  0  0  0  0  0  0  0  0  0
   -3.8590    2.9660    0.2550 C   0  0  0  0  0  0  0  0  0  0  0  0
   -3.8950    1.5630    0.4710 O   0  0  0  0  0  0  0  0  0  0  0  0
   -2.7790    0.7710    0.1710 C   0  0  0  0  0  0  0  0  0  0  0  0
   -1.6680    1.4220   -0.3840 C   0  0  0  0  0  0  0  0  0  0  0  0
   -0.5400    0.7040   -0.7040 C   0  0  0  0  0  0  0  0  0  0  0  0
    0.5690    1.2650   -1.2580 O   0  0  0  0  0  0  0  0  0  0  0  0
    1.8550    1.3720   -0.7510 C   0  0  0  0  0  0  0  0  0  0  0  0
    2.1180    0.9320    0.3560 O   0  0  0  0  0  0  0  0  0  0  0  0
    2.9210    2.0280   -1.5870 C   0  0  0  0  0  0  0  0  0  0  0  0
    4.2290    1.5450   -1.1790 N   0  0  0  0  0  0  0  0  0  0  0  0
    4.5050    0.1480   -1.1440 C   0  0  0  0  0  0  0  0  0  0  0  0
    3.5440   -0.6290   -1.4470 O   0  0  0  0  0  0  0  0  0  0  0  0
    5.7630   -0.4660   -0.7980 C   0  0  0  0  0  0  0  0  0  0  0  0
    5.9870   -1.5950   -0.0180 C   0  0  0  0  0  0  0  0  0  0  0  0
    7.3450   -1.8240    0.0380 C   0  0  0  0  0  0  0  0  0  0  0  0
    7.8980   -0.8030   -0.7340 C   0  0  0  0  0  0  0  0  0  0  0  0
    6.9390   -0.0640   -1.1750 O   0  0  0  0  0  0  0  0  0  0  0  0
    9.3870   -0.8190   -0.8650 C   0  0  0  0  0  0  0  0  0  0  0  0
    9.9650   -1.0260    0.5390 C   0  0  1  0  0  0  0  0  0  0  0  0
   11.4640   -0.9030    0.5270 C   0  0  0  0  0  0  0  0  0  0  0  0
    9.3340    0.0510    1.3900 C   0  0  0  0  0  0  0  0  0  0  0  0
    9.6320   -2.4380    1.0470 C   0  0  0  0  0  0  0  0  0  0  0  0
    8.2160   -2.7680    0.6980 C   0  0  0  0  0  0  0  0  0  0  0  0
    7.7710   -3.8950    0.9880 O   0  0  0  0  0  0  0  0  0  0  0  0
   -0.5680   -0.6400   -0.4450 C   0  0  0  0  0  0  0  0  0  0  0  0
   -1.6600   -1.3110    0.1080 C   0  0  0  0  0  0  0  0  0  0  0  0
   -2.7740   -0.5660    0.4100 C   0  0  0  0  0  0  0  0  0  0  0  0
   -3.8820   -1.1570    0.9530 O   0  0  0  0  0  0  0  0  0  0  0  0
   -3.8840   -2.5280    1.2420 C   0  0  0  0  0  0  0  0  0  0  0  0
   -5.1500   -3.0000    1.8390 C   0  0  0  0  0  0  0  0  0  0  0  0
   -6.3710   -2.9340    0.9700 C   0  0  0  0  0  0  0  0  0  0  0  0
   -6.2520   -3.7280   -0.2280 N   0  0  0  0  0  0  0  0  0  0  0  0
   -7.2750   -5.0780   -0.2440 S   0  0  0  0  0  0  0  0  0  0  0  0
   -8.8650   -4.9100   -0.9880 C   0  0  0  0  0  0  0  0  0  0  0  0
   -6.6070   -6.4130   -0.5200 O   0  0  0  0  0  0  0  0  0  0  0  0
   -5.1000    4.9270    0.4970 O   0  0  0  0  0  0  0  0  0  0  0  0
  2  1  1  1
  2  3  1  0
  2 41  1  0
  3  4  1  0
  4  5  1  0
  5  6  1  6
  5 41  1  0
  6  7  1  0
  7  8  1  0
  8  9  2  0
  8 32  1  0
  9 10  1  0
 10 11  1  0
 10 30  2  0
 11 12  1  0
 12 13  2  0
 12 14  1  0
 14 15  1  0
 15 16  1  0
 16 17  2  0
 16 18  1  0
 18 19  2  0
 18 22  1  0
 19 20  1  0
 20 21  2  0
 20 28  1  0
 21 22  1  0
 21 23  1  0
 23 24  1  0
 24 25  1  6
 24 26  1  0
 24 27  1  0
 27 28  1  0
 28 29  2  0
 30 31  1  0
 31 32  2  0
 32 33  1  0
 33 34  1  0
 34 35  1  0
 35 36  1  0
 36 37  1  0
 37 38  1  0
 38 39  1  6
 38 40  2  0
M  END
