
     RDKit          3D

 41 45  0  0  0  0  0  0  0  0999 V2000
   -7.1020    0.7600    2.7780 C   0  0  0  0  0  0  0  0  0  0  0  0
   -7.2000    1.7330    1.6580 C   0  0  0  0  0  0  0  0  0  0  0  0
   -5.8640    2.1800    1.1910 C   0  0  0  0  0  0  0  0  0  0  0  0
   -4.9730    1.1080    0.6660 C   0  0  2  0  0  0  0  0  0  0  0  0
   -5.5050    0.3490   -0.4590 C   0  0  0  0  0  0  0  0  0  0  0  0
   -5.6700   -0.8790   -0.5150 O   0  0  0  0  0  0  0  0  0  0  0  0
   -5.8910    1.0750   -1.6550 N   0  0  0  0  0  0  0  0  0  0  0  0
   -6.4200    0.3530   -2.7860 C   0  0  1  0  0  0  0  0  0  0  0  0
   -7.4450    1.0160   -3.6510 C   0  0  0  0  0  0  0  0  0  0  0  0
   -6.0120    0.9040   -4.1310 C   0  0  0  0  0  0  0  0  0  0  0  0
   -4.1080    0.4440    1.6320 C   0  0  0  0  0  0  0  0  0  0  0  0
   -4.0780    0.8290    2.8260 O   0  0  0  0  0  0  0  0  0  0  0  0
   -3.2440   -0.6570    1.2750 C   0  0  0  0  0  0  0  0  0  0  0  0
   -3.6030   -1.9650    1.4540 C   0  0  0  0  0  0  0  0  0  0  0  0
   -4.8360   -2.4120    2.1750 C   0  0  0  0  0  0  0  0  0  0  0  0
   -2.7170   -2.9450    0.9950 C   0  0  0  0  0  0  0  0  0  0  0  0
   -1.5240   -2.6370    0.3870 C   0  0  0  0  0  0  0  0  0  0  0  0
   -1.1620   -1.3320    0.2100 C   0  0  0  0  0  0  0  0  0  0  0  0
   -0.0230   -0.7390   -0.3640 C   0  0  0  0  0  0  0  0  0  0  0  0
    1.0570   -1.4990   -0.9920 C   0  0  0  0  0  0  0  0  0  0  0  0
    0.6110   -2.4230   -1.7950 O   0  0  0  0  0  0  0  0  0  0  0  0
    2.4670   -1.3590   -0.8360 C   0  0  0  0  0  0  0  0  0  0  0  0
    3.1250   -0.5520   -0.0640 C   0  0  0  0  0  0  0  0  0  0  0  0
    2.4300    0.3440    0.7880 O   0  0  0  0  0  0  0  0  0  0  0  0
    2.7910    1.7290    0.8050 C   0  0  0  0  0  0  0  0  0  0  0  0
    4.5890   -0.4520    0.0190 C   0  0  0  0  0  0  0  0  0  0  0  0
    5.1460   -0.2240    1.2910 C   0  0  0  0  0  0  0  0  0  0  0  0
    6.4990   -0.0840    1.4730 C   0  0  0  0  0  0  0  0  0  0  0  0
    7.3800   -0.1590    0.4180 C   0  0  0  0  0  0  0  0  0  0  0  0
    8.8470   -0.0100    0.6260 C   0  0  0  0  0  0  0  0  0  0  0  0
    9.1720    0.2010    1.9440 O   0  0  0  0  0  0  0  0  0  0  0  0
   10.5710    0.3240    2.0080 C   0  0  0  0  0  0  0  0  0  0  0  0
    6.8480   -0.3770   -0.8320 C   0  0  0  0  0  0  0  0  0  0  0  0
    7.7360   -0.4000   -1.8860 C   0  0  0  0  0  0  0  0  0  0  0  0
    7.2430   -0.5630   -3.1600 C   0  0  0  0  0  0  0  0  0  0  0  0
    5.8870   -0.6970   -3.3660 C   0  0  0  0  0  0  0  0  0  0  0  0
    4.9860   -0.6770   -2.3110 C   0  0  0  0  0  0  0  0  0  0  0  0
    5.4620   -0.5210   -1.0310 C   0  0  0  0  0  0  0  0  0  0  0  0
   -0.2340    0.6090   -0.2500 C   0  0  0  0  0  0  0  0  0  0  0  0
   -1.4340    0.8150    0.3620 N   0  0  0  0  0  0  0  0  0  0  0  0
   -2.0110   -0.3570    0.6480 C   0  0  0  0  0  0  0  0  0  0  0  0
  1  2  1  0
  2  3  1  0
  4  3  1  1
  4  5  1  0
  4 11  1  0
  5  6  2  0
  5  7  1  0
  8  7  1  1
  8  9  1  0
  8 10  1  0
  9 10  1  0
 11 12  2  0
 11 13  1  0
 13 14  2  0
 13 41  1  0
 14 15  1  0
 14 16  1  0
 16 17  2  0
 17 18  1  0
 18 19  1  0
 18 41  2  0
 19 20  1  0
 19 39  2  0
 20 21  2  0
 20 22  1  0
 22 23  2  3
 23 24  1  0
 23 26  1  0
 24 25  1  0
 26 27  2  0
 26 38  1  0
 27 28  1  0
 28 29  2  0
 29 30  1  0
 29 33  1  0
 30 31  1  0
 31 32  1  0
 33 34  2  0
 33 38  1  0
 34 35  1  0
 35 36  2  0
 36 37  1  0
 37 38  2  0
 39 40  1  0
 40 41  1  0
M  END
