
     RDKit          3D

 41 45  0  0  0  0  0  0  0  0999 V2000
   -6.2510    2.8060    0.1960 C   0  0  0  0  0  0  0  0  0  0  0  0
   -7.0760    1.8950   -0.6310 C   0  0  0  0  0  0  0  0  0  0  0  0
   -7.7660    2.3230   -1.7440 C   0  0  0  0  0  0  0  0  0  0  0  0
   -8.5000    1.3960   -2.4420 C   0  0  0  0  0  0  0  0  0  0  0  0
   -8.5640    0.0620   -2.0620 C   0  0  0  0  0  0  0  0  0  0  0  0
   -9.3670   -0.9230   -2.8350 C   0  0  0  0  0  0  0  0  0  0  0  0
   -7.8580   -0.3190   -0.9430 C   0  0  0  0  0  0  0  0  0  0  0  0
   -7.8640   -1.6690   -0.4770 N   0  0  0  0  0  0  0  0  0  0  0  0
   -7.0960   -2.0010    0.7100 C   0  0  0  0  0  0  0  0  0  0  0  0
   -5.6790   -1.6770    0.3760 C   0  0  0  0  0  0  0  0  0  0  0  0
   -4.7470   -1.5300    1.3770 C   0  0  0  0  0  0  0  0  0  0  0  0
   -3.4300   -1.2340    1.1130 C   0  0  0  0  0  0  0  0  0  0  0  0
   -2.9640   -1.0670   -0.1680 C   0  0  0  0  0  0  0  0  0  0  0  0
   -1.5440   -0.7200   -0.4180 C   0  0  0  0  0  0  0  0  0  0  0  0
   -0.7090   -0.4660    0.5670 C   0  0  0  0  0  0  0  0  0  0  0  0
    0.7270   -0.1110    0.4300 C   0  0  0  0  0  0  0  0  0  0  0  0
    1.2160   -0.0660   -0.9400 C   0  0  0  0  0  0  0  0  0  0  0  0
    2.5320    0.2420   -1.2080 O   0  0  0  0  0  0  0  0  0  0  0  0
    3.5210   -0.2530   -0.2780 C   0  0  0  0  0  0  0  0  0  0  0  0
    3.4480   -1.7230   -0.2480 C   0  0  0  0  0  0  0  0  0  0  0  0
    2.4740   -2.2220   -0.8360 O   0  0  0  0  0  0  0  0  0  0  0  0
    4.4110   -2.6290    0.4010 C   0  0  0  0  0  0  0  0  0  0  0  0
    5.5370   -2.0620    0.9360 O   0  0  0  0  0  0  0  0  0  0  0  0
    5.7620   -1.1900    1.9430 C   0  0  0  0  0  0  0  0  0  0  0  0
    4.7450   -0.7600    2.5740 O   0  0  0  0  0  0  0  0  0  0  0  0
    7.1130   -0.7030    2.3620 C   0  0  0  0  0  0  0  0  0  0  0  0
    7.3130    0.7330    2.1230 C   0  0  0  0  0  0  0  0  0  0  0  0
    7.1250    1.6080    3.1840 C   0  0  0  0  0  0  0  0  0  0  0  0
    7.2640    2.9610    3.1050 C   0  0  0  0  0  0  0  0  0  0  0  0
    7.6200    3.4670    1.8570 C   0  0  0  0  0  0  0  0  0  0  0  0
    7.8150    2.6210    0.7830 C   0  0  0  0  0  0  0  0  0  0  0  0
    7.6720    1.2550    0.8740 C   0  0  0  0  0  0  0  0  0  0  0  0
    7.8800    0.3450   -0.2610 C   0  0  2  0  0  0  0  0  0  0  0  0
    8.5250    0.9070   -1.4960 C   0  0  0  0  0  0  0  0  0  0  0  0
    7.0970    0.5110   -1.5150 C   0  0  0  0  0  0  0  0  0  0  0  0
    0.4210   -0.3180   -1.9580 C   0  0  0  0  0  0  0  0  0  0  0  0
   -1.0120   -0.6600   -1.7670 C   0  0  0  0  0  0  0  0  0  0  0  0
   -1.6690   -0.8780   -2.8070 O   0  0  0  0  0  0  0  0  0  0  0  0
   -3.8860   -1.2110   -1.1770 C   0  0  0  0  0  0  0  0  0  0  0  0
   -5.2330   -1.5140   -0.9010 C   0  0  0  0  0  0  0  0  0  0  0  0
   -7.1430    0.6010   -0.2690 N   0  0  0  0  0  0  0  0  0  0  0  0
  1  2  1  0
  2  3  2  0
  2 41  1  0
  3  4  1  0
  4  5  2  0
  5  6  1  0
  5  7  1  0
  7  8  1  0
  7 41  2  0
  8  9  1  0
  9 10  1  0
 10 11  2  0
 10 40  1  0
 11 12  1  0
 12 13  2  0
 13 14  1  0
 13 39  1  0
 14 15  2  0
 14 37  1  0
 15 16  1  0
 16 17  1  0
 17 18  1  0
 17 36  2  0
 18 19  1  0
 19 20  1  0
 20 21  2  0
 20 22  1  0
 22 23  1  0
 23 24  1  0
 24 25  2  0
 24 26  1  0
 26 27  1  0
 27 28  2  0
 27 32  1  0
 28 29  1  0
 29 30  2  0
 30 31  1  0
 31 32  2  0
 33 32  1  1
 33 34  1  0
 33 35  1  0
 34 35  1  0
 36 37  1  0
 37 38  2  0
 39 40  2  0
M  END
