
     RDKit          3D

 41 43  0  0  0  0  0  0  0  0999 V2000
   -0.5360   -1.4730   -3.0860 C   0  0  0  0  0  0  0  0  0  0  0  0
   -0.3600   -1.5050   -1.6810 O   0  0  0  0  0  0  0  0  0  0  0  0
   -0.5080   -2.6590   -0.9340 C   0  0  0  0  0  0  0  0  0  0  0  0
   -0.8130   -3.6880   -1.6100 O   0  0  0  0  0  0  0  0  0  0  0  0
   -0.3480   -2.7690    0.4990 C   0  0  0  0  0  0  0  0  0  0  0  0
   -0.6030   -4.0290    1.0700 C   0  0  0  0  0  0  0  0  0  0  0  0
   -0.5080   -4.1990    2.4170 C   0  0  0  0  0  0  0  0  0  0  0  0
   -0.1620   -3.1340    3.2200 C   0  0  0  0  0  0  0  0  0  0  0  0
    0.0900   -1.8980    2.6650 C   0  0  0  0  0  0  0  0  0  0  0  0
   -0.0030   -1.7040    1.2730 C   0  0  0  0  0  0  0  0  0  0  0  0
    0.3070   -0.4210    0.7530 N   0  0  0  0  0  0  0  0  0  0  0  0
    1.6860    0.0230    0.9320 C   0  0  0  0  0  0  0  0  0  0  0  0
    2.6150   -0.2660   -0.1460 C   0  0  0  0  0  0  0  0  0  0  0  0
    2.5050   -1.0530   -1.0960 O   0  0  0  0  0  0  0  0  0  0  0  0
    3.8530    0.4400   -0.1530 O   0  0  0  0  0  0  0  0  0  0  0  0
    4.8190    0.2180   -1.1650 C   0  0  1  0  0  0  0  0  0  0  0  0
    5.0700    1.4770   -1.9710 C   0  0  0  0  0  0  0  0  0  0  0  0
    6.0950   -0.2260   -0.4880 C   0  0  0  0  0  0  0  0  0  0  0  0
    6.5310    0.8440    0.4270 C   0  0  0  0  0  0  0  0  0  0  0  0
    5.8310    1.8710    0.5560 O   0  0  0  0  0  0  0  0  0  0  0  0
    7.6940    0.7240    1.1370 O   0  0  0  0  0  0  0  0  0  0  0  0
    8.1690    1.7200    2.0300 C   0  0  1  0  0  0  0  0  0  0  0  0
    8.4490    1.0660    3.3570 C   0  0  0  0  0  0  0  0  0  0  0  0
    9.4820    2.2220    1.4090 C   0  0  0  0  0  0  0  0  0  0  0  0
    9.1620    2.7440    0.1350 O   0  0  0  0  0  0  0  0  0  0  0  0
   -0.5710    0.4850    0.1600 C   0  0  0  0  0  0  0  0  0  0  0  0
    0.0250    1.4990   -0.4170 O   0  0  0  0  0  0  0  0  0  0  0  0
   -2.0110    0.5380    0.0560 C   0  0  0  0  0  0  0  0  0  0  0  0
   -2.8060   -0.4590    0.6670 N   0  0  0  0  0  0  0  0  0  0  0  0
   -4.2290   -0.4390    0.4200 C   0  0  0  0  0  0  0  0  0  0  0  0
   -5.0150   -1.4360    0.9360 C   0  0  0  0  0  0  0  0  0  0  0  0
   -6.3980   -1.4620    0.7260 C   0  0  0  0  0  0  0  0  0  0  0  0
   -6.9660   -0.4380   -0.0300 C   0  0  0  0  0  0  0  0  0  0  0  0
   -6.2000    0.5770   -0.5590 C   0  0  0  0  0  0  0  0  0  0  0  0
   -6.8440    1.6320   -1.3440 C   0  0  1  0  0  0  0  0  0  0  0  0
   -7.4250    1.2250   -2.6450 C   0  0  0  0  0  0  0  0  0  0  0  0
   -8.8130    0.7210   -2.4840 C   0  0  0  0  0  0  0  0  0  0  0  0
   -9.3850    1.5560   -0.9910 S   0  0  0  0  0  0  0  0  0  0  0  0
  -10.5150    2.5290   -1.2710 O   0  0  0  0  0  0  0  0  0  0  0  0
   -7.8500    2.4450   -0.5710 C   0  0  0  0  0  0  0  0  0  0  0  0
   -4.8240    0.5450   -0.3130 C   0  0  0  0  0  0  0  0  0  0  0  0
  1  2  1  0
  2  3  1  0
  3  4  2  0
  3  5  1  0
  5  6  2  0
  5 10  1  0
  6  7  1  0
  7  8  2  0
  8  9  1  0
  9 10  2  0
 10 11  1  0
 11 12  1  0
 11 26  1  0
 12 13  1  0
 13 14  2  0
 13 15  1  0
 15 16  1  0
 16 17  1  1
 16 18  1  0
 18 19  1  0
 19 20  2  0
 19 21  1  0
 21 22  1  0
 22 23  1  1
 22 24  1  0
 24 25  1  0
 26 27  2  0
 26 28  1  0
 28 29  1  0
 29 30  1  0
 30 31  2  0
 30 41  1  0
 31 32  1  0
 32 33  2  0
 33 34  1  0
 35 34  1  1
 34 41  2  0
 35 36  1  0
 35 40  1  0
 36 37  1  0
 38 37  1  6
 38 39  2  0
 38 40  1  0
M  END
