
     RDKit          3D

 39 40  0  0  0  0  0  0  0  0999 V2000
   -5.6720   -1.9780    0.3250 O   0  0  0  0  0  0  0  0  0  0  0  0
   -5.1050   -2.8280   -0.3820 C   0  0  0  0  0  0  0  0  0  0  0  0
   -5.7270   -3.9890   -0.7940 O   0  0  0  0  0  0  0  0  0  0  0  0
   -3.7230   -2.5890   -0.7960 C   0  0  0  0  0  0  0  0  0  0  0  0
   -3.0090   -1.5170   -0.4730 C   0  0  0  0  0  0  0  0  0  0  0  0
   -3.5280   -0.5420    0.2820 O   0  0  0  0  0  0  0  0  0  0  0  0
   -3.8360    0.8030    0.2650 C   0  0  2  0  0  0  0  0  0  0  0  0
   -4.4870    1.3020    1.5340 C   0  0  0  0  0  0  0  0  0  0  0  0
   -5.6870    0.6690    1.8220 O   0  0  0  0  0  0  0  0  0  0  0  0
   -4.8130    1.0840   -0.8560 C   0  0  0  0  0  0  0  0  0  0  0  0
   -4.2530    0.7220   -2.0900 O   0  0  0  0  0  0  0  0  0  0  0  0
   -2.6070    1.6030    0.0140 C   0  0  1  0  0  0  0  0  0  0  0  0
   -2.3900    1.5310   -1.3370 O   0  0  0  0  0  0  0  0  0  0  0  0
   -2.5200    2.9760    0.3610 N   0  0  0  0  0  0  0  0  0  0  0  0
   -1.2260    3.5210    0.5610 C   0  0  0  0  0  0  0  0  0  0  0  0
   -1.2280    4.6200    1.2700 O   0  0  0  0  0  0  0  0  0  0  0  0
    0.0680    3.1000    0.1350 C   0  0  0  0  0  0  0  0  0  0  0  0
    0.8090    4.1210   -0.2820 O   0  0  0  0  0  0  0  0  0  0  0  0
    0.7570    1.9110    0.0400 N   0  0  0  0  0  0  0  0  0  0  0  0
    1.0460    0.8370    0.9460 C   0  0  0  0  0  0  0  0  0  0  0  0
    1.6960   -0.3550    0.3080 C   0  0  1  0  0  0  0  0  0  0  0  0
    2.7550   -0.8660    1.0430 O   0  0  0  0  0  0  0  0  0  0  0  0
    3.9540   -0.9040    0.3400 C   0  0  2  0  0  0  0  0  0  0  0  0
    4.2880   -2.3990    0.2240 C   0  0  0  0  0  0  0  0  0  0  0  0
    5.4530   -2.5850   -0.4510 F   0  0  0  0  0  0  0  0  0  0  0  0
    5.0450   -0.2010    1.1060 C   0  0  2  0  0  0  0  0  0  0  0  0
    5.2040   -0.8590    2.3370 O   0  0  0  0  0  0  0  0  0  0  0  0
    4.6880    1.2590    1.3560 C   0  0  0  0  0  0  0  0  0  0  0  0
    6.0830    1.8640    1.4230 C   0  0  0  0  0  0  0  0  0  0  0  0
    6.7380    1.2360    0.3900 O   0  0  0  0  0  0  0  0  0  0  0  0
    6.3300   -0.0860    0.3400 C   0  0  0  0  0  0  0  0  0  0  0  0
    0.7440   -1.5630    0.0860 C   0  0  0  0  0  0  0  0  0  0  0  0
   -0.5410   -1.0260   -0.2330 C   0  0  0  0  0  0  0  0  0  0  0  0
   -1.6120   -1.5310   -1.0330 C   0  0  0  0  0  0  0  0  0  0  0  0
   -1.4290   -1.9810   -2.2630 C   0  0  0  0  0  0  0  0  0  0  0  0
   -0.1780   -2.0860   -3.0150 C   0  0  2  0  0  0  0  0  0  0  0  0
    0.6410   -0.9730   -2.8050 F   0  0  0  0  0  0  0  0  0  0  0  0
   -0.5040   -2.0120   -4.3990 F   0  0  0  0  0  0  0  0  0  0  0  0
    0.5010   -3.2570   -2.8890 F   0  0  0  0  0  0  0  0  0  0  0  0
  1  2  2  0
  2  3  1  0
  2  4  1  0
  4  5  2  3
  5  6  1  0
  5 34  1  0
  6  7  1  0
  7  8  1  1
  7 10  1  0
  7 12  1  0
  8  9  1  0
 10 11  1  0
 12 13  1  6
 12 14  1  0
 14 15  1  0
 15 16  2  0
 15 17  1  0
 17 18  2  0
 17 19  1  0
 19 20  1  0
 20 21  1  0
 21 22  1  1
 21 32  1  0
 22 23  1  0
 23 24  1  1
 23 26  1  0
 24 25  1  0
 26 27  1  1
 26 28  1  0
 26 31  1  0
 28 29  1  0
 29 30  1  0
 30 31  1  0
 32 33  1  0
 33 34  1  0
 34 35  2  3
 35 36  1  0
 36 37  1  1
 36 38  1  0
 36 39  1  0
M  END
