
     RDKit          3D

 40 43  0  0  0  0  0  0  0  0999 V2000
   -9.9080    0.3160   -2.0710 C   0  0  0  0  0  0  0  0  0  0  0  0
   -9.2120   -0.3270   -0.9080 C   0  0  2  0  0  0  0  0  0  0  0  0
   -9.3000    0.4560    0.2980 N   0  0  0  0  0  0  0  0  0  0  0  0
   -8.3740    0.1840    1.3720 C   0  0  0  0  0  0  0  0  0  0  0  0
   -8.7370    0.5200    2.6790 C   0  0  0  0  0  0  0  0  0  0  0  0
   -7.8820    0.2650    3.7260 C   0  0  0  0  0  0  0  0  0  0  0  0
   -6.6650   -0.3270    3.4610 C   0  0  0  0  0  0  0  0  0  0  0  0
   -6.2800   -0.6690    2.1870 C   0  0  0  0  0  0  0  0  0  0  0  0
   -7.1480   -0.4050    1.1480 C   0  0  0  0  0  0  0  0  0  0  0  0
   -6.7860   -0.7600   -0.2080 N   0  0  0  0  0  0  0  0  0  0  0  0
   -5.5330   -1.3780   -0.5010 C   0  0  0  0  0  0  0  0  0  0  0  0
   -4.4190   -0.4160   -0.8550 C   0  0  2  0  0  0  0  0  0  0  0  0
   -3.2930   -1.1730   -1.1010 O   0  0  0  0  0  0  0  0  0  0  0  0
   -4.1620    0.6650    0.1080 C   0  0  0  0  0  0  0  0  0  0  0  0
   -3.1820    1.6160   -0.3450 N   0  0  0  0  0  0  0  0  0  0  0  0
   -1.8170    1.3740   -0.6220 C   0  0  0  0  0  0  0  0  0  0  0  0
   -1.3610    0.2230   -0.4600 O   0  0  0  0  0  0  0  0  0  0  0  0
   -0.9110    2.4830   -1.1080 C   0  0  0  0  0  0  0  0  0  0  0  0
    0.4330    1.9230   -1.3020 C   0  0  0  0  0  0  0  0  0  0  0  0
    0.8080    1.3690   -2.5080 C   0  0  0  0  0  0  0  0  0  0  0  0
    2.0610    0.8360   -2.7230 C   0  0  0  0  0  0  0  0  0  0  0  0
    3.0020    0.8340   -1.7320 C   0  0  0  0  0  0  0  0  0  0  0  0
    4.6070    0.1950   -1.8770 S   0  0  1  0  0  0  0  0  0  0  0  0
    5.0170    0.3430   -3.3230 O   0  0  0  0  0  0  0  0  0  0  0  0
    5.5120    1.0380   -1.0240 O   0  0  0  0  0  0  0  0  0  0  0  0
    4.7140   -1.5080   -1.4160 C   0  0  0  0  0  0  0  0  0  0  0  0
    6.0810   -2.0710   -1.5360 C   0  0  2  0  0  0  0  0  0  0  0  0
    6.0040   -3.4260   -1.1360 O   0  0  0  0  0  0  0  0  0  0  0  0
    7.1640   -1.3780   -0.8260 C   0  0  0  0  0  0  0  0  0  0  0  0
    7.0250   -1.2740    0.6540 C   0  0  0  0  0  0  0  0  0  0  0  0
    8.1830   -0.5470    1.3030 C   0  0  2  0  0  0  0  0  0  0  0  0
    8.3400    0.8620    0.8040 C   0  0  0  0  0  0  0  0  0  0  0  0
    9.3650    1.4660    1.5050 O   0  0  0  0  0  0  0  0  0  0  0  0
    9.8830    0.6950    2.5140 C   0  0  0  0  0  0  0  0  0  0  0  0
   10.2840   -0.6830    2.0720 C   0  0  0  0  0  0  0  0  0  0  0  0
    9.3730   -1.2570    1.1860 O   0  0  0  0  0  0  0  0  0  0  0  0
    2.6350    1.3860   -0.5210 C   0  0  0  0  0  0  0  0  0  0  0  0
    1.3860    1.9240   -0.2890 C   0  0  0  0  0  0  0  0  0  0  0  0
   -7.7550   -0.4640   -1.2110 C   0  0  0  0  0  0  0  0  0  0  0  0
   -7.3150   -0.3200   -2.3930 O   0  0  0  0  0  0  0  0  0  0  0  0
  2  1  1  6
  2  3  1  0
  2 39  1  0
  3  4  1  0
  4  5  2  0
  4  9  1  0
  5  6  1  0
  6  7  2  0
  7  8  1  0
  8  9  2  0
  9 10  1  0
 10 11  1  0
 10 39  1  0
 11 12  1  0
 12 13  1  1
 12 14  1  0
 14 15  1  0
 15 16  1  0
 16 17  2  0
 16 18  1  0
 18 19  1  0
 19 20  2  0
 19 38  1  0
 20 21  1  0
 21 22  2  0
 22 23  1  0
 22 37  1  0
 23 24  2  0
 23 25  2  0
 23 26  1  1
 26 27  1  0
 27 28  1  1
 27 29  1  0
 29 30  1  0
 31 30  1  6
 31 32  1  0
 31 36  1  0
 32 33  1  0
 33 34  1  0
 34 35  1  0
 35 36  1  0
 37 38  2  0
 39 40  2  0
M  END
