
     RDKit          3D

 40 43  0  0  0  0  0  0  0  0999 V2000
  -11.2450   -1.2000    0.9710 C   0  0  0  0  0  0  0  0  0  0  0  0
  -10.3660   -2.4450    1.1890 C   0  0  0  0  0  0  0  0  0  0  0  0
   -9.8660   -2.9650   -0.1260 C   0  0  0  0  0  0  0  0  0  0  0  0
   -9.1010   -2.1270   -0.8890 O   0  0  0  0  0  0  0  0  0  0  0  0
   -7.8860   -1.6100   -0.6290 C   0  0  0  0  0  0  0  0  0  0  0  0
   -7.1730   -1.8920    0.4980 C   0  0  0  0  0  0  0  0  0  0  0  0
   -5.9310   -1.3080    0.6830 C   0  0  0  0  0  0  0  0  0  0  0  0
   -5.3970   -0.4460   -0.2500 C   0  0  0  0  0  0  0  0  0  0  0  0
   -6.0940   -0.1540   -1.3810 C   0  0  0  0  0  0  0  0  0  0  0  0
   -7.3310   -0.7260   -1.5810 C   0  0  0  0  0  0  0  0  0  0  0  0
   -5.4940    0.7210   -2.2740 O   0  0  0  0  0  0  0  0  0  0  0  0
   -4.6140    1.7190   -1.8840 C   0  0  1  0  0  0  0  0  0  0  0  0
   -4.9210    2.4340   -0.6100 C   0  0  0  0  0  0  0  0  0  0  0  0
   -3.7550    1.4190   -0.7000 C   0  0  2  0  0  0  0  0  0  0  0  0
   -2.3850    1.9860   -0.6940 C   0  0  1  0  0  0  0  0  0  0  0  0
   -2.3980    3.3900   -0.7590 O   0  0  0  0  0  0  0  0  0  0  0  0
   -1.4870    1.4620    0.3050 C   0  0  0  0  0  0  0  0  0  0  0  0
   -1.7500    0.1260    1.4310 S   0  0  0  0  0  0  0  0  0  0  0  0
   -0.1070    0.2440    2.2090 C   0  0  0  0  0  0  0  0  0  0  0  0
    0.3010   -0.5060    3.1410 O   0  0  0  0  0  0  0  0  0  0  0  0
    0.4640    1.2650    1.5490 N   0  0  0  0  0  0  0  0  0  0  0  0
    1.8460    1.6240    2.0090 C   0  0  0  0  0  0  0  0  0  0  0  0
    2.8900    0.8170    1.2790 C   0  0  1  0  0  0  0  0  0  0  0  0
    2.9130    0.9770   -0.0690 O   0  0  0  0  0  0  0  0  0  0  0  0
    4.2100    1.1400    1.9240 C   0  0  0  0  0  0  0  0  0  0  0  0
    5.3190    0.3540    1.5100 N   0  0  0  0  0  0  0  0  0  0  0  0
    5.8220    0.3480    0.1960 C   0  0  0  0  0  0  0  0  0  0  0  0
    5.3220    1.0690   -0.6920 O   0  0  0  0  0  0  0  0  0  0  0  0
    6.9380   -0.4950   -0.1720 N   0  0  0  0  0  0  0  0  0  0  0  0
    7.4600   -0.5030   -1.5100 C   0  0  0  0  0  0  0  0  0  0  0  0
    8.6130   -1.4710   -1.5950 C   0  0  0  0  0  0  0  0  0  0  0  0
    9.6950   -1.0520   -0.6590 C   0  0  0  0  0  0  0  0  0  0  0  0
   10.8310   -2.0270   -0.7670 C   0  0  0  0  0  0  0  0  0  0  0  0
   10.7840   -3.0110   -1.5610 O   0  0  0  0  0  0  0  0  0  0  0  0
   11.9210   -1.7850    0.0470 O   0  0  0  0  0  0  0  0  0  0  0  0
   13.0260   -2.6530    0.0050 C   0  0  0  0  0  0  0  0  0  0  0  0
   -0.2080    1.8650    0.6150 C   0  0  0  0  0  0  0  0  0  0  0  0
    0.3460    3.0490   -0.1840 C   0  0  0  0  0  0  0  0  0  0  0  0
    0.6550    2.6330   -1.6050 C   0  0  0  0  0  0  0  0  0  0  0  0
   -4.0560    0.1550   -0.0080 C   0  0  0  0  0  0  0  0  0  0  0  0
  1  2  1  0
  2  3  1  0
  3  4  1  0
  4  5  1  0
  5  6  2  0
  5 10  1  0
  6  7  1  0
  7  8  2  0
  8  9  1  0
  8 40  1  0
  9 10  2  0
  9 11  1  0
 11 12  1  0
 12 13  1  1
 12 14  1  0
 14 13  1  1
 14 15  1  0
 14 40  1  0
 15 16  1  1
 15 17  1  0
 17 18  1  0
 17 37  2  0
 18 19  1  0
 19 20  2  0
 19 21  1  0
 21 22  1  0
 21 37  1  0
 22 23  1  0
 23 24  1  6
 23 25  1  0
 25 26  1  0
 26 27  1  0
 27 28  2  0
 27 29  1  0
 29 30  1  0
 30 31  1  0
 31 32  1  0
 32 33  1  0
 33 34  2  0
 33 35  1  0
 35 36  1  0
 37 38  1  0
 38 39  1  0
M  END
