
     RDKit          3D

 40 43  0  0  0  0  0  0  0  0999 V2000
   -7.6810    1.7670   -0.3070 C   0  0  0  0  0  0  0  0  0  0  0  0
   -7.2520    1.6760    1.0840 C   0  0  0  0  0  0  0  0  0  0  0  0
   -6.9220    0.2970    1.6420 C   0  0  2  0  0  0  0  0  0  0  0  0
   -6.6230    0.3560    2.9230 C   0  0  0  0  0  0  0  0  0  0  0  0
   -6.3190    0.4120    4.3070 N   0  0  0  0  0  0  0  0  0  0  0  0
   -5.7550   -0.4090    0.9260 C   0  0  1  0  0  0  0  0  0  0  0  0
   -5.6790   -1.6180    1.7650 O   0  0  0  0  0  0  0  0  0  0  0  0
   -5.8990   -0.9660   -0.4020 C   0  0  2  0  0  0  0  0  0  0  0  0
   -4.6330   -1.8940   -0.5750 C   0  0  0  0  0  0  0  0  0  0  0  0
   -3.4450   -1.1840   -0.3360 N   0  0  0  0  0  0  0  0  0  0  0  0
   -2.9440    0.0010   -0.9830 C   0  0  0  0  0  0  0  0  0  0  0  0
   -3.4810    0.5710   -1.8320 O   0  0  0  0  0  0  0  0  0  0  0  0
   -1.5910    0.4080   -0.3760 C   0  0  0  0  0  0  0  0  0  0  0  0
   -0.8820   -0.6310    0.1060 O   0  0  0  0  0  0  0  0  0  0  0  0
   -0.1460   -1.6000   -0.4760 C   0  0  0  0  0  0  0  0  0  0  0  0
    1.2530   -1.2910   -0.5090 C   0  0  0  0  0  0  0  0  0  0  0  0
    1.6600   -0.1220    0.1850 N   0  0  0  0  0  0  0  0  0  0  0  0
    2.8620    0.5960   -0.1810 C   0  0  0  0  0  0  0  0  0  0  0  0
    3.4320    0.0600   -1.2190 O   0  0  0  0  0  0  0  0  0  0  0  0
    3.4480    1.7360    0.4500 C   0  0  2  0  0  0  0  0  0  0  0  0
    4.5800    2.2940   -0.3180 C   0  0  0  0  0  0  0  0  0  0  0  0
    5.8970    2.0300    0.2160 C   0  0  0  0  0  0  0  0  0  0  0  0
    7.1430    2.1640   -0.2460 C   0  0  0  0  0  0  0  0  0  0  0  0
    8.3840    1.9220    0.1380 C   0  0  0  0  0  0  0  0  0  0  0  0
    9.6370    2.1600   -0.5520 C   0  0  0  0  0  0  0  0  0  0  0  0
    8.3520    1.3040    1.5100 C   0  0  0  0  0  0  0  0  0  0  0  0
    9.6810    0.9890    2.0620 C   0  0  0  0  0  0  0  0  0  0  0  0
    9.6070    0.4280    3.3370 O   0  0  0  0  0  0  0  0  0  0  0  0
    7.1400    1.1390    2.0370 C   0  0  0  0  0  0  0  0  0  0  0  0
    5.8890    1.4250    1.5630 C   0  0  0  0  0  0  0  0  0  0  0  0
    4.2250    1.3470    2.0430 S   0  0  0  0  0  0  0  0  0  0  0  0
    2.0520   -2.2040   -1.0750 C   0  0  0  0  0  0  0  0  0  0  0  0
    1.6050   -3.3840   -1.5980 C   0  0  0  0  0  0  0  0  0  0  0  0
    0.3110   -3.7170   -1.5840 C   0  0  0  0  0  0  0  0  0  0  0  0
   -0.6610   -2.7950   -1.0030 C   0  0  0  0  0  0  0  0  0  0  0  0
   -1.8290   -3.4310   -1.1630 O   0  0  0  0  0  0  0  0  0  0  0  0
   -1.6280   -4.8560   -1.2690 C   0  0  0  0  0  0  0  0  0  0  0  0
   -0.4100   -4.8370   -2.0210 O   0  0  0  0  0  0  0  0  0  0  0  0
   -5.8180   -0.1130   -1.4650 O   0  0  0  0  0  0  0  0  0  0  0  0
   -6.6340   -0.6330   -2.5060 C   0  0  0  0  0  0  0  0  0  0  0  0
  1  2  1  0
  3  2  1  6
  3  4  1  0
  3  6  1  0
  4  5  3  0
  6  7  1  1
  6  8  1  0
  8  9  1  6
  8 39  1  0
  9 10  1  0
 10 11  1  0
 11 12  2  0
 11 13  1  0
 13 14  1  0
 14 15  1  0
 15 16  2  0
 15 35  1  0
 16 17  1  0
 16 32  1  0
 17 18  1  0
 18 19  2  0
 20 18  1  6
 20 21  1  0
 20 31  1  0
 21 22  1  0
 22 23  2  0
 22 30  1  0
 23 24  1  0
 24 25  1  0
 24 26  2  0
 26 27  1  0
 26 29  1  0
 27 28  1  0
 29 30  2  0
 30 31  1  0
 32 33  2  0
 33 34  1  0
 34 35  2  0
 34 38  1  0
 35 36  1  0
 36 37  1  0
 37 38  1  0
 39 40  1  0
M  END
