
     RDKit          3D

 38 42  0  0  0  0  0  0  0  0999 V2000
   -5.5930    6.0830    0.8890 C   0  0  0  0  0  0  0  0  0  0  0  0
   -4.7160    4.8740    0.7230 C   0  0  0  0  0  0  0  0  0  0  0  0
   -3.3550    4.9490    0.9250 C   0  0  0  0  0  0  0  0  0  0  0  0
   -2.5550    3.8130    0.7660 C   0  0  0  0  0  0  0  0  0  0  0  0
   -3.1670    2.6390    0.4070 C   0  0  0  0  0  0  0  0  0  0  0  0
   -2.2980    1.4170    0.2340 C   0  0  2  0  0  0  0  0  0  0  0  0
   -1.1610    1.7990   -0.5320 N   0  0  0  0  0  0  0  0  0  0  0  0
   -0.4320    0.7180   -1.1500 C   0  0  0  0  0  0  0  0  0  0  0  0
    0.4380    0.1070   -0.0960 C   0  0  0  0  0  0  0  0  0  0  0  0
    0.1110   -1.1050    0.4760 C   0  0  0  0  0  0  0  0  0  0  0  0
    0.8990   -1.6880    1.4520 C   0  0  0  0  0  0  0  0  0  0  0  0
    2.0510   -1.0660    1.8900 C   0  0  0  0  0  0  0  0  0  0  0  0
    2.3940    0.1460    1.3290 C   0  0  0  0  0  0  0  0  0  0  0  0
    3.6290    0.7940    1.8240 C   0  0  0  0  0  0  0  0  0  0  0  0
    4.7610    0.1720    1.3250 O   0  0  0  0  0  0  0  0  0  0  0  0
    5.0140    0.1000   -0.0320 C   0  0  0  0  0  0  0  0  0  0  0  0
    4.2240    0.5970   -0.8670 O   0  0  0  0  0  0  0  0  0  0  0  0
    6.2670   -0.5940   -0.5070 C   0  0  2  0  0  0  0  0  0  0  0  0
    6.2940   -0.4750   -2.0120 C   0  0  0  0  0  0  0  0  0  0  0  0
    6.1320   -2.0340   -0.0670 C   0  0  0  0  0  0  0  0  0  0  0  0
    7.3220   -2.5670    0.6600 C   0  0  0  0  0  0  0  0  0  0  0  0
    8.8920   -2.0810   -0.1560 S   0  0  0  0  0  0  0  0  0  0  0  0
    8.7580   -0.2670   -0.4030 C   0  0  0  0  0  0  0  0  0  0  0  0
    7.4110    0.1270    0.1550 C   0  0  0  0  0  0  0  0  0  0  0  0
    1.6010    0.7160    0.3580 C   0  0  0  0  0  0  0  0  0  0  0  0
   -3.1030    0.3130   -0.3240 C   0  0  0  0  0  0  0  0  0  0  0  0
   -3.4780    0.2550   -1.6490 C   0  0  0  0  0  0  0  0  0  0  0  0
   -4.2290   -0.7860   -2.1350 C   0  0  0  0  0  0  0  0  0  0  0  0
   -4.6340   -1.8140   -1.3010 C   0  0  0  0  0  0  0  0  0  0  0  0
   -4.2740   -1.7790    0.0200 C   0  0  0  0  0  0  0  0  0  0  0  0
   -3.5270   -0.7400    0.4930 C   0  0  0  0  0  0  0  0  0  0  0  0
   -4.8260   -2.9750    0.6730 C   0  0  0  0  0  0  0  0  0  0  0  0
   -5.2570   -3.8360   -0.3940 N   0  0  2  0  0  0  0  0  0  0  0  0
   -4.2640   -4.8790   -0.5990 C   0  0  0  0  0  0  0  0  0  0  0  0
   -5.4390   -3.0340   -1.5690 C   0  0  0  0  0  0  0  0  0  0  0  0
   -4.5130    2.5300    0.1990 C   0  0  0  0  0  0  0  0  0  0  0  0
   -5.2860    3.6640    0.3610 C   0  0  0  0  0  0  0  0  0  0  0  0
   -7.1620    3.5260    0.0730 Br  0  0  0  0  0  0  0  0  0  0  0  0
  1  2  1  0
  2  3  2  0
  2 37  1  0
  3  4  1  0
  4  5  2  0
  5  6  1  0
  5 36  1  0
  6  7  1  6
  6 26  1  0
  7  8  1  0
  8  9  1  0
  9 10  2  0
  9 25  1  0
 10 11  1  0
 11 12  2  0
 12 13  1  0
 13 14  1  0
 13 25  2  0
 14 15  1  0
 15 16  1  0
 16 17  2  0
 16 18  1  0
 18 19  1  6
 18 20  1  0
 18 24  1  0
 20 21  1  0
 21 22  1  0
 22 23  1  0
 23 24  1  0
 26 27  2  0
 26 31  1  0
 27 28  1  0
 28 29  2  0
 29 30  1  0
 29 35  1  0
 30 31  2  0
 30 32  1  0
 32 33  1  0
 33 34  1  6
 33 35  1  0
 36 37  2  0
 37 38  1  0
M  CHG  2   7   1  33   1
M  END
