
     RDKit          3D

 38 42  0  0  0  0  0  0  0  0999 V2000
    8.0360    1.4070    2.0820 C   0  0  0  0  0  0  0  0  0  0  0  0
    7.1920    0.4100    1.9020 C   0  0  0  0  0  0  0  0  0  0  0  0
    7.7490   -0.9480    1.6430 C   0  0  0  0  0  0  0  0  0  0  0  0
    6.8790   -1.5830    0.5740 C   0  0  0  0  0  0  0  0  0  0  0  0
    5.4590   -1.5260    1.0870 C   0  0  0  0  0  0  0  0  0  0  0  0
    4.9450   -0.1810    1.1280 N   0  0  2  0  0  0  0  0  0  0  0  0
    4.6950    0.3990   -0.1540 C   0  0  0  0  0  0  0  0  0  0  0  0
    3.4950   -0.1420   -0.8480 C   0  0  0  0  0  0  0  0  0  0  0  0
    3.6200   -1.2390   -1.6750 C   0  0  0  0  0  0  0  0  0  0  0  0
    2.5360   -1.7840   -2.3470 C   0  0  0  0  0  0  0  0  0  0  0  0
    1.3140   -1.2110   -2.1780 C   0  0  0  0  0  0  0  0  0  0  0  0
    1.1410   -0.1240   -1.3720 C   0  0  0  0  0  0  0  0  0  0  0  0
    2.2350    0.3970   -0.7160 C   0  0  0  0  0  0  0  0  0  0  0  0
   -0.2400    0.3680   -1.3140 C   0  0  2  0  0  0  0  0  0  0  0  0
   -0.5170    0.9430   -0.0160 N   0  0  0  0  0  0  0  0  0  0  0  0
   -0.2050    2.3570    0.0670 C   0  0  0  0  0  0  0  0  0  0  0  0
   -1.4530    3.1960    0.0360 C   0  0  0  0  0  0  0  0  0  0  0  0
   -2.2440    3.3450    1.1640 C   0  0  0  0  0  0  0  0  0  0  0  0
   -3.3830    4.1210    1.1210 C   0  0  0  0  0  0  0  0  0  0  0  0
   -3.7660    4.7700   -0.0410 C   0  0  0  0  0  0  0  0  0  0  0  0
   -2.9880    4.6280   -1.1630 C   0  0  0  0  0  0  0  0  0  0  0  0
   -1.8620    3.8530   -1.0960 C   0  0  0  0  0  0  0  0  0  0  0  0
   -3.3950    5.2920   -2.3210 O   0  0  0  0  0  0  0  0  0  0  0  0
   -4.4680    6.1920   -2.3650 C   0  0  0  0  0  0  0  0  0  0  0  0
   -4.8800    6.6660   -0.9930 C   0  0  0  0  0  0  0  0  0  0  0  0
   -4.9030    5.5600   -0.1300 O   0  0  0  0  0  0  0  0  0  0  0  0
   -1.2090   -0.7230   -1.5630 C   0  0  2  0  0  0  0  0  0  0  0  0
   -1.4350   -1.6340   -0.3980 C   0  0  0  0  0  0  0  0  0  0  0  0
   -2.4490   -2.6940   -0.8130 C   0  0  0  0  0  0  0  0  0  0  0  0
   -2.7280   -3.6510    0.3260 C   0  0  0  0  0  0  0  0  0  0  0  0
   -3.7190   -4.6410   -0.1550 C   0  0  0  0  0  0  0  0  0  0  0  0
   -3.2350   -5.7460   -1.6710 Br  0  0  0  0  0  0  0  0  0  0  0  0
   -4.9140   -4.8410    0.3640 C   0  0  0  0  0  0  0  0  0  0  0  0
   -5.4510   -4.1160    1.4950 C   0  0  0  0  0  0  0  0  0  0  0  0
   -6.6810   -4.3770    1.9680 C   0  0  0  0  0  0  0  0  0  0  0  0
   -7.4880   -5.4270    1.3070 C   0  0  0  0  0  0  0  0  0  0  0  0
   -0.2790   -1.6470   -2.8630 S   0  0  0  0  0  0  0  0  0  0  0  0
    5.7380    0.6850    1.9650 C   0  0  0  0  0  0  0  0  0  0  0  0
  1  2  2  0
  2  3  1  0
  2 38  1  0
  3  4  1  0
  4  5  1  0
  5  6  1  0
  6  7  1  6
  6 38  1  0
  7  8  1  0
  8  9  2  0
  8 13  1  0
  9 10  1  0
 10 11  2  0
 11 12  1  0
 11 37  1  0
 12 13  2  0
 12 14  1  0
 14 15  1  1
 14 27  1  0
 15 16  1  0
 16 17  1  0
 17 18  2  0
 17 22  1  0
 18 19  1  0
 19 20  2  0
 20 21  1  0
 20 26  1  0
 21 22  2  0
 21 23  1  0
 23 24  1  0
 24 25  1  0
 25 26  1  0
 27 28  1  1
 27 37  1  0
 28 29  1  0
 29 30  1  0
 30 31  1  0
 31 32  1  0
 31 33  2  3
 33 34  1  0
 34 35  2  3
 35 36  1  0
M  CHG  2   6   1  15   1
M  END
