
     RDKit          3D

 38 42  0  0  0  0  0  0  0  0999 V2000
   -1.6510    5.6000   -2.5850 C   0  0  0  0  0  0  0  0  0  0  0  0
   -2.1560    4.7910   -3.4930 C   0  0  0  0  0  0  0  0  0  0  0  0
   -2.4100    3.3460   -3.2150 C   0  0  0  0  0  0  0  0  0  0  0  0
   -2.0510    2.9980   -1.9190 O   0  0  0  0  0  0  0  0  0  0  0  0
   -2.1460    1.7740   -1.3380 C   0  0  0  0  0  0  0  0  0  0  0  0
   -3.2750    1.3720   -0.6620 C   0  0  0  0  0  0  0  0  0  0  0  0
   -3.3720    0.1340   -0.0730 C   0  0  0  0  0  0  0  0  0  0  0  0
   -2.3110   -0.7380   -0.1570 C   0  0  0  0  0  0  0  0  0  0  0  0
   -1.1540   -0.3920   -0.8230 C   0  0  0  0  0  0  0  0  0  0  0  0
   -0.0880   -1.2490   -0.8810 C   0  0  0  0  0  0  0  0  0  0  0  0
   -0.1610   -2.6190   -0.4520 C   0  0  0  0  0  0  0  0  0  0  0  0
   -1.7940   -3.6060   -0.7830 Br  0  0  0  0  0  0  0  0  0  0  0  0
    0.8160   -3.3090    0.0580 C   0  0  0  0  0  0  0  0  0  0  0  0
    2.1300   -2.7680    0.2730 C   0  0  0  0  0  0  0  0  0  0  0  0
    3.3630   -3.2790   -0.0220 C   0  0  0  0  0  0  0  0  0  0  0  0
    4.4630   -2.6010    0.3220 C   0  0  0  0  0  0  0  0  0  0  0  0
    4.3150   -1.4090    0.9610 C   0  0  0  0  0  0  0  0  0  0  0  0
    5.2790   -0.4230    1.4540 C   0  0  0  0  0  0  0  0  0  0  0  0
    4.8190    0.6240    2.1080 C   0  0  0  0  0  0  0  0  0  0  0  0
    5.6830    1.6620    2.6540 C   0  0  0  0  0  0  0  0  0  0  0  0
    6.9750    1.4940    2.4680 C   0  0  0  0  0  0  0  0  0  0  0  0
    7.5970    0.3770    1.7820 C   0  0  0  0  0  0  0  0  0  0  0  0
    6.6890   -0.5910    1.1360 C   0  0  2  0  0  0  0  0  0  0  0  0
    6.8960   -0.5330   -0.3290 N   0  0  0  0  0  0  0  0  0  0  0  0
    5.8090    0.0500   -1.0410 C   0  0  0  0  0  0  0  0  0  0  0  0
    2.5420   -1.2420    1.0840 S   0  0  0  0  0  0  0  0  0  0  0  0
    1.0550   -0.7720   -1.5540 C   0  0  0  0  0  0  0  0  0  0  0  0
    1.1240    0.4690   -2.1250 C   0  0  0  0  0  0  0  0  0  0  0  0
    0.0550    1.2990   -2.0570 C   0  0  0  0  0  0  0  0  0  0  0  0
   -1.0960    0.8880   -1.4110 C   0  0  0  0  0  0  0  0  0  0  0  0
   -4.6540   -0.1830    0.6380 C   0  0  2  0  0  0  0  0  0  0  0  0
   -4.8410   -1.5680    0.9090 N   0  0  2  0  0  0  0  0  0  0  0  0
   -6.2410   -1.9700    0.8670 C   0  0  0  0  0  0  0  0  0  0  0  0
   -4.2990   -1.9970    2.1680 C   0  0  0  0  0  0  0  0  0  0  0  0
   -5.3250   -1.9330    3.2950 C   0  0  0  0  0  0  0  0  0  0  0  0
   -5.7480    0.3980   -0.2660 C   0  0  0  0  0  0  0  0  0  0  0  0
   -5.5910    1.9190   -0.1440 C   0  0  0  0  0  0  0  0  0  0  0  0
   -4.3150    2.2940   -0.6100 O   0  0  0  0  0  0  0  0  0  0  0  0
  1  2  2  0
  2  3  1  0
  3  4  1  0
  4  5  1  0
  5  6  2  0
  5 30  1  0
  6  7  1  0
  6 38  1  0
  7  8  2  0
  7 31  1  0
  8  9  1  0
  9 10  2  0
  9 30  1  0
 10 11  1  0
 10 27  1  0
 11 12  1  0
 11 13  2  3
 13 14  1  0
 14 15  2  0
 14 26  1  0
 15 16  1  0
 16 17  2  0
 17 18  1  0
 17 26  1  0
 18 19  2  0
 18 23  1  0
 19 20  1  0
 20 21  2  0
 21 22  1  0
 22 23  1  0
 23 24  1  6
 24 25  1  0
 27 28  2  0
 28 29  1  0
 29 30  2  0
 31 32  1  0
 31 36  1  6
 32 33  1  1
 32 34  1  0
 34 35  1  0
 36 37  1  0
 37 38  1  0
M  CHG  2  24   1  32   1
M  END
