
     RDKit          3D

 38 42  0  0  0  0  0  0  0  0999 V2000
   -7.5160    0.7860    2.1510 C   0  0  0  0  0  0  0  0  0  0  0  0
   -7.4530   -0.1800    1.2580 C   0  0  0  0  0  0  0  0  0  0  0  0
   -7.2310    0.1600   -0.1720 C   0  0  1  0  0  0  0  0  0  0  0  0
   -8.4920   -0.2460   -0.9300 C   0  0  0  0  0  0  0  0  0  0  0  0
   -9.2860    0.9960   -0.9170 C   0  0  0  0  0  0  0  0  0  0  0  0
   -8.5320    2.0340   -0.6230 C   0  0  0  0  0  0  0  0  0  0  0  0
   -7.1250    1.6050   -0.4000 C   0  0  0  0  0  0  0  0  0  0  0  0
   -6.1370    2.4200   -0.4360 N   0  0  0  0  0  0  0  0  0  0  0  0
   -4.8220    1.9480   -0.2270 C   0  0  0  0  0  0  0  0  0  0  0  0
   -4.1930    1.0590   -1.0600 C   0  0  0  0  0  0  0  0  0  0  0  0
   -2.8890    0.6080   -0.8530 C   0  0  0  0  0  0  0  0  0  0  0  0
   -2.3080   -0.3470   -1.8030 C   0  0  0  0  0  0  0  0  0  0  0  0
   -0.9590   -0.7750   -1.4750 N   0  0  2  0  0  0  0  0  0  0  0  0
   -0.4480   -1.3500   -2.7330 C   0  0  0  0  0  0  0  0  0  0  0  0
   -0.9510   -1.8060   -0.4880 C   0  0  0  0  0  0  0  0  0  0  0  0
    0.4330   -2.0870   -0.0240 C   0  0  0  0  0  0  0  0  0  0  0  0
    1.5660   -1.4990   -0.5220 C   0  0  0  0  0  0  0  0  0  0  0  0
    2.8260   -1.8380   -0.0170 C   0  0  0  0  0  0  0  0  0  0  0  0
    3.0060   -2.7560    0.9850 C   0  0  0  0  0  0  0  0  0  0  0  0
    4.3370   -3.1120    1.4990 C   0  0  0  0  0  0  0  0  0  0  0  0
    5.4000   -2.3430    1.0430 O   0  0  0  0  0  0  0  0  0  0  0  0
    5.5850   -0.9910    1.2130 C   0  0  0  0  0  0  0  0  0  0  0  0
    4.7070   -0.3580    1.8420 O   0  0  0  0  0  0  0  0  0  0  0  0
    6.7910   -0.3180    0.6660 C   0  0  0  0  0  0  0  0  0  0  0  0
    7.7010   -1.1030   -0.0080 C   0  0  0  0  0  0  0  0  0  0  0  0
    8.8240   -0.4770   -0.5070 C   0  0  0  0  0  0  0  0  0  0  0  0
    8.9720    0.8850   -0.3070 C   0  0  0  0  0  0  0  0  0  0  0  0
    8.0720    1.6660    0.3600 C   0  0  0  0  0  0  0  0  0  0  0  0
    6.9280    1.0100    0.8650 C   0  0  0  0  0  0  0  0  0  0  0  0
    8.3920    3.0830    0.4670 C   0  0  0  0  0  0  0  0  0  0  0  0
    9.8900    3.2930    0.4540 C   0  0  0  0  0  0  0  0  0  0  0  0
   10.3020    1.9880   -0.7930 S   0  0  0  0  0  0  0  0  0  0  0  0
    1.8530   -3.3620    1.5010 C   0  0  0  0  0  0  0  0  0  0  0  0
    0.6300   -3.0260    1.0020 C   0  0  0  0  0  0  0  0  0  0  0  0
   -2.1600    1.0490    0.2250 C   0  0  0  0  0  0  0  0  0  0  0  0
   -2.7910    1.9570    1.0840 C   0  0  0  0  0  0  0  0  0  0  0  0
   -4.0800    2.3930    0.8660 C   0  0  0  0  0  0  0  0  0  0  0  0
   -4.9210    3.6410    2.0610 Br  0  0  0  0  0  0  0  0  0  0  0  0
  1  2  2  0
  3  2  1  1
  3  4  1  0
  3  7  1  0
  4  5  1  0
  5  6  2  0
  6  7  1  0
  7  8  2  3
  8  9  1  0
  9 10  2  0
  9 37  1  0
 10 11  1  0
 11 12  1  0
 11 35  2  0
 12 13  1  0
 13 14  1  6
 13 15  1  0
 15 16  1  0
 16 17  2  0
 16 34  1  0
 17 18  1  0
 18 19  2  0
 19 20  1  0
 19 33  1  0
 20 21  1  0
 21 22  1  0
 22 23  2  0
 22 24  1  0
 24 25  2  0
 24 29  1  0
 25 26  1  0
 26 27  2  0
 27 28  1  0
 27 32  1  0
 28 29  2  0
 28 30  1  0
 30 31  1  0
 31 32  1  0
 33 34  2  0
 35 36  1  0
 36 37  2  0
 37 38  1  0
M  CHG  2   8   1  13   1
M  END
