
     RDKit          3D

 38 42  0  0  0  0  0  0  0  0999 V2000
    4.5550    2.0150    0.7150 C   0  0  0  0  0  0  0  0  0  0  0  0
    5.4780    0.8950    0.6120 N   0  0  2  0  0  0  0  0  0  0  0  0
    6.8250    1.3910    0.7730 C   0  0  0  0  0  0  0  0  0  0  0  0
    5.3670    0.1890   -0.6320 C   0  0  2  0  0  0  0  0  0  0  0  0
    4.2970   -0.8570   -0.6690 C   0  0  0  0  0  0  0  0  0  0  0  0
    2.9270   -0.3440   -0.4340 C   0  0  0  0  0  0  0  0  0  0  0  0
    2.2240   -0.7830    0.5670 C   0  0  0  0  0  0  0  0  0  0  0  0
    0.8790   -0.3500    0.8840 C   0  0  0  0  0  0  0  0  0  0  0  0
    0.3010   -0.9580    2.0040 C   0  0  0  0  0  0  0  0  0  0  0  0
   -0.9790   -0.6320    2.4040 C   0  0  0  0  0  0  0  0  0  0  0  0
   -1.6930    0.3110    1.6780 C   0  0  0  0  0  0  0  0  0  0  0  0
   -3.0910    0.7120    2.0470 C   0  0  0  0  0  0  0  0  0  0  0  0
   -4.0620    0.2610    1.0520 N   0  0  1  0  0  0  0  0  0  0  0  0
   -3.7560   -1.1270    0.7170 C   0  0  0  0  0  0  0  0  0  0  0  0
   -4.2920   -1.5230   -0.6120 C   0  0  0  0  0  0  0  0  0  0  0  0
   -5.5040   -2.1300   -0.9090 C   0  0  0  0  0  0  0  0  0  0  0  0
   -5.5980   -2.3150   -2.1960 O   0  0  0  0  0  0  0  0  0  0  0  0
   -4.5280   -1.8710   -2.7960 C   0  0  0  0  0  0  0  0  0  0  0  0
   -4.2210   -1.9310   -4.6930 Br  0  0  0  0  0  0  0  0  0  0  0  0
   -3.6750   -1.3640   -1.8530 C   0  0  0  0  0  0  0  0  0  0  0  0
   -5.3460    0.3120    1.6860 C   0  0  0  0  0  0  0  0  0  0  0  0
   -6.4650    0.7550    0.8440 C   0  0  0  0  0  0  0  0  0  0  0  0
   -6.3770    1.1150   -0.4700 C   0  0  0  0  0  0  0  0  0  0  0  0
   -7.4990    1.5140   -1.1550 C   0  0  0  0  0  0  0  0  0  0  0  0
   -8.7160    1.5580   -0.5390 C   0  0  0  0  0  0  0  0  0  0  0  0
   -8.8370    1.2000    0.7880 C   0  0  0  0  0  0  0  0  0  0  0  0
   -7.7080    0.8030    1.4620 C   0  0  0  0  0  0  0  0  0  0  0  0
   -7.8420    0.4400    2.8160 O   0  0  0  0  0  0  0  0  0  0  0  0
   -1.0800    0.8790    0.5860 C   0  0  0  0  0  0  0  0  0  0  0  0
    0.2050    0.5700    0.1620 C   0  0  0  0  0  0  0  0  0  0  0  0
    0.6450    1.3100   -1.0360 C   0  0  0  0  0  0  0  0  0  0  0  0
    2.2990    0.8640   -1.5520 S   0  0  0  0  0  0  0  0  0  0  0  0
    6.6520   -0.5280   -0.9060 C   0  0  0  0  0  0  0  0  0  0  0  0
    7.2650   -1.2790    0.0720 C   0  0  0  0  0  0  0  0  0  0  0  0
    8.4570   -1.9510   -0.1600 C   0  0  0  0  0  0  0  0  0  0  0  0
    9.0660   -1.8800   -1.3930 C   0  0  0  0  0  0  0  0  0  0  0  0
    8.4650   -1.1330   -2.3770 C   0  0  0  0  0  0  0  0  0  0  0  0
    7.2670   -0.4620   -2.1370 C   0  0  0  0  0  0  0  0  0  0  0  0
  2  1  1  6
  2  3  1  0
  2  4  1  0
  4  5  1  1
  4 33  1  0
  5  6  1  0
  6  7  2  0
  6 32  1  0
  7  8  1  0
  8  9  2  0
  8 30  1  0
  9 10  1  0
 10 11  2  0
 11 12  1  0
 11 29  1  0
 13 12  1  1
 13 14  1  0
 13 21  1  0
 14 15  1  0
 15 16  2  0
 15 20  1  0
 16 17  1  0
 17 18  1  0
 18 19  1  0
 18 20  2  0
 21 22  1  0
 22 23  2  0
 22 27  1  0
 23 24  1  0
 24 25  2  0
 25 26  1  0
 26 27  2  0
 27 28  1  0
 29 30  2  0
 30 31  1  0
 31 32  1  0
 33 34  2  0
 33 38  1  0
 34 35  1  0
 35 36  2  0
 36 37  1  0
 37 38  2  0
M  CHG  2   2   1  13   1
M  END
