
     RDKit          3D

 37 40  0  0  0  0  0  0  0  0999 V2000
   -1.6520   -5.7740    3.1410 C   0  0  0  0  0  0  0  0  0  0  0  0
   -0.7190   -5.1330    4.1270 C   0  0  0  0  0  0  0  0  0  0  0  0
    0.1040   -4.1470    3.5310 O   0  0  0  0  0  0  0  0  0  0  0  0
   -0.3720   -3.0100    2.9100 C   0  0  0  0  0  0  0  0  0  0  0  0
   -1.6440   -2.8770    2.8960 O   0  0  0  0  0  0  0  0  0  0  0  0
    0.4860   -1.9900    2.2920 C   0  0  1  0  0  0  0  0  0  0  0  0
    1.2500   -2.4600    1.1300 C   0  0  0  0  0  0  0  0  0  0  0  0
    1.2740   -1.5110    0.2360 C   0  0  0  0  0  0  0  0  0  0  0  0
    1.9240   -1.6080   -1.0240 N   0  0  0  0  0  0  0  0  0  0  0  0
    2.9530   -0.6520   -1.3210 C   0  0  0  0  0  0  0  0  0  0  0  0
    3.1720    0.1920   -0.4260 O   0  0  0  0  0  0  0  0  0  0  0  0
    3.6510   -0.6900   -2.5480 N   0  0  0  0  0  0  0  0  0  0  0  0
    4.6540    0.2270   -2.8980 C   0  0  0  0  0  0  0  0  0  0  0  0
    4.9920    1.3450   -2.1960 C   0  0  0  0  0  0  0  0  0  0  0  0
    5.9990    2.2380   -2.6200 C   0  0  0  0  0  0  0  0  0  0  0  0
    6.6960    2.0170   -3.7790 C   0  0  0  0  0  0  0  0  0  0  0  0
    7.7670    2.9680   -4.2280 C   0  0  0  0  0  0  0  0  0  0  0  0
    6.3720    0.8960   -4.5020 C   0  0  0  0  0  0  0  0  0  0  0  0
    5.3920    0.0310   -4.0850 C   0  0  0  0  0  0  0  0  0  0  0  0
    5.0380   -1.1980   -4.8630 C   0  0  0  0  0  0  0  0  0  0  0  0
    0.5410   -0.3390    0.7410 C   0  0  0  0  0  0  0  0  0  0  0  0
   -0.3630   -0.8930    1.7270 N   0  0  2  0  0  0  0  0  0  0  0  0
   -0.6620   -0.0010    2.7680 C   0  0  0  0  0  0  0  0  0  0  0  0
   -1.8780    0.8750    2.5500 C   0  0  0  0  0  0  0  0  0  0  0  0
   -2.1350    1.6230    3.4960 O   0  0  0  0  0  0  0  0  0  0  0  0
   -2.6110    0.8170    1.3820 N   0  0  0  0  0  0  0  0  0  0  0  0
   -3.7530    1.4410    0.8780 C   0  0  0  0  0  0  0  0  0  0  0  0
   -4.0880    1.0480   -0.3830 C   0  0  0  0  0  0  0  0  0  0  0  0
   -3.2350    0.0190   -1.0710 C   0  0  0  0  0  0  0  0  0  0  0  0
   -5.2100    1.6210   -1.1240 C   0  0  0  0  0  0  0  0  0  0  0  0
   -6.0860    2.3930   -0.3590 N   0  0  0  0  0  0  0  0  0  0  0  0
   -5.7780    2.8380    0.9460 C   0  0  0  0  0  0  0  0  0  0  0  0
   -6.6470    3.7340    1.5880 C   0  0  0  0  0  0  0  0  0  0  0  0
   -6.4010    4.1890    2.8560 C   0  0  0  0  0  0  0  0  0  0  0  0
   -5.2630    3.7200    3.4540 C   0  0  0  0  0  0  0  0  0  0  0  0
   -4.3950    2.8310    2.8220 C   0  0  0  0  0  0  0  0  0  0  0  0
   -4.6310    2.3680    1.5530 C   0  0  0  0  0  0  0  0  0  0  0  0
  1  2  1  0
  2  3  1  0
  3  4  1  0
  4  5  2  0
  6  4  1  6
  6  7  1  0
  6 22  1  0
  7  8  2  0
  8  9  1  0
  8 21  1  0
  9 10  1  0
 10 11  2  0
 10 12  1  0
 12 13  1  0
 13 14  2  0
 13 19  1  0
 14 15  1  0
 15 16  2  0
 16 17  1  0
 16 18  1  0
 18 19  2  0
 19 20  1  0
 21 22  1  0
 22 23  1  1
 23 24  1  0
 24 25  2  0
 24 26  1  0
 26 27  1  0
 27 28  2  0
 27 37  1  0
 28 29  1  0
 28 30  1  0
 30 31  1  0
 31 32  1  0
 32 33  2  0
 32 37  1  0
 33 34  1  0
 34 35  2  0
 35 36  1  0
 36 37  2  0
M  CHG  1  22   1
M  END
