
     RDKit          3D

 36 39  0  0  0  0  0  0  0  0999 V2000
   -7.1200    2.9030    2.3310 C   0  0  0  0  0  0  0  0  0  0  0  0
   -6.3460    2.1250    1.3290 C   0  0  0  0  0  0  0  0  0  0  0  0
   -6.9980    1.7400    0.1600 C   0  0  0  0  0  0  0  0  0  0  0  0
   -6.3290    0.9840   -0.8080 C   0  0  0  0  0  0  0  0  0  0  0  0
   -7.0820    0.5750   -2.0160 C   0  0  0  0  0  0  0  0  0  0  0  0
   -5.0280    0.6490   -0.5440 C   0  0  0  0  0  0  0  0  0  0  0  0
   -4.3280    0.9970    0.5890 C   0  0  0  0  0  0  0  0  0  0  0  0
   -2.9130    0.5630    0.8500 C   0  0  1  0  0  0  0  0  0  0  0  0
   -3.0270   -0.8630    1.3410 C   0  0  0  0  0  0  0  0  0  0  0  0
   -2.0930    0.7620   -0.2960 N   0  0  0  0  0  0  0  0  0  0  0  0
   -0.9730   -0.1510   -0.4240 C   0  0  2  0  0  0  0  0  0  0  0  0
   -0.0130    0.0030    0.7660 C   0  0  0  0  0  0  0  0  0  0  0  0
    1.0540   -1.0550    0.6410 C   0  0  0  0  0  0  0  0  0  0  0  0
    1.4480   -1.2660   -0.7070 N   0  0  0  0  0  0  0  0  0  0  0  0
    2.3200   -2.4370   -0.9550 C   0  0  0  0  0  0  0  0  0  0  0  0
    3.6880   -2.3220   -0.6660 N   0  0  0  0  0  0  0  0  0  0  0  0
    4.4050   -1.1450   -0.3640 C   0  0  0  0  0  0  0  0  0  0  0  0
    3.7780   -0.0530   -0.3710 O   0  0  0  0  0  0  0  0  0  0  0  0
    5.8310   -1.1650   -0.0120 C   0  0  0  0  0  0  0  0  0  0  0  0
    6.6240   -0.2310    0.2250 C   0  0  0  0  0  0  0  0  0  0  0  0
    6.3860    1.2110    0.2020 C   0  0  0  0  0  0  0  0  0  0  0  0
    5.6090    2.0410   -0.5150 C   0  0  0  0  0  0  0  0  0  0  0  0
    5.7900    3.3420   -0.0590 C   0  0  0  0  0  0  0  0  0  0  0  0
    6.7100    3.2390    0.9590 C   0  0  0  0  0  0  0  0  0  0  0  0
    7.2140    4.4070    1.7600 C   0  0  0  0  0  0  0  0  0  0  0  0
    7.0400    1.9980    1.0910 O   0  0  0  0  0  0  0  0  0  0  0  0
    1.7310   -3.5650   -1.2410 C   0  0  0  0  0  0  0  0  0  0  0  0
    0.4720   -4.0820   -1.3830 N   0  0  0  0  0  0  0  0  0  0  0  0
    0.3400   -5.4400   -1.7110 C   0  0  0  0  0  0  0  0  0  0  0  0
   -0.5980   -6.1720   -1.8990 O   0  0  0  0  0  0  0  0  0  0  0  0
    1.7370   -5.9030   -1.8030 N   0  0  0  0  0  0  0  0  0  0  0  0
    2.5740   -4.7960   -1.5230 C   0  0  0  0  0  0  0  0  0  0  0  0
    3.8200   -4.8490   -1.5250 O   0  0  0  0  0  0  0  0  0  0  0  0
    1.0880   -0.4820   -1.8280 C   0  0  0  0  0  0  0  0  0  0  0  0
   -0.1440    0.3420   -1.6050 C   0  0  0  0  0  0  0  0  0  0  0  0
   -5.0400    1.7520    1.5200 C   0  0  0  0  0  0  0  0  0  0  0  0
  1  2  1  0
  2  3  2  0
  2 36  1  0
  3  4  1  0
  4  5  1  0
  4  6  2  0
  6  7  1  0
  7  8  1  0
  7 36  2  0
  8  9  1  6
  8 10  1  0
 11 10  1  1
 11 12  1  0
 11 35  1  0
 12 13  1  0
 13 14  1  0
 14 15  1  0
 14 34  1  0
 15 16  1  0
 15 27  2  3
 16 17  1  0
 17 18  2  0
 17 19  1  0
 19 20  2  3
 20 21  1  0
 21 22  2  0
 21 26  1  0
 22 23  1  0
 23 24  2  0
 24 25  1  0
 24 26  1  0
 27 28  1  0
 27 32  1  0
 28 29  1  0
 29 30  2  0
 29 31  1  0
 31 32  1  0
 32 33  2  0
 34 35  1  0
M  CHG  1  10   1
M  END
