
     RDKit          3D

 37 39  0  0  0  0  0  0  0  0999 V2000
   -6.5030   -1.7880    2.6200 C   0  0  0  0  0  0  0  0  0  0  0  0
   -6.2200   -2.4930    1.6110 C   0  0  0  0  0  0  0  0  0  0  0  0
   -5.3280   -2.8940    0.5630 C   0  0  0  0  0  0  0  0  0  0  0  0
   -5.9450   -3.8680   -0.1910 C   0  0  0  0  0  0  0  0  0  0  0  0
   -5.4870   -4.5600   -1.3370 C   0  0  0  0  0  0  0  0  0  0  0  0
   -3.9790   -2.6780    0.2440 C   0  0  0  0  0  0  0  0  0  0  0  0
   -3.1530   -1.7230    0.6290 C   0  0  0  0  0  0  0  0  0  0  0  0
   -3.7680   -0.7580    1.5640 C   0  0  0  0  0  0  0  0  0  0  0  0
   -1.7900   -1.3460    0.2170 C   0  0  0  0  0  0  0  0  0  0  0  0
   -1.4890   -0.1060   -0.0520 C   0  0  0  0  0  0  0  0  0  0  0  0
   -2.2850    1.0910   -0.0500 C   0  0  0  0  0  0  0  0  0  0  0  0
   -1.7350    2.2890   -0.3460 C   0  0  0  0  0  0  0  0  0  0  0  0
   -0.3830    2.3350   -0.6540 O   0  0  0  0  0  0  0  0  0  0  0  0
   -2.4910    3.5380   -0.3600 C   0  0  1  0  0  0  0  0  0  0  0  0
   -1.9150    4.5270    0.6430 C   0  0  0  0  0  0  0  0  0  0  0  0
   -2.6820    4.1170   -1.6620 N   0  0  0  0  0  0  0  0  0  0  0  0
   -3.9260    4.8930   -1.6150 C   0  0  0  0  0  0  0  0  0  0  0  0
   -0.7020   -2.3120   -0.0490 C   0  0  0  0  0  0  0  0  0  0  0  0
    0.6250   -1.9620    0.2120 N   0  0  0  0  0  0  0  0  0  0  0  0
    1.4790   -1.3360   -0.6930 C   0  0  0  0  0  0  0  0  0  0  0  0
    1.0330   -1.0810   -1.8670 O   0  0  0  0  0  0  0  0  0  0  0  0
    2.8280   -0.9560   -0.3970 N   0  0  0  0  0  0  0  0  0  0  0  0
    3.3330   -1.2380    0.9110 C   0  0  0  0  0  0  0  0  0  0  0  0
    4.8270   -1.0760    1.0310 C   0  0  0  0  0  0  0  0  0  0  0  0
    5.5190   -1.2900   -0.2990 C   0  0  0  0  0  0  0  0  0  0  0  0
    5.0440   -0.1830   -1.2010 C   0  0  2  0  0  0  0  0  0  0  0  0
    5.3250    1.1010   -0.4840 C   0  0  0  0  0  0  0  0  0  0  0  0
    4.4230    1.8910   -0.1790 O   0  0  0  0  0  0  0  0  0  0  0  0
    6.6590    1.4370   -0.1380 N   0  0  0  0  0  0  0  0  0  0  0  0
    7.0740    2.6180    0.5400 C   0  0  1  0  0  0  0  0  0  0  0  0
    8.3160    2.7650    1.2830 C   0  0  0  0  0  0  0  0  0  0  0  0
    8.2610    3.3460   -0.1280 C   0  0  0  0  0  0  0  0  0  0  0  0
    3.5830   -0.3180   -1.4270 C   0  0  0  0  0  0  0  0  0  0  0  0
   -0.8400   -3.5750   -0.5080 C   0  0  0  0  0  0  0  0  0  0  0  0
   -2.1200   -4.2170   -0.8310 C   0  0  0  0  0  0  0  0  0  0  0  0
   -2.0910   -5.0740   -1.7760 O   0  0  0  0  0  0  0  0  0  0  0  0
   -3.3440   -3.9760   -0.2000 N   0  0  0  0  0  0  0  0  0  0  0  0
  1  2  2  0
  2  3  1  0
  3  4  2  3
  3  6  1  0
  4  5  1  0
  6  7  2  0
  6 37  1  0
  7  8  1  0
  7  9  1  0
  9 10  2  3
  9 18  1  0
 10 11  1  0
 11 12  2  3
 12 13  1  0
 12 14  1  0
 14 15  1  1
 14 16  1  0
 16 17  1  0
 18 19  1  0
 18 34  2  0
 19 20  1  0
 20 21  2  0
 20 22  1  0
 22 23  1  0
 22 33  1  0
 23 24  1  0
 24 25  1  0
 25 26  1  0
 26 27  1  1
 26 33  1  0
 27 28  2  0
 27 29  1  0
 30 29  1  6
 30 31  1  0
 30 32  1  0
 31 32  1  0
 34 35  1  0
 35 36  2  0
 35 37  1  0
M  CHG  1  16   1
M  END
