
     RDKit          3D

 37 40  0  0  0  0  0  0  0  0999 V2000
    5.6230    3.8650    3.1070 C   0  0  0  0  0  0  0  0  0  0  0  0
    6.2640    3.2010    2.0710 O   0  0  0  0  0  0  0  0  0  0  0  0
    5.7720    2.0830    1.4030 C   0  0  0  0  0  0  0  0  0  0  0  0
    4.5290    1.5710    1.7940 C   0  0  0  0  0  0  0  0  0  0  0  0
    4.0300    0.4570    1.1450 C   0  0  0  0  0  0  0  0  0  0  0  0
    2.7590   -0.0980    1.4430 N   0  0  0  0  0  0  0  0  0  0  0  0
    1.6080    0.7480    1.5930 C   0  0  0  0  0  0  0  0  0  0  0  0
    1.6900    2.0220    1.4560 O   0  0  0  0  0  0  0  0  0  0  0  0
    0.2690    0.1660    1.9100 C   0  0  0  0  0  0  0  0  0  0  0  0
   -0.8070    1.1700    1.6000 C   0  0  0  0  0  0  0  0  0  0  0  0
   -2.4370    0.4930    1.9670 S   0  0  0  0  0  0  0  0  0  0  0  0
   -2.7990   -0.8830    0.8570 C   0  0  0  0  0  0  0  0  0  0  0  0
   -2.4420   -2.1580    1.1990 C   0  0  0  0  0  0  0  0  0  0  0  0
   -2.7290   -3.2310    0.3460 C   0  0  0  0  0  0  0  0  0  0  0  0
   -3.3700   -3.0390   -0.8370 C   0  0  0  0  0  0  0  0  0  0  0  0
   -3.7160   -1.7180   -1.1430 C   0  0  0  0  0  0  0  0  0  0  0  0
   -3.4510   -0.6480   -0.3410 C   0  0  0  0  0  0  0  0  0  0  0  0
   -3.8310    0.6200   -0.7370 O   0  0  0  0  0  0  0  0  0  0  0  0
   -2.9610    1.3560   -1.5580 C   0  0  0  0  0  0  0  0  0  0  0  0
   -1.8900    0.8140   -1.8920 O   0  0  0  0  0  0  0  0  0  0  0  0
   -3.2880    2.7190   -2.0200 C   0  0  0  0  0  0  0  0  0  0  0  0
   -2.4680    3.4660   -2.8130 C   0  0  0  0  0  0  0  0  0  0  0  0
   -3.1150    4.6700   -3.0240 C   0  0  0  0  0  0  0  0  0  0  0  0
   -4.2500    4.6150   -2.3820 O   0  0  0  0  0  0  0  0  0  0  0  0
   -4.3930    3.4580   -1.7630 C   0  0  0  0  0  0  0  0  0  0  0  0
   -3.8360   -3.7430   -1.8600 C   0  0  0  0  0  0  0  0  0  0  0  0
   -3.9130   -5.1360   -2.2760 C   0  0  0  0  0  0  0  0  0  0  0  0
   -4.3240   -5.3320   -3.5500 F   0  0  0  0  0  0  0  0  0  0  0  0
   -3.6550   -6.2680   -1.6320 C   0  0  0  0  0  0  0  0  0  0  0  0
   -3.2020   -6.6510   -0.3010 C   0  0  0  0  0  0  0  0  0  0  0  0
   -3.8010   -7.7170    0.0960 O   0  0  0  0  0  0  0  0  0  0  0  0
   -2.0380   -5.9820    0.8460 S   0  0  0  0  0  0  0  0  0  0  0  0
   -2.2280   -4.2540    0.9980 N   0  0  0  0  0  0  0  0  0  0  0  0
    4.8110   -0.0970    0.1230 C   0  0  0  0  0  0  0  0  0  0  0  0
    6.0230    0.4240   -0.2400 C   0  0  0  0  0  0  0  0  0  0  0  0
    6.5200    1.5260    0.3990 C   0  0  0  0  0  0  0  0  0  0  0  0
    7.7580    2.0680    0.0320 O   0  0  0  0  0  0  0  0  0  0  0  0
  1  2  1  0
  2  3  1  0
  3  4  2  0
  3 36  1  0
  4  5  1  0
  5  6  1  0
  5 34  2  0
  6  7  1  0
  7  8  2  0
  7  9  1  0
  9 10  1  0
 10 11  1  0
 11 12  1  0
 12 13  2  0
 12 17  1  0
 13 14  1  0
 14 15  1  0
 14 33  2  0
 15 16  1  0
 15 26  2  0
 16 17  2  0
 17 18  1  0
 18 19  1  0
 19 20  2  0
 19 21  1  0
 21 22  1  0
 21 25  2  0
 22 23  2  0
 23 24  1  0
 24 25  1  0
 26 27  1  0
 27 28  1  0
 27 29  2  0
 29 30  1  0
 30 31  2  0
 30 32  1  0
 32 33  1  0
 34 35  1  0
 35 36  2  0
 36 37  1  0
M  END
