
     RDKit          3D

 37 40  0  0  0  0  0  0  0  0999 V2000
   -1.9510    5.8280    5.0260 C   0  0  0  0  0  0  0  0  0  0  0  0
   -1.3740    6.0320    3.7430 O   0  0  0  0  0  0  0  0  0  0  0  0
   -0.7080    5.0440    3.0460 C   0  0  0  0  0  0  0  0  0  0  0  0
   -0.5980    3.9070    3.5600 O   0  0  0  0  0  0  0  0  0  0  0  0
   -0.1450    5.3450    1.7260 C   0  0  0  0  0  0  0  0  0  0  0  0
    0.5180    4.2200    1.1260 N   0  0  0  0  0  0  0  0  0  0  0  0
   -0.1650    2.9930    0.8410 C   0  0  0  0  0  0  0  0  0  0  0  0
   -1.3640    2.9380    1.1370 O   0  0  0  0  0  0  0  0  0  0  0  0
    0.5140    1.8720    0.2380 C   0  0  0  0  0  0  0  0  0  0  0  0
    2.2620    1.9390   -0.2050 S   0  0  0  0  0  0  0  0  0  0  0  0
    2.3400    0.2420   -0.8680 C   0  0  0  0  0  0  0  0  0  0  0  0
    3.5310   -0.3350   -1.4020 C   0  0  0  0  0  0  0  0  0  0  0  0
    4.7890    0.1970   -1.5320 C   0  0  0  0  0  0  0  0  0  0  0  0
    5.7380   -0.5850   -2.0760 C   0  0  0  0  0  0  0  0  0  0  0  0
    5.4220   -1.8300   -2.4620 C   0  0  0  0  0  0  0  0  0  0  0  0
    3.7270   -1.9590   -2.0650 S   0  0  0  0  0  0  0  0  0  0  0  0
    6.3760   -2.8040   -3.0740 C   0  0  0  0  0  0  0  0  0  0  0  0
    7.6380   -2.6690   -2.2170 C   0  0  0  0  0  0  0  0  0  0  0  0
    8.1610   -1.2830   -2.5050 C   0  0  0  0  0  0  0  0  0  0  0  0
    7.1730   -0.2130   -2.3080 C   0  0  0  0  0  0  0  0  0  0  0  0
    7.5550    0.9680   -2.3390 O   0  0  0  0  0  0  0  0  0  0  0  0
    1.0680   -0.1920   -0.6910 C   0  0  0  0  0  0  0  0  0  0  0  0
    0.1440    0.5970   -0.1450 C   0  0  0  0  0  0  0  0  0  0  0  0
   -1.2410    0.1960    0.0780 N   0  0  0  0  0  0  0  0  0  0  0  0
   -1.8050   -1.0350   -0.2510 C   0  0  0  0  0  0  0  0  0  0  0  0
   -1.0480   -1.9000   -0.7980 O   0  0  0  0  0  0  0  0  0  0  0  0
   -3.1830   -1.4650   -0.0400 C   0  0  0  0  0  0  0  0  0  0  0  0
   -3.5900   -2.7340   -0.4280 C   0  0  0  0  0  0  0  0  0  0  0  0
   -2.3650   -3.8170   -1.1920 S   0  0  0  0  0  0  0  0  0  0  0  0
   -3.1080   -5.4110   -1.6160 C   0  0  0  0  0  0  0  0  0  0  0  0
   -4.8590   -3.2300   -0.2750 C   0  0  0  0  0  0  0  0  0  0  0  0
   -5.7950   -2.4090    0.3060 C   0  0  0  0  0  0  0  0  0  0  0  0
   -5.4460   -1.1440    0.7090 C   0  0  0  0  0  0  0  0  0  0  0  0
   -6.4210   -0.3490    1.2890 O   0  0  0  0  0  0  0  0  0  0  0  0
   -7.7380   -0.7690    1.4860 C   0  0  0  0  0  0  0  0  0  0  0  0
   -4.1400   -0.6740    0.5350 C   0  0  0  0  0  0  0  0  0  0  0  0
   -3.8940    0.6000    0.9690 O   0  0  0  0  0  0  0  0  0  0  0  0
  1  2  1  0
  2  3  1  0
  3  4  2  0
  3  5  1  0
  5  6  1  0
  6  7  1  0
  7  8  2  0
  7  9  1  0
  9 10  1  0
  9 23  2  0
 10 11  1  0
 11 12  1  0
 11 22  2  0
 12 13  2  0
 12 16  1  0
 13 14  1  0
 14 15  2  0
 14 20  1  0
 15 16  1  0
 15 17  1  0
 17 18  1  0
 18 19  1  0
 19 20  1  0
 20 21  2  0
 22 23  1  0
 23 24  1  0
 24 25  1  0
 25 26  2  0
 25 27  1  0
 27 28  2  0
 27 36  1  0
 28 29  1  0
 28 31  1  0
 29 30  1  0
 31 32  2  0
 32 33  1  0
 33 34  1  0
 33 36  2  0
 34 35  1  0
 36 37  1  0
M  END
