
     RDKit          3D

 37 40  0  0  0  0  0  0  0  0999 V2000
   -3.3400    0.5930    3.3380 C   0  0  0  0  0  0  0  0  0  0  0  0
   -3.0210    1.0500    1.9700 N   0  0  0  0  0  0  0  0  0  0  0  0
   -2.3200    2.2520    1.7650 C   0  0  0  0  0  0  0  0  0  0  0  0
   -2.0030    2.9030    2.8200 O   0  0  0  0  0  0  0  0  0  0  0  0
   -1.9500    2.7850    0.4830 C   0  0  0  0  0  0  0  0  0  0  0  0
   -1.8280    4.1980    0.3750 C   0  0  0  0  0  0  0  0  0  0  0  0
   -1.5440    4.7800   -0.8290 C   0  0  0  0  0  0  0  0  0  0  0  0
   -1.3750    3.9960   -1.9440 C   0  0  0  0  0  0  0  0  0  0  0  0
   -1.4960    2.6290   -1.8230 C   0  0  0  0  0  0  0  0  0  0  0  0
   -1.7800    2.0160   -0.6220 C   0  0  0  0  0  0  0  0  0  0  0  0
   -1.8150    0.5820   -0.5880 C   0  0  0  0  0  0  0  0  0  0  0  0
   -1.0100   -0.2610   -0.0200 C   0  0  0  0  0  0  0  0  0  0  0  0
    0.4500    0.0940    0.9150 S   0  0  0  0  0  0  0  0  0  0  0  0
    1.3090    1.5920    0.5450 C   0  0  0  0  0  0  0  0  0  0  0  0
    1.9270    1.5840   -0.8430 C   0  0  0  0  0  0  0  0  0  0  0  0
    2.8700    0.5790   -1.0450 O   0  0  0  0  0  0  0  0  0  0  0  0
    4.0680    0.5000   -0.3120 C   0  0  0  0  0  0  0  0  0  0  0  0
    4.2420    1.3860    0.5270 O   0  0  0  0  0  0  0  0  0  0  0  0
    4.9890   -0.4680   -0.4880 O   0  0  0  0  0  0  0  0  0  0  0  0
    6.2180   -0.6080    0.2130 C   0  0  0  0  0  0  0  0  0  0  0  0
    6.7120    0.1360    1.1240 C   0  0  0  0  0  0  0  0  0  0  0  0
    8.0200   -0.2020    1.7210 C   0  0  0  0  0  0  0  0  0  0  0  0
    8.6690   -1.3220    0.4200 S   0  0  0  0  0  0  0  0  0  0  0  0
    7.0320   -1.8110   -0.1940 C   0  0  0  0  0  0  0  0  0  0  0  0
   -1.3740   -1.7090   -0.0340 C   0  0  0  0  0  0  0  0  0  0  0  0
   -0.5790   -2.5420    0.5080 O   0  0  0  0  0  0  0  0  0  0  0  0
   -2.5630   -2.1570   -0.6260 N   0  0  0  0  0  0  0  0  0  0  0  0
   -2.9680   -3.5330   -0.6820 C   0  0  0  0  0  0  0  0  0  0  0  0
   -2.1490   -4.6010   -0.4410 C   0  0  0  0  0  0  0  0  0  0  0  0
   -2.6320   -5.9150   -0.4980 C   0  0  0  0  0  0  0  0  0  0  0  0
   -3.9530   -6.1490   -0.8030 C   0  0  0  0  0  0  0  0  0  0  0  0
   -4.5950   -7.8020   -0.8830 S   0  0  0  0  0  0  0  0  0  0  0  0
   -4.8060   -5.0970   -1.0520 C   0  0  0  0  0  0  0  0  0  0  0  0
   -4.2940   -3.8270   -0.9850 C   0  0  0  0  0  0  0  0  0  0  0  0
   -1.1020    4.8680   -2.9950 O   0  0  0  0  0  0  0  0  0  0  0  0
   -0.6070    6.0740   -2.4200 C   0  0  0  0  0  0  0  0  0  0  0  0
   -1.3710    6.1240   -1.2170 O   0  0  0  0  0  0  0  0  0  0  0  0
  1  2  1  0
  2  3  1  0
  3  4  2  0
  3  5  1  0
  5  6  2  0
  5 10  1  0
  6  7  1  0
  7  8  2  0
  7 37  1  0
  8  9  1  0
  8 35  1  0
  9 10  2  0
 10 11  1  0
 11 12  2  3
 12 13  1  0
 12 25  1  0
 13 14  1  0
 14 15  1  0
 15 16  1  0
 16 17  1  0
 17 18  2  0
 17 19  1  0
 19 20  1  0
 20 21  2  0
 20 24  1  0
 21 22  1  0
 22 23  1  0
 23 24  1  0
 25 26  2  0
 25 27  1  0
 27 28  1  0
 28 29  2  0
 28 34  1  0
 29 30  1  0
 30 31  2  0
 31 32  1  0
 31 33  1  0
 33 34  2  0
 35 36  1  0
 36 37  1  0
M  END
