
     RDKit          3D

 37 40  0  0  0  0  0  0  0  0999 V2000
    1.6430   -1.1040    0.9040 C   0  0  0  0  0  0  0  0  0  0  0  0
    1.9500   -1.1320   -0.4900 O   0  0  0  0  0  0  0  0  0  0  0  0
    1.8380   -0.0120   -1.2860 C   0  0  0  0  0  0  0  0  0  0  0  0
    2.7790    0.9250   -1.6040 C   0  0  0  0  0  0  0  0  0  0  0  0
    4.2020    0.9980   -1.2180 C   0  0  0  0  0  0  0  0  0  0  0  0
    4.8510    1.9960   -1.6390 O   0  0  0  0  0  0  0  0  0  0  0  0
    4.8300    0.0320   -0.4280 N   0  0  0  0  0  0  0  0  0  0  0  0
    6.1990    0.0430   -0.0110 C   0  0  0  0  0  0  0  0  0  0  0  0
    7.1270    0.9890   -0.3070 C   0  0  0  0  0  0  0  0  0  0  0  0
    8.4620    1.0000    0.0990 C   0  0  0  0  0  0  0  0  0  0  0  0
    9.2850    2.1230   -0.3380 C   0  0  0  0  0  0  0  0  0  0  0  0
   10.4840    2.1750    0.0010 O   0  0  0  0  0  0  0  0  0  0  0  0
    9.0570    0.0500    0.8680 C   0  0  0  0  0  0  0  0  0  0  0  0
    8.4440   -1.0710    1.3690 C   0  0  0  0  0  0  0  0  0  0  0  0
    9.0620   -1.9520    2.1020 N   0  0  0  0  0  0  0  0  0  0  0  0
    6.8040   -1.2550    0.9750 S   0  0  0  0  0  0  0  0  0  0  0  0
    2.1090    1.8260   -2.4310 C   0  0  0  0  0  0  0  0  0  0  0  0
    0.8780    1.4280   -2.5730 O   0  0  0  0  0  0  0  0  0  0  0  0
    0.6470    0.3330   -1.9140 C   0  0  0  0  0  0  0  0  0  0  0  0
   -0.6130   -0.4080   -1.8360 C   0  0  0  0  0  0  0  0  0  0  0  0
   -1.5970    0.0320   -2.4590 O   0  0  0  0  0  0  0  0  0  0  0  0
   -0.7570   -1.5610   -1.1090 O   0  0  0  0  0  0  0  0  0  0  0  0
   -1.9600   -2.2980   -1.0130 C   0  0  0  0  0  0  0  0  0  0  0  0
   -3.0390   -1.4250   -0.4160 C   0  0  0  0  0  0  0  0  0  0  0  0
   -4.3440   -1.7390   -0.1500 C   0  0  0  0  0  0  0  0  0  0  0  0
   -5.1290   -0.7870    0.3890 C   0  0  0  0  0  0  0  0  0  0  0  0
   -6.4950   -0.9300    0.7420 C   0  0  0  0  0  0  0  0  0  0  0  0
   -7.3080   -2.0850    0.5260 C   0  0  0  0  0  0  0  0  0  0  0  0
   -7.0630   -3.1750   -0.4240 C   0  0  0  0  0  0  0  0  0  0  0  0
   -8.3870   -2.2160    1.2210 O   0  0  0  0  0  0  0  0  0  0  0  0
   -7.1280    0.1700    1.3010 C   0  0  0  0  0  0  0  0  0  0  0  0
   -6.5800    1.3820    1.5500 C   0  0  0  0  0  0  0  0  0  0  0  0
   -7.4270    2.7640    2.2690 S   0  0  0  0  0  0  0  0  0  0  0  0
   -6.3680    4.2000    2.4420 C   0  0  0  0  0  0  0  0  0  0  0  0
   -5.2330    1.5260    1.2010 C   0  0  0  0  0  0  0  0  0  0  0  0
   -4.5840    0.4320    0.6390 C   0  0  0  0  0  0  0  0  0  0  0  0
   -2.8740    0.2140    0.0810 S   0  0  0  0  0  0  0  0  0  0  0  0
  1  2  1  0
  2  3  1  0
  3  4  1  0
  3 19  2  0
  4  5  1  0
  4 17  2  0
  5  6  2  0
  5  7  1  0
  7  8  1  0
  8  9  2  0
  8 16  1  0
  9 10  1  0
 10 11  1  0
 10 13  2  0
 11 12  2  0
 13 14  1  0
 14 15  2  0
 14 16  1  0
 17 18  1  0
 18 19  1  0
 19 20  1  0
 20 21  2  0
 20 22  1  0
 22 23  1  0
 23 24  1  0
 24 25  2  0
 24 37  1  0
 25 26  1  0
 26 27  2  0
 26 36  1  0
 27 28  1  0
 27 31  1  0
 28 29  1  0
 28 30  2  0
 31 32  2  0
 32 33  1  0
 32 35  1  0
 33 34  1  0
 35 36  2  0
 36 37  1  0
M  END
