
     RDKit          3D

 37 41  0  0  0  0  0  0  0  0999 V2000
    8.2340    3.1390    0.1350 N   0  0  0  0  0  0  0  0  0  0  0  0
    6.9900    3.0540    1.3180 S   0  0  1  0  0  0  0  0  0  0  0  0
    7.6200    3.0770    2.6750 O   0  0  0  0  0  0  0  0  0  0  0  0
    6.0350    4.2010    1.2130 O   0  0  0  0  0  0  0  0  0  0  0  0
    6.1060    1.5370    1.1850 N   0  0  0  0  0  0  0  0  0  0  0  0
    6.5960    0.4910    0.3860 C   0  0  0  0  0  0  0  0  0  0  0  0
    7.7040    0.7300   -0.1990 O   0  0  0  0  0  0  0  0  0  0  0  0
    5.9400   -0.7800    0.1980 C   0  0  0  0  0  0  0  0  0  0  0  0
    6.6410   -1.7540   -0.5320 C   0  0  0  0  0  0  0  0  0  0  0  0
    6.1670   -3.0250   -0.7310 C   0  0  0  0  0  0  0  0  0  0  0  0
    4.9580   -3.4190   -0.2180 C   0  0  0  0  0  0  0  0  0  0  0  0
    4.2490   -2.4920    0.4980 C   0  0  0  0  0  0  0  0  0  0  0  0
    4.7400   -1.1910    0.6980 C   0  0  0  0  0  0  0  0  0  0  0  0
    3.9510   -0.3340    1.4210 O   0  0  0  0  0  0  0  0  0  0  0  0
    2.9080    0.3990    0.8190 C   0  0  0  0  0  0  0  0  0  0  0  0
    2.2470    1.3550    1.5540 C   0  0  0  0  0  0  0  0  0  0  0  0
    1.2140    2.1080    1.0210 C   0  0  0  0  0  0  0  0  0  0  0  0
    0.8080    1.9110   -0.3020 C   0  0  0  0  0  0  0  0  0  0  0  0
   -0.5180    2.9090   -0.9740 S   0  0  0  0  0  0  0  0  0  0  0  0
   -2.0750    2.1440   -0.5910 C   0  0  0  0  0  0  0  0  0  0  0  0
   -2.7230    1.2350   -1.3870 C   0  0  0  0  0  0  0  0  0  0  0  0
   -3.9500    0.6860   -0.9950 C   0  0  0  0  0  0  0  0  0  0  0  0
   -4.5490    1.0320    0.1910 C   0  0  0  0  0  0  0  0  0  0  0  0
   -5.7450    0.5350    0.6360 O   0  0  0  0  0  0  0  0  0  0  0  0
   -6.6050   -0.3640    0.0380 C   0  0  1  0  0  0  0  0  0  0  0  0
   -6.7110   -1.6440    0.8250 C   0  0  0  0  0  0  0  0  0  0  0  0
   -8.1100   -2.0540    1.1610 C   0  0  0  0  0  0  0  0  0  0  0  0
   -9.0270   -2.1350   -0.4300 S   0  0  0  0  0  0  0  0  0  0  0  0
   -8.7770   -0.4770   -1.1840 C   0  0  0  0  0  0  0  0  0  0  0  0
   -7.9490    0.2960   -0.1720 C   0  0  0  0  0  0  0  0  0  0  0  0
   -3.8920    1.9620    1.0120 C   0  0  0  0  0  0  0  0  0  0  0  0
   -2.6980    2.4780    0.6010 C   0  0  0  0  0  0  0  0  0  0  0  0
    1.4790    0.9510   -1.0210 C   0  0  0  0  0  0  0  0  0  0  0  0
    2.5250    0.1900   -0.4830 C   0  0  0  0  0  0  0  0  0  0  0  0
    3.0770   -3.1290    0.9050 O   0  0  0  0  0  0  0  0  0  0  0  0
    2.8850   -4.3230    0.1680 C   0  0  0  0  0  0  0  0  0  0  0  0
    4.2180   -4.6070   -0.2420 O   0  0  0  0  0  0  0  0  0  0  0  0
  2  1  1  6
  2  3  2  0
  2  4  2  0
  2  5  1  0
  5  6  1  0
  6  7  2  0
  6  8  1  0
  8  9  2  0
  8 13  1  0
  9 10  1  0
 10 11  2  0
 11 12  1  0
 11 37  1  0
 12 13  2  0
 12 35  1  0
 13 14  1  0
 14 15  1  0
 15 16  2  0
 15 34  1  0
 16 17  1  0
 17 18  2  0
 18 19  1  0
 18 33  1  0
 19 20  1  0
 20 21  2  0
 20 32  1  0
 21 22  1  0
 22 23  2  0
 23 24  1  0
 23 31  1  0
 25 24  1  1
 25 26  1  0
 25 30  1  0
 26 27  1  0
 27 28  1  0
 28 29  1  0
 29 30  1  0
 31 32  2  0
 33 34  2  0
 35 36  1  0
 36 37  1  0
M  END
