
     RDKit          3D

 37 38  0  0  0  0  0  0  0  0999 V2000
    4.8640   -4.2280    4.2180 C   0  0  0  0  0  0  0  0  0  0  0  0
    5.3530   -4.4090    2.8100 C   0  0  0  0  0  0  0  0  0  0  0  0
    4.7560   -3.4500    1.8630 C   0  0  0  0  0  0  0  0  0  0  0  0
    5.1050   -3.5360    0.6860 O   0  0  0  0  0  0  0  0  0  0  0  0
    3.7690   -2.4050    2.2660 C   0  0  0  0  0  0  0  0  0  0  0  0
    3.3260   -1.5720    1.1130 C   0  0  0  0  0  0  0  0  0  0  0  0
    2.3510   -0.5560    1.5810 C   0  0  0  0  0  0  0  0  0  0  0  0
    2.0430   -0.5370    2.8250 O   0  0  0  0  0  0  0  0  0  0  0  0
    1.7720    0.3750    0.6770 N   0  0  0  0  0  0  0  0  0  0  0  0
    0.8190    1.3830    1.0810 C   0  0  1  0  0  0  0  0  0  0  0  0
    1.3680    2.7420    1.0660 C   0  0  0  0  0  0  0  0  0  0  0  0
    1.8870    3.3280   -0.1460 C   0  0  0  0  0  0  0  0  0  0  0  0
    1.2330    4.1370   -1.0540 C   0  0  0  0  0  0  0  0  0  0  0  0
    1.7920    4.6500   -2.1820 C   0  0  0  0  0  0  0  0  0  0  0  0
    3.0930    4.3710   -2.4790 C   0  0  0  0  0  0  0  0  0  0  0  0
    3.8150    3.5690   -1.6210 C   0  0  0  0  0  0  0  0  0  0  0  0
    3.2190    3.0660   -0.4880 C   0  0  0  0  0  0  0  0  0  0  0  0
   -0.5540    1.1300    0.5620 C   0  0  2  0  0  0  0  0  0  0  0  0
   -0.9450   -0.1100    1.1400 O   0  0  0  0  0  0  0  0  0  0  0  0
   -0.6960    1.0160   -0.9300 C   0  0  0  0  0  0  0  0  0  0  0  0
   -2.0030    0.7180   -1.3690 N   0  0  0  0  0  0  0  0  0  0  0  0
   -2.9410    1.7540   -1.3960 C   0  0  0  0  0  0  0  0  0  0  0  0
   -3.0440    2.5910   -2.6190 C   0  0  1  0  0  0  0  0  0  0  0  0
   -3.4050    1.7730   -3.8390 C   0  0  0  0  0  0  0  0  0  0  0  0
   -4.0700    3.7180   -2.4450 C   0  0  0  0  0  0  0  0  0  0  0  0
   -4.1810    4.5600   -3.6700 C   0  0  0  0  0  0  0  0  0  0  0  0
   -2.4250   -0.8080   -1.8260 S   0  0  2  0  0  0  0  0  0  0  0  0
   -1.5080   -1.2570   -2.9680 O   0  0  0  0  0  0  0  0  0  0  0  0
   -3.8120   -0.9520   -2.3970 O   0  0  0  0  0  0  0  0  0  0  0  0
   -2.2860   -2.0130   -0.5850 C   0  0  0  0  0  0  0  0  0  0  0  0
   -3.3150   -2.1670    0.3070 C   0  0  0  0  0  0  0  0  0  0  0  0
   -3.2460   -3.1370    1.2990 C   0  0  0  0  0  0  0  0  0  0  0  0
   -2.1450   -3.9620    1.4080 C   0  0  0  0  0  0  0  0  0  0  0  0
   -2.0760   -4.9270    2.3940 O   0  0  0  0  0  0  0  0  0  0  0  0
   -3.1020   -5.1180    3.3240 C   0  0  0  0  0  0  0  0  0  0  0  0
   -1.0970   -3.8130    0.5080 C   0  0  0  0  0  0  0  0  0  0  0  0
   -1.1910   -2.8370   -0.4740 C   0  0  0  0  0  0  0  0  0  0  0  0
  1  2  1  0
  2  3  1  0
  3  4  2  0
  3  5  1  0
  5  6  1  0
  6  7  1  0
  7  8  2  0
  7  9  1  0
  9 10  1  0
 10 11  1  6
 10 18  1  0
 11 12  1  0
 12 13  2  0
 12 17  1  0
 13 14  1  0
 14 15  2  0
 15 16  1  0
 16 17  2  0
 18 19  1  1
 18 20  1  0
 20 21  1  0
 21 22  1  0
 27 21  1  1
 22 23  1  0
 23 24  1  6
 23 25  1  0
 25 26  1  0
 27 28  2  0
 27 29  2  0
 27 30  1  0
 30 31  2  0
 30 37  1  0
 31 32  1  0
 32 33  2  0
 33 34  1  0
 33 36  1  0
 34 35  1  0
 36 37  2  0
M  END
