
     RDKit          3D

 37 41  0  0  0  0  0  0  0  0999 V2000
    8.9000   -0.3730   -1.1650 C   0  0  0  0  0  0  0  0  0  0  0  0
    9.0730    1.0890   -0.8080 C   0  0  2  0  0  0  0  0  0  0  0  0
    9.1810    1.1360    0.7340 C   0  0  0  0  0  0  0  0  0  0  0  0
    7.8330    0.6340    1.1080 C   0  0  0  0  0  0  0  0  0  0  0  0
    7.0550   -0.0650    1.9640 N   0  0  0  0  0  0  0  0  0  0  0  0
    5.8160   -0.0770    1.5920 N   0  0  0  0  0  0  0  0  0  0  0  0
    5.6860    0.6250    0.4400 C   0  0  0  0  0  0  0  0  0  0  0  0
    4.4730    0.8290   -0.3580 C   0  0  0  0  0  0  0  0  0  0  0  0
    4.0580    1.7430   -0.8750 O   0  0  0  0  0  0  0  0  0  0  0  0
    3.5800   -0.6500   -0.4670 N   0  0  0  0  0  0  0  0  0  0  0  0
    2.4550   -0.1080   -1.1510 C   0  0  0  0  0  0  0  0  0  0  0  0
    2.0380    0.9840   -1.2440 O   0  0  0  0  0  0  0  0  0  0  0  0
    1.7590   -1.2110   -1.8610 N   0  0  0  0  0  0  0  0  0  0  0  0
    0.6710   -1.0990   -2.6160 N   0  0  0  0  0  0  0  0  0  0  0  0
   -0.6040   -0.8250   -2.0350 C   0  0  0  0  0  0  0  0  0  0  0  0
   -1.7490   -0.9980   -2.8170 C   0  0  0  0  0  0  0  0  0  0  0  0
   -2.9880   -0.7650   -2.3180 C   0  0  0  0  0  0  0  0  0  0  0  0
   -3.1660   -0.3350   -0.9690 C   0  0  0  0  0  0  0  0  0  0  0  0
   -4.4820   -0.0760   -0.4780 C   0  0  0  0  0  0  0  0  0  0  0  0
   -4.6360    0.9210    0.3590 O   0  0  0  0  0  0  0  0  0  0  0  0
   -5.6970   -0.7460   -0.7640 N   0  0  0  0  0  0  0  0  0  0  0  0
   -6.9590   -0.3110   -0.1780 C   0  0  1  0  0  0  0  0  0  0  0  0
   -7.9990   -0.1730   -1.2780 C   0  0  0  0  0  0  0  0  0  0  0  0
   -9.2600   -0.6250   -0.5840 C   0  0  0  0  0  0  0  0  0  0  0  0
   -8.8610   -1.6920    0.3920 C   0  0  0  0  0  0  0  0  0  0  0  0
   -7.4410   -1.3450    0.7850 C   0  0  0  0  0  0  0  0  0  0  0  0
   -2.0210   -0.1870   -0.2740 C   0  0  0  0  0  0  0  0  0  0  0  0
   -1.9940    0.3650    1.0870 C   0  0  0  0  0  0  0  0  0  0  0  0
   -1.2820    1.5660    1.2970 C   0  0  0  0  0  0  0  0  0  0  0  0
   -1.1360    2.0700    2.5650 C   0  0  0  0  0  0  0  0  0  0  0  0
   -1.7120    1.3640    3.6280 C   0  0  0  0  0  0  0  0  0  0  0  0
   -1.5160    1.9390    4.9070 F   0  0  0  0  0  0  0  0  0  0  0  0
   -2.3780    0.2510    3.4650 C   0  0  0  0  0  0  0  0  0  0  0  0
   -2.5500   -0.3060    2.1380 C   0  0  0  0  0  0  0  0  0  0  0  0
   -0.7740   -0.4220   -0.7850 N   0  0  0  0  0  0  0  0  0  0  0  0
    6.9420    1.0860    0.1110 C   0  0  0  0  0  0  0  0  0  0  0  0
    7.7260    1.8370   -0.9370 C   0  0  0  0  0  0  0  0  0  0  0  0
  2  1  1  1
  2  3  1  0
  2 37  1  0
  3  4  1  0
  4  5  1  0
  4 36  2  0
  5  6  1  0
  6  7  2  0
  7  8  1  0
  7 36  1  0
  8  9  2  0
  8 10  1  0
 10 11  1  0
 11 12  2  0
 11 13  1  0
 13 14  1  0
 14 15  1  0
 15 16  2  0
 15 35  1  0
 16 17  1  0
 17 18  2  0
 18 19  1  0
 18 27  1  0
 19 20  2  0
 19 21  1  0
 22 21  1  6
 22 23  1  0
 22 26  1  0
 23 24  1  0
 24 25  1  0
 25 26  1  0
 27 28  1  0
 27 35  2  0
 28 29  2  0
 28 34  1  0
 29 30  1  0
 30 31  2  0
 31 32  1  0
 31 33  1  0
 33 34  2  0
 36 37  1  0
M  END
