
     RDKit          3D

 37 41  0  0  0  0  0  0  0  0999 V2000
   -8.3450    2.4750    1.4720 C   0  0  0  0  0  0  0  0  0  0  0  0
   -7.7140    1.3250    0.7860 C   0  0  0  0  0  0  0  0  0  0  0  0
   -6.4060    1.0660    0.9280 N   0  0  0  0  0  0  0  0  0  0  0  0
   -5.8040   -0.0060    0.2920 C   0  0  0  0  0  0  0  0  0  0  0  0
   -4.4240   -0.2130    0.4710 N   0  0  0  0  0  0  0  0  0  0  0  0
   -3.6480   -1.2430   -0.0790 C   0  0  0  0  0  0  0  0  0  0  0  0
   -4.1890   -2.3480   -0.7010 C   0  0  0  0  0  0  0  0  0  0  0  0
   -3.3990   -3.3820   -1.1870 C   0  0  0  0  0  0  0  0  0  0  0  0
   -2.0470   -3.3090   -1.0470 C   0  0  0  0  0  0  0  0  0  0  0  0
   -1.2230   -4.2880   -1.5000 F   0  0  0  0  0  0  0  0  0  0  0  0
   -1.4800   -2.1920   -0.4170 C   0  0  0  0  0  0  0  0  0  0  0  0
   -2.2410   -1.1700    0.0630 C   0  0  0  0  0  0  0  0  0  0  0  0
   -1.6800   -0.0130    0.6440 N   0  0  0  0  0  0  0  0  0  0  0  0
   -0.3110    0.0950    1.0070 C   0  0  0  0  0  0  0  0  0  0  0  0
    0.5300   -0.8090    0.8600 O   0  0  0  0  0  0  0  0  0  0  0  0
    0.1980    1.3640    1.6120 C   0  0  0  0  0  0  0  0  0  0  0  0
    1.6090    1.2750    1.9000 N   0  0  0  0  0  0  0  0  0  0  0  0
    2.5290    1.0430    0.8050 C   0  0  0  0  0  0  0  0  0  0  0  0
    2.0490    0.9340   -0.3410 O   0  0  0  0  0  0  0  0  0  0  0  0
    3.8950    0.9480    1.0470 N   0  0  0  0  0  0  0  0  0  0  0  0
    4.8830    0.7250    0.0590 C   0  0  0  0  0  0  0  0  0  0  0  0
    4.6680    0.6030   -1.2820 C   0  0  0  0  0  0  0  0  0  0  0  0
    5.7110    0.3800   -2.1900 C   0  0  0  0  0  0  0  0  0  0  0  0
    7.0170    0.2720   -1.7740 C   0  0  0  0  0  0  0  0  0  0  0  0
    8.1950    0.0640   -2.3990 N   0  0  0  0  0  0  0  0  0  0  0  0
    9.2030    0.0420   -1.5270 C   0  0  0  0  0  0  0  0  0  0  0  0
   10.6450   -0.1640   -1.8560 C   0  0  0  0  0  0  0  0  0  0  0  0
    8.6320    0.2460   -0.2890 C   0  0  0  0  0  0  0  0  0  0  0  0
    9.3560    0.3010    0.9880 C   0  0  0  0  0  0  0  0  0  0  0  0
    7.2560    0.3930   -0.4230 C   0  0  0  0  0  0  0  0  0  0  0  0
    6.2240    0.6120    0.4600 C   0  0  0  0  0  0  0  0  0  0  0  0
   -6.5520   -0.7930   -0.4790 N   0  0  0  0  0  0  0  0  0  0  0  0
   -7.8500   -0.5720   -0.6470 C   0  0  0  0  0  0  0  0  0  0  0  0
   -8.4570    0.4980   -0.0140 C   0  0  0  0  0  0  0  0  0  0  0  0
   -9.8670    0.4720   -0.3920 C   0  0  0  0  0  0  0  0  0  0  0  0
  -10.1040   -0.7270   -1.0260 O   0  0  0  0  0  0  0  0  0  0  0  0
   -8.8910   -1.2520   -1.4140 C   0  0  0  0  0  0  0  0  0  0  0  0
  1  2  1  0
  2  3  2  0
  2 34  1  0
  3  4  1  0
  4  5  1  0
  4 32  2  0
  5  6  1  0
  6  7  2  0
  6 12  1  0
  7  8  1  0
  8  9  2  0
  9 10  1  0
  9 11  1  0
 11 12  2  0
 12 13  1  0
 13 14  1  0
 14 15  2  0
 14 16  1  0
 16 17  1  0
 17 18  1  0
 18 19  2  0
 18 20  1  0
 20 21  1  0
 21 22  2  0
 21 31  1  0
 22 23  1  0
 23 24  2  0
 24 25  1  0
 24 30  1  0
 25 26  1  0
 26 27  1  0
 26 28  2  0
 28 29  1  0
 28 30  1  0
 30 31  2  0
 32 33  1  0
 33 34  2  0
 33 37  1  0
 34 35  1  0
 35 36  1  0
 36 37  1  0
M  END
