
     RDKit          3D

 37 41  0  0  0  0  0  0  0  0999 V2000
    7.4550    0.5780    0.4290 C   0  0  0  0  0  0  0  0  0  0  0  0
    6.0540    0.5710    0.8950 C   0  0  0  0  0  0  0  0  0  0  0  0
    5.1060    1.3590    0.2060 C   0  0  0  0  0  0  0  0  0  0  0  0
    3.8090    1.3610    0.6110 C   0  0  0  0  0  0  0  0  0  0  0  0
    2.7470    2.1410   -0.0180 C   0  0  1  0  0  0  0  0  0  0  0  0
    3.0470    2.7820   -1.2420 N   0  0  0  0  0  0  0  0  0  0  0  0
    2.0040    3.3120   -2.0480 C   0  0  0  0  0  0  0  0  0  0  0  0
    2.2180    4.2450   -2.8840 O   0  0  0  0  0  0  0  0  0  0  0  0
    0.6340    2.7810   -1.9250 C   0  0  0  0  0  0  0  0  0  0  0  0
   -0.4250    3.2340   -2.6750 C   0  0  0  0  0  0  0  0  0  0  0  0
   -1.6750    2.6830   -2.5180 C   0  0  0  0  0  0  0  0  0  0  0  0
   -2.8780    2.9520   -3.1090 N   0  0  0  0  0  0  0  0  0  0  0  0
   -3.7970    2.1560   -2.6080 N   0  0  0  0  0  0  0  0  0  0  0  0
   -5.2120    2.0910   -2.9480 C   0  0  0  0  0  0  0  0  0  0  0  0
   -3.2110    1.3590   -1.6860 C   0  0  0  0  0  0  0  0  0  0  0  0
   -3.9070    0.3540   -0.8930 C   0  0  0  0  0  0  0  0  0  0  0  0
   -5.1220    0.5880   -0.5720 O   0  0  0  0  0  0  0  0  0  0  0  0
   -3.3470   -0.8550   -0.4630 N   0  0  0  0  0  0  0  0  0  0  0  0
   -3.9290   -1.8750    0.3280 C   0  0  0  0  0  0  0  0  0  0  0  0
   -5.0870   -1.7850    1.0410 C   0  0  0  0  0  0  0  0  0  0  0  0
   -5.5250   -2.8470    1.8480 C   0  0  0  0  0  0  0  0  0  0  0  0
   -6.6440   -2.8170    2.6470 C   0  0  0  0  0  0  0  0  0  0  0  0
   -7.6570   -2.7780    3.3500 N   0  0  0  0  0  0  0  0  0  0  0  0
   -4.7480   -4.0270    1.9170 C   0  0  0  0  0  0  0  0  0  0  0  0
   -3.6040   -4.1200    1.2130 C   0  0  0  0  0  0  0  0  0  0  0  0
   -3.2170   -3.0490    0.4360 C   0  0  0  0  0  0  0  0  0  0  0  0
   -2.0100   -3.2310   -0.2630 O   0  0  0  0  0  0  0  0  0  0  0  0
   -1.2360   -4.3830   -0.2060 C   0  0  0  0  0  0  0  0  0  0  0  0
   -0.1370   -4.2070   -1.0310 F   0  0  0  0  0  0  0  0  0  0  0  0
   -1.8770    1.6620   -1.5980 C   0  0  0  0  0  0  0  0  0  0  0  0
   -0.8060    1.2340   -0.8620 C   0  0  0  0  0  0  0  0  0  0  0  0
    0.4880    1.7710   -0.9940 C   0  0  0  0  0  0  0  0  0  0  0  0
    1.5620    1.2980   -0.2250 N   0  0  0  0  0  0  0  0  0  0  0  0
    3.4630    0.5690    1.7130 C   0  0  0  0  0  0  0  0  0  0  0  0
    4.3870   -0.1960    2.3800 C   0  0  0  0  0  0  0  0  0  0  0  0
    5.7060   -0.2010    1.9720 C   0  0  0  0  0  0  0  0  0  0  0  0
    6.6530   -1.0060    2.6750 N   0  0  0  0  0  0  0  0  0  0  0  0
  1  2  1  0
  2  3  2  0
  2 36  1  0
  3  4  1  0
  5  4  1  6
  4 34  2  0
  5  6  1  0
  5 33  1  0
  6  7  1  0
  7  8  2  0
  7  9  1  0
  9 10  2  0
  9 32  1  0
 10 11  1  0
 11 12  2  0
 11 30  1  0
 12 13  1  0
 13 14  1  0
 13 15  1  0
 15 16  1  0
 15 30  2  0
 16 17  2  0
 16 18  1  0
 18 19  1  0
 19 20  2  0
 19 26  1  0
 20 21  1  0
 21 22  1  0
 21 24  2  0
 22 23  3  0
 24 25  1  0
 25 26  2  0
 26 27  1  0
 27 28  1  0
 28 29  1  0
 30 31  1  0
 31 32  2  0
 32 33  1  0
 34 35  1  0
 35 36  2  0
 36 37  1  0
M  END
