
     RDKit          3D

 37 41  0  0  0  0  0  0  0  0999 V2000
    7.9700    1.7900    3.0460 C   0  0  0  0  0  0  0  0  0  0  0  0
    7.7490    1.1810    1.8980 C   0  0  0  0  0  0  0  0  0  0  0  0
    8.5080    1.4970    0.6770 C   0  0  0  0  0  0  0  0  0  0  0  0
    7.6540    2.0750   -0.4040 C   0  0  0  0  0  0  0  0  0  0  0  0
    6.5920    1.1820   -0.7840 N   0  0  0  0  0  0  0  0  0  0  0  0
    6.7230    0.1270   -1.7700 C   0  0  0  0  0  0  0  0  0  0  0  0
    7.7170   -0.2280   -2.4390 O   0  0  0  0  0  0  0  0  0  0  0  0
    5.3870   -0.5080   -1.8570 C   0  0  0  0  0  0  0  0  0  0  0  0
    4.9380   -1.7020   -2.1570 C   0  0  0  0  0  0  0  0  0  0  0  0
    5.8590   -2.7130   -2.5070 N   0  0  0  0  0  0  0  0  0  0  0  0
    3.5300   -1.9120   -2.0390 N   0  0  0  0  0  0  0  0  0  0  0  0
    2.6510   -0.8780   -1.6250 C   0  0  0  0  0  0  0  0  0  0  0  0
    1.2150   -1.2050   -1.5140 C   0  0  0  0  0  0  0  0  0  0  0  0
    0.8340   -2.3600   -1.7840 O   0  0  0  0  0  0  0  0  0  0  0  0
    0.2660   -0.2460   -1.1110 N   0  0  0  0  0  0  0  0  0  0  0  0
   -1.1190   -0.4030   -0.9560 C   0  0  0  0  0  0  0  0  0  0  0  0
   -1.7550   -1.5950   -1.0300 C   0  0  0  0  0  0  0  0  0  0  0  0
   -3.1480   -1.6570   -0.8740 C   0  0  0  0  0  0  0  0  0  0  0  0
   -3.9150   -0.5370   -0.6430 C   0  0  0  0  0  0  0  0  0  0  0  0
   -5.3690   -0.7010   -0.5020 C   0  0  0  0  0  0  0  0  0  0  0  0
   -6.0420   -1.4530   -1.3900 N   0  0  0  0  0  0  0  0  0  0  0  0
   -7.3900   -1.6430   -1.3050 C   0  0  0  0  0  0  0  0  0  0  0  0
   -8.0040   -2.4150   -2.2350 F   0  0  0  0  0  0  0  0  0  0  0  0
   -8.1120   -1.0580   -0.2870 C   0  0  0  0  0  0  0  0  0  0  0  0
   -7.4600   -0.2790    0.6450 C   0  0  0  0  0  0  0  0  0  0  0  0
   -7.9300    0.4080    1.7470 C   0  0  0  0  0  0  0  0  0  0  0  0
   -9.3140    0.5230    2.2750 C   0  0  0  0  0  0  0  0  0  0  0  0
   -6.8070    0.9960    2.2890 C   0  0  0  0  0  0  0  0  0  0  0  0
   -6.7090    1.8630    3.4990 C   0  0  0  0  0  0  0  0  0  0  0  0
   -5.7190    0.6740    1.5440 N   0  0  0  0  0  0  0  0  0  0  0  0
   -6.0840   -0.1130    0.5190 C   0  0  0  0  0  0  0  0  0  0  0  0
   -3.2710    0.6590   -0.5690 C   0  0  0  0  0  0  0  0  0  0  0  0
   -1.9010    0.7430   -0.7190 C   0  0  0  0  0  0  0  0  0  0  0  0
    3.1160    0.2890   -1.3630 N   0  0  0  0  0  0  0  0  0  0  0  0
    4.4700    0.6230   -1.4770 C   0  0  1  0  0  0  0  0  0  0  0  0
    5.2140    1.1550   -0.3230 C   0  0  0  0  0  0  0  0  0  0  0  0
    4.8450    1.5140    0.7910 O   0  0  0  0  0  0  0  0  0  0  0  0
  1  2  2  0
  2  3  1  0
  3  4  1  0
  4  5  1  0
  5  6  1  0
  5 36  1  0
  6  7  2  0
  6  8  1  0
  8  9  2  0
  8 35  1  0
  9 10  1  0
  9 11  1  0
 11 12  1  0
 12 13  1  0
 12 34  2  0
 13 14  2  0
 13 15  1  0
 15 16  1  0
 16 17  2  0
 16 33  1  0
 17 18  1  0
 18 19  2  0
 19 20  1  0
 19 32  1  0
 20 21  2  0
 20 31  1  0
 21 22  1  0
 22 23  1  0
 22 24  2  0
 24 25  1  0
 25 26  1  0
 25 31  2  0
 26 27  1  0
 26 28  2  0
 28 29  1  0
 28 30  1  0
 30 31  1  0
 32 33  2  0
 35 34  1  1
 35 36  1  0
 36 37  2  0
M  END
