
     RDKit          3D

 37 38  0  0  0  0  0  0  0  0999 V2000
   -9.8980   -4.3400    1.7130 C   0  0  0  0  0  0  0  0  0  0  0  0
   -8.6480   -4.2900    0.9450 C   0  0  0  0  0  0  0  0  0  0  0  0
   -7.4770   -3.8380    1.3300 C   0  0  0  0  0  0  0  0  0  0  0  0
   -7.3000   -3.2980    2.6860 C   0  0  0  0  0  0  0  0  0  0  0  0
   -6.3420   -3.8400    0.4180 C   0  0  0  0  0  0  0  0  0  0  0  0
   -5.1330   -3.3730    0.7690 C   0  0  0  0  0  0  0  0  0  0  0  0
   -4.0810   -3.4200   -0.2360 C   0  0  0  0  0  0  0  0  0  0  0  0
   -2.8310   -3.0190   -0.0480 C   0  0  0  0  0  0  0  0  0  0  0  0
   -1.9310   -3.1550   -1.2430 C   0  0  2  0  0  0  0  0  0  0  0  0
   -0.8550   -3.9150   -0.9400 O   0  0  0  0  0  0  0  0  0  0  0  0
   -0.8170   -5.1710   -1.5150 C   0  0  0  0  0  0  0  0  0  0  0  0
   -1.6440   -1.8530   -1.8290 C   0  0  1  0  0  0  0  0  0  0  0  0
   -2.9450   -1.1440   -2.1940 C   0  0  0  0  0  0  0  0  0  0  0  0
   -0.5000   -0.9900   -1.4710 C   0  0  1  0  0  0  0  0  0  0  0  0
   -0.5980    0.1960   -2.2070 O   0  0  0  0  0  0  0  0  0  0  0  0
    0.0150    0.3430   -3.3790 C   0  0  0  0  0  0  0  0  0  0  0  0
   -0.0160   -0.7820   -0.1320 C   0  0  1  0  0  0  0  0  0  0  0  0
    0.5160   -2.0060    0.6370 C   0  0  0  0  0  0  0  0  0  0  0  0
    0.9800    0.3390    0.1410 C   0  0  0  0  0  0  0  0  0  0  0  0
    2.2490    0.2900   -0.5940 C   0  0  0  0  0  0  0  0  0  0  0  0
    3.1730    1.3560   -0.1060 C   0  0  0  0  0  0  0  0  0  0  0  0
    3.2330    2.5450   -0.7180 O   0  0  0  0  0  0  0  0  0  0  0  0
    4.0160    3.5130   -0.3470 C   0  0  0  0  0  0  0  0  0  0  0  0
    4.0290    4.7420   -1.0270 C   0  0  0  0  0  0  0  0  0  0  0  0
    3.2150    4.9800   -2.1230 O   0  0  0  0  0  0  0  0  0  0  0  0
    4.8650    5.7310   -0.6030 C   0  0  0  0  0  0  0  0  0  0  0  0
    4.8960    7.0060   -1.2670 O   0  0  0  0  0  0  0  0  0  0  0  0
    5.7920    7.9630   -0.7690 C   0  0  0  0  0  0  0  0  0  0  0  0
    5.7140    5.6230    0.4520 C   0  0  0  0  0  0  0  0  0  0  0  0
    5.7180    4.3830    1.1590 C   0  0  0  0  0  0  0  0  0  0  0  0
    6.4920    4.1980    2.1650 O   0  0  0  0  0  0  0  0  0  0  0  0
    7.3940    4.4070    3.0890 C   0  0  0  0  0  0  0  0  0  0  0  0
    4.8560    3.3800    0.7200 C   0  0  0  0  0  0  0  0  0  0  0  0
    4.8680    2.1770    1.4280 C   0  0  0  0  0  0  0  0  0  0  0  0
    5.6270    2.0500    2.4010 O   0  0  0  0  0  0  0  0  0  0  0  0
    4.0060    1.1910    0.9790 C   0  0  0  0  0  0  0  0  0  0  0  0
    4.0270   -0.0740    1.7580 C   0  0  0  0  0  0  0  0  0  0  0  0
  1  2  1  0
  2  3  2  3
  3  4  1  0
  3  5  1  0
  5  6  2  3
  6  7  1  0
  7  8  2  3
  8  9  1  0
  9 10  1  1
  9 12  1  0
 10 11  1  0
 12 13  1  1
 12 14  1  0
 14 15  1  1
 14 17  1  0
 15 16  1  0
 17 18  1  6
 17 19  1  0
 19 20  1  0
 20 21  1  0
 21 22  1  0
 21 36  2  0
 22 23  1  0
 23 24  2  0
 23 33  1  0
 24 25  1  0
 24 26  1  0
 26 27  1  0
 26 29  2  0
 27 28  1  0
 29 30  1  0
 30 31  1  0
 30 33  2  0
 31 32  1  0
 33 34  1  0
 34 35  2  0
 34 36  1  0
 36 37  1  0
M  END
