
     RDKit          3D

 12 11  0  0  0  0  0  0  0  0999 V2000
   -3.0830    1.5670   -1.5490 O   0  0  0  0  0  0  0  0  0  0  0  0
   -1.9350    1.1200   -0.8780 C   0  0  0  0  0  0  0  0  0  0  0  0
   -2.2780   -0.0310    0.0150 C   0  0  0  0  0  0  0  0  0  0  0  0
   -1.2550   -0.5610    0.7320 O   0  0  0  0  0  0  0  0  0  0  0  0
   -0.2240   -1.0850   -0.0150 C   0  0  2  0  0  0  0  0  0  0  0  0
   -0.0600   -2.5880    0.2750 C   0  0  0  0  0  0  0  0  0  0  0  0
   -1.2410   -3.2440   -0.0520 O   0  0  0  0  0  0  0  0  0  0  0  0
    0.9500   -0.4940    0.3840 O   0  0  0  0  0  0  0  0  0  0  0  0
    1.6690    0.1270   -0.6010 C   0  0  0  0  0  0  0  0  0  0  0  0
    2.8210    0.6540    0.0240 O   0  0  0  0  0  0  0  0  0  0  0  0
    2.4250    1.5560    1.0090 C   0  0  0  0  0  0  0  0  0  0  0  0
    3.5870    2.0500    1.5980 O   0  0  0  0  0  0  0  0  0  0  0  0
  1  2  1  0
  2  3  1  0
  3  4  1  0
  4  5  1  0
  5  6  1  1
  5  8  1  0
  6  7  1  0
  8  9  1  0
  9 10  1  0
 10 11  1  0
 11 12  1  0
M  END
