
     RDKit          3D

 12 11  0  0  0  0  0  0  0  0999 V2000
    5.0380   -0.8090   -0.8170 O   0  0  0  0  0  0  0  0  0  0  0  0
    4.0600   -0.2120   -0.0170 C   0  0  0  0  0  0  0  0  0  0  0  0
    2.8070   -0.6850   -0.3810 O   0  0  0  0  0  0  0  0  0  0  0  0
    1.8770   -0.0600    0.4440 C   0  0  0  0  0  0  0  0  0  0  0  0
    0.4550   -0.5310    0.1040 C   0  0  1  0  0  0  0  0  0  0  0  0
    0.4390   -1.9200    0.3080 O   0  0  0  0  0  0  0  0  0  0  0  0
   -0.3860    0.0190    1.0220 O   0  0  0  0  0  0  0  0  0  0  0  0
   -1.4700    0.7180    0.5970 C   0  0  0  0  0  0  0  0  0  0  0  0
   -2.4610   -0.1440   -0.1360 C   0  0  2  0  0  0  0  0  0  0  0  0
   -1.9250   -0.7130   -1.2570 O   0  0  0  0  0  0  0  0  0  0  0  0
   -3.6870    0.6910   -0.5450 C   0  0  0  0  0  0  0  0  0  0  0  0
   -4.2330    1.2700    0.5850 O   0  0  0  0  0  0  0  0  0  0  0  0
  1  2  1  0
  2  3  1  0
  3  4  1  0
  4  5  1  0
  5  6  1  1
  5  7  1  0
  7  8  1  0
  8  9  1  0
  9 10  1  6
  9 11  1  0
 11 12  1  0
M  END
