
     RDKit          3D

 12 11  0  0  0  0  0  0  0  0999 V2000
    4.5790   -0.2640    0.3330 O   0  0  0  0  0  0  0  0  0  0  0  0
    3.5330    0.5240   -0.1540 C   0  0  0  0  0  0  0  0  0  0  0  0
    2.2420   -0.2240    0.1930 C   0  0  2  0  0  0  0  0  0  0  0  0
    2.3000   -1.4760   -0.4420 O   0  0  0  0  0  0  0  0  0  0  0  0
    1.1250    0.6170   -0.3620 C   0  0  0  0  0  0  0  0  0  0  0  0
   -0.0860    0.0050   -0.2070 O   0  0  0  0  0  0  0  0  0  0  0  0
   -0.3740   -0.2230    1.1200 C   0  0  0  0  0  0  0  0  0  0  0  0
   -1.6370   -0.8500    1.2120 O   0  0  0  0  0  0  0  0  0  0  0  0
   -2.5680    0.0160    0.6420 C   0  0  2  0  0  0  0  0  0  0  0  0
   -3.5320    0.3510    1.6020 O   0  0  0  0  0  0  0  0  0  0  0  0
   -3.2630   -0.7310   -0.4790 C   0  0  0  0  0  0  0  0  0  0  0  0
   -4.1970    0.1450   -1.0480 O   0  0  0  0  0  0  0  0  0  0  0  0
  1  2  1  0
  2  3  1  0
  3  4  1  6
  3  5  1  0
  5  6  1  0
  6  7  1  0
  7  8  1  0
  8  9  1  0
  9 10  1  1
  9 11  1  0
 11 12  1  0
M  END
