
     RDKit          3D

 12 11  0  0  0  0  0  0  0  0999 V2000
    2.6810    0.3170    1.3940 O   0  0  0  0  0  0  0  0  0  0  0  0
    3.1900    0.5660    0.2770 C   0  0  0  0  0  0  0  0  0  0  0  0
    3.9910    1.7130    0.0970 O   0  0  0  0  0  0  0  0  0  0  0  0
    2.9600   -0.2850   -0.7610 O   0  0  0  0  0  0  0  0  0  0  0  0
    2.2100   -1.4400   -0.7980 C   0  0  0  0  0  0  0  0  0  0  0  0
    0.7490   -1.1410   -0.5420 C   0  0  0  0  0  0  0  0  0  0  0  0
    0.4520   -0.5730    0.6430 O   0  0  0  0  0  0  0  0  0  0  0  0
   -0.8520   -0.3450    0.8900 C   0  0  0  0  0  0  0  0  0  0  0  0
   -1.5960    0.5640   -0.0340 C   0  0  1  0  0  0  0  0  0  0  0  0
   -1.6720    0.1460   -1.3490 O   0  0  0  0  0  0  0  0  0  0  0  0
   -3.0370    0.7120    0.4400 C   0  0  0  0  0  0  0  0  0  0  0  0
   -3.6360    1.6560   -0.3780 O   0  0  0  0  0  0  0  0  0  0  0  0
  1  2  2  0
  2  3  1  0
  2  4  1  0
  4  5  1  0
  5  6  1  0
  6  7  1  0
  7  8  1  0
  8  9  1  0
  9 10  1  6
  9 11  1  0
 11 12  1  0
M  END
