
     RDKit          3D

 13 12  0  0  0  0  0  0  0  0999 V2000
    2.0140    0.5280    2.0780 O   0  0  0  0  0  0  0  0  0  0  0  0
    2.1950    0.2710    0.8400 C   0  0  0  0  0  0  0  0  0  0  0  0
    3.1420    1.0660    0.2040 O   0  0  0  0  0  0  0  0  0  0  0  0
    1.4460   -0.7970    0.1450 C   0  0  0  0  0  0  0  0  0  0  0  0
    0.0810   -0.2730   -0.2310 C   0  0  2  0  0  0  0  0  0  0  0  0
    0.2930    0.8250   -1.0720 O   0  0  0  0  0  0  0  0  0  0  0  0
   -0.7140    0.1410    0.9910 C   0  0  0  0  0  0  0  0  0  0  0  0
   -2.0510    0.6510    0.5930 C   0  0  0  0  0  0  0  0  0  0  0  0
   -2.8150    1.0320    1.5080 O   0  0  0  0  0  0  0  0  0  0  0  0
   -2.4870    0.7270   -0.7160 O   0  0  0  0  0  0  0  0  0  0  0  0
   -0.7070   -1.3090   -0.9590 C   0  0  0  0  0  0  0  0  0  0  0  0
   -1.0160   -2.3860   -0.3800 O   0  0  0  0  0  0  0  0  0  0  0  0
   -1.1210   -1.1480   -2.2540 O   0  0  0  0  0  0  0  0  0  0  0  0
  1  2  2  0
  2  3  1  0
  2  4  1  0
  4  5  1  0
  5  6  1  6
  5  7  1  0
  5 11  1  0
  7  8  1  0
  8  9  2  0
  8 10  1  0
 11 12  2  0
 11 13  1  0
M  END
