
     RDKit          3D

 12 11  0  0  0  0  0  0  0  0999 V2000
   -5.2530   -0.3080   -0.1510 O   0  0  0  0  0  0  0  0  0  0  0  0
   -3.8960   -0.6800   -0.2210 C   0  0  0  0  0  0  0  0  0  0  0  0
   -3.2040    0.2420    0.5590 O   0  0  0  0  0  0  0  0  0  0  0  0
   -1.8310   -0.0220    0.5700 C   0  0  0  0  0  0  0  0  0  0  0  0
   -1.2910    0.0270   -0.6910 O   0  0  0  0  0  0  0  0  0  0  0  0
    0.0630   -0.2340   -0.7120 C   0  0  0  0  0  0  0  0  0  0  0  0
    0.8700    0.7420    0.1040 C   0  0  2  0  0  0  0  0  0  0  0  0
    0.6410    2.0230   -0.4260 O   0  0  0  0  0  0  0  0  0  0  0  0
    2.3600    0.5000   -0.0870 C   0  0  1  0  0  0  0  0  0  0  0  0
    3.0270    1.4890    0.6060 O   0  0  0  0  0  0  0  0  0  0  0  0
    2.7250   -0.8730    0.3980 C   0  0  0  0  0  0  0  0  0  0  0  0
    4.0990   -1.0380    0.2180 O   0  0  0  0  0  0  0  0  0  0  0  0
  1  2  1  0
  2  3  1  0
  3  4  1  0
  4  5  1  0
  5  6  1  0
  6  7  1  0
  7  8  1  6
  7  9  1  0
  9 10  1  1
  9 11  1  0
 11 12  1  0
M  END
