
     RDKit          3D

 12 11  0  0  0  0  0  0  0  0999 V2000
    4.3770    0.6400   -0.8870 O   0  0  0  0  0  0  0  0  0  0  0  0
    4.0980   -0.6260   -0.3910 C   0  0  0  0  0  0  0  0  0  0  0  0
    2.7340   -0.6150    0.2400 C   0  0  0  0  0  0  0  0  0  0  0  0
    1.7360   -0.2690   -0.6730 O   0  0  0  0  0  0  0  0  0  0  0  0
    0.5320   -0.2900    0.0120 C   0  0  0  0  0  0  0  0  0  0  0  0
   -0.5520    0.0400   -0.7970 O   0  0  0  0  0  0  0  0  0  0  0  0
   -1.6880   -0.0190    0.0090 C   0  0  2  0  0  0  0  0  0  0  0  0
   -2.6070   -1.0830   -0.5700 C   0  0  0  0  0  0  0  0  0  0  0  0
   -3.7510   -1.1650    0.2150 O   0  0  0  0  0  0  0  0  0  0  0  0
   -2.3510    1.3310    0.0310 C   0  0  2  0  0  0  0  0  0  0  0  0
   -1.4590    2.2580    0.5420 O   0  0  0  0  0  0  0  0  0  0  0  0
   -3.4630    1.3220    0.8690 O   0  0  0  0  0  0  0  0  0  0  0  0
  1  2  1  0
  2  3  1  0
  3  4  1  0
  4  5  1  0
  5  6  1  0
  6  7  1  0
  7  8  1  6
  7 10  1  0
  8  9  1  0
 10 11  1  1
 10 12  1  0
M  END
