
     RDKit          3D

 12 11  0  0  0  0  0  0  0  0999 V2000
   -5.1370   -0.9760    1.1630 O   0  0  0  0  0  0  0  0  0  0  0  0
   -4.4270   -0.2820    0.2100 C   0  0  0  0  0  0  0  0  0  0  0  0
   -3.1030   -0.2140    0.6230 O   0  0  0  0  0  0  0  0  0  0  0  0
   -2.3190    0.4890   -0.3150 C   0  0  0  0  0  0  0  0  0  0  0  0
   -0.8990    0.5290    0.1860 C   0  0  0  0  0  0  0  0  0  0  0  0
   -0.3920   -0.7600    0.3390 O   0  0  0  0  0  0  0  0  0  0  0  0
    0.9320   -0.5930    0.8100 C   0  0  0  0  0  0  0  0  0  0  0  0
    1.6060    0.1240   -0.1380 O   0  0  0  0  0  0  0  0  0  0  0  0
    2.9150    0.3930    0.1300 C   0  0  2  0  0  0  0  0  0  0  0  0
    3.0600    1.7870    0.2150 O   0  0  0  0  0  0  0  0  0  0  0  0
    3.8720   -0.0920   -0.9340 C   0  0  0  0  0  0  0  0  0  0  0  0
    3.7250   -1.4850   -1.0410 O   0  0  0  0  0  0  0  0  0  0  0  0
  1  2  1  0
  2  3  1  0
  3  4  1  0
  4  5  1  0
  5  6  1  0
  6  7  1  0
  7  8  1  0
  8  9  1  0
  9 10  1  6
  9 11  1  0
 11 12  1  0
M  END
