
     RDKit          3D

 19 21  0  0  0  0  0  0  0  0999 V2000
    3.8920    1.1700   -1.8490 N   0  0  0  0  0  0  0  0  0  0  0  0
    2.7250    0.4010   -1.4520 C   0  0  1  0  0  0  0  0  0  0  0  0
    3.1150   -0.7600   -0.5620 C   0  0  0  0  0  0  0  0  0  0  0  0
    1.7640   -1.1010    0.0720 C   0  0  0  0  0  0  0  0  0  0  0  0
    1.2740    0.2460    0.3710 N   0  0  0  0  0  0  0  0  0  0  0  0
    0.3970    0.4950    1.4590 C   0  0  0  0  0  0  0  0  0  0  0  0
    0.7530    1.3140    2.3890 N   0  0  0  0  0  0  0  0  0  0  0  0
    0.0680    1.7220    3.5560 N   0  0  0  0  0  0  0  0  0  0  0  0
   -1.1210    1.1720    4.1060 C   0  0  0  0  0  0  0  0  0  0  0  0
   -1.9540    0.2900    3.5620 C   0  0  0  0  0  0  0  0  0  0  0  0
   -1.8610   -0.3430    2.2570 C   0  0  0  0  0  0  0  0  0  0  0  0
   -0.8590   -0.2380    1.3940 C   0  0  0  0  0  0  0  0  0  0  0  0
   -1.0450   -0.9480    0.2370 O   0  0  0  0  0  0  0  0  0  0  0  0
   -1.6710   -0.3220   -0.8520 C   0  0  1  0  0  0  0  0  0  0  0  0
   -1.8040   -1.2320   -2.0510 C   0  0  0  0  0  0  0  0  0  0  0  0
   -3.1260   -0.8020   -2.6390 C   0  0  0  0  0  0  0  0  0  0  0  0
   -3.5860    0.2610   -1.8880 O   0  0  0  0  0  0  0  0  0  0  0  0
   -3.1210    0.0280   -0.5720 C   0  0  0  0  0  0  0  0  0  0  0  0
    1.8030    1.1910   -0.5650 C   0  0  0  0  0  0  0  0  0  0  0  0
  2  1  1  1
  2  3  1  0
  2 19  1  0
  3  4  1  0
  4  5  1  0
  5  6  1  0
  5 19  1  0
  6  7  2  0
  6 12  1  0
  7  8  1  0
  8  9  1  0
  9 10  2  0
 10 11  1  0
 11 12  2  0
 12 13  1  0
 14 13  1  1
 14 15  1  0
 14 18  1  0
 15 16  1  0
 16 17  1  0
 17 18  1  0
M  CHG  1   1   1
M  END
