
     RDKit          3D

 31 33  0  0  0  0  0  0  0  0999 V2000
   -7.4870    2.9200    0.4700 C   0  0  0  0  0  0  0  0  0  0  0  0
   -6.3420    2.7240   -0.2880 O   0  0  0  0  0  0  0  0  0  0  0  0
   -5.5400    1.7250    0.2000 C   0  0  0  0  0  0  0  0  0  0  0  0
   -4.3200    1.6070   -0.7150 C   0  0  0  0  0  0  0  0  0  0  0  0
   -4.2840    2.3780   -1.6590 O   0  0  0  0  0  0  0  0  0  0  0  0
   -3.3390    0.6360   -0.4140 N   0  0  0  0  0  0  0  0  0  0  0  0
   -2.1520    0.3900   -1.1480 C   0  0  0  0  0  0  0  0  0  0  0  0
   -1.3360   -0.5780   -0.7060 C   0  0  0  0  0  0  0  0  0  0  0  0
   -1.6180   -1.3740    0.4780 C   0  0  0  0  0  0  0  0  0  0  0  0
   -0.7050   -2.2710    0.7530 O   0  0  0  0  0  0  0  0  0  0  0  0
   -2.6500   -1.3510    1.3410 O   0  0  0  0  0  0  0  0  0  0  0  0
   -2.7840   -2.1960    2.4550 C   0  0  0  0  0  0  0  0  0  0  0  0
   -0.0690   -0.9040   -1.3890 C   0  0  1  0  0  0  0  0  0  0  0  0
    1.0460   -0.8870   -0.4290 N   0  0  0  0  0  0  0  0  0  0  0  0
    1.9570   -1.8800   -0.8760 C   0  0  0  0  0  0  0  0  0  0  0  0
    3.4200   -1.9590   -0.5290 C   0  0  1  0  0  0  0  0  0  0  0  0
    4.1480   -0.7360   -0.9760 C   0  0  0  0  0  0  0  0  0  0  0  0
    4.6640    0.1000    0.1720 C   0  0  2  0  0  0  0  0  0  0  0  0
    5.6490    1.4790   -0.4600 S   0  0  0  0  0  0  0  0  0  0  0  0
    6.2420    2.4540    0.9400 C   0  0  0  0  0  0  0  0  0  0  0  0
    5.4410   -0.7380    1.0910 N   0  0  0  0  0  0  0  0  0  0  0  0
    4.7750   -1.9200    1.5240 C   0  0  0  0  0  0  0  0  0  0  0  0
    5.2750   -2.5900    2.4630 O   0  0  0  0  0  0  0  0  0  0  0  0
    3.5730   -2.2840    0.8690 N   0  0  0  0  0  0  0  0  0  0  0  0
    1.2980   -2.6820   -1.6200 N   0  0  0  0  0  0  0  0  0  0  0  0
   -0.0350   -2.3070   -1.7230 O   0  0  0  0  0  0  0  0  0  0  0  0
    0.2280   -0.1740   -2.5890 C   0  0  0  0  0  0  0  0  0  0  0  0
    1.2750   -0.4170   -3.2840 O   0  0  0  0  0  0  0  0  0  0  0  0
   -0.6110    0.8330   -3.0540 N   0  0  0  0  0  0  0  0  0  0  0  0
   -1.8030    1.1320   -2.3510 C   0  0  0  0  0  0  0  0  0  0  0  0
   -2.5210    2.0480   -2.8150 O   0  0  0  0  0  0  0  0  0  0  0  0
  1  2  1  0
  2  3  1  0
  3  4  1  0
  4  5  2  0
  4  6  1  0
  6  7  1  0
  7  8  2  0
  7 30  1  0
  8  9  1  0
  8 13  1  0
  9 10  2  0
  9 11  1  0
 11 12  1  0
 13 14  1  1
 13 26  1  0
 13 27  1  0
 14 15  1  0
 16 15  1  1
 15 25  2  0
 16 17  1  0
 16 24  1  0
 17 18  1  0
 18 19  1  6
 18 21  1  0
 19 20  1  0
 21 22  1  0
 22 23  2  0
 22 24  1  0
 25 26  1  0
 27 28  2  0
 27 29  1  0
 29 30  1  0
 30 31  2  0
M  END
