
     RDKit          3D

 31 33  0  0  0  0  0  0  0  0999 V2000
   -5.0740    1.6480    1.9210 C   0  0  0  0  0  0  0  0  0  0  0  0
   -4.9870    0.1520    1.7390 C   0  0  2  0  0  0  0  0  0  0  0  0
   -5.5450   -0.5870    2.9410 C   0  0  0  0  0  0  0  0  0  0  0  0
   -3.5540   -0.1420    1.6050 N   0  0  0  0  0  0  0  0  0  0  0  0
   -2.8280    0.4870    0.5610 C   0  0  0  0  0  0  0  0  0  0  0  0
   -3.4480    1.2730   -0.2020 O   0  0  0  0  0  0  0  0  0  0  0  0
   -1.4400    0.2620    0.3470 N   0  0  0  0  0  0  0  0  0  0  0  0
   -0.8400    0.9320   -0.7100 N   0  0  0  0  0  0  0  0  0  0  0  0
    0.4950    1.3940   -0.6250 C   0  0  0  0  0  0  0  0  0  0  0  0
    1.1450    1.1990    0.4170 O   0  0  0  0  0  0  0  0  0  0  0  0
    1.0500    2.0980   -1.8100 C   0  0  0  0  0  0  0  0  0  0  0  0
    1.7830    0.8930   -2.9660 S   0  0  0  0  0  0  0  0  0  0  0  0
    3.2310    0.1330   -2.2390 C   0  0  0  0  0  0  0  0  0  0  0  0
    3.6970    0.4650   -1.0840 N   0  0  0  0  0  0  0  0  0  0  0  0
    4.8330   -0.1140   -0.4880 N   0  0  0  0  0  0  0  0  0  0  0  0
    5.3810   -0.1420    0.8190 C   0  0  0  0  0  0  0  0  0  0  0  0
    4.9610    0.4660    1.8110 O   0  0  0  0  0  0  0  0  0  0  0  0
    6.5600   -1.0500    0.7550 C   0  0  2  0  0  0  0  0  0  0  0  0
    7.8590   -0.2930    0.6930 C   0  0  0  0  0  0  0  0  0  0  0  0
    8.8830   -1.2160    0.5540 O   0  0  0  0  0  0  0  0  0  0  0  0
    6.3520   -1.8120   -0.4070 O   0  0  0  0  0  0  0  0  0  0  0  0
    5.7670   -0.9110   -1.3000 C   0  0  1  0  0  0  0  0  0  0  0  0
    5.0810   -1.5240   -2.4300 C   0  0  0  0  0  0  0  0  0  0  0  0
    5.4900   -2.5830   -2.9320 O   0  0  0  0  0  0  0  0  0  0  0  0
    3.9270   -0.8920   -2.9560 N   0  0  0  0  0  0  0  0  0  0  0  0
   -5.6440   -0.2770    0.4880 C   0  0  0  0  0  0  0  0  0  0  0  0
   -5.0910   -0.9660   -0.4930 C   0  0  0  0  0  0  0  0  0  0  0  0
   -6.0700   -1.1920   -1.5610 C   0  0  0  0  0  0  0  0  0  0  0  0
   -7.2500   -0.6070   -1.0860 O   0  0  0  0  0  0  0  0  0  0  0  0
   -7.0510   -0.0240    0.1380 C   0  0  0  0  0  0  0  0  0  0  0  0
   -7.8370    0.6130    0.8820 O   0  0  0  0  0  0  0  0  0  0  0  0
  2  1  1  1
  2  3  1  0
  2  4  1  0
  2 26  1  0
  4  5  1  0
  5  6  2  0
  5  7  1  0
  7  8  1  0
  8  9  1  0
  9 10  2  0
  9 11  1  0
 11 12  1  0
 12 13  1  0
 13 14  2  0
 13 25  1  0
 14 15  1  0
 15 16  1  0
 15 22  1  0
 16 17  2  0
 16 18  1  0
 18 19  1  6
 18 21  1  0
 19 20  1  0
 22 21  1  1
 22 23  1  0
 23 24  2  0
 23 25  1  0
 26 27  2  0
 26 30  1  0
 27 28  1  0
 28 29  1  0
 29 30  1  0
 30 31  2  0
M  END
