
     RDKit          3D

 30 31  0  0  0  0  0  0  0  0999 V2000
    6.5980    2.3860   -0.4360 C   0  0  0  0  0  0  0  0  0  0  0  0
    6.1310    1.4290    0.6410 C   0  0  1  0  0  0  0  0  0  0  0  0
    5.2280    0.5330    0.0680 O   0  0  0  0  0  0  0  0  0  0  0  0
    3.8910    0.5260    0.5020 C   0  0  0  0  0  0  0  0  0  0  0  0
    3.5000    1.2810    1.3520 O   0  0  0  0  0  0  0  0  0  0  0  0
    2.9820   -0.3480   -0.0310 N   0  0  0  0  0  0  0  0  0  0  0  0
    1.6560   -0.6700    0.0640 C   0  0  0  0  0  0  0  0  0  0  0  0
    1.4540   -1.6140   -0.7630 O   0  0  0  0  0  0  0  0  0  0  0  0
    0.5050   -0.3100    0.7440 N   0  0  0  0  0  0  0  0  0  0  0  0
   -0.7260   -0.9600    0.4860 N   0  0  0  0  0  0  0  0  0  0  0  0
   -1.3590   -0.8420   -0.7870 C   0  0  0  0  0  0  0  0  0  0  0  0
   -0.7160   -0.1180   -1.6310 O   0  0  0  0  0  0  0  0  0  0  0  0
   -2.5900   -1.5010   -1.0430 C   0  0  2  0  0  0  0  0  0  0  0  0
   -2.9800   -1.5560   -2.4450 O   0  0  0  0  0  0  0  0  0  0  0  0
   -4.0040   -2.5140   -2.6510 C   0  0  0  0  0  0  0  0  0  0  0  0
   -4.3900   -2.9290   -3.7410 O   0  0  0  0  0  0  0  0  0  0  0  0
   -4.6410   -3.0420   -1.3990 C   0  0  2  0  0  0  0  0  0  0  0  0
   -6.3360   -3.5900   -1.7220 S   0  0  0  0  0  0  0  0  0  0  0  0
   -7.0990   -2.5540   -0.4920 C   0  0  0  0  0  0  0  0  0  0  0  0
   -6.1900   -1.7680   -0.0110 C   0  0  0  0  0  0  0  0  0  0  0  0
   -4.8850   -1.8800   -0.5130 C   0  0  0  0  0  0  0  0  0  0  0  0
   -3.8080   -1.0440   -0.3730 C   0  0  0  0  0  0  0  0  0  0  0  0
   -3.9460    0.1760    0.3550 C   0  0  0  0  0  0  0  0  0  0  0  0
   -3.0960    1.1310    0.6020 C   0  0  0  0  0  0  0  0  0  0  0  0
   -3.5520    2.2980    1.4100 C   0  0  0  0  0  0  0  0  0  0  0  0
   -2.6710    3.3630    1.7100 N   0  0  0  0  0  0  0  0  0  0  0  0
   -4.7290    2.2960    1.8060 O   0  0  0  0  0  0  0  0  0  0  0  0
    7.2250    0.7410    1.3410 C   0  0  0  0  0  0  0  0  0  0  0  0
    8.2720    1.3970    2.0280 N   0  0  0  0  0  0  0  0  0  0  0  0
    7.2480   -0.5360    1.3400 O   0  0  0  0  0  0  0  0  0  0  0  0
  2  1  1  6
  2  3  1  0
  2 28  1  0
  3  4  1  0
  4  5  2  0
  4  6  1  0
  6  7  1  0
  7  8  2  0
  7  9  1  0
  9 10  1  0
 10 11  1  0
 11 12  2  0
 13 11  1  6
 13 14  1  0
 13 22  1  0
 14 15  1  0
 15 16  2  0
 15 17  1  0
 17 18  1  6
 17 21  1  0
 18 19  1  0
 19 20  2  0
 20 21  1  0
 21 22  2  0
 22 23  1  0
 23 24  2  3
 24 25  1  0
 25 26  1  0
 25 27  2  0
 28 29  1  0
 28 30  2  0
M  END
