
     RDKit          3D

 30 32  0  0  0  0  0  0  0  0999 V2000
   -1.2900    2.8100   -1.0870 C   0  0  0  0  0  0  0  0  0  0  0  0
   -0.3390    1.9930   -0.2510 C   0  0  0  0  0  0  0  0  0  0  0  0
    0.9820    1.7990   -0.5120 N   0  0  0  0  0  0  0  0  0  0  0  0
    1.5520    1.0230    0.4190 C   0  0  0  0  0  0  0  0  0  0  0  0
    2.9410    0.5640    0.5300 C   0  0  0  0  0  0  0  0  0  0  0  0
    3.2970   -0.2100    1.4520 O   0  0  0  0  0  0  0  0  0  0  0  0
    3.9350    0.9760   -0.3990 N   0  0  0  0  0  0  0  0  0  0  0  0
    5.3200    0.5560   -0.3490 C   0  0  0  0  0  0  0  0  0  0  0  0
    5.5210   -0.8850   -0.5050 C   0  0  0  0  0  0  0  0  0  0  0  0
    5.6210   -1.5090   -1.6890 N   0  0  0  0  0  0  0  0  0  0  0  0
    5.8000   -2.8220   -1.4910 C   0  0  0  0  0  0  0  0  0  0  0  0
    5.8170   -3.0510   -0.1220 C   0  0  0  0  0  0  0  0  0  0  0  0
    5.6410   -1.8230    0.4360 N   0  0  0  0  0  0  0  0  0  0  0  0
    0.5420    0.7180    1.3030 C   0  0  0  0  0  0  0  0  0  0  0  0
   -0.6360    1.3120    0.9010 C   0  0  0  0  0  0  0  0  0  0  0  0
   -1.9470    1.2490    1.5250 C   0  0  0  0  0  0  0  0  0  0  0  0
   -2.2440    2.1440    2.3530 O   0  0  0  0  0  0  0  0  0  0  0  0
   -2.8800    0.2170    1.2240 N   0  0  0  0  0  0  0  0  0  0  0  0
   -4.1530    0.1990    1.8770 C   0  0  0  0  0  0  0  0  0  0  0  0
   -5.2440    0.9460    1.1790 C   0  0  0  0  0  0  0  0  0  0  0  0
   -4.9890    2.3790    0.9840 C   0  0  0  0  0  0  0  0  0  0  0  0
   -4.3000    2.8660    0.1170 O   0  0  0  0  0  0  0  0  0  0  0  0
   -2.5350   -0.7780    0.2930 C   0  0  0  0  0  0  0  0  0  0  0  0
   -1.7220   -1.8390    0.6180 C   0  0  0  0  0  0  0  0  0  0  0  0
   -1.3790   -2.8140   -0.3110 C   0  0  0  0  0  0  0  0  0  0  0  0
   -0.5810   -3.8230    0.0710 F   0  0  0  0  0  0  0  0  0  0  0  0
   -1.8570   -2.7320   -1.5990 C   0  0  0  0  0  0  0  0  0  0  0  0
   -2.6710   -1.6800   -1.9450 C   0  0  0  0  0  0  0  0  0  0  0  0
   -3.2750   -1.5920   -3.6030 Cl  0  0  0  0  0  0  0  0  0  0  0  0
   -3.0010   -0.7150   -0.9970 C   0  0  0  0  0  0  0  0  0  0  0  0
  1  2  1  0
  2  3  1  0
  2 15  2  0
  3  4  1  0
  4  5  1  0
  4 14  2  0
  5  6  2  0
  5  7  1  0
  7  8  1  0
  8  9  1  0
  9 10  2  0
  9 13  1  0
 10 11  1  0
 11 12  2  0
 12 13  1  0
 14 15  1  0
 15 16  1  0
 16 17  2  0
 16 18  1  0
 18 19  1  0
 18 23  1  0
 19 20  1  0
 20 21  1  0
 21 22  2  0
 23 24  2  0
 23 30  1  0
 24 25  1  0
 25 26  1  0
 25 27  2  0
 27 28  1  0
 28 29  1  0
 28 30  2  0
M  END
