
     RDKit          3D

 31 33  0  0  0  0  0  0  0  0999 V2000
    1.5820    7.0170    0.0510 N   0  0  0  0  0  0  0  0  0  0  0  0
    2.1190    5.7040    0.0430 C   0  0  0  0  0  0  0  0  0  0  0  0
    3.2410    5.4130   -0.6460 N   0  0  0  0  0  0  0  0  0  0  0  0
    3.7760    4.1870   -0.6760 C   0  0  0  0  0  0  0  0  0  0  0  0
    4.9690    3.9350   -1.4240 N   0  0  0  0  0  0  0  0  0  0  0  0
    3.1380    3.2230    0.0230 N   0  0  0  0  0  0  0  0  0  0  0  0
    2.0160    3.4460    0.7300 C   0  0  0  0  0  0  0  0  0  0  0  0
    1.2410    2.1090    1.6260 S   0  0  0  0  0  0  0  0  0  0  0  0
    0.0540    1.2660    0.5840 C   0  0  1  0  0  0  0  0  0  0  0  0
    0.7070    0.5420   -0.5740 C   0  0  0  0  0  0  0  0  0  0  0  0
    1.6220   -0.4380   -0.1220 O   0  0  0  0  0  0  0  0  0  0  0  0
    2.3550   -1.2450   -0.9510 C   0  0  0  0  0  0  0  0  0  0  0  0
    2.1990   -1.0980   -2.1880 O   0  0  0  0  0  0  0  0  0  0  0  0
    3.2950   -2.2520   -0.4890 C   0  0  0  0  0  0  0  0  0  0  0  0
    4.0460   -3.0800   -1.2900 C   0  0  0  0  0  0  0  0  0  0  0  0
    4.8070   -3.8870   -0.4720 C   0  0  0  0  0  0  0  0  0  0  0  0
    4.4780   -3.5070    0.8220 C   0  0  0  0  0  0  0  0  0  0  0  0
    3.5800   -2.5370    0.7740 O   0  0  0  0  0  0  0  0  0  0  0  0
   -0.7110    0.2650    1.3580 C   0  0  0  0  0  0  0  0  0  0  0  0
   -0.4880    0.1340    2.5770 O   0  0  0  0  0  0  0  0  0  0  0  0
   -1.6880   -0.5410    0.7330 N   0  0  0  0  0  0  0  0  0  0  0  0
   -2.4450   -1.5210    1.4650 C   0  0  0  0  0  0  0  0  0  0  0  0
   -2.2520   -1.6830    2.6970 O   0  0  0  0  0  0  0  0  0  0  0  0
   -3.4630   -2.3600    0.7940 C   0  0  2  0  0  0  0  0  0  0  0  0
   -3.5210   -2.0360   -0.5600 O   0  0  0  0  0  0  0  0  0  0  0  0
   -4.6710   -2.6620   -1.0910 C   0  0  0  0  0  0  0  0  0  0  0  0
   -5.8430   -1.8360   -0.6120 C   0  0  0  0  0  0  0  0  0  0  0  0
   -5.5740   -1.2710    0.6340 O   0  0  0  0  0  0  0  0  0  0  0  0
   -4.8490   -2.1700    1.4130 C   0  0  1  0  0  0  0  0  0  0  0  0
   -5.4760   -3.4180    1.5030 O   0  0  0  0  0  0  0  0  0  0  0  0
    1.5120    4.6990    0.7330 N   0  0  0  0  0  0  0  0  0  0  0  0
  1  2  1  0
  2  3  2  0
  2 31  1  0
  3  4  1  0
  4  5  1  0
  4  6  2  0
  6  7  1  0
  7  8  1  0
  7 31  2  0
  8  9  1  0
  9 10  1  6
  9 19  1  0
 10 11  1  0
 11 12  1  0
 12 13  2  0
 12 14  1  0
 14 15  2  0
 14 18  1  0
 15 16  1  0
 16 17  2  0
 17 18  1  0
 19 20  2  0
 19 21  1  0
 21 22  1  0
 22 23  2  0
 24 22  1  1
 24 25  1  0
 24 29  1  0
 25 26  1  0
 26 27  1  0
 27 28  1  0
 28 29  1  0
 29 30  1  6
M  END
