
     RDKit          3D

 31 32  0  0  0  0  0  0  0  0999 V2000
    6.6190    0.2870   -1.7680 C   0  0  0  0  0  0  0  0  0  0  0  0
    5.9050    0.8320   -0.5520 C   0  0  1  0  0  0  0  0  0  0  0  0
    6.0190    2.2590   -0.4660 N   0  0  0  0  0  0  0  0  0  0  0  0
    5.3330    2.6860    0.6830 N   0  0  0  0  0  0  0  0  0  0  0  0
    4.5970    0.4340   -0.4690 O   0  0  0  0  0  0  0  0  0  0  0  0
    4.3350   -0.3680    0.6390 C   0  0  0  0  0  0  0  0  0  0  0  0
    2.9170   -0.7810    0.7010 C   0  0  0  0  0  0  0  0  0  0  0  0
    2.5120   -1.5100    1.6420 O   0  0  0  0  0  0  0  0  0  0  0  0
    1.9480   -0.3940   -0.2650 N   0  0  0  0  0  0  0  0  0  0  0  0
    0.5730   -0.8210   -0.1660 C   0  0  0  0  0  0  0  0  0  0  0  0
   -0.1290   -1.5160   -0.9910 C   0  0  0  0  0  0  0  0  0  0  0  0
   -1.5030   -1.7890   -0.6120 C   0  0  0  0  0  0  0  0  0  0  0  0
   -1.8620   -1.2910    0.5340 C   0  0  0  0  0  0  0  0  0  0  0  0
   -3.1920   -1.4040    1.1840 C   0  0  0  0  0  0  0  0  0  0  0  0
   -3.7410   -0.0130    1.3560 C   0  0  1  0  0  0  0  0  0  0  0  0
   -4.7100   -0.1060    2.5490 C   0  0  0  0  0  0  0  0  0  0  0  0
   -2.6740    0.8920    1.6780 N   0  0  0  0  0  0  0  0  0  0  0  0
   -2.2280    1.9300    0.8240 C   0  0  0  0  0  0  0  0  0  0  0  0
   -1.3950    2.7760    1.2400 O   0  0  0  0  0  0  0  0  0  0  0  0
   -2.6990    2.0830   -0.5780 C   0  0  0  0  0  0  0  0  0  0  0  0
   -1.9800    1.2710   -1.4500 O   0  0  0  0  0  0  0  0  0  0  0  0
   -2.4250    0.6530   -2.5920 C   0  0  0  0  0  0  0  0  0  0  0  0
   -1.5630    0.5980   -3.5430 O   0  0  0  0  0  0  0  0  0  0  0  0
   -3.6990    0.0830   -2.8360 N   0  0  0  0  0  0  0  0  0  0  0  0
   -4.3240   -0.9450   -2.0970 C   0  0  0  0  0  0  0  0  0  0  0  0
   -5.5370   -0.7110   -1.7440 O   0  0  0  0  0  0  0  0  0  0  0  0
   -3.7740   -2.2260   -1.6880 C   0  0  0  0  0  0  0  0  0  0  0  0
   -4.6130   -3.2150   -1.5760 O   0  0  0  0  0  0  0  0  0  0  0  0
   -2.4540   -2.5440   -1.3970 N   0  0  0  0  0  0  0  0  0  0  0  0
   -0.4610   -0.4380    1.2020 S   0  0  0  0  0  0  0  0  0  0  0  0
    0.0380   -1.0890    2.4810 O   0  0  0  0  0  0  0  0  0  0  0  0
  2  1  1  6
  2  3  1  0
  2  5  1  0
  3  4  1  0
  5  6  1  0
  6  7  1  0
  7  8  2  0
  7  9  1  0
  9 10  1  0
 10 11  2  0
 30 10  1  6
 11 12  1  0
 12 13  2  0
 12 29  1  0
 13 14  1  0
 13 30  1  0
 14 15  1  0
 15 16  1  1
 15 17  1  0
 17 18  1  0
 18 19  2  0
 18 20  1  0
 20 21  1  0
 21 22  1  0
 22 23  2  0
 22 24  1  0
 24 25  1  0
 25 26  2  0
 25 27  1  0
 27 28  2  0
 27 29  1  0
 30 31  2  0
M  END
