
     RDKit          3D

 31 32  0  0  0  0  0  0  0  0999 V2000
   -3.3290    2.9570   -0.6150 C   0  0  0  0  0  0  0  0  0  0  0  0
   -4.4420    2.1440   -1.0140 N   0  0  0  0  0  0  0  0  0  0  0  0
   -4.5400    0.9180   -0.2620 C   0  0  1  0  0  0  0  0  0  0  0  0
   -3.3080    0.0800   -0.5300 C   0  0  0  0  0  0  0  0  0  0  0  0
   -2.6640   -0.1850    0.7920 C   0  0  2  0  0  0  0  0  0  0  0  0
   -1.4240   -1.0490    0.6650 C   0  0  0  0  0  0  0  0  0  0  0  0
   -1.4500   -2.0930    1.2670 O   0  0  0  0  0  0  0  0  0  0  0  0
   -0.3370   -0.6690   -0.0890 N   0  0  0  0  0  0  0  0  0  0  0  0
    0.9080   -1.0840   -0.4700 C   0  0  0  0  0  0  0  0  0  0  0  0
    1.7370   -2.0380   -0.3410 C   0  0  0  0  0  0  0  0  0  0  0  0
    1.6100   -3.2950    0.4320 C   0  0  0  0  0  0  0  0  0  0  0  0
    0.5740   -3.7510    1.2040 N   0  0  0  0  0  0  0  0  0  0  0  0
    2.6620   -4.0910    0.3620 O   0  0  0  0  0  0  0  0  0  0  0  0
    2.9820   -1.8980   -1.0330 N   0  0  0  0  0  0  0  0  0  0  0  0
    3.2330   -0.9050   -1.7150 C   0  0  0  0  0  0  0  0  0  0  0  0
    4.4980   -0.6430   -2.4850 C   0  0  0  0  0  0  0  0  0  0  0  0
    5.0980    0.5880   -2.0650 N   0  0  0  0  0  0  0  0  0  0  0  0
    5.4940    0.7680   -0.7260 C   0  0  0  0  0  0  0  0  0  0  0  0
    5.3280   -0.1560    0.1430 O   0  0  0  0  0  0  0  0  0  0  0  0
    6.1020    2.0290   -0.3200 C   0  0  0  0  0  0  0  0  0  0  0  0
    6.2640    2.9310   -1.1760 O   0  0  0  0  0  0  0  0  0  0  0  0
    6.5060    2.2250    1.0440 N   0  0  0  0  0  0  0  0  0  0  0  0
    7.0930    3.4740    1.3840 C   0  0  0  0  0  0  0  0  0  0  0  0
    7.2370    4.3580    0.4760 O   0  0  0  0  0  0  0  0  0  0  0  0
    1.8130    0.0920   -1.5890 S   0  0  0  0  0  0  0  0  0  0  0  0
    2.1090    1.3070   -0.7170 O   0  0  0  0  0  0  0  0  0  0  0  0
   -3.6440   -0.8350    1.7200 C   0  0  2  0  0  0  0  0  0  0  0  0
   -4.2920   -2.0650    1.1250 C   0  0  0  0  0  0  0  0  0  0  0  0
   -5.1950   -2.6120    2.0560 O   0  0  0  0  0  0  0  0  0  0  0  0
   -4.7550    0.2010    1.9360 C   0  0  0  0  0  0  0  0  0  0  0  0
   -4.6370    1.2740    1.0870 O   0  0  0  0  0  0  0  0  0  0  0  0
  1  2  1  0
  3  2  1  6
  3  4  1  0
  3 31  1  0
  4  5  1  0
  5  6  1  6
  5 27  1  0
  6  7  2  0
  6  8  1  0
  8  9  1  0
  9 10  2  0
 25  9  1  1
 10 11  1  0
 10 14  1  0
 11 12  1  0
 11 13  2  0
 14 15  2  0
 15 16  1  0
 15 25  1  0
 16 17  1  0
 17 18  1  0
 18 19  2  0
 18 20  1  0
 20 21  2  0
 20 22  1  0
 22 23  1  0
 23 24  2  0
 25 26  2  0
 27 28  1  6
 27 30  1  0
 28 29  1  0
 30 31  1  0
M  END
