
     RDKit          3D

 31 34  0  0  0  0  0  0  0  0999 V2000
   -6.4920   -2.6640   -0.5690 C   0  0  0  0  0  0  0  0  0  0  0  0
   -5.6010   -1.4890   -0.4310 C   0  0  0  0  0  0  0  0  0  0  0  0
   -4.3610   -1.5690    0.1340 C   0  0  0  0  0  0  0  0  0  0  0  0
   -3.8790   -2.8820    0.6320 C   0  0  0  0  0  0  0  0  0  0  0  0
   -3.5190   -0.4830    0.2680 C   0  0  0  0  0  0  0  0  0  0  0  0
   -3.9270    0.7530   -0.1810 C   0  0  0  0  0  0  0  0  0  0  0  0
   -5.1790    0.8520   -0.7550 C   0  0  0  0  0  0  0  0  0  0  0  0
   -5.6470    2.1760   -1.2430 C   0  0  0  0  0  0  0  0  0  0  0  0
   -6.0170   -0.2340   -0.8880 C   0  0  0  0  0  0  0  0  0  0  0  0
   -7.2770   -0.1710   -1.4580 O   0  0  0  0  0  0  0  0  0  0  0  0
   -3.0500    1.9340   -0.0540 C   0  0  0  0  0  0  0  0  0  0  0  0
   -1.6120    1.5150   -0.0280 C   0  0  0  0  0  0  0  0  0  0  0  0
   -1.3420    0.4300    0.9890 C   0  0  2  0  0  0  0  0  0  0  0  0
   -1.3730    1.0470    2.3690 C   0  0  0  0  0  0  0  0  0  0  0  0
    0.0440   -0.1360    0.7640 C   0  0  0  0  0  0  0  0  0  0  0  0
    1.0450    0.8310    0.8660 O   0  0  0  0  0  0  0  0  0  0  0  0
    2.3650    0.4560    0.6840 C   0  0  0  0  0  0  0  0  0  0  0  0
    2.6980   -0.8500    0.4050 C   0  0  0  0  0  0  0  0  0  0  0  0
    4.0200   -1.2450    0.2190 C   0  0  0  0  0  0  0  0  0  0  0  0
    5.0330   -0.3200    0.3120 C   0  0  0  0  0  0  0  0  0  0  0  0
    6.4270   -0.7450    0.1140 C   0  0  0  0  0  0  0  0  0  0  0  0
    6.7680   -0.6180   -1.3350 C   0  0  1  0  0  0  0  0  0  0  0  0
    6.5450    1.1580   -1.7790 S   0  0  0  0  0  0  0  0  0  0  0  0
    8.2440    1.6380   -1.5550 C   0  0  0  0  0  0  0  0  0  0  0  0
    8.7020    2.7780   -1.6450 O   0  0  0  0  0  0  0  0  0  0  0  0
    8.9330    0.4460   -1.2590 N   0  0  0  0  0  0  0  0  0  0  0  0
    8.2410   -0.7230   -1.5930 C   0  0  0  0  0  0  0  0  0  0  0  0
    8.7290   -1.7980   -2.0680 O   0  0  0  0  0  0  0  0  0  0  0  0
    4.7240    0.9900    0.5890 C   0  0  0  0  0  0  0  0  0  0  0  0
    3.3960    1.3700    0.7730 C   0  0  0  0  0  0  0  0  0  0  0  0
   -2.2580   -0.6410    0.8600 O   0  0  0  0  0  0  0  0  0  0  0  0
  1  2  1  0
  2  3  2  0
  2  9  1  0
  3  4  1  0
  3  5  1  0
  5  6  2  0
  5 31  1  0
  6  7  1  0
  6 11  1  0
  7  8  1  0
  7  9  2  0
  9 10  1  0
 11 12  1  0
 12 13  1  0
 13 14  1  1
 13 15  1  0
 13 31  1  0
 15 16  1  0
 16 17  1  0
 17 18  2  0
 17 30  1  0
 18 19  1  0
 19 20  2  0
 20 21  1  0
 20 29  1  0
 22 21  1  1
 22 23  1  0
 22 27  1  0
 23 24  1  0
 24 25  2  0
 24 26  1  0
 26 27  1  0
 27 28  2  0
 29 30  2  0
M  END
