
     RDKit          3D

 31 33  0  0  0  0  0  0  0  0999 V2000
   -2.0830   -1.4210   -1.5770 C   0  0  0  0  0  0  0  0  0  0  0  0
   -1.8150   -1.5790   -0.0940 C   0  0  2  0  0  0  0  0  0  0  0  0
   -0.3750   -1.8720    0.0750 C   0  0  0  0  0  0  0  0  0  0  0  0
   -0.0570   -2.9350    0.6650 O   0  0  0  0  0  0  0  0  0  0  0  0
    0.6640   -1.0400   -0.3810 N   0  0  0  0  0  0  0  0  0  0  0  0
    2.0510   -1.3500   -0.2040 C   0  0  0  0  0  0  0  0  0  0  0  0
    2.5370   -2.4480    0.4020 N   0  0  0  0  0  0  0  0  0  0  0  0
    3.8430   -2.4080    0.3850 O   0  0  0  0  0  0  0  0  0  0  0  0
    4.2420   -1.3130   -0.2170 C   0  0  0  0  0  0  0  0  0  0  0  0
    5.6260   -0.8810   -0.4490 C   0  0  0  0  0  0  0  0  0  0  0  0
    6.0010    0.1970    0.5000 C   0  0  0  0  0  0  0  0  0  0  0  0
    5.1640    0.5910    1.3320 O   0  0  0  0  0  0  0  0  0  0  0  0
    7.3010    0.7950    0.4830 N   0  0  0  0  0  0  0  0  0  0  0  0
    7.6230    1.8350    1.4190 C   0  0  0  0  0  0  0  0  0  0  0  0
    6.7530    2.9090    1.2320 O   0  0  0  0  0  0  0  0  0  0  0  0
    3.1170   -0.6070   -0.6090 C   0  0  0  0  0  0  0  0  0  0  0  0
    3.0560    0.5900   -1.2680 O   0  0  0  0  0  0  0  0  0  0  0  0
   -2.6640   -2.5870    0.4630 N   0  0  0  0  0  0  0  0  0  0  0  0
   -3.9100   -2.1900    1.0230 C   0  0  0  0  0  0  0  0  0  0  0  0
   -4.4740   -2.8710    1.9150 O   0  0  0  0  0  0  0  0  0  0  0  0
   -4.5280   -0.9600    0.5330 C   0  0  1  0  0  0  0  0  0  0  0  0
   -5.2860   -1.0720   -0.7410 C   0  0  0  0  0  0  0  0  0  0  0  0
   -5.5730   -0.2740    1.8820 S   0  0  0  0  0  0  0  0  0  0  0  0
   -5.0280    1.4840    1.7390 C   0  0  0  0  0  0  0  0  0  0  0  0
   -4.2450    1.3730    0.4090 C   0  0  1  0  0  0  0  0  0  0  0  0
   -3.4160    2.5550    0.2940 C   0  0  0  0  0  0  0  0  0  0  0  0
   -4.0300    3.8470    0.3220 N   0  0  0  0  0  0  0  0  0  0  0  0
   -2.1820    2.5100    0.1720 O   0  0  0  0  0  0  0  0  0  0  0  0
   -3.5290    0.1560    0.4920 N   0  0  0  0  0  0  0  0  0  0  0  0
   -2.1850   -0.2790    0.5600 C   0  0  0  0  0  0  0  0  0  0  0  0
   -1.2990    0.3820    1.1470 O   0  0  0  0  0  0  0  0  0  0  0  0
  2  1  1  6
  2  3  1  0
  2 18  1  0
  2 30  1  0
  3  4  2  0
  3  5  1  0
  5  6  1  0
  6  7  2  0
  6 16  1  0
  7  8  1  0
  8  9  1  0
  9 10  1  0
  9 16  2  0
 10 11  1  0
 11 12  2  0
 11 13  1  0
 13 14  1  0
 14 15  1  0
 16 17  1  0
 18 19  1  0
 19 20  2  0
 19 21  1  0
 21 22  1  6
 21 23  1  0
 21 29  1  0
 23 24  1  0
 24 25  1  0
 25 26  1  1
 25 29  1  0
 26 27  1  0
 26 28  2  0
 29 30  1  0
 30 31  2  0
M  END
