
     RDKit          3D

 44 47  0  0  0  0  0  0  0  0999 V2000
    8.4390   -0.7070   -0.2710 C   0  0  0  0  0  0  0  0  0  0  0  0
    7.7810    0.4090   -0.4690 C   0  0  0  0  0  0  0  0  0  0  0  0
    6.3220    0.4760   -0.2210 C   0  0  0  0  0  0  0  0  0  0  0  0
    5.7390    1.6430   -0.4540 C   0  0  0  0  0  0  0  0  0  0  0  0
    4.3240    1.9720   -0.2910 C   0  0  0  0  0  0  0  0  0  0  0  0
    3.5890    1.7150   -1.5980 C   0  0  0  0  0  0  0  0  0  0  0  0
    2.2010    2.2240   -1.5400 C   0  0  0  0  0  0  0  0  0  0  0  0
    1.2420    1.9560   -0.6780 C   0  0  0  0  0  0  0  0  0  0  0  0
   -0.0430    2.7200   -1.0050 C   0  0  1  0  0  0  0  0  0  0  0  0
    0.2420    3.8750   -1.7420 F   0  0  0  0  0  0  0  0  0  0  0  0
   -0.8720    1.9070   -1.8010 F   0  0  0  0  0  0  0  0  0  0  0  0
    1.2140    1.1030    0.4440 N   0  0  0  0  0  0  0  0  0  0  0  0
    1.3050   -0.2720    0.6960 C   0  0  2  0  0  0  0  0  0  0  0  0
    0.0340   -0.7220    1.4560 C   0  0  2  0  0  0  0  0  0  0  0  0
   -1.0850   -0.4810    0.6860 O   0  0  0  0  0  0  0  0  0  0  0  0
   -1.9150   -1.4070    0.1240 C   0  0  0  0  0  0  0  0  0  0  0  0
   -1.6430   -2.7490    0.2030 C   0  0  0  0  0  0  0  0  0  0  0  0
   -2.5170   -3.6630   -0.3820 C   0  0  0  0  0  0  0  0  0  0  0  0
   -3.6300   -3.2100   -1.0250 C   0  0  0  0  0  0  0  0  0  0  0  0
   -4.5640   -4.1590   -1.6400 C   0  0  0  0  0  0  0  0  0  0  0  0
   -5.5910   -4.5210   -0.5630 C   0  0  0  0  0  0  0  0  0  0  0  0
   -6.5600   -5.5000   -1.1810 C   0  0  0  0  0  0  0  0  0  0  0  0
   -3.8960   -1.8530   -1.1000 C   0  0  0  0  0  0  0  0  0  0  0  0
   -3.0640   -0.9220   -0.5380 C   0  0  0  0  0  0  0  0  0  0  0  0
   -3.2570    0.4730   -0.5250 N   0  0  0  0  0  0  0  0  0  0  0  0
   -4.2650    1.2110   -1.1850 C   0  0  0  0  0  0  0  0  0  0  0  0
   -5.1090    0.5770   -1.8810 O   0  0  0  0  0  0  0  0  0  0  0  0
   -4.3820    2.6700   -1.1050 C   0  0  0  0  0  0  0  0  0  0  0  0
   -5.2410    3.3260   -1.9570 C   0  0  0  0  0  0  0  0  0  0  0  0
   -5.4030    4.7150   -1.9270 C   0  0  0  0  0  0  0  0  0  0  0  0
   -4.6650    5.4100   -1.0050 C   0  0  0  0  0  0  0  0  0  0  0  0
   -3.8050    4.8040   -0.1440 C   0  0  0  0  0  0  0  0  0  0  0  0
   -3.0300    5.5370    0.8280 C   0  0  0  0  0  0  0  0  0  0  0  0
   -2.2340    4.9730    1.6180 O   0  0  0  0  0  0  0  0  0  0  0  0
   -3.6710    3.4170   -0.2050 C   0  0  0  0  0  0  0  0  0  0  0  0
    0.0080    0.0390    2.7530 C   0  0  0  0  0  0  0  0  0  0  0  0
    1.2840    0.2040    3.4710 C   0  0  0  0  0  0  0  0  0  0  0  0
    2.5440   -0.1670    2.7370 C   0  0  0  0  0  0  0  0  0  0  0  0
    2.3410   -0.8350    1.5000 N   0  0  2  0  0  0  0  0  0  0  0  0
    3.4700   -1.3170    0.7840 C   0  0  2  0  0  0  0  0  0  0  0  0
    3.5780   -2.8370    0.7270 C   0  0  0  0  0  0  0  0  0  0  0  0
    2.4970   -3.4340    0.1240 O   0  0  0  0  0  0  0  0  0  0  0  0
    4.7960   -0.8320    1.2920 C   0  0  0  0  0  0  0  0  0  0  0  0
    5.6930   -0.6410    0.2190 O   0  0  0  0  0  0  0  0  0  0  0  0
  1  2  2  0
  2  3  1  0
  3  4  2  0
  3 44  1  0
  4  5  1  0
  5  6  1  0
  6  7  1  0
  7  8  2  0
  8  9  1  0
  8 12  1  0
  9 10  1  6
  9 11  1  0
 13 12  1  1
 13 14  1  0
 13 39  1  0
 14 15  1  6
 14 36  1  0
 15 16  1  0
 16 17  2  0
 16 24  1  0
 17 18  1  0
 18 19  2  0
 19 20  1  0
 19 23  1  0
 20 21  1  0
 21 22  1  0
 23 24  2  0
 24 25  1  0
 25 26  1  0
 26 27  2  0
 26 28  1  0
 28 29  2  0
 28 35  1  0
 29 30  1  0
 30 31  2  0
 31 32  1  0
 32 33  1  0
 32 35  2  0
 33 34  2  0
 36 37  1  0
 37 38  1  0
 39 38  1  1
 39 40  1  0
 40 41  1  1
 40 43  1  0
 41 42  1  0
 43 44  1  0
M  CHG  1  39   1
M  END
