
     RDKit          3D

 44 48  0  0  0  0  0  0  0  0999 V2000
    4.9920   -0.5220   -0.4450 C   0  0  0  0  0  0  0  0  0  0  0  0
    5.0150   -0.8290   -1.9260 C   0  0  2  0  0  0  0  0  0  0  0  0
    3.7500   -1.4600   -2.2550 N   0  0  0  0  0  0  0  0  0  0  0  0
    2.7000   -0.6970   -1.6900 C   0  0  0  0  0  0  0  0  0  0  0  0
    1.8360   -1.3150   -0.8190 C   0  0  0  0  0  0  0  0  0  0  0  0
    0.7960   -0.6220   -0.2400 C   0  0  0  0  0  0  0  0  0  0  0  0
    0.5630    0.6930   -0.4890 C   0  0  0  0  0  0  0  0  0  0  0  0
   -0.5280    1.5180    0.0590 C   0  0  1  0  0  0  0  0  0  0  0  0
   -1.7020    0.8120    0.6070 C   0  0  0  0  0  0  0  0  0  0  0  0
   -2.4370   -0.0240   -0.4330 C   0  0  0  0  0  0  0  0  0  0  0  0
   -3.5820   -0.7350    0.1460 C   0  0  0  0  0  0  0  0  0  0  0  0
   -3.6700   -0.7050    1.4180 O   0  0  0  0  0  0  0  0  0  0  0  0
   -4.5410   -1.4220   -0.6650 N   0  0  0  0  0  0  0  0  0  0  0  0
   -4.4100   -1.4070   -2.1020 C   0  0  0  0  0  0  0  0  0  0  0  0
   -5.1570   -0.2760   -2.7370 C   0  0  0  0  0  0  0  0  0  0  0  0
   -6.5150   -0.3960   -2.4350 O   0  0  0  0  0  0  0  0  0  0  0  0
   -5.6300   -2.1710   -0.0890 C   0  0  1  0  0  0  0  0  0  0  0  0
   -5.0880   -3.3990    0.6540 C   0  0  0  0  0  0  0  0  0  0  0  0
   -6.2500   -3.8610    1.4760 C   0  0  0  0  0  0  0  0  0  0  0  0
   -7.1100   -2.6550    1.6840 C   0  0  0  0  0  0  0  0  0  0  0  0
   -6.4580   -1.4940    0.9200 C   0  0  2  0  0  0  0  0  0  0  0  0
   -7.5400   -0.7550    0.4130 O   0  0  0  0  0  0  0  0  0  0  0  0
   -0.0350    2.6320    0.8260 N   0  0  0  0  0  0  0  0  0  0  0  0
   -0.1330    3.9890    0.2830 C   0  0  0  0  0  0  0  0  0  0  0  0
    1.2230    4.6660    0.3500 C   0  0  0  0  0  0  0  0  0  0  0  0
    1.4760    5.2550    1.6180 O   0  0  0  0  0  0  0  0  0  0  0  0
    1.4630    4.5490    2.8320 C   0  0  0  0  0  0  0  0  0  0  0  0
    1.9320    5.2870    3.8990 C   0  0  0  0  0  0  0  0  0  0  0  0
    1.9870    4.7470    5.1600 C   0  0  0  0  0  0  0  0  0  0  0  0
    1.5860    3.4600    5.4330 C   0  0  0  0  0  0  0  0  0  0  0  0
    1.1060    2.6890    4.3690 C   0  0  0  0  0  0  0  0  0  0  0  0
    1.0620    3.2530    3.1220 C   0  0  0  0  0  0  0  0  0  0  0  0
    0.5370    2.3320    2.0950 C   0  0  0  0  0  0  0  0  0  0  0  0
    0.6150    1.1220    2.4030 O   0  0  0  0  0  0  0  0  0  0  0  0
    1.4410    1.3180   -1.3730 C   0  0  0  0  0  0  0  0  0  0  0  0
    2.4870    0.6400   -1.9610 C   0  0  0  0  0  0  0  0  0  0  0  0
    6.1800   -1.6830   -2.2130 C   0  0  0  0  0  0  0  0  0  0  0  0
    7.0510   -2.0090   -1.2060 C   0  0  0  0  0  0  0  0  0  0  0  0
    8.1670   -2.8110   -1.4330 C   0  0  0  0  0  0  0  0  0  0  0  0
    8.4270   -3.2990   -2.6820 C   0  0  0  0  0  0  0  0  0  0  0  0
    9.5290   -4.0840   -2.8870 F   0  0  0  0  0  0  0  0  0  0  0  0
    7.5550   -2.9780   -3.7130 C   0  0  0  0  0  0  0  0  0  0  0  0
    6.4510   -2.1830   -3.4800 C   0  0  0  0  0  0  0  0  0  0  0  0
    5.6400   -1.9080   -4.5290 F   0  0  0  0  0  0  0  0  0  0  0  0
  2  1  1  1
  2  3  1  0
  2 37  1  0
  3  4  1  0
  4  5  2  0
  4 36  1  0
  5  6  1  0
  6  7  2  0
  7  8  1  0
  7 35  1  0
  8  9  1  1
  8 23  1  0
  9 10  1  0
 10 11  1  0
 11 12  2  0
 11 13  1  0
 13 14  1  0
 17 13  1  1
 14 15  1  0
 15 16  1  0
 17 18  1  0
 17 21  1  0
 18 19  1  0
 19 20  1  0
 20 21  1  0
 21 22  1  6
 23 24  1  0
 23 33  1  0
 24 25  1  0
 25 26  1  0
 26 27  1  0
 27 28  2  0
 27 32  1  0
 28 29  1  0
 29 30  2  0
 30 31  1  0
 31 32  2  0
 32 33  1  0
 33 34  2  0
 35 36  2  0
 37 38  2  0
 37 43  1  0
 38 39  1  0
 39 40  2  0
 40 41  1  0
 40 42  1  0
 42 43  2  0
 43 44  1  0
M  CHG  1   3   1
M  END
