
     RDKit          3D

 43 46  0  0  0  0  0  0  0  0999 V2000
    9.0180    5.0350   -0.8230 C   0  0  0  0  0  0  0  0  0  0  0  0
    7.8980    4.1850   -0.7910 O   0  0  0  0  0  0  0  0  0  0  0  0
    8.1070    2.8270   -0.5870 C   0  0  0  0  0  0  0  0  0  0  0  0
    9.2730    2.4120   -0.4400 O   0  0  0  0  0  0  0  0  0  0  0  0
    6.9770    1.8740   -0.5420 C   0  0  0  0  0  0  0  0  0  0  0  0
    7.5400    0.4830   -0.3120 C   0  0  0  0  0  0  0  0  0  0  0  0
    6.4920   -0.5130   -0.2560 N   0  0  1  0  0  0  0  0  0  0  0  0
    6.9270   -1.6690   -0.9480 C   0  0  1  0  0  0  0  0  0  0  0  0
    8.2010   -2.2950   -0.4300 C   0  0  0  0  0  0  0  0  0  0  0  0
    5.8700   -2.7030   -1.2320 C   0  0  0  0  0  0  0  0  0  0  0  0
    5.9180   -0.6350    1.0330 C   0  0  2  0  0  0  0  0  0  0  0  0
    6.6020   -1.4520    2.0520 C   0  0  0  0  0  0  0  0  0  0  0  0
    5.9050   -2.6870    2.0340 O   0  0  0  0  0  0  0  0  0  0  0  0
    4.6010   -2.3790    1.6700 C   0  0  0  0  0  0  0  0  0  0  0  0
    3.4430   -3.1070    1.8370 C   0  0  0  0  0  0  0  0  0  0  0  0
    2.2220   -2.6340    1.4060 C   0  0  0  0  0  0  0  0  0  0  0  0
    2.1470   -1.4020    0.7920 C   0  0  0  0  0  0  0  0  0  0  0  0
    0.8350   -0.8660    0.3160 C   0  0  0  0  0  0  0  0  0  0  0  0
    0.2560   -0.0910    1.4850 C   0  0  0  0  0  0  0  0  0  0  0  0
   -1.0270    0.5060    1.1900 N   0  0  0  0  0  0  0  0  0  0  0  0
   -2.1650   -0.3050    0.8120 C   0  0  0  0  0  0  0  0  0  0  0  0
   -1.9900   -1.5250    0.7570 O   0  0  0  0  0  0  0  0  0  0  0  0
   -3.4080    0.2510    0.5220 N   0  0  0  0  0  0  0  0  0  0  0  0
   -4.6290   -0.3550    0.1420 C   0  0  0  0  0  0  0  0  0  0  0  0
   -5.6560    0.4600   -0.0730 C   0  0  0  0  0  0  0  0  0  0  0  0
   -5.5360    1.9410    0.0940 C   0  0  0  0  0  0  0  0  0  0  0  0
   -6.9300   -0.0270   -0.6370 C   0  0  2  0  0  0  0  0  0  0  0  0
   -6.8870    0.1880   -2.1360 C   0  0  0  0  0  0  0  0  0  0  0  0
   -8.0550   -0.3230   -2.8930 C   0  0  0  0  0  0  0  0  0  0  0  0
   -7.9490    0.0040   -4.2700 O   0  0  0  0  0  0  0  0  0  0  0  0
   -8.0140    0.8760   -0.0800 C   0  0  0  0  0  0  0  0  0  0  0  0
   -8.7130    1.6990   -0.8840 C   0  0  0  0  0  0  0  0  0  0  0  0
   -9.7500    2.4950   -0.3410 C   0  0  0  0  0  0  0  0  0  0  0  0
  -10.0550    2.4460    0.9940 C   0  0  0  0  0  0  0  0  0  0  0  0
  -11.0580    3.2180    1.5160 F   0  0  0  0  0  0  0  0  0  0  0  0
   -9.3370    1.6050    1.8080 C   0  0  0  0  0  0  0  0  0  0  0  0
   -8.3290    0.8350    1.2590 C   0  0  0  0  0  0  0  0  0  0  0  0
   -7.2090   -1.4270   -0.3030 C   0  0  0  0  0  0  0  0  0  0  0  0
   -6.0530   -2.2720   -0.0980 C   0  0  0  0  0  0  0  0  0  0  0  0
   -4.8170   -1.7920    0.1210 C   0  0  0  0  0  0  0  0  0  0  0  0
   -3.8090   -2.6640    0.3080 F   0  0  0  0  0  0  0  0  0  0  0  0
    3.3140   -0.7070    0.6430 C   0  0  0  0  0  0  0  0  0  0  0  0
    4.5490   -1.1460    1.0590 C   0  0  0  0  0  0  0  0  0  0  0  0
  1  2  1  0
  2  3  1  0
  3  4  2  0
  3  5  1  0
  5  6  1  0
  7  6  1  1
  7  8  1  0
  7 11  1  0
  8  9  1  1
  8 10  1  0
 11 12  1  1
 11 43  1  0
 12 13  1  0
 13 14  1  0
 14 15  2  0
 14 43  1  0
 15 16  1  0
 16 17  2  0
 17 18  1  0
 17 42  1  0
 18 19  1  0
 19 20  1  0
 20 21  1  0
 21 22  2  0
 21 23  1  0
 23 24  1  0
 24 25  2  0
 24 40  1  0
 25 26  1  0
 25 27  1  0
 27 28  1  6
 27 31  1  0
 27 38  1  0
 28 29  1  0
 29 30  1  0
 31 32  2  0
 31 37  1  0
 32 33  1  0
 33 34  2  0
 34 35  1  0
 34 36  1  0
 36 37  2  0
 38 39  1  0
 39 40  2  0
 40 41  1  0
 42 43  2  0
M  CHG  1   7   1
M  END
