
     RDKit          3D

 44 48  0  0  0  0  0  0  0  0999 V2000
   -4.5230    5.3330    2.9790 C   0  0  0  0  0  0  0  0  0  0  0  0
   -5.4900    4.5960    2.2680 O   0  0  0  0  0  0  0  0  0  0  0  0
   -4.8700    3.4030    1.7830 C   0  0  0  0  0  0  0  0  0  0  0  0
   -5.9080    2.6920    1.0100 C   0  0  1  0  0  0  0  0  0  0  0  0
   -6.3450    3.4640   -0.2340 C   0  0  0  0  0  0  0  0  0  0  0  0
   -7.2290    2.4090   -0.8690 C   0  0  0  0  0  0  0  0  0  0  0  0
   -6.6060    1.0690   -0.4390 C   0  0  0  0  0  0  0  0  0  0  0  0
   -5.4820    1.4360    0.3710 N   0  0  0  0  0  0  0  0  0  0  0  0
   -4.2510    0.8370    0.6230 C   0  0  0  0  0  0  0  0  0  0  0  0
   -3.4420    1.5180    1.4080 O   0  0  0  0  0  0  0  0  0  0  0  0
   -3.6710   -0.4020    0.1910 C   0  0  0  0  0  0  0  0  0  0  0  0
   -4.3280   -1.3340   -0.5670 C   0  0  0  0  0  0  0  0  0  0  0  0
   -3.7190   -2.5310   -0.9950 C   0  0  0  0  0  0  0  0  0  0  0  0
   -4.4360   -3.5350   -1.8180 C   0  0  0  0  0  0  0  0  0  0  0  0
   -2.4110   -2.7930   -0.6470 C   0  0  0  0  0  0  0  0  0  0  0  0
   -1.7220   -1.8790    0.1170 C   0  0  0  0  0  0  0  0  0  0  0  0
   -0.3580   -2.0870    0.5470 C   0  0  0  0  0  0  0  0  0  0  0  0
   -0.0150   -1.6000    1.6800 O   0  0  0  0  0  0  0  0  0  0  0  0
    0.6360   -2.7850   -0.1760 N   0  0  0  0  0  0  0  0  0  0  0  0
    1.9880   -2.9550    0.3520 C   0  0  1  0  0  0  0  0  0  0  0  0
    2.2120   -4.4400    0.4950 C   0  0  0  0  0  0  0  0  0  0  0  0
    3.5010   -4.8540    1.0060 C   0  0  0  0  0  0  0  0  0  0  0  0
    3.7520   -4.9230    2.3710 C   0  0  0  0  0  0  0  0  0  0  0  0
    4.9570   -5.3410    2.8700 C   0  0  0  0  0  0  0  0  0  0  0  0
    5.2320   -5.4190    4.2130 F   0  0  0  0  0  0  0  0  0  0  0  0
    5.9590   -5.7060    2.0050 C   0  0  0  0  0  0  0  0  0  0  0  0
    5.7320   -5.6450    0.6330 C   0  0  0  0  0  0  0  0  0  0  0  0
    6.7040   -5.9990   -0.2380 F   0  0  0  0  0  0  0  0  0  0  0  0
    4.5170   -5.2240    0.1560 C   0  0  0  0  0  0  0  0  0  0  0  0
    3.0220   -2.2620   -0.5050 C   0  0  2  0  0  0  0  0  0  0  0  0
    4.2480   -2.5410    0.1600 O   0  0  0  0  0  0  0  0  0  0  0  0
    2.7800   -0.7830   -0.4890 C   0  0  1  0  0  0  0  0  0  0  0  0
    3.9810    0.0270   -0.9930 C   0  0  0  0  0  0  0  0  0  0  0  0
    3.2290    1.3390   -1.2950 C   0  0  1  0  0  0  0  0  0  0  0  0
    3.9800    2.2860   -1.9400 O   0  0  0  0  0  0  0  0  0  0  0  0
    4.2880    3.5560   -1.5670 C   0  0  0  0  0  0  0  0  0  0  0  0
    3.8390    4.0920   -0.3680 C   0  0  0  0  0  0  0  0  0  0  0  0
    4.1790    5.3870   -0.0330 C   0  0  0  0  0  0  0  0  0  0  0  0
    4.9520    6.1860   -0.8410 C   0  0  0  0  0  0  0  0  0  0  0  0
    5.4060    5.6620   -2.0400 C   0  0  0  0  0  0  0  0  0  0  0  0
    5.0620    4.3500   -2.3790 C   0  0  0  0  0  0  0  0  0  0  0  0
    2.0840    0.7580   -2.0860 C   0  0  0  0  0  0  0  0  0  0  0  0
    1.6280   -0.3140   -1.1670 N   0  0  0  0  0  0  0  0  0  0  0  0
   -2.3520   -0.7270    0.5120 C   0  0  0  0  0  0  0  0  0  0  0  0
  1  2  1  0
  2  3  1  0
  4  3  1  6
  4  5  1  0
  4  8  1  0
  5  6  1  0
  6  7  1  0
  7  8  1  0
  8  9  1  0
  9 10  2  0
  9 11  1  0
 11 12  2  0
 11 44  1  0
 12 13  1  0
 13 14  1  0
 13 15  2  0
 15 16  1  0
 16 17  1  0
 16 44  2  0
 17 18  2  0
 17 19  1  0
 19 20  1  0
 20 21  1  6
 20 30  1  0
 21 22  1  0
 22 23  2  0
 22 29  1  0
 23 24  1  0
 24 25  1  0
 24 26  2  0
 26 27  1  0
 27 28  1  0
 27 29  2  0
 30 31  1  1
 30 32  1  0
 32 33  1  6
 32 43  1  0
 33 34  1  0
 34 35  1  6
 34 42  1  0
 35 36  1  0
 36 37  2  0
 36 41  1  0
 37 38  1  0
 38 39  2  0
 39 40  1  0
 40 41  2  0
 42 43  1  0
M  CHG  1  43   1
M  END
