
     RDKit          3D

 44 47  0  0  0  0  0  0  0  0999 V2000
    7.1190    5.8610    3.4180 C   0  0  0  0  0  0  0  0  0  0  0  0
    6.3880    4.9620    2.7720 C   0  0  0  0  0  0  0  0  0  0  0  0
    6.4410    3.4960    2.9460 C   0  0  0  0  0  0  0  0  0  0  0  0
    5.4760    2.9390    2.2380 C   0  0  0  0  0  0  0  0  0  0  0  0
    5.2280    1.5020    2.1750 C   0  0  0  0  0  0  0  0  0  0  0  0
    5.9450    0.6980    2.8210 O   0  0  0  0  0  0  0  0  0  0  0  0
    4.1830    0.9290    1.3960 N   0  0  0  0  0  0  0  0  0  0  0  0
    3.9950   -0.5250    1.3880 C   0  0  0  0  0  0  0  0  0  0  0  0
    2.8520   -0.9450    0.4990 C   0  0  0  0  0  0  0  0  0  0  0  0
    1.5840   -0.3290    0.9390 C   0  0  2  0  0  0  0  0  0  0  0  0
    1.2110   -0.6870    2.3290 C   0  0  0  0  0  0  0  0  0  0  0  0
   -0.1990   -1.0480    2.5960 C   0  0  0  0  0  0  0  0  0  0  0  0
   -1.2120   -0.3590    1.7260 C   0  0  0  0  0  0  0  0  0  0  0  0
   -0.5770    0.2290    0.4900 C   0  0  2  0  0  0  0  0  0  0  0  0
   -1.5860    0.7120   -0.4810 C   0  0  0  0  0  0  0  0  0  0  0  0
   -1.2160    1.0040   -1.5840 O   0  0  0  0  0  0  0  0  0  0  0  0
   -2.9260    0.8240   -0.1320 N   0  0  0  0  0  0  0  0  0  0  0  0
   -4.1270    1.2590   -0.7590 C   0  0  0  0  0  0  0  0  0  0  0  0
   -5.3360    0.6940   -0.0740 C   0  0  0  0  0  0  0  0  0  0  0  0
   -5.2470    0.2920    1.2160 C   0  0  0  0  0  0  0  0  0  0  0  0
   -6.4590   -0.2760    1.8680 C   0  0  0  0  0  0  0  0  0  0  0  0
   -7.7730    0.2350    1.4610 C   0  0  0  0  0  0  0  0  0  0  0  0
   -7.8770    0.6240    0.0280 C   0  0  0  0  0  0  0  0  0  0  0  0
   -6.5910    0.3020   -0.6680 C   0  0  0  0  0  0  0  0  0  0  0  0
   -6.6450   -0.3140   -1.7550 O   0  0  0  0  0  0  0  0  0  0  0  0
   -4.3130    1.7640   -1.9430 C   0  0  0  0  0  0  0  0  0  0  0  0
   -5.7090    2.1720   -2.3790 C   0  0  0  0  0  0  0  0  0  0  0  0
   -3.3000    2.1390   -2.9080 C   0  0  0  0  0  0  0  0  0  0  0  0
   -3.6060    2.5940   -4.1430 C   0  0  0  0  0  0  0  0  0  0  0  0
   -4.8400    2.7480   -4.6150 F   0  0  0  0  0  0  0  0  0  0  0  0
   -2.4640    2.9550   -5.0690 C   0  0  0  0  0  0  0  0  0  0  0  0
   -1.2830    2.7340   -4.4300 F   0  0  0  0  0  0  0  0  0  0  0  0
    0.4320   -0.6410    0.0720 N   0  0  1  0  0  0  0  0  0  0  0  0
    0.7580   -0.8250   -1.2830 C   0  0  0  0  0  0  0  0  0  0  0  0
    1.3160   -2.1980   -1.5190 C   0  0  0  0  0  0  0  0  0  0  0  0
    0.7790   -3.3490   -0.9980 C   0  0  0  0  0  0  0  0  0  0  0  0
    1.5750   -4.3990   -1.4450 C   0  0  0  0  0  0  0  0  0  0  0  0
    2.5520   -3.8240   -2.2130 C   0  0  0  0  0  0  0  0  0  0  0  0
    3.6430   -4.5430   -2.9120 C   0  0  0  0  0  0  0  0  0  0  0  0
    3.5990   -6.0300   -2.6730 C   0  0  0  0  0  0  0  0  0  0  0  0
    3.7540   -6.3590   -1.2090 C   0  0  0  0  0  0  0  0  0  0  0  0
    2.3530   -2.5220   -2.2240 O   0  0  0  0  0  0  0  0  0  0  0  0
    4.7560    3.9450    1.5810 O   0  0  0  0  0  0  0  0  0  0  0  0
    5.3620    5.2020    1.7330 C   0  0  0  0  0  0  0  0  0  0  0  0
  1  2  2  0
  2  3  1  0
  2 44  1  0
  3  4  2  0
  4  5  1  0
  4 43  1  0
  5  6  2  0
  5  7  1  0
  7  8  1  0
  8  9  1  0
 10  9  1  6
 10 11  1  0
 10 33  1  0
 11 12  1  0
 12 13  1  0
 13 14  1  0
 14 15  1  6
 14 33  1  0
 15 16  2  0
 15 17  1  0
 17 18  1  0
 18 19  1  0
 18 26  2  3
 19 20  2  0
 19 24  1  0
 20 21  1  0
 21 22  1  0
 22 23  1  0
 23 24  1  0
 24 25  2  0
 26 27  1  0
 26 28  1  0
 28 29  2  3
 29 30  1  0
 29 31  1  0
 31 32  1  0
 33 34  1  6
 34 35  1  0
 35 36  2  0
 35 42  1  0
 36 37  1  0
 37 38  2  0
 38 39  1  0
 38 42  1  0
 39 40  1  0
 40 41  1  0
 43 44  1  0
M  CHG  1  33   1
M  END
