
     RDKit          3D

 48 53  0  0  0  0  0  0  0  0999 V2000
   12.6550   -0.4270    4.0450 C   0  0  0  0  0  0  0  0  0  0  0  0
   11.3900   -0.0750    3.3570 C   0  0  0  0  0  0  0  0  0  0  0  0
   11.2470   -0.1440    1.9790 C   0  0  0  0  0  0  0  0  0  0  0  0
   10.0440    0.1950    1.3950 C   0  0  0  0  0  0  0  0  0  0  0  0
    8.9700    0.6040    2.1560 C   0  0  0  0  0  0  0  0  0  0  0  0
    7.6400    0.9750    1.5450 C   0  0  0  0  0  0  0  0  0  0  0  0
    6.8150   -0.2760    1.5130 C   0  0  0  0  0  0  0  0  0  0  0  0
    5.4660   -0.0830    0.9350 C   0  0  0  0  0  0  0  0  0  0  0  0
    5.0150    0.9680    0.4550 O   0  0  0  0  0  0  0  0  0  0  0  0
    4.6020   -1.2220    0.9320 N   0  0  0  0  0  0  0  0  0  0  0  0
    3.2550   -1.1950    0.4040 C   0  0  0  0  0  0  0  0  0  0  0  0
    3.2490   -0.8630   -1.0450 C   0  0  0  0  0  0  0  0  0  0  0  0
    4.2500   -0.5880   -1.8190 O   0  0  0  0  0  0  0  0  0  0  0  0
    3.8890   -0.3480   -3.0180 N   0  0  0  0  0  0  0  0  0  0  0  0
    2.5060   -0.4600   -3.1180 C   0  0  0  0  0  0  0  0  0  0  0  0
    1.8370   -0.1680   -4.3600 C   0  0  0  0  0  0  0  0  0  0  0  0
    1.1100   -1.0360   -5.1280 C   0  0  0  0  0  0  0  0  0  0  0  0
    0.4900   -0.6720   -6.3110 C   0  0  0  0  0  0  0  0  0  0  0  0
    0.5740    0.6150   -6.7940 C   0  0  0  0  0  0  0  0  0  0  0  0
    1.2960    1.5150   -6.0520 C   0  0  0  0  0  0  0  0  0  0  0  0
    1.9030    1.1450   -4.8850 C   0  0  0  0  0  0  0  0  0  0  0  0
    2.0880   -0.7820   -1.8810 C   0  0  0  0  0  0  0  0  0  0  0  0
    0.7720   -0.9640   -1.3000 C   0  0  0  0  0  0  0  0  0  0  0  0
    0.6270   -0.8280   -0.0240 O   0  0  0  0  0  0  0  0  0  0  0  0
   -0.4060   -1.2880   -1.9760 N   0  0  0  0  0  0  0  0  0  0  0  0
   -1.7360   -1.4450   -1.4490 C   0  0  0  0  0  0  0  0  0  0  0  0
   -2.5050   -0.2480   -1.0120 C   0  0  2  0  0  0  0  0  0  0  0  0
   -3.8080   -0.6280   -0.4840 N   0  0  2  0  0  0  0  0  0  0  0  0
   -3.7630   -1.0430    0.8930 C   0  0  0  0  0  0  0  0  0  0  0  0
   -5.1980   -0.9540    1.3950 C   0  0  0  0  0  0  0  0  0  0  0  0
   -6.1790   -1.3030    0.4350 N   0  0  0  0  0  0  0  0  0  0  0  0
   -7.1720   -0.3070    0.1450 C   0  0  0  0  0  0  0  0  0  0  0  0
   -7.9190    0.0790    1.3700 C   0  0  0  0  0  0  0  0  0  0  0  0
   -9.0270    0.9160    1.1890 C   0  0  0  0  0  0  0  0  0  0  0  0
   -9.7660    1.3190    2.2780 C   0  0  0  0  0  0  0  0  0  0  0  0
   -9.3630    0.8630    3.5120 C   0  0  0  0  0  0  0  0  0  0  0  0
   -8.2730    0.0420    3.6700 C   0  0  0  0  0  0  0  0  0  0  0  0
   -7.9060   -0.4060    5.0560 C   0  0  0  0  0  0  0  0  0  0  0  0
   -7.5700   -0.3360    2.5960 N   0  0  0  0  0  0  0  0  0  0  0  0
   -5.7400   -2.0420   -0.6920 C   0  0  0  0  0  0  0  0  0  0  0  0
   -4.3690   -1.7590   -1.1980 C   0  0  0  0  0  0  0  0  0  0  0  0
   -2.7410    0.5760   -2.2950 C   0  0  0  0  0  0  0  0  0  0  0  0
   -3.5130    1.8180   -2.0720 C   0  0  0  0  0  0  0  0  0  0  0  0
   -2.8320    2.6890   -1.0440 C   0  0  0  0  0  0  0  0  0  0  0  0
   -2.6740    1.8910    0.2220 C   0  0  0  0  0  0  0  0  0  0  0  0
   -1.7900    0.6470   -0.0830 C   0  0  0  0  0  0  0  0  0  0  0  0
    9.1340    0.6650    3.5240 C   0  0  0  0  0  0  0  0  0  0  0  0
   10.3190    0.3350    4.1410 C   0  0  0  0  0  0  0  0  0  0  0  0
  1  2  1  0
  2  3  2  0
  2 48  1  0
  3  4  1  0
  4  5  2  0
  5  6  1  0
  5 47  1  0
  6  7  1  0
  7  8  1  0
  8  9  2  0
  8 10  1  0
 10 11  1  0
 11 12  1  0
 12 13  1  0
 12 22  2  0
 13 14  1  0
 14 15  2  0
 15 16  1  0
 15 22  1  0
 16 17  2  0
 16 21  1  0
 17 18  1  0
 18 19  2  0
 19 20  1  0
 20 21  2  0
 22 23  1  0
 23 24  2  0
 23 25  1  0
 25 26  1  0
 27 26  1  6
 27 28  1  0
 27 42  1  0
 27 46  1  0
 28 29  1  1
 28 41  1  0
 29 30  1  0
 30 31  1  0
 31 32  1  0
 31 40  1  0
 32 33  1  0
 33 34  2  0
 33 39  1  0
 34 35  1  0
 35 36  2  0
 36 37  1  0
 37 38  1  0
 37 39  2  0
 40 41  1  0
 42 43  1  0
 43 44  1  0
 44 45  1  0
 45 46  1  0
 47 48  2  0
M  CHG  1  28   1
M  END
