
     RDKit          3D

 48 53  0  0  0  0  0  0  0  0999 V2000
   -7.5250    7.2360   -0.7640 C   0  0  0  0  0  0  0  0  0  0  0  0
   -7.1730    6.0020   -0.0760 N   0  0  0  0  0  0  0  0  0  0  0  0
   -5.9180    6.0730    0.6580 C   0  0  0  0  0  0  0  0  0  0  0  0
   -5.1640    4.8070    0.4800 C   0  0  0  0  0  0  0  0  0  0  0  0
   -5.6470    3.7040   -0.2310 C   0  0  0  0  0  0  0  0  0  0  0  0
   -4.8890    2.5470   -0.4120 C   0  0  0  0  0  0  0  0  0  0  0  0
   -3.6360    2.4050    0.0990 C   0  0  0  0  0  0  0  0  0  0  0  0
   -2.6740    1.4260    0.1210 N   0  0  0  0  0  0  0  0  0  0  0  0
   -2.6670    0.1790    0.2210 C   0  0  0  0  0  0  0  0  0  0  0  0
   -3.7850   -0.5970    0.3230 C   0  0  0  0  0  0  0  0  0  0  0  0
   -3.7130   -1.9390    0.7060 C   0  0  0  0  0  0  0  0  0  0  0  0
   -2.4640   -2.4200    0.9540 C   0  0  0  0  0  0  0  0  0  0  0  0
   -1.2920   -1.6930    0.8680 C   0  0  0  0  0  0  0  0  0  0  0  0
   -1.4710   -0.3730    0.5000 N   0  0  0  0  0  0  0  0  0  0  0  0
   -0.3700    0.4600    0.8160 C   0  0  0  0  0  0  0  0  0  0  0  0
    0.8670    0.5550    0.5510 C   0  0  0  0  0  0  0  0  0  0  0  0
    1.5010    1.7770    1.3130 C   0  0  0  0  0  0  0  0  0  0  0  0
    1.6980   -0.1970   -0.3490 C   0  0  2  0  0  0  0  0  0  0  0  0
    2.0960    0.9110   -1.4750 C   0  0  0  0  0  0  0  0  0  0  0  0
    1.1710   -1.2460   -1.1920 C   0  0  0  0  0  0  0  0  0  0  0  0
    3.0810   -0.4740    0.1870 C   0  0  0  0  0  0  0  0  0  0  0  0
    3.5790   -1.5690    0.1820 O   0  0  0  0  0  0  0  0  0  0  0  0
    3.7630    0.6470    0.6800 O   0  0  0  0  0  0  0  0  0  0  0  0
    5.0150    0.7000    1.2170 C   0  0  0  0  0  0  0  0  0  0  0  0
    6.0240    0.4670    0.0620 C   0  0  1  0  0  0  0  0  0  0  0  0
    7.3570    1.0790    0.3950 C   0  0  0  0  0  0  0  0  0  0  0  0
    8.3320    0.0150    0.2020 N   0  0  0  0  0  0  0  0  0  0  0  0
    9.6660    0.4990    0.2850 C   0  0  0  0  0  0  0  0  0  0  0  0
   10.4600   -0.5280   -0.4890 C   0  0  0  0  0  0  0  0  0  0  0  0
    9.4320   -1.2130   -1.3960 C   0  0  0  0  0  0  0  0  0  0  0  0
    8.2040   -0.3900   -1.1910 C   0  0  1  0  0  0  0  0  0  0  0  0
    6.9040   -1.1080   -1.3370 C   0  0  0  0  0  0  0  0  0  0  0  0
    5.9830   -0.8150   -0.3460 O   0  0  0  0  0  0  0  0  0  0  0  0
   -2.6900   -3.8690    1.4110 C   0  0  2  0  0  0  0  0  0  0  0  0
   -2.2840   -4.7010    0.2350 C   0  0  0  0  0  0  0  0  0  0  0  0
   -1.6380   -4.1790   -0.8820 C   0  0  0  0  0  0  0  0  0  0  0  0
   -1.3200   -5.0690   -1.9420 C   0  0  0  0  0  0  0  0  0  0  0  0
   -1.5820   -6.3550   -1.9870 C   0  0  0  0  0  0  0  0  0  0  0  0
   -2.2930   -6.9450   -0.8010 C   0  0  0  0  0  0  0  0  0  0  0  0
   -2.5450   -6.0280    0.1580 C   0  0  0  0  0  0  0  0  0  0  0  0
   -4.1530   -3.9880    1.4560 C   0  0  0  0  0  0  0  0  0  0  0  0
   -4.8940   -5.1550    2.0580 C   0  0  0  0  0  0  0  0  0  0  0  0
   -4.7250   -2.8880    1.0200 C   0  0  0  0  0  0  0  0  0  0  0  0
   -6.2210   -2.7770    0.8330 C   0  0  0  0  0  0  0  0  0  0  0  0
   -3.2000    3.5530    0.8120 C   0  0  0  0  0  0  0  0  0  0  0  0
   -3.9180    4.6840    0.9910 C   0  0  0  0  0  0  0  0  0  0  0  0
   -3.2660    5.7080    1.8900 C   0  0  0  0  0  0  0  0  0  0  0  0
   -2.7690    6.4510    2.5560 N   0  0  0  0  0  0  0  0  0  0  0  0
  1  2  1  0
  2  3  1  0
  3  4  1  0
  4  5  2  0
  4 46  1  0
  5  6  1  0
  6  7  2  0
  7  8  1  0
  7 45  1  0
  8  9  2  3
  9 10  1  0
  9 14  1  0
 10 11  2  0
 11 12  1  0
 11 43  1  0
 12 13  2  0
 12 34  1  0
 13 14  1  0
 14 15  1  0
 15 16  2  3
 16 17  1  0
 16 18  1  0
 18 19  1  6
 18 20  1  0
 18 21  1  0
 21 22  2  0
 21 23  1  0
 23 24  1  0
 25 24  1  1
 25 26  1  0
 25 33  1  0
 26 27  1  0
 27 28  1  0
 27 31  1  0
 28 29  1  0
 29 30  1  0
 31 30  1  1
 31 32  1  0
 32 33  1  0
 34 35  1  6
 34 41  1  0
 35 36  2  0
 35 40  1  0
 36 37  1  0
 37 38  2  0
 38 39  1  0
 39 40  2  0
 41 42  1  0
 41 43  2  0
 43 44  1  0
 45 46  2  0
 46 47  1  0
 47 48  3  0
M  CHG  2   2   1   8   1
M  END
