
     RDKit          3D

 47 52  0  0  0  0  0  0  0  0999 V2000
    2.4460   -3.1800    3.6330 C   0  0  0  0  0  0  0  0  0  0  0  0
    2.4880   -3.8560    2.2950 C   0  0  0  0  0  0  0  0  0  0  0  0
    2.1130   -2.8830    1.2340 C   0  0  0  0  0  0  0  0  0  0  0  0
    0.9480   -2.8240    0.6100 N   0  0  0  0  0  0  0  0  0  0  0  0
    0.9290   -1.8510   -0.2740 N   0  0  0  0  0  0  0  0  0  0  0  0
   -0.1560   -1.4890   -1.1200 C   0  0  0  0  0  0  0  0  0  0  0  0
   -0.0870   -1.6670   -2.4820 C   0  0  0  0  0  0  0  0  0  0  0  0
   -1.1710   -1.2950   -3.2450 C   0  0  0  0  0  0  0  0  0  0  0  0
   -2.3220   -0.7450   -2.6520 C   0  0  0  0  0  0  0  0  0  0  0  0
   -2.3820   -0.5720   -1.2980 C   0  0  0  0  0  0  0  0  0  0  0  0
   -3.6000    0.0020   -0.6990 N   0  0  0  0  0  0  0  0  0  0  0  0
   -3.7370    1.4070   -0.9250 C   0  0  0  0  0  0  0  0  0  0  0  0
   -3.0110    2.2370    0.1500 C   0  0  0  0  0  0  0  0  0  0  0  0
   -3.1310    3.6890   -0.1650 C   0  0  0  0  0  0  0  0  0  0  0  0
   -4.3880    4.2350   -0.1350 O   0  0  0  0  0  0  0  0  0  0  0  0
   -4.9180    4.2850    1.1400 C   0  0  0  0  0  0  0  0  0  0  0  0
   -4.4460   -0.8220    0.0240 C   0  0  0  0  0  0  0  0  0  0  0  0
   -3.9570   -2.0700    0.1330 O   0  0  0  0  0  0  0  0  0  0  0  0
   -5.7230   -0.6470    0.6780 C   0  0  0  0  0  0  0  0  0  0  0  0
   -6.4100    0.5740    0.6720 N   0  0  2  0  0  0  0  0  0  0  0  0
   -7.2780    0.7130    1.8730 C   0  0  0  0  0  0  0  0  0  0  0  0
   -8.1780   -0.4640    2.0160 C   0  0  0  0  0  0  0  0  0  0  0  0
   -8.7780   -0.8910    0.7510 C   0  0  0  0  0  0  0  0  0  0  0  0
   -9.7850   -1.8240    0.7590 C   0  0  0  0  0  0  0  0  0  0  0  0
  -10.3590   -2.2320   -0.4380 C   0  0  0  0  0  0  0  0  0  0  0  0
   -9.9290   -1.7060   -1.6410 C   0  0  0  0  0  0  0  0  0  0  0  0
   -8.9200   -0.7710   -1.6510 C   0  0  0  0  0  0  0  0  0  0  0  0
   -8.3610   -0.3790   -0.4420 C   0  0  0  0  0  0  0  0  0  0  0  0
   -7.2790    0.6250   -0.5140 C   0  0  0  0  0  0  0  0  0  0  0  0
   -1.3090   -0.9390   -0.5330 C   0  0  0  0  0  0  0  0  0  0  0  0
    2.1690   -1.2430   -0.2120 C   0  0  0  0  0  0  0  0  0  0  0  0
    2.4380   -0.0980   -1.0870 C   0  0  0  0  0  0  0  0  0  0  0  0
    2.2970    1.1830   -0.3370 C   0  0  0  0  0  0  0  0  0  0  0  0
    2.9450   -1.8430    0.7070 C   0  0  0  0  0  0  0  0  0  0  0  0
    4.2990   -1.6610    1.1990 C   0  0  0  0  0  0  0  0  0  0  0  0
    5.1630   -0.6550    0.7140 N   0  0  0  0  0  0  0  0  0  0  0  0
    5.1760    0.5850    1.4330 C   0  0  0  0  0  0  0  0  0  0  0  0
    5.8080    1.7200    0.7180 C   0  0  0  0  0  0  0  0  0  0  0  0
    6.1920    1.5300   -0.6890 C   0  0  0  0  0  0  0  0  0  0  0  0
    7.5310    0.8870   -0.9550 C   0  0  1  0  0  0  0  0  0  0  0  0
    8.6190    1.3970   -0.0990 C   0  0  0  0  0  0  0  0  0  0  0  0
    9.9880    0.8720   -0.2890 C   0  0  2  0  0  0  0  0  0  0  0  0
   10.5360    1.1400   -1.6980 C   0  0  0  0  0  0  0  0  0  0  0  0
   10.4450   -0.2400   -1.0920 C   0  0  0  0  0  0  0  0  0  0  0  0
    7.3300   -0.6060   -0.8520 C   0  0  0  0  0  0  0  0  0  0  0  0
    5.9850   -1.0180   -0.4010 C   0  0  0  0  0  0  0  0  0  0  0  0
    5.4590   -1.8840   -1.1820 O   0  0  0  0  0  0  0  0  0  0  0  0
  1  2  1  0
  2  3  1  0
  3  4  2  0
  3 34  1  0
  4  5  1  0
  5  6  1  0
  5 31  1  0
  6  7  2  0
  6 30  1  0
  7  8  1  0
  8  9  2  0
  9 10  1  0
 10 11  1  0
 10 30  2  0
 11 12  1  0
 11 17  1  0
 12 13  1  0
 13 14  1  0
 14 15  1  0
 15 16  1  0
 17 18  2  0
 17 19  1  0
 20 19  1  1
 20 21  1  0
 20 29  1  0
 21 22  1  0
 22 23  1  0
 23 24  2  0
 23 28  1  0
 24 25  1  0
 25 26  2  0
 26 27  1  0
 27 28  2  0
 28 29  1  0
 31 32  1  0
 31 34  2  0
 32 33  1  0
 34 35  1  0
 35 36  1  0
 36 37  1  0
 36 46  1  0
 37 38  1  0
 38 39  1  0
 39 40  1  0
 40 41  1  1
 40 45  1  0
 42 41  1  6
 42 43  1  0
 42 44  1  0
 43 44  1  0
 45 46  1  0
 46 47  2  0
M  CHG  1  20   1
M  END
