
     RDKit          3D

 40 43  0  0  0  0  0  0  0  0999 V2000
   -3.3140   -1.3900   -2.0370 C   0  0  0  0  0  0  0  0  0  0  0  0
   -1.9410   -1.0700   -1.6150 C   0  0  0  0  0  0  0  0  0  0  0  0
   -1.8140   -0.2420   -0.2990 C   0  0  1  0  0  0  0  0  0  0  0  0
   -0.2340   -0.1670   -0.3180 C   0  0  0  0  0  0  0  0  0  0  0  0
    0.3880    0.5660    0.7270 C   0  0  0  0  0  0  0  0  0  0  0  0
   -0.1920    1.1210    1.6810 O   0  0  0  0  0  0  0  0  0  0  0  0
    1.8050    0.7010    0.7180 N   0  0  0  0  0  0  0  0  0  0  0  0
    2.5380    1.4240    1.7320 C   0  0  0  0  0  0  0  0  0  0  0  0
    3.6340    2.2930    1.1410 C   0  0  0  0  0  0  0  0  0  0  0  0
    4.4450    1.5770    0.1150 C   0  0  0  0  0  0  0  0  0  0  0  0
    4.0510    0.1240   -0.0360 C   0  0  2  0  0  0  0  0  0  0  0  0
    4.7600   -0.5490   -1.1670 C   0  0  0  0  0  0  0  0  0  0  0  0
    6.1820   -0.5520   -1.0410 N   0  0  0  0  0  0  0  0  0  0  0  0
    6.8220   -1.1720    0.0660 C   0  0  0  0  0  0  0  0  0  0  0  0
    6.0720   -1.7150    0.9260 O   0  0  0  0  0  0  0  0  0  0  0  0
    8.2420   -1.1670    0.1770 C   0  0  0  0  0  0  0  0  0  0  0  0
    9.2690   -0.6560   -0.6090 C   0  0  0  0  0  0  0  0  0  0  0  0
   10.5270   -0.8030   -0.2530 C   0  0  0  0  0  0  0  0  0  0  0  0
   10.9010   -1.4540    0.8860 C   0  0  0  0  0  0  0  0  0  0  0  0
    9.2130   -1.9240    1.5450 S   0  0  0  0  0  0  0  0  0  0  0  0
    2.5520    0.0900   -0.3490 C   0  0  0  0  0  0  0  0  0  0  0  0
   -2.0620    1.1480   -0.4610 C   0  0  0  0  0  0  0  0  0  0  0  0
   -3.1350    1.9950   -0.9500 C   0  0  2  0  0  0  0  0  0  0  0  0
   -4.4480    1.9300   -0.2510 C   0  0  0  0  0  0  0  0  0  0  0  0
   -4.4100    1.9840    1.1130 O   0  0  0  0  0  0  0  0  0  0  0  0
   -3.1890    2.2740   -2.4070 C   0  0  0  0  0  0  0  0  0  0  0  0
   -4.0300    3.5300   -2.4760 C   0  0  0  0  0  0  0  0  0  0  0  0
   -3.5780    4.1820   -1.2080 C   0  0  0  0  0  0  0  0  0  0  0  0
   -2.7260    3.3400   -0.5680 O   0  0  0  0  0  0  0  0  0  0  0  0
   -2.0860   -1.1080    0.8510 C   0  0  0  0  0  0  0  0  0  0  0  0
   -1.0950   -1.6080    1.5760 C   0  0  0  0  0  0  0  0  0  0  0  0
   -1.1950   -2.4980    2.7820 C   0  0  2  0  0  0  0  0  0  0  0  0
   -0.2850   -3.5560    2.7120 O   0  0  0  0  0  0  0  0  0  0  0  0
   -2.5270   -3.0300    3.0640 C   0  0  0  0  0  0  0  0  0  0  0  0
   -3.5820   -2.4490    2.2340 C   0  0  0  0  0  0  0  0  0  0  0  0
   -3.4120   -1.6030    1.2570 C   0  0  0  0  0  0  0  0  0  0  0  0
   -4.5600   -1.1840    0.6010 O   0  0  0  0  0  0  0  0  0  0  0  0
   -5.6860   -2.0080    0.4120 C   0  0  0  0  0  0  0  0  0  0  0  0
   -6.7490   -1.2200   -0.3150 C   0  0  0  0  0  0  0  0  0  0  0  0
   -7.1080   -0.1190    0.4620 O   0  0  0  0  0  0  0  0  0  0  0  0
  1  2  1  0
  3  2  1  6
  3  4  1  0
  3 22  1  0
  3 30  1  0
  4  5  1  0
  5  6  2  0
  5  7  1  0
  7  8  1  0
  7 21  1  0
  8  9  1  0
  9 10  1  0
 10 11  1  0
 11 12  1  6
 11 21  1  0
 12 13  1  0
 13 14  1  0
 14 15  2  0
 14 16  1  0
 16 17  2  0
 16 20  1  0
 17 18  1  0
 18 19  2  0
 19 20  1  0
 23 22  1  6
 23 24  1  0
 23 26  1  0
 23 29  1  0
 24 25  1  0
 26 27  1  0
 27 28  1  0
 28 29  1  0
 30 31  2  0
 30 36  1  0
 31 32  1  0
 32 33  1  6
 32 34  1  0
 34 35  1  0
 35 36  2  0
 36 37  1  0
 37 38  1  0
 38 39  1  0
 39 40  1  0
M  END
