
     RDKit          3D

 48 54  0  0  0  0  0  0  0  0999 V2000
   13.2550   -1.2770   -1.8570 C   0  0  0  0  0  0  0  0  0  0  0  0
   13.4310    0.2200   -1.4790 C   0  0  0  0  0  0  0  0  0  0  0  0
   12.0820    0.8120   -1.7230 C   0  0  0  0  0  0  0  0  0  0  0  0
   11.4830    0.9490   -2.8560 O   0  0  0  0  0  0  0  0  0  0  0  0
   10.3250    1.4410   -2.7200 N   0  0  0  0  0  0  0  0  0  0  0  0
   10.1050    1.6750   -1.3500 C   0  0  0  0  0  0  0  0  0  0  0  0
   11.2360    1.2740   -0.7110 C   0  0  0  0  0  0  0  0  0  0  0  0
   11.6710    1.4660    0.7250 C   0  0  0  0  0  0  0  0  0  0  0  0
   10.9650    0.5800    1.5110 O   0  0  0  0  0  0  0  0  0  0  0  0
    9.6660    0.4390    1.8230 C   0  0  0  0  0  0  0  0  0  0  0  0
    9.1710   -0.6760    2.4900 C   0  0  0  0  0  0  0  0  0  0  0  0
    7.8060   -0.7750    2.7140 C   0  0  0  0  0  0  0  0  0  0  0  0
    6.9980    0.2330    2.2890 C   0  0  0  0  0  0  0  0  0  0  0  0
    5.5450    0.0150    1.9560 C   0  0  0  0  0  0  0  0  0  0  0  0
    5.2790   -1.2510    1.5000 C   0  0  0  0  0  0  0  0  0  0  0  0
    4.1080   -1.5260    0.8120 C   0  0  0  0  0  0  0  0  0  0  0  0
    3.1990   -0.5090    0.5770 C   0  0  0  0  0  0  0  0  0  0  0  0
    2.0240   -0.7140   -0.2510 C   0  0  1  0  0  0  0  0  0  0  0  0
    1.8830   -2.0070   -0.9720 C   0  0  0  0  0  0  0  0  0  0  0  0
    0.6570   -1.5530   -1.8600 C   0  0  0  0  0  0  0  0  0  0  0  0
   -0.1280   -0.6730   -0.8600 C   0  0  0  0  0  0  0  0  0  0  0  0
    0.7810   -0.3020    0.2090 N   0  0  1  0  0  0  0  0  0  0  0  0
    0.3320   -0.8850    1.4620 C   0  0  0  0  0  0  0  0  0  0  0  0
   -1.1930   -0.8470    1.2900 C   0  0  0  0  0  0  0  0  0  0  0  0
   -1.9090   -1.9840    1.2780 C   0  0  0  0  0  0  0  0  0  0  0  0
   -3.2550   -1.9320    0.8270 C   0  0  0  0  0  0  0  0  0  0  0  0
   -3.7800   -0.7380    0.4250 C   0  0  0  0  0  0  0  0  0  0  0  0
   -5.0510   -0.7010   -0.2870 N   0  0  0  0  0  0  0  0  0  0  0  0
   -5.9120    0.4060   -0.2080 C   0  0  0  0  0  0  0  0  0  0  0  0
   -6.6250    0.5130   -1.6280 C   0  0  0  0  0  0  0  0  0  0  0  0
   -7.3750   -0.7260   -1.5500 N   0  0  0  0  0  0  0  0  0  0  0  0
   -8.6800   -0.8170   -1.1090 C   0  0  0  0  0  0  0  0  0  0  0  0
   -9.0590   -2.0440   -0.8530 O   0  0  0  0  0  0  0  0  0  0  0  0
   -9.6840    0.2200   -0.8720 C   0  0  2  0  0  0  0  0  0  0  0  0
   -9.4900    1.4630   -1.6220 C   0  0  0  0  0  0  0  0  0  0  0  0
  -10.3120    0.2150    0.3880 N   0  0  2  0  0  0  0  0  0  0  0  0
  -11.6220   -0.3290    0.4680 C   0  0  0  0  0  0  0  0  0  0  0  0
  -12.5890    0.7890    0.7650 C   0  0  0  0  0  0  0  0  0  0  0  0
  -11.7620    1.9230    1.2650 C   0  0  0  0  0  0  0  0  0  0  0  0
  -10.3540    1.4640    1.0690 C   0  0  0  0  0  0  0  0  0  0  0  0
   -6.5500   -1.8910   -1.9320 C   0  0  0  0  0  0  0  0  0  0  0  0
   -5.2970   -1.8640   -1.1460 C   0  0  0  0  0  0  0  0  0  0  0  0
   -3.0380    0.4090    0.4630 C   0  0  0  0  0  0  0  0  0  0  0  0
   -1.7020    0.3870    0.9040 C   0  0  0  0  0  0  0  0  0  0  0  0
    3.4780    0.7530    1.0460 C   0  0  0  0  0  0  0  0  0  0  0  0
    4.6670    1.0340    1.7510 C   0  0  0  0  0  0  0  0  0  0  0  0
    7.4820    1.3520    1.6660 C   0  0  0  0  0  0  0  0  0  0  0  0
    8.8380    1.4750    1.4170 C   0  0  0  0  0  0  0  0  0  0  0  0
  1  2  1  0
  2  3  1  0
  3  4  1  0
  3  7  2  0
  4  5  1  0
  5  6  2  0
  6  7  1  0
  7  8  1  0
  8  9  1  0
  9 10  1  0
 10 11  2  0
 10 48  1  0
 11 12  1  0
 12 13  2  0
 13 14  1  0
 13 47  1  0
 14 15  2  0
 14 46  1  0
 15 16  1  0
 16 17  2  0
 18 17  1  1
 17 45  1  0
 18 19  1  0
 18 22  1  0
 19 20  1  0
 20 21  1  0
 21 22  1  0
 22 23  1  1
 23 24  1  0
 24 25  2  0
 24 44  1  0
 25 26  1  0
 26 27  2  0
 27 28  1  0
 27 43  1  0
 28 29  1  0
 28 42  1  0
 29 30  1  0
 30 31  1  0
 31 32  1  0
 31 41  1  0
 32 33  2  0
 32 34  1  0
 34 35  1  1
 34 36  1  0
 36 37  1  6
 36 40  1  0
 37 38  1  0
 38 39  1  0
 39 40  1  0
 41 42  1  0
 43 44  2  0
 45 46  2  0
 47 48  2  0
M  CHG  2  22   1  36   1
M  END
