
     RDKit          3D

 41 44  0  0  0  0  0  0  0  0999 V2000
    8.8790    1.3850    0.1050 C   0  0  0  0  0  0  0  0  0  0  0  0
    7.8660    0.2910    0.4600 C   0  0  0  0  0  0  0  0  0  0  0  0
    6.5960    0.9660    0.7740 C   0  0  2  0  0  0  0  0  0  0  0  0
    6.8400    1.9160    1.9560 C   0  0  0  0  0  0  0  0  0  0  0  0
    5.3900    0.2020    1.0850 C   0  0  2  0  0  0  0  0  0  0  0  0
    5.4620   -0.7250    2.2790 C   0  0  0  0  0  0  0  0  0  0  0  0
    4.2170   -1.9760    2.2470 S   0  0  1  0  0  0  0  0  0  0  0  0
    4.6340   -3.1520    3.0830 O   0  0  0  0  0  0  0  0  0  0  0  0
    2.9580   -1.4320    2.9110 O   0  0  0  0  0  0  0  0  0  0  0  0
    3.7150   -2.4570    0.6130 C   0  0  0  0  0  0  0  0  0  0  0  0
    4.7450   -1.8020   -0.3340 C   0  0  1  0  0  0  0  0  0  0  0  0
    5.9750   -2.5600   -0.1890 C   0  0  0  0  0  0  0  0  0  0  0  0
    6.4820   -2.6850   -1.6350 C   0  0  0  0  0  0  0  0  0  0  0  0
    5.2430   -3.1270   -2.1810 O   0  0  0  0  0  0  0  0  0  0  0  0
    4.3950   -2.0370   -1.7850 C   0  0  0  0  0  0  0  0  0  0  0  0
    4.6650   -0.4140   -0.0250 N   0  0  0  0  0  0  0  0  0  0  0  0
    3.7880    0.3790   -0.8140 C   0  0  0  0  0  0  0  0  0  0  0  0
    3.0590   -0.0510   -1.7560 O   0  0  0  0  0  0  0  0  0  0  0  0
    3.6150    1.7980   -0.6390 N   0  0  0  0  0  0  0  0  0  0  0  0
    2.7280    2.5990   -1.4390 C   0  0  0  0  0  0  0  0  0  0  0  0
    1.2970    2.4730   -1.0880 C   0  0  0  0  0  0  0  0  0  0  0  0
    0.3360    3.2740   -1.6670 C   0  0  0  0  0  0  0  0  0  0  0  0
   -1.0040    3.1710   -1.3550 C   0  0  0  0  0  0  0  0  0  0  0  0
   -1.4450    2.2450   -0.4340 C   0  0  0  0  0  0  0  0  0  0  0  0
   -2.8840    2.1460   -0.1020 C   0  0  0  0  0  0  0  0  0  0  0  0
   -3.6640    2.9380   -0.6640 O   0  0  0  0  0  0  0  0  0  0  0  0
   -3.3890    1.2560    0.7660 O   0  0  0  0  0  0  0  0  0  0  0  0
   -4.6340    0.9560    1.2340 C   0  0  0  0  0  0  0  0  0  0  0  0
   -5.6760    0.4500    0.3020 C   0  0  2  0  0  0  0  0  0  0  0  0
   -5.2760   -0.7080   -0.3710 O   0  0  0  0  0  0  0  0  0  0  0  0
   -6.2820    1.4970   -0.5770 C   0  0  0  0  0  0  0  0  0  0  0  0
   -7.7730    1.2560   -0.8080 C   0  0  0  0  0  0  0  0  0  0  0  0
   -8.0410   -0.2320   -0.9620 C   0  0  0  0  0  0  0  0  0  0  0  0
   -7.8530   -0.8290    0.4220 C   0  0  1  0  0  0  0  0  0  0  0  0
   -9.2020   -0.6290    1.1280 C   0  0  0  0  0  0  0  0  0  0  0  0
   -7.5920   -2.2960    0.3570 C   0  0  0  0  0  0  0  0  0  0  0  0
   -8.7770   -2.9930   -0.3130 C   0  0  0  0  0  0  0  0  0  0  0  0
   -8.4970   -4.3460   -0.3540 O   0  0  0  0  0  0  0  0  0  0  0  0
   -6.8510   -0.0500    1.1960 C   0  0  0  0  0  0  0  0  0  0  0  0
   -0.4940    1.4410    0.1500 C   0  0  0  0  0  0  0  0  0  0  0  0
    0.8670    1.5450   -0.1660 C   0  0  0  0  0  0  0  0  0  0  0  0
  1  2  1  0
  2  3  1  0
  3  4  1  1
  3  5  1  0
  5  6  1  1
  5 16  1  0
  7  6  1  6
  7  8  2  0
  7  9  2  0
  7 10  1  0
 11 10  1  1
 11 12  1  0
 11 15  1  0
 11 16  1  0
 12 13  1  0
 13 14  1  0
 14 15  1  0
 16 17  1  0
 17 18  2  0
 17 19  1  0
 19 20  1  0
 20 21  1  0
 21 22  2  0
 21 41  1  0
 22 23  1  0
 23 24  2  0
 24 25  1  0
 24 40  1  0
 25 26  2  0
 25 27  1  0
 27 28  1  0
 28 29  1  0
 29 30  1  6
 29 31  1  0
 29 39  1  0
 31 32  1  0
 32 33  1  0
 33 34  1  0
 34 35  1  1
 34 36  1  0
 34 39  1  0
 36 37  1  0
 37 38  1  0
 40 41  2  0
M  END
