
     RDKit          3D

 47 52  0  0  0  0  0  0  0  0999 V2000
    6.6920   -4.0120   -1.5640 C   0  0  0  0  0  0  0  0  0  0  0  0
    6.9200   -2.5050   -1.3230 C   0  0  0  0  0  0  0  0  0  0  0  0
    6.4210   -2.2130    0.0080 N   0  0  1  0  0  0  0  0  0  0  0  0
    7.5800   -2.7900    0.8530 C   0  0  0  0  0  0  0  0  0  0  0  0
    6.3000   -0.8620    0.3650 C   0  0  1  0  0  0  0  0  0  0  0  0
    7.4580   -0.0370   -0.1570 C   0  0  0  0  0  0  0  0  0  0  0  0
    7.7340   -0.2000   -1.3580 O   0  0  0  0  0  0  0  0  0  0  0  0
    8.2120    0.8540    0.5990 N   0  0  0  0  0  0  0  0  0  0  0  0
    9.2920    1.6660    0.1970 C   0  0  0  0  0  0  0  0  0  0  0  0
    9.9420    2.4310    1.1740 C   0  0  0  0  0  0  0  0  0  0  0  0
   11.0040    3.2410    0.8460 C   0  0  0  0  0  0  0  0  0  0  0  0
   11.4820    3.3410   -0.4500 C   0  0  0  0  0  0  0  0  0  0  0  0
   10.8580    2.5990   -1.4180 C   0  0  0  0  0  0  0  0  0  0  0  0
    9.7700    1.7700   -1.0820 C   0  0  0  0  0  0  0  0  0  0  0  0
    5.0220   -0.1370    0.2650 C   0  0  0  0  0  0  0  0  0  0  0  0
    5.0010    1.1520    0.8450 C   0  0  0  0  0  0  0  0  0  0  0  0
    3.8310    1.8550    0.8320 C   0  0  0  0  0  0  0  0  0  0  0  0
    3.8240    3.1040    1.4530 C   0  0  0  0  0  0  0  0  0  0  0  0
    2.6460    3.8100    1.4970 C   0  0  0  0  0  0  0  0  0  0  0  0
    1.5030    3.2990    0.9430 C   0  0  0  0  0  0  0  0  0  0  0  0
    1.5170    2.0460    0.3210 C   0  0  0  0  0  0  0  0  0  0  0  0
    2.6780    1.3560    0.2750 C   0  0  0  0  0  0  0  0  0  0  0  0
    2.6910    0.1070   -0.2970 C   0  0  0  0  0  0  0  0  0  0  0  0
    3.8700   -0.6190   -0.2870 C   0  0  0  0  0  0  0  0  0  0  0  0
    3.5620   -1.7860   -0.9190 C   0  0  0  0  0  0  0  0  0  0  0  0
    2.3010   -1.7180   -1.2640 N   0  0  0  0  0  0  0  0  0  0  0  0
    1.7060   -0.5340   -0.8970 N   0  0  0  0  0  0  0  0  0  0  0  0
    0.3770   -0.4010   -1.2670 C   0  0  0  0  0  0  0  0  0  0  0  0
   -0.0920   -1.6240   -1.6470 O   0  0  0  0  0  0  0  0  0  0  0  0
   -0.7190    0.5030   -1.4300 C   0  0  0  0  0  0  0  0  0  0  0  0
   -1.7930    0.4980   -0.3730 C   0  0  0  0  0  0  0  0  0  0  0  0
   -2.4670   -0.7950   -0.2550 N   0  0  1  0  0  0  0  0  0  0  0  0
   -1.9310   -1.5640    0.8510 C   0  0  0  0  0  0  0  0  0  0  0  0
   -3.8660   -0.5030   -0.1090 C   0  0  0  0  0  0  0  0  0  0  0  0
   -4.7010   -1.6200    0.4220 C   0  0  0  0  0  0  0  0  0  0  0  0
   -6.0670   -1.1430    0.5020 N   0  0  2  0  0  0  0  0  0  0  0  0
   -6.7070   -1.4220    1.7630 C   0  0  0  0  0  0  0  0  0  0  0  0
   -7.8170   -0.3830    1.9320 C   0  0  0  0  0  0  0  0  0  0  0  0
   -8.9300   -0.5490    0.9580 C   0  0  0  0  0  0  0  0  0  0  0  0
   -8.7230    0.0800   -0.3810 C   0  0  2  0  0  0  0  0  0  0  0  0
   -8.4330    1.5520   -0.3430 C   0  0  0  0  0  0  0  0  0  0  0  0
   -9.5590    2.3420    0.3330 C   0  0  0  0  0  0  0  0  0  0  0  0
  -10.6680    2.1920   -0.4920 O   0  0  0  0  0  0  0  0  0  0  0  0
  -11.1040    0.8780   -0.5590 C   0  0  0  0  0  0  0  0  0  0  0  0
  -10.0610   -0.0630   -1.1250 C   0  0  0  0  0  0  0  0  0  0  0  0
   -7.6990   -0.5850   -1.2370 C   0  0  0  0  0  0  0  0  0  0  0  0
   -6.9200   -1.6800   -0.5430 C   0  0  0  0  0  0  0  0  0  0  0  0
  1  2  1  0
  2  3  1  0
  3  4  1  1
  3  5  1  0
  5  6  1  6
  5 15  1  0
  6  7  2  0
  6  8  1  0
  8  9  1  0
  9 10  2  0
  9 14  1  0
 10 11  1  0
 11 12  2  0
 12 13  1  0
 13 14  2  0
 15 16  2  0
 15 24  1  0
 16 17  1  0
 17 18  2  0
 17 22  1  0
 18 19  1  0
 19 20  2  0
 20 21  1  0
 21 22  2  0
 22 23  1  0
 23 24  2  0
 23 27  1  0
 24 25  1  0
 25 26  2  0
 26 27  1  0
 27 28  1  0
 28 29  2  0
 28 30  1  0
 30 31  1  0
 31 32  1  0
 32 33  1  1
 32 34  1  0
 34 35  1  0
 36 35  1  1
 36 37  1  0
 36 47  1  0
 37 38  1  0
 38 39  1  0
 40 39  1  1
 40 41  1  0
 40 45  1  0
 40 46  1  0
 41 42  1  0
 42 43  1  0
 43 44  1  0
 44 45  1  0
 46 47  1  0
M  CHG  3   3   1  32   1  36   1
M  END
