
     RDKit          3D

 12 11  0  0  0  0  0  0  0  0999 V2000
   -3.1490   -1.1690   -2.4640 O   0  0  0  0  0  0  0  0  0  0  0  0
   -2.5670   -0.1320   -1.7050 C   0  0  0  0  0  0  0  0  0  0  0  0
   -1.1410    0.0330   -2.1810 C   0  0  0  0  0  0  0  0  0  0  0  0
   -0.4470    1.0120   -1.5280 O   0  0  0  0  0  0  0  0  0  0  0  0
   -0.3160    0.8450   -0.1710 C   0  0  2  0  0  0  0  0  0  0  0  0
   -0.8920    2.1010    0.4900 C   0  0  0  0  0  0  0  0  0  0  0  0
   -0.7930    2.0020    1.8810 O   0  0  0  0  0  0  0  0  0  0  0  0
    1.0460    0.8400    0.1560 O   0  0  0  0  0  0  0  0  0  0  0  0
    1.3820   -0.2900    0.8980 C   0  0  0  0  0  0  0  0  0  0  0  0
    2.7420   -0.2310    1.1870 O   0  0  0  0  0  0  0  0  0  0  0  0
    3.1610   -1.3150    1.9210 C   0  0  0  0  0  0  0  0  0  0  0  0
    2.9170   -2.4810    1.1960 O   0  0  0  0  0  0  0  0  0  0  0  0
  1  2  1  0
  2  3  1  0
  3  4  1  0
  4  5  1  0
  5  6  1  1
  5  8  1  0
  6  7  1  0
  8  9  1  0
  9 10  1  0
 10 11  1  0
 11 12  1  0
M  END
