
     RDKit          3D

 12 11  0  0  0  0  0  0  0  0999 V2000
    2.9020    1.5030    1.1990 O   0  0  0  0  0  0  0  0  0  0  0  0
    3.6070    0.3160    1.0140 C   0  0  0  0  0  0  0  0  0  0  0  0
    2.7980   -0.7070    0.2780 C   0  0  0  0  0  0  0  0  0  0  0  0
    2.3850   -0.3610   -0.9620 O   0  0  0  0  0  0  0  0  0  0  0  0
    1.5880    0.7290   -1.1120 C   0  0  0  0  0  0  0  0  0  0  0  0
    0.3730    0.6280   -0.4100 O   0  0  0  0  0  0  0  0  0  0  0  0
   -0.3170   -0.4830   -0.8870 C   0  0  0  0  0  0  0  0  0  0  0  0
   -1.6310   -0.6940   -0.2130 C   0  0  0  0  0  0  0  0  0  0  0  0
   -2.5070    0.3540   -0.3520 O   0  0  0  0  0  0  0  0  0  0  0  0
   -3.6930    0.0640    0.3050 C   0  0  1  0  0  0  0  0  0  0  0  0
   -3.9850    1.0260    1.2850 O   0  0  0  0  0  0  0  0  0  0  0  0
   -4.7050    0.0200   -0.6520 O   0  0  0  0  0  0  0  0  0  0  0  0
  1  2  1  0
  2  3  1  0
  3  4  1  0
  4  5  1  0
  5  6  1  0
  6  7  1  0
  7  8  1  0
  8  9  1  0
  9 10  1  0
 10 11  1  1
 10 12  1  0
M  END
