
     RDKit          3D

 12 11  0  0  0  0  0  0  0  0999 V2000
    3.7500    1.7170   -0.0040 O   0  0  0  0  0  0  0  0  0  0  0  0
    3.9660    0.3310    0.0910 C   0  0  0  0  0  0  0  0  0  0  0  0
    2.7560   -0.3450    0.3170 O   0  0  0  0  0  0  0  0  0  0  0  0
    1.9420   -0.0400   -0.7880 C   0  0  0  0  0  0  0  0  0  0  0  0
    0.7050   -0.6360   -0.7150 O   0  0  0  0  0  0  0  0  0  0  0  0
    0.0220   -0.2220    0.4220 C   0  0  0  0  0  0  0  0  0  0  0  0
   -1.3300   -0.8680    0.5090 C   0  0  2  0  0  0  0  0  0  0  0  0
   -1.1520   -2.2460    0.5580 O   0  0  0  0  0  0  0  0  0  0  0  0
   -2.2130   -0.5560   -0.6650 C   0  0  1  0  0  0  0  0  0  0  0  0
   -3.4310   -1.2230   -0.4490 O   0  0  0  0  0  0  0  0  0  0  0  0
   -2.5400    0.9120   -0.7750 C   0  0  0  0  0  0  0  0  0  0  0  0
   -3.1440    1.3180    0.4280 O   0  0  0  0  0  0  0  0  0  0  0  0
  1  2  1  0
  2  3  1  0
  3  4  1  0
  4  5  1  0
  5  6  1  0
  6  7  1  0
  7  8  1  6
  7  9  1  0
  9 10  1  1
  9 11  1  0
 11 12  1  0
M  END
