
     RDKit          3D

 19 21  0  0  0  0  0  0  0  0999 V2000
   -3.4020    2.5770    0.7800 N   0  0  0  0  0  0  0  0  0  0  0  0
   -3.0430    1.1760    0.6760 C   0  0  1  0  0  0  0  0  0  0  0  0
   -3.4650    0.6710   -0.6700 C   0  0  0  0  0  0  0  0  0  0  0  0
   -2.5110   -0.4420   -0.9610 C   0  0  0  0  0  0  0  0  0  0  0  0
   -1.3950   -0.2800   -0.0140 N   0  0  0  0  0  0  0  0  0  0  0  0
   -0.4350   -1.3180    0.1590 C   0  0  0  0  0  0  0  0  0  0  0  0
   -0.7380   -2.2390    1.0300 N   0  0  0  0  0  0  0  0  0  0  0  0
    0.0100   -3.3810    1.4110 N   0  0  0  0  0  0  0  0  0  0  0  0
    1.0030   -4.0720    0.6390 C   0  0  0  0  0  0  0  0  0  0  0  0
    1.7510   -3.5940   -0.3410 C   0  0  0  0  0  0  0  0  0  0  0  0
    1.7240   -2.2190   -0.8590 C   0  0  0  0  0  0  0  0  0  0  0  0
    0.7900   -1.2820   -0.6310 C   0  0  0  0  0  0  0  0  0  0  0  0
    1.0330   -0.0930   -1.2470 O   0  0  0  0  0  0  0  0  0  0  0  0
    1.9570    0.8820   -0.9740 C   0  0  1  0  0  0  0  0  0  0  0  0
    1.8740    1.5220    0.3940 C   0  0  0  0  0  0  0  0  0  0  0  0
    3.2650    2.1690    0.4500 C   0  0  0  0  0  0  0  0  0  0  0  0
    4.0290    1.6050   -0.5380 O   0  0  0  0  0  0  0  0  0  0  0  0
    3.4030    0.4370   -0.9600 C   0  0  0  0  0  0  0  0  0  0  0  0
   -1.5170    1.0170    0.6010 C   0  0  0  0  0  0  0  0  0  0  0  0
  2  1  1  6
  2  3  1  0
  2 19  1  0
  3  4  1  0
  4  5  1  0
  5  6  1  0
  5 19  1  0
  6  7  2  0
  6 12  1  0
  7  8  1  0
  8  9  1  0
  9 10  2  0
 10 11  1  0
 11 12  2  0
 12 13  1  0
 14 13  1  1
 14 15  1  0
 14 18  1  0
 15 16  1  0
 16 17  1  0
 17 18  1  0
M  CHG  1   1   1
M  END
