
     RDKit          3D

 12 11  0  0  0  0  0  0  0  0999 V2000
    1.0700    1.3110    0.2470 O   0  0  0  0  0  0  0  0  0  0  0  0
    0.8040    0.0720    0.3070 C   0  0  0  0  0  0  0  0  0  0  0  0
   -0.5610   -0.4110   -0.0440 C   0  0  0  0  0  0  0  0  0  0  0  0
   -1.4030    0.6070   -0.4090 O   0  0  0  0  0  0  0  0  0  0  0  0
   -2.6590    0.0970   -0.7250 C   0  0  2  0  0  0  0  0  0  0  0  0
   -2.9530    0.3270   -2.0800 O   0  0  0  0  0  0  0  0  0  0  0  0
   -3.7370    0.6770    0.1630 C   0  0  0  0  0  0  0  0  0  0  0  0
   -4.9460    0.0970   -0.2450 O   0  0  0  0  0  0  0  0  0  0  0  0
    1.8220   -0.7580    0.7030 O   0  0  0  0  0  0  0  0  0  0  0  0
    3.1190   -0.3570    1.0430 C   0  0  0  0  0  0  0  0  0  0  0  0
    3.8360    0.3470   -0.0900 C   0  0  0  0  0  0  0  0  0  0  0  0
    5.1000    0.6960    0.3580 O   0  0  0  0  0  0  0  0  0  0  0  0
  1  2  2  0
  2  3  1  0
  2  9  1  0
  3  4  1  0
  4  5  1  0
  5  6  1  6
  5  7  1  0
  7  8  1  0
  9 10  1  0
 10 11  1  0
 11 12  1  0
M  END
