
     RDKit          3D

 12 11  0  0  0  0  0  0  0  0999 V2000
    4.1940    0.7250   -1.1880 O   0  0  0  0  0  0  0  0  0  0  0  0
    4.3280   -0.4080   -0.3650 C   0  0  0  0  0  0  0  0  0  0  0  0
    3.0900   -1.0080   -0.2810 O   0  0  0  0  0  0  0  0  0  0  0  0
    2.1220   -0.1620    0.2630 C   0  0  0  0  0  0  0  0  0  0  0  0
    0.8070   -0.9410    0.3000 C   0  0  1  0  0  0  0  0  0  0  0  0
    0.9560   -2.0810    1.0880 O   0  0  0  0  0  0  0  0  0  0  0  0
   -0.2340   -0.1530    0.7480 O   0  0  0  0  0  0  0  0  0  0  0  0
   -1.2260   -0.0710   -0.2130 C   0  0  0  0  0  0  0  0  0  0  0  0
   -2.3670    0.7990    0.2920 C   0  0  2  0  0  0  0  0  0  0  0  0
   -2.8770    0.2220    1.4460 O   0  0  0  0  0  0  0  0  0  0  0  0
   -3.4440    0.7690   -0.7950 C   0  0  0  0  0  0  0  0  0  0  0  0
   -4.5750    1.4640   -0.4220 O   0  0  0  0  0  0  0  0  0  0  0  0
  1  2  1  0
  2  3  1  0
  3  4  1  0
  4  5  1  0
  5  6  1  1
  5  7  1  0
  7  8  1  0
  8  9  1  0
  9 10  1  1
  9 11  1  0
 11 12  1  0
M  END
