
     RDKit          3D

 13 12  0  0  0  0  0  0  0  0999 V2000
    2.5410   -1.0640    0.2920 O   0  0  0  0  0  0  0  0  0  0  0  0
    2.5190    0.1670    0.4700 C   0  0  0  0  0  0  0  0  0  0  0  0
    3.6920    0.8260    0.7590 O   0  0  0  0  0  0  0  0  0  0  0  0
    1.2510    0.9080    0.3700 C   0  0  0  0  0  0  0  0  0  0  0  0
    0.0780    0.0330    0.0500 C   0  0  2  0  0  0  0  0  0  0  0  0
    0.2160   -0.6350   -1.1610 O   0  0  0  0  0  0  0  0  0  0  0  0
   -1.1390    0.9400   -0.0950 C   0  0  0  0  0  0  0  0  0  0  0  0
   -2.3570    0.1630   -0.4140 C   0  0  0  0  0  0  0  0  0  0  0  0
   -2.3700   -1.0800   -0.5460 O   0  0  0  0  0  0  0  0  0  0  0  0
   -3.5380    0.8600   -0.5730 O   0  0  0  0  0  0  0  0  0  0  0  0
   -0.1640   -0.9640    1.1050 C   0  0  0  0  0  0  0  0  0  0  0  0
   -0.3190   -0.5570    2.2900 O   0  0  0  0  0  0  0  0  0  0  0  0
   -0.2360   -2.3270    0.8930 O   0  0  0  0  0  0  0  0  0  0  0  0
  1  2  2  0
  2  3  1  0
  2  4  1  0
  4  5  1  0
  5  6  1  6
  5  7  1  0
  5 11  1  0
  7  8  1  0
  8  9  2  0
  8 10  1  0
 11 12  2  0
 11 13  1  0
M  END
