
     RDKit          3D

 32 35  0  0  0  0  0  0  0  0999 V2000
    4.7960    1.2350    2.1890 C   0  0  0  0  0  0  0  0  0  0  0  0
    3.8740    0.7570    1.3970 C   0  0  0  0  0  0  0  0  0  0  0  0
    2.8740   -0.2970    1.7760 C   0  0  0  0  0  0  0  0  0  0  0  0
    3.3140   -1.5730    1.2280 N   0  0  0  0  0  0  0  0  0  0  0  0
    2.5060   -2.6950    0.9390 C   0  0  0  0  0  0  0  0  0  0  0  0
    2.8410   -4.1330    2.0460 Cl  0  0  0  0  0  0  0  0  0  0  0  0
    1.6530   -2.9910    0.0360 C   0  0  0  0  0  0  0  0  0  0  0  0
    1.1440   -2.1660   -1.2090 C   0  0  0  0  0  0  0  0  0  0  0  0
   -0.0770   -1.4660   -1.0310 N   0  0  0  0  0  0  0  0  0  0  0  0
   -1.3270   -2.1180   -1.2110 C   0  0  0  0  0  0  0  0  0  0  0  0
   -1.0970   -3.3100   -1.6620 O   0  0  0  0  0  0  0  0  0  0  0  0
   -2.6640   -1.6540   -0.9790 C   0  0  0  0  0  0  0  0  0  0  0  0
   -2.8630   -0.3190   -0.5230 N   0  0  0  0  0  0  0  0  0  0  0  0
   -2.6230    0.8460   -1.3540 C   0  0  0  0  0  0  0  0  0  0  0  0
   -3.6110    1.9490   -1.1810 C   0  0  0  0  0  0  0  0  0  0  0  0
   -4.6600    1.7610   -0.1530 C   0  0  0  0  0  0  0  0  0  0  0  0
   -4.2010    0.9910    1.0270 C   0  0  0  0  0  0  0  0  0  0  0  0
   -4.6200    1.2450    2.3150 C   0  0  0  0  0  0  0  0  0  0  0  0
   -4.1520    0.4610    3.3680 C   0  0  0  0  0  0  0  0  0  0  0  0
   -4.5790    0.7300    4.6290 F   0  0  0  0  0  0  0  0  0  0  0  0
   -3.2690   -0.5630    3.0870 C   0  0  0  0  0  0  0  0  0  0  0  0
   -2.8490   -0.8240    1.8280 N   0  0  0  0  0  0  0  0  0  0  0  0
   -3.3170   -0.0460    0.8060 C   0  0  0  0  0  0  0  0  0  0  0  0
    2.0340   -1.8170   -1.8970 N   0  0  0  0  0  0  0  0  0  0  0  0
    2.5520   -1.2010   -2.9760 N   0  0  0  0  0  0  0  0  0  0  0  0
    2.6600    0.1900   -3.1440 C   0  0  0  0  0  0  0  0  0  0  0  0
    2.3070    0.8250   -4.1710 O   0  0  0  0  0  0  0  0  0  0  0  0
    3.2320    1.0270   -2.0440 C   0  0  0  0  0  0  0  0  0  0  0  0
    3.7530    2.2900   -1.9640 C   0  0  0  0  0  0  0  0  0  0  0  0
    4.1070    2.4390   -0.6200 C   0  0  0  0  0  0  0  0  0  0  0  0
    3.7890    1.2910    0.0240 C   0  0  0  0  0  0  0  0  0  0  0  0
    3.2730    0.4800   -0.8540 O   0  0  0  0  0  0  0  0  0  0  0  0
  1  2  2  0
  2  3  1  0
  2 31  1  0
  3  4  1  0
  4  5  1  0
  5  6  1  0
  5  7  2  0
  7  8  1  0
  8  9  1  0
  8 24  2  0
  9 10  1  0
 10 11  2  0
 10 12  1  0
 12 13  1  0
 13 14  1  0
 13 23  1  0
 14 15  1  0
 15 16  1  0
 16 17  1  0
 17 18  2  0
 17 23  1  0
 18 19  1  0
 19 20  1  0
 19 21  2  0
 21 22  1  0
 22 23  2  0
 24 25  1  0
 25 26  1  0
 26 27  2  0
 26 28  1  0
 28 29  2  0
 28 32  1  0
 29 30  1  0
 30 31  2  0
 31 32  1  0
M  END
