
     RDKit          3D

 31 34  0  0  0  0  0  0  0  0999 V2000
    5.8590   -0.4800   -0.6440 O   0  0  0  0  0  0  0  0  0  0  0  0
    4.6340   -0.6010   -0.2930 C   0  0  0  0  0  0  0  0  0  0  0  0
    4.1310   -1.8970   -0.0510 N   0  0  0  0  0  0  0  0  0  0  0  0
    2.8230   -2.3210   -0.4640 C   0  0  0  0  0  0  0  0  0  0  0  0
    2.1060   -3.0920    0.6310 C   0  0  0  0  0  0  0  0  0  0  0  0
    1.0500   -3.8490    0.0050 N   0  0  0  0  0  0  0  0  0  0  0  0
   -0.1440   -3.9190    0.7890 C   0  0  0  0  0  0  0  0  0  0  0  0
   -1.3070   -3.6630   -0.0360 N   0  0  0  0  0  0  0  0  0  0  0  0
   -1.9430   -2.4380   -0.4110 C   0  0  0  0  0  0  0  0  0  0  0  0
   -2.2310   -2.4930   -1.8050 C   0  0  0  0  0  0  0  0  0  0  0  0
   -2.8160   -1.4940   -2.4650 N   0  0  0  0  0  0  0  0  0  0  0  0
   -3.1280   -0.4200   -1.7570 C   0  0  0  0  0  0  0  0  0  0  0  0
   -2.8720   -0.2990   -0.3700 C   0  0  0  0  0  0  0  0  0  0  0  0
   -2.2700   -1.3170    0.3310 C   0  0  0  0  0  0  0  0  0  0  0  0
   -3.3520    1.0440    0.0720 C   0  0  0  0  0  0  0  0  0  0  0  0
   -4.6220    1.4500   -0.3430 C   0  0  0  0  0  0  0  0  0  0  0  0
   -5.1540    2.6560    0.0200 C   0  0  0  0  0  0  0  0  0  0  0  0
   -4.4600    3.5380    0.8200 C   0  0  0  0  0  0  0  0  0  0  0  0
   -3.2070    3.1390    1.2280 C   0  0  0  0  0  0  0  0  0  0  0  0
   -2.6540    1.9410    0.8780 C   0  0  0  0  0  0  0  0  0  0  0  0
   -1.3680    1.6240    1.3420 O   0  0  0  0  0  0  0  0  0  0  0  0
   -0.3270    1.0940    0.5330 C   0  0  0  0  0  0  0  0  0  0  0  0
    0.7210    2.1390    0.4100 C   0  0  0  0  0  0  0  0  0  0  0  0
    0.3820    3.3310    0.5440 O   0  0  0  0  0  0  0  0  0  0  0  0
    2.0900    1.8490    0.1490 N   0  0  0  0  0  0  0  0  0  0  0  0
    2.5460    0.6270    0.0890 N   0  0  0  0  0  0  0  0  0  0  0  0
    3.8410    0.6290   -0.1670 C   0  0  0  0  0  0  0  0  0  0  0  0
    4.2390    1.9400   -0.2790 C   0  0  0  0  0  0  0  0  0  0  0  0
    3.1130    2.6860   -0.0750 C   0  0  0  0  0  0  0  0  0  0  0  0
    3.1110    4.1740   -0.1110 C   0  0  0  0  0  0  0  0  0  0  0  0
    3.4340    4.8780    1.4900 Cl  0  0  0  0  0  0  0  0  0  0  0  0
  1  2  2  0
  2  3  1  0
  2 27  1  0
  3  4  1  0
  4  5  1  0
  5  6  1  0
  6  7  1  0
  7  8  1  0
  8  9  1  0
  9 10  1  0
  9 14  2  0
 10 11  2  0
 11 12  1  0
 12 13  2  0
 13 14  1  0
 13 15  1  0
 15 16  2  0
 15 20  1  0
 16 17  1  0
 17 18  2  0
 18 19  1  0
 19 20  2  0
 20 21  1  0
 21 22  1  0
 22 23  1  0
 23 24  2  0
 23 25  1  0
 25 26  1  0
 25 29  1  0
 26 27  2  0
 27 28  1  0
 28 29  2  0
 29 30  1  0
 30 31  1  0
M  END
