
     RDKit          3D

 32 35  0  0  0  0  0  0  0  0999 V2000
   -4.1050    4.1060    1.6680 O   0  0  0  0  0  0  0  0  0  0  0  0
   -3.4000    3.2130    1.0670 C   0  0  0  0  0  0  0  0  0  0  0  0
   -3.9650    1.9070    1.1040 N   0  0  0  0  0  0  0  0  0  0  0  0
   -3.9720    0.9670    0.0080 C   0  0  0  0  0  0  0  0  0  0  0  0
   -4.2540   -0.4050    0.5830 C   0  0  0  0  0  0  0  0  0  0  0  0
   -3.8920   -1.5160   -0.3060 C   0  0  0  0  0  0  0  0  0  0  0  0
   -2.6760   -1.9580   -0.5690 C   0  0  0  0  0  0  0  0  0  0  0  0
   -1.5070   -1.3110    0.0620 C   0  0  0  0  0  0  0  0  0  0  0  0
   -0.5840   -2.2810    0.7620 C   0  0  0  0  0  0  0  0  0  0  0  0
    0.8560   -1.9830    0.4490 C   0  0  2  0  0  0  0  0  0  0  0  0
    1.5770   -3.1980    0.3830 O   0  0  0  0  0  0  0  0  0  0  0  0
    1.5080   -0.9930    1.3540 C   0  0  2  0  0  0  0  0  0  0  0  0
    0.9660   -0.9990    2.7010 N   0  0  0  0  0  0  0  0  0  0  0  0
    1.1560   -2.5270    3.4890 Cl  0  0  0  0  0  0  0  0  0  0  0  0
    1.6350    0.2960    0.8590 O   0  0  0  0  0  0  0  0  0  0  0  0
    0.8050    1.2580    0.3120 C   0  0  0  0  0  0  0  0  0  0  0  0
   -0.3180    1.8420    0.8780 C   0  0  0  0  0  0  0  0  0  0  0  0
   -1.0000    2.7800    0.1500 C   0  0  0  0  0  0  0  0  0  0  0  0
   -0.5350    3.1200   -1.1460 C   0  0  0  0  0  0  0  0  0  0  0  0
    0.5730    2.5610   -1.7280 C   0  0  0  0  0  0  0  0  0  0  0  0
    1.1840    2.7450   -2.9210 N   0  0  0  0  0  0  0  0  0  0  0  0
    2.2160    1.9340   -2.9170 N   0  0  0  0  0  0  0  0  0  0  0  0
    2.2730    1.2710   -1.8040 N   0  0  0  0  0  0  0  0  0  0  0  0
    3.2340    0.2870   -1.3820 C   0  0  0  0  0  0  0  0  0  0  0  0
    4.1030    0.4670   -0.3520 C   0  0  0  0  0  0  0  0  0  0  0  0
    4.9860   -0.5510   -0.0360 C   0  0  0  0  0  0  0  0  0  0  0  0
    5.0060   -1.7320   -0.7340 C   0  0  0  0  0  0  0  0  0  0  0  0
    4.1260   -1.9240   -1.7830 C   0  0  0  0  0  0  0  0  0  0  0  0
    4.1390   -3.0830   -2.4750 F   0  0  0  0  0  0  0  0  0  0  0  0
    3.2430   -0.8970   -2.0930 C   0  0  0  0  0  0  0  0  0  0  0  0
    1.2370    1.6240   -0.9820 C   0  0  0  0  0  0  0  0  0  0  0  0
   -2.1800    3.5540    0.4420 N   0  0  0  0  0  0  0  0  0  0  0  0
  1  2  2  0
  2  3  1  0
  2 32  1  0
  3  4  1  0
  4  5  1  0
  5  6  1  0
  6  7  2  0
  7  8  1  0
  8  9  1  0
  9 10  1  0
 10 11  1  1
 10 12  1  0
 12 13  1  1
 12 15  1  0
 13 14  1  0
 15 16  1  0
 16 17  2  0
 16 31  1  0
 17 18  1  0
 18 19  2  0
 18 32  1  0
 19 20  1  0
 20 21  1  0
 20 31  2  0
 21 22  2  0
 22 23  1  0
 23 24  1  0
 23 31  1  0
 24 25  2  0
 24 30  1  0
 25 26  1  0
 26 27  2  0
 27 28  1  0
 28 29  1  0
 28 30  2  0
M  END
