
     RDKit          3D

 32 35  0  0  0  0  0  0  0  0999 V2000
   -0.7730    3.5830    0.8150 C   0  0  0  0  0  0  0  0  0  0  0  0
   -1.4160    2.2770    0.3850 C   0  0  1  0  0  0  0  0  0  0  0  0
   -1.2180    1.3270    1.4340 N   0  0  0  0  0  0  0  0  0  0  0  0
   -0.3980    0.1610    1.2740 C   0  0  0  0  0  0  0  0  0  0  0  0
   -0.4400   -0.6370    2.2890 O   0  0  0  0  0  0  0  0  0  0  0  0
    0.4240   -0.2150    0.1670 C   0  0  0  0  0  0  0  0  0  0  0  0
    1.7670   -0.2890    0.3540 C   0  0  0  0  0  0  0  0  0  0  0  0
    2.5340   -0.0390    1.5010 C   0  0  0  0  0  0  0  0  0  0  0  0
    1.6330    0.6230    2.9300 Cl  0  0  0  0  0  0  0  0  0  0  0  0
    3.7990   -0.1400    1.6860 C   0  0  0  0  0  0  0  0  0  0  0  0
    4.9550   -0.5150    0.9140 C   0  0  0  0  0  0  0  0  0  0  0  0
    6.1550   -0.4710    1.5410 C   0  0  0  0  0  0  0  0  0  0  0  0
    7.4450   -0.8150    0.9240 C   0  0  2  0  0  0  0  0  0  0  0  0
    8.2670    0.3120    1.0350 F   0  0  0  0  0  0  0  0  0  0  0  0
    7.3380   -1.2120   -0.4100 O   0  0  0  0  0  0  0  0  0  0  0  0
    6.1420   -1.2700   -1.0840 C   0  0  0  0  0  0  0  0  0  0  0  0
    4.9940   -0.9370   -0.4540 C   0  0  0  0  0  0  0  0  0  0  0  0
   -0.1220   -0.4880   -1.1750 C   0  0  0  0  0  0  0  0  0  0  0  0
   -1.3110   -0.6940   -1.6170 C   0  0  0  0  0  0  0  0  0  0  0  0
   -2.6650   -0.7660   -1.0880 C   0  0  1  0  0  0  0  0  0  0  0  0
   -3.4260   -1.9620   -1.7720 C   0  0  0  0  0  0  0  0  0  0  0  0
   -2.7130   -3.1010   -1.0620 C   0  0  0  0  0  0  0  0  0  0  0  0
   -2.3060   -2.5200    0.2760 C   0  0  0  0  0  0  0  0  0  0  0  0
   -2.8660   -1.1730    0.2700 N   0  0  0  0  0  0  0  0  0  0  0  0
   -3.4910   -0.4420    1.3000 C   0  0  0  0  0  0  0  0  0  0  0  0
   -3.5070   -0.9980    2.4690 O   0  0  0  0  0  0  0  0  0  0  0  0
   -4.1100    0.8280    1.2330 N   0  0  0  0  0  0  0  0  0  0  0  0
   -3.9170    1.8800    0.3650 N   0  0  0  0  0  0  0  0  0  0  0  0
   -4.9260    2.5210   -0.3190 C   0  0  0  0  0  0  0  0  0  0  0  0
   -4.4190    3.4910   -1.0610 N   0  0  0  0  0  0  0  0  0  0  0  0
   -3.1350    3.5180   -0.9000 N   0  0  0  0  0  0  0  0  0  0  0  0
   -2.8120    2.5120   -0.0080 C   0  0  0  0  0  0  0  0  0  0  0  0
  2  1  1  1
  2  3  1  0
  2 32  1  0
  3  4  1  0
  4  5  2  0
  4  6  1  0
  6  7  2  3
  6 18  1  0
  7  8  1  0
  8  9  1  0
  8 10  2  3
 10 11  1  0
 11 12  2  0
 11 17  1  0
 12 13  1  0
 13 14  1  6
 13 15  1  0
 15 16  1  0
 16 17  2  0
 18 19  2  0
 19 20  1  0
 20 21  1  6
 20 24  1  0
 21 22  1  0
 22 23  1  0
 23 24  1  0
 24 25  1  0
 25 26  2  0
 25 27  1  0
 27 28  1  0
 28 29  1  0
 28 32  1  0
 29 30  2  0
 30 31  1  0
 31 32  2  0
M  END
