
     RDKit          3D

 32 35  0  0  0  0  0  0  0  0999 V2000
   -5.9550    4.1340   -1.1380 C   0  0  0  0  0  0  0  0  0  0  0  0
   -5.6940    2.7210   -0.7300 C   0  0  0  0  0  0  0  0  0  0  0  0
   -6.7600    1.9050   -0.4130 C   0  0  0  0  0  0  0  0  0  0  0  0
   -6.5450    0.6030   -0.0400 C   0  0  0  0  0  0  0  0  0  0  0  0
   -5.2530    0.0840    0.0240 C   0  0  0  0  0  0  0  0  0  0  0  0
   -4.1870    0.9370   -0.3040 C   0  0  0  0  0  0  0  0  0  0  0  0
   -4.4120    2.2330   -0.6740 C   0  0  0  0  0  0  0  0  0  0  0  0
   -2.8010    0.5780   -0.3040 N   0  0  0  0  0  0  0  0  0  0  0  0
   -1.8930    1.6810   -0.5170 C   0  0  0  0  0  0  0  0  0  0  0  0
   -0.4830    1.1810   -0.4090 C   0  0  0  0  0  0  0  0  0  0  0  0
    0.2470    1.2240    0.7570 C   0  0  0  0  0  0  0  0  0  0  0  0
    1.5440    0.7790    0.8560 C   0  0  0  0  0  0  0  0  0  0  0  0
    2.1660    0.2600   -0.2480 C   0  0  0  0  0  0  0  0  0  0  0  0
    3.4950   -0.1870   -0.1700 N   0  0  0  0  0  0  0  0  0  0  0  0
    3.7840   -1.4500    0.4700 C   0  0  0  0  0  0  0  0  0  0  0  0
    5.0830   -1.2870    1.2190 C   0  0  0  0  0  0  0  0  0  0  0  0
    6.1950   -1.0800    0.2420 C   0  0  2  0  0  0  0  0  0  0  0  0
    7.4480   -0.7870    1.0810 C   0  0  0  0  0  0  0  0  0  0  0  0
    8.6000   -0.5650    0.2610 N   0  0  0  0  0  0  0  0  0  0  0  0
    5.9620   -0.0120   -0.7710 C   0  0  0  0  0  0  0  0  0  0  0  0
    4.5960    0.5680   -0.7080 C   0  0  0  0  0  0  0  0  0  0  0  0
    4.3690    1.7190   -1.1150 O   0  0  0  0  0  0  0  0  0  0  0  0
    1.4750    0.1970   -1.4310 C   0  0  0  0  0  0  0  0  0  0  0  0
    0.1790    0.6500   -1.5020 C   0  0  0  0  0  0  0  0  0  0  0  0
   -2.2100   -0.7530   -0.1270 C   0  0  0  0  0  0  0  0  0  0  0  0
   -2.9460   -1.5700    0.9080 C   0  0  0  0  0  0  0  0  0  0  0  0
   -4.1800   -2.2140    0.3210 C   0  0  1  0  0  0  0  0  0  0  0  0
   -4.5080   -3.5320    0.9770 C   0  0  2  0  0  0  0  0  0  0  0  0
   -3.4450   -4.3890    0.8030 F   0  0  0  0  0  0  0  0  0  0  0  0
   -5.5980   -4.0590    0.3120 F   0  0  0  0  0  0  0  0  0  0  0  0
   -4.8490   -3.3800    2.3040 F   0  0  0  0  0  0  0  0  0  0  0  0
   -5.2690   -1.2740    0.4370 N   0  0  0  0  0  0  0  0  0  0  0  0
  1  2  1  0
  2  3  2  0
  2  7  1  0
  3  4  1  0
  4  5  2  0
  5  6  1  0
  5 32  1  0
  6  7  2  0
  6  8  1  0
  8  9  1  0
  8 25  1  0
  9 10  1  0
 10 11  2  0
 10 24  1  0
 11 12  1  0
 12 13  2  0
 13 14  1  0
 13 23  1  0
 14 15  1  0
 14 21  1  0
 15 16  1  0
 16 17  1  0
 17 18  1  1
 17 20  1  0
 18 19  1  0
 20 21  1  0
 21 22  2  0
 23 24  2  0
 25 26  1  0
 27 26  1  1
 27 28  1  0
 27 32  1  0
 28 29  1  1
 28 30  1  0
 28 31  1  0
M  CHG  1  19   1
M  END
