
     RDKit          3D

 32 35  0  0  0  0  0  0  0  0999 V2000
   -1.5600    5.8460    2.0730 C   0  0  0  0  0  0  0  0  0  0  0  0
   -1.0930    4.4500    1.7920 C   0  0  2  0  0  0  0  0  0  0  0  0
   -0.1860    4.3610    0.5790 C   0  0  0  0  0  0  0  0  0  0  0  0
   -0.8320    3.0690    0.2960 N   0  0  0  0  0  0  0  0  0  0  0  0
   -0.3440    1.8820   -0.3120 C   0  0  0  0  0  0  0  0  0  0  0  0
   -1.1880    1.1740   -0.9670 N   0  0  0  0  0  0  0  0  0  0  0  0
   -0.9700    0.0250   -1.6220 O   0  0  0  0  0  0  0  0  0  0  0  0
   -1.7070   -1.1420   -1.6570 C   0  0  0  0  0  0  0  0  0  0  0  0
   -2.4820   -1.4930   -2.6070 N   0  0  0  0  0  0  0  0  0  0  0  0
   -3.2350   -2.7070   -2.6170 C   0  0  0  0  0  0  0  0  0  0  0  0
   -2.5030   -3.7900   -3.3810 C   0  0  1  0  0  0  0  0  0  0  0  0
   -3.2090   -4.9640   -3.3990 F   0  0  0  0  0  0  0  0  0  0  0  0
   -2.2420   -3.1550   -5.0280 Cl  0  0  0  0  0  0  0  0  0  0  0  0
   -1.5690   -2.0420   -0.4820 C   0  0  0  0  0  0  0  0  0  0  0  0
   -2.3180   -1.5750    0.6660 N   0  0  0  0  0  0  0  0  0  0  0  0
   -2.1520   -0.4170    1.4110 C   0  0  0  0  0  0  0  0  0  0  0  0
   -3.2300    0.3110    1.5120 O   0  0  0  0  0  0  0  0  0  0  0  0
   -0.9830    0.1150    2.0950 C   0  0  0  0  0  0  0  0  0  0  0  0
   -1.1770    1.1950    2.8030 O   0  0  0  0  0  0  0  0  0  0  0  0
    0.3350   -0.3360    2.1300 N   0  0  0  0  0  0  0  0  0  0  0  0
    1.3250   -0.5190    1.1370 C   0  0  0  0  0  0  0  0  0  0  0  0
    2.0590   -1.7070    1.2370 C   0  0  0  0  0  0  0  0  0  0  0  0
    3.0730   -2.0520    0.3740 C   0  0  0  0  0  0  0  0  0  0  0  0
    3.7660   -3.2480    0.5250 C   0  0  0  0  0  0  0  0  0  0  0  0
    4.7690   -3.5560   -0.3530 C   0  0  0  0  0  0  0  0  0  0  0  0
    5.0880   -2.6950   -1.3750 C   0  0  0  0  0  0  0  0  0  0  0  0
    4.4110   -1.5190   -1.5300 C   0  0  0  0  0  0  0  0  0  0  0  0
    3.4020   -1.2020   -0.6510 C   0  0  0  0  0  0  0  0  0  0  0  0
    2.6870   -0.0310   -0.7600 C   0  0  0  0  0  0  0  0  0  0  0  0
    1.6490    0.3290    0.1180 C   0  0  0  0  0  0  0  0  0  0  0  0
    1.0350    1.5850   -0.1640 N   0  0  0  0  0  0  0  0  0  0  0  0
   -2.0180    3.6440    0.8830 C   0  0  0  0  0  0  0  0  0  0  0  0
  2  1  1  6
  2  3  1  0
  2 32  1  0
  3  4  1  0
  4  5  1  0
  4 32  1  0
  5  6  2  0
  5 31  1  0
  6  7  1  0
  7  8  1  0
  8  9  2  3
  8 14  1  0
  9 10  1  0
 10 11  1  0
 11 12  1  6
 11 13  1  0
 14 15  1  0
 15 16  1  0
 16 17  2  0
 16 18  1  0
 18 19  2  0
 18 20  1  0
 20 21  1  0
 21 22  2  0
 21 30  1  0
 22 23  1  0
 23 24  2  0
 23 28  1  0
 24 25  1  0
 25 26  2  0
 26 27  1  0
 27 28  2  0
 28 29  1  0
 29 30  2  0
 30 31  1  0
M  END
