
     RDKit          3D

 16 15  0  0  0  0  0  0  0  0999 V2000
    3.5150   -0.5160   -0.1710 C   0  0  0  0  0  0  0  0  0  0  0  0
    2.2250   -0.6860   -0.9970 C   0  0  0  0  0  0  0  0  0  0  0  0
    1.3050   -1.1950    0.0190 O   0  0  0  0  0  0  0  0  0  0  0  0
    0.4080   -0.4470    0.0940 O   0  0  0  0  0  0  0  0  0  0  0  0
   -0.8150   -0.1680    0.0220 C   0  0  1  0  0  0  0  0  0  0  0  0
   -1.3860   -0.4200   -1.4160 C   0  0  0  0  0  0  0  0  0  0  0  0
   -1.6210   -2.1230   -1.9050 P   0  0  0  0  0  0  0  0  0  0  0  0
   -3.0000   -2.5270   -2.6230 O   0  0  0  0  0  0  0  0  0  0  0  0
   -1.4790   -1.1140    0.9890 C   0  0  0  0  0  0  0  0  0  0  0  0
   -1.2370   -0.8760    2.4050 C   0  0  0  0  0  0  0  0  0  0  0  0
   -2.1640   -2.0160    0.6790 O   0  0  0  0  0  0  0  0  0  0  0  0
   -1.1800    1.2630    0.2040 C   0  0  0  0  0  0  0  0  0  0  0  0
   -2.3230    1.5940    0.3650 O   0  0  0  0  0  0  0  0  0  0  0  0
   -0.1810    2.2110    0.1250 O   0  0  0  0  0  0  0  0  0  0  0  0
   -0.3930    3.5900    0.1570 C   0  0  0  0  0  0  0  0  0  0  0  0
   -1.5770    3.9530    0.2720 O   0  0  0  0  0  0  0  0  0  0  0  0
  1  2  1  0
  2  3  1  0
  3  4  1  0
  4  5  1  0
  5  6  1  6
  5  9  1  0
  5 12  1  0
  6  7  1  0
  7  8  2  0
  9 10  1  0
  9 11  2  0
 12 13  2  0
 12 14  1  0
 14 15  1  0
 15 16  2  0
M  END
