
     RDKit          3D

 16 15  0  0  0  0  0  0  0  0999 V2000
    4.2170   -1.4630   -0.0110 C   0  0  0  0  0  0  0  0  0  0  0  0
    3.5850   -0.0820   -0.1280 C   0  0  0  0  0  0  0  0  0  0  0  0
    2.4390   -0.0790    0.6880 O   0  0  0  0  0  0  0  0  0  0  0  0
    1.0650    0.0920   -0.4460 P   0  0  0  0  0  0  0  0  0  0  0  0
    0.7020   -1.6530   -0.8030 O   0  0  0  0  0  0  0  0  0  0  0  0
   -0.4270    0.6350    0.5010 C   0  0  2  0  0  0  0  0  0  0  0  0
   -1.0510   -0.3410    1.1940 O   0  0  0  0  0  0  0  0  0  0  0  0
   -2.1960   -0.7890    0.9660 O   0  0  0  0  0  0  0  0  0  0  0  0
   -2.2950   -2.0270    0.3910 C   0  0  0  0  0  0  0  0  0  0  0  0
   -3.7040   -2.5250    0.2300 C   0  0  0  0  0  0  0  0  0  0  0  0
   -3.7600   -3.6650   -0.2480 O   0  0  0  0  0  0  0  0  0  0  0  0
   -1.2130    1.7250   -0.1630 C   0  0  2  0  0  0  0  0  0  0  0  0
   -1.4340    2.9550    0.6480 C   0  0  0  0  0  0  0  0  0  0  0  0
   -2.3650    1.3300   -0.8000 O   0  0  0  0  0  0  0  0  0  0  0  0
   -0.3810    2.2260   -1.3950 C   0  0  0  0  0  0  0  0  0  0  0  0
    0.7320    2.5760   -1.1410 O   0  0  0  0  0  0  0  0  0  0  0  0
  1  2  1  0
  2  3  1  0
  3  4  1  0
  4  5  1  0
  4  6  1  0
  6  7  1  6
  6 12  1  0
  7  8  1  0
  8  9  1  0
  9 10  1  0
 10 11  2  0
 12 13  1  1
 12 14  1  0
 12 15  1  0
 15 16  2  0
M  END
