
     RDKit          3D

 15 14  0  0  0  0  0  0  0  0999 V2000
   -2.0720    1.1060    1.4430 C   0  0  0  0  0  0  0  0  0  0  0  0
   -2.3730    0.3980    0.1630 C   0  0  1  0  0  0  0  0  0  0  0  0
   -2.2600    1.4580   -0.9610 C   0  0  0  0  0  0  0  0  0  0  0  0
   -1.4700   -0.7090   -0.1760 C   0  0  0  0  0  0  0  0  0  0  0  0
   -0.1130   -0.5140   -0.5600 C   0  0  1  0  0  0  0  0  0  0  0  0
    0.8340    0.0170    0.3350 O   0  0  0  0  0  0  0  0  0  0  0  0
    1.9710    0.0180   -0.4680 C   0  0  0  0  0  0  0  0  0  0  0  0
    3.2790    0.1380    0.2860 C   0  0  0  0  0  0  0  0  0  0  0  0
    3.2670    1.3730    0.9170 O   0  0  0  0  0  0  0  0  0  0  0  0
    4.4060    1.9440    0.4280 O   0  0  0  0  0  0  0  0  0  0  0  0
    0.4760   -1.9860   -0.6160 C   0  0  0  0  0  0  0  0  0  0  0  0
    0.2920   -2.5670   -1.6230 O   0  0  0  0  0  0  0  0  0  0  0  0
    1.0700   -2.3740    0.5080 O   0  0  0  0  0  0  0  0  0  0  0  0
   -4.1050   -0.2290    0.1580 P   0  0  0  0  0  0  0  0  0  0  0  0
   -4.3650   -1.5430    0.9890 O   0  0  0  0  0  0  0  0  0  0  0  0
  2  1  1  1
  2  3  1  0
  2  4  1  0
  2 14  1  0
  5  4  1  1
  5  6  1  0
  5 11  1  0
  6  7  1  0
  7  8  1  0
  8  9  1  0
  9 10  1  0
 11 12  2  0
 11 13  1  0
 14 15  2  0
M  END
