
     RDKit          3D

 16 15  0  0  0  0  0  0  0  0999 V2000
    4.7660    0.8130   -0.5250 C   0  0  0  0  0  0  0  0  0  0  0  0
    4.1910   -0.3300    0.2930 C   0  0  0  0  0  0  0  0  0  0  0  0
    2.7220   -0.2060    0.4400 C   0  0  0  0  0  0  0  0  0  0  0  0
    2.1710    0.5580    1.2790 O   0  0  0  0  0  0  0  0  0  0  0  0
    1.9130   -0.9510   -0.3700 O   0  0  0  0  0  0  0  0  0  0  0  0
    0.4850   -0.9220   -0.3240 C   0  0  0  0  0  0  0  0  0  0  0  0
   -0.0250    0.3050   -0.5750 O   0  0  0  0  0  0  0  0  0  0  0  0
   -1.2230    0.5800   -0.6140 O   0  0  0  0  0  0  0  0  0  0  0  0
   -2.2290   -0.0720   -0.0050 C   0  0  1  0  0  0  0  0  0  0  0  0
   -2.3750   -1.5360   -0.4170 C   0  0  0  0  0  0  0  0  0  0  0  0
   -2.3000    0.0670    1.5020 C   0  0  0  0  0  0  0  0  0  0  0  0
   -2.4540    1.4290    1.8020 O   0  0  0  0  0  0  0  0  0  0  0  0
   -3.5420    0.5550   -0.4760 C   0  0  0  0  0  0  0  0  0  0  0  0
   -4.6060    0.1400   -0.0760 O   0  0  0  0  0  0  0  0  0  0  0  0
   -3.5340    1.9440   -1.6510 P   0  0  0  0  0  0  0  0  0  0  0  0
   -4.1290    3.3430   -1.3300 O   0  0  0  0  0  0  0  0  0  0  0  0
  1  2  1  0
  2  3  1  0
  3  4  2  0
  3  5  1  0
  5  6  1  0
  6  7  1  0
  7  8  1  0
  8  9  1  0
  9 10  1  1
  9 11  1  0
  9 13  1  0
 11 12  1  0
 13 14  2  0
 13 15  1  0
 15 16  2  0
M  END
