
     RDKit          3D

 16 16  0  0  0  0  0  0  0  0999 V2000
    2.4940    2.1700   -0.0690 C   0  0  0  0  0  0  0  0  0  0  0  0
    2.6530    0.8420   -0.4160 O   0  0  0  0  0  0  0  0  0  0  0  0
    1.7800    0.4050   -1.2750 O   0  0  0  0  0  0  0  0  0  0  0  0
    0.7550   -0.3140   -0.6710 C   0  0  1  0  0  0  0  0  0  0  0  0
    1.2730   -1.5020    0.0560 C   0  0  0  0  0  0  0  0  0  0  0  0
    2.5020   -1.7560    0.0760 O   0  0  0  0  0  0  0  0  0  0  0  0
    0.4280   -2.3660    0.7350 O   0  0  0  0  0  0  0  0  0  0  0  0
   -0.0850    0.5630    0.2370 C   0  0  0  0  0  0  0  0  0  0  0  0
   -1.4880    0.0260    0.1530 C   0  0  1  0  0  0  0  0  0  0  0  0
   -1.9610   -0.5480    1.4690 C   0  0  0  0  0  0  0  0  0  0  0  0
   -2.6370    1.3830   -0.4120 P   0  0  0  0  0  0  0  0  0  0  0  0
   -3.7660    1.0530   -1.4190 O   0  0  0  0  0  0  0  0  0  0  0  0
   -1.4670   -1.0090   -0.9050 C   0  0  0  0  0  0  0  0  0  0  0  0
   -2.3630   -1.8810   -1.0860 O   0  0  0  0  0  0  0  0  0  0  0  0
   -0.2400   -0.8000   -1.6510 C   0  0  0  0  0  0  0  0  0  0  0  0
   -0.0820   -1.0020   -2.8930 O   0  0  0  0  0  0  0  0  0  0  0  0
  1  2  1  0
  2  3  1  0
  4  3  1  6
  4  5  1  0
  4  8  1  0
  4 15  1  0
  5  6  2  0
  5  7  1  0
  8  9  1  0
  9 10  1  1
  9 11  1  0
  9 13  1  0
 11 12  2  0
 13 14  2  0
 13 15  1  0
 15 16  2  0
M  END
