
     RDKit          3D

 16 16  0  0  0  0  0  0  0  0999 V2000
    4.1370    0.1270   -0.3060 C   0  0  0  0  0  0  0  0  0  0  0  0
    3.1870   -0.8910   -0.0850 O   0  0  0  0  0  0  0  0  0  0  0  0
    2.7250   -0.8550    1.1360 O   0  0  0  0  0  0  0  0  0  0  0  0
    1.4080   -0.7980    1.1700 O   0  0  0  0  0  0  0  0  0  0  0  0
    1.0050    0.0950    0.1720 C   0  0  0  0  0  0  0  0  0  0  0  0
   -0.4730    0.2250    0.1340 C   0  0  0  0  0  0  0  0  0  0  0  0
   -1.1130   -0.0970   -0.9750 C   0  0  0  0  0  0  0  0  0  0  0  0
   -0.3610   -0.5440   -2.0510 O   0  0  0  0  0  0  0  0  0  0  0  0
   -0.3950   -2.2690   -2.4670 P   0  0  0  0  0  0  0  0  0  0  0  0
   -0.9480   -3.3090   -1.4330 O   0  0  0  0  0  0  0  0  0  0  0  0
   -2.5640    0.0080   -1.0790 C   0  0  0  0  0  0  0  0  0  0  0  0
   -3.1700   -0.5670   -1.9900 O   0  0  0  0  0  0  0  0  0  0  0  0
   -3.2620    0.8260   -0.0540 C   0  0  0  0  0  0  0  0  0  0  0  0
   -2.6310    0.5140    1.2560 C   0  0  0  0  0  0  0  0  0  0  0  0
   -3.3240    0.1200    2.1640 O   0  0  0  0  0  0  0  0  0  0  0  0
   -1.1620    0.7160    1.3530 C   0  0  0  0  0  0  0  0  0  0  0  0
  1  2  1  0
  2  3  1  0
  3  4  1  0
  4  5  1  0
  5  6  1  0
  6  7  2  0
  6 16  1  0
  7  8  1  0
  7 11  1  0
  8  9  1  0
  9 10  2  0
 11 12  2  0
 11 13  1  0
 13 14  1  0
 14 15  2  0
 14 16  1  0
M  END
