
     RDKit          3D

 15 15  0  0  0  0  0  0  0  0999 V2000
    2.6320   -1.6460   -0.7200 O   0  0  0  0  0  0  0  0  0  0  0  0
    2.8720   -0.5750   -0.1060 C   0  0  0  0  0  0  0  0  0  0  0  0
    4.1880   -0.3850    0.5840 C   0  0  0  0  0  0  0  0  0  0  0  0
    4.2750    0.8380    1.2010 O   0  0  0  0  0  0  0  0  0  0  0  0
    1.8900    0.3890   -0.0990 O   0  0  0  0  0  0  0  0  0  0  0  0
    0.6440    0.3520   -0.6790 C   0  0  0  0  0  0  0  0  0  0  0  0
   -0.3250   -0.6690   -0.2270 C   0  0  2  0  0  0  0  0  0  0  0  0
    0.1120   -1.9470   -0.4230 O   0  0  0  0  0  0  0  0  0  0  0  0
   -1.6430   -0.3980   -0.9750 C   0  0  0  0  0  0  0  0  0  0  0  0
   -2.4250    0.3740    0.0500 C   0  0  2  0  0  0  0  0  0  0  0  0
   -2.9140    1.7090   -0.5110 C   0  0  0  0  0  0  0  0  0  0  0  0
   -3.8130    1.4970   -1.5770 O   0  0  0  0  0  0  0  0  0  0  0  0
   -1.5520    0.6880    1.0880 O   0  0  0  0  0  0  0  0  0  0  0  0
   -0.8010   -0.4610    1.1980 C   0  0  2  0  0  0  0  0  0  0  0  0
    0.2460   -0.3700    2.0960 O   0  0  0  0  0  0  0  0  0  0  0  0
  1  2  2  0
  2  3  1  0
  2  5  1  0
  3  4  1  0
  5  6  1  0
  6  7  1  0
  7  8  1  1
  7  9  1  0
  7 14  1  0
  9 10  1  0
 10 11  1  6
 10 13  1  0
 11 12  1  0
 13 14  1  0
 14 15  1  1
M  END
