
     RDKit          3D

 15 15  0  0  0  0  0  0  0  0999 V2000
    3.7490    0.7260    1.5760 O   0  0  0  0  0  0  0  0  0  0  0  0
    2.3850    0.4130    1.6050 C   0  0  0  0  0  0  0  0  0  0  0  0
    1.9640   -0.1950    0.2810 C   0  0  1  0  0  0  0  0  0  0  0  0
    2.8050   -1.3820   -0.0880 C   0  0  0  0  0  0  0  0  0  0  0  0
    4.1310   -0.9770   -0.1190 O   0  0  0  0  0  0  0  0  0  0  0  0
    0.6100   -0.4930    0.3410 O   0  0  0  0  0  0  0  0  0  0  0  0
   -0.0720    0.2780   -0.5720 C   0  0  0  0  0  0  0  0  0  0  0  0
   -1.5490    0.0270   -0.5820 C   0  0  1  0  0  0  0  0  0  0  0  0
   -2.1770    0.9620   -1.6000 C   0  0  0  0  0  0  0  0  0  0  0  0
   -1.8850    2.2810   -1.3540 O   0  0  0  0  0  0  0  0  0  0  0  0
   -1.8850   -1.2790   -0.8910 O   0  0  0  0  0  0  0  0  0  0  0  0
   -2.6620   -1.7520    0.1440 C   0  0  0  0  0  0  0  0  0  0  0  0
   -2.1470   -1.0990    1.2760 O   0  0  0  0  0  0  0  0  0  0  0  0
   -2.1090    0.2310    0.8030 C   0  0  2  0  0  0  0  0  0  0  0  0
   -3.3970    0.7100    0.8140 O   0  0  0  0  0  0  0  0  0  0  0  0
  1  2  1  0
  3  2  1  1
  3  4  1  0
  3  6  1  0
  4  5  1  0
  6  7  1  0
  8  7  1  1
  8  9  1  0
  8 11  1  0
  8 14  1  0
  9 10  1  0
 11 12  1  0
 12 13  1  0
 13 14  1  0
 14 15  1  6
M  END
