
     RDKit          3D

 10  9  0  0  0  0  0  0  0  0999 V2000
   -1.3540    0.4790    1.4320 O   0  0  0  0  0  0  0  0  0  0  0  0
   -1.9080   -0.1560    0.5010 C   0  0  0  0  0  0  0  0  0  0  0  0
   -3.2950   -0.1440    0.4690 O   0  0  0  0  0  0  0  0  0  0  0  0
   -1.1810   -0.9080   -0.5510 C   0  0  0  0  0  0  0  0  0  0  0  0
    0.2480   -0.8190   -0.3710 N   0  0  0  0  0  0  0  0  0  0  0  0
    0.9030    0.4180   -0.3880 C   0  0  0  0  0  0  0  0  0  0  0  0
    0.2450    1.4820   -0.5630 O   0  0  0  0  0  0  0  0  0  0  0  0
    2.3460    0.4420   -0.2010 C   0  0  0  0  0  0  0  0  0  0  0  0
    2.9990   -0.6170   -0.0270 O   0  0  0  0  0  0  0  0  0  0  0  0
    3.0700    1.6270   -0.2050 O   0  0  0  0  0  0  0  0  0  0  0  0
  1  2  2  0
  2  3  1  0
  2  4  1  0
  4  5  1  0
  5  6  1  0
  6  7  2  0
  6  8  1  0
  8  9  2  0
  8 10  1  0
M  END
