
     RDKit          3D

 15 15  0  0  0  0  0  0  0  0999 V2000
    0.7380    0.7740   -1.2470 O   0  0  0  0  0  0  0  0  0  0  0  0
    0.8570    0.6120    0.0140 C   0  0  0  0  0  0  0  0  0  0  0  0
   -0.3180    0.6430    0.9180 C   0  0  0  0  0  0  0  0  0  0  0  0
   -1.3090   -0.3630    0.4060 C   0  0  1  0  0  0  0  0  0  0  0  0
   -0.7420   -1.6400    0.4040 O   0  0  0  0  0  0  0  0  0  0  0  0
   -2.6220   -0.3610    1.1640 C   0  0  1  0  0  0  0  0  0  0  0  0
   -3.0820    0.9490    1.2780 O   0  0  0  0  0  0  0  0  0  0  0  0
   -3.5020   -1.0580    0.1130 C   0  0  0  0  0  0  0  0  0  0  0  0
   -3.0930   -0.5740   -1.1000 O   0  0  0  0  0  0  0  0  0  0  0  0
   -1.8050   -0.0600   -0.9930 C   0  0  1  0  0  0  0  0  0  0  0  0
   -1.8990    1.3260   -1.0940 O   0  0  0  0  0  0  0  0  0  0  0  0
    2.1730    0.4000    0.4660 O   0  0  0  0  0  0  0  0  0  0  0  0
    3.2550    0.3770   -0.4510 C   0  0  0  0  0  0  0  0  0  0  0  0
    4.5170    0.0920    0.2950 C   0  0  0  0  0  0  0  0  0  0  0  0
    5.6260    0.0500   -0.5470 O   0  0  0  0  0  0  0  0  0  0  0  0
  1  2  2  0
  2  3  1  0
  2 12  1  0
  3  4  1  0
  4  5  1  6
  4  6  1  0
  4 10  1  0
  6  7  1  6
  6  8  1  0
  8  9  1  0
  9 10  1  0
 10 11  1  1
 12 13  1  0
 13 14  1  0
 14 15  1  0
M  END
