
     RDKit          3D

 15 15  0  0  0  0  0  0  0  0999 V2000
    5.2440    0.1400    0.8720 O   0  0  0  0  0  0  0  0  0  0  0  0
    3.9490    0.5950    1.2080 C   0  0  0  0  0  0  0  0  0  0  0  0
    2.9870   -0.3390    0.5110 C   0  0  1  0  0  0  0  0  0  0  0  0
    3.2620   -1.6300    1.0190 O   0  0  0  0  0  0  0  0  0  0  0  0
    1.6640   -0.0290    0.7720 O   0  0  0  0  0  0  0  0  0  0  0  0
    1.0350    0.1930   -0.4460 C   0  0  0  0  0  0  0  0  0  0  0  0
   -0.4230    0.5420   -0.2880 C   0  0  2  0  0  0  0  0  0  0  0  0
   -0.6310    1.6790    0.4540 O   0  0  0  0  0  0  0  0  0  0  0  0
   -1.1670   -0.6610    0.2840 C   0  0  0  0  0  0  0  0  0  0  0  0
   -2.1530   -1.1210   -0.5570 O   0  0  0  0  0  0  0  0  0  0  0  0
   -3.0080   -0.1570   -1.0270 C   0  0  1  0  0  0  0  0  0  0  0  0
   -3.9720    0.2250    0.0810 C   0  0  0  0  0  0  0  0  0  0  0  0
   -4.7160   -0.8730    0.5000 O   0  0  0  0  0  0  0  0  0  0  0  0
   -2.3780    0.9350   -1.5710 O   0  0  0  0  0  0  0  0  0  0  0  0
   -0.9910    0.7760   -1.6750 C   0  0  0  0  0  0  0  0  0  0  0  0
  1  2  1  0
  2  3  1  0
  3  4  1  1
  3  5  1  0
  5  6  1  0
  6  7  1  0
  7  8  1  1
  7  9  1  0
  7 15  1  0
  9 10  1  0
 10 11  1  0
 11 12  1  1
 11 14  1  0
 12 13  1  0
 14 15  1  0
M  END
