
     RDKit          3D

 22 24  0  0  0  0  0  0  0  0999 V2000
    1.2270    3.5320   -0.2890 C   0  0  0  0  0  0  0  0  0  0  0  0
    0.0720    2.6770    0.2770 C   0  0  1  0  0  0  0  0  0  0  0  0
   -1.1980    3.1170   -0.3840 C   0  0  0  0  0  0  0  0  0  0  0  0
   -2.2980    2.4490    0.2830 N   0  0  0  0  0  0  0  0  0  0  0  0
   -1.8130    1.3350    1.0730 C   0  0  0  0  0  0  0  0  0  0  0  0
   -0.8840    0.4420    0.3040 C   0  0  1  0  0  0  0  0  0  0  0  0
   -1.5350   -0.2770   -0.7880 C   0  0  0  0  0  0  0  0  0  0  0  0
   -2.5990   -1.2260   -0.6720 C   0  0  1  0  0  0  0  0  0  0  0  0
   -2.4240   -2.4780    0.1500 C   0  0  0  0  0  0  0  0  0  0  0  0
   -3.8330   -3.0760    0.0000 C   0  0  0  0  0  0  0  0  0  0  0  0
   -4.6740   -2.0940   -0.4940 O   0  0  0  0  0  0  0  0  0  0  0  0
   -3.9910   -0.8600   -0.2560 C   0  0  0  0  0  0  0  0  0  0  0  0
    0.3500    1.2290   -0.1840 C   0  0  1  0  0  0  0  0  0  0  0  0
    0.3760    1.3110   -1.5600 O   0  0  0  0  0  0  0  0  0  0  0  0
    1.6130    0.8560    0.4610 C   0  0  0  0  0  0  0  0  0  0  0  0
    2.2530   -0.4430    0.2540 C   0  0  2  0  0  0  0  0  0  0  0  0
    1.5150   -1.6810    0.6400 C   0  0  0  0  0  0  0  0  0  0  0  0
    3.4880   -0.4290    1.1920 C   0  0  0  0  0  0  0  0  0  0  0  0
    4.0050   -1.6990    1.1690 O   0  0  0  0  0  0  0  0  0  0  0  0
    4.5350   -1.9940   -0.0860 C   0  0  0  0  0  0  0  0  0  0  0  0
    3.5460   -1.7090   -1.1920 C   0  0  0  0  0  0  0  0  0  0  0  0
    2.8390   -0.5590   -1.0190 O   0  0  0  0  0  0  0  0  0  0  0  0
  2  1  1  6
  2  3  1  0
  2 13  1  0
  3  4  1  0
  4  5  1  0
  5  6  1  0
  6  7  1  6
  6 13  1  0
  8  7  1  1
  8  9  1  0
  8 12  1  0
  9 10  1  0
 10 11  1  0
 11 12  1  0
 13 14  1  6
 13 15  1  0
 15 16  1  0
 16 17  1  1
 16 18  1  0
 16 22  1  0
 18 19  1  0
 19 20  1  0
 20 21  1  0
 21 22  1  0
M  CHG  1   4   1
M  END
