
     RDKit          3D

 22 24  0  0  0  0  0  0  0  0999 V2000
    0.6710    4.2000    1.1180 C   0  0  0  0  0  0  0  0  0  0  0  0
   -0.1900    3.2790    0.6380 C   0  0  0  0  0  0  0  0  0  0  0  0
    0.2660    1.9850    0.1790 C   0  0  0  0  0  0  0  0  0  0  0  0
   -0.4190    0.9990   -0.3060 C   0  0  0  0  0  0  0  0  0  0  0  0
   -1.8770    0.8090   -0.5730 C   0  0  2  0  0  0  0  0  0  0  0  0
   -2.7480    1.8770   -0.3850 N   0  0  0  0  0  0  0  0  0  0  0  0
   -2.1060   -0.4080    0.2540 C   0  0  2  0  0  0  0  0  0  0  0  0
   -0.9460   -1.1710   -0.1850 C   0  0  0  0  0  0  0  0  0  0  0  0
   -1.0550   -2.4080   -0.0670 C   0  0  0  0  0  0  0  0  0  0  0  0
   -2.4100   -2.6550    0.4890 C   0  0  0  0  0  0  0  0  0  0  0  0
   -3.1630   -1.3810   -0.0730 C   0  0  2  0  0  0  0  0  0  0  0  0
   -3.2290   -1.5990   -1.5530 C   0  0  0  0  0  0  0  0  0  0  0  0
   -4.3670   -1.2290    0.5550 O   0  0  0  0  0  0  0  0  0  0  0  0
    0.0900   -3.1150   -0.4720 O   0  0  0  0  0  0  0  0  0  0  0  0
    1.1560   -2.3640   -0.9310 C   0  0  0  0  0  0  0  0  0  0  0  0
    1.9820   -2.7440   -1.7680 O   0  0  0  0  0  0  0  0  0  0  0  0
    1.3500   -0.9160   -0.3600 C   0  0  1  0  0  0  0  0  0  0  0  0
    2.4530   -0.4110   -0.9850 O   0  0  0  0  0  0  0  0  0  0  0  0
    3.6320   -0.4220   -0.3120 C   0  0  0  0  0  0  0  0  0  0  0  0
    3.7040    0.3420    0.9790 C   0  0  0  0  0  0  0  0  0  0  0  0
    5.1340    0.1160    1.5140 C   0  0  0  0  0  0  0  0  0  0  0  0
    0.1050   -0.2970   -0.7500 C   0  0  2  0  0  0  0  0  0  0  0  0
  1  2  2  0
  2  3  1  0
  3  4  2  3
  4  5  1  0
 22  4  1  1
  5  6  1  1
  5  7  1  0
  7  8  1  6
  7 11  1  0
  8  9  2  0
  8 22  1  0
  9 10  1  0
  9 14  1  0
 10 11  1  0
 11 12  1  6
 11 13  1  0
 14 15  1  0
 15 16  2  0
 15 17  1  0
 17 18  1  6
 17 22  1  0
 18 19  1  0
 19 20  1  0
 20 21  1  0
M  CHG  1   6   1
M  END
