
     RDKit          3D

 15 15  0  0  0  0  0  0  0  0999 V2000
    3.7470   -1.0310   -0.8850 O   0  0  0  0  0  0  0  0  0  0  0  0
    4.0530    0.1620   -0.6540 C   0  0  0  0  0  0  0  0  0  0  0  0
    5.3170    0.3680   -0.0710 O   0  0  0  0  0  0  0  0  0  0  0  0
    3.2150    1.2270   -0.9470 O   0  0  0  0  0  0  0  0  0  0  0  0
    1.9620    1.0260   -1.5250 C   0  0  0  0  0  0  0  0  0  0  0  0
    1.0870    0.1710   -0.6430 C   0  0  2  0  0  0  0  0  0  0  0  0
   -0.3360    0.1080   -1.1850 C   0  0  0  0  0  0  0  0  0  0  0  0
   -1.0640   -0.3640    0.0600 C   0  0  2  0  0  0  0  0  0  0  0  0
   -0.9370   -1.7720    0.0500 O   0  0  0  0  0  0  0  0  0  0  0  0
   -2.4910   -0.0290   -0.0210 C   0  0  0  0  0  0  0  0  0  0  0  0
   -3.3620   -0.4150    1.1110 C   0  0  0  0  0  0  0  0  0  0  0  0
   -3.4080   -1.7660    1.3730 O   0  0  0  0  0  0  0  0  0  0  0  0
   -0.2490    0.1740    1.1430 C   0  0  2  0  0  0  0  0  0  0  0  0
   -0.8140    1.1350    1.9450 O   0  0  0  0  0  0  0  0  0  0  0  0
    0.9000    0.7620    0.5780 O   0  0  0  0  0  0  0  0  0  0  0  0
  1  2  2  0
  2  3  1  0
  2  4  1  0
  4  5  1  0
  6  5  1  6
  6  7  1  0
  6 15  1  0
  7  8  1  0
  8  9  1  1
  8 10  1  0
  8 13  1  0
 10 11  1  0
 11 12  1  0
 13 14  1  6
 13 15  1  0
M  END
