
     RDKit          3D

 15 15  0  0  0  0  0  0  0  0999 V2000
   -3.0800   -1.4980    0.1820 O   0  0  0  0  0  0  0  0  0  0  0  0
   -2.9470   -0.1430   -0.0410 C   0  0  0  0  0  0  0  0  0  0  0  0
   -1.4600    0.2520   -0.1580 C   0  0  1  0  0  0  0  0  0  0  0  0
   -0.9770   -0.4760   -1.2310 O   0  0  0  0  0  0  0  0  0  0  0  0
   -1.4890    1.7310   -0.4250 C   0  0  0  0  0  0  0  0  0  0  0  0
   -2.3330    1.9530   -1.5320 O   0  0  0  0  0  0  0  0  0  0  0  0
   -0.8500   -0.1180    1.1580 C   0  0  1  0  0  0  0  0  0  0  0  0
   -1.0740   -1.4530    1.4830 O   0  0  0  0  0  0  0  0  0  0  0  0
    0.5840    0.2160    1.3360 C   0  0  2  0  0  0  0  0  0  0  0  0
    0.9480    1.5080    1.0500 O   0  0  0  0  0  0  0  0  0  0  0  0
    1.5500   -0.7130    0.6480 C   0  0  1  0  0  0  0  0  0  0  0  0
    1.5950   -0.5900   -0.7170 O   0  0  0  0  0  0  0  0  0  0  0  0
    2.9400   -0.8650   -1.0510 C   0  0  0  0  0  0  0  0  0  0  0  0
    3.6400   -0.1440    0.0800 C   0  0  0  0  0  0  0  0  0  0  0  0
    2.8210   -0.4220    1.1480 O   0  0  0  0  0  0  0  0  0  0  0  0
  1  2  1  0
  2  3  1  0
  3  4  1  6
  3  5  1  0
  3  7  1  0
  5  6  1  0
  7  8  1  6
  7  9  1  0
  9 10  1  6
  9 11  1  0
 11 12  1  6
 11 15  1  0
 12 13  1  0
 13 14  1  0
 14 15  1  0
M  END
