
     RDKit          3D

 19 19  0  0  0  0  0  0  0  0999 V2000
    3.3770   -1.8070   -0.1450 C   0  0  0  0  0  0  0  0  0  0  0  0
    2.8420   -0.7600    0.7720 C   0  0  0  0  0  0  0  0  0  0  0  0
    1.4830   -0.7440    0.9900 O   0  0  0  0  0  0  0  0  0  0  0  0
    0.5970   -0.5480   -0.0960 C   0  0  2  0  0  0  0  0  0  0  0  0
    0.8930    0.6860   -0.6580 O   0  0  0  0  0  0  0  0  0  0  0  0
    1.4540    1.5180    0.1610 O   0  0  0  0  0  0  0  0  0  0  0  0
    0.6720    1.9780    1.1330 N   0  0  0  0  0  0  0  0  0  0  0  0
   -1.0120    1.3810    0.8800 P   0  0  0  0  0  0  0  0  0  0  0  0
   -1.6580    2.1020   -0.5840 O   0  0  0  0  0  0  0  0  0  0  0  0
   -0.7020    2.8440   -1.1660 O   0  0  0  0  0  0  0  0  0  0  0  0
   -0.4760    4.1510   -0.7580 C   0  0  0  0  0  0  0  0  0  0  0  0
   -1.2000    4.6040    0.1750 O   0  0  0  0  0  0  0  0  0  0  0  0
   -0.8070   -0.4430    0.5030 C   0  0  2  0  0  0  0  0  0  0  0  0
   -0.8890   -1.1870    1.6840 O   0  0  0  0  0  0  0  0  0  0  0  0
   -2.1090   -0.9270   -0.7120 P   0  0  0  0  0  0  0  0  0  0  0  0
   -3.7570   -0.4290   -0.0080 C   0  0  0  0  0  0  0  0  0  0  0  0
   -2.1270   -3.1370   -0.9110 P   0  0  0  0  0  0  0  0  0  0  0  0
    3.8360    0.3490    1.5060 P   0  0  0  0  0  0  0  0  0  0  0  0
    5.5280    0.3100    1.2190 F   0  0  0  0  0  0  0  0  0  0  0  0
  1  2  1  0
  2  3  1  0
  2 18  2  3
  4  3  1  1
  4  5  1  0
  4 13  1  0
  5  6  1  0
  6  7  1  0
  7  8  1  0
  8  9  1  0
  8 13  1  0
  9 10  1  0
 10 11  1  0
 11 12  2  0
 13 14  1  1
 13 15  1  0
 15 16  1  0
 15 17  1  0
 18 19  1  0
M  END
