
     RDKit          3D

 19 18  0  0  0  0  0  0  0  0999 V2000
    5.3410    2.2560    1.8750 C   0  0  0  0  0  0  0  0  0  0  0  0
    4.9670    1.7140    0.6250 O   0  0  0  0  0  0  0  0  0  0  0  0
    3.9310    0.7870    0.4980 C   0  0  0  0  0  0  0  0  0  0  0  0
    3.3040    0.4130    1.5010 O   0  0  0  0  0  0  0  0  0  0  0  0
    3.5810    0.2700   -0.7310 O   0  0  0  0  0  0  0  0  0  0  0  0
    2.3190   -0.8790   -1.0030 P   0  0  0  0  0  0  0  0  0  0  0  0
    2.8230   -2.6150   -0.6490 C   0  0  0  0  0  0  0  0  0  0  0  0
    0.8530   -0.5010   -0.1590 O   0  0  0  0  0  0  0  0  0  0  0  0
    0.2420   -1.6450    0.0690 O   0  0  0  0  0  0  0  0  0  0  0  0
   -1.0460   -1.6380   -0.2650 N   0  0  0  0  0  0  0  0  0  0  0  0
   -1.4130   -2.8520   -1.5150 P   0  0  0  0  0  0  0  0  0  0  0  0
   -1.3690   -0.2790   -0.7110 C   0  0  0  0  0  0  0  0  0  0  0  0
   -2.6990   -0.1790   -1.0800 O   0  0  0  0  0  0  0  0  0  0  0  0
   -3.5370   -0.4550   -0.1300 O   0  0  0  0  0  0  0  0  0  0  0  0
   -4.2490    0.6170    0.3440 C   0  0  2  0  0  0  0  0  0  0  0  0
   -3.3240    1.6890    0.9130 C   0  0  0  0  0  0  0  0  0  0  0  0
   -5.0090    0.1620    1.4220 F   0  0  0  0  0  0  0  0  0  0  0  0
   -5.0930    1.2510   -0.6870 C   0  0  0  0  0  0  0  0  0  0  0  0
   -5.7810    2.2140   -0.4130 O   0  0  0  0  0  0  0  0  0  0  0  0
  1  2  1  0
  2  3  1  0
  3  4  2  0
  3  5  1  0
  5  6  1  0
  6  7  1  0
  6  8  1  0
  8  9  1  0
  9 10  1  0
 10 11  1  0
 10 12  1  0
 12 13  1  0
 13 14  1  0
 14 15  1  0
 15 16  1  1
 15 17  1  0
 15 18  1  0
 18 19  2  0
M  END
