
     RDKit          3D

  6  6  0  0  0  0  0  0  0  0999 V2000
    1.6500   -0.7110    1.1800 Cl  0  0  0  0  0  0  0  0  0  0  0  0
    0.6500   -0.3860   -0.2390 C   0  0  1  0  0  0  0  0  0  0  0  0
   -0.8000   -0.2260    0.1600 C   0  0  0  0  0  0  0  0  0  0  0  0
   -0.9230    1.1590    0.2290 O   0  0  0  0  0  0  0  0  0  0  0  0
    0.2350    1.6810   -0.0080 O   0  0  0  0  0  0  0  0  0  0  0  0
    0.9100    0.8850   -0.7880 O   0  0  0  0  0  0  0  0  0  0  0  0
  2  1  1  1
  2  3  1  0
  2  6  1  0
  3  4  1  0
  4  5  1  0
  5  6  1  0
M  END
