
     RDKit          3D

  5  5  0  0  0  0  0  0  0  0999 V2000
   -0.3870    0.6610   -0.4030 C   0  0  0  0  0  0  0  0  0  0  0  0
   -0.4730   -0.6470   -0.2420 C   0  0  0  0  0  0  0  0  0  0  0  0
    0.7950   -1.1110    0.0470 O   0  0  0  0  0  0  0  0  0  0  0  0
    1.6740   -0.1070   -0.0940 O   0  0  0  0  0  0  0  0  0  0  0  0
    0.9430    1.0110   -0.2120 O   0  0  0  0  0  0  0  0  0  0  0  0
  1  2  2  0
  1  5  1  0
  2  3  1  0
  3  4  1  0
  4  5  1  0
M  END
