
     RDKit          3D

  6  6  0  0  0  0  0  0  0  0999 V2000
   -1.3760   -0.0900    0.2480 C   0  0  0  0  0  0  0  0  0  0  0  0
   -0.1100    0.0190   -0.0120 C   0  0  0  0  0  0  0  0  0  0  0  0
    0.7710    0.9510    0.4880 O   0  0  0  0  0  0  0  0  0  0  0  0
    1.9690    0.6930   -0.0590 O   0  0  0  0  0  0  0  0  0  0  0  0
    1.9190   -0.5260   -0.5280 O   0  0  0  0  0  0  0  0  0  0  0  0
    0.6450   -0.7700   -0.8480 O   0  0  0  0  0  0  0  0  0  0  0  0
  1  2  2  0
  2  3  1  0
  2  6  1  0
  3  4  1  0
  4  5  1  0
  5  6  1  0
M  END
