
     RDKit          3D

  7  7  0  0  0  0  0  0  0  0999 V2000
    1.3530   -0.0940    0.8210 O   0  0  0  0  0  0  0  0  0  0  0  0
    0.4560    0.3300   -0.1470 C   0  0  2  0  0  0  0  0  0  0  0  0
    0.7130    2.0310   -0.5010 Cl  0  0  0  0  0  0  0  0  0  0  0  0
   -0.9520    0.0760    0.4190 C   0  0  0  0  0  0  0  0  0  0  0  0
   -1.1830   -1.1880   -0.0550 O   0  0  0  0  0  0  0  0  0  0  0  0
   -0.4340   -1.4300   -1.0680 O   0  0  0  0  0  0  0  0  0  0  0  0
    0.4130   -0.4790   -1.2530 O   0  0  0  0  0  0  0  0  0  0  0  0
  2  1  1  1
  2  3  1  0
  2  4  1  0
  2  7  1  0
  4  5  1  0
  5  6  1  0
  6  7  1  0
M  END
