
     RDKit          3D

 20 21  0  0  0  0  0  0  0  0999 V2000
   -6.0100    1.6520   -1.9920 O   0  0  0  0  0  0  0  0  0  0  0  0
   -5.2270    0.9110   -1.3810 C   0  0  0  0  0  0  0  0  0  0  0  0
   -5.5250   -0.5360   -1.2580 C   0  0  0  0  0  0  0  0  0  0  0  0
   -5.0580   -0.9340    0.1480 C   0  0  0  0  0  0  0  0  0  0  0  0
   -3.5590   -0.8020    0.2830 C   0  0  0  0  0  0  0  0  0  0  0  0
   -2.9990    0.3280   -0.5820 C   0  0  2  0  0  0  0  0  0  0  0  0
   -1.8030    0.8900    0.1260 C   0  0  0  0  0  0  0  0  0  0  0  0
   -1.9120    1.8460    0.9680 O   0  0  0  0  0  0  0  0  0  0  0  0
   -0.5250    0.3260   -0.1670 N   0  0  0  0  0  0  0  0  0  0  0  0
    0.6140    0.7870    0.4450 N   0  0  0  0  0  0  0  0  0  0  0  0
    1.8790    0.2560    0.0460 C   0  0  0  0  0  0  0  0  0  0  0  0
    1.9730   -0.6230   -0.8720 O   0  0  0  0  0  0  0  0  0  0  0  0
    3.0980    0.6580    0.6350 N   0  0  0  0  0  0  0  0  0  0  0  0
    4.3450    0.0660    0.1790 C   0  0  0  0  0  0  0  0  0  0  0  0
    5.2790    0.8380   -0.2670 C   0  0  0  0  0  0  0  0  0  0  0  0
    6.6150    0.5210   -0.7860 C   0  0  0  0  0  0  0  0  0  0  0  0
    6.8850   -1.2600   -0.8050 S   0  0  0  0  0  0  0  0  0  0  0  0
    5.4580   -2.0720   -0.1430 C   0  0  0  0  0  0  0  0  0  0  0  0
    4.4160   -1.3980    0.2510 C   0  0  0  0  0  0  0  0  0  0  0  0
   -4.0160    1.3600   -0.7680 N   0  0  0  0  0  0  0  0  0  0  0  0
  1  2  2  0
  2  3  1  0
  2 20  1  0
  3  4  1  0
  4  5  1  0
  5  6  1  0
  6  7  1  1
  6 20  1  0
  7  8  2  0
  7  9  1  0
  9 10  1  0
 10 11  1  0
 11 12  2  0
 11 13  1  0
 13 14  1  0
 14 15  2  0
 14 19  1  0
 15 16  1  0
 16 17  1  0
 17 18  1  0
 18 19  2  0
M  END
