
     RDKit          3D

 20 21  0  0  0  0  0  0  0  0999 V2000
    6.4180    0.8530    2.0150 C   0  0  0  0  0  0  0  0  0  0  0  0
    5.3140    0.0150    1.4870 C   0  0  0  0  0  0  0  0  0  0  0  0
    5.5960   -0.8070    0.5690 O   0  0  0  0  0  0  0  0  0  0  0  0
    3.9730    0.0580    1.9250 N   0  0  0  0  0  0  0  0  0  0  0  0
    3.0270   -0.7810    1.3420 N   0  0  0  0  0  0  0  0  0  0  0  0
    2.4980   -0.5170    0.0400 C   0  0  0  0  0  0  0  0  0  0  0  0
    2.9130    0.5200   -0.5350 O   0  0  0  0  0  0  0  0  0  0  0  0
    1.5580   -1.3410   -0.6220 N   0  0  0  0  0  0  0  0  0  0  0  0
    1.0760   -1.0150   -1.9260 C   0  0  0  0  0  0  0  0  0  0  0  0
    0.3280    0.2780   -2.0360 C   0  0  1  0  0  0  0  0  0  0  0  0
    0.0060    0.4090   -3.4170 O   0  0  0  0  0  0  0  0  0  0  0  0
   -1.0120    0.1870   -1.3760 C   0  0  0  0  0  0  0  0  0  0  0  0
   -1.8750   -0.7310   -1.7630 C   0  0  0  0  0  0  0  0  0  0  0  0
   -3.1450   -0.9230   -1.2370 N   0  0  0  0  0  0  0  0  0  0  0  0
   -3.7100   -0.1450   -0.1860 C   0  0  0  0  0  0  0  0  0  0  0  0
   -3.1320    0.8500    0.4320 C   0  0  0  0  0  0  0  0  0  0  0  0
   -4.0270    1.3980    1.4510 C   0  0  0  0  0  0  0  0  0  0  0  0
   -5.3990    1.0180    0.9640 C   0  0  0  0  0  0  0  0  0  0  0  0
   -5.0960   -0.3480    0.3770 C   0  0  0  0  0  0  0  0  0  0  0  0
   -1.4530    1.3070   -0.0800 S   0  0  0  0  0  0  0  0  0  0  0  0
  1  2  1  0
  2  3  2  0
  2  4  1  0
  4  5  1  0
  5  6  1  0
  6  7  2  0
  6  8  1  0
  8  9  1  0
  9 10  1  0
 10 11  1  6
 10 12  1  0
 12 13  2  0
 12 20  1  0
 13 14  1  0
 14 15  1  0
 15 16  2  0
 15 19  1  0
 16 17  1  0
 16 20  1  0
 17 18  1  0
 18 19  1  0
M  END
