
     RDKit          3D

 20 22  0  0  0  0  0  0  0  0999 V2000
   -5.2730   -1.4380   -0.0020 C   0  0  0  0  0  0  0  0  0  0  0  0
   -4.0830   -2.7070    0.3870 S   0  0  0  0  0  0  0  0  0  0  0  0
   -2.4120   -2.3800   -0.1240 C   0  0  0  0  0  0  0  0  0  0  0  0
   -1.7450   -1.2590    0.6160 C   0  0  1  0  0  0  0  0  0  0  0  0
   -0.4350   -1.1400    0.1230 O   0  0  0  0  0  0  0  0  0  0  0  0
   -0.0990    0.1930    0.3820 C   0  0  1  0  0  0  0  0  0  0  0  0
    1.1430    0.5650   -0.1950 N   0  0  0  0  0  0  0  0  0  0  0  0
    1.3270    1.2120   -1.3640 C   0  0  0  0  0  0  0  0  0  0  0  0
    2.6720    1.3840   -1.5690 C   0  0  0  0  0  0  0  0  0  0  0  0
    3.3420    0.8300   -0.5000 C   0  0  0  0  0  0  0  0  0  0  0  0
    4.6760    0.7160   -0.1830 C   0  0  0  0  0  0  0  0  0  0  0  0
    5.7010    1.2180   -1.0210 N   0  0  0  0  0  0  0  0  0  0  0  0
    4.9980    0.1020    0.9650 N   0  0  0  0  0  0  0  0  0  0  0  0
    4.0210   -0.3840    1.7760 C   0  0  0  0  0  0  0  0  0  0  0  0
    2.7320   -0.2800    1.4800 N   0  0  0  0  0  0  0  0  0  0  0  0
    2.3510    0.3270    0.3390 C   0  0  0  0  0  0  0  0  0  0  0  0
   -1.2850    0.8980   -0.2230 C   0  0  2  0  0  0  0  0  0  0  0  0
   -1.3920    2.2150    0.2260 O   0  0  0  0  0  0  0  0  0  0  0  0
   -2.4190    0.0370    0.2780 C   0  0  2  0  0  0  0  0  0  0  0  0
   -2.8850    0.6530    1.4470 O   0  0  0  0  0  0  0  0  0  0  0  0
  1  2  1  0
  2  3  1  0
  4  3  1  6
  4  5  1  0
  4 19  1  0
  5  6  1  0
  6  7  1  6
  6 17  1  0
  7  8  1  0
  7 16  1  0
  8  9  2  0
  9 10  1  0
 10 11  2  0
 10 16  1  0
 11 12  1  0
 11 13  1  0
 13 14  2  0
 14 15  1  0
 15 16  2  0
 17 18  1  1
 17 19  1  0
 19 20  1  1
M  END
