
     RDKit          3D

 20 21  0  0  0  0  0  0  0  0999 V2000
    7.7420    0.0310    0.8090 C   0  0  0  0  0  0  0  0  0  0  0  0
    6.2900    0.2720    0.6550 C   0  0  0  0  0  0  0  0  0  0  0  0
    5.6840    0.9910    1.4870 O   0  0  0  0  0  0  0  0  0  0  0  0
    5.5720   -0.3240   -0.4570 C   0  0  0  0  0  0  0  0  0  0  0  0
    4.2990   -0.1640   -0.6660 C   0  0  0  0  0  0  0  0  0  0  0  0
    3.4610   -0.6750   -1.6960 N   0  0  0  0  0  0  0  0  0  0  0  0
    2.1460   -0.6060   -1.4890 N   0  0  0  0  0  0  0  0  0  0  0  0
    1.6430   -0.1470   -0.5000 C   0  0  0  0  0  0  0  0  0  0  0  0
    0.2510   -0.1150   -0.3290 N   0  0  0  0  0  0  0  0  0  0  0  0
   -0.2680    0.0270    0.9410 C   0  0  0  0  0  0  0  0  0  0  0  0
    0.5690    0.0500    1.8470 O   0  0  0  0  0  0  0  0  0  0  0  0
   -1.7180    0.1420    1.1910 C   0  0  0  0  0  0  0  0  0  0  0  0
   -2.4610    0.0130   -0.0150 O   0  0  0  0  0  0  0  0  0  0  0  0
   -3.8410    0.1030    0.0870 C   0  0  0  0  0  0  0  0  0  0  0  0
   -4.6050   -0.9750    0.0960 C   0  0  0  0  0  0  0  0  0  0  0  0
   -6.0820   -0.9630    0.2010 C   0  0  0  0  0  0  0  0  0  0  0  0
   -6.6120    0.3570    0.2940 N   0  0  0  0  0  0  0  0  0  0  0  0
   -5.7840    1.5110    0.2830 C   0  0  0  0  0  0  0  0  0  0  0  0
   -4.4910    1.4040    0.1860 C   0  0  0  0  0  0  0  0  0  0  0  0
    3.0720    0.7520    0.2420 S   0  0  0  0  0  0  0  0  0  0  0  0
  1  2  1  0
  2  3  2  0
  2  4  1  0
  4  5  2  3
  5  6  1  0
  5 20  1  0
  6  7  1  0
  7  8  2  0
  8  9  1  0
  8 20  1  0
  9 10  1  0
 10 11  2  0
 10 12  1  0
 12 13  1  0
 13 14  1  0
 14 15  2  0
 14 19  1  0
 15 16  1  0
 16 17  1  0
 17 18  1  0
 18 19  2  0
M  END
