
     RDKit          3D

 20 21  0  0  0  0  0  0  0  0999 V2000
    7.1030   -0.0330    0.5560 C   0  0  0  0  0  0  0  0  0  0  0  0
    5.7270   -0.6370    0.8420 C   0  0  0  0  0  0  0  0  0  0  0  0
    4.7020    0.3190    0.2330 C   0  0  0  0  0  0  0  0  0  0  0  0
    3.3550   -0.1680    0.4540 N   0  0  0  0  0  0  0  0  0  0  0  0
    2.2640    0.6040   -0.0490 C   0  0  0  0  0  0  0  0  0  0  0  0
    2.5230    1.6750   -0.6650 O   0  0  0  0  0  0  0  0  0  0  0  0
    0.9170    0.1570    0.1500 N   0  0  0  0  0  0  0  0  0  0  0  0
   -0.0960    0.9630   -0.3700 N   0  0  0  0  0  0  0  0  0  0  0  0
   -1.0900   -0.0300   -1.4010 S   0  0  1  0  0  0  0  0  0  0  0  0
   -1.5620    0.8060   -2.5620 O   0  0  0  0  0  0  0  0  0  0  0  0
   -0.2810   -1.1850   -1.9370 O   0  0  0  0  0  0  0  0  0  0  0  0
   -2.3880   -0.6440   -0.4490 C   0  0  0  0  0  0  0  0  0  0  0  0
   -2.2190   -1.6110    0.4390 C   0  0  0  0  0  0  0  0  0  0  0  0
   -3.4070   -2.0820    1.1690 C   0  0  0  0  0  0  0  0  0  0  0  0
   -4.6390   -1.5870    0.9110 C   0  0  0  0  0  0  0  0  0  0  0  0
   -4.8850   -0.6010   -0.1050 C   0  0  1  0  0  0  0  0  0  0  0  0
   -5.5680    0.6670   -0.0320 C   0  0  0  0  0  0  0  0  0  0  0  0
   -4.2850    1.3130   -0.4770 C   0  0  0  0  0  0  0  0  0  0  0  0
   -3.9750    2.6440   -0.8560 N   0  0  0  0  0  0  0  0  0  0  0  0
   -3.6360    0.1580   -0.3610 C   0  0  0  0  0  0  0  0  0  0  0  0
  1  2  1  0
  2  3  1  0
  3  4  1  0
  4  5  1  0
  5  6  2  0
  5  7  1  0
  7  8  1  0
  9  8  1  1
  9 10  2  0
  9 11  2  0
  9 12  1  0
 12 13  2  0
 12 20  1  0
 13 14  1  0
 14 15  2  0
 15 16  1  0
 16 17  1  1
 16 20  1  0
 17 18  1  0
 18 19  1  0
 18 20  2  0
M  END
