
     RDKit          3D

 20 22  0  0  0  0  0  0  0  0999 V2000
    1.5030    0.1270    1.1400 O   0  0  0  0  0  0  0  0  0  0  0  0
    2.0310    0.2030    0.0090 C   0  0  0  0  0  0  0  0  0  0  0  0
    3.4680    0.2850   -0.0100 N   0  0  0  0  0  0  0  0  0  0  0  0
    4.2050    0.2780    1.2140 C   0  0  0  0  0  0  0  0  0  0  0  0
    5.6860    0.3740    1.0480 C   0  0  1  0  0  0  0  0  0  0  0  0
    6.3150   -0.7160    0.2550 C   0  0  0  0  0  0  0  0  0  0  0  0
    6.3120    0.7300   -0.2290 C   0  0  0  0  0  0  0  0  0  0  0  0
    1.2670    0.2070   -1.1660 N   0  0  0  0  0  0  0  0  0  0  0  0
   -0.1300    0.1280   -1.1920 C   0  0  0  0  0  0  0  0  0  0  0  0
   -0.8950    0.1310   -2.3490 C   0  0  0  0  0  0  0  0  0  0  0  0
   -2.1710    0.0430   -1.9500 N   0  0  0  0  0  0  0  0  0  0  0  0
   -2.2740   -0.0160   -0.6290 C   0  0  0  0  0  0  0  0  0  0  0  0
   -3.4950   -0.1170    0.1720 C   0  0  2  0  0  0  0  0  0  0  0  0
   -4.3140   -1.3160   -0.2610 C   0  0  0  0  0  0  0  0  0  0  0  0
   -5.5420   -1.2960    0.6260 C   0  0  0  0  0  0  0  0  0  0  0  0
   -5.9360    0.4610    0.6030 S   0  0  2  0  0  0  0  0  0  0  0  0
   -6.0890    1.0060    1.9740 O   0  0  0  0  0  0  0  0  0  0  0  0
   -7.0980    0.7300   -0.2900 O   0  0  0  0  0  0  0  0  0  0  0  0
   -4.4080    1.0720   -0.1220 C   0  0  0  0  0  0  0  0  0  0  0  0
   -0.9850    0.0390   -0.1690 N   0  0  0  0  0  0  0  0  0  0  0  0
  1  2  2  0
  2  3  1  0
  2  8  1  0
  3  4  1  0
  5  4  1  6
  5  6  1  0
  5  7  1  0
  6  7  1  0
  8  9  1  0
  9 10  2  0
  9 20  1  0
 10 11  1  0
 11 12  2  0
 13 12  1  6
 12 20  1  0
 13 14  1  0
 13 19  1  0
 14 15  1  0
 16 15  1  1
 16 17  2  0
 16 18  2  0
 16 19  1  0
M  END
