
     RDKit          3D

  9  9  0  0  0  0  0  0  0  0999 V2000
   -2.3680    0.2770   -0.1340 C   0  0  0  0  0  0  0  0  0  0  0  0
   -0.9230    0.0290    0.1360 C   0  0  2  0  0  0  0  0  0  0  0  0
   -0.7530   -0.4850    1.4320 O   0  0  0  0  0  0  0  0  0  0  0  0
   -0.0820    1.2530   -0.1000 C   0  0  0  0  0  0  0  0  0  0  0  0
    1.2850    1.0100    0.4160 C   0  0  0  0  0  0  0  0  0  0  0  0
    1.8980   -0.2870    0.0840 C   0  0  2  0  0  0  0  0  0  0  0  0
    3.0520   -0.1320   -1.2870 Cl  0  0  0  0  0  0  0  0  0  0  0  0
    0.9850   -1.4120   -0.2100 C   0  0  0  0  0  0  0  0  0  0  0  0
   -0.3330   -1.0380   -0.7980 C   0  0  0  0  0  0  0  0  0  0  0  0
  2  1  1  6
  2  3  1  0
  2  4  1  0
  2  9  1  0
  4  5  1  0
  5  6  1  0
  6  7  1  6
  6  8  1  0
  8  9  1  0
M  END
