
     RDKit          3D

 20 21  0  0  0  0  0  0  0  0999 V2000
   -3.2900   -0.5610    1.6580 C   0  0  0  0  0  0  0  0  0  0  0  0
   -2.9380    0.1600    0.4210 C   0  0  2  0  0  0  0  0  0  0  0  0
   -3.6070    1.5060    0.3940 C   0  0  0  0  0  0  0  0  0  0  0  0
   -3.2510   -0.5680   -0.8680 C   0  0  0  0  0  0  0  0  0  0  0  0
   -2.2950    0.0430   -1.9100 C   0  0  0  0  0  0  0  0  0  0  0  0
   -1.5470    1.0860   -1.1140 C   0  0  0  0  0  0  0  0  0  0  0  0
   -1.0930    2.3590   -1.4690 S   0  0  0  0  0  0  0  0  0  0  0  0
   -1.4300    0.4070    0.2290 C   0  0  2  0  0  0  0  0  0  0  0  0
   -0.7390   -0.8090    0.0520 N   0  0  0  0  0  0  0  0  0  0  0  0
    0.6270   -0.8100    0.3850 C   0  0  0  0  0  0  0  0  0  0  0  0
    1.5130   -0.0310   -0.5490 C   0  0  0  0  0  0  0  0  0  0  0  0
    2.9260   -0.0850   -0.2040 N   0  0  0  0  0  0  0  0  0  0  0  0
    3.6870   -1.0680   -0.6960 C   0  0  0  0  0  0  0  0  0  0  0  0
    3.2680   -1.9890   -1.4380 O   0  0  0  0  0  0  0  0  0  0  0  0
    5.0210   -1.1250   -0.4060 N   0  0  0  0  0  0  0  0  0  0  0  0
    5.5700   -0.2040    0.3690 C   0  0  0  0  0  0  0  0  0  0  0  0
    6.8050   -0.2630    0.6340 O   0  0  0  0  0  0  0  0  0  0  0  0
    4.8310    0.7860    0.8720 N   0  0  0  0  0  0  0  0  0  0  0  0
    3.5130    0.8350    0.5800 C   0  0  0  0  0  0  0  0  0  0  0  0
    2.8480    1.7700    1.0630 O   0  0  0  0  0  0  0  0  0  0  0  0
  2  1  1  1
  2  3  1  0
  2  4  1  0
  2  8  1  0
  4  5  1  0
  5  6  1  0
  6  7  2  0
  6  8  1  0
  8  9  1  6
  9 10  1  0
 10 11  1  0
 11 12  1  0
 12 13  1  0
 12 19  1  0
 13 14  2  0
 13 15  1  0
 15 16  1  0
 16 17  2  0
 16 18  1  0
 18 19  1  0
 19 20  2  0
M  END
