
     RDKit          3D

 22 23  0  0  0  0  0  0  0  0999 V2000
   -4.6420   -1.7180   -0.0150 C   0  0  0  0  0  0  0  0  0  0  0  0
   -4.3740   -0.3210   -0.0850 N   0  0  0  0  0  0  0  0  0  0  0  0
   -3.1460    0.3360   -0.2770 C   0  0  0  0  0  0  0  0  0  0  0  0
   -1.9230   -0.4250   -0.4780 N   0  0  0  0  0  0  0  0  0  0  0  0
   -0.6880    0.2190   -0.8320 C   0  0  2  0  0  0  0  0  0  0  0  0
    0.3660   -0.8560   -0.9890 C   0  0  0  0  0  0  0  0  0  0  0  0
    1.0880   -0.9810    0.3580 C   0  0  0  0  0  0  0  0  0  0  0  0
    1.9400    0.1850    0.4180 N   0  0  0  0  0  0  0  0  0  0  0  0
    3.3300    0.2010    0.6270 C   0  0  0  0  0  0  0  0  0  0  0  0
    3.8570    1.3790    0.6420 O   0  0  0  0  0  0  0  0  0  0  0  0
    4.1810   -0.9630    0.8200 C   0  0  0  0  0  0  0  0  0  0  0  0
    3.7850   -2.1450    0.8200 O   0  0  0  0  0  0  0  0  0  0  0  0
    5.9240   -0.7130    1.0760 S   0  0  0  0  0  0  0  0  0  0  0  0
    6.5080    0.3710   -0.2380 C   0  0  0  0  0  0  0  0  0  0  0  0
    6.6820   -2.0100    1.1170 O   0  0  0  0  0  0  0  0  0  0  0  0
    1.2000    1.4170    0.2280 C   0  0  0  0  0  0  0  0  0  0  0  0
    1.7860    2.5220    0.1200 O   0  0  0  0  0  0  0  0  0  0  0  0
   -0.2750    1.2660    0.1750 C   0  0  0  0  0  0  0  0  0  0  0  0
   -3.1350    1.5730   -0.2700 N   0  0  0  0  0  0  0  0  0  0  0  0
   -4.2860    2.2950   -0.0810 N   0  0  0  0  0  0  0  0  0  0  0  0
   -5.5560    1.0160    0.0570 P   0  0  0  0  0  0  0  0  0  0  0  0
   -6.3120    1.0370    1.6130 O   0  0  0  0  0  0  0  0  0  0  0  0
  1  2  1  0
  2  3  1  0
  2 21  1  0
  3  4  1  0
  3 19  2  0
  5  4  1  1
  5  6  1  0
  5 18  1  0
  6  7  1  0
  7  8  1  0
  8  9  1  0
  8 16  1  0
  9 10  2  0
  9 11  1  0
 11 12  2  0
 11 13  1  0
 13 14  1  6
 13 15  2  0
 16 17  2  0
 16 18  1  0
 19 20  1  0
 20 21  1  0
 21 22  1  0
M  END
