
     RDKit          3D

 22 23  0  0  0  0  0  0  0  0999 V2000
    4.4800    1.3140   -0.4550 N   0  0  0  0  0  0  0  0  0  0  0  0
    3.7850    0.2710   -0.1830 C   0  0  0  0  0  0  0  0  0  0  0  0
    2.4900    0.3870    0.4010 N   0  0  0  0  0  0  0  0  0  0  0  0
    1.8250    1.6720    0.5140 C   0  0  0  0  0  0  0  0  0  0  0  0
    0.4780    1.4490    1.1730 C   0  0  0  0  0  0  0  0  0  0  0  0
   -0.4810    0.3070    0.1150 S   0  0  0  0  0  0  0  0  0  0  0  0
   -2.0750    0.0390    0.8890 C   0  0  0  0  0  0  0  0  0  0  0  0
   -2.4030    0.6480    2.0830 C   0  0  0  0  0  0  0  0  0  0  0  0
   -3.6490    0.3960    2.6220 C   0  0  0  0  0  0  0  0  0  0  0  0
   -4.5050   -0.4240    1.9860 N   0  0  0  0  0  0  0  0  0  0  0  0
   -4.2150   -1.0350    0.8200 C   0  0  0  0  0  0  0  0  0  0  0  0
   -2.9770   -0.8110    0.2430 C   0  0  0  0  0  0  0  0  0  0  0  0
   -2.9070   -1.5400   -0.9450 O   0  0  0  0  0  0  0  0  0  0  0  0
   -4.2500   -1.7900   -1.3160 C   0  0  2  0  0  0  0  0  0  0  0  0
   -4.8120   -0.6050   -1.9740 C   0  0  0  0  0  0  0  0  0  0  0  0
   -4.0200    0.5630   -2.1530 N   0  0  0  0  0  0  0  0  0  0  0  0
   -5.9930   -0.5630   -2.4030 O   0  0  0  0  0  0  0  0  0  0  0  0
   -4.8730   -1.9030   -0.0390 O   0  0  0  0  0  0  0  0  0  0  0  0
    4.3750   -0.9970   -0.4930 N   0  0  0  0  0  0  0  0  0  0  0  0
    6.1220   -1.1760   -0.8010 P   0  0  0  0  0  0  0  0  0  0  0  0
    6.5200   -2.8660   -0.5400 O   0  0  0  0  0  0  0  0  0  0  0  0
    7.0770   -0.2730    0.3340 O   0  0  0  0  0  0  0  0  0  0  0  0
  1  2  2  0
  2  3  1  0
  2 19  1  0
  3  4  1  0
  4  5  1  0
  5  6  1  0
  6  7  1  0
  7  8  2  0
  7 12  1  0
  8  9  1  0
  9 10  2  0
 10 11  1  0
 11 12  2  0
 11 18  1  0
 12 13  1  0
 13 14  1  0
 14 15  1  6
 14 18  1  0
 15 16  1  0
 15 17  2  0
 19 20  1  0
 20 21  1  0
 20 22  1  0
M  END
