
     RDKit          3D

 23 24  0  0  0  0  0  0  0  0999 V2000
   -0.0600    1.3300   -2.3970 N   0  0  0  0  0  0  0  0  0  0  0  0
    0.8800    1.0750   -1.4840 C   0  0  0  0  0  0  0  0  0  0  0  0
    2.1840    1.1190   -1.7270 O   0  0  0  0  0  0  0  0  0  0  0  0
    3.1620    0.6130   -2.4260 O   0  0  0  0  0  0  0  0  0  0  0  0
    3.3570   -0.6860   -2.8410 C   0  0  0  0  0  0  0  0  0  0  0  0
    3.2300   -1.0690   -4.0640 O   0  0  0  0  0  0  0  0  0  0  0  0
    3.7270   -1.7620   -1.9420 N   0  0  0  0  0  0  0  0  0  0  0  0
    3.5290   -1.5790   -0.5160 C   0  0  0  0  0  0  0  0  0  0  0  0
    3.1830   -2.1420    0.5130 N   0  0  0  0  0  0  0  0  0  0  0  0
    3.0820   -1.5380    1.6250 N   0  0  0  0  0  0  0  0  0  0  0  0
    3.3250   -0.3050    1.7760 C   0  0  0  0  0  0  0  0  0  0  0  0
    3.8050    0.1340    0.0330 S   0  0  0  0  0  0  0  0  0  0  0  0
    3.4300    0.8290    2.4440 O   0  0  0  0  0  0  0  0  0  0  0  0
    2.7050    2.0080    2.1790 C   0  0  0  0  0  0  0  0  0  0  0  0
    1.5400    2.1320    1.5880 C   0  0  0  0  0  0  0  0  0  0  0  0
    0.6140    1.1880    1.0200 C   0  0  0  0  0  0  0  0  0  0  0  0
    0.3190    0.7390   -0.1800 C   0  0  0  0  0  0  0  0  0  0  0  0
   -0.7800   -0.2710   -0.1900 N   0  0  0  0  0  0  0  0  0  0  0  0
   -2.0850    0.1900    0.2290 C   0  0  0  0  0  0  0  0  0  0  0  0
   -3.1030   -0.9350    0.1620 C   0  0  0  0  0  0  0  0  0  0  0  0
   -4.4710   -0.4680    0.5980 C   0  0  0  0  0  0  0  0  0  0  0  0
   -5.3540   -1.5180    0.5190 O   0  0  0  0  0  0  0  0  0  0  0  0
   -6.5600   -1.1040    0.9040 O   0  0  0  0  0  0  0  0  0  0  0  0
  1  2  2  0
  2  3  1  0
  2 17  1  0
  3  4  1  0
  4  5  1  0
  5  6  2  0
  5  7  1  0
  7  8  1  0
  8  9  2  0
  8 12  1  0
  9 10  1  0
 10 11  2  0
 11 12  1  0
 11 13  1  0
 13 14  1  0
 14 15  2  0
 15 16  1  0
 16 17  2  0
 17 18  1  0
 18 19  1  0
 19 20  1  0
 20 21  1  0
 21 22  1  0
 22 23  1  0
M  END
