
     RDKit          3D

 23 24  0  0  0  0  0  0  0  0999 V2000
   -7.2310    0.7590   -0.0790 N   0  0  0  0  0  0  0  0  0  0  0  0
   -5.8280    0.6900   -0.2430 C   0  0  0  0  0  0  0  0  0  0  0  0
   -5.0220    0.8300    0.7750 C   0  0  0  0  0  0  0  0  0  0  0  0
   -3.5920    0.7590    0.6050 N   0  0  0  0  0  0  0  0  0  0  0  0
   -3.0760   -0.4400    0.0570 C   0  0  0  0  0  0  0  0  0  0  0  0
   -3.9780   -1.4330   -0.2660 N   0  0  0  0  0  0  0  0  0  0  0  0
   -3.5720   -2.5910   -0.7850 C   0  0  0  0  0  0  0  0  0  0  0  0
   -2.2190   -2.7870   -0.9990 C   0  0  0  0  0  0  0  0  0  0  0  0
   -1.2900   -1.8230   -0.6920 C   0  0  0  0  0  0  0  0  0  0  0  0
   -1.7450   -0.6100   -0.1440 C   0  0  0  0  0  0  0  0  0  0  0  0
   -0.7790    0.4280    0.1900 C   0  0  0  0  0  0  0  0  0  0  0  0
   -0.8730    1.6400    0.7010 N   0  0  0  0  0  0  0  0  0  0  0  0
    0.2920    2.1940    0.8160 O   0  0  0  0  0  0  0  0  0  0  0  0
    1.2210    1.3730    0.3840 C   0  0  0  0  0  0  0  0  0  0  0  0
    2.6780    1.6750    0.3660 C   0  0  0  0  0  0  0  0  0  0  0  0
    3.3220    0.5680   -0.1550 O   0  0  0  0  0  0  0  0  0  0  0  0
    5.0060    0.7750   -0.2350 S   0  0  1  0  0  0  0  0  0  0  0  0
    5.4440    2.3950   -0.4520 O   0  0  0  0  0  0  0  0  0  0  0  0
    5.7760    0.1750    1.1580 O   0  0  0  0  0  0  0  0  0  0  0  0
    6.7010   -1.2370    0.8510 P   0  0  0  0  0  0  0  0  0  0  0  0
    8.0310   -0.9020   -0.1970 O   0  0  0  0  0  0  0  0  0  0  0  0
    5.7640   -2.5680    0.3100 O   0  0  0  0  0  0  0  0  0  0  0  0
    0.5780    0.2700   -0.0090 N   0  0  0  0  0  0  0  0  0  0  0  0
  1  2  1  0
  2  3  2  3
  3  4  1  0
  4  5  1  0
  5  6  2  0
  5 10  1  0
  6  7  1  0
  7  8  2  0
  8  9  1  0
  9 10  2  0
 10 11  1  0
 11 12  2  0
 11 23  1  0
 12 13  1  0
 13 14  1  0
 14 15  1  0
 14 23  2  0
 15 16  1  0
 16 17  1  0
 17 18  1  1
 17 19  1  0
 19 20  1  0
 20 21  1  0
 20 22  1  0
M  END
