
     RDKit          3D

 23 24  0  0  0  0  0  0  0  0999 V2000
   -6.0900    1.2030    1.7590 N   0  0  0  0  0  0  0  0  0  0  0  0
   -4.7750    0.7660    1.5020 C   0  0  0  0  0  0  0  0  0  0  0  0
   -3.8320    1.4730    1.9080 O   0  0  0  0  0  0  0  0  0  0  0  0
   -4.4680   -0.4880    0.7760 C   0  0  0  0  0  0  0  0  0  0  0  0
   -3.0030   -0.6800    0.6600 C   0  0  0  0  0  0  0  0  0  0  0  0
   -2.2930   -0.1810   -0.4200 C   0  0  0  0  0  0  0  0  0  0  0  0
   -0.9340   -0.3870   -0.4790 C   0  0  0  0  0  0  0  0  0  0  0  0
   -0.1940    0.1010   -1.5490 O   0  0  0  0  0  0  0  0  0  0  0  0
    1.1930   -0.1000   -1.6260 C   0  0  0  0  0  0  0  0  0  0  0  0
    1.9300    0.1550   -0.5680 C   0  0  0  0  0  0  0  0  0  0  0  0
    3.3680   -0.0130   -0.5250 C   0  0  0  0  0  0  0  0  0  0  0  0
    4.0160    0.3100    0.7010 N   0  0  0  0  0  0  0  0  0  0  0  0
    3.9270    1.6240    1.2330 C   0  0  0  0  0  0  0  0  0  0  0  0
    3.2620    2.4700    0.5830 O   0  0  0  0  0  0  0  0  0  0  0  0
    4.5280    2.0140    2.4160 O   0  0  0  0  0  0  0  0  0  0  0  0
    4.1180   -0.4370   -1.5240 C   0  0  0  0  0  0  0  0  0  0  0  0
    3.3590   -0.8470   -3.0590 S   0  0  2  0  0  0  0  0  0  0  0  0
    3.6800   -2.2450   -3.4780 O   0  0  0  0  0  0  0  0  0  0  0  0
    3.8690    0.1670   -4.0600 O   0  0  0  0  0  0  0  0  0  0  0  0
    1.6830   -0.5700   -2.8640 N   0  0  0  0  0  0  0  0  0  0  0  0
   -0.3690   -1.0670    0.5250 N   0  0  0  0  0  0  0  0  0  0  0  0
   -1.0590   -1.5500    1.5720 C   0  0  0  0  0  0  0  0  0  0  0  0
   -2.3930   -1.3650    1.6600 N   0  0  0  0  0  0  0  0  0  0  0  0
  1  2  1  0
  2  3  2  0
  2  4  1  0
  4  5  1  0
  5  6  2  0
  5 23  1  0
  6  7  1  0
  7  8  1  0
  7 21  2  0
  8  9  1  0
  9 10  2  0
  9 20  1  0
 10 11  1  0
 11 12  1  0
 11 16  2  0
 12 13  1  0
 13 14  2  0
 13 15  1  0
 16 17  1  0
 17 18  2  0
 17 19  2  0
 17 20  1  1
 21 22  1  0
 22 23  2  0
M  END
