
     RDKit          3D

 23 24  0  0  0  0  0  0  0  0999 V2000
   -6.6750    1.4920    1.2120 N   0  0  0  0  0  0  0  0  0  0  0  0
   -5.6170    0.8110    0.6240 N   0  0  0  0  0  0  0  0  0  0  0  0
   -4.2710    1.2150    0.4750 C   0  0  0  0  0  0  0  0  0  0  0  0
   -3.7600    2.3110    0.8640 O   0  0  0  0  0  0  0  0  0  0  0  0
   -3.5730    0.1310   -0.2120 C   0  0  0  0  0  0  0  0  0  0  0  0
   -2.1700    0.1030   -0.5780 C   0  0  0  0  0  0  0  0  0  0  0  0
   -1.4330    1.1100   -0.2880 N   0  0  0  0  0  0  0  0  0  0  0  0
   -0.0200    1.1270   -0.6360 C   0  0  0  0  0  0  0  0  0  0  0  0
    0.5290    2.2190   -1.1120 C   0  0  0  0  0  0  0  0  0  0  0  0
    2.2440    1.7880   -1.3920 S   0  0  0  0  0  0  0  0  0  0  0  0
    1.9460   -0.0210   -1.2150 C   0  0  1  0  0  0  0  0  0  0  0  0
    3.0150   -0.6780   -0.4720 C   0  0  0  0  0  0  0  0  0  0  0  0
    2.9350   -1.1470    0.6780 O   0  0  0  0  0  0  0  0  0  0  0  0
    4.3010   -0.8040   -1.1190 N   0  0  0  0  0  0  0  0  0  0  0  0
    5.3950   -1.4310   -0.4620 C   0  0  0  0  0  0  0  0  0  0  0  0
    5.8070   -0.7670    0.8270 C   0  0  0  0  0  0  0  0  0  0  0  0
    6.1820    0.5310    0.5880 O   0  0  0  0  0  0  0  0  0  0  0  0
    6.5520    1.1770    1.6480 O   0  0  0  0  0  0  0  0  0  0  0  0
    0.7520    0.0390   -0.4800 O   0  0  0  0  0  0  0  0  0  0  0  0
   -4.4260   -0.8520   -0.4610 C   0  0  0  0  0  0  0  0  0  0  0  0
   -5.7240   -0.4800    0.0420 C   0  0  0  0  0  0  0  0  0  0  0  0
   -6.8110   -1.2080   -0.0280 N   0  0  0  0  0  0  0  0  0  0  0  0
   -6.7710   -2.4350   -0.6170 O   0  0  0  0  0  0  0  0  0  0  0  0
  1  2  1  0
  2  3  1  0
  2 21  1  0
  3  4  2  0
  3  5  1  0
  5  6  1  0
  5 20  2  0
  6  7  2  3
  7  8  1  0
  8  9  2  0
  8 19  1  0
  9 10  1  0
 10 11  1  0
 11 12  1  1
 11 19  1  0
 12 13  2  0
 12 14  1  0
 14 15  1  0
 15 16  1  0
 16 17  1  0
 17 18  1  0
 20 21  1  0
 21 22  2  3
 22 23  1  0
M  END
