
     RDKit          3D

 23 24  0  0  0  0  0  0  0  0999 V2000
   -7.5710    0.4230    0.7640 C   0  0  0  0  0  0  0  0  0  0  0  0
   -6.4950    0.3080   -0.2260 C   0  0  0  0  0  0  0  0  0  0  0  0
   -6.6350    0.5060   -1.4390 O   0  0  0  0  0  0  0  0  0  0  0  0
   -5.2180   -0.0480    0.2030 O   0  0  0  0  0  0  0  0  0  0  0  0
   -4.1350   -0.1860   -0.6610 C   0  0  2  0  0  0  0  0  0  0  0  0
   -3.4370   -1.4790   -0.7090 C   0  0  0  0  0  0  0  0  0  0  0  0
   -1.9600   -1.1640   -0.5520 C   0  0  0  0  0  0  0  0  0  0  0  0
   -1.8440    0.2750   -0.3730 N   0  0  0  0  0  0  0  0  0  0  0  0
   -0.9180    1.2320   -0.1710 C   0  0  0  0  0  0  0  0  0  0  0  0
    0.5050    1.2780   -0.0920 C   0  0  0  0  0  0  0  0  0  0  0  0
    1.2720    2.1530    0.0600 O   0  0  0  0  0  0  0  0  0  0  0  0
    1.2220   -0.2630   -0.2630 N   0  0  0  0  0  0  0  0  0  0  0  0
    2.5570    0.1640   -0.2360 C   0  0  0  0  0  0  0  0  0  0  0  0
    3.1300    1.2050   -0.1510 O   0  0  0  0  0  0  0  0  0  0  0  0
    3.4140   -1.0620   -0.3570 N   0  0  0  0  0  0  0  0  0  0  0  0
    4.8020   -0.9230   -0.4010 C   0  0  0  0  0  0  0  0  0  0  0  0
    5.4610   -0.2570    0.7720 C   0  0  0  0  0  0  0  0  0  0  0  0
    7.2960   -0.2040    0.3860 P   0  0  0  0  0  0  0  0  0  0  0  0
    8.2170   -0.1450    1.8370 O   0  0  0  0  0  0  0  0  0  0  0  0
    7.6250    1.2460   -0.5250 O   0  0  0  0  0  0  0  0  0  0  0  0
   -1.6750    2.4050   -0.0660 N   0  0  0  0  0  0  0  0  0  0  0  0
   -2.9250    2.1310   -0.1990 N   0  0  0  0  0  0  0  0  0  0  0  0
   -3.0630    0.8210   -0.3930 C   0  0  0  0  0  0  0  0  0  0  0  0
  1  2  1  0
  2  3  2  0
  2  4  1  0
  5  4  1  1
  5  6  1  0
  5 23  1  0
  6  7  1  0
  7  8  1  0
  8  9  1  0
  8 23  1  0
  9 10  1  0
  9 21  2  0
 10 11  2  0
 10 12  1  0
 12 13  1  0
 13 14  2  0
 13 15  1  0
 15 16  1  0
 16 17  1  0
 17 18  1  0
 18 19  1  0
 18 20  1  0
 21 22  1  0
 22 23  2  0
M  END
