
     RDKit          3D

 13 14  0  0  0  0  0  0  0  0999 V2000
   -3.2670    0.1850    0.2210 C   0  0  0  0  0  0  0  0  0  0  0  0
   -1.8150    0.1080   -0.2730 C   0  0  2  0  0  0  0  0  0  0  0  0
   -1.3600   -1.2790   -0.3620 C   0  0  0  0  0  0  0  0  0  0  0  0
   -0.2590   -1.7160    0.5270 C   0  0  0  0  0  0  0  0  0  0  0  0
    1.1090   -1.5460   -0.1500 C   0  0  0  0  0  0  0  0  0  0  0  0
    1.7460   -0.3210    0.2030 N   0  0  0  0  0  0  0  0  0  0  0  0
    1.4010    0.9710    0.1850 C   0  0  0  0  0  0  0  0  0  0  0  0
    2.4490    1.7060    0.6520 C   0  0  0  0  0  0  0  0  0  0  0  0
    3.4360    0.8670    0.9560 N   0  0  0  0  0  0  0  0  0  0  0  0
    3.0020   -0.3710    0.6800 C   0  0  0  0  0  0  0  0  0  0  0  0
    3.6510   -1.4370    0.8340 O   0  0  0  0  0  0  0  0  0  0  0  0
    0.1420    1.6690   -0.2350 C   0  0  0  0  0  0  0  0  0  0  0  0
   -1.0190    1.0480    0.5570 C   0  0  0  0  0  0  0  0  0  0  0  0
  2  1  1  1
  2  3  1  0
  2 13  1  0
  3  4  1  0
  4  5  1  0
  5  6  1  0
  6  7  1  0
  6 10  1  0
  7  8  2  0
  7 12  1  0
  8  9  1  0
  9 10  1  0
 10 11  2  0
 12 13  1  0
M  END
