
     RDKit          3D

 13 13  0  0  0  0  0  0  0  0999 V2000
   -2.0430    1.8790   -1.0560 C   0  0  0  0  0  0  0  0  0  0  0  0
   -1.5950    0.8110   -0.4550 C   0  0  0  0  0  0  0  0  0  0  0  0
   -2.5420   -0.2360   -0.1380 N   0  0  0  0  0  0  0  0  0  0  0  0
   -2.3070   -1.6720   -0.0320 C   0  0  0  0  0  0  0  0  0  0  0  0
   -0.9550   -2.0300    0.4810 C   0  0  0  0  0  0  0  0  0  0  0  0
    0.1850   -1.8030   -0.4590 C   0  0  0  0  0  0  0  0  0  0  0  0
    0.6890   -0.4350   -0.4070 N   0  0  0  0  0  0  0  0  0  0  0  0
    2.0560   -0.1340   -0.6150 C   0  0  0  0  0  0  0  0  0  0  0  0
    3.0140   -0.5920    0.4330 C   0  0  0  0  0  0  0  0  0  0  0  0
    3.0520   -1.9570    0.6360 O   0  0  0  0  0  0  0  0  0  0  0  0
   -0.1560    0.7240   -0.1490 C   0  0  0  0  0  0  0  0  0  0  0  0
    0.3620    1.7640    0.4330 C   0  0  0  0  0  0  0  0  0  0  0  0
   -0.3710    2.9860    0.8040 C   0  0  0  0  0  0  0  0  0  0  0  0
  1  2  2  0
  2  3  1  0
  2 11  1  0
  3  4  1  0
  4  5  1  0
  5  6  1  0
  6  7  1  0
  7  8  1  0
  7 11  1  0
  8  9  1  0
  9 10  1  0
 11 12  2  3
 12 13  1  0
M  END
