
     RDKit          3D

 13 14  0  0  0  0  0  0  0  0999 V2000
    3.6820    0.8830    0.3420 C   0  0  0  0  0  0  0  0  0  0  0  0
    2.3650    0.9770    0.4880 C   0  0  0  0  0  0  0  0  0  0  0  0
    1.5320   -0.0230   -0.1080 C   0  0  0  0  0  0  0  0  0  0  0  0
    0.1060    0.0690    0.0430 N   0  0  0  0  0  0  0  0  0  0  0  0
   -0.5360    1.2940   -0.3960 C   0  0  0  0  0  0  0  0  0  0  0  0
   -1.8110    1.4870    0.3650 C   0  0  0  0  0  0  0  0  0  0  0  0
   -2.9030    0.5660   -0.0470 C   0  0  0  0  0  0  0  0  0  0  0  0
   -2.4780   -0.5780   -0.9040 C   0  0  0  0  0  0  0  0  0  0  0  0
   -1.6260   -1.5970   -0.2460 C   0  0  0  0  0  0  0  0  0  0  0  0
   -0.5380   -1.0780    0.6210 C   0  0  0  0  0  0  0  0  0  0  0  0
    1.9990   -1.0020   -0.7740 N   0  0  0  0  0  0  0  0  0  0  0  0
    3.4100   -1.1630   -0.9690 C   0  0  0  0  0  0  0  0  0  0  0  0
    4.2160   -0.1710   -0.3770 O   0  0  0  0  0  0  0  0  0  0  0  0
  1  2  2  0
  1 13  1  0
  2  3  1  0
  3  4  1  0
  3 11  2  0
  4  5  1  0
  4 10  1  0
  5  6  1  0
  6  7  1  0
  7  8  1  0
  8  9  1  0
  9 10  1  0
 11 12  1  0
 12 13  1  0
M  END
