
     RDKit          3D

 13 14  0  0  0  0  0  0  0  0999 V2000
    2.9940    1.5340    0.0380 C   0  0  0  0  0  0  0  0  0  0  0  0
    2.7740    0.0930    0.1980 C   0  0  0  0  0  0  0  0  0  0  0  0
    1.5410   -0.3770    0.1540 C   0  0  0  0  0  0  0  0  0  0  0  0
    1.4300   -1.8420    0.3270 C   0  0  0  0  0  0  0  0  0  0  0  0
    0.3010   -2.5140    0.3160 C   0  0  0  0  0  0  0  0  0  0  0  0
   -1.0750   -2.0600    0.1460 C   0  0  0  0  0  0  0  0  0  0  0  0
   -1.5340   -0.8320   -0.0450 C   0  0  0  0  0  0  0  0  0  0  0  0
   -2.8550   -0.5420   -0.1910 N   0  0  0  0  0  0  0  0  0  0  0  0
   -2.9110    0.7920   -0.3620 C   0  0  0  0  0  0  0  0  0  0  0  0
   -4.0700    1.5970   -0.5580 N   0  0  0  0  0  0  0  0  0  0  0  0
   -1.6960    1.3020   -0.3240 O   0  0  0  0  0  0  0  0  0  0  0  0
   -0.8200    0.3430   -0.1320 C   0  0  0  0  0  0  0  0  0  0  0  0
    0.4920    0.5940   -0.0540 C   0  0  0  0  0  0  0  0  0  0  0  0
  1  2  1  0
  2  3  2  3
  3  4  1  0
  3 13  1  0
  4  5  2  0
  5  6  1  0
  6  7  2  0
  7  8  1  0
  7 12  1  0
  8  9  2  0
  9 10  1  0
  9 11  1  0
 11 12  1  0
 12 13  2  0
M  END
