
     RDKit          3D

 13 14  0  0  0  0  0  0  0  0999 V2000
    3.3890   -0.5640    0.1650 C   0  0  0  0  0  0  0  0  0  0  0  0
    2.2550    0.3970   -0.0150 C   0  0  0  0  0  0  0  0  0  0  0  0
    2.3990    1.7100   -0.1980 N   0  0  0  0  0  0  0  0  0  0  0  0
    1.2160    2.2370   -0.3180 N   0  0  0  0  0  0  0  0  0  0  0  0
    0.2700    1.2880   -0.2180 C   0  0  0  0  0  0  0  0  0  0  0  0
    0.9100    0.0850   -0.0210 C   0  0  0  0  0  0  0  0  0  0  0  0
    0.5950   -1.3220    0.1700 C   0  0  0  0  0  0  0  0  0  0  0  0
   -0.6650   -1.8060   -0.4650 C   0  0  2  0  0  0  0  0  0  0  0  0
   -0.5270   -1.9560   -1.8590 O   0  0  0  0  0  0  0  0  0  0  0  0
   -1.8820   -1.0070   -0.1690 C   0  0  0  0  0  0  0  0  0  0  0  0
   -1.8140   -0.1990    1.0920 C   0  0  0  0  0  0  0  0  0  0  0  0
   -2.0290    1.2420    0.7430 C   0  0  0  0  0  0  0  0  0  0  0  0
   -1.1140    1.7450   -0.3350 C   0  0  0  0  0  0  0  0  0  0  0  0
  1  2  1  0
  2  3  2  0
  2  6  1  0
  3  4  1  0
  4  5  1  0
  5  6  2  0
  5 13  1  0
  6  7  1  0
  7  8  1  0
  8  9  1  6
  8 10  1  0
 10 11  1  0
 11 12  1  0
 12 13  1  0
M  END
