
     RDKit          3D

 13 13  0  0  0  0  0  0  0  0999 V2000
   -1.6970    2.5700   -2.1270 O   0  0  0  0  0  0  0  0  0  0  0  0
   -1.3360    2.0950   -0.9440 C   0  0  0  0  0  0  0  0  0  0  0  0
   -0.1450    2.7400   -0.4190 C   0  0  0  0  0  0  0  0  0  0  0  0
    1.0170    2.1530   -0.2050 C   0  0  0  0  0  0  0  0  0  0  0  0
    1.2960    0.7200   -0.4730 C   0  0  0  0  0  0  0  0  0  0  0  0
    1.5920    0.0030    0.7450 N   0  0  0  0  0  0  0  0  0  0  0  0
    2.1100   -1.3130    0.8300 C   0  0  0  0  0  0  0  0  0  0  0  0
    1.4930   -2.3640    0.3490 C   0  0  0  0  0  0  0  0  0  0  0  0
    0.2350   -2.5080   -0.3380 C   0  0  0  0  0  0  0  0  0  0  0  0
   -0.9550   -2.0020   -0.1740 C   0  0  0  0  0  0  0  0  0  0  0  0
   -1.5470   -1.0750    0.7500 C   0  0  0  0  0  0  0  0  0  0  0  0
   -2.0180    0.1620    0.6790 C   0  0  0  0  0  0  0  0  0  0  0  0
   -2.1240    1.0740   -0.3750 N   0  0  0  0  0  0  0  0  0  0  0  0
  1  2  2  0
  2  3  1  0
  2 13  1  0
  3  4  2  0
  4  5  1  0
  5  6  1  0
  6  7  1  0
  7  8  2  0
  8  9  1  0
  9 10  2  0
 10 11  1  0
 11 12  2  0
 12 13  1  0
M  END
