
     RDKit          3D

 36 40  0  0  0  0  0  0  0  0999 V2000
   11.7500    0.3880    2.2310 C   0  0  0  0  0  0  0  0  0  0  0  0
   10.3800    0.3070    1.7000 N   0  0  0  0  0  0  0  0  0  0  0  0
    9.5800   -0.8410    1.9020 C   0  0  0  0  0  0  0  0  0  0  0  0
   10.0660   -1.7880    2.5450 O   0  0  0  0  0  0  0  0  0  0  0  0
    8.2290   -0.9270    1.3820 C   0  0  0  0  0  0  0  0  0  0  0  0
    7.5880    0.0490    0.6590 C   0  0  0  0  0  0  0  0  0  0  0  0
    6.2940   -0.0630    0.1740 C   0  0  0  0  0  0  0  0  0  0  0  0
    5.7130    0.9900   -0.5600 O   0  0  0  0  0  0  0  0  0  0  0  0
    4.4110    0.8070   -1.0110 C   0  0  0  0  0  0  0  0  0  0  0  0
    4.1240    0.2450   -2.2380 C   0  0  0  0  0  0  0  0  0  0  0  0
    2.8210    0.0760   -2.6590 C   0  0  0  0  0  0  0  0  0  0  0  0
    1.7570    0.4600   -1.8730 C   0  0  0  0  0  0  0  0  0  0  0  0
    0.4570    0.4410   -1.9710 O   0  0  0  0  0  0  0  0  0  0  0  0
   -0.1200    0.9390   -0.9180 C   0  0  0  0  0  0  0  0  0  0  0  0
   -1.5010    1.0780   -0.6770 N   0  0  0  0  0  0  0  0  0  0  0  0
   -2.5350    0.6940   -1.5480 C   0  0  0  0  0  0  0  0  0  0  0  0
   -2.3120    0.1160   -2.7600 C   0  0  0  0  0  0  0  0  0  0  0  0
   -3.3840   -0.2470   -3.5880 C   0  0  0  0  0  0  0  0  0  0  0  0
   -4.6510   -0.0170   -3.1700 C   0  0  0  0  0  0  0  0  0  0  0  0
   -6.0600   -0.4450   -4.1560 Cl  0  0  0  0  0  0  0  0  0  0  0  0
   -4.9570    0.5820   -1.9170 C   0  0  0  0  0  0  0  0  0  0  0  0
   -6.1980    0.7890   -1.5530 O   0  0  0  0  0  0  0  0  0  0  0  0
   -7.0450    1.2220   -0.6590 C   0  0  0  0  0  0  0  0  0  0  0  0
   -7.1880    0.6300    0.6970 C   0  0  2  0  0  0  0  0  0  0  0  0
   -6.0830    0.7150    1.6620 C   0  0  0  0  0  0  0  0  0  0  0  0
   -5.3910   -0.6350    1.6640 C   0  0  0  0  0  0  0  0  0  0  0  0
   -6.2270   -1.4730    0.7460 C   0  0  0  0  0  0  0  0  0  0  0  0
   -7.5120   -0.8050    0.6270 N   0  0  1  0  0  0  0  0  0  0  0  0
   -8.3560   -1.1150    1.7540 C   0  0  0  0  0  0  0  0  0  0  0  0
   -3.8440    0.9050   -1.1720 C   0  0  0  0  0  0  0  0  0  0  0  0
    0.8640    1.3200   -0.0540 N   0  0  0  0  0  0  0  0  0  0  0  0
    2.0210    1.0250   -0.6430 C   0  0  0  0  0  0  0  0  0  0  0  0
    3.3460    1.1930   -0.2240 C   0  0  0  0  0  0  0  0  0  0  0  0
    5.6090   -1.2280    0.4350 C   0  0  0  0  0  0  0  0  0  0  0  0
    6.2340   -2.2030    1.1510 C   0  0  0  0  0  0  0  0  0  0  0  0
    7.4910   -2.0570    1.6040 N   0  0  0  0  0  0  0  0  0  0  0  0
  1  2  1  0
  2  3  1  0
  3  4  2  0
  3  5  1  0
  5  6  2  0
  5 36  1  0
  6  7  1  0
  7  8  1  0
  7 34  2  0
  8  9  1  0
  9 10  2  0
  9 33  1  0
 10 11  1  0
 11 12  2  0
 12 13  1  0
 12 32  1  0
 13 14  1  0
 14 15  1  0
 14 31  2  0
 15 16  1  0
 16 17  2  0
 16 30  1  0
 17 18  1  0
 18 19  2  0
 19 20  1  0
 19 21  1  0
 21 22  1  0
 21 30  2  0
 22 23  1  0
 24 23  1  6
 24 25  1  0
 24 28  1  0
 25 26  1  0
 26 27  1  0
 27 28  1  0
 28 29  1  1
 31 32  1  0
 32 33  2  0
 34 35  1  0
 35 36  2  0
M  CHG  1  28   1
M  END
