
     RDKit          3D

 37 40  0  0  0  0  0  0  0  0999 V2000
    3.5470   -1.9860    2.0690 C   0  0  0  0  0  0  0  0  0  0  0  0
    3.5630   -0.7610    1.2720 N   0  0  0  0  0  0  0  0  0  0  0  0
    2.3990    0.0400    1.1890 C   0  0  0  0  0  0  0  0  0  0  0  0
    1.3920   -0.3730    1.8040 O   0  0  0  0  0  0  0  0  0  0  0  0
    2.3100    1.3100    0.4320 C   0  0  2  0  0  0  0  0  0  0  0  0
    2.1020    2.4260    1.4500 C   0  0  0  0  0  0  0  0  0  0  0  0
    1.2670    1.2590   -0.5620 N   0  0  0  0  0  0  0  0  0  0  0  0
   -0.1120    1.1320   -0.3960 C   0  0  0  0  0  0  0  0  0  0  0  0
   -0.7550    1.3600    0.7960 C   0  0  0  0  0  0  0  0  0  0  0  0
   -2.1440    1.1960    0.9210 C   0  0  0  0  0  0  0  0  0  0  0  0
   -2.8840    0.7990   -0.1680 C   0  0  0  0  0  0  0  0  0  0  0  0
   -2.2600    0.5570   -1.4030 C   0  0  0  0  0  0  0  0  0  0  0  0
   -3.0620    0.1600   -2.4590 O   0  0  0  0  0  0  0  0  0  0  0  0
   -2.4900   -0.0950   -3.7140 C   0  0  0  0  0  0  0  0  0  0  0  0
   -3.5220   -0.5200   -4.7360 C   0  0  1  0  0  0  0  0  0  0  0  0
   -4.4860    0.4560   -4.9220 F   0  0  0  0  0  0  0  0  0  0  0  0
   -2.9270   -0.7560   -5.9600 F   0  0  0  0  0  0  0  0  0  0  0  0
   -4.1150   -1.7100   -4.3350 F   0  0  0  0  0  0  0  0  0  0  0  0
   -0.9100    0.7280   -1.4820 C   0  0  0  0  0  0  0  0  0  0  0  0
   -4.3470    0.5720   -0.2510 C   0  0  0  0  0  0  0  0  0  0  0  0
   -4.9310   -0.0580    0.9480 C   0  0  0  0  0  0  0  0  0  0  0  0
   -5.9050   -0.9970    0.5910 C   0  0  0  0  0  0  0  0  0  0  0  0
   -6.5880   -1.7070    1.5530 C   0  0  0  0  0  0  0  0  0  0  0  0
   -6.3510   -1.5340    2.9100 C   0  0  0  0  0  0  0  0  0  0  0  0
   -5.3930   -0.6110    3.2460 C   0  0  0  0  0  0  0  0  0  0  0  0
   -4.7020    0.1070    2.2930 C   0  0  0  0  0  0  0  0  0  0  0  0
   -3.7220    1.0330    2.8880 C   0  0  0  0  0  0  0  0  0  0  0  0
   -2.6320    1.4810    2.2670 C   0  0  0  0  0  0  0  0  0  0  0  0
    3.6020    1.5990   -0.2730 C   0  0  0  0  0  0  0  0  0  0  0  0
    3.6220    2.6380   -0.9800 O   0  0  0  0  0  0  0  0  0  0  0  0
    4.7560    0.8000   -0.1900 N   0  0  0  0  0  0  0  0  0  0  0  0
    4.7520   -0.3850    0.5800 C   0  0  0  0  0  0  0  0  0  0  0  0
    5.7810   -1.1420    0.6840 N   0  0  0  0  0  0  0  0  0  0  0  0
    7.0440   -0.9080    0.0560 C   0  0  0  0  0  0  0  0  0  0  0  0
    7.1880   -1.7580   -1.2000 C   0  0  1  0  0  0  0  0  0  0  0  0
    7.0960   -3.1100   -0.8420 F   0  0  0  0  0  0  0  0  0  0  0  0
    5.8440   -1.4570   -2.3180 Cl  0  0  0  0  0  0  0  0  0  0  0  0
  1  2  1  0
  2  3  1  0
  2 32  1  0
  3  4  2  0
  3  5  1  0
  5  6  1  1
  5  7  1  0
  5 29  1  0
  7  8  1  0
  8  9  2  0
  8 19  1  0
  9 10  1  0
 10 11  2  0
 10 28  1  0
 11 12  1  0
 11 20  1  0
 12 13  1  0
 12 19  2  0
 13 14  1  0
 14 15  1  0
 15 16  1  6
 15 17  1  0
 15 18  1  0
 20 21  1  0
 21 22  2  0
 21 26  1  0
 22 23  1  0
 23 24  2  0
 24 25  1  0
 25 26  2  0
 26 27  1  0
 27 28  2  0
 29 30  2  0
 29 31  1  0
 31 32  1  0
 32 33  2  3
 33 34  1  0
 34 35  1  0
 35 36  1  1
 35 37  1  0
M  CHG  1  33   1
M  END
