
     RDKit          3D

 37 40  0  0  0  0  0  0  0  0999 V2000
    6.8540    1.7520   -0.4690 N   0  0  0  0  0  0  0  0  0  0  0  0
    5.6250    1.0300   -0.5140 C   0  0  0  0  0  0  0  0  0  0  0  0
    4.7140    1.4870   -1.2400 O   0  0  0  0  0  0  0  0  0  0  0  0
    5.4670   -0.2440    0.3020 C   0  0  2  0  0  0  0  0  0  0  0  0
    6.4720   -1.1780   -0.2210 C   0  0  0  0  0  0  0  0  0  0  0  0
    6.0360   -2.6010   -0.4160 C   0  0  0  0  0  0  0  0  0  0  0  0
    4.7210   -2.8880    0.2150 C   0  0  0  0  0  0  0  0  0  0  0  0
    3.6810   -1.8670   -0.3160 C   0  0  0  0  0  0  0  0  0  0  0  0
    4.0750   -0.5870    0.1830 N   0  0  0  0  0  0  0  0  0  0  0  0
    3.1360    0.3950    0.5220 C   0  0  0  0  0  0  0  0  0  0  0  0
    3.6480    1.4580    1.0710 O   0  0  0  0  0  0  0  0  0  0  0  0
    1.7080    0.4000    0.3530 C   0  0  0  0  0  0  0  0  0  0  0  0
    0.9600    1.3620    1.0430 C   0  0  0  0  0  0  0  0  0  0  0  0
   -0.4010    1.4500    0.8680 C   0  0  0  0  0  0  0  0  0  0  0  0
   -1.0960    0.6160    0.0240 C   0  0  0  0  0  0  0  0  0  0  0  0
   -2.5120    0.7500   -0.1190 N   0  0  2  0  0  0  0  0  0  0  0  0
   -3.0460   -0.2120   -1.0440 C   0  0  0  0  0  0  0  0  0  0  0  0
   -3.3270   -1.5350   -0.4850 C   0  0  0  0  0  0  0  0  0  0  0  0
   -2.6930   -2.5840   -0.9790 C   0  0  0  0  0  0  0  0  0  0  0  0
   -2.8650   -3.9800   -0.5260 C   0  0  2  0  0  0  0  0  0  0  0  0
   -3.3960   -4.6960   -1.5970 F   0  0  0  0  0  0  0  0  0  0  0  0
   -3.8060   -4.0510    0.5000 O   0  0  0  0  0  0  0  0  0  0  0  0
   -4.4680   -2.9650    1.0170 C   0  0  0  0  0  0  0  0  0  0  0  0
   -5.3850   -3.0960    2.0360 F   0  0  0  0  0  0  0  0  0  0  0  0
   -4.2820   -1.7280    0.5870 C   0  0  0  0  0  0  0  0  0  0  0  0
   -5.1740   -0.3770    1.2920 Cl  0  0  0  0  0  0  0  0  0  0  0  0
   -2.8080    2.0810   -0.6760 C   0  0  0  0  0  0  0  0  0  0  0  0
   -4.0530    2.6210   -0.1220 C   0  0  0  0  0  0  0  0  0  0  0  0
   -5.2360    2.5900   -0.8170 C   0  0  0  0  0  0  0  0  0  0  0  0
   -6.3620    3.1260   -0.1980 C   0  0  0  0  0  0  0  0  0  0  0  0
   -7.5330    3.1010   -0.8730 F   0  0  0  0  0  0  0  0  0  0  0  0
   -6.3400    3.6750    1.0550 C   0  0  0  0  0  0  0  0  0  0  0  0
   -5.1340    3.6890    1.7220 C   0  0  0  0  0  0  0  0  0  0  0  0
   -5.0930    4.2310    2.9710 F   0  0  0  0  0  0  0  0  0  0  0  0
   -4.0000    3.1730    1.1560 C   0  0  0  0  0  0  0  0  0  0  0  0
   -0.3750   -0.3010   -0.6330 N   0  0  0  0  0  0  0  0  0  0  0  0
    0.9860   -0.4040   -0.4730 C   0  0  0  0  0  0  0  0  0  0  0  0
  1  2  1  0
  2  3  2  0
  4  2  1  6
  4  5  1  0
  4  9  1  0
  5  6  1  0
  6  7  1  0
  7  8  1  0
  8  9  1  0
  9 10  1  0
 10 11  2  0
 10 12  1  0
 12 13  2  0
 12 37  1  0
 13 14  1  0
 14 15  2  0
 15 16  1  0
 15 36  1  0
 16 17  1  6
 16 27  1  0
 17 18  1  0
 18 19  2  0
 18 25  1  0
 19 20  1  0
 20 21  1  6
 20 22  1  0
 22 23  1  0
 23 24  1  0
 23 25  2  0
 25 26  1  0
 27 28  1  0
 28 29  2  0
 28 35  1  0
 29 30  1  0
 30 31  1  0
 30 32  2  0
 32 33  1  0
 33 34  1  0
 33 35  2  0
 36 37  2  0
M  CHG  1  16   1
M  END
