
     RDKit          3D

 37 40  0  0  0  0  0  0  0  0999 V2000
   -6.3290   -0.9680   -0.5300 C   0  0  0  0  0  0  0  0  0  0  0  0
   -5.6570   -0.1850    0.5040 N   0  0  2  0  0  0  0  0  0  0  0  0
   -6.6640    0.5640    1.1970 C   0  0  0  0  0  0  0  0  0  0  0  0
   -7.3460    1.5990    0.3360 C   0  0  1  0  0  0  0  0  0  0  0  0
   -7.9590    0.9920   -0.7320 F   0  0  0  0  0  0  0  0  0  0  0  0
   -8.3740    2.1380    1.1190 F   0  0  0  0  0  0  0  0  0  0  0  0
   -4.6670    0.6300   -0.1530 C   0  0  1  0  0  0  0  0  0  0  0  0
   -3.8980    1.5160    0.7670 C   0  0  0  0  0  0  0  0  0  0  0  0
   -3.5400    2.7850    0.0090 C   0  0  0  0  0  0  0  0  0  0  0  0
   -2.6820    2.5400   -1.1790 C   0  0  0  0  0  0  0  0  0  0  0  0
   -1.7250    1.3820   -1.0010 C   0  0  0  0  0  0  0  0  0  0  0  0
   -2.3980    0.1160   -0.9660 N   0  0  0  0  0  0  0  0  0  0  0  0
   -1.4910   -1.0040   -0.8740 C   0  0  0  0  0  0  0  0  0  0  0  0
   -1.9800   -2.1530   -0.8380 O   0  0  0  0  0  0  0  0  0  0  0  0
   -0.0990   -0.8450   -0.8260 N   0  0  0  0  0  0  0  0  0  0  0  0
    0.8910   -1.8430   -0.7350 C   0  0  0  0  0  0  0  0  0  0  0  0
    0.6020   -3.1650   -0.6160 C   0  0  0  0  0  0  0  0  0  0  0  0
    1.6250   -4.1260   -0.5340 C   0  0  0  0  0  0  0  0  0  0  0  0
    2.9420   -3.7100   -0.5750 C   0  0  0  0  0  0  0  0  0  0  0  0
    3.2680   -2.3660   -0.6960 C   0  0  0  0  0  0  0  0  0  0  0  0
    2.2250   -1.4870   -0.7710 C   0  0  0  0  0  0  0  0  0  0  0  0
    4.7420   -2.3060   -0.7060 C   0  0  1  0  0  0  0  0  0  0  0  0
    5.2510   -1.2310    0.1240 N   0  0  0  0  0  0  0  0  0  0  0  0
    6.1290   -0.2960   -0.4600 C   0  0  0  0  0  0  0  0  0  0  0  0
    6.4480   -0.4200   -1.6910 O   0  0  0  0  0  0  0  0  0  0  0  0
    6.7200    0.8320    0.2410 C   0  0  0  0  0  0  0  0  0  0  0  0
    7.9320    0.6740    0.8800 C   0  0  0  0  0  0  0  0  0  0  0  0
    8.5610    1.6920    1.5680 C   0  0  0  0  0  0  0  0  0  0  0  0
    9.7470    1.5300    2.1910 F   0  0  0  0  0  0  0  0  0  0  0  0
    7.9190    2.9190    1.5990 C   0  0  0  0  0  0  0  0  0  0  0  0
    8.4900    3.9560    2.2600 F   0  0  0  0  0  0  0  0  0  0  0  0
    6.7100    3.1330    0.9790 C   0  0  0  0  0  0  0  0  0  0  0  0
    6.1210    2.0780    0.3030 C   0  0  0  0  0  0  0  0  0  0  0  0
    4.5830    2.2790   -0.5090 Cl  0  0  0  0  0  0  0  0  0  0  0  0
    5.1190   -3.6070   -0.0320 C   0  0  0  0  0  0  0  0  0  0  0  0
    4.0980   -4.4710   -0.5100 O   0  0  0  0  0  0  0  0  0  0  0  0
   -3.8010   -0.2510   -1.0050 C   0  0  0  0  0  0  0  0  0  0  0  0
  2  1  1  6
  2  3  1  0
  2  7  1  0
  3  4  1  0
  4  5  1  6
  4  6  1  0
  7  8  1  1
  7 37  1  0
  8  9  1  0
  9 10  1  0
 10 11  1  0
 11 12  1  0
 12 13  1  0
 12 37  1  0
 13 14  2  0
 13 15  1  0
 15 16  1  0
 16 17  2  0
 16 21  1  0
 17 18  1  0
 18 19  2  0
 19 20  1  0
 19 36  1  0
 20 21  2  0
 20 22  1  0
 22 23  1  1
 22 35  1  0
 23 24  1  0
 24 25  2  0
 24 26  1  0
 26 27  2  0
 26 33  1  0
 27 28  1  0
 28 29  1  0
 28 30  2  0
 30 31  1  0
 30 32  1  0
 32 33  2  0
 33 34  1  0
 35 36  1  0
M  CHG  1   2   1
M  END
