
     RDKit          3D

 37 40  0  0  0  0  0  0  0  0999 V2000
   -3.1180    0.8640   -3.6150 O   0  0  0  0  0  0  0  0  0  0  0  0
   -3.2190    0.5340   -2.4060 C   0  0  0  0  0  0  0  0  0  0  0  0
   -3.8470    1.5520   -1.4950 C   0  0  0  0  0  0  0  0  0  0  0  0
   -3.0750    1.5900   -0.2720 N   0  0  0  0  0  0  0  0  0  0  0  0
   -3.6170    2.4750    0.6800 C   0  0  0  0  0  0  0  0  0  0  0  0
   -2.9810    2.4760    1.8180 O   0  0  0  0  0  0  0  0  0  0  0  0
   -4.7680    3.3620    0.5500 C   0  0  0  0  0  0  0  0  0  0  0  0
   -6.0280    2.6230    0.4760 C   0  0  0  0  0  0  0  0  0  0  0  0
   -6.8960    2.8750   -0.5210 C   0  0  0  0  0  0  0  0  0  0  0  0
   -8.0680    2.1600   -0.5610 F   0  0  0  0  0  0  0  0  0  0  0  0
   -6.4950    4.1030   -1.6920 Cl  0  0  0  0  0  0  0  0  0  0  0  0
   -1.8780    0.9260    0.0940 C   0  0  0  0  0  0  0  0  0  0  0  0
   -1.8700   -0.5530    0.2300 C   0  0  2  0  0  0  0  0  0  0  0  0
   -0.4330   -1.0020    0.0500 C   0  0  1  0  0  0  0  0  0  0  0  0
    0.4010   -0.6000    1.1800 N   0  0  0  0  0  0  0  0  0  0  0  0
    1.5580    0.0540    0.6600 C   0  0  0  0  0  0  0  0  0  0  0  0
    2.8040   -0.6570    0.9160 C   0  0  0  0  0  0  0  0  0  0  0  0
    2.8560   -1.9240    1.4080 C   0  0  0  0  0  0  0  0  0  0  0  0
    4.1270   -2.4790    1.6050 C   0  0  0  0  0  0  0  0  0  0  0  0
    5.2380   -1.7930    1.3230 N   0  0  0  0  0  0  0  0  0  0  0  0
    5.2280   -0.5150    0.8250 C   0  0  0  0  0  0  0  0  0  0  0  0
    6.4320    0.1070    0.5620 O   0  0  0  0  0  0  0  0  0  0  0  0
    6.5350    1.3910    0.0600 C   0  0  2  0  0  0  0  0  0  0  0  0
    7.4710    1.5280   -1.1430 C   0  0  0  0  0  0  0  0  0  0  0  0
    8.5680    1.8300   -0.1160 C   0  0  0  0  0  0  0  0  0  0  0  0
    7.4970    2.2190    0.9040 C   0  0  0  0  0  0  0  0  0  0  0  0
    4.0040    0.0420    0.6270 C   0  0  0  0  0  0  0  0  0  0  0  0
   -0.2330   -2.4610   -0.1230 C   0  0  0  0  0  0  0  0  0  0  0  0
   -1.1640   -3.1390   -1.0890 C   0  0  0  0  0  0  0  0  0  0  0  0
   -2.5450   -2.7290   -0.6800 C   0  0  0  0  0  0  0  0  0  0  0  0
   -3.4420   -3.6470   -0.3850 C   0  0  0  0  0  0  0  0  0  0  0  0
   -4.8150   -3.2500    0.0210 C   0  0  1  0  0  0  0  0  0  0  0  0
   -5.5790   -4.3930    0.2450 F   0  0  0  0  0  0  0  0  0  0  0  0
   -4.7260   -2.5460    1.2000 F   0  0  0  0  0  0  0  0  0  0  0  0
   -5.4550   -2.5310   -0.9560 F   0  0  0  0  0  0  0  0  0  0  0  0
   -2.8250   -1.3040   -0.6410 C   0  0  2  0  0  0  0  0  0  0  0  0
   -2.7490   -0.7340   -1.9910 N   0  0  0  0  0  0  0  0  0  0  0  0
  1  2  2  0
  2  3  1  0
  2 37  1  0
  3  4  1  0
  4  5  1  0
  4 12  1  0
  5  6  2  0
  5  7  1  0
  7  8  1  0
  8  9  2  3
  9 10  1  0
  9 11  1  0
 13 12  1  6
 13 14  1  0
 13 36  1  0
 14 15  1  1
 14 28  1  0
 15 16  1  0
 16 17  1  0
 17 18  2  0
 17 27  1  0
 18 19  1  0
 19 20  2  0
 20 21  1  0
 21 22  1  0
 21 27  2  0
 23 22  1  1
 23 24  1  0
 23 26  1  0
 24 25  1  0
 25 26  1  0
 28 29  1  0
 29 30  1  0
 30 31  2  3
 30 36  1  0
 31 32  1  0
 32 33  1  1
 32 34  1  0
 32 35  1  0
 36 37  1  6
M  CHG  1  15   1
M  END
