
     RDKit          3D

 37 40  0  0  0  0  0  0  0  0999 V2000
   -8.5690   -0.0940   -1.9510 C   0  0  0  0  0  0  0  0  0  0  0  0
   -7.6410   -0.3010   -1.0770 C   0  0  0  0  0  0  0  0  0  0  0  0
   -6.5140   -1.2390   -1.3680 C   0  0  0  0  0  0  0  0  0  0  0  0
   -5.6960   -1.6070   -0.1730 C   0  0  0  0  0  0  0  0  0  0  0  0
   -5.5220   -0.4440    0.7030 N   0  0  1  0  0  0  0  0  0  0  0  0
   -5.2090    0.7420   -0.0510 C   0  0  0  0  0  0  0  0  0  0  0  0
   -3.8950    1.3140    0.2850 C   0  0  0  0  0  0  0  0  0  0  0  0
   -3.8420    2.6300    0.7350 C   0  0  0  0  0  0  0  0  0  0  0  0
   -2.6980    3.2440    1.0620 N   0  0  0  0  0  0  0  0  0  0  0  0
   -1.5920    2.5930    0.9640 C   0  0  0  0  0  0  0  0  0  0  0  0
   -1.5280    1.2230    0.5080 C   0  0  0  0  0  0  0  0  0  0  0  0
   -0.2750    0.6520    0.5590 N   0  0  0  0  0  0  0  0  0  0  0  0
    0.4940   -0.2020   -0.2730 C   0  0  0  0  0  0  0  0  0  0  0  0
   -0.0410   -0.5470   -1.3270 O   0  0  0  0  0  0  0  0  0  0  0  0
    1.8030   -0.6150    0.1420 C   0  0  0  0  0  0  0  0  0  0  0  0
    2.2900   -0.0310    1.2130 O   0  0  0  0  0  0  0  0  0  0  0  0
    2.7360   -1.5500   -0.3270 N   0  0  0  0  0  0  0  0  0  0  0  0
    3.9790   -1.6710    0.3920 C   0  0  0  0  0  0  0  0  0  0  0  0
    4.8640   -0.4430    0.2780 C   0  0  2  0  0  0  0  0  0  0  0  0
    5.7680   -0.6070   -0.9610 C   0  0  0  0  0  0  0  0  0  0  0  0
    7.1720   -0.4120   -0.4920 C   0  0  0  0  0  0  0  0  0  0  0  0
    8.3700   -0.2300   -1.0980 C   0  0  0  0  0  0  0  0  0  0  0  0
    9.4980    0.0040   -0.3400 C   0  0  0  0  0  0  0  0  0  0  0  0
   10.8440    0.1460   -1.0200 C   0  0  2  0  0  0  0  0  0  0  0  0
   10.8100   -0.3080   -2.3140 F   0  0  0  0  0  0  0  0  0  0  0  0
   11.7500   -0.6390   -0.3090 F   0  0  0  0  0  0  0  0  0  0  0  0
   11.2040    1.4600   -0.9680 F   0  0  0  0  0  0  0  0  0  0  0  0
    9.4570    0.0650    1.0530 C   0  0  0  0  0  0  0  0  0  0  0  0
    8.2360   -0.1210    1.6640 C   0  0  0  0  0  0  0  0  0  0  0  0
    7.1060   -0.3600    0.8750 C   0  0  0  0  0  0  0  0  0  0  0  0
    5.8580   -0.5580    1.2880 O   0  0  0  0  0  0  0  0  0  0  0  0
   -2.7050    0.6200    0.1770 C   0  0  0  0  0  0  0  0  0  0  0  0
   -6.8580   -0.3020    1.3050 C   0  0  0  0  0  0  0  0  0  0  0  0
   -7.6530    0.3910    0.2200 C   0  0  0  0  0  0  0  0  0  0  0  0
   -8.2740    1.5270    0.4390 C   0  0  0  0  0  0  0  0  0  0  0  0
   -8.9820    2.2330   -0.4640 F   0  0  0  0  0  0  0  0  0  0  0  0
   -8.1910    2.2260    2.0620 Cl  0  0  0  0  0  0  0  0  0  0  0  0
  1  2  2  0
  2  3  1  0
  2 34  1  0
  3  4  1  0
  4  5  1  0
  5  6  1  6
  5 33  1  0
  6  7  1  0
  7  8  2  0
  7 32  1  0
  8  9  1  0
  9 10  2  0
 10 11  1  0
 11 12  1  0
 11 32  2  0
 12 13  1  0
 13 14  2  0
 13 15  1  0
 15 16  2  0
 15 17  1  0
 17 18  1  0
 19 18  1  1
 19 20  1  0
 19 31  1  0
 20 21  1  0
 21 22  2  0
 21 30  1  0
 22 23  1  0
 23 24  1  0
 23 28  2  0
 24 25  1  6
 24 26  1  0
 24 27  1  0
 28 29  1  0
 29 30  2  0
 30 31  1  0
 33 34  1  0
 34 35  2  3
 35 36  1  0
 35 37  1  0
M  CHG  1   5   1
M  END
