
     RDKit          3D

 37 40  0  0  0  0  0  0  0  0999 V2000
   -2.6370   -0.5510    1.7680 C   0  0  0  0  0  0  0  0  0  0  0  0
   -2.4020   -0.8090    0.2740 C   0  0  1  0  0  0  0  0  0  0  0  0
   -1.3220   -1.7170    0.0840 N   0  0  0  0  0  0  0  0  0  0  0  0
   -0.2100   -1.2740   -0.6650 C   0  0  1  0  0  0  0  0  0  0  0  0
   -0.4940   -0.7170   -2.0180 C   0  0  0  0  0  0  0  0  0  0  0  0
    0.7820    0.0270   -2.3530 C   0  0  0  0  0  0  0  0  0  0  0  0
    1.4810    0.2410   -1.0780 N   0  0  0  0  0  0  0  0  0  0  0  0
    2.7780    0.8010   -1.0120 C   0  0  0  0  0  0  0  0  0  0  0  0
    2.9570    2.1550   -1.3460 C   0  0  0  0  0  0  0  0  0  0  0  0
    4.2030    2.7200   -1.2840 C   0  0  0  0  0  0  0  0  0  0  0  0
    5.2670    1.9390   -0.8910 C   0  0  0  0  0  0  0  0  0  0  0  0
    5.1370    0.5900   -0.5500 C   0  0  0  0  0  0  0  0  0  0  0  0
    6.2780   -0.1930   -0.1250 C   0  0  0  0  0  0  0  0  0  0  0  0
    7.1250    0.2480    0.7780 C   0  0  0  0  0  0  0  0  0  0  0  0
    8.3130   -0.4900    1.2620 C   0  0  0  0  0  0  0  0  0  0  0  0
    8.9520    0.2100    2.1780 C   0  0  0  0  0  0  0  0  0  0  0  0
    8.2240    1.4570    2.3570 C   0  0  0  0  0  0  0  0  0  0  0  0
    7.1570    1.4840    1.5420 C   0  0  0  0  0  0  0  0  0  0  0  0
    3.8530    0.0330   -0.6210 C   0  0  0  0  0  0  0  0  0  0  0  0
    3.7090   -1.3900   -0.2650 C   0  0  1  0  0  0  0  0  0  0  0  0
    2.8430   -1.6530    0.7480 F   0  0  0  0  0  0  0  0  0  0  0  0
    3.2990   -2.3600   -1.7270 Cl  0  0  0  0  0  0  0  0  0  0  0  0
    0.5920   -0.1940   -0.0430 C   0  0  0  0  0  0  0  0  0  0  0  0
    0.5890    0.3070    1.0990 O   0  0  0  0  0  0  0  0  0  0  0  0
   -3.6450   -1.4440   -0.2350 C   0  0  0  0  0  0  0  0  0  0  0  0
   -3.6240   -2.6040   -0.7480 O   0  0  0  0  0  0  0  0  0  0  0  0
   -4.9130   -0.8020   -0.1790 N   0  0  0  0  0  0  0  0  0  0  0  0
   -6.1180   -1.4130   -0.6700 C   0  0  0  0  0  0  0  0  0  0  0  0
   -7.2640   -0.9550    0.2380 C   0  0  2  0  0  0  0  0  0  0  0  0
   -8.4620   -1.5520   -0.1360 O   0  0  0  0  0  0  0  0  0  0  0  0
   -7.3710    0.5580    0.0050 C   0  0  0  0  0  0  0  0  0  0  0  0
   -6.0920    1.1470    0.4880 C   0  0  0  0  0  0  0  0  0  0  0  0
   -6.1580    2.5140    1.0880 C   0  0  1  0  0  0  0  0  0  0  0  0
   -7.0150    2.4580    2.1930 F   0  0  0  0  0  0  0  0  0  0  0  0
   -4.9160    2.8880    1.5480 F   0  0  0  0  0  0  0  0  0  0  0  0
   -6.6270    3.4000    0.1450 F   0  0  0  0  0  0  0  0  0  0  0  0
   -5.0200    0.4780    0.3740 N   0  0  0  0  0  0  0  0  0  0  0  0
  2  1  1  1
  2  3  1  0
  2 25  1  0
  4  3  1  1
  4  5  1  0
  4 23  1  0
  5  6  1  0
  6  7  1  0
  7  8  1  0
  7 23  1  0
  8  9  2  0
  8 19  1  0
  9 10  1  0
 10 11  2  0
 11 12  1  0
 12 13  1  0
 12 19  2  0
 13 14  2  3
 14 15  1  0
 14 18  1  0
 15 16  2  0
 16 17  1  0
 17 18  2  0
 19 20  1  0
 20 21  1  1
 20 22  1  0
 23 24  2  0
 25 26  2  0
 25 27  1  0
 27 28  1  0
 27 37  1  0
 28 29  1  0
 29 30  1  6
 29 31  1  0
 31 32  1  0
 32 33  1  0
 32 37  2  0
 33 34  1  1
 33 35  1  0
 33 36  1  0
M  CHG  1   3   1
M  END
