
     RDKit          3D

 13 13  0  0  0  0  0  0  0  0999 V2000
    3.2350   -1.5290    0.5190 O   0  0  0  0  0  0  0  0  0  0  0  0
    2.2610   -0.5090    0.6500 C   0  0  0  0  0  0  0  0  0  0  0  0
    1.2810   -0.7500   -0.4470 C   0  0  1  0  0  0  0  0  0  0  0  0
    0.7770   -2.0620   -0.2230 O   0  0  0  0  0  0  0  0  0  0  0  0
    0.0280    0.1300   -0.3570 C   0  0  1  0  0  0  0  0  0  0  0  0
    0.3420    1.5940   -0.5750 C   0  0  2  0  0  0  0  0  0  0  0  0
    1.2390    2.0620    0.3540 O   0  0  0  0  0  0  0  0  0  0  0  0
   -0.8590    2.2920   -0.4390 O   0  0  0  0  0  0  0  0  0  0  0  0
   -0.8580   -0.3480   -1.4780 C   0  0  0  0  0  0  0  0  0  0  0  0
   -2.1960   -0.3370   -1.2160 O   0  0  0  0  0  0  0  0  0  0  0  0
   -2.5440   -0.7350    0.0580 C   0  0  0  0  0  0  0  0  0  0  0  0
   -1.8270    0.1060    1.0690 C   0  0  0  0  0  0  0  0  0  0  0  0
   -0.4840   -0.0380    0.8900 O   0  0  0  0  0  0  0  0  0  0  0  0
  1  2  1  0
  2  3  1  0
  3  4  1  1
  3  5  1  0
  5  6  1  0
  5  9  1  6
  5 13  1  0
  6  7  1  1
  6  8  1  0
  9 10  1  0
 10 11  1  0
 11 12  1  0
 12 13  1  0
M  END
