
     RDKit          3D

 12 12  0  0  0  0  0  0  0  0999 V2000
    2.8010   -0.3400   -1.5650 O   0  0  0  0  0  0  0  0  0  0  0  0
    2.9480   -0.1710   -0.1930 C   0  0  0  0  0  0  0  0  0  0  0  0
    2.0740    0.7460    0.3390 O   0  0  0  0  0  0  0  0  0  0  0  0
    0.7540    0.4460    0.1730 C   0  0  2  0  0  0  0  0  0  0  0  0
   -0.0370    1.4630   -0.5900 C   0  0  0  0  0  0  0  0  0  0  0  0
   -1.3000    0.7920   -1.0360 C   0  0  0  0  0  0  0  0  0  0  0  0
   -2.0540    0.0990    0.0300 C   0  0  1  0  0  0  0  0  0  0  0  0
   -2.8310   -0.9100   -0.5710 O   0  0  0  0  0  0  0  0  0  0  0  0
   -1.2560   -0.5390    1.1040 C   0  0  1  0  0  0  0  0  0  0  0  0
   -0.9400   -1.8720    0.7970 O   0  0  0  0  0  0  0  0  0  0  0  0
    0.0050    0.2110    1.4660 C   0  0  1  0  0  0  0  0  0  0  0  0
    0.7800   -0.6360    2.2430 O   0  0  0  0  0  0  0  0  0  0  0  0
  1  2  1  0
  2  3  1  0
  4  3  1  1
  4  5  1  0
  4 11  1  0
  5  6  1  0
  6  7  1  0
  7  8  1  6
  7  9  1  0
  9 10  1  6
  9 11  1  0
 11 12  1  1
M  END
