
     RDKit          3D

 13 13  0  0  0  0  0  0  0  0999 V2000
    3.4560   -0.1260    0.3860 O   0  0  0  0  0  0  0  0  0  0  0  0
    2.5500    0.2630   -0.3890 C   0  0  0  0  0  0  0  0  0  0  0  0
    2.6140    1.5820   -0.8160 O   0  0  0  0  0  0  0  0  0  0  0  0
    1.4460   -0.6620   -0.8300 C   0  0  2  0  0  0  0  0  0  0  0  0
    0.5650   -0.0340   -1.6720 O   0  0  0  0  0  0  0  0  0  0  0  0
   -0.3650    0.7630   -1.0670 C   0  0  0  0  0  0  0  0  0  0  0  0
   -1.1900   -0.0000   -0.0330 C   0  0  2  0  0  0  0  0  0  0  0  0
   -1.7400   -1.1470   -0.5460 O   0  0  0  0  0  0  0  0  0  0  0  0
   -2.2370    0.9550    0.5120 C   0  0  0  0  0  0  0  0  0  0  0  0
   -2.9470    0.3070    1.5390 O   0  0  0  0  0  0  0  0  0  0  0  0
   -0.1990   -0.3980    1.0420 C   0  0  0  0  0  0  0  0  0  0  0  0
    0.8000   -1.3300    0.3490 C   0  0  2  0  0  0  0  0  0  0  0  0
    1.7670   -1.7870    1.2200 O   0  0  0  0  0  0  0  0  0  0  0  0
  1  2  2  0
  2  3  1  0
  4  2  1  1
  4  5  1  0
  4 12  1  0
  5  6  1  0
  6  7  1  0
  7  8  1  6
  7  9  1  0
  7 11  1  0
  9 10  1  0
 11 12  1  0
 12 13  1  1
M  END
