
     RDKit          3D

 13 13  0  0  0  0  0  0  0  0999 V2000
    1.7360    1.1680    1.1900 O   0  0  0  0  0  0  0  0  0  0  0  0
    2.3220    0.8010    0.1490 C   0  0  0  0  0  0  0  0  0  0  0  0
    3.5640    1.3400   -0.1280 O   0  0  0  0  0  0  0  0  0  0  0  0
    1.7160   -0.1700   -0.7510 C   0  0  0  0  0  0  0  0  0  0  0  0
    0.3660   -0.6750   -0.3610 C   0  0  1  0  0  0  0  0  0  0  0  0
   -0.1030   -1.6010   -1.3010 O   0  0  0  0  0  0  0  0  0  0  0  0
    0.4770   -1.3190    1.0070 C   0  0  0  0  0  0  0  0  0  0  0  0
   -0.1800   -0.4780    1.9040 O   0  0  0  0  0  0  0  0  0  0  0  0
   -1.3060   -0.1240    1.1670 C   0  0  1  0  0  0  0  0  0  0  0  0
   -2.0600    0.8700    1.7710 O   0  0  0  0  0  0  0  0  0  0  0  0
   -0.6450    0.3920   -0.1180 C   0  0  2  0  0  0  0  0  0  0  0  0
   -1.7510    0.4000   -1.1590 C   0  0  0  0  0  0  0  0  0  0  0  0
   -2.6140    1.4500   -0.7940 O   0  0  0  0  0  0  0  0  0  0  0  0
  1  2  2  0
  2  3  1  0
  2  4  1  0
  4  5  1  0
  5  6  1  6
  5  7  1  0
  5 11  1  0
  7  8  1  0
  8  9  1  0
  9 10  1  1
  9 11  1  0
 11 12  1  6
 12 13  1  0
M  END
