
     RDKit          3D

 13 13  0  0  0  0  0  0  0  0999 V2000
   -3.6570   -0.4820   -0.9380 O   0  0  0  0  0  0  0  0  0  0  0  0
   -3.0640   -0.0290    0.0670 C   0  0  0  0  0  0  0  0  0  0  0  0
   -3.7480    0.8100    0.9250 O   0  0  0  0  0  0  0  0  0  0  0  0
   -1.6540   -0.4070    0.3010 C   0  0  2  0  0  0  0  0  0  0  0  0
   -0.8360    0.8470    0.3460 C   0  0  0  0  0  0  0  0  0  0  0  0
    0.3920    0.4330   -0.4780 C   0  0  1  0  0  0  0  0  0  0  0  0
    0.8740    1.5080   -1.1820 O   0  0  0  0  0  0  0  0  0  0  0  0
    1.3980   -0.0830    0.4920 C   0  0  0  0  0  0  0  0  0  0  0  0
    2.6820   -0.5420   -0.1220 C   0  0  0  0  0  0  0  0  0  0  0  0
    3.2810    0.5200   -0.7950 O   0  0  0  0  0  0  0  0  0  0  0  0
   -0.1960   -0.5740   -1.3890 C   0  0  1  0  0  0  0  0  0  0  0  0
    0.6960   -1.3900   -2.0340 O   0  0  0  0  0  0  0  0  0  0  0  0
   -1.1430   -1.2420   -0.6490 O   0  0  0  0  0  0  0  0  0  0  0  0
  1  2  2  0
  2  3  1  0
  4  2  1  6
  4  5  1  0
  4 13  1  0
  5  6  1  0
  6  7  1  6
  6  8  1  0
  6 11  1  0
  8  9  1  0
  9 10  1  0
 11 12  1  1
 11 13  1  0
M  END
