
     RDKit          3D

 25 28  0  0  0  0  0  0  0  0999 V2000
    2.4050   -1.7600   -1.5970 N   0  0  0  0  0  0  0  0  0  0  0  0
    2.9500   -2.0900   -0.3280 C   0  0  0  0  0  0  0  0  0  0  0  0
    3.8870   -2.9000   -0.0060 N   0  0  0  0  0  0  0  0  0  0  0  0
    4.0980   -2.9100    1.3890 N   0  0  0  0  0  0  0  0  0  0  0  0
    3.2840   -2.0940    1.9640 C   0  0  0  0  0  0  0  0  0  0  0  0
    2.8570   -1.5470    3.1800 N   0  0  0  0  0  0  0  0  0  0  0  0
    1.8080   -0.6310    2.8920 C   0  0  0  0  0  0  0  0  0  0  0  0
    1.6080   -0.6380    1.4350 C   0  0  0  0  0  0  0  0  0  0  0  0
    0.6460    0.1360    0.6730 N   0  0  0  0  0  0  0  0  0  0  0  0
    1.1290    1.2310   -0.0850 C   0  0  0  0  0  0  0  0  0  0  0  0
    2.4970    1.4960   -0.1450 C   0  0  0  0  0  0  0  0  0  0  0  0
    3.0000    2.5340   -0.9010 C   0  0  0  0  0  0  0  0  0  0  0  0
    2.1230    3.3270   -1.6120 C   0  0  0  0  0  0  0  0  0  0  0  0
    0.7700    3.0640   -1.5510 C   0  0  0  0  0  0  0  0  0  0  0  0
    0.2500    2.0100   -0.7850 C   0  0  0  0  0  0  0  0  0  0  0  0
   -1.1240    1.7560   -0.6930 N   0  0  0  0  0  0  0  0  0  0  0  0
   -1.8370    2.0540    0.5320 C   0  0  0  0  0  0  0  0  0  0  0  0
   -3.1900    1.3640    0.5420 C   0  0  0  0  0  0  0  0  0  0  0  0
   -3.1300    0.0080   -0.1100 C   0  0  0  0  0  0  0  0  0  0  0  0
   -3.7740   -1.0680    0.5830 N   0  0  0  0  0  0  0  0  0  0  0  0
   -2.5060   -0.0980   -1.2420 C   0  0  0  0  0  0  0  0  0  0  0  0
   -2.3640   -1.3310   -1.9910 C   0  0  0  0  0  0  0  0  0  0  0  0
   -2.9410   -2.5240   -1.4710 N   0  0  0  0  0  0  0  0  0  0  0  0
   -1.9000    1.1910   -1.7680 C   0  0  0  0  0  0  0  0  0  0  0  0
    2.4690   -1.4890    0.9260 C   0  0  0  0  0  0  0  0  0  0  0  0
  1  2  1  0
  2  3  2  0
  2 25  1  0
  3  4  1  0
  4  5  2  0
  5  6  1  0
  5 25  1  0
  6  7  1  0
  7  8  1  0
  8  9  1  0
  8 25  2  0
  9 10  1  0
 10 11  2  0
 10 15  1  0
 11 12  1  0
 12 13  2  0
 13 14  1  0
 14 15  2  0
 15 16  1  0
 16 17  1  0
 16 24  1  0
 17 18  1  0
 18 19  1  0
 19 20  1  0
 19 21  2  0
 21 22  1  0
 21 24  1  0
 22 23  1  0
M  CHG  2   6   1  23   1
M  END
