
     RDKit          3D

 12 12  0  0  0  0  0  0  0  0999 V2000
    3.8240    0.5950   -0.4550 C   0  0  0  0  0  0  0  0  0  0  0  0
    3.4390   -0.6640   -0.8510 O   0  0  0  0  0  0  0  0  0  0  0  0
    2.3910   -1.1920   -0.1190 C   0  0  0  0  0  0  0  0  0  0  0  0
    1.1900   -0.3250   -0.2400 C   0  0  0  0  0  0  0  0  0  0  0  0
    0.0740   -0.8370    0.5050 O   0  0  0  0  0  0  0  0  0  0  0  0
   -1.0970   -0.0850    0.4480 C   0  0  0  0  0  0  0  0  0  0  0  0
   -1.1150    1.1840    0.8140 C   0  0  0  0  0  0  0  0  0  0  0  0
   -2.3660    2.0060    0.7580 C   0  0  0  0  0  0  0  0  0  0  0  0
   -3.4500    1.2640    0.2870 O   0  0  0  0  0  0  0  0  0  0  0  0
   -3.4310   -0.0650   -0.0950 C   0  0  0  0  0  0  0  0  0  0  0  0
   -2.3050   -0.7350   -0.0250 C   0  0  0  0  0  0  0  0  0  0  0  0
   -2.2840   -2.1000   -0.4170 N   0  0  0  0  0  0  0  0  0  0  0  0
  1  2  1  0
  2  3  1  0
  3  4  1  0
  4  5  1  0
  5  6  1  0
  6  7  2  0
  6 11  1  0
  7  8  1  0
  8  9  1  0
  9 10  1  0
 10 11  2  0
 11 12  1  0
M  END
