
     RDKit          3D

 12 12  0  0  0  0  0  0  0  0999 V2000
    3.4360    0.4210   -0.6610 C   0  0  0  0  0  0  0  0  0  0  0  0
    2.9580   -0.1880    0.6270 C   0  0  0  0  0  0  0  0  0  0  0  0
    1.5870   -0.7980    0.4250 C   0  0  0  0  0  0  0  0  0  0  0  0
    0.7090    0.2490    0.0140 O   0  0  0  0  0  0  0  0  0  0  0  0
   -0.6420   -0.0140   -0.2510 C   0  0  0  0  0  0  0  0  0  0  0  0
   -0.9500   -0.9340   -1.1370 C   0  0  0  0  0  0  0  0  0  0  0  0
   -2.3360   -1.2660   -1.4690 C   0  0  0  0  0  0  0  0  0  0  0  0
   -3.2470   -0.5010   -0.7420 O   0  0  0  0  0  0  0  0  0  0  0  0
   -2.9710    0.4550    0.1790 C   0  0  0  0  0  0  0  0  0  0  0  0
   -3.9660    1.1800    0.8660 O   0  0  0  0  0  0  0  0  0  0  0  0
   -1.7000    0.7090    0.4340 C   0  0  0  0  0  0  0  0  0  0  0  0
   -1.3580    1.7050    1.3940 N   0  0  0  0  0  0  0  0  0  0  0  0
  1  2  1  0
  2  3  1  0
  3  4  1  0
  4  5  1  0
  5  6  2  0
  5 11  1  0
  6  7  1  0
  7  8  1  0
  8  9  1  0
  9 10  1  0
  9 11  2  0
 11 12  1  0
M  END
