
     RDKit          3D

 12 12  0  0  0  0  0  0  0  0999 V2000
   -4.6270   -0.0640    0.4840 C   0  0  0  0  0  0  0  0  0  0  0  0
   -3.2730    0.2540    0.7060 O   0  0  0  0  0  0  0  0  0  0  0  0
   -2.6920    0.2530   -0.5360 C   0  0  0  0  0  0  0  0  0  0  0  0
   -1.2410    0.5660   -0.5670 C   0  0  0  0  0  0  0  0  0  0  0  0
   -0.4230   -0.2970    0.1520 O   0  0  0  0  0  0  0  0  0  0  0  0
    0.9330   -0.0800    0.1780 C   0  0  0  0  0  0  0  0  0  0  0  0
    1.7650   -1.0950    0.0830 C   0  0  0  0  0  0  0  0  0  0  0  0
    3.2430   -0.9210    0.1040 C   0  0  2  0  0  0  0  0  0  0  0  0
    3.7310   -1.6940    1.2530 N   0  0  0  0  0  0  0  0  0  0  0  0
    3.6830    0.3830    0.2310 O   0  0  0  0  0  0  0  0  0  0  0  0
    2.8230    1.4450    0.3310 C   0  0  0  0  0  0  0  0  0  0  0  0
    1.5210    1.2400    0.3070 C   0  0  0  0  0  0  0  0  0  0  0  0
  1  2  1  0
  2  3  1  0
  3  4  1  0
  4  5  1  0
  5  6  1  0
  6  7  2  0
  6 12  1  0
  7  8  1  0
  8  9  1  1
  8 10  1  0
 10 11  1  0
 11 12  2  0
M  END
