
     RDKit          3D

 12 12  0  0  0  0  0  0  0  0999 V2000
    3.3760   -0.8800    0.1180 C   0  0  0  0  0  0  0  0  0  0  0  0
    1.9170   -0.9180    0.5000 C   0  0  0  0  0  0  0  0  0  0  0  0
    1.1280   -0.1400   -0.3820 O   0  0  0  0  0  0  0  0  0  0  0  0
   -0.2460   -0.0140   -0.2410 C   0  0  0  0  0  0  0  0  0  0  0  0
   -1.0590   -1.0450   -0.3430 C   0  0  0  0  0  0  0  0  0  0  0  0
   -0.5020   -2.3500   -0.6110 N   0  0  0  0  0  0  0  0  0  0  0  0
   -2.5260   -0.9590   -0.2000 C   0  0  0  0  0  0  0  0  0  0  0  0
   -2.9330    0.3410    0.0540 O   0  0  0  0  0  0  0  0  0  0  0  0
   -2.1450    1.4430    0.1700 C   0  0  0  0  0  0  0  0  0  0  0  0
   -2.6710    2.7220    0.4310 O   0  0  0  0  0  0  0  0  0  0  0  0
   -0.8330    1.2920    0.0300 C   0  0  0  0  0  0  0  0  0  0  0  0
    0.0700    2.4580    0.1470 C   0  0  0  0  0  0  0  0  0  0  0  0
  1  2  1  0
  2  3  1  0
  3  4  1  0
  4  5  2  0
  4 11  1  0
  5  6  1  0
  5  7  1  0
  7  8  1  0
  8  9  1  0
  9 10  1  0
  9 11  2  0
 11 12  1  0
M  END
