
     RDKit          3D

 20 20  0  0  0  0  0  0  0  0999 V2000
   -1.9560   -0.8160    1.3800 C   0  0  0  0  0  0  0  0  0  0  0  0
   -2.0250    0.3720    0.4860 C   0  0  2  0  0  0  0  0  0  0  0  0
   -0.8200    1.2090    0.7050 C   0  0  0  0  0  0  0  0  0  0  0  0
   -0.8490    2.4240    0.9890 O   0  0  0  0  0  0  0  0  0  0  0  0
    0.4680    0.5990    0.5860 N   0  0  0  0  0  0  0  0  0  0  0  0
    1.6850    1.3500    0.7840 C   0  0  0  0  0  0  0  0  0  0  0  0
    2.8950    0.4420    0.5900 C   0  0  1  0  0  0  0  0  0  0  0  0
    2.8060   -0.6010    1.5290 O   0  0  0  0  0  0  0  0  0  0  0  0
    2.9560   -0.1140   -0.7970 C   0  0  0  0  0  0  0  0  0  0  0  0
    4.0450   -0.9360   -0.9700 O   0  0  0  0  0  0  0  0  0  0  0  0
    5.2710   -0.3530   -0.8130 C   0  0  2  0  0  0  0  0  0  0  0  0
    5.9980   -0.4640   -2.0030 O   0  0  0  0  0  0  0  0  0  0  0  0
    6.0230   -1.0420    0.1510 O   0  0  0  0  0  0  0  0  0  0  0  0
   -3.1290    1.1870    0.6950 O   0  0  0  0  0  0  0  0  0  0  0  0
   -4.3330    0.5700    0.5980 C   0  0  2  0  0  0  0  0  0  0  0  0
   -4.7710    0.2120    1.8780 O   0  0  0  0  0  0  0  0  0  0  0  0
   -4.3870   -0.6410   -0.2700 C   0  0  0  0  0  0  0  0  0  0  0  0
   -3.3140   -0.7530   -1.2810 C   0  0  0  0  0  0  0  0  0  0  0  0
   -2.0630    0.0180   -0.9920 C   0  0  2  0  0  0  0  0  0  0  0  0
   -0.9240   -0.6260   -1.4220 O   0  0  0  0  0  0  0  0  0  0  0  0
  2  1  1  1
  2  3  1  0
  2 14  1  0
  2 19  1  0
  3  4  2  0
  3  5  1  0
  5  6  1  0
  6  7  1  0
  7  8  1  1
  7  9  1  0
  9 10  1  0
 10 11  1  0
 11 12  1  6
 11 13  1  0
 14 15  1  0
 15 16  1  1
 15 17  1  0
 17 18  1  0
 18 19  1  0
 19 20  1  1
M  END
