
     RDKit          3D

 12 12  0  0  0  0  0  0  0  0999 V2000
    3.7110   -0.3360    0.9870 N   0  0  0  0  0  0  0  0  0  0  0  0
    2.9360   -0.0070   -0.1730 C   0  0  0  0  0  0  0  0  0  0  0  0
    1.5430   -0.5610   -0.0860 C   0  0  0  0  0  0  0  0  0  0  0  0
    0.4970    0.2450   -0.1180 C   0  0  0  0  0  0  0  0  0  0  0  0
    0.6840    1.6390   -0.2360 O   0  0  0  0  0  0  0  0  0  0  0  0
   -0.3840    2.4590    0.1400 C   0  0  0  0  0  0  0  0  0  0  0  0
   -1.6830    2.0160   -0.5220 C   0  0  0  0  0  0  0  0  0  0  0  0
   -1.9490    0.7070   -0.0810 O   0  0  0  0  0  0  0  0  0  0  0  0
   -0.8810   -0.2140   -0.0400 C   0  0  0  0  0  0  0  0  0  0  0  0
   -1.1230   -1.5030    0.0710 C   0  0  0  0  0  0  0  0  0  0  0  0
   -2.5590   -1.9300    0.1490 C   0  0  0  0  0  0  0  0  0  0  0  0
   -2.7780   -2.7730   -0.9390 O   0  0  0  0  0  0  0  0  0  0  0  0
  1  2  1  0
  2  3  1  0
  3  4  2  3
  4  5  1  0
  4  9  1  0
  5  6  1  0
  6  7  1  0
  7  8  1  0
  8  9  1  0
  9 10  2  3
 10 11  1  0
 11 12  1  0
M  END
