
     RDKit          3D

 19 19  0  0  0  0  0  0  0  0999 V2000
   -5.2810    1.3600   -1.2050 N   0  0  0  0  0  0  0  0  0  0  0  0
   -5.5490    0.0580   -0.6140 C   0  0  0  0  0  0  0  0  0  0  0  0
   -4.2430   -0.4710   -0.0240 C   0  0  2  0  0  0  0  0  0  0  0  0
   -3.7780    0.3790    0.9270 O   0  0  0  0  0  0  0  0  0  0  0  0
   -3.2930   -0.6870   -1.1530 C   0  0  0  0  0  0  0  0  0  0  0  0
   -2.1020   -1.2420   -0.7440 O   0  0  0  0  0  0  0  0  0  0  0  0
   -1.1460   -0.7010    0.0750 C   0  0  0  0  0  0  0  0  0  0  0  0
   -1.3250    0.4460    0.5280 O   0  0  0  0  0  0  0  0  0  0  0  0
    0.0710   -1.5100    0.3900 C   0  0  0  0  0  0  0  0  0  0  0  0
    1.0870   -0.8030    1.2140 C   0  0  2  0  0  0  0  0  0  0  0  0
    0.5390   -0.4040    2.4160 O   0  0  0  0  0  0  0  0  0  0  0  0
    1.8390    0.2970    0.5470 C   0  0  1  0  0  0  0  0  0  0  0  0
    1.0340    1.3760    0.2950 O   0  0  0  0  0  0  0  0  0  0  0  0
    2.9860    0.6780    1.4650 C   0  0  0  0  0  0  0  0  0  0  0  0
    4.1930    0.3740    0.5960 C   0  0  0  0  0  0  0  0  0  0  0  0
    3.5730    0.6330   -0.7820 C   0  0  1  0  0  0  0  0  0  0  0  0
    4.4630    0.1140   -1.8780 C   0  0  0  0  0  0  0  0  0  0  0  0
    4.8210   -1.2150   -1.6310 O   0  0  0  0  0  0  0  0  0  0  0  0
    2.4010   -0.1010   -0.6670 O   0  0  0  0  0  0  0  0  0  0  0  0
  1  2  1  0
  2  3  1  0
  3  4  1  1
  3  5  1  0
  5  6  1  0
  6  7  1  0
  7  8  2  0
  7  9  1  0
  9 10  1  0
 10 11  1  1
 10 12  1  0
 12 13  1  6
 12 14  1  0
 12 19  1  0
 14 15  1  0
 15 16  1  0
 16 17  1  6
 16 19  1  0
 17 18  1  0
M  END
