
     RDKit          3D

 19 19  0  0  0  0  0  0  0  0999 V2000
   -1.7840   -0.3440    1.6530 C   0  0  0  0  0  0  0  0  0  0  0  0
   -1.3140   -0.2350    0.2420 C   0  0  2  0  0  0  0  0  0  0  0  0
   -1.8940    1.0380   -0.3420 C   0  0  1  0  0  0  0  0  0  0  0  0
   -1.6120    1.2230   -1.6740 O   0  0  0  0  0  0  0  0  0  0  0  0
   -3.4260    0.8650   -0.1760 C   0  0  0  0  0  0  0  0  0  0  0  0
   -4.0600    2.0180   -0.6480 O   0  0  0  0  0  0  0  0  0  0  0  0
   -1.9050   -1.2730   -0.4870 O   0  0  0  0  0  0  0  0  0  0  0  0
   -1.4790   -2.5250   -0.1280 C   0  0  0  0  0  0  0  0  0  0  0  0
   -0.1020   -2.6760   -0.1630 O   0  0  0  0  0  0  0  0  0  0  0  0
    0.5730   -1.7230    0.5900 C   0  0  0  0  0  0  0  0  0  0  0  0
    0.1820   -0.3580    0.0680 C   0  0  1  0  0  0  0  0  0  0  0  0
    0.4440   -0.4480   -1.4450 C   0  0  0  0  0  0  0  0  0  0  0  0
    0.9370    0.7590    0.6670 C   0  0  2  0  0  0  0  0  0  0  0  0
    0.5860    1.9620    0.0720 O   0  0  0  0  0  0  0  0  0  0  0  0
    2.3890    0.5790    0.8980 C   0  0  0  0  0  0  0  0  0  0  0  0
    3.2270    0.6310   -0.2690 N   0  0  0  0  0  0  0  0  0  0  0  0
    4.6330    0.4660   -0.1770 C   0  0  0  0  0  0  0  0  0  0  0  0
    5.1630    0.2710    0.9460 O   0  0  0  0  0  0  0  0  0  0  0  0
    5.4710    0.5100   -1.2800 O   0  0  0  0  0  0  0  0  0  0  0  0
  2  1  1  1
  2  3  1  0
  2  7  1  0
  2 11  1  0
  3  4  1  6
  3  5  1  0
  5  6  1  0
  7  8  1  0
  8  9  1  0
  9 10  1  0
 10 11  1  0
 11 12  1  6
 11 13  1  0
 13 14  1  6
 13 15  1  0
 15 16  1  0
 16 17  1  0
 17 18  2  0
 17 19  1  0
M  END
