
     RDKit          3D

 19 19  0  0  0  0  0  0  0  0999 V2000
    5.4980    1.0530   -0.4130 N   0  0  0  0  0  0  0  0  0  0  0  0
    4.1060    1.1200   -0.0220 C   0  0  0  0  0  0  0  0  0  0  0  0
    3.5700   -0.3070   -0.0260 C   0  0  2  0  0  0  0  0  0  0  0  0
    3.6690   -0.8940   -1.2680 O   0  0  0  0  0  0  0  0  0  0  0  0
    2.1750   -0.3570    0.5300 C   0  0  2  0  0  0  0  0  0  0  0  0
    2.1240    0.2380    1.7660 O   0  0  0  0  0  0  0  0  0  0  0  0
    1.7710   -1.8300    0.5870 C   0  0  0  0  0  0  0  0  0  0  0  0
    1.8690   -2.3020   -0.7340 O   0  0  0  0  0  0  0  0  0  0  0  0
    1.1700    0.3240   -0.3730 C   0  0  0  0  0  0  0  0  0  0  0  0
   -0.0790    0.1630    0.2040 O   0  0  0  0  0  0  0  0  0  0  0  0
   -1.0980    0.7370   -0.5150 C   0  0  0  0  0  0  0  0  0  0  0  0
   -2.3950    0.4760    0.2410 C   0  0  2  0  0  0  0  0  0  0  0  0
   -2.3440    1.0350    1.5170 O   0  0  0  0  0  0  0  0  0  0  0  0
   -2.6550   -0.9980    0.4060 C   0  0  0  0  0  0  0  0  0  0  0  0
   -3.8820   -1.1430    1.2820 C   0  0  0  0  0  0  0  0  0  0  0  0
   -4.5620    0.0510    1.4540 O   0  0  0  0  0  0  0  0  0  0  0  0
   -4.8310    0.6870    0.2490 C   0  0  0  0  0  0  0  0  0  0  0  0
   -3.5670    1.0850   -0.4760 C   0  0  1  0  0  0  0  0  0  0  0  0
   -3.3960    2.4670   -0.4600 O   0  0  0  0  0  0  0  0  0  0  0  0
  1  2  1  0
  2  3  1  0
  3  4  1  6
  3  5  1  0
  5  6  1  1
  5  7  1  0
  5  9  1  0
  7  8  1  0
  9 10  1  0
 10 11  1  0
 11 12  1  0
 12 13  1  1
 12 14  1  0
 12 18  1  0
 14 15  1  0
 15 16  1  0
 16 17  1  0
 17 18  1  0
 18 19  1  1
M  END
