
     RDKit          3D

 20 20  0  0  0  0  0  0  0  0999 V2000
   -2.3500   -3.4550    0.0670 C   0  0  0  0  0  0  0  0  0  0  0  0
   -2.2050   -1.9940    0.2930 C   0  0  0  0  0  0  0  0  0  0  0  0
   -2.9920   -1.4310    1.0650 O   0  0  0  0  0  0  0  0  0  0  0  0
   -1.1680   -1.2830   -0.3790 N   0  0  0  0  0  0  0  0  0  0  0  0
   -0.9960    0.1340   -0.1840 C   0  0  2  0  0  0  0  0  0  0  0  0
   -1.4970    0.8060   -1.4640 C   0  0  1  0  0  0  0  0  0  0  0  0
   -2.8900    0.7130   -1.5340 O   0  0  0  0  0  0  0  0  0  0  0  0
   -1.1610    2.2490   -1.4830 C   0  0  0  0  0  0  0  0  0  0  0  0
   -0.2770    2.8160   -0.6800 C   0  0  0  0  0  0  0  0  0  0  0  0
    0.0170    4.2520   -0.7430 C   0  0  0  0  0  0  0  0  0  0  0  0
   -0.5550    5.0030   -1.5580 O   0  0  0  0  0  0  0  0  0  0  0  0
    0.9510    4.7810    0.1240 O   0  0  0  0  0  0  0  0  0  0  0  0
    0.3620    1.9840    0.2290 O   0  0  0  0  0  0  0  0  0  0  0  0
    0.4170    0.5510    0.0210 C   0  0  1  0  0  0  0  0  0  0  0  0
    1.0880    0.0120    1.2440 C   0  0  2  0  0  0  0  0  0  0  0  0
    2.3740    0.6100    1.3840 O   0  0  0  0  0  0  0  0  0  0  0  0
    1.3650   -1.4650    1.2190 C   0  0  2  0  0  0  0  0  0  0  0  0
    2.0010   -1.7540    2.4530 O   0  0  0  0  0  0  0  0  0  0  0  0
    2.3680   -1.8390    0.1490 C   0  0  0  0  0  0  0  0  0  0  0  0
    3.5310   -1.0850    0.3090 O   0  0  0  0  0  0  0  0  0  0  0  0
  1  2  1  0
  2  3  2  0
  2  4  1  0
  5  4  1  6
  5  6  1  0
  5 14  1  0
  6  7  1  1
  6  8  1  0
  8  9  2  0
  9 10  1  0
  9 13  1  0
 10 11  2  0
 10 12  1  0
 14 13  1  1
 14 15  1  0
 15 16  1  6
 15 17  1  0
 17 18  1  1
 17 19  1  0
 19 20  1  0
M  END
