
     RDKit          3D

 20 20  0  0  0  0  0  0  0  0999 V2000
    1.1740    4.3190    0.0140 C   0  0  0  0  0  0  0  0  0  0  0  0
    0.7740    3.0140   -0.3840 O   0  0  0  0  0  0  0  0  0  0  0  0
    0.2830    2.0670    0.4860 C   0  0  0  0  0  0  0  0  0  0  0  0
    0.1780    2.3580    1.6910 O   0  0  0  0  0  0  0  0  0  0  0  0
   -0.1150    0.7030   -0.0420 C   0  0  2  0  0  0  0  0  0  0  0  0
    1.1440    0.1090   -0.5400 C   0  0  0  0  0  0  0  0  0  0  0  0
    1.7000    0.6180   -1.5350 O   0  0  0  0  0  0  0  0  0  0  0  0
    1.7430   -1.0130    0.0710 N   0  0  0  0  0  0  0  0  0  0  0  0
    2.9660   -1.5980   -0.4060 C   0  0  0  0  0  0  0  0  0  0  0  0
    4.1200   -0.6220   -0.3770 C   0  0  0  0  0  0  0  0  0  0  0  0
    5.2710   -1.2500   -0.8500 O   0  0  0  0  0  0  0  0  0  0  0  0
   -1.1180    0.9560   -1.1140 C   0  0  0  0  0  0  0  0  0  0  0  0
   -2.1170   -0.1110   -1.3620 C   0  0  0  0  0  0  0  0  0  0  0  0
   -2.5770   -0.6180    0.0070 C   0  0  1  0  0  0  0  0  0  0  0  0
   -3.0520    0.3940    0.8070 O   0  0  0  0  0  0  0  0  0  0  0  0
   -3.5780   -1.7200   -0.1780 C   0  0  0  0  0  0  0  0  0  0  0  0
   -3.9020   -2.2680    1.0560 O   0  0  0  0  0  0  0  0  0  0  0  0
   -1.2880   -1.1470    0.6520 C   0  0  2  0  0  0  0  0  0  0  0  0
   -1.6070   -1.9630    1.7150 O   0  0  0  0  0  0  0  0  0  0  0  0
   -0.5670   -0.0340    1.0360 O   0  0  0  0  0  0  0  0  0  0  0  0
  1  2  1  0
  2  3  1  0
  3  4  2  0
  5  3  1  1
  5  6  1  0
  5 12  1  0
  5 20  1  0
  6  7  2  0
  6  8  1  0
  8  9  1  0
  9 10  1  0
 10 11  1  0
 12 13  1  0
 13 14  1  0
 14 15  1  1
 14 16  1  0
 14 18  1  0
 16 17  1  0
 18 19  1  1
 18 20  1  0
M  END
