
     RDKit          3D

 19 19  0  0  0  0  0  0  0  0999 V2000
    0.0130   -1.9700    1.2310 O   0  0  0  0  0  0  0  0  0  0  0  0
    0.8050   -1.5960    0.3040 C   0  0  0  0  0  0  0  0  0  0  0  0
    0.1720   -0.7460   -0.5420 O   0  0  0  0  0  0  0  0  0  0  0  0
   -1.1180   -0.2890   -0.5090 C   0  0  1  0  0  0  0  0  0  0  0  0
   -2.2380   -1.2430   -0.5850 C   0  0  0  0  0  0  0  0  0  0  0  0
   -2.2530   -2.0090   -1.7550 O   0  0  0  0  0  0  0  0  0  0  0  0
   -1.2820    0.5880    0.7040 C   0  0  0  0  0  0  0  0  0  0  0  0
   -2.0760    1.8200    0.5290 C   0  0  1  0  0  0  0  0  0  0  0  0
   -1.7400    2.7480    1.5440 O   0  0  0  0  0  0  0  0  0  0  0  0
   -2.0310    2.5460   -0.7520 C   0  0  0  0  0  0  0  0  0  0  0  0
   -1.2600    1.9120   -1.7850 N   0  0  0  0  0  0  0  0  0  0  0  0
   -1.2070    0.5230   -1.7810 C   0  0  0  0  0  0  0  0  0  0  0  0
   -1.2280   -0.1840   -2.8490 O   0  0  0  0  0  0  0  0  0  0  0  0
    2.1810   -2.0720    0.2520 C   0  0  2  0  0  0  0  0  0  0  0  0
    2.4180   -2.9340    1.3240 O   0  0  0  0  0  0  0  0  0  0  0  0
    3.2040   -1.0300    0.1800 C   0  0  0  0  0  0  0  0  0  0  0  0
    4.5310   -1.4150    0.1310 O   0  0  0  0  0  0  0  0  0  0  0  0
    2.9280    0.2570    0.1580 C   0  0  0  0  0  0  0  0  0  0  0  0
    3.9200    1.2350    0.0880 O   0  0  0  0  0  0  0  0  0  0  0  0
  1  2  2  0
  2  3  1  0
  2 14  1  0
  3  4  1  0
  4  5  1  6
  4  7  1  0
  4 12  1  0
  5  6  1  0
  7  8  1  0
  8  9  1  1
  8 10  1  0
 10 11  1  0
 11 12  1  0
 12 13  2  0
 14 15  1  1
 14 16  1  0
 16 17  1  0
 16 18  2  3
 18 19  1  0
M  END
