
     RDKit          3D

 11 11  0  0  0  0  0  0  0  0999 V2000
   -2.5390   -0.4860   -1.2290 C   0  0  0  0  0  0  0  0  0  0  0  0
   -1.7910    0.6190   -0.7820 O   0  0  0  0  0  0  0  0  0  0  0  0
   -0.5480    0.3910   -0.2190 C   0  0  0  0  0  0  0  0  0  0  0  0
   -0.0880   -0.9200   -0.1190 C   0  0  0  0  0  0  0  0  0  0  0  0
    1.1450   -1.1870    0.4360 C   0  0  0  0  0  0  0  0  0  0  0  0
    1.6220   -2.4590    0.5480 F   0  0  0  0  0  0  0  0  0  0  0  0
    1.9580   -0.1710    0.9050 C   0  0  0  0  0  0  0  0  0  0  0  0
    3.2040   -0.4270    1.4670 O   0  0  0  0  0  0  0  0  0  0  0  0
    1.4670    1.1300    0.7900 C   0  0  0  0  0  0  0  0  0  0  0  0
    0.2470    1.4310    0.2440 C   0  0  0  0  0  0  0  0  0  0  0  0
   -0.2560    2.7140    0.1210 O   0  0  0  0  0  0  0  0  0  0  0  0
  1  2  1  0
  2  3  1  0
  3  4  2  0
  3 10  1  0
  4  5  1  0
  5  6  1  0
  5  7  2  0
  7  8  1  0
  7  9  1  0
  9 10  2  0
 10 11  1  0
M  END
