
     RDKit          3D

 19 22  0  0  0  0  0  0  0  0999 V2000
   -5.1230    0.0780    0.5050 N   0  0  0  0  0  0  0  0  0  0  0  0
   -3.8300    0.4250    0.0420 C   0  0  0  0  0  0  0  0  0  0  0  0
   -3.5580    1.3520   -0.8400 C   0  0  0  0  0  0  0  0  0  0  0  0
   -2.1620    1.4480   -1.0830 N   0  0  0  0  0  0  0  0  0  0  0  0
   -1.5570    0.4650   -0.2480 C   0  0  0  0  0  0  0  0  0  0  0  0
   -0.2830    0.1380   -0.0900 C   0  0  0  0  0  0  0  0  0  0  0  0
    0.8150    0.8070   -0.8280 C   0  0  2  0  0  0  0  0  0  0  0  0
    1.5950   -0.1850   -1.6740 C   0  0  0  0  0  0  0  0  0  0  0  0
    2.9150   -0.2330   -1.0320 C   0  0  0  0  0  0  0  0  0  0  0  0
    3.9820   -1.0180   -1.3260 N   0  0  0  0  0  0  0  0  0  0  0  0
    5.1330   -0.9530   -0.6490 C   0  0  0  0  0  0  0  0  0  0  0  0
    5.2510   -0.0540    0.3940 C   0  0  0  0  0  0  0  0  0  0  0  0
    4.1950    0.7430    0.7090 C   0  0  0  0  0  0  0  0  0  0  0  0
    2.9980    0.6690   -0.0030 C   0  0  0  0  0  0  0  0  0  0  0  0
    1.7810    1.3600    0.1100 N   0  0  0  0  0  0  0  0  0  0  0  0
   -0.0060   -0.9300    0.8600 C   0  0  0  0  0  0  0  0  0  0  0  0
   -0.9350   -1.5560    1.5390 C   0  0  0  0  0  0  0  0  0  0  0  0
   -2.3570   -1.2250    1.3930 C   0  0  0  0  0  0  0  0  0  0  0  0
   -2.5980   -0.1670    0.4490 N   0  0  0  0  0  0  0  0  0  0  0  0
  1  2  1  0
  2  3  2  0
  2 19  1  0
  3  4  1  0
  4  5  1  0
  5  6  2  0
  5 19  1  0
  7  6  1  1
  6 16  1  0
  7  8  1  0
  7 15  1  0
  8  9  1  0
  9 10  2  0
  9 14  1  0
 10 11  1  0
 11 12  2  0
 12 13  1  0
 13 14  2  0
 14 15  1  0
 16 17  2  0
 17 18  1  0
 18 19  1  0
M  CHG  1   1   1
M  END
