
     RDKit          3D

 19 23  0  0  0  0  0  0  0  0999 V2000
   -4.7200   -0.3920   -0.1710 C   0  0  0  0  0  0  0  0  0  0  0  0
   -3.8740   -0.1270    1.0460 C   0  0  0  0  0  0  0  0  0  0  0  0
   -2.4460   -0.2520    0.8300 C   0  0  0  0  0  0  0  0  0  0  0  0
   -1.6860   -1.3450    1.2580 C   0  0  0  0  0  0  0  0  0  0  0  0
   -0.3420   -1.4390    1.0420 N   0  0  0  0  0  0  0  0  0  0  0  0
    0.3090   -0.4540    0.3930 C   0  0  0  0  0  0  0  0  0  0  0  0
    1.5790   -0.1250   -0.0310 C   0  0  0  0  0  0  0  0  0  0  0  0
    1.5420    1.1250   -0.6840 C   0  0  0  0  0  0  0  0  0  0  0  0
    2.7880    1.3810   -1.0640 N   0  0  0  0  0  0  0  0  0  0  0  0
    3.6000    0.3620   -0.6860 C   0  0  0  0  0  0  0  0  0  0  0  0
    2.8330   -0.5380   -0.0590 N   0  0  0  0  0  0  0  0  0  0  0  0
    3.6700   -1.6540    0.3720 C   0  0  0  0  0  0  0  0  0  0  0  0
    4.8770   -1.5150   -0.5170 C   0  0  0  0  0  0  0  0  0  0  0  0
    4.9490   -0.0870   -0.7170 N   0  0  0  0  0  0  0  0  0  0  0  0
    0.2370    1.5410   -0.6470 N   0  0  0  0  0  0  0  0  0  0  0  0
   -0.4370    0.6060   -0.0200 C   0  0  0  0  0  0  0  0  0  0  0  0
   -1.7620    0.7720    0.1540 C   0  0  0  0  0  0  0  0  0  0  0  0
   -2.0750    2.0540   -0.4620 C   0  0  0  0  0  0  0  0  0  0  0  0
   -0.7240    2.5770   -1.0050 C   0  0  0  0  0  0  0  0  0  0  0  0
  1  2  1  0
  2  3  1  0
  3  4  2  0
  3 17  1  0
  4  5  1  0
  5  6  2  0
  6  7  1  0
  6 16  1  0
  7  8  2  0
  7 11  1  0
  8  9  1  0
  8 15  1  0
  9 10  2  0
 10 11  1  0
 10 14  1  0
 11 12  1  0
 12 13  1  0
 13 14  1  0
 15 16  1  0
 15 19  1  0
 16 17  2  0
 17 18  1  0
 18 19  1  0
M  CHG  1   5   1
M  END
