
     RDKit          3D

 23 23  0  0  0  0  0  0  0  0999 V2000
   -0.9100    4.1490    0.5380 C   0  0  0  0  0  0  0  0  0  0  0  0
   -0.5890    2.8390   -0.1010 C   0  0  0  0  0  0  0  0  0  0  0  0
   -0.2600    2.7910   -1.3210 O   0  0  0  0  0  0  0  0  0  0  0  0
   -0.6300    1.6010    0.5890 N   0  0  0  0  0  0  0  0  0  0  0  0
   -0.3180    0.3650   -0.0500 C   0  0  2  0  0  0  0  0  0  0  0  0
   -1.5100   -0.5830   -0.1270 C   0  0  1  0  0  0  0  0  0  0  0  0
   -2.7150    0.0890   -0.4750 N   0  0  0  0  0  0  0  0  0  0  0  0
   -3.7850   -0.5290   -0.7720 C   0  0  0  0  0  0  0  0  0  0  0  0
   -3.8030   -1.9420   -0.7640 N   0  0  0  0  0  0  0  0  0  0  0  0
   -4.9540    0.1830   -1.1100 N   0  0  0  0  0  0  0  0  0  0  0  0
   -1.0860   -1.5920   -1.1670 C   0  0  0  0  0  0  0  0  0  0  0  0
    0.1770   -2.0530   -1.1560 C   0  0  0  0  0  0  0  0  0  0  0  0
    0.6100   -3.0240   -2.1460 C   0  0  0  0  0  0  0  0  0  0  0  0
    1.7770   -3.4470   -2.1300 O   0  0  0  0  0  0  0  0  0  0  0  0
   -0.2770   -3.4670   -3.0940 O   0  0  0  0  0  0  0  0  0  0  0  0
    1.0300   -1.5720   -0.1790 O   0  0  0  0  0  0  0  0  0  0  0  0
    0.7990   -0.4020    0.5570 C   0  0  1  0  0  0  0  0  0  0  0  0
    2.0510    0.4150    0.7640 C   0  0  2  0  0  0  0  0  0  0  0  0
    2.5380    0.7600   -0.4840 O   0  0  0  0  0  0  0  0  0  0  0  0
    3.0510   -0.4220    1.5260 C   0  0  2  0  0  0  0  0  0  0  0  0
    2.5470   -0.7530    2.7700 O   0  0  0  0  0  0  0  0  0  0  0  0
    4.3450    0.3730    1.6270 C   0  0  0  0  0  0  0  0  0  0  0  0
    5.3110   -0.3720    2.2960 O   0  0  0  0  0  0  0  0  0  0  0  0
  1  2  1  0
  2  3  2  0
  2  4  1  0
  5  4  1  1
  5  6  1  0
  5 17  1  0
  6  7  1  6
  6 11  1  0
  7  8  2  3
  8  9  1  0
  8 10  1  0
 11 12  2  0
 12 13  1  0
 12 16  1  0
 13 14  2  0
 13 15  1  0
 17 16  1  6
 17 18  1  0
 18 19  1  6
 18 20  1  0
 20 21  1  1
 20 22  1  0
 22 23  1  0
M  CHG  1   7   1
M  END
