
     RDKit          3D

 22 23  0  0  0  0  0  0  0  0999 V2000
    0.4520    2.2280   -2.3470 C   0  0  0  0  0  0  0  0  0  0  0  0
    0.4020    2.6350   -1.1310 C   0  0  0  0  0  0  0  0  0  0  0  0
   -0.5180    2.2770   -0.1120 C   0  0  0  0  0  0  0  0  0  0  0  0
   -0.4440    2.9520    1.0520 C   0  0  0  0  0  0  0  0  0  0  0  0
   -1.3130    2.7470    2.2170 C   0  0  0  0  0  0  0  0  0  0  0  0
   -2.4480    2.0620    2.3260 C   0  0  0  0  0  0  0  0  0  0  0  0
   -3.1600    1.2920    1.2760 C   0  0  0  0  0  0  0  0  0  0  0  0
   -2.7040    0.8930    0.1170 C   0  0  0  0  0  0  0  0  0  0  0  0
   -3.3160    0.1180   -0.9840 C   0  0  0  0  0  0  0  0  0  0  0  0
   -2.1660   -0.8650   -1.1570 C   0  0  2  0  0  0  0  0  0  0  0  0
   -2.1960   -2.0700   -0.3490 C   0  0  0  0  0  0  0  0  0  0  0  0
   -2.1980   -1.9470    1.1350 C   0  0  0  0  0  0  0  0  0  0  0  0
   -2.2060   -3.3900    1.6850 C   0  0  0  0  0  0  0  0  0  0  0  0
   -0.9460   -0.0000   -1.0210 C   0  0  0  0  0  0  0  0  0  0  0  0
    0.4640   -0.3860   -1.2620 C   0  0  0  0  0  0  0  0  0  0  0  0
    1.4400   -0.0890   -0.1770 C   0  0  0  0  0  0  0  0  0  0  0  0
    2.8060   -0.5130   -0.6160 C   0  0  0  0  0  0  0  0  0  0  0  0
    2.9330   -1.0240   -1.7530 O   0  0  0  0  0  0  0  0  0  0  0  0
    3.9200   -0.3690    0.1670 O   0  0  0  0  0  0  0  0  0  0  0  0
    5.2170   -0.7410   -0.1780 C   0  0  0  0  0  0  0  0  0  0  0  0
    5.7620   -0.0630   -1.3920 C   0  0  0  0  0  0  0  0  0  0  0  0
   -1.3310    1.1130   -0.4310 C   0  0  0  0  0  0  0  0  0  0  0  0
  1  2  2  0
  2  3  1  0
  3  4  2  0
  3 22  1  0
  4  5  1  0
  5  6  2  0
  6  7  1  0
  7  8  2  0
  8  9  1  0
  8 22  1  0
  9 10  1  0
 10 11  1  1
 10 14  1  0
 11 12  1  0
 12 13  1  0
 14 15  1  0
 14 22  2  0
 15 16  1  0
 16 17  1  0
 17 18  2  0
 17 19  1  0
 19 20  1  0
 20 21  1  0
M  END
