
     RDKit          3D

 22 22  0  0  0  0  0  0  0  0999 V2000
    3.0040   -1.1650   -1.4310 C   0  0  0  0  0  0  0  0  0  0  0  0
    4.0070   -0.8440   -0.5930 C   0  0  0  0  0  0  0  0  0  0  0  0
    5.3330   -1.3570   -0.9630 C   0  0  0  0  0  0  0  0  0  0  0  0
    3.7000   -0.0410    0.5520 C   0  0  0  0  0  0  0  0  0  0  0  0
    2.3160    0.3550    0.6990 O   0  0  0  0  0  0  0  0  0  0  0  0
    1.6050   -0.5490    1.5440 C   0  0  0  0  0  0  0  0  0  0  0  0
    0.1700   -0.1460    1.6800 C   0  0  0  0  0  0  0  0  0  0  0  0
   -0.4460   -0.1730    0.2910 C   0  0  0  0  0  0  0  0  0  0  0  0
   -1.9030    0.2070    0.3660 C   0  0  2  0  0  0  0  0  0  0  0  0
   -1.9520    1.5010    0.9020 O   0  0  0  0  0  0  0  0  0  0  0  0
   -2.5280   -0.7290    1.3630 C   0  0  0  0  0  0  0  0  0  0  0  0
   -3.9540   -1.0840    1.1370 C   0  0  0  0  0  0  0  0  0  0  0  0
   -4.3440   -1.4040   -0.2640 C   0  0  0  0  0  0  0  0  0  0  0  0
   -3.1850   -1.1450   -1.1790 C   0  0  0  0  0  0  0  0  0  0  0  0
   -2.5930    0.2330   -0.9490 C   0  0  1  0  0  0  0  0  0  0  0  0
   -3.6940    1.2970   -0.9580 C   0  0  0  0  0  0  0  0  0  0  0  0
   -4.4020    1.3350   -2.2830 C   0  0  0  0  0  0  0  0  0  0  0  0
   -1.7270    0.5340   -2.1380 C   0  0  0  0  0  0  0  0  0  0  0  0
   -1.0460    1.8660   -2.0870 C   0  0  0  0  0  0  0  0  0  0  0  0
    4.4620    0.4020    1.5040 C   0  0  0  0  0  0  0  0  0  0  0  0
    5.9020    0.1200    1.5690 C   0  0  0  0  0  0  0  0  0  0  0  0
    3.8780    1.2470    2.5910 C   0  0  0  0  0  0  0  0  0  0  0  0
  1  2  2  0
  2  3  1  0
  2  4  1  0
  4  5  1  0
  4 20  2  3
  5  6  1  0
  6  7  1  0
  7  8  1  0
  8  9  1  0
  9 10  1  1
  9 11  1  0
  9 15  1  0
 11 12  1  0
 12 13  1  0
 13 14  1  0
 14 15  1  0
 15 16  1  1
 15 18  1  0
 16 17  1  0
 18 19  1  0
 20 21  1  0
 20 22  1  0
M  END
