
     RDKit          3D

 22 23  0  0  0  0  0  0  0  0999 V2000
    2.7300    1.9990   -0.1610 C   0  0  0  0  0  0  0  0  0  0  0  0
    3.4870    0.9360   -0.0470 C   0  0  0  0  0  0  0  0  0  0  0  0
    4.8540    1.0990    0.5490 C   0  0  0  0  0  0  0  0  0  0  0  0
    2.9890   -0.3940   -0.4610 C   0  0  0  0  0  0  0  0  0  0  0  0
    1.5090   -0.4860   -0.6970 C   0  0  0  0  0  0  0  0  0  0  0  0
    0.7600   -0.2540    0.5830 C   0  0  2  0  0  0  0  0  0  0  0  0
    1.2710   -1.3960    1.4970 C   0  0  0  0  0  0  0  0  0  0  0  0
    0.1270   -1.8080    2.3520 C   0  0  0  0  0  0  0  0  0  0  0  0
   -0.9280   -0.8510    2.0210 C   0  0  0  0  0  0  0  0  0  0  0  0
   -0.7220   -0.3630    0.5410 C   0  0  1  0  0  0  0  0  0  0  0  0
   -1.4470    0.9480    0.5870 C   0  0  0  0  0  0  0  0  0  0  0  0
   -1.2200    1.9750   -0.4030 C   0  0  0  0  0  0  0  0  0  0  0  0
   -1.4610    1.8530   -1.8490 C   0  0  0  0  0  0  0  0  0  0  0  0
   -0.7790    3.1690   -0.0190 C   0  0  0  0  0  0  0  0  0  0  0  0
   -0.5420    3.3840    1.4190 C   0  0  0  0  0  0  0  0  0  0  0  0
   -0.5300    4.2220   -0.8910 O   0  0  0  0  0  0  0  0  0  0  0  0
   -1.2800   -1.4460   -0.2690 C   0  0  2  0  0  0  0  0  0  0  0  0
   -0.6940   -2.6630    0.1380 O   0  0  0  0  0  0  0  0  0  0  0  0
   -1.3530   -1.4070   -1.7310 C   0  0  0  0  0  0  0  0  0  0  0  0
   -1.8290   -2.8750   -1.9660 C   0  0  0  0  0  0  0  0  0  0  0  0
   -3.0250   -2.8720   -1.0400 C   0  0  0  0  0  0  0  0  0  0  0  0
   -2.7810   -1.7440   -0.0090 C   0  0  0  0  0  0  0  0  0  0  0  0
  1  2  2  0
  2  3  1  0
  2  4  1  0
  4  5  1  0
  6  5  1  6
  6  7  1  0
  6 10  1  0
  7  8  1  0
  8  9  1  0
  9 10  1  0
 10 11  1  1
 10 17  1  0
 11 12  1  0
 12 13  1  0
 12 14  2  3
 14 15  1  0
 14 16  1  0
 17 18  1  6
 17 19  1  0
 17 22  1  0
 19 20  1  0
 20 21  1  0
 21 22  1  0
M  END
