
     RDKit          3D

 22 22  0  0  0  0  0  0  0  0999 V2000
    7.0800    2.4170   -0.6240 C   0  0  0  0  0  0  0  0  0  0  0  0
    6.3730    1.3020    0.0420 C   0  0  0  0  0  0  0  0  0  0  0  0
    5.0630    1.1540   -0.0630 C   0  0  0  0  0  0  0  0  0  0  0  0
    4.3710    0.0720    0.5820 C   0  0  0  0  0  0  0  0  0  0  0  0
    3.0370   -0.0680    0.4680 C   0  0  0  0  0  0  0  0  0  0  0  0
    2.3390   -1.1400    1.1050 C   0  0  0  0  0  0  0  0  0  0  0  0
    1.0880   -1.3990    1.0770 C   0  0  0  0  0  0  0  0  0  0  0  0
   -0.0320   -0.7540    0.4300 C   0  0  0  0  0  0  0  0  0  0  0  0
    0.1110    0.3930   -0.5050 C   0  0  0  0  0  0  0  0  0  0  0  0
   -1.2430   -1.2970    0.6470 C   0  0  0  0  0  0  0  0  0  0  0  0
   -2.4520   -0.7770    0.0890 C   0  0  0  0  0  0  0  0  0  0  0  0
   -2.8180    0.5370    0.2330 C   0  0  0  0  0  0  0  0  0  0  0  0
   -3.9790    1.0200   -0.3210 C   0  0  0  0  0  0  0  0  0  0  0  0
   -4.3000    2.4590   -0.1170 C   0  0  2  0  0  0  0  0  0  0  0  0
   -5.3510    2.6130    0.9600 C   0  0  0  0  0  0  0  0  0  0  0  0
   -4.7320    3.0430   -1.2830 O   0  0  0  0  0  0  0  0  0  0  0  0
   -4.8010    0.1920   -1.0340 C   0  0  0  0  0  0  0  0  0  0  0  0
   -4.4370   -1.1180   -1.1770 C   0  0  0  0  0  0  0  0  0  0  0  0
   -3.2910   -1.6240   -0.6380 C   0  0  0  0  0  0  0  0  0  0  0  0
   -2.8960   -3.0310   -0.7880 C   0  0  0  0  0  0  0  0  0  0  0  0
    3.1620   -2.0230    1.8650 O   0  0  0  0  0  0  0  0  0  0  0  0
    3.5780   -3.1820    1.1670 C   0  0  0  0  0  0  0  0  0  0  0  0
  1  2  1  0
  2  3  2  3
  3  4  1  0
  4  5  2  3
  5  6  1  0
  6  7  2  3
  6 21  1  0
  7  8  1  0
  8  9  1  0
  8 10  2  3
 10 11  1  0
 11 12  2  0
 11 19  1  0
 12 13  1  0
 13 14  1  0
 13 17  2  0
 14 15  1  1
 14 16  1  0
 17 18  1  0
 18 19  2  0
 19 20  1  0
 21 22  1  0
M  END
