
     RDKit          3D

 22 23  0  0  0  0  0  0  0  0999 V2000
   -6.1060    1.5230   -0.6810 N   0  0  0  0  0  0  0  0  0  0  0  0
   -5.0890    1.0360    0.2140 C   0  0  0  0  0  0  0  0  0  0  0  0
   -4.0020    0.3370   -0.5000 C   0  0  0  0  0  0  0  0  0  0  0  0
   -3.8900    0.1310   -1.8200 N   0  0  0  0  0  0  0  0  0  0  0  0
   -2.7740   -0.5340   -2.0500 N   0  0  0  0  0  0  0  0  0  0  0  0
   -2.1730   -0.7540   -0.9010 N   0  0  0  0  0  0  0  0  0  0  0  0
   -2.9070   -0.2280    0.0900 C   0  0  0  0  0  0  0  0  0  0  0  0
   -2.5530   -0.2750    1.5360 C   0  0  0  0  0  0  0  0  0  0  0  0
   -1.3000   -0.9760    1.6900 N   0  0  0  0  0  0  0  0  0  0  0  0
   -0.1280   -0.4350    1.0280 C   0  0  0  0  0  0  0  0  0  0  0  0
   -0.2420    0.6120    0.3520 O   0  0  0  0  0  0  0  0  0  0  0  0
    1.1240   -1.0740    1.1400 N   0  0  0  0  0  0  0  0  0  0  0  0
    2.3430   -0.6520    0.5520 C   0  0  0  0  0  0  0  0  0  0  0  0
    2.5520    0.4950   -0.1590 C   0  0  0  0  0  0  0  0  0  0  0  0
    3.7760    0.8550   -0.7220 C   0  0  0  0  0  0  0  0  0  0  0  0
    4.8550    0.0180   -0.5650 C   0  0  0  0  0  0  0  0  0  0  0  0
    6.3800    0.4850   -1.2780 S   0  0  2  0  0  0  0  0  0  0  0  0
    6.8830    1.7090   -0.5760 O   0  0  0  0  0  0  0  0  0  0  0  0
    6.1150    0.7580   -2.7480 O   0  0  0  0  0  0  0  0  0  0  0  0
    4.6930   -1.1530    0.1450 C   0  0  0  0  0  0  0  0  0  0  0  0
    6.0640   -2.2090    0.3410 Cl  0  0  0  0  0  0  0  0  0  0  0  0
    3.4720   -1.4760    0.6880 C   0  0  0  0  0  0  0  0  0  0  0  0
  1  2  1  0
  2  3  1  0
  3  4  1  0
  3  7  2  0
  4  5  1  0
  5  6  2  0
  6  7  1  0
  7  8  1  0
  8  9  1  0
  9 10  1  0
 10 11  2  0
 10 12  1  0
 12 13  1  0
 13 14  2  0
 13 22  1  0
 14 15  1  0
 15 16  2  0
 17 16  1  1
 16 20  1  0
 17 18  2  0
 17 19  2  0
 20 21  1  0
 20 22  2  0
M  END
