
     RDKit          3D

 22 23  0  0  0  0  0  0  0  0999 V2000
    3.1030    0.0930   -2.0750 C   0  0  0  0  0  0  0  0  0  0  0  0
    3.0330   -1.1670   -1.7820 C   0  0  0  0  0  0  0  0  0  0  0  0
    1.8780   -1.9950   -1.5440 C   0  0  0  0  0  0  0  0  0  0  0  0
    2.1730   -3.3060   -1.2930 C   0  0  0  0  0  0  0  0  0  0  0  0
    3.5440   -3.8370   -1.2670 C   0  0  0  0  0  0  0  0  0  0  0  0
    0.4750   -1.6960   -1.6230 C   0  0  0  0  0  0  0  0  0  0  0  0
   -0.2910   -0.9070   -0.6510 C   0  0  0  0  0  0  0  0  0  0  0  0
   -0.0770    0.4600   -0.2380 C   0  0  2  0  0  0  0  0  0  0  0  0
   -0.1140    1.2110   -1.4640 O   0  0  0  0  0  0  0  0  0  0  0  0
    1.0800    0.9150    0.5250 C   0  0  0  0  0  0  0  0  0  0  0  0
    1.8970    0.0290    1.3680 C   0  0  0  0  0  0  0  0  0  0  0  0
    1.2660   -0.6390    2.5450 C   0  0  0  0  0  0  0  0  0  0  0  0
    0.3160    0.1880    3.3300 C   0  0  0  0  0  0  0  0  0  0  0  0
   -1.0710   -0.0060    2.6910 C   0  0  0  0  0  0  0  0  0  0  0  0
   -1.4260    1.1460    1.8440 C   0  0  0  0  0  0  0  0  0  0  0  0
   -1.3890    1.0890    0.3870 C   0  0  2  0  0  0  0  0  0  0  0  0
   -2.6160    0.4320   -0.1750 C   0  0  0  0  0  0  0  0  0  0  0  0
   -3.8710    1.2660   -0.0340 C   0  0  0  0  0  0  0  0  0  0  0  0
   -3.8100    2.3620   -1.0580 C   0  0  0  0  0  0  0  0  0  0  0  0
   -2.3850    2.8090   -1.1240 C   0  0  0  0  0  0  0  0  0  0  0  0
   -2.0540    3.3880   -2.1450 O   0  0  0  0  0  0  0  0  0  0  0  0
   -1.4120    2.5850   -0.0510 C   0  0  0  0  0  0  0  0  0  0  0  0
  1  2  2  0
  2  3  1  0
  3  4  2  3
  3  6  1  0
  4  5  1  0
  6  7  1  0
  7  8  1  0
  8  9  1  6
  8 10  1  0
  8 16  1  0
 10 11  1  0
 11 12  1  0
 12 13  1  0
 13 14  1  0
 14 15  1  0
 16 15  1  1
 16 17  1  0
 16 22  1  0
 17 18  1  0
 18 19  1  0
 19 20  1  0
 20 21  2  0
 20 22  1  0
M  END
