
     RDKit          3D

 22 23  0  0  0  0  0  0  0  0999 V2000
   -4.6010    1.7680    1.0590 C   0  0  0  0  0  0  0  0  0  0  0  0
   -4.4990    0.3620    1.1250 O   0  0  0  0  0  0  0  0  0  0  0  0
   -3.3170   -0.0260    1.7150 C   0  0  0  0  0  0  0  0  0  0  0  0
   -2.0750    0.2310    0.9280 C   0  0  1  0  0  0  0  0  0  0  0  0
   -0.8950   -0.1970    1.8130 C   0  0  0  0  0  0  0  0  0  0  0  0
    0.4210    0.1880    1.2000 C   0  0  0  0  0  0  0  0  0  0  0  0
    0.6060   -0.5370   -0.1490 C   0  0  2  0  0  0  0  0  0  0  0  0
    0.9270   -1.9420    0.2560 C   0  0  0  0  0  0  0  0  0  0  0  0
    1.7620    0.1100   -0.8830 C   0  0  0  0  0  0  0  0  0  0  0  0
    3.0650    0.0500   -0.2230 C   0  0  0  0  0  0  0  0  0  0  0  0
    3.6260    1.1320    0.2670 C   0  0  0  0  0  0  0  0  0  0  0  0
    2.9870    2.4660    0.1820 C   0  0  0  0  0  0  0  0  0  0  0  0
    4.9450    1.1140    0.9660 C   0  0  0  0  0  0  0  0  0  0  0  0
    5.6060   -0.0970    0.9280 O   0  0  0  0  0  0  0  0  0  0  0  0
    5.0500   -1.2300    0.4280 C   0  0  0  0  0  0  0  0  0  0  0  0
    3.8540   -1.1940   -0.1220 C   0  0  0  0  0  0  0  0  0  0  0  0
   -0.6280   -0.3650   -0.9810 C   0  0  1  0  0  0  0  0  0  0  0  0
   -0.6550    1.0890   -1.4470 C   0  0  0  0  0  0  0  0  0  0  0  0
   -0.4560   -1.1720   -2.2550 C   0  0  0  0  0  0  0  0  0  0  0  0
   -1.9410   -0.6220   -0.3180 C   0  0  2  0  0  0  0  0  0  0  0  0
   -3.0100   -0.2190   -1.3060 C   0  0  0  0  0  0  0  0  0  0  0  0
   -2.2030   -2.0880   -0.0150 C   0  0  0  0  0  0  0  0  0  0  0  0
  1  2  1  0
  2  3  1  0
  4  3  1  1
  4  5  1  0
  4 20  1  0
  5  6  1  0
  6  7  1  0
  7  8  1  1
  7  9  1  0
  7 17  1  0
  9 10  1  0
 10 11  2  0
 10 16  1  0
 11 12  1  0
 11 13  1  0
 13 14  1  0
 14 15  1  0
 15 16  2  0
 17 18  1  6
 17 19  1  0
 17 20  1  0
 20 21  1  6
 20 22  1  0
M  END
