
     RDKit          3D

 18 20  0  0  0  0  0  0  0  0999 V2000
   -1.9820    1.0830    2.2510 O   0  0  0  0  0  0  0  0  0  0  0  0
   -1.8700    0.3340    1.2170 C   0  0  0  0  0  0  0  0  0  0  0  0
   -3.0790   -0.2180    0.6780 C   0  0  0  0  0  0  0  0  0  0  0  0
   -4.3060    0.0110    1.2180 C   0  0  0  0  0  0  0  0  0  0  0  0
   -5.3140   -0.6900    0.4370 C   0  0  0  0  0  0  0  0  0  0  0  0
   -4.5880   -1.3650   -0.6330 C   0  0  0  0  0  0  0  0  0  0  0  0
   -3.2860   -1.0710   -0.4660 C   0  0  0  0  0  0  0  0  0  0  0  0
   -0.5670    0.1530    0.7450 N   0  0  0  0  0  0  0  0  0  0  0  0
   -0.2610   -0.6680   -0.3810 C   0  0  0  0  0  0  0  0  0  0  0  0
    1.1900   -0.7560   -0.6260 C   0  0  0  0  0  0  0  0  0  0  0  0
    1.9900    0.2330   -0.3330 C   0  0  0  0  0  0  0  0  0  0  0  0
    3.4350    0.1640   -0.5720 C   0  0  0  0  0  0  0  0  0  0  0  0
    4.3350    1.1610   -0.2920 C   0  0  0  0  0  0  0  0  0  0  0  0
    5.5680    0.6780   -0.6720 C   0  0  0  0  0  0  0  0  0  0  0  0
    5.3750   -0.6030   -1.1730 C   0  0  0  0  0  0  0  0  0  0  0  0
    4.0890   -0.8430   -1.0840 O   0  0  0  0  0  0  0  0  0  0  0  0
    1.3810    1.4590    0.2980 C   0  0  0  0  0  0  0  0  0  0  0  0
    0.5470    0.8610    1.4500 C   0  0  0  0  0  0  0  0  0  0  0  0
  1  2  2  0
  2  3  1  0
  2  8  1  0
  3  4  2  0
  3  7  1  0
  4  5  1  0
  5  6  1  0
  6  7  2  0
  8  9  1  0
  8 18  1  0
  9 10  1  0
 10 11  2  0
 11 12  1  0
 11 17  1  0
 12 13  2  0
 12 16  1  0
 13 14  1  0
 14 15  2  0
 15 16  1  0
 17 18  1  0
M  END
