
     RDKit          3D

 20 22  0  0  0  0  0  0  0  0999 V2000
   -3.9740    2.5890   -0.4780 O   0  0  0  0  0  0  0  0  0  0  0  0
   -3.9750    1.5900    0.2740 C   0  0  0  0  0  0  0  0  0  0  0  0
   -4.3480    1.6190    1.5640 N   0  0  0  0  0  0  0  0  0  0  0  0
   -4.2270    0.3940    2.0550 N   0  0  0  0  0  0  0  0  0  0  0  0
   -3.7780   -0.3850    1.0590 C   0  0  0  0  0  0  0  0  0  0  0  0
   -3.6070    0.3230   -0.0710 N   0  0  0  0  0  0  0  0  0  0  0  0
   -3.1530   -0.0810   -1.3840 C   0  0  0  0  0  0  0  0  0  0  0  0
   -1.6530    0.0650   -1.4980 C   0  0  0  0  0  0  0  0  0  0  0  0
   -1.0270   -0.8040   -0.4650 C   0  0  0  0  0  0  0  0  0  0  0  0
    0.4450   -0.7340   -0.5000 N   0  0  2  0  0  0  0  0  0  0  0  0
    0.9290   -2.0270   -0.1260 C   0  0  0  0  0  0  0  0  0  0  0  0
    2.2710   -2.3500   -0.7670 C   0  0  0  0  0  0  0  0  0  0  0  0
    3.2890   -1.6370   -0.0180 N   0  0  0  0  0  0  0  0  0  0  0  0
    3.3030   -0.2470    0.3090 C   0  0  0  0  0  0  0  0  0  0  0  0
    4.4900    0.4740    0.4960 C   0  0  0  0  0  0  0  0  0  0  0  0
    4.1150    1.7270    0.7850 N   0  0  0  0  0  0  0  0  0  0  0  0
    2.7700    1.8300    0.7880 C   0  0  0  0  0  0  0  0  0  0  0  0
    1.9860    2.9500    1.0390 O   0  0  0  0  0  0  0  0  0  0  0  0
    2.2320    0.5980    0.4910 C   0  0  0  0  0  0  0  0  0  0  0  0
    0.8110    0.3130    0.4020 C   0  0  0  0  0  0  0  0  0  0  0  0
  1  2  2  0
  2  3  1  0
  2  6  1  0
  3  4  1  0
  4  5  2  0
  5  6  1  0
  6  7  1  0
  7  8  1  0
  8  9  1  0
 10  9  1  1
 10 11  1  0
 10 20  1  0
 11 12  1  0
 12 13  1  0
 13 14  1  0
 14 15  2  0
 14 19  1  0
 15 16  1  0
 16 17  1  0
 17 18  1  0
 17 19  2  0
 19 20  1  0
M  CHG  1  10   1
M  END
