
     RDKit          3D

 21 22  0  0  0  0  0  0  0  0999 V2000
   -0.6890   -2.6240    1.6640 C   0  0  0  0  0  0  0  0  0  0  0  0
   -0.1380   -1.3270    0.9930 C   0  0  1  0  0  0  0  0  0  0  0  0
    1.1120   -1.5300    0.4930 N   0  0  0  0  0  0  0  0  0  0  0  0
    2.1140   -1.1050   -0.0930 C   0  0  0  0  0  0  0  0  0  0  0  0
    3.2230   -1.9700   -0.3220 O   0  0  0  0  0  0  0  0  0  0  0  0
    4.3570   -1.6490   -0.9380 N   0  0  0  0  0  0  0  0  0  0  0  0
    4.5200   -0.4600   -1.3880 C   0  0  0  0  0  0  0  0  0  0  0  0
    3.4570    0.5400   -1.2220 C   0  0  0  0  0  0  0  0  0  0  0  0
    2.3040    0.2350   -0.6010 C   0  0  0  0  0  0  0  0  0  0  0  0
    1.3310    1.3500   -0.4900 C   0  0  0  0  0  0  0  0  0  0  0  0
    0.7300    1.5890    0.5190 N   0  0  0  0  0  0  0  0  0  0  0  0
   -0.0750    2.1280    1.4120 N   0  0  0  0  0  0  0  0  0  0  0  0
   -0.9690    3.2300    1.1780 C   0  0  0  0  0  0  0  0  0  0  0  0
   -0.8680    4.1610    2.0780 O   0  0  0  0  0  0  0  0  0  0  0  0
   -1.8790    3.3440    0.1050 N   0  0  0  0  0  0  0  0  0  0  0  0
   -2.6660    2.3340   -0.4890 C   0  0  0  0  0  0  0  0  0  0  0  0
   -3.8610    2.6500   -0.8570 O   0  0  0  0  0  0  0  0  0  0  0  0
   -2.2760    0.9480   -0.7390 C   0  0  0  0  0  0  0  0  0  0  0  0
   -2.0700    0.1260    0.4330 N   0  0  0  0  0  0  0  0  0  0  0  0
   -1.2190   -0.9720   -0.0130 C   0  0  2  0  0  0  0  0  0  0  0  0
   -2.1190   -2.1230   -0.3570 C   0  0  0  0  0  0  0  0  0  0  0  0
  2  1  1  6
  2  3  1  0
  2 20  1  0
  3  4  2  0
  4  5  1  0
  4  9  1  0
  5  6  1  0
  6  7  2  0
  7  8  1  0
  8  9  2  0
  9 10  1  0
 10 11  2  0
 11 12  1  0
 12 13  1  0
 13 14  2  0
 13 15  1  0
 15 16  1  0
 16 17  2  0
 16 18  1  0
 18 19  1  0
 19 20  1  0
 20 21  1  1
M  CHG  1   6   1
M  END
