
     RDKit          3D

 24 24  0  0  0  0  0  0  0  0999 V2000
    3.2150   -0.3560   -1.8190 C   0  0  0  0  0  0  0  0  0  0  0  0
    4.1050   -0.7080   -0.6520 C   0  0  0  0  0  0  0  0  0  0  0  0
    3.8460    0.1020    0.5760 C   0  0  0  0  0  0  0  0  0  0  0  0
    2.4990   -0.0250    1.0960 N   0  0  0  0  0  0  0  0  0  0  0  0
    2.2680   -1.0870    2.0470 C   0  0  0  0  0  0  0  0  0  0  0  0
    1.4770    0.8600    0.6810 C   0  0  0  0  0  0  0  0  0  0  0  0
    1.8040    1.7680   -0.1490 O   0  0  0  0  0  0  0  0  0  0  0  0
    0.0680    0.8280    1.1220 C   0  0  2  0  0  0  0  0  0  0  0  0
   -0.1330   -0.2170    2.0060 O   0  0  0  0  0  0  0  0  0  0  0  0
   -1.2350   -1.0530    2.0710 C   0  0  0  0  0  0  0  0  0  0  0  0
   -1.2220   -2.1540    3.0220 C   0  0  0  0  0  0  0  0  0  0  0  0
   -2.1960   -2.9260    3.1060 O   0  0  0  0  0  0  0  0  0  0  0  0
   -0.1330   -2.3490    3.8350 O   0  0  0  0  0  0  0  0  0  0  0  0
   -2.2430   -0.8150    1.2700 C   0  0  0  0  0  0  0  0  0  0  0  0
   -2.2400    0.2920    0.3240 C   0  0  2  0  0  0  0  0  0  0  0  0
   -2.9940   -0.0460   -0.8680 N   0  0  0  0  0  0  0  0  0  0  0  0
   -3.0500   -1.2130   -1.3690 C   0  0  0  0  0  0  0  0  0  0  0  0
   -2.3570   -2.2850   -0.7720 N   0  0  0  0  0  0  0  0  0  0  0  0
   -3.8080   -1.4500   -2.5290 N   0  0  0  0  0  0  0  0  0  0  0  0
   -0.9000    0.8410   -0.0350 C   0  0  1  0  0  0  0  0  0  0  0  0
   -1.0830    2.2180   -0.4580 N   0  0  0  0  0  0  0  0  0  0  0  0
   -0.7650    2.6810   -1.7600 C   0  0  0  0  0  0  0  0  0  0  0  0
   -0.9850    4.1010   -2.1010 C   0  0  0  0  0  0  0  0  0  0  0  0
   -0.3050    1.8480   -2.5760 O   0  0  0  0  0  0  0  0  0  0  0  0
  1  2  1  0
  2  3  1  0
  3  4  1  0
  4  5  1  0
  4  6  1  0
  6  7  2  0
  8  6  1  6
  8  9  1  0
  8 20  1  0
  9 10  1  0
 10 11  1  0
 10 14  2  0
 11 12  2  0
 11 13  1  0
 14 15  1  0
 15 16  1  6
 15 20  1  0
 16 17  2  3
 17 18  1  0
 17 19  1  0
 20 21  1  1
 21 22  1  0
 22 23  1  0
 22 24  2  0
M  CHG  1  16   1
M  END
