
     RDKit          3D

 21 22  0  0  0  0  0  0  0  0999 V2000
   -0.1780   -1.1190   -0.7330 C   0  0  0  0  0  0  0  0  0  0  0  0
   -0.3160   -0.6060    0.6610 C   0  0  2  0  0  0  0  0  0  0  0  0
   -1.6380   -0.8360    1.2700 C   0  0  0  0  0  0  0  0  0  0  0  0
   -2.8370   -0.2450    0.6470 C   0  0  1  0  0  0  0  0  0  0  0  0
   -3.1440   -0.6850   -0.7380 C   0  0  0  0  0  0  0  0  0  0  0  0
   -4.5820   -0.9150   -0.7270 N   0  0  0  0  0  0  0  0  0  0  0  0
   -5.0300   -0.2790    0.4820 C   0  0  0  0  0  0  0  0  0  0  0  0
   -4.0030   -0.5230    1.4030 O   0  0  0  0  0  0  0  0  0  0  0  0
   -0.0280    0.8210    0.7470 N   0  0  0  0  0  0  0  0  0  0  0  0
    1.2680    1.3150    0.3610 C   0  0  0  0  0  0  0  0  0  0  0  0
    2.2110    0.4530    0.1780 N   0  0  0  0  0  0  0  0  0  0  0  0
    3.4990    0.9120   -0.2030 C   0  0  0  0  0  0  0  0  0  0  0  0
    4.5160    0.0780   -0.4070 C   0  0  0  0  0  0  0  0  0  0  0  0
    4.3280   -1.3140   -0.2450 N   0  0  0  0  0  0  0  0  0  0  0  0
    5.3380   -2.1060   -0.1100 C   0  0  0  0  0  0  0  0  0  0  0  0
    5.1050   -3.4650    0.0470 O   0  0  0  0  0  0  0  0  0  0  0  0
    3.6700    2.3440   -0.3640 C   0  0  0  0  0  0  0  0  0  0  0  0
    4.8200    2.7710   -0.7060 O   0  0  0  0  0  0  0  0  0  0  0  0
    2.6010    3.2570   -0.1520 N   0  0  0  0  0  0  0  0  0  0  0  0
    1.4490    2.7630    0.1950 C   0  0  0  0  0  0  0  0  0  0  0  0
    0.3320    3.6030    0.4260 N   0  0  0  0  0  0  0  0  0  0  0  0
  2  1  1  6
  2  3  1  0
  2  9  1  0
  4  3  1  1
  4  5  1  0
  4  8  1  0
  5  6  1  0
  6  7  1  0
  7  8  1  0
  9 10  1  0
 10 11  2  0
 10 20  1  0
 11 12  1  0
 12 13  2  3
 12 17  1  0
 13 14  1  0
 14 15  2  3
 15 16  1  0
 17 18  2  0
 17 19  1  0
 19 20  2  0
 20 21  1  0
M  CHG  1   6   1
M  END
