
     RDKit          3D

 18 20  0  0  0  0  0  0  0  0999 V2000
    4.7000    0.2850    1.4080 C   0  0  0  0  0  0  0  0  0  0  0  0
    3.8380    0.1130    0.3250 O   0  0  0  0  0  0  0  0  0  0  0  0
    3.4610   -1.2040    0.2900 C   0  0  0  0  0  0  0  0  0  0  0  0
    2.5230   -1.5430   -0.8350 C   0  0  0  0  0  0  0  0  0  0  0  0
    1.2650   -0.8020   -0.8020 C   0  0  0  0  0  0  0  0  0  0  0  0
    1.0670    0.4080   -1.4210 C   0  0  0  0  0  0  0  0  0  0  0  0
   -0.1480    1.0960   -1.3720 C   0  0  0  0  0  0  0  0  0  0  0  0
   -1.1480    0.5030   -0.6710 C   0  0  0  0  0  0  0  0  0  0  0  0
   -1.0220   -0.6970   -0.0320 C   0  0  0  0  0  0  0  0  0  0  0  0
    0.2060   -1.3450   -0.1070 C   0  0  0  0  0  0  0  0  0  0  0  0
   -2.0890   -1.2180    0.6520 C   0  0  0  0  0  0  0  0  0  0  0  0
   -1.9730   -2.3350    1.2480 O   0  0  0  0  0  0  0  0  0  0  0  0
   -3.2660   -0.4980    0.6680 C   0  0  0  0  0  0  0  0  0  0  0  0
   -4.4600   -1.0310    1.4060 C   0  0  0  0  0  0  0  0  0  0  0  0
   -3.3260    0.7060    0.0030 C   0  0  0  0  0  0  0  0  0  0  0  0
   -2.2670    1.2320   -0.6810 N   0  0  0  0  0  0  0  0  0  0  0  0
   -2.0680    2.4340   -1.4400 C   0  0  0  0  0  0  0  0  0  0  0  0
   -0.6460    2.3600   -1.9130 C   0  0  0  0  0  0  0  0  0  0  0  0
  1  2  1  0
  2  3  1  0
  3  4  1  0
  4  5  1  0
  5  6  2  0
  5 10  1  0
  6  7  1  0
  7  8  2  0
  7 18  1  0
  8  9  1  0
  8 16  1  0
  9 10  2  0
  9 11  1  0
 11 12  2  0
 11 13  1  0
 13 14  1  0
 13 15  2  0
 15 16  1  0
 16 17  1  0
 17 18  1  0
M  END
