
     RDKit          3D

 18 20  0  0  0  0  0  0  0  0999 V2000
   -4.8680   -0.9610   -0.5660 C   0  0  0  0  0  0  0  0  0  0  0  0
   -4.3730    0.1930    0.2780 C   0  0  2  0  0  0  0  0  0  0  0  0
   -5.5360    0.9320    0.9010 C   0  0  0  0  0  0  0  0  0  0  0  0
   -3.5630    1.1830   -0.5580 C   0  0  0  0  0  0  0  0  0  0  0  0
   -2.1880    0.6420   -0.4460 C   0  0  0  0  0  0  0  0  0  0  0  0
   -1.1470    1.0350   -1.1740 C   0  0  0  0  0  0  0  0  0  0  0  0
    0.1950    0.5070   -1.0670 C   0  0  0  0  0  0  0  0  0  0  0  0
    0.9840    0.3110   -2.2110 C   0  0  0  0  0  0  0  0  0  0  0  0
    2.1690   -0.1930   -1.7140 C   0  0  0  0  0  0  0  0  0  0  0  0
    2.0670   -0.2830   -0.3340 C   0  0  0  0  0  0  0  0  0  0  0  0
    3.1060   -0.7700    0.5930 C   0  0  0  0  0  0  0  0  0  0  0  0
    3.9690    0.2760    1.0680 N   0  0  0  0  0  0  0  0  0  0  0  0
    4.9770   -0.2740    1.9580 C   0  0  0  0  0  0  0  0  0  0  0  0
    5.8630   -0.4260    0.7140 C   0  0  0  0  0  0  0  0  0  0  0  0
    5.0180    0.7240    0.2120 C   0  0  0  0  0  0  0  0  0  0  0  0
    0.8780    0.1440   -0.0100 O   0  0  0  0  0  0  0  0  0  0  0  0
   -2.2260   -0.3890    0.6100 C   0  0  0  0  0  0  0  0  0  0  0  0
   -3.4650   -0.2930    1.2070 O   0  0  0  0  0  0  0  0  0  0  0  0
  2  1  1  6
  2  3  1  0
  2  4  1  0
  2 18  1  0
  4  5  1  0
  5  6  2  3
  5 17  1  0
  6  7  1  0
  7  8  2  0
  7 16  1  0
  8  9  1  0
  9 10  2  0
 10 11  1  0
 10 16  1  0
 11 12  1  0
 12 13  1  0
 12 15  1  0
 13 14  1  0
 14 15  1  0
 17 18  1  0
M  END
