
     RDKit          3D

 10  9  0  0  0  0  0  0  0  0999 V2000
    0.5990    1.2680    1.5840 C   0  0  0  0  0  0  0  0  0  0  0  0
    0.2970    0.4430    0.5620 C   0  0  0  0  0  0  0  0  0  0  0  0
    1.3950   -0.0300   -0.2580 C   0  0  0  0  0  0  0  0  0  0  0  0
    1.1790   -0.7950   -1.2170 O   0  0  0  0  0  0  0  0  0  0  0  0
    2.7270    0.3800    0.0340 O   0  0  0  0  0  0  0  0  0  0  0  0
    3.7280   -0.1360   -0.8240 C   0  0  0  0  0  0  0  0  0  0  0  0
   -1.0700    0.0980    0.3610 C   0  0  0  0  0  0  0  0  0  0  0  0
   -2.0500    0.6600    1.2760 N   0  0  0  0  0  0  0  0  0  0  0  0
   -1.5400   -0.6710   -0.5570 C   0  0  0  0  0  0  0  0  0  0  0  0
   -3.0180   -0.9650   -0.6700 C   0  0  0  0  0  0  0  0  0  0  0  0
  1  2  2  0
  2  3  1  0
  2  7  1  0
  3  4  2  0
  3  5  1  0
  5  6  1  0
  7  8  1  0
  7  9  2  3
  9 10  1  0
M  END
