
     RDKit          3D

 25 28  0  0  0  0  0  0  0  0999 V2000
    8.0140   -0.7450    1.6970 O   0  0  0  0  0  0  0  0  0  0  0  0
    7.3240    0.1560    2.2640 C   0  0  0  0  0  0  0  0  0  0  0  0
    6.0320    0.5060    1.8050 N   0  0  0  0  0  0  0  0  0  0  0  0
    5.4460   -0.1360    0.6830 C   0  0  0  0  0  0  0  0  0  0  0  0
    4.1850    0.1900    0.2180 C   0  0  0  0  0  0  0  0  0  0  0  0
    3.6060   -0.4240   -0.8680 C   0  0  0  0  0  0  0  0  0  0  0  0
    2.2560   -0.0460   -1.3320 C   0  0  0  0  0  0  0  0  0  0  0  0
    1.5580   -0.5690   -2.3910 C   0  0  0  0  0  0  0  0  0  0  0  0
    0.3510    0.1000   -2.4300 C   0  0  0  0  0  0  0  0  0  0  0  0
    0.3600    1.0090   -1.3890 C   0  0  0  0  0  0  0  0  0  0  0  0
   -0.7880    1.9200   -1.1120 C   0  0  0  0  0  0  0  0  0  0  0  0
   -1.7510    1.3650   -0.2170 N   0  0  1  0  0  0  0  0  0  0  0  0
   -2.9130    2.2470   -0.2430 C   0  0  0  0  0  0  0  0  0  0  0  0
   -3.8610    1.7500    0.8260 C   0  0  0  0  0  0  0  0  0  0  0  0
   -4.3880    0.4130    0.3460 C   0  0  0  0  0  0  0  0  0  0  0  0
   -3.2130   -0.5350    0.2770 C   0  0  1  0  0  0  0  0  0  0  0  0
   -2.6500   -0.8310    1.6460 C   0  0  0  0  0  0  0  0  0  0  0  0
   -2.8170   -2.3180    1.8630 C   0  0  0  0  0  0  0  0  0  0  0  0
   -2.8630   -2.9310    0.4700 C   0  0  0  0  0  0  0  0  0  0  0  0
   -3.6360   -1.8720   -0.2890 C   0  0  0  0  0  0  0  0  0  0  0  0
   -2.1020    0.0110   -0.5860 C   0  0  0  0  0  0  0  0  0  0  0  0
    1.4920    0.8720   -0.7930 O   0  0  0  0  0  0  0  0  0  0  0  0
    4.3340   -1.4040   -1.5030 C   0  0  0  0  0  0  0  0  0  0  0  0
    5.6010   -1.7370   -1.0430 C   0  0  0  0  0  0  0  0  0  0  0  0
    6.1310   -1.1120    0.0220 N   0  0  0  0  0  0  0  0  0  0  0  0
  1  2  2  0
  2  3  1  0
  3  4  1  0
  4  5  2  0
  4 25  1  0
  5  6  1  0
  6  7  1  0
  6 23  2  0
  7  8  2  0
  7 22  1  0
  8  9  1  0
  9 10  2  0
 10 11  1  0
 10 22  1  0
 12 11  1  6
 12 13  1  0
 12 21  1  0
 13 14  1  0
 14 15  1  0
 16 15  1  1
 16 17  1  0
 16 20  1  0
 16 21  1  0
 17 18  1  0
 18 19  1  0
 19 20  1  0
 23 24  1  0
 24 25  2  0
M  CHG  1  12   1
M  END
