
     RDKit          3D

 26 28  0  0  0  0  0  0  0  0999 V2000
   -5.2490    2.6390    1.7610 C   0  0  0  0  0  0  0  0  0  0  0  0
   -4.6760    1.8070    0.6700 C   0  0  0  0  0  0  0  0  0  0  0  0
   -3.3170    1.6080    0.6750 C   0  0  0  0  0  0  0  0  0  0  0  0
   -2.6900    0.8410   -0.3100 C   0  0  0  0  0  0  0  0  0  0  0  0
   -1.2410    0.7560   -0.2290 C   0  0  0  0  0  0  0  0  0  0  0  0
   -0.5090   -0.2980   -0.0910 C   0  0  0  0  0  0  0  0  0  0  0  0
   -1.1540   -1.6200    0.0120 C   0  0  0  0  0  0  0  0  0  0  0  0
   -2.3860   -1.7580    0.0170 O   0  0  0  0  0  0  0  0  0  0  0  0
   -0.3570   -2.8130    0.1160 N   0  0  0  0  0  0  0  0  0  0  0  0
   -0.8790   -4.0550   -0.3780 C   0  0  0  0  0  0  0  0  0  0  0  0
    0.9250   -2.6350    0.7260 C   0  0  1  0  0  0  0  0  0  0  0  0
    1.7390   -3.9060    0.7600 C   0  0  0  0  0  0  0  0  0  0  0  0
    1.5800   -1.6090    0.0300 O   0  0  0  0  0  0  0  0  0  0  0  0
    0.9340   -0.3130   -0.0780 C   0  0  0  0  0  0  0  0  0  0  0  0
    1.7060    0.7280   -0.1520 C   0  0  0  0  0  0  0  0  0  0  0  0
    1.7270    2.1220   -0.2570 C   0  0  0  0  0  0  0  0  0  0  0  0
    0.7400    3.0460   -0.3000 F   0  0  0  0  0  0  0  0  0  0  0  0
    2.9580    2.7360   -0.3230 C   0  0  0  0  0  0  0  0  0  0  0  0
    4.1730    1.9700   -0.2940 C   0  0  0  0  0  0  0  0  0  0  0  0
    5.2360    2.0650    0.5950 C   0  0  0  0  0  0  0  0  0  0  0  0
    6.2040    1.1970    0.1930 C   0  0  0  0  0  0  0  0  0  0  0  0
    5.7640    0.5580   -0.9370 C   0  0  0  0  0  0  0  0  0  0  0  0
    4.5420    1.0380   -1.2120 N   0  0  0  0  0  0  0  0  0  0  0  0
   -3.4530    0.2930   -1.2800 C   0  0  0  0  0  0  0  0  0  0  0  0
   -4.8140    0.5230   -1.2410 C   0  0  0  0  0  0  0  0  0  0  0  0
   -5.4040    1.2560   -0.2950 N   0  0  0  0  0  0  0  0  0  0  0  0
  1  2  1  0
  2  3  2  0
  2 26  1  0
  3  4  1  0
  4  5  1  0
  4 24  2  0
  5  6  2  3
  6  7  1  0
  6 14  1  0
  7  8  2  0
  7  9  1  0
  9 10  1  0
  9 11  1  0
 11 12  1  6
 11 13  1  0
 13 14  1  0
 14 15  2  3
 15 16  1  0
 16 17  1  0
 16 18  2  3
 18 19  1  0
 19 20  2  0
 19 23  1  0
 20 21  1  0
 21 22  2  0
 22 23  1  0
 24 25  1  0
 25 26  2  0
M  CHG  1  26   1
M  END
