
     RDKit          3D

 26 29  0  0  0  0  0  0  0  0999 V2000
    7.0750    0.7390   -1.3160 C   0  0  0  0  0  0  0  0  0  0  0  0
    5.6950    0.4330   -0.8570 C   0  0  0  0  0  0  0  0  0  0  0  0
    4.7920    1.4170   -0.6680 N   0  0  0  0  0  0  0  0  0  0  0  0
    3.5340    1.1260   -0.2490 C   0  0  0  0  0  0  0  0  0  0  0  0
    2.6340    2.1310   -0.0630 C   0  0  0  0  0  0  0  0  0  0  0  0
    1.3460    1.8540    0.3630 C   0  0  0  0  0  0  0  0  0  0  0  0
    0.9660    0.5650    0.6010 C   0  0  0  0  0  0  0  0  0  0  0  0
   -0.3240    0.2790    1.0430 N   0  0  0  0  0  0  0  0  0  0  0  0
   -0.8950   -1.0320    0.9450 C   0  0  0  0  0  0  0  0  0  0  0  0
   -2.2260   -0.9150    0.1870 C   0  0  0  0  0  0  0  0  0  0  0  0
   -3.0940    0.1840    0.7270 C   0  0  2  0  0  0  0  0  0  0  0  0
   -4.2800    0.3880   -0.0450 N   0  0  0  0  0  0  0  0  0  0  0  0
   -5.1630   -0.7520   -0.0680 C   0  0  1  0  0  0  0  0  0  0  0  0
   -5.7020   -1.1230    1.2700 C   0  0  0  0  0  0  0  0  0  0  0  0
   -6.9330   -0.4020    1.3840 O   0  0  0  0  0  0  0  0  0  0  0  0
   -7.2460    0.2310    0.1900 C   0  0  0  0  0  0  0  0  0  0  0  0
   -8.0350    1.1800   -0.0540 O   0  0  0  0  0  0  0  0  0  0  0  0
   -6.4220   -0.4540   -0.8530 C   0  0  0  0  0  0  0  0  0  0  0  0
   -2.3060    1.5010    0.6450 C   0  0  0  0  0  0  0  0  0  0  0  0
   -1.1530    1.3050    1.6410 C   0  0  0  0  0  0  0  0  0  0  0  0
    1.8850   -0.4460    0.4090 C   0  0  0  0  0  0  0  0  0  0  0  0
    3.1730   -0.1820   -0.0150 C   0  0  0  0  0  0  0  0  0  0  0  0
    4.0960   -1.2150   -0.2070 C   0  0  0  0  0  0  0  0  0  0  0  0
    5.3650   -0.8830   -0.6330 C   0  0  0  0  0  0  0  0  0  0  0  0
    6.3670   -1.9330   -0.8460 C   0  0  0  0  0  0  0  0  0  0  0  0
    5.8220   -3.1800   -0.5650 F   0  0  0  0  0  0  0  0  0  0  0  0
  1  2  1  0
  2  3  2  0
  2 24  1  0
  3  4  1  0
  4  5  2  0
  4 22  1  0
  5  6  1  0
  6  7  2  0
  7  8  1  0
  7 21  1  0
  8  9  1  0
  8 20  1  0
  9 10  1  0
 10 11  1  0
 11 12  1  6
 11 19  1  0
 13 12  1  1
 13 14  1  0
 13 18  1  0
 14 15  1  0
 15 16  1  0
 16 17  2  0
 16 18  1  0
 19 20  1  0
 21 22  2  0
 22 23  1  0
 23 24  2  0
 24 25  1  0
 25 26  1  0
M  CHG  1   3   1
M  END
