
     RDKit          3D

 28 31  0  0  0  0  0  0  0  0999 V2000
    7.0830    1.2180   -0.7430 O   0  0  0  0  0  0  0  0  0  0  0  0
    6.0050    1.7840   -1.0350 C   0  0  0  0  0  0  0  0  0  0  0  0
    6.0500    3.0110   -1.6630 O   0  0  0  0  0  0  0  0  0  0  0  0
    4.7540    1.1210   -0.6990 C   0  0  0  0  0  0  0  0  0  0  0  0
    4.7330   -0.1130   -0.0670 C   0  0  0  0  0  0  0  0  0  0  0  0
    3.4880   -0.6760    0.2180 C   0  0  0  0  0  0  0  0  0  0  0  0
    2.3070   -0.0740   -0.0920 C   0  0  0  0  0  0  0  0  0  0  0  0
    1.0100   -0.6630    0.2060 C   0  0  0  0  0  0  0  0  0  0  0  0
    0.8920   -1.8810    0.8280 C   0  0  0  0  0  0  0  0  0  0  0  0
   -0.3570   -2.4380    1.1100 C   0  0  0  0  0  0  0  0  0  0  0  0
   -0.4800   -3.6610    1.7360 C   0  0  0  0  0  0  0  0  0  0  0  0
   -1.7460   -4.1680    1.9920 C   0  0  0  0  0  0  0  0  0  0  0  0
   -2.8650   -3.4570    1.6260 C   0  0  0  0  0  0  0  0  0  0  0  0
   -2.7300   -2.2570    1.0130 N   0  0  0  0  0  0  0  0  0  0  0  0
   -1.5040   -1.7590    0.7610 C   0  0  0  0  0  0  0  0  0  0  0  0
   -1.3560   -0.5460    0.1410 C   0  0  0  0  0  0  0  0  0  0  0  0
   -2.5010    0.2470   -0.2670 C   0  0  0  0  0  0  0  0  0  0  0  0
   -3.5540   -0.3580   -0.9070 C   0  0  0  0  0  0  0  0  0  0  0  0
   -4.6370    0.4180   -1.2880 C   0  0  0  0  0  0  0  0  0  0  0  0
   -4.6880    1.7740   -1.0440 C   0  0  0  0  0  0  0  0  0  0  0  0
   -3.6020    2.3480   -0.3940 C   0  0  0  0  0  0  0  0  0  0  0  0
   -3.6270    3.7400   -0.1300 N   0  0  0  0  0  0  0  0  0  0  0  0
   -2.6660    4.2780    0.4510 O   0  0  0  0  0  0  0  0  0  0  0  0
   -4.6960    4.5170   -0.5030 O   0  0  0  0  0  0  0  0  0  0  0  0
   -2.5090    1.5950   -0.0040 C   0  0  0  0  0  0  0  0  0  0  0  0
   -0.1270   -0.0290   -0.1210 N   0  0  0  0  0  0  0  0  0  0  0  0
    2.4010    1.1670   -0.7270 C   0  0  0  0  0  0  0  0  0  0  0  0
    3.5810    1.7650   -1.0310 C   0  0  0  0  0  0  0  0  0  0  0  0
  1  2  2  0
  2  3  1  0
  2  4  1  0
  4  5  2  0
  4 28  1  0
  5  6  1  0
  6  7  2  0
  7  8  1  0
  7 27  1  0
  8  9  2  0
  8 26  1  0
  9 10  1  0
 10 11  2  0
 10 15  1  0
 11 12  1  0
 12 13  2  0
 13 14  1  0
 14 15  2  0
 15 16  1  0
 16 17  1  0
 16 26  2  0
 17 18  2  0
 17 25  1  0
 18 19  1  0
 19 20  2  0
 20 21  1  0
 21 22  1  0
 21 25  2  0
 22 23  2  0
 22 24  1  0
 27 28  2  0
M  CHG  2  22   1  24  -1
M  END
