
     RDKit          3D

 26 29  0  0  0  0  0  0  0  0999 V2000
    7.4430    0.0150   -2.0590 C   0  0  0  0  0  0  0  0  0  0  0  0
    7.3610    0.7380   -0.8470 O   0  0  0  0  0  0  0  0  0  0  0  0
    6.2010    0.8270   -0.1160 C   0  0  0  0  0  0  0  0  0  0  0  0
    6.1950    1.5500    1.0570 C   0  0  0  0  0  0  0  0  0  0  0  0
    5.0120    1.6090    1.7520 C   0  0  0  0  0  0  0  0  0  0  0  0
    5.0080    2.3210    2.9050 F   0  0  0  0  0  0  0  0  0  0  0  0
    3.8540    0.9660    1.2960 C   0  0  0  0  0  0  0  0  0  0  0  0
    3.8600    0.2530    0.1400 C   0  0  0  0  0  0  0  0  0  0  0  0
    2.7450   -0.4250   -0.3930 N   0  0  0  0  0  0  0  0  0  0  0  0
    1.4530   -0.4780    0.1700 C   0  0  0  0  0  0  0  0  0  0  0  0
    1.1780    0.0930    1.2260 O   0  0  0  0  0  0  0  0  0  0  0  0
    0.4090   -1.2500   -0.5500 C   0  0  0  0  0  0  0  0  0  0  0  0
   -0.8610   -1.2170    0.1380 N   0  0  2  0  0  0  0  0  0  0  0  0
   -1.5330   -2.4650   -0.1800 C   0  0  0  0  0  0  0  0  0  0  0  0
   -2.8470   -2.6180    0.5290 C   0  0  0  0  0  0  0  0  0  0  0  0
   -3.5970   -1.3990    0.5000 N   0  0  0  0  0  0  0  0  0  0  0  0
   -3.8970   -0.8360    1.7560 C   0  0  0  0  0  0  0  0  0  0  0  0
   -3.9980    0.6430    1.8290 C   0  0  0  0  0  0  0  0  0  0  0  0
   -4.4480    1.2870    0.5700 C   0  0  0  0  0  0  0  0  0  0  0  0
   -5.2080    2.3330    0.2940 C   0  0  0  0  0  0  0  0  0  0  0  0
   -5.2810    2.4680   -1.1720 C   0  0  0  0  0  0  0  0  0  0  0  0
   -4.4560    1.3520   -1.6930 C   0  0  0  0  0  0  0  0  0  0  0  0
   -3.9720    0.6660   -0.6760 C   0  0  0  0  0  0  0  0  0  0  0  0
   -3.0980   -0.5330   -0.5050 C   0  0  1  0  0  0  0  0  0  0  0  0
   -1.6740   -0.0860   -0.3010 C   0  0  0  0  0  0  0  0  0  0  0  0
    5.0600    0.1970   -0.5570 C   0  0  0  0  0  0  0  0  0  0  0  0
  1  2  1  0
  2  3  1  0
  3  4  2  0
  3 26  1  0
  4  5  1  0
  5  6  1  0
  5  7  2  0
  7  8  1  0
  8  9  1  0
  8 26  2  0
  9 10  1  0
 10 11  2  0
 10 12  1  0
 13 12  1  6
 13 14  1  0
 13 25  1  0
 14 15  1  0
 15 16  1  0
 16 17  1  0
 16 24  1  0
 17 18  1  0
 18 19  1  0
 19 20  2  0
 19 23  1  0
 20 21  1  0
 21 22  1  0
 22 23  2  0
 23 24  1  0
 24 25  1  1
M  CHG  1  13   1
M  END
