
     RDKit          3D

 25 28  0  0  0  0  0  0  0  0999 V2000
   -5.1170    4.7620   -0.4980 O   0  0  0  0  0  0  0  0  0  0  0  0
   -4.7130    3.5790   -0.2450 C   0  0  0  0  0  0  0  0  0  0  0  0
   -5.6380    2.5550   -0.1100 C   0  0  0  0  0  0  0  0  0  0  0  0
   -5.1390    1.3040    0.1620 C   0  0  0  0  0  0  0  0  0  0  0  0
   -3.7680    1.0770    0.2950 C   0  0  0  0  0  0  0  0  0  0  0  0
   -3.2650   -0.1590    0.5650 C   0  0  0  0  0  0  0  0  0  0  0  0
   -1.8890   -0.3300    0.6870 C   0  0  0  0  0  0  0  0  0  0  0  0
   -1.0110    0.6750    0.5510 N   0  0  0  0  0  0  0  0  0  0  0  0
    0.4150    0.4990    0.6580 C   0  0  0  0  0  0  0  0  0  0  0  0
    1.1250    0.2290   -0.6190 C   0  0  0  0  0  0  0  0  0  0  0  0
    2.5530    0.0770   -0.3030 N   0  0  2  0  0  0  0  0  0  0  0  0
    3.3320    0.5340   -1.4130 C   0  0  0  0  0  0  0  0  0  0  0  0
    4.5780    1.1920   -0.8940 C   0  0  0  0  0  0  0  0  0  0  0  0
    5.1750    0.2940    0.1900 C   0  0  0  0  0  0  0  0  0  0  0  0
    5.3380   -1.1040   -0.3160 C   0  0  0  0  0  0  0  0  0  0  0  0
    4.0680   -1.8590   -0.4820 C   0  0  0  0  0  0  0  0  0  0  0  0
    2.8740   -1.2310    0.1670 C   0  0  0  0  0  0  0  0  0  0  0  0
   -1.5340    1.9070    0.2810 C   0  0  0  0  0  0  0  0  0  0  0  0
   -0.7680    2.9040    0.1400 O   0  0  0  0  0  0  0  0  0  0  0  0
   -2.8810    2.1430    0.1490 C   0  0  0  0  0  0  0  0  0  0  0  0
   -3.4000    3.3400   -0.1140 N   0  0  0  0  0  0  0  0  0  0  0  0
   -1.3260   -1.6810    1.0020 C   0  0  0  0  0  0  0  0  0  0  0  0
   -2.1450   -2.7980    0.4550 C   0  0  0  0  0  0  0  0  0  0  0  0
   -3.4540   -2.4090   -0.1620 C   0  0  0  0  0  0  0  0  0  0  0  0
   -4.0760   -1.3550    0.7390 C   0  0  0  0  0  0  0  0  0  0  0  0
  1  2  2  0
  2  3  1  0
  2 21  1  0
  3  4  2  0
  4  5  1  0
  5  6  1  0
  5 20  2  0
  6  7  2  0
  6 25  1  0
  7  8  1  0
  7 22  1  0
  8  9  1  0
  8 18  1  0
  9 10  1  0
 11 10  1  6
 11 12  1  0
 11 17  1  0
 12 13  1  0
 13 14  1  0
 14 15  1  0
 15 16  1  0
 16 17  1  0
 18 19  2  0
 18 20  1  0
 20 21  1  0
 22 23  1  0
 23 24  1  0
 24 25  1  0
M  CHG  1  11   1
M  END
