
     RDKit          3D

 26 30  0  0  0  0  0  0  0  0999 V2000
    6.4240    1.8440    1.7540 C   0  0  0  0  0  0  0  0  0  0  0  0
    6.4530    0.8060    0.6760 C   0  0  0  0  0  0  0  0  0  0  0  0
    5.0870    0.6000    0.0770 C   0  0  0  0  0  0  0  0  0  0  0  0
    4.1040   -0.0170    0.1710 N   0  0  0  0  0  0  0  0  0  0  0  0
    3.0020   -0.0010   -0.5150 C   0  0  0  0  0  0  0  0  0  0  0  0
    1.8210   -0.8180   -0.3170 C   0  0  0  0  0  0  0  0  0  0  0  0
    1.7900   -1.7520    0.7080 C   0  0  0  0  0  0  0  0  0  0  0  0
    0.6910   -2.5480    0.9320 C   0  0  0  0  0  0  0  0  0  0  0  0
   -0.4250   -2.4060    0.0960 C   0  0  0  0  0  0  0  0  0  0  0  0
   -0.4220   -1.4880   -0.9290 C   0  0  0  0  0  0  0  0  0  0  0  0
   -1.6200   -1.3700   -1.7870 C   0  0  0  0  0  0  0  0  0  0  0  0
   -2.5740   -0.4220   -1.3110 N   0  0  0  0  0  0  0  0  0  0  0  0
   -2.6150    0.8960   -1.6260 N   0  0  0  0  0  0  0  0  0  0  0  0
   -3.6460    1.4880   -0.9980 C   0  0  0  0  0  0  0  0  0  0  0  0
   -4.2600    2.6980   -0.8490 N   0  0  0  0  0  0  0  0  0  0  0  0
   -5.3680    2.7980   -0.0340 C   0  0  0  0  0  0  0  0  0  0  0  0
   -5.9100    1.7250    0.6590 C   0  0  0  0  0  0  0  0  0  0  0  0
   -5.2940    0.4840    0.5170 C   0  0  0  0  0  0  0  0  0  0  0  0
   -4.2190    0.4810   -0.2980 C   0  0  0  0  0  0  0  0  0  0  0  0
   -3.5960   -0.7110   -0.4600 C   0  0  0  0  0  0  0  0  0  0  0  0
   -4.3630   -1.6500    0.3700 C   0  0  0  0  0  0  0  0  0  0  0  0
   -4.1070   -2.8430    0.4880 O   0  0  0  0  0  0  0  0  0  0  0  0
   -5.4270   -0.8600    0.9700 N   0  0  0  0  0  0  0  0  0  0  0  0
    0.7010   -0.7160   -1.1110 C   0  0  0  0  0  0  0  0  0  0  0  0
    3.0270    0.9690   -1.5850 C   0  0  0  0  0  0  0  0  0  0  0  0
    4.6500    1.6920   -1.4100 S   0  0  0  0  0  0  0  0  0  0  0  0
  1  2  1  0
  2  3  1  0
  3  4  2  0
  3 26  1  0
  4  5  1  0
  5  6  1  0
  5 25  2  0
  6  7  2  0
  6 24  1  0
  7  8  1  0
  8  9  2  0
  9 10  1  0
 10 11  1  0
 10 24  2  0
 11 12  1  0
 12 13  1  0
 12 20  1  0
 13 14  2  0
 14 15  1  0
 14 19  1  0
 15 16  2  0
 16 17  1  0
 17 18  2  0
 18 19  1  0
 18 23  1  0
 19 20  2  0
 20 21  1  0
 21 22  2  0
 21 23  1  0
 25 26  1  0
M  END
