
     RDKit          3D

 25 28  0  0  0  0  0  0  0  0999 V2000
   -4.3320    1.9550    0.9890 C   0  0  0  0  0  0  0  0  0  0  0  0
   -3.5980    0.6990    0.6110 C   0  0  0  0  0  0  0  0  0  0  0  0
   -3.2150    0.5150   -0.7010 C   0  0  0  0  0  0  0  0  0  0  0  0
   -2.5320   -0.6430   -1.0770 C   0  0  0  0  0  0  0  0  0  0  0  0
   -2.1680   -0.9560   -2.3760 N   0  0  0  0  0  0  0  0  0  0  0  0
   -0.9230   -1.0900   -3.0190 C   0  0  0  0  0  0  0  0  0  0  0  0
   -0.8570   -1.7780   -4.7290 S   0  0  0  0  0  0  0  0  0  0  0  0
    0.9250   -1.6350   -4.8540 N   0  0  0  0  0  0  0  0  0  0  0  0
    1.2910   -1.1280   -3.7090 C   0  0  0  0  0  0  0  0  0  0  0  0
    0.3630   -0.8370   -2.7500 C   0  0  0  0  0  0  0  0  0  0  0  0
    0.7840   -0.1670   -1.4910 C   0  0  0  0  0  0  0  0  0  0  0  0
    0.0150    0.3860   -0.5800 N   0  0  0  0  0  0  0  0  0  0  0  0
    0.7560    0.9030    0.4260 C   0  0  0  0  0  0  0  0  0  0  0  0
    2.0580    0.6270    0.0690 C   0  0  0  0  0  0  0  0  0  0  0  0
    3.2480    0.9810    0.8310 C   0  0  0  0  0  0  0  0  0  0  0  0
    4.5210    0.6690    0.4080 C   0  0  0  0  0  0  0  0  0  0  0  0
    5.5970    1.0460    1.1990 C   0  0  0  0  0  0  0  0  0  0  0  0
    5.4300    1.7180    2.3870 C   0  0  0  0  0  0  0  0  0  0  0  0
    4.1840    2.0120    2.7820 N   0  0  0  0  0  0  0  0  0  0  0  0
    3.1380    1.6540    2.0280 C   0  0  0  0  0  0  0  0  0  0  0  0
    2.0120   -0.0040   -1.0680 O   0  0  0  0  0  0  0  0  0  0  0  0
   -2.2790   -1.5600   -0.0580 C   0  0  0  0  0  0  0  0  0  0  0  0
   -2.6630   -1.3680    1.2410 C   0  0  0  0  0  0  0  0  0  0  0  0
   -2.3620   -2.3930    2.2930 C   0  0  0  0  0  0  0  0  0  0  0  0
   -3.3180   -0.2320    1.5370 N   0  0  0  0  0  0  0  0  0  0  0  0
  1  2  1  0
  2  3  2  0
  2 25  1  0
  3  4  1  0
  4  5  1  0
  4 22  2  0
  5  6  1  0
  6  7  1  0
  6 10  2  0
  7  8  1  0
  8  9  2  0
  9 10  1  0
 10 11  1  0
 11 12  2  0
 11 21  1  0
 12 13  1  0
 13 14  2  0
 14 15  1  0
 14 21  1  0
 15 16  2  0
 15 20  1  0
 16 17  1  0
 17 18  2  0
 18 19  1  0
 19 20  2  0
 22 23  1  0
 23 24  1  0
 23 25  2  0
M  END
