
     RDKit          3D

 26 29  0  0  0  0  0  0  0  0999 V2000
    9.2690    0.5390    0.7190 C   0  0  0  0  0  0  0  0  0  0  0  0
    7.9460    0.8120    0.0390 C   0  0  0  0  0  0  0  0  0  0  0  0
    7.8230    1.8350   -0.8550 C   0  0  0  0  0  0  0  0  0  0  0  0
    6.0720    1.6950   -1.3370 S   0  0  0  0  0  0  0  0  0  0  0  0
    5.7910    0.2480   -0.2290 C   0  0  0  0  0  0  0  0  0  0  0  0
    4.4580   -0.3030   -0.2260 N   0  0  0  0  0  0  0  0  0  0  0  0
    4.2220   -1.5980   -0.3080 C   0  0  0  0  0  0  0  0  0  0  0  0
    2.8510   -1.8250   -0.2810 C   0  0  0  0  0  0  0  0  0  0  0  0
    2.2520   -0.5880   -0.1780 C   0  0  0  0  0  0  0  0  0  0  0  0
    0.8270   -0.2980   -0.1140 C   0  0  0  0  0  0  0  0  0  0  0  0
    0.2570    0.9160   -0.0130 N   0  0  0  0  0  0  0  0  0  0  0  0
   -1.0470    0.7650    0.0170 O   0  0  0  0  0  0  0  0  0  0  0  0
   -1.3890   -0.4820   -0.0590 C   0  0  0  0  0  0  0  0  0  0  0  0
   -2.7070   -1.0680   -0.0590 C   0  0  0  0  0  0  0  0  0  0  0  0
   -2.8000   -2.4630   -0.1480 C   0  0  0  0  0  0  0  0  0  0  0  0
   -3.9810   -3.1400   -0.1570 C   0  0  0  0  0  0  0  0  0  0  0  0
   -5.1480   -2.4190   -0.0740 C   0  0  0  0  0  0  0  0  0  0  0  0
   -5.0990   -1.0280    0.0170 C   0  0  0  0  0  0  0  0  0  0  0  0
   -3.8790   -0.3550    0.0240 C   0  0  0  0  0  0  0  0  0  0  0  0
   -3.9060    1.0540    0.1100 N   0  0  0  0  0  0  0  0  0  0  0  0
   -5.1080    1.8270    0.2310 C   0  0  2  0  0  0  0  0  0  0  0  0
   -5.8190    1.4420    1.5250 C   0  0  0  0  0  0  0  0  0  0  0  0
   -6.0430    1.7180   -0.9420 C   0  0  0  0  0  0  0  0  0  0  0  0
   -0.2000   -1.1600   -0.1420 N   0  0  0  0  0  0  0  0  0  0  0  0
    3.2770    0.3340   -0.1460 C   0  0  0  0  0  0  0  0  0  0  0  0
    6.8670    0.1070    0.2570 N   0  0  0  0  0  0  0  0  0  0  0  0
  1  2  1  0
  2  3  2  0
  2 26  1  0
  3  4  1  0
  4  5  1  0
  5  6  1  0
  5 26  2  0
  6  7  1  0
  6 25  1  0
  7  8  2  0
  8  9  1  0
  9 10  1  0
  9 25  2  0
 10 11  2  0
 10 24  1  0
 11 12  1  0
 12 13  1  0
 13 14  1  0
 13 24  2  0
 14 15  2  0
 14 19  1  0
 15 16  1  0
 16 17  2  0
 17 18  1  0
 18 19  2  0
 19 20  1  0
 20 21  1  0
 21 22  1  1
 21 23  1  0
M  END
