
     RDKit          3D

 12 13  0  0  0  0  0  0  0  0999 V2000
    3.5620    0.3830    0.1910 C   0  0  0  0  0  0  0  0  0  0  0  0
    2.5720    0.3310   -0.6570 C   0  0  0  0  0  0  0  0  0  0  0  0
    1.1710    0.1500   -0.2910 C   0  0  0  0  0  0  0  0  0  0  0  0
    0.7340    0.0120    1.0090 C   0  0  0  0  0  0  0  0  0  0  0  0
   -0.5950   -0.1600    1.3460 C   0  0  0  0  0  0  0  0  0  0  0  0
   -0.9970   -0.2970    2.6860 O   0  0  0  0  0  0  0  0  0  0  0  0
   -1.5170   -0.1920    0.3250 C   0  0  0  0  0  0  0  0  0  0  0  0
   -1.1460   -0.0590   -0.9920 C   0  0  0  0  0  0  0  0  0  0  0  0
    0.1930    0.1090   -1.2710 C   0  0  0  0  0  0  0  0  0  0  0  0
   -2.2560   -0.1270   -1.7980 O   0  0  0  0  0  0  0  0  0  0  0  0
   -3.3660   -0.3170   -0.9550 C   0  0  0  0  0  0  0  0  0  0  0  0
   -2.8860   -0.3470    0.3710 O   0  0  0  0  0  0  0  0  0  0  0  0
  1  2  2  0
  2  3  1  0
  3  4  2  0
  3  9  1  0
  4  5  1  0
  5  6  1  0
  5  7  2  0
  7  8  1  0
  7 12  1  0
  8  9  2  0
  8 10  1  0
 10 11  1  0
 11 12  1  0
M  END
