
     RDKit          3D

 27 31  0  0  0  0  0  0  0  0999 V2000
   -8.4200   -0.1520    0.0220 N   0  0  0  0  0  0  0  0  0  0  0  0
   -7.0650    0.3370    0.1390 C   0  0  0  0  0  0  0  0  0  0  0  0
   -6.0110   -0.4270   -0.1830 N   0  0  0  0  0  0  0  0  0  0  0  0
   -4.7570    0.0200   -0.0360 C   0  0  0  0  0  0  0  0  0  0  0  0
   -3.6850   -0.8270   -0.3290 C   0  0  0  0  0  0  0  0  0  0  0  0
   -2.4040   -0.3360   -0.1040 C   0  0  0  0  0  0  0  0  0  0  0  0
   -1.1700   -0.8480   -0.2220 N   0  0  0  0  0  0  0  0  0  0  0  0
   -0.2150   -0.0120    0.1400 C   0  0  0  0  0  0  0  0  0  0  0  0
    1.1890   -0.1590    0.3510 N   0  0  0  0  0  0  0  0  0  0  0  0
    1.9300   -1.3620    0.2940 C   0  0  0  0  0  0  0  0  0  0  0  0
    3.2640   -1.3040   -0.3330 C   0  0  0  0  0  0  0  0  0  0  0  0
    3.5770   -2.1220   -1.4390 C   0  0  0  0  0  0  0  0  0  0  0  0
    4.8360   -2.2240   -1.9580 C   0  0  0  0  0  0  0  0  0  0  0  0
    5.8780   -1.4990   -1.3940 C   0  0  0  0  0  0  0  0  0  0  0  0
    5.6240   -0.6770   -0.3060 C   0  0  0  0  0  0  0  0  0  0  0  0
    6.6450    0.0830    0.2070 C   0  0  0  0  0  0  0  0  0  0  0  0
    6.3890    0.9690    1.2660 C   0  0  0  0  0  0  0  0  0  0  0  0
    5.1180    1.0510    1.7660 C   0  0  0  0  0  0  0  0  0  0  0  0
    4.0950    0.2630    1.2290 C   0  0  0  0  0  0  0  0  0  0  0  0
    4.3350   -0.6130    0.1790 C   0  0  0  0  0  0  0  0  0  0  0  0
   -0.8860    1.1790    0.5390 N   0  0  0  0  0  0  0  0  0  0  0  0
   -2.1950    0.9280    0.3750 C   0  0  0  0  0  0  0  0  0  0  0  0
   -3.2610    1.7830    0.6630 C   0  0  0  0  0  0  0  0  0  0  0  0
   -4.5310    1.2700    0.4380 C   0  0  0  0  0  0  0  0  0  0  0  0
   -5.6420    2.0910    0.7760 C   0  0  0  0  0  0  0  0  0  0  0  0
   -5.4120    3.2670    1.2080 O   0  0  0  0  0  0  0  0  0  0  0  0
   -6.8410    1.5950    0.6170 N   0  0  0  0  0  0  0  0  0  0  0  0
  1  2  1  0
  2  3  2  0
  2 27  1  0
  3  4  1  0
  4  5  2  0
  4 24  1  0
  5  6  1  0
  6  7  1  0
  6 22  2  0
  7  8  2  0
  8  9  1  0
  8 21  1  0
  9 10  1  0
 10 11  1  0
 11 12  2  0
 11 20  1  0
 12 13  1  0
 13 14  2  0
 14 15  1  0
 15 16  2  0
 15 20  1  0
 16 17  1  0
 17 18  2  0
 18 19  1  0
 19 20  2  0
 21 22  1  0
 22 23  1  0
 23 24  2  0
 24 25  1  0
 25 26  2  0
 25 27  1  0
M  END
