
     RDKit          3D

 12 12  0  0  0  0  0  0  0  0999 V2000
   -1.0470   -2.1520    0.1660 C   0  0  0  0  0  0  0  0  0  0  0  0
   -1.7410   -1.0780    0.0220 C   0  0  0  0  0  0  0  0  0  0  0  0
   -1.3850    0.2980   -0.1010 C   0  0  0  0  0  0  0  0  0  0  0  0
   -2.3500    1.2410   -0.2450 C   0  0  0  0  0  0  0  0  0  0  0  0
   -1.7160    2.5140   -0.3430 C   0  0  0  0  0  0  0  0  0  0  0  0
   -2.2600    3.6590   -0.4870 O   0  0  0  0  0  0  0  0  0  0  0  0
   -0.2900    2.2600   -0.2470 C   0  0  0  0  0  0  0  0  0  0  0  0
   -0.0990    0.9170   -0.1000 C   0  0  0  0  0  0  0  0  0  0  0  0
    1.2350    0.3950    0.0190 C   0  0  0  0  0  0  0  0  0  0  0  0
    2.2280    1.2370   -0.0180 O   0  0  0  0  0  0  0  0  0  0  0  0
    1.6890   -0.8800    0.1720 O   0  0  0  0  0  0  0  0  0  0  0  0
    3.0090   -1.2960    0.2790 C   0  0  0  0  0  0  0  0  0  0  0  0
  1  2  2  0
  2  3  1  0
  3  4  2  0
  3  8  1  0
  4  5  1  0
  5  6  2  0
  5  7  1  0
  7  8  2  0
  8  9  1  0
  9 10  2  0
  9 11  1  0
 11 12  1  0
M  END
