
     RDKit          3D

 26 30  0  0  0  0  0  0  0  0999 V2000
   -2.9260    4.0730   -0.9120 C   0  0  0  0  0  0  0  0  0  0  0  0
   -1.7110    2.7930   -1.2940 S   0  0  0  0  0  0  0  0  0  0  0  0
   -2.3250    1.1720   -0.8750 C   0  0  0  0  0  0  0  0  0  0  0  0
   -3.1200    0.4680   -1.7550 N   0  0  0  0  0  0  0  0  0  0  0  0
   -3.4200   -0.6980   -1.2240 C   0  0  0  0  0  0  0  0  0  0  0  0
   -4.1670   -1.7860   -1.6390 C   0  0  0  0  0  0  0  0  0  0  0  0
   -4.3110   -2.9230   -0.8310 C   0  0  0  0  0  0  0  0  0  0  0  0
   -3.6890   -2.9240    0.3880 C   0  0  0  0  0  0  0  0  0  0  0  0
   -2.9360   -1.8270    0.8060 C   0  0  0  0  0  0  0  0  0  0  0  0
   -2.8000   -0.7180    0.0050 C   0  0  0  0  0  0  0  0  0  0  0  0
   -2.1150    0.4760    0.1930 N   0  0  0  0  0  0  0  0  0  0  0  0
   -1.3470    0.6740    1.4120 C   0  0  0  0  0  0  0  0  0  0  0  0
    0.0720    0.1880    1.2190 C   0  0  0  0  0  0  0  0  0  0  0  0
    0.2390   -1.1780    1.1760 N   0  0  0  0  0  0  0  0  0  0  0  0
    1.4660   -1.7120    0.8910 C   0  0  0  0  0  0  0  0  0  0  0  0
    2.4210   -0.7850    0.6760 C   0  0  0  0  0  0  0  0  0  0  0  0
    3.6680   -1.2450    0.3940 C   0  0  0  0  0  0  0  0  0  0  0  0
    4.4300   -0.0820    0.2320 C   0  0  0  0  0  0  0  0  0  0  0  0
    5.8520   -0.1100   -0.0810 C   0  0  0  0  0  0  0  0  0  0  0  0
    3.5990    0.9910    0.4250 N   0  0  0  0  0  0  0  0  0  0  0  0
    2.3580    0.5800    0.6970 C   0  0  0  0  0  0  0  0  0  0  0  0
    1.0810    1.0780    0.9920 C   0  0  0  0  0  0  0  0  0  0  0  0
    0.9640    2.5500    1.0680 C   0  0  0  0  0  0  0  0  0  0  0  0
    3.5330   -2.6890    0.4190 N   0  0  0  0  0  0  0  0  0  0  0  0
    2.1490   -2.9520    0.7310 C   0  0  0  0  0  0  0  0  0  0  0  0
    1.6000   -4.0970    0.8520 O   0  0  0  0  0  0  0  0  0  0  0  0
  1  2  1  0
  2  3  1  0
  3  4  2  0
  3 11  1  0
  4  5  1  0
  5  6  2  0
  5 10  1  0
  6  7  1  0
  7  8  2  0
  8  9  1  0
  9 10  2  0
 10 11  1  0
 11 12  1  0
 12 13  1  0
 13 14  2  0
 13 22  1  0
 14 15  1  0
 15 16  2  0
 15 25  1  0
 16 17  1  0
 16 21  1  0
 17 18  2  0
 17 24  1  0
 18 19  1  0
 18 20  1  0
 20 21  1  0
 21 22  2  0
 22 23  1  0
 24 25  1  0
 25 26  2  0
M  END
