
     RDKit          3D

 26 29  0  0  0  0  0  0  0  0999 V2000
   -6.0460   -1.8340    0.8670 C   0  0  0  0  0  0  0  0  0  0  0  0
   -4.5730   -1.5950    0.8480 C   0  0  0  0  0  0  0  0  0  0  0  0
   -4.2300   -0.1720    0.4100 C   0  0  1  0  0  0  0  0  0  0  0  0
   -4.7970   -0.0060   -0.9880 C   0  0  0  0  0  0  0  0  0  0  0  0
   -4.8020    0.8490    1.3360 C   0  0  0  0  0  0  0  0  0  0  0  0
   -2.7380   -0.0930    0.3040 C   0  0  0  0  0  0  0  0  0  0  0  0
   -2.2590    1.1920   -0.1000 N   0  0  0  0  0  0  0  0  0  0  0  0
   -0.8580    1.4130   -0.2430 C   0  0  0  0  0  0  0  0  0  0  0  0
   -0.4370    2.6050   -0.6390 C   0  0  0  0  0  0  0  0  0  0  0  0
    1.2900    3.0230   -0.8610 S   0  0  0  0  0  0  0  0  0  0  0  0
    2.1560    1.4930   -0.4260 C   0  0  0  0  0  0  0  0  0  0  0  0
    3.5170    1.3860   -0.4640 C   0  0  0  0  0  0  0  0  0  0  0  0
    4.1180    0.2150   -0.1280 N   0  0  0  0  0  0  0  0  0  0  0  0
    5.5360    0.1000   -0.1660 C   0  0  0  0  0  0  0  0  0  0  0  0
    6.3100    0.5420   -1.2190 C   0  0  0  0  0  0  0  0  0  0  0  0
    7.6810    0.3800   -1.1510 C   0  0  0  0  0  0  0  0  0  0  0  0
    8.2990   -0.1950   -0.0940 N   0  0  0  0  0  0  0  0  0  0  0  0
    7.5600   -0.6320    0.9410 C   0  0  0  0  0  0  0  0  0  0  0  0
    6.1890   -0.4850    0.9030 C   0  0  0  0  0  0  0  0  0  0  0  0
    3.3290   -0.8140    0.2360 C   0  0  0  0  0  0  0  0  0  0  0  0
    3.8760   -1.9210    0.5550 O   0  0  0  0  0  0  0  0  0  0  0  0
    1.9630   -0.7600    0.2910 C   0  0  0  0  0  0  0  0  0  0  0  0
    0.9120   -1.5850    0.6050 C   0  0  0  0  0  0  0  0  0  0  0  0
   -0.2040   -0.8840    0.4440 N   0  0  0  0  0  0  0  0  0  0  0  0
    0.0660    0.3680    0.0360 N   0  0  0  0  0  0  0  0  0  0  0  0
    1.3770    0.4490   -0.0580 C   0  0  0  0  0  0  0  0  0  0  0  0
  1  2  1  0
  2  3  1  0
  3  4  1  6
  3  5  1  0
  3  6  1  0
  6  7  1  0
  7  8  1  0
  8  9  2  0
  8 25  1  0
  9 10  1  0
 10 11  1  0
 11 12  2  0
 11 26  1  0
 12 13  1  0
 13 14  1  0
 13 20  1  0
 14 15  2  0
 14 19  1  0
 15 16  1  0
 16 17  2  0
 17 18  1  0
 18 19  2  0
 20 21  2  0
 20 22  1  0
 22 23  1  0
 22 26  2  0
 23 24  2  0
 24 25  1  0
 25 26  1  0
M  END
