
     RDKit          3D

 23 25  0  0  0  0  0  0  0  0999 V2000
    0.9990    2.1790   -0.4360 N   0  0  0  0  0  0  0  0  0  0  0  0
    0.4290    0.8140    0.0270 S   0  0  2  0  0  0  0  0  0  0  0  0
   -0.2480    1.0600    1.3600 O   0  0  0  0  0  0  0  0  0  0  0  0
    1.7530   -0.2410    0.3380 N   0  0  0  0  0  0  0  0  0  0  0  0
    3.1010    0.1610    0.1280 C   0  0  0  0  0  0  0  0  0  0  0  0
    3.8640   -0.2490   -0.9420 C   0  0  0  0  0  0  0  0  0  0  0  0
    5.1830    0.1570   -1.0970 C   0  0  0  0  0  0  0  0  0  0  0  0
    5.7750    0.9740   -0.2040 N   0  0  0  0  0  0  0  0  0  0  0  0
    7.1070    1.3690   -0.3650 O   0  0  0  0  0  0  0  0  0  0  0  0
    5.0510    1.3810    0.8370 C   0  0  0  0  0  0  0  0  0  0  0  0
    3.7470    1.0050    1.0280 C   0  0  0  0  0  0  0  0  0  0  0  0
   -0.7010    0.1540   -1.1160 N   0  0  0  0  0  0  0  0  0  0  0  0
   -1.4060   -0.9980   -0.6790 C   0  0  0  0  0  0  0  0  0  0  0  0
   -0.7070   -2.2130   -0.6650 C   0  0  0  0  0  0  0  0  0  0  0  0
   -1.4010   -3.3300   -0.2250 C   0  0  0  0  0  0  0  0  0  0  0  0
   -2.7170   -3.2750    0.1870 C   0  0  0  0  0  0  0  0  0  0  0  0
   -3.3730   -2.0530    0.1570 C   0  0  0  0  0  0  0  0  0  0  0  0
   -2.6970   -0.9100   -0.2850 C   0  0  0  0  0  0  0  0  0  0  0  0
   -3.4110    0.3610   -0.3300 C   0  0  0  0  0  0  0  0  0  0  0  0
   -2.9980    1.5630   -0.7020 N   0  0  0  0  0  0  0  0  0  0  0  0
   -3.9950    2.4650   -0.5960 C   0  0  0  0  0  0  0  0  0  0  0  0
   -5.1020    1.7880   -0.1320 C   0  0  0  0  0  0  0  0  0  0  0  0
   -4.7180    0.5090    0.0230 N   0  0  0  0  0  0  0  0  0  0  0  0
  1  2  2  0
  2  3  2  0
  2  4  1  1
  2 12  1  0
  4  5  1  0
  5  6  2  0
  5 11  1  0
  6  7  1  0
  7  8  2  0
  8  9  1  0
  8 10  1  0
 10 11  2  0
 12 13  1  0
 13 14  2  0
 13 18  1  0
 14 15  1  0
 15 16  2  0
 16 17  1  0
 17 18  2  0
 18 19  1  0
 19 20  2  0
 19 23  1  0
 20 21  1  0
 21 22  2  0
 22 23  1  0
M  CHG  2   8   1   9  -1
M  END
