
     RDKit          3D

 22 24  0  0  0  0  0  0  0  0999 V2000
   -3.2450   -1.0350    1.9350 C   0  0  0  0  0  0  0  0  0  0  0  0
   -2.2790   -0.7050    0.8410 C   0  0  0  0  0  0  0  0  0  0  0  0
   -0.9180   -0.9860    1.0770 C   0  0  0  0  0  0  0  0  0  0  0  0
    0.0070   -0.7400    0.0890 C   0  0  0  0  0  0  0  0  0  0  0  0
    1.3270   -0.9980    0.2780 N   0  0  0  0  0  0  0  0  0  0  0  0
    2.2700   -0.7770   -0.6520 C   0  0  0  0  0  0  0  0  0  0  0  0
    3.9790   -1.1350   -0.3400 S   0  0  0  0  0  0  0  0  0  0  0  0
    4.8500    0.2910    0.3680 C   0  0  2  0  0  0  0  0  0  0  0  0
    4.9300    1.4140   -0.6320 C   0  0  0  0  0  0  0  0  0  0  0  0
    6.2530   -0.1220    0.7510 C   0  0  0  0  0  0  0  0  0  0  0  0
    1.9110   -0.2700   -1.8560 N   0  0  0  0  0  0  0  0  0  0  0  0
    0.6210    0.0040   -2.1000 C   0  0  0  0  0  0  0  0  0  0  0  0
    0.2870    0.4750   -3.2170 O   0  0  0  0  0  0  0  0  0  0  0  0
   -0.3560   -0.2240   -1.1360 C   0  0  0  0  0  0  0  0  0  0  0  0
   -1.6760    0.0510   -1.3690 C   0  0  0  0  0  0  0  0  0  0  0  0
   -2.6410   -0.1940   -0.3660 C   0  0  0  0  0  0  0  0  0  0  0  0
   -4.0180    0.1860   -0.6710 C   0  0  0  0  0  0  0  0  0  0  0  0
   -4.4520    0.4590   -1.9470 N   0  0  0  0  0  0  0  0  0  0  0  0
   -5.7300    0.7320   -1.9050 N   0  0  0  0  0  0  0  0  0  0  0  0
   -6.1760    0.6550   -0.6610 C   0  0  0  0  0  0  0  0  0  0  0  0
   -7.3360    0.8430   -0.1960 O   0  0  0  0  0  0  0  0  0  0  0  0
   -5.0850    0.3110    0.1000 N   0  0  0  0  0  0  0  0  0  0  0  0
  1  2  1  0
  2  3  2  0
  2 16  1  0
  3  4  1  0
  4  5  1  0
  4 14  2  0
  5  6  2  0
  6  7  1  0
  6 11  1  0
  7  8  1  0
  8  9  1  6
  8 10  1  0
 11 12  1  0
 12 13  2  0
 12 14  1  0
 14 15  1  0
 15 16  2  0
 16 17  1  0
 17 18  2  0
 17 22  1  0
 18 19  1  0
 19 20  1  0
 20 21  2  0
 20 22  1  0
M  END
