
     RDKit          3D

 23 25  0  0  0  0  0  0  0  0999 V2000
   -2.2240   -2.6690    0.4740 C   0  0  0  0  0  0  0  0  0  0  0  0
   -1.8810   -1.6070    1.1170 N   0  0  0  0  0  0  0  0  0  0  0  0
   -0.9310   -1.6690    2.1430 O   0  0  0  0  0  0  0  0  0  0  0  0
   -2.5020   -0.3820    0.7980 C   0  0  0  0  0  0  0  0  0  0  0  0
   -3.7810   -0.1740    1.1990 C   0  0  0  0  0  0  0  0  0  0  0  0
   -4.5060   -1.1990    1.8400 N   0  0  0  0  0  0  0  0  0  0  0  0
   -4.3560    1.0000    0.9530 N   0  0  0  0  0  0  0  0  0  0  0  0
   -3.7210    2.0020    0.3190 C   0  0  0  0  0  0  0  0  0  0  0  0
   -2.4190    1.8310   -0.1040 C   0  0  0  0  0  0  0  0  0  0  0  0
   -1.7180    2.8100   -0.7530 C   0  0  0  0  0  0  0  0  0  0  0  0
   -0.4260    2.5740   -1.1480 C   0  0  0  0  0  0  0  0  0  0  0  0
    0.2240    1.3390   -0.9090 C   0  0  0  0  0  0  0  0  0  0  0  0
    1.5900    1.2780   -1.3940 C   0  0  0  0  0  0  0  0  0  0  0  0
    2.4450    0.1830   -1.0020 C   0  0  0  0  0  0  0  0  0  0  0  0
    2.3340   -0.9670   -1.4690 O   0  0  0  0  0  0  0  0  0  0  0  0
    3.4760    0.3920   -0.0470 N   0  0  0  0  0  0  0  0  0  0  0  0
    4.4610   -0.5330    0.3190 C   0  0  0  0  0  0  0  0  0  0  0  0
    5.3610   -0.6010    1.2080 N   0  0  0  0  0  0  0  0  0  0  0  0
    6.2020   -1.5820    1.2150 N   0  0  0  0  0  0  0  0  0  0  0  0
    6.2850   -2.4600    0.5130 C   0  0  0  0  0  0  0  0  0  0  0  0
    4.8460   -2.0790   -0.6600 S   0  0  0  0  0  0  0  0  0  0  0  0
   -0.4850    0.3660   -0.2590 C   0  0  0  0  0  0  0  0  0  0  0  0
   -1.7950    0.6010    0.1440 C   0  0  0  0  0  0  0  0  0  0  0  0
  1  2  2  0
  2  3  1  0
  2  4  1  0
  4  5  2  0
  4 23  1  0
  5  6  1  0
  5  7  1  0
  7  8  2  0
  8  9  1  0
  9 10  2  0
  9 23  1  0
 10 11  1  0
 11 12  2  0
 12 13  1  0
 12 22  1  0
 13 14  1  0
 14 15  2  0
 14 16  1  0
 16 17  1  0
 17 18  2  0
 17 21  1  0
 18 19  1  0
 19 20  2  0
 20 21  1  0
 22 23  2  0
M  CHG  2   2   1   3  -1
M  END
