
     RDKit          3D

 17 18  0  0  0  0  0  0  0  0999 V2000
    4.6520    1.6460   -0.7830 C   0  0  0  0  0  0  0  0  0  0  0  0
    4.7910    0.1470   -0.8600 C   0  0  0  0  0  0  0  0  0  0  0  0
    3.5710   -0.5260   -0.7680 O   0  0  0  0  0  0  0  0  0  0  0  0
    2.7020   -0.4610    0.2960 C   0  0  0  0  0  0  0  0  0  0  0  0
    3.0290    0.2640    1.2730 O   0  0  0  0  0  0  0  0  0  0  0  0
    1.4150   -1.1880    0.3610 C   0  0  1  0  0  0  0  0  0  0  0  0
    0.9130   -1.6430    1.7380 C   0  0  0  0  0  0  0  0  0  0  0  0
    0.2920   -0.5060    1.0590 C   0  0  2  0  0  0  0  0  0  0  0  0
   -1.1010   -0.6540    0.5120 C   0  0  0  0  0  0  0  0  0  0  0  0
   -1.5260   -1.8530   -0.0270 C   0  0  0  0  0  0  0  0  0  0  0  0
   -2.7870   -2.0210   -0.5330 C   0  0  0  0  0  0  0  0  0  0  0  0
   -3.6630   -0.9480   -0.5010 C   0  0  0  0  0  0  0  0  0  0  0  0
   -4.9340   -1.1500   -1.0220 O   0  0  0  0  0  0  0  0  0  0  0  0
   -3.2640    0.2530    0.0280 C   0  0  0  0  0  0  0  0  0  0  0  0
   -4.1740    1.3200    0.0460 O   0  0  0  0  0  0  0  0  0  0  0  0
   -3.8680    2.5800    0.5610 C   0  0  0  0  0  0  0  0  0  0  0  0
   -2.0050    0.3880    0.5240 C   0  0  0  0  0  0  0  0  0  0  0  0
  1  2  1  0
  2  3  1  0
  3  4  1  0
  4  5  2  0
  6  4  1  1
  6  7  1  0
  6  8  1  0
  7  8  1  0
  8  9  1  6
  9 10  2  0
  9 17  1  0
 10 11  1  0
 11 12  2  0
 12 13  1  0
 12 14  1  0
 14 15  1  0
 14 17  2  0
 15 16  1  0
M  END
