
     RDKit          3D

 23 25  0  0  0  0  0  0  0  0999 V2000
   -1.0220    2.3210   -2.0230 O   0  0  0  0  0  0  0  0  0  0  0  0
   -1.1240    0.9870   -1.6890 N   0  0  0  0  0  0  0  0  0  0  0  0
   -2.1990    0.2100   -1.7630 N   0  0  0  0  0  0  0  0  0  0  0  0
   -1.8870   -1.0320   -1.3450 C   0  0  0  0  0  0  0  0  0  0  0  0
   -2.9920   -2.4540   -1.2520 S   0  0  0  0  0  0  0  0  0  0  0  0
   -3.7750   -2.4940    0.3690 C   0  0  0  0  0  0  0  0  0  0  0  0
   -4.6630   -1.2920    0.4620 C   0  0  0  0  0  0  0  0  0  0  0  0
   -5.9660   -1.3680    0.6540 C   0  0  0  0  0  0  0  0  0  0  0  0
   -6.4730    0.0200    0.6860 C   0  0  0  0  0  0  0  0  0  0  0  0
   -5.2730    0.8430    0.4870 C   0  0  0  0  0  0  0  0  0  0  0  0
   -4.2760    0.0480    0.3650 N   0  0  0  0  0  0  0  0  0  0  0  0
   -0.5830   -0.9810   -1.0160 N   0  0  0  0  0  0  0  0  0  0  0  0
   -0.0980    0.2570   -1.2220 C   0  0  0  0  0  0  0  0  0  0  0  0
    1.3060    0.7520   -0.9870 C   0  0  0  0  0  0  0  0  0  0  0  0
    1.4660    1.2780    0.3920 C   0  0  0  0  0  0  0  0  0  0  0  0
    2.8550    1.7420    0.5400 N   0  0  0  0  0  0  0  0  0  0  0  0
    3.9430    0.8390    0.4840 C   0  0  0  0  0  0  0  0  0  0  0  0
    3.7340   -0.4960    0.3150 N   0  0  0  0  0  0  0  0  0  0  0  0
    4.7380   -1.3780    0.2680 C   0  0  0  0  0  0  0  0  0  0  0  0
    6.0550   -0.9970    0.3890 C   0  0  0  0  0  0  0  0  0  0  0  0
    6.3210    0.3300    0.5600 C   0  0  0  0  0  0  0  0  0  0  0  0
    5.2520    1.2430    0.6060 C   0  0  0  0  0  0  0  0  0  0  0  0
    5.5830    2.5680    0.7810 O   0  0  0  0  0  0  0  0  0  0  0  0
  1  2  1  0
  2  3  1  0
  2 13  2  0
  3  4  2  0
  4  5  1  0
  4 12  1  0
  5  6  1  0
  6  7  1  0
  7  8  2  0
  7 11  1  0
  8  9  1  0
  9 10  1  0
 10 11  2  0
 12 13  1  0
 13 14  1  0
 14 15  1  0
 15 16  1  0
 16 17  1  0
 17 18  2  0
 17 22  1  0
 18 19  1  0
 19 20  2  0
 20 21  1  0
 21 22  2  0
 22 23  1  0
M  CHG  2   1  -1   2   1
M  END
