
     RDKit          3D

 42 46  0  0  0  0  0  0  0  0999 V2000
    4.4300   -1.3510    2.1520 O   0  0  0  0  0  0  0  0  0  0  0  0
    4.1370   -0.1380    2.2520 C   0  0  0  0  0  0  0  0  0  0  0  0
    5.0470    0.8950    1.9210 N   0  0  0  0  0  0  0  0  0  0  0  0
    6.3560    0.5490    1.4530 C   0  0  0  0  0  0  0  0  0  0  0  0
    7.2260    1.7260    1.1410 C   0  0  2  0  0  0  0  0  0  0  0  0
    6.6270    2.5040    0.1470 O   0  0  0  0  0  0  0  0  0  0  0  0
    8.4870    1.2030    0.5570 C   0  0  0  0  0  0  0  0  0  0  0  0
    9.6480    1.2300    1.2990 C   0  0  0  0  0  0  0  0  0  0  0  0
   10.8370    0.7490    0.7760 C   0  0  0  0  0  0  0  0  0  0  0  0
   10.8440    0.2350   -0.5120 C   0  0  0  0  0  0  0  0  0  0  0  0
    9.6990    0.1950   -1.2750 C   0  0  0  0  0  0  0  0  0  0  0  0
    9.7600   -0.3630   -2.6430 C   0  0  0  0  0  0  0  0  0  0  0  0
    8.4800   -0.3090   -3.1930 O   0  0  0  0  0  0  0  0  0  0  0  0
    8.5300    0.6920   -0.7010 C   0  0  0  0  0  0  0  0  0  0  0  0
    2.7920    0.2220    2.7320 C   0  0  1  0  0  0  0  0  0  0  0  0
    2.5840    1.5890    2.7790 O   0  0  0  0  0  0  0  0  0  0  0  0
    1.7850   -0.4220    1.8190 C   0  0  0  0  0  0  0  0  0  0  0  0
    1.8050   -1.6630    1.6320 O   0  0  0  0  0  0  0  0  0  0  0  0
    0.8660    0.3760    1.2110 O   0  0  0  0  0  0  0  0  0  0  0  0
   -0.1400   -0.0260    0.3500 C   0  0  0  0  0  0  0  0  0  0  0  0
   -1.1790   -0.9070    0.9660 C   0  0  2  0  0  0  0  0  0  0  0  0
   -0.6460   -2.0870    1.4460 O   0  0  0  0  0  0  0  0  0  0  0  0
   -2.3010   -1.1830    0.0080 C   0  0  0  0  0  0  0  0  0  0  0  0
   -2.2800   -2.1140   -1.0010 C   0  0  0  0  0  0  0  0  0  0  0  0
   -3.5330   -2.0020   -1.6110 C   0  0  0  0  0  0  0  0  0  0  0  0
   -4.2420   -1.0170   -0.9440 C   0  0  0  0  0  0  0  0  0  0  0  0
   -5.6230   -0.6280   -1.3220 C   0  0  1  0  0  0  0  0  0  0  0  0
   -6.3070   -1.8570   -1.5120 O   0  0  0  0  0  0  0  0  0  0  0  0
   -6.2230   -2.4330   -0.2220 C   0  0  0  0  0  0  0  0  0  0  0  0
   -6.3660   -1.2840    0.7580 C   0  0  0  0  0  0  0  0  0  0  0  0
   -6.4320   -0.1050   -0.1500 C   0  0  1  0  0  0  0  0  0  0  0  0
   -5.8790    1.1460    0.4390 C   0  0  0  0  0  0  0  0  0  0  0  0
   -5.9810    2.3170   -0.4730 C   0  0  0  0  0  0  0  0  0  0  0  0
   -6.8260    2.1260   -1.5850 O   0  0  0  0  0  0  0  0  0  0  0  0
   -7.9550    1.3400   -1.4110 C   0  0  0  0  0  0  0  0  0  0  0  0
   -9.1690    1.6660   -1.9230 N   0  0  0  0  0  0  0  0  0  0  0  0
  -10.2310    0.8680   -1.7240 C   0  0  0  0  0  0  0  0  0  0  0  0
  -11.4820    1.1690   -2.2320 O   0  0  0  0  0  0  0  0  0  0  0  0
  -10.0880   -0.2940   -0.9920 C   0  0  0  0  0  0  0  0  0  0  0  0
   -8.8560   -0.6460   -0.4590 C   0  0  0  0  0  0  0  0  0  0  0  0
   -7.7940    0.1750   -0.6720 C   0  0  0  0  0  0  0  0  0  0  0  0
   -3.4460   -0.5870   -0.0070 O   0  0  0  0  0  0  0  0  0  0  0  0
  1  2  2  0
  2  3  1  0
  2 15  1  0
  3  4  1  0
  4  5  1  0
  5  6  1  6
  5  7  1  0
  7  8  2  0
  7 14  1  0
  8  9  1  0
  9 10  2  0
 10 11  1  0
 11 12  1  0
 11 14  2  0
 12 13  1  0
 15 16  1  6
 15 17  1  0
 17 18  2  0
 17 19  1  0
 19 20  1  0
 20 21  1  0
 21 22  1  6
 21 23  1  0
 23 24  2  0
 23 42  1  0
 24 25  1  0
 25 26  2  0
 27 26  1  1
 26 42  1  0
 27 28  1  0
 27 31  1  0
 28 29  1  0
 29 30  1  0
 31 30  1  1
 31 32  1  0
 31 41  1  0
 32 33  1  0
 33 34  1  0
 34 35  1  0
 35 36  2  0
 35 41  1  0
 36 37  1  0
 37 38  1  0
 37 39  2  0
 39 40  1  0
 40 41  2  0
M  END
