
     RDKit          3D

 42 46  0  0  0  0  0  0  0  0999 V2000
    7.8000   -0.7710   -1.5750 C   0  0  0  0  0  0  0  0  0  0  0  0
    6.7410   -0.8180   -0.5260 C   0  0  2  0  0  0  0  0  0  0  0  0
    6.6630   -2.2200    0.0500 C   0  0  0  0  0  0  0  0  0  0  0  0
    5.2450   -2.4140    0.5830 C   0  0  0  0  0  0  0  0  0  0  0  0
    4.8790   -1.0780    1.2450 C   0  0  0  0  0  0  0  0  0  0  0  0
    4.5130   -0.0720    0.1500 C   0  0  2  0  0  0  0  0  0  0  0  0
    4.9640    1.1970    0.6220 O   0  0  0  0  0  0  0  0  0  0  0  0
    3.0640   -0.0370   -0.0640 C   0  0  0  0  0  0  0  0  0  0  0  0
    2.3010    0.5980    0.9120 C   0  0  0  0  0  0  0  0  0  0  0  0
    0.9150    0.6440    0.7720 C   0  0  0  0  0  0  0  0  0  0  0  0
    0.2860    0.0670   -0.3290 C   0  0  0  0  0  0  0  0  0  0  0  0
   -1.1030    0.0960   -0.4990 O   0  0  0  0  0  0  0  0  0  0  0  0
   -1.8740    0.8270    0.4110 C   0  0  0  0  0  0  0  0  0  0  0  0
   -2.4220    0.1750    1.5100 C   0  0  0  0  0  0  0  0  0  0  0  0
   -2.3050   -1.2710    1.6150 C   0  0  1  0  0  0  0  0  0  0  0  0
   -0.9940   -1.7720    1.6080 O   0  0  0  0  0  0  0  0  0  0  0  0
   -2.8480   -1.7850    2.9450 C   0  0  0  0  0  0  0  0  0  0  0  0
   -1.9740   -2.7470    3.6050 N   0  0  0  0  0  0  0  0  0  0  0  0
   -3.8880   -1.4890    3.4850 O   0  0  0  0  0  0  0  0  0  0  0  0
   -3.0700   -2.0250    0.5530 C   0  0  0  0  0  0  0  0  0  0  0  0
   -2.6980   -3.1340    0.1290 O   0  0  0  0  0  0  0  0  0  0  0  0
   -4.2730   -1.4830   -0.0230 N   0  0  0  0  0  0  0  0  0  0  0  0
   -4.9930   -2.2450   -0.9750 C   0  0  2  0  0  0  0  0  0  0  0  0
   -4.7520   -1.9500   -2.4420 C   0  0  0  0  0  0  0  0  0  0  0  0
   -5.9850   -2.7220   -2.9970 C   0  0  0  0  0  0  0  0  0  0  0  0
   -7.0100   -2.5330   -2.0880 O   0  0  0  0  0  0  0  0  0  0  0  0
   -6.4760   -1.9890   -0.9220 C   0  0  2  0  0  0  0  0  0  0  0  0
   -6.6970   -0.5880   -1.0130 O   0  0  0  0  0  0  0  0  0  0  0  0
   -3.1520    0.9790    2.3580 C   0  0  0  0  0  0  0  0  0  0  0  0
   -3.3270    2.3460    2.1200 C   0  0  0  0  0  0  0  0  0  0  0  0
   -2.7710    2.9320    1.0230 C   0  0  0  0  0  0  0  0  0  0  0  0
   -2.0400    2.1790    0.1640 C   0  0  0  0  0  0  0  0  0  0  0  0
   -1.4910    2.8140   -0.9350 O   0  0  0  0  0  0  0  0  0  0  0  0
   -0.9540    4.1070   -0.9020 C   0  0  0  0  0  0  0  0  0  0  0  0
   -1.9470    5.1770   -0.5950 C   0  0  2  0  0  0  0  0  0  0  0  0
   -1.2390    6.4080   -0.1140 C   0  0  0  0  0  0  0  0  0  0  0  0
   -1.5180    6.9390    0.9840 O   0  0  0  0  0  0  0  0  0  0  0  0
   -0.2480    7.0050   -0.8660 O   0  0  0  0  0  0  0  0  0  0  0  0
   -3.0360    4.6460    0.7450 S   0  0  0  0  0  0  0  0  0  0  0  0
    1.0740   -0.5420   -1.2600 C   0  0  0  0  0  0  0  0  0  0  0  0
    2.4620   -0.5980   -1.1330 C   0  0  0  0  0  0  0  0  0  0  0  0
    5.3670   -0.3770   -1.0380 C   0  0  0  0  0  0  0  0  0  0  0  0
  2  1  1  6
  2  3  1  0
  2 42  1  0
  3  4  1  0
  4  5  1  0
  5  6  1  0
  6  7  1  1
  6  8  1  0
  6 42  1  0
  8  9  2  0
  8 41  1  0
  9 10  1  0
 10 11  2  0
 11 12  1  0
 11 40  1  0
 12 13  1  0
 13 14  1  0
 13 32  2  0
 14 15  1  0
 14 29  2  0
 15 16  1  1
 15 17  1  0
 15 20  1  0
 17 18  1  0
 17 19  2  0
 20 21  2  0
 20 22  1  0
 23 22  1  1
 23 24  1  0
 23 27  1  0
 24 25  1  0
 25 26  1  0
 26 27  1  0
 27 28  1  6
 29 30  1  0
 30 31  2  0
 31 32  1  0
 31 39  1  0
 32 33  1  0
 33 34  1  0
 34 35  1  0
 35 36  1  1
 35 39  1  0
 36 37  2  0
 36 38  1  0
 40 41  2  0
M  END
