
     RDKit          3D

 43 47  0  0  0  0  0  0  0  0999 V2000
    1.5870   -5.3980   -2.1940 C   0  0  0  0  0  0  0  0  0  0  0  0
    1.7100   -4.2620   -1.4210 O   0  0  0  0  0  0  0  0  0  0  0  0
    2.4100   -4.0570   -0.2540 C   0  0  0  0  0  0  0  0  0  0  0  0
    3.1380   -5.1170    0.2680 C   0  0  0  0  0  0  0  0  0  0  0  0
    3.8470   -4.9350    1.4370 C   0  0  0  0  0  0  0  0  0  0  0  0
    3.8020   -3.6890    2.0510 C   0  0  0  0  0  0  0  0  0  0  0  0
    4.5460   -3.5890    3.2260 O   0  0  0  0  0  0  0  0  0  0  0  0
    3.0760   -2.6540    1.5180 C   0  0  0  0  0  0  0  0  0  0  0  0
    2.3670   -2.8040    0.3600 C   0  0  0  0  0  0  0  0  0  0  0  0
    1.6150   -1.8780   -0.2920 O   0  0  0  0  0  0  0  0  0  0  0  0
    1.4910   -0.4860    0.2380 C   0  0  2  0  0  0  0  0  0  0  0  0
    0.1420   -0.1140   -0.1620 C   0  0  0  0  0  0  0  0  0  0  0  0
   -0.3920    0.9840    0.1590 O   0  0  0  0  0  0  0  0  0  0  0  0
   -0.7070   -0.9600   -0.9380 N   0  0  0  0  0  0  0  0  0  0  0  0
   -2.0180   -0.8890   -1.4100 C   0  0  2  0  0  0  0  0  0  0  0  0
   -2.0340   -0.8790   -2.9650 C   0  0  0  0  0  0  0  0  0  0  0  0
   -2.6640    0.3700   -3.4970 C   0  0  0  0  0  0  0  0  0  0  0  0
   -2.5880    1.5960   -2.6670 C   0  0  0  0  0  0  0  0  0  0  0  0
   -2.5980    1.4250   -1.2800 O   0  0  0  0  0  0  0  0  0  0  0  0
   -3.0030    0.1200   -1.0130 C   0  0  2  0  0  0  0  0  0  0  0  0
   -3.8960   -0.0830    0.1050 C   0  0  0  0  0  0  0  0  0  0  0  0
   -3.8730   -1.1670    0.9320 C   0  0  0  0  0  0  0  0  0  0  0  0
   -4.8220   -1.3250    1.9490 C   0  0  0  0  0  0  0  0  0  0  0  0
   -5.7980   -0.3610    2.1200 C   0  0  0  0  0  0  0  0  0  0  0  0
   -5.8330    0.7290    1.3040 C   0  0  0  0  0  0  0  0  0  0  0  0
   -4.8870    0.8540    0.3110 C   0  0  0  0  0  0  0  0  0  0  0  0
   -5.1260    2.0400   -0.3870 O   0  0  0  0  0  0  0  0  0  0  0  0
   -5.9560    2.8790    0.4240 C   0  0  0  0  0  0  0  0  0  0  0  0
   -6.7560    1.9020    1.2590 C   0  0  2  0  0  0  0  0  0  0  0  0
   -6.9900    2.4120    2.5280 O   0  0  0  0  0  0  0  0  0  0  0  0
    2.7110    0.1810   -0.3060 C   0  0  2  0  0  0  0  0  0  0  0  0
    3.8040   -0.7520   -0.2800 O   0  0  0  0  0  0  0  0  0  0  0  0
    3.1690    1.4260    0.3420 C   0  0  0  0  0  0  0  0  0  0  0  0
    2.5690    2.6340    0.4230 C   0  0  0  0  0  0  0  0  0  0  0  0
    3.1570    3.7670    0.9290 C   0  0  0  0  0  0  0  0  0  0  0  0
    2.4950    5.0140    0.9760 O   0  0  0  0  0  0  0  0  0  0  0  0
    2.8910    6.1150   -0.3330 S   0  0  0  0  0  0  0  0  0  0  0  0
    4.4190    5.6050   -1.0550 N   0  0  0  0  0  0  0  0  0  0  0  0
    3.1800    7.5110    0.2380 O   0  0  0  0  0  0  0  0  0  0  0  0
    4.4470    3.7410    1.4100 C   0  0  0  0  0  0  0  0  0  0  0  0
    5.1110    2.5480    1.3580 C   0  0  0  0  0  0  0  0  0  0  0  0
    4.5130    1.4350    0.8500 C   0  0  0  0  0  0  0  0  0  0  0  0
    5.2340    0.2520    0.8280 O   0  0  0  0  0  0  0  0  0  0  0  0
  1  2  1  0
  2  3  1  0
  3  4  2  0
  3  9  1  0
  4  5  1  0
  5  6  2  0
  6  7  1  0
  6  8  1  0
  8  9  2  0
  9 10  1  0
 11 10  1  6
 11 12  1  0
 11 31  1  0
 12 13  2  0
 12 14  1  0
 15 14  1  6
 15 16  1  0
 15 20  1  0
 16 17  1  0
 17 18  1  0
 18 19  1  0
 19 20  1  0
 20 21  1  1
 21 22  2  0
 21 26  1  0
 22 23  1  0
 23 24  2  0
 24 25  1  0
 25 26  2  0
 25 29  1  0
 26 27  1  0
 27 28  1  0
 28 29  1  0
 29 30  1  1
 31 32  1  1
 31 33  1  0
 33 34  2  0
 33 42  1  0
 34 35  1  0
 35 36  1  0
 35 40  2  0
 36 37  1  0
 37 38  1  1
 37 39  2  0
 40 41  1  0
 41 42  2  0
 42 43  1  0
M  END
