
     RDKit          3D

 43 46  0  0  0  0  0  0  0  0999 V2000
    9.0530    2.1980   -0.1990 C   0  0  0  0  0  0  0  0  0  0  0  0
    8.1730    2.1240    1.0330 C   0  0  2  0  0  0  0  0  0  0  0  0
    9.0820    1.4940    2.4790 S   0  0  0  0  0  0  0  0  0  0  0  0
    9.0950   -0.3170    2.3430 C   0  0  0  0  0  0  0  0  0  0  0  0
    8.2840   -0.6630    1.1150 C   0  0  1  0  0  0  0  0  0  0  0  0
    8.1250   -2.0710    1.1150 O   0  0  0  0  0  0  0  0  0  0  0  0
    6.9280   -0.0530    1.1700 C   0  0  1  0  0  0  0  0  0  0  0  0
    6.4040   -0.2030    2.4290 O   0  0  0  0  0  0  0  0  0  0  0  0
    5.2430   -0.9660    2.4640 C   0  0  0  0  0  0  0  0  0  0  0  0
    4.1490   -0.3670    1.6520 C   0  0  0  0  0  0  0  0  0  0  0  0
    3.0430    0.2940    2.1390 C   0  0  0  0  0  0  0  0  0  0  0  0
    2.2800    0.6920    1.0570 C   0  0  0  0  0  0  0  0  0  0  0  0
    2.9500    0.2580   -0.0620 C   0  0  0  0  0  0  0  0  0  0  0  0
    2.5080    0.4580   -1.4600 C   0  0  0  0  0  0  0  0  0  0  0  0
    1.0400    0.4170   -1.5810 N   0  0  0  0  0  0  0  0  0  0  0  0
    0.3420   -0.7410   -1.2120 C   0  0  0  0  0  0  0  0  0  0  0  0
    1.0990   -1.6950   -0.7780 O   0  0  0  0  0  0  0  0  0  0  0  0
   -1.0970   -0.9560   -1.2720 C   0  0  0  0  0  0  0  0  0  0  0  0
   -1.5650   -2.1140   -0.8940 C   0  0  0  0  0  0  0  0  0  0  0  0
   -2.9370   -2.5390   -0.8860 C   0  0  0  0  0  0  0  0  0  0  0  0
   -3.9580   -1.4000   -1.0540 C   0  0  0  0  0  0  0  0  0  0  0  0
   -5.1990   -1.6990   -0.7560 C   0  0  0  0  0  0  0  0  0  0  0  0
   -5.4000   -3.1720   -0.3020 C   0  0  0  0  0  0  0  0  0  0  0  0
   -6.8260   -3.3600   -0.7660 C   0  0  0  0  0  0  0  0  0  0  0  0
   -7.4150   -2.2380   -0.2700 O   0  0  0  0  0  0  0  0  0  0  0  0
   -6.4990   -1.1680   -0.6290 C   0  0  1  0  0  0  0  0  0  0  0  0
   -6.8630   -0.1200    0.3550 C   0  0  0  0  0  0  0  0  0  0  0  0
   -6.6620   -0.3660    1.7960 C   0  0  0  0  0  0  0  0  0  0  0  0
   -5.2710   -0.5590    2.2780 C   0  0  0  0  0  0  0  0  0  0  0  0
   -4.5500    0.6230    1.9630 O   0  0  0  0  0  0  0  0  0  0  0  0
   -3.3950   -0.1760   -1.5150 C   0  0  0  0  0  0  0  0  0  0  0  0
   -4.2250    0.8700   -2.0550 C   0  0  0  0  0  0  0  0  0  0  0  0
   -3.6150    1.9520   -2.4370 O   0  0  0  0  0  0  0  0  0  0  0  0
   -5.5590    0.9310   -2.2470 O   0  0  0  0  0  0  0  0  0  0  0  0
   -6.2310    2.0160   -2.8000 C   0  0  0  0  0  0  0  0  0  0  0  0
   -6.0410    3.2410   -2.0230 C   0  0  0  0  0  0  0  0  0  0  0  0
   -5.2380    3.3220   -0.8850 N   0  0  0  0  0  0  0  0  0  0  0  0
   -6.6440    4.3200   -2.3980 O   0  0  0  0  0  0  0  0  0  0  0  0
   -2.0620    0.0600   -1.6120 C   0  0  0  0  0  0  0  0  0  0  0  0
   -1.6280    1.3200   -2.0510 O   0  0  0  0  0  0  0  0  0  0  0  0
    4.0290   -0.3500    0.3510 O   0  0  0  0  0  0  0  0  0  0  0  0
    6.8950    1.4010    0.7830 C   0  0  1  0  0  0  0  0  0  0  0  0
    5.8620    2.0680    1.4380 O   0  0  0  0  0  0  0  0  0  0  0  0
  2  1  1  6
  2  3  1  0
  2 42  1  0
  3  4  1  0
  4  5  1  0
  5  6  1  1
  5  7  1  0
  7  8  1  1
  7 42  1  0
  8  9  1  0
  9 10  1  0
 10 11  2  0
 10 41  1  0
 11 12  1  0
 12 13  2  0
 13 14  1  0
 13 41  1  0
 14 15  1  0
 15 16  1  0
 16 17  2  0
 16 18  1  0
 18 19  2  0
 18 39  1  0
 19 20  1  0
 20 21  1  0
 21 22  2  3
 21 31  1  0
 22 23  1  0
 22 26  1  0
 23 24  1  0
 24 25  1  0
 25 26  1  0
 26 27  1  1
 27 28  1  0
 28 29  1  0
 29 30  1  0
 31 32  1  0
 31 39  2  0
 32 33  2  0
 32 34  1  0
 34 35  1  0
 35 36  1  0
 36 37  1  0
 36 38  2  0
 39 40  1  0
 42 43  1  1
M  END
