
     RDKit          3D

 43 47  0  0  0  0  0  0  0  0999 V2000
   -5.1200    1.2060    2.9740 C   0  0  0  0  0  0  0  0  0  0  0  0
   -4.0010    0.2750    3.2350 C   0  0  0  0  0  0  0  0  0  0  0  0
   -2.7070    0.5870    2.4930 C   0  0  2  0  0  0  0  0  0  0  0  0
   -1.8490   -0.4620    2.9510 O   0  0  0  0  0  0  0  0  0  0  0  0
   -2.1450    1.8920    2.9060 C   0  0  0  0  0  0  0  0  0  0  0  0
   -1.5960    2.6930    1.9920 O   0  0  0  0  0  0  0  0  0  0  0  0
   -1.9420    2.6700    0.6790 C   0  0  2  0  0  0  0  0  0  0  0  0
   -2.8630    3.7620    0.2510 C   0  0  0  0  0  0  0  0  0  0  0  0
   -4.1670    3.8770    0.8650 C   0  0  0  0  0  0  0  0  0  0  0  0
   -5.3740    3.6080    0.1580 N   0  0  0  0  0  0  0  0  0  0  0  0
   -4.3630    4.2190    2.0630 O   0  0  0  0  0  0  0  0  0  0  0  0
   -2.1220    1.3060    0.1720 C   0  0  2  0  0  0  0  0  0  0  0  0
   -2.9480    0.4170    1.0430 C   0  0  0  0  0  0  0  0  0  0  0  0
   -0.7220    0.6480    0.1010 C   0  0  1  0  0  0  0  0  0  0  0  0
   -0.6710   -0.6540    0.1530 O   0  0  0  0  0  0  0  0  0  0  0  0
   -0.3280   -1.8670    0.4560 C   0  0  0  0  0  0  0  0  0  0  0  0
   -1.0680   -2.9290   -0.0740 C   0  0  0  0  0  0  0  0  0  0  0  0
   -0.7580   -4.2190    0.2080 C   0  0  0  0  0  0  0  0  0  0  0  0
    0.2890   -4.5550    1.0220 C   0  0  0  0  0  0  0  0  0  0  0  0
    0.6110   -5.9870    1.3200 C   0  0  0  0  0  0  0  0  0  0  0  0
   -0.2890   -6.8250    0.6430 O   0  0  0  0  0  0  0  0  0  0  0  0
    1.0310   -3.5410    1.5540 C   0  0  0  0  0  0  0  0  0  0  0  0
    0.7280   -2.2030    1.2760 C   0  0  0  0  0  0  0  0  0  0  0  0
    1.7900   -1.0430    1.9970 S   0  0  1  0  0  0  0  0  0  0  0  0
    1.1360   -0.1230    2.9810 O   0  0  0  0  0  0  0  0  0  0  0  0
    2.8580   -1.7590    2.8370 O   0  0  0  0  0  0  0  0  0  0  0  0
    2.6790   -0.0990    0.8820 N   0  0  0  0  0  0  0  0  0  0  0  0
    3.5550   -0.8450    0.0450 C   0  0  0  0  0  0  0  0  0  0  0  0
    4.3430   -0.0360   -0.9250 C   0  0  2  0  0  0  0  0  0  0  0  0
    3.4520    0.7070   -1.8710 C   0  0  0  0  0  0  0  0  0  0  0  0
    4.2080    1.3780   -2.8810 O   0  0  0  0  0  0  0  0  0  0  0  0
    5.3030    0.7460   -3.4410 C   0  0  0  0  0  0  0  0  0  0  0  0
    5.9070    1.2540   -4.6000 C   0  0  0  0  0  0  0  0  0  0  0  0
    6.9980    0.6200   -5.1530 C   0  0  0  0  0  0  0  0  0  0  0  0
    7.5100   -0.5160   -4.5820 C   0  0  0  0  0  0  0  0  0  0  0  0
    6.8970   -1.0020   -3.4350 C   0  0  0  0  0  0  0  0  0  0  0  0
    5.8010   -0.3840   -2.8590 C   0  0  0  0  0  0  0  0  0  0  0  0
    5.2020   -0.8920   -1.7060 O   0  0  0  0  0  0  0  0  0  0  0  0
   -0.1190    1.2590   -1.1640 C   0  0  0  0  0  0  0  0  0  0  0  0
   -1.2750    1.3980   -2.0800 C   0  0  0  0  0  0  0  0  0  0  0  0
   -2.5060    1.1610   -1.2800 C   0  0  2  0  0  0  0  0  0  0  0  0
   -3.5210    1.9360   -1.7320 O   0  0  0  0  0  0  0  0  0  0  0  0
   -2.8910   -0.1790   -1.5070 O   0  0  0  0  0  0  0  0  0  0  0  0
  1  2  1  0
  2  3  1  0
  3  4  1  1
  3  5  1  0
  3 13  1  0
  5  6  1  0
  6  7  1  0
  7  8  1  1
  7 12  1  0
  8  9  1  0
  9 10  1  0
  9 11  2  0
 12 13  1  1
 12 14  1  0
 12 41  1  0
 14 15  1  6
 14 39  1  0
 15 16  1  0
 16 17  2  0
 16 23  1  0
 17 18  1  0
 18 19  2  0
 19 20  1  0
 19 22  1  0
 20 21  1  0
 22 23  2  0
 23 24  1  0
 24 25  2  0
 24 26  2  0
 24 27  1  6
 27 28  1  0
 29 28  1  1
 29 30  1  0
 29 38  1  0
 30 31  1  0
 31 32  1  0
 32 33  2  0
 32 37  1  0
 33 34  1  0
 34 35  2  0
 35 36  1  0
 36 37  2  0
 37 38  1  0
 39 40  1  0
 40 41  1  0
 41 42  1  6
 41 43  1  0
M  END
