
     RDKit          3D

 43 47  0  0  0  0  0  0  0  0999 V2000
   -1.9750    7.6540   -1.3710 C   0  0  0  0  0  0  0  0  0  0  0  0
   -1.8900    6.3200   -0.9550 O   0  0  0  0  0  0  0  0  0  0  0  0
   -0.6830    5.7510   -0.6210 C   0  0  0  0  0  0  0  0  0  0  0  0
    0.4930    6.5200   -0.6940 C   0  0  0  0  0  0  0  0  0  0  0  0
    1.6880    5.9340   -0.3630 C   0  0  0  0  0  0  0  0  0  0  0  0
    1.7310    4.6310    0.0270 C   0  0  0  0  0  0  0  0  0  0  0  0
    2.9410    4.0680    0.3630 O   0  0  0  0  0  0  0  0  0  0  0  0
    0.5850    3.8200    0.1160 C   0  0  0  0  0  0  0  0  0  0  0  0
    0.6660    2.5880    0.4900 O   0  0  0  0  0  0  0  0  0  0  0  0
    0.7380    1.3560    0.8640 C   0  0  0  0  0  0  0  0  0  0  0  0
    0.3190    0.2430   -0.0240 C   0  0  2  0  0  0  0  0  0  0  0  0
   -0.9620    0.2920   -0.4620 O   0  0  0  0  0  0  0  0  0  0  0  0
   -1.7330   -0.3630   -1.3490 C   0  0  0  0  0  0  0  0  0  0  0  0
   -1.2110   -1.3910   -1.9180 O   0  0  0  0  0  0  0  0  0  0  0  0
   -3.0750    0.0330   -1.6770 C   0  0  0  0  0  0  0  0  0  0  0  0
   -3.2780    0.4270   -3.0460 C   0  0  0  0  0  0  0  0  0  0  0  0
   -2.2530    0.1860   -3.8760 O   0  0  0  0  0  0  0  0  0  0  0  0
   -1.9700    0.3650   -5.1920 C   0  0  0  0  0  0  0  0  0  0  0  0
   -4.4860    0.9920   -3.3570 C   0  0  0  0  0  0  0  0  0  0  0  0
   -5.4730    1.1800   -2.4120 C   0  0  0  0  0  0  0  0  0  0  0  0
   -5.2400    0.7940   -1.1270 C   0  0  0  0  0  0  0  0  0  0  0  0
   -4.0370    0.2180   -0.7650 C   0  0  0  0  0  0  0  0  0  0  0  0
   -3.8220   -0.1710    0.6410 C   0  0  1  0  0  0  0  0  0  0  0  0
   -4.7880    0.5050    1.5280 C   0  0  0  0  0  0  0  0  0  0  0  0
   -5.9390   -0.2900    1.9300 C   0  0  0  0  0  0  0  0  0  0  0  0
   -6.1110   -1.5480    1.1470 C   0  0  0  0  0  0  0  0  0  0  0  0
   -4.3540   -1.9150    0.7660 S   0  0  2  0  0  0  0  0  0  0  0  0
   -3.5930   -2.7190    2.1950 C   0  0  0  0  0  0  0  0  0  0  0  0
    0.5150   -1.1030    0.8480 C   0  0  2  0  0  0  0  0  0  0  0  0
    1.9210   -1.1440    1.2940 C   0  0  0  0  0  0  0  0  0  0  0  0
    2.4570   -2.4830    1.4040 N   0  0  2  0  0  0  0  0  0  0  0  0
    3.8710   -2.3560    1.7980 C   0  0  1  0  0  0  0  0  0  0  0  0
    3.8350   -2.3850    3.3260 C   0  0  0  0  0  0  0  0  0  0  0  0
    4.7040   -3.4780    1.3460 C   0  0  0  0  0  0  0  0  0  0  0  0
    4.2050   -4.6000    1.1350 O   0  0  0  0  0  0  0  0  0  0  0  0
    6.0910   -3.2670    1.1480 N   0  0  0  0  0  0  0  0  0  0  0  0
    6.9750   -4.3140    0.7100 C   0  0  2  0  0  0  0  0  0  0  0  0
    8.4340   -4.1170    0.7300 C   0  0  0  0  0  0  0  0  0  0  0  0
    7.7600   -3.9650   -0.5820 C   0  0  0  0  0  0  0  0  0  0  0  0
    2.4040   -3.1720    0.1260 C   0  0  0  0  0  0  0  0  0  0  0  0
    1.3880   -2.5050   -0.7570 C   0  0  0  0  0  0  0  0  0  0  0  0
    0.2810   -2.1330   -0.0250 O   0  0  0  0  0  0  0  0  0  0  0  0
   -0.6220    4.4380   -0.2210 C   0  0  0  0  0  0  0  0  0  0  0  0
  1  2  1  0
  2  3  1  0
  3  4  2  0
  3 43  1  0
  4  5  1  0
  5  6  2  0
  6  7  1  0
  6  8  1  0
  8  9  1  0
  8 43  2  0
  9 10  1  0
 11 10  1  1
 11 12  1  0
 11 29  1  0
 12 13  1  0
 13 14  2  0
 13 15  1  0
 15 16  2  0
 15 22  1  0
 16 17  1  0
 16 19  1  0
 17 18  1  0
 19 20  2  0
 20 21  1  0
 21 22  2  0
 23 22  1  6
 23 24  1  0
 23 27  1  0
 24 25  1  0
 25 26  1  0
 26 27  1  0
 27 28  1  1
 29 30  1  6
 29 42  1  0
 31 30  1  6
 31 32  1  0
 31 40  1  0
 32 33  1  1
 32 34  1  0
 34 35  2  0
 34 36  1  0
 37 36  1  1
 37 38  1  0
 37 39  1  0
 38 39  1  0
 40 41  1  0
 41 42  1  0
M  CHG  1  31   1
M  END
