
     RDKit          3D

 42 45  0  0  0  0  0  0  0  0999 V2000
    4.4940   -0.9530   -0.2690 C   0  0  0  0  0  0  0  0  0  0  0  0
    3.4620   -1.3330   -1.1020 O   0  0  0  0  0  0  0  0  0  0  0  0
    2.3150   -0.5920   -1.2900 C   0  0  0  0  0  0  0  0  0  0  0  0
    1.1400   -0.7550   -0.5410 C   0  0  0  0  0  0  0  0  0  0  0  0
    1.3370   -1.7810    0.4390 O   0  0  0  0  0  0  0  0  0  0  0  0
    1.8400   -1.4090    1.7040 C   0  0  0  0  0  0  0  0  0  0  0  0
    2.2300   -2.5880    2.5620 C   0  0  2  0  0  0  0  0  0  0  0  0
    1.1440   -3.3740    2.8180 O   0  0  0  0  0  0  0  0  0  0  0  0
    2.8670   -2.0760    3.8420 C   0  0  0  0  0  0  0  0  0  0  0  0
    2.9280   -0.7880    4.2300 C   0  0  0  0  0  0  0  0  0  0  0  0
    3.5370   -0.4480    5.3890 C   0  0  0  0  0  0  0  0  0  0  0  0
    4.0820   -2.0290    6.0260 S   0  0  0  0  0  0  0  0  0  0  0  0
    3.4560   -2.9990    4.6960 C   0  0  0  0  0  0  0  0  0  0  0  0
    3.5610   -4.4660    4.5290 C   0  0  0  0  0  0  0  0  0  0  0  0
   -0.0020   -0.0570   -0.7030 C   0  0  0  0  0  0  0  0  0  0  0  0
   -1.1970   -0.3620    0.0770 C   0  0  1  0  0  0  0  0  0  0  0  0
   -0.9760    0.2870    1.3380 O   0  0  0  0  0  0  0  0  0  0  0  0
   -2.5030    0.1880   -0.4670 C   0  0  2  0  0  0  0  0  0  0  0  0
   -2.7770   -0.2640   -1.8750 C   0  0  0  0  0  0  0  0  0  0  0  0
   -2.8670   -1.6810   -1.9240 O   0  0  0  0  0  0  0  0  0  0  0  0
   -2.5810    1.6290   -0.1890 C   0  0  0  0  0  0  0  0  0  0  0  0
   -3.5420    1.8950    0.9460 C   0  0  2  0  0  0  0  0  0  0  0  0
   -2.7730    2.1760    2.1500 N   0  0  0  0  0  0  0  0  0  0  0  0
   -4.3680    0.6740    1.0690 C   0  0  1  0  0  0  0  0  0  0  0  0
   -4.5860    0.3490    2.5160 C   0  0  0  0  0  0  0  0  0  0  0  0
   -4.7560    0.1130    3.6640 N   0  0  0  0  0  0  0  0  0  0  0  0
   -5.7810    0.9470    0.5190 C   0  0  0  0  0  0  0  0  0  0  0  0
   -6.5020   -0.2250    0.6890 O   0  0  0  0  0  0  0  0  0  0  0  0
   -3.6590   -0.4200    0.3790 C   0  0  2  0  0  0  0  0  0  0  0  0
   -3.2190   -1.5420    1.2490 C   0  0  0  0  0  0  0  0  0  0  0  0
   -4.6160   -0.9940   -0.5050 O   0  0  0  0  0  0  0  0  0  0  0  0
    0.0160    0.8990   -1.6910 C   0  0  0  0  0  0  0  0  0  0  0  0
    1.1370    1.1450   -2.4980 C   0  0  0  0  0  0  0  0  0  0  0  0
    2.2660    0.3780   -2.2640 C   0  0  0  0  0  0  0  0  0  0  0  0
    3.4630    0.5140   -2.9990 O   0  0  0  0  0  0  0  0  0  0  0  0
    4.0460    1.7190   -3.4720 C   0  0  0  0  0  0  0  0  0  0  0  0
    3.2770    2.9170   -2.9340 C   0  0  0  0  0  0  0  0  0  0  0  0
    2.0100    3.2020   -3.6520 C   0  0  0  0  0  0  0  0  0  0  0  0
    0.9240    2.1860   -3.5160 C   0  0  2  0  0  0  0  0  0  0  0  0
   -0.3310    2.7780   -3.3550 O   0  0  0  0  0  0  0  0  0  0  0  0
    0.8670    1.4440   -4.8640 C   0  0  0  0  0  0  0  0  0  0  0  0
   -0.1460    0.4940   -4.8500 O   0  0  0  0  0  0  0  0  0  0  0  0
  1  2  1  0
  2  3  1  0
  3  4  2  0
  3 34  1  0
  4  5  1  0
  4 15  1  0
  5  6  1  0
  6  7  1  0
  7  8  1  1
  7  9  1  0
  9 10  1  0
  9 13  2  0
 10 11  2  0
 11 12  1  0
 12 13  1  0
 13 14  1  0
 15 16  1  0
 15 32  2  0
 16 17  1  1
 16 18  1  0
 18 19  1  6
 18 21  1  0
 18 29  1  0
 19 20  1  0
 21 22  1  0
 22 23  1  1
 22 24  1  0
 24 25  1  1
 24 27  1  0
 24 29  1  0
 25 26  3  0
 27 28  1  0
 29 30  1  1
 29 31  1  0
 32 33  1  0
 33 34  2  0
 33 39  1  0
 34 35  1  0
 35 36  1  0
 36 37  1  0
 37 38  1  0
 38 39  1  0
 39 40  1  1
 39 41  1  0
 41 42  1  0
M  END
