
     RDKit          3D

 43 45  0  0  0  0  0  0  0  0999 V2000
   -3.4210    3.7120   -2.0610 C   0  0  0  0  0  0  0  0  0  0  0  0
   -4.0010    2.4340   -1.6280 C   0  0  0  0  0  0  0  0  0  0  0  0
   -4.5970    1.6940   -2.4590 O   0  0  0  0  0  0  0  0  0  0  0  0
   -3.9190    1.9860   -0.2880 N   0  0  0  0  0  0  0  0  0  0  0  0
   -4.4900    0.7450    0.1040 C   0  0  1  0  0  0  0  0  0  0  0  0
   -3.6000   -0.2070    0.8210 C   0  0  2  0  0  0  0  0  0  0  0  0
   -2.3770   -0.4320    0.2440 O   0  0  0  0  0  0  0  0  0  0  0  0
   -1.3040   -0.2200    1.0980 C   0  0  2  0  0  0  0  0  0  0  0  0
   -0.4620    0.8760    0.4960 C   0  0  1  0  0  0  0  0  0  0  0  0
    0.2870    1.6620    1.5480 C   0  0  0  0  0  0  0  0  0  0  0  0
    0.8070    2.7950    0.9580 O   0  0  0  0  0  0  0  0  0  0  0  0
    0.3280    0.4860   -0.5540 O   0  0  0  0  0  0  0  0  0  0  0  0
    1.1850   -0.5680   -0.2840 C   0  0  1  0  0  0  0  0  0  0  0  0
    2.2250   -0.1590    0.5460 O   0  0  0  0  0  0  0  0  0  0  0  0
    3.4770   -0.2220   -0.0790 C   0  0  2  0  0  0  0  0  0  0  0  0
    4.3590   -1.1170    0.7310 C   0  0  1  0  0  0  0  0  0  0  0  0
    4.4370   -2.4450   -0.0320 C   0  0  0  0  0  0  0  0  0  0  0  0
    5.1510   -2.3340   -1.2100 O   0  0  0  0  0  0  0  0  0  0  0  0
    5.5670   -0.6160    1.0960 O   0  0  0  0  0  0  0  0  0  0  0  0
    6.2600    0.1540    0.2170 C   0  0  1  0  0  0  0  0  0  0  0  0
    7.0110   -0.5810   -0.7100 O   0  0  0  0  0  0  0  0  0  0  0  0
    5.4780    1.2310   -0.4570 C   0  0  2  0  0  0  0  0  0  0  0  0
    5.9260    2.5700   -0.1140 N   0  0  0  0  0  0  0  0  0  0  0  0
    6.3760    3.4520   -1.1060 C   0  0  0  0  0  0  0  0  0  0  0  0
    6.8360    4.8330   -0.7340 C   0  0  0  0  0  0  0  0  0  0  0  0
    6.3970    3.0900   -2.3240 O   0  0  0  0  0  0  0  0  0  0  0  0
    3.9980    1.1890   -0.1730 C   0  0  1  0  0  0  0  0  0  0  0  0
    3.3480    1.9000   -1.1580 O   0  0  0  0  0  0  0  0  0  0  0  0
    0.4700   -1.7790    0.2520 C   0  0  2  0  0  0  0  0  0  0  0  0
   -0.2010   -2.5500   -0.7640 N   0  0  0  0  0  0  0  0  0  0  0  0
    0.1930   -3.8910   -1.0440 C   0  0  0  0  0  0  0  0  0  0  0  0
   -0.5250   -4.6510   -2.0990 C   0  0  0  0  0  0  0  0  0  0  0  0
    1.1500   -4.4230   -0.3930 O   0  0  0  0  0  0  0  0  0  0  0  0
   -0.4860   -1.4660    1.3500 C   0  0  1  0  0  0  0  0  0  0  0  0
    0.2180   -1.2750    2.5580 O   0  0  0  0  0  0  0  0  0  0  0  0
   -4.2720   -1.4480    0.8170 O   0  0  0  0  0  0  0  0  0  0  0  0
   -5.4590   -1.4200    1.4920 C   0  0  2  0  0  0  0  0  0  0  0  0
   -6.1580   -2.7540    1.1880 C   0  0  0  0  0  0  0  0  0  0  0  0
   -7.3830   -2.8490    1.8170 O   0  0  0  0  0  0  0  0  0  0  0  0
   -6.4220   -0.3500    1.0800 C   0  0  1  0  0  0  0  0  0  0  0  0
   -7.4840   -0.3430    1.9800 O   0  0  0  0  0  0  0  0  0  0  0  0
   -5.7040    0.9650    1.0290 C   0  0  2  0  0  0  0  0  0  0  0  0
   -6.4640    2.0120    0.5710 O   0  0  0  0  0  0  0  0  0  0  0  0
  1  2  1  0
  2  3  2  0
  2  4  1  0
  5  4  1  1
  5  6  1  0
  5 42  1  0
  6  7  1  6
  6 36  1  0
  8  7  1  6
  8  9  1  0
  8 34  1  0
  9 10  1  1
  9 12  1  0
 10 11  1  0
 12 13  1  0
 13 14  1  1
 13 29  1  0
 15 14  1  1
 15 16  1  0
 15 27  1  0
 16 17  1  6
 16 19  1  0
 17 18  1  0
 19 20  1  0
 20 21  1  6
 20 22  1  0
 22 23  1  1
 22 27  1  0
 23 24  1  0
 24 25  1  0
 24 26  2  0
 27 28  1  6
 29 30  1  6
 29 34  1  0
 30 31  1  0
 31 32  1  0
 31 33  2  0
 34 35  1  1
 36 37  1  0
 37 38  1  6
 37 40  1  0
 38 39  1  0
 40 41  1  1
 40 42  1  0
 42 43  1  6
M  END
