
     RDKit          3D

 30 32  0  0  0  0  0  0  0  0999 V2000
    0.9790   -4.0790    1.4990 C   0  0  0  0  0  0  0  0  0  0  0  0
    0.6900   -3.0080    0.6180 O   0  0  0  0  0  0  0  0  0  0  0  0
   -0.1150   -1.9370    0.9520 C   0  0  0  0  0  0  0  0  0  0  0  0
   -0.6100   -1.9310    2.1080 O   0  0  0  0  0  0  0  0  0  0  0  0
   -0.3830   -0.8550    0.0110 C   0  0  2  0  0  0  0  0  0  0  0  0
    0.9430   -0.3110   -0.4160 C   0  0  0  0  0  0  0  0  0  0  0  0
    1.9660   -0.0380    0.4060 N   0  0  0  0  0  0  0  0  0  0  0  0
    2.9870    0.4330   -0.3240 C   0  0  0  0  0  0  0  0  0  0  0  0
    4.3140    0.8720    0.0820 C   0  0  0  0  0  0  0  0  0  0  0  0
    5.2490    1.3330   -0.8200 C   0  0  0  0  0  0  0  0  0  0  0  0
    6.5100    1.7490   -0.4270 C   0  0  0  0  0  0  0  0  0  0  0  0
    6.8740    1.7140    0.9030 C   0  0  0  0  0  0  0  0  0  0  0  0
    8.1230    2.1180    1.3510 O   0  0  0  0  0  0  0  0  0  0  0  0
    5.9030    1.2430    1.7830 C   0  0  0  0  0  0  0  0  0  0  0  0
    4.6850    0.8440    1.3770 N   0  0  0  0  0  0  0  0  0  0  0  0
    2.5210    0.4220   -1.5850 N   0  0  0  0  0  0  0  0  0  0  0  0
    1.3220   -0.0160   -1.6200 O   0  0  0  0  0  0  0  0  0  0  0  0
   -1.1710    0.2600    0.7350 C   0  0  0  0  0  0  0  0  0  0  0  0
   -2.5080   -0.1800    0.6530 N   0  0  0  0  0  0  0  0  0  0  0  0
   -3.5450    0.6810    1.0250 C   0  0  0  0  0  0  0  0  0  0  0  0
   -3.8000    1.8830    0.1680 C   0  0  1  0  0  0  0  0  0  0  0  0
   -4.1250    1.5570   -1.1490 O   0  0  0  0  0  0  0  0  0  0  0  0
   -5.2740    2.7680    0.8800 P   0  0  0  0  0  0  0  0  0  0  0  0
   -6.7310    2.3550    0.0750 O   0  0  0  0  0  0  0  0  0  0  0  0
   -5.0400    4.4810    0.7710 O   0  0  0  0  0  0  0  0  0  0  0  0
   -2.6750   -0.9950   -0.4970 C   0  0  0  0  0  0  0  0  0  0  0  0
   -1.2890   -1.1670   -1.1280 C   0  0  1  0  0  0  0  0  0  0  0  0
   -1.0960   -0.1850   -2.2620 C   0  0  0  0  0  0  0  0  0  0  0  0
   -1.1520   -2.5430   -1.7130 C   0  0  0  0  0  0  0  0  0  0  0  0
   -1.4230   -3.5070   -0.7720 O   0  0  0  0  0  0  0  0  0  0  0  0
  1  2  1  0
  2  3  1  0
  3  4  2  0
  5  3  1  1
  5  6  1  0
  5 18  1  0
  5 27  1  0
  6  7  2  0
  6 17  1  0
  7  8  1  0
  8  9  1  0
  8 16  2  0
  9 10  2  0
  9 15  1  0
 10 11  1  0
 11 12  2  0
 12 13  1  0
 12 14  1  0
 14 15  2  0
 16 17  1  0
 18 19  1  0
 19 20  1  0
 19 26  1  0
 20 21  1  0
 21 22  1  6
 21 23  1  0
 23 24  1  0
 23 25  1  0
 26 27  1  0
 27 28  1  6
 27 29  1  0
 29 30  1  0
M  END
