
     RDKit          3D

 31 33  0  0  0  0  0  0  0  0999 V2000
    6.2410   -3.5160    1.1280 O   0  0  0  0  0  0  0  0  0  0  0  0
    6.2340   -2.5590    0.2990 C   0  0  0  0  0  0  0  0  0  0  0  0
    7.3550   -2.2000   -0.4010 O   0  0  0  0  0  0  0  0  0  0  0  0
    4.9860   -1.8270    0.0970 C   0  0  0  0  0  0  0  0  0  0  0  0
    3.8420   -2.1410    0.7660 C   0  0  0  0  0  0  0  0  0  0  0  0
    2.6670   -1.4190    0.5470 C   0  0  0  0  0  0  0  0  0  0  0  0
    2.5900   -0.3810   -0.3280 C   0  0  0  0  0  0  0  0  0  0  0  0
    1.4360    0.3810   -0.5830 N   0  0  0  0  0  0  0  0  0  0  0  0
    0.1840    0.2620    0.0520 C   0  0  0  0  0  0  0  0  0  0  0  0
    0.0030   -0.5740    0.9340 O   0  0  0  0  0  0  0  0  0  0  0  0
   -0.9100    1.2040   -0.4030 C   0  0  2  0  0  0  0  0  0  0  0  0
   -0.4000    2.5910   -0.1540 C   0  0  0  0  0  0  0  0  0  0  0  0
   -1.3890    3.6580   -0.5610 C   0  0  0  0  0  0  0  0  0  0  0  0
   -0.5810    5.3090   -0.1780 P   0  0  0  0  0  0  0  0  0  0  0  0
   -1.6630    6.6060   -0.5090 O   0  0  0  0  0  0  0  0  0  0  0  0
   -0.0700    5.3540    1.4750 O   0  0  0  0  0  0  0  0  0  0  0  0
   -2.1230    0.9710    0.3140 N   0  0  0  0  0  0  0  0  0  0  0  0
   -2.8140   -0.2700    0.3020 C   0  0  0  0  0  0  0  0  0  0  0  0
   -2.3900   -1.3760   -0.2540 N   0  0  0  0  0  0  0  0  0  0  0  0
   -3.3420   -2.4140   -0.0680 C   0  0  0  0  0  0  0  0  0  0  0  0
   -3.3980   -3.7220   -0.4330 N   0  0  0  0  0  0  0  0  0  0  0  0
   -4.4710   -4.4450   -0.0890 C   0  0  0  0  0  0  0  0  0  0  0  0
   -4.5080   -5.6700   -0.4390 O   0  0  0  0  0  0  0  0  0  0  0  0
   -5.4900   -3.9850    0.5840 O   0  0  0  0  0  0  0  0  0  0  0  0
   -5.4990   -2.7280    0.9680 C   0  0  0  0  0  0  0  0  0  0  0  0
   -6.4930   -2.2700    1.6270 O   0  0  0  0  0  0  0  0  0  0  0  0
   -4.4300   -1.9460    0.6430 C   0  0  0  0  0  0  0  0  0  0  0  0
   -4.1180   -0.5350    0.9050 C   0  0  0  0  0  0  0  0  0  0  0  0
   -4.8690    0.2480    1.5350 O   0  0  0  0  0  0  0  0  0  0  0  0
    3.7750   -0.0740   -1.0050 C   0  0  0  0  0  0  0  0  0  0  0  0
    4.9380   -0.7810   -0.7950 C   0  0  0  0  0  0  0  0  0  0  0  0
  1  2  2  0
  2  3  1  0
  2  4  1  0
  4  5  2  0
  4 31  1  0
  5  6  1  0
  6  7  2  0
  7  8  1  0
  7 30  1  0
  8  9  1  0
  9 10  2  0
  9 11  1  0
 11 12  1  1
 11 17  1  0
 12 13  1  0
 13 14  1  0
 14 15  1  0
 14 16  1  0
 17 18  1  0
 18 19  2  0
 18 28  1  0
 19 20  1  0
 20 21  1  0
 20 27  2  0
 21 22  1  0
 22 23  2  0
 22 24  1  0
 24 25  1  0
 25 26  2  0
 25 27  1  0
 27 28  1  0
 28 29  2  0
 30 31  2  0
M  END
