
     RDKit          3D

 30 32  0  0  0  0  0  0  0  0999 V2000
   -0.2830   -6.6200   -0.0730 O   0  0  0  0  0  0  0  0  0  0  0  0
   -1.2550   -5.8780   -0.4320 C   0  0  0  0  0  0  0  0  0  0  0  0
   -2.3830   -6.5050   -0.8960 O   0  0  0  0  0  0  0  0  0  0  0  0
   -1.1160   -4.4690   -0.3310 N   0  0  0  0  0  0  0  0  0  0  0  0
   -2.1000   -3.7390    0.0840 C   0  0  0  0  0  0  0  0  0  0  0  0
   -3.3090   -4.3130    0.4390 O   0  0  0  0  0  0  0  0  0  0  0  0
   -4.3230   -3.5470    1.0430 C   0  0  0  0  0  0  0  0  0  0  0  0
   -4.3960   -2.1210    0.4820 C   0  0  0  0  0  0  0  0  0  0  0  0
   -3.0420   -1.5640    0.6380 N   0  0  0  0  0  0  0  0  0  0  0  0
   -1.9150   -2.2720    0.1760 C   0  0  0  0  0  0  0  0  0  0  0  0
   -0.8010   -1.7260   -0.1460 C   0  0  0  0  0  0  0  0  0  0  0  0
   -0.4330   -0.3090   -0.1240 C   0  0  0  0  0  0  0  0  0  0  0  0
   -1.1950    0.5620    0.2190 N   0  0  0  0  0  0  0  0  0  0  0  0
   -1.7360    1.6460    0.5100 O   0  0  0  0  0  0  0  0  0  0  0  0
   -1.5820    3.0000    0.4520 C   0  0  0  0  0  0  0  0  0  0  0  0
   -2.7370    3.7800    1.0420 C   0  0  2  0  0  0  0  0  0  0  0  0
   -4.1070    3.6400    0.4940 C   0  0  0  0  0  0  0  0  0  0  0  0
   -3.3050    4.8480    0.1050 C   0  0  0  0  0  0  0  0  0  0  0  0
    0.9750   -0.0140   -0.5600 C   0  0  1  0  0  0  0  0  0  0  0  0
    1.2450    1.4390   -0.5120 C   0  0  0  0  0  0  0  0  0  0  0  0
    2.4660    1.8490   -0.9810 O   0  0  0  0  0  0  0  0  0  0  0  0
    3.3620    0.9030   -1.3530 C   0  0  0  0  0  0  0  0  0  0  0  0
    4.1380    0.2950   -0.2080 C   0  0  1  0  0  0  0  0  0  0  0  0
    4.7830    1.3400    0.6650 C   0  0  0  0  0  0  0  0  0  0  0  0
    5.9740    2.4060   -0.2540 P   0  0  0  0  0  0  0  0  0  0  0  0
    7.2510    2.9380    0.7850 O   0  0  0  0  0  0  0  0  0  0  0  0
    6.5670    1.6520   -1.6910 O   0  0  0  0  0  0  0  0  0  0  0  0
    3.1810   -0.4630    0.6390 C   0  0  0  0  0  0  0  0  0  0  0  0
    3.5960   -0.9370    1.7380 O   0  0  0  0  0  0  0  0  0  0  0  0
    1.8010   -0.7600    0.4050 N   0  0  0  0  0  0  0  0  0  0  0  0
  1  2  2  0
  2  3  1  0
  2  4  1  0
  4  5  2  3
  5  6  1  0
  5 10  1  0
  6  7  1  0
  7  8  1  0
  8  9  1  0
  9 10  1  0
 10 11  2  3
 11 12  1  0
 12 13  2  3
 19 12  1  1
 13 14  1  0
 14 15  1  0
 16 15  1  6
 16 17  1  0
 16 18  1  0
 17 18  1  0
 19 20  1  0
 19 30  1  0
 20 21  1  0
 21 22  1  0
 22 23  1  0
 23 24  1  1
 23 28  1  0
 24 25  1  0
 25 26  1  0
 25 27  1  0
 28 29  2  0
 28 30  1  0
M  END
