
     RDKit          3D

 31 33  0  0  0  0  0  0  0  0999 V2000
    6.1380    3.9190   -2.5830 N   0  0  0  0  0  0  0  0  0  0  0  0
    5.1060    3.0440   -2.1120 C   0  0  0  0  0  0  0  0  0  0  0  0
    4.7200    2.1100   -2.8570 O   0  0  0  0  0  0  0  0  0  0  0  0
    4.5480    3.2490   -0.8300 N   0  0  0  0  0  0  0  0  0  0  0  0
    3.5010    2.3920   -0.3070 C   0  0  2  0  0  0  0  0  0  0  0  0
    2.4160    3.2140    0.3560 C   0  0  0  0  0  0  0  0  0  0  0  0
    2.4570    2.3170    1.4660 N   0  0  0  0  0  0  0  0  0  0  0  0
    1.6340    1.8500    2.5360 C   0  0  0  0  0  0  0  0  0  0  0  0
    0.4660    2.3040    2.6330 O   0  0  0  0  0  0  0  0  0  0  0  0
    2.0400    0.9360    3.4650 O   0  0  0  0  0  0  0  0  0  0  0  0
    1.2970    0.4310    4.5400 C   0  0  0  0  0  0  0  0  0  0  0  0
    0.1130   -0.2470    4.1740 O   0  0  0  0  0  0  0  0  0  0  0  0
    0.0720   -1.3660    3.3800 C   0  0  0  0  0  0  0  0  0  0  0  0
    1.1680   -1.8120    2.9460 O   0  0  0  0  0  0  0  0  0  0  0  0
   -1.1970   -2.0630    3.0180 C   0  0  2  0  0  0  0  0  0  0  0  0
   -0.9680   -3.2780    2.1930 C   0  0  0  0  0  0  0  0  0  0  0  0
   -1.5270   -2.9850    0.8430 C   0  0  0  0  0  0  0  0  0  0  0  0
   -2.2940   -1.8130    0.9080 N   0  0  0  0  0  0  0  0  0  0  0  0
   -3.0820   -1.1660   -0.0830 C   0  0  0  0  0  0  0  0  0  0  0  0
   -3.6860   -0.0880    0.3120 O   0  0  0  0  0  0  0  0  0  0  0  0
   -3.2880   -1.5510   -1.4360 C   0  0  0  0  0  0  0  0  0  0  0  0
   -4.0930   -0.7920   -2.2100 C   0  0  0  0  0  0  0  0  0  0  0  0
   -4.4010   -1.0560   -3.6110 C   0  0  1  0  0  0  0  0  0  0  0  0
   -5.7900   -1.2670   -3.7780 O   0  0  0  0  0  0  0  0  0  0  0  0
   -3.9790    0.4020   -4.7110 P   0  0  0  0  0  0  0  0  0  0  0  0
   -4.6220    1.7830   -4.4060 O   0  0  0  0  0  0  0  0  0  0  0  0
   -3.7650   -2.1930   -4.1070 O   0  0  0  0  0  0  0  0  0  0  0  0
   -2.9370   -2.9970   -3.3630 C   0  0  0  0  0  0  0  0  0  0  0  0
   -2.7010   -2.6970   -2.0800 C   0  0  0  0  0  0  0  0  0  0  0  0
   -2.1700   -1.2620    2.2770 C   0  0  0  0  0  0  0  0  0  0  0  0
    3.8210    1.9780    1.0990 C   0  0  0  0  0  0  0  0  0  0  0  0
  1  2  1  0
  2  3  2  0
  2  4  1  0
  5  4  1  1
  5  6  1  0
  5 31  1  0
  6  7  1  0
  7  8  1  0
  7 31  1  0
  8  9  2  0
  8 10  1  0
 10 11  1  0
 11 12  1  0
 12 13  1  0
 13 14  2  0
 15 13  1  6
 15 16  1  0
 15 30  1  0
 16 17  1  0
 17 18  1  0
 18 19  1  0
 18 30  1  0
 19 20  2  0
 19 21  1  0
 21 22  2  0
 21 29  1  0
 22 23  1  0
 23 24  1  1
 23 25  1  0
 23 27  1  0
 25 26  2  0
 27 28  1  0
 28 29  2  0
M  END
