
     RDKit          3D

 31 33  0  0  0  0  0  0  0  0999 V2000
   -5.6880    2.3950   -1.0120 C   0  0  0  0  0  0  0  0  0  0  0  0
   -4.5090    1.6650   -0.4830 C   0  0  0  0  0  0  0  0  0  0  0  0
   -4.3180    0.3320   -0.7630 C   0  0  0  0  0  0  0  0  0  0  0  0
   -3.2210   -0.3630   -0.2760 C   0  0  0  0  0  0  0  0  0  0  0  0
   -3.1100   -1.6810   -0.5800 N   0  0  0  0  0  0  0  0  0  0  0  0
   -2.0770   -2.4040   -0.1210 C   0  0  0  0  0  0  0  0  0  0  0  0
   -1.8960   -3.7320   -0.3620 C   0  0  0  0  0  0  0  0  0  0  0  0
   -2.7550   -4.3170   -1.0820 O   0  0  0  0  0  0  0  0  0  0  0  0
   -0.8640   -4.4490    0.1190 N   0  0  0  0  0  0  0  0  0  0  0  0
    0.0390   -3.7950    0.8870 C   0  0  0  0  0  0  0  0  0  0  0  0
    1.0190   -4.4570    1.3490 O   0  0  0  0  0  0  0  0  0  0  0  0
   -0.0720   -2.4860    1.1680 N   0  0  0  0  0  0  0  0  0  0  0  0
   -1.0830   -1.7130    0.7140 C   0  0  0  0  0  0  0  0  0  0  0  0
   -1.1860   -0.4060    1.0180 N   0  0  0  0  0  0  0  0  0  0  0  0
   -0.1890    0.2690    1.8200 C   0  0  0  0  0  0  0  0  0  0  0  0
    0.9320    0.8990    1.1060 C   0  0  2  0  0  0  0  0  0  0  0  0
    0.4610    1.8550    0.1860 O   0  0  0  0  0  0  0  0  0  0  0  0
    1.9520    0.0990    0.4230 C   0  0  2  0  0  0  0  0  0  0  0  0
    1.5070   -0.6080   -0.6890 O   0  0  0  0  0  0  0  0  0  0  0  0
    2.8570   -0.7550    1.2300 C   0  0  2  0  0  0  0  0  0  0  0  0
    3.3420   -0.0970    2.3770 O   0  0  0  0  0  0  0  0  0  0  0  0
    4.1300   -0.9830    0.3880 C   0  0  0  0  0  0  0  0  0  0  0  0
    4.6890    0.2750    0.1080 O   0  0  0  0  0  0  0  0  0  0  0  0
    6.0900    0.0960   -0.8140 P   0  0  1  0  0  0  0  0  0  0  0  0
    7.1740   -0.4430    0.0810 O   0  0  0  0  0  0  0  0  0  0  0  0
    5.7380   -0.9840   -2.0880 O   0  0  0  0  0  0  0  0  0  0  0  0
    6.5150    1.5690   -1.5250 O   0  0  0  0  0  0  0  0  0  0  0  0
   -2.2720    0.2550    0.5110 C   0  0  0  0  0  0  0  0  0  0  0  0
   -2.4760    1.5860    0.7840 C   0  0  0  0  0  0  0  0  0  0  0  0
   -3.5780    2.3030    0.3000 C   0  0  0  0  0  0  0  0  0  0  0  0
   -3.7590    3.7540    0.6230 C   0  0  0  0  0  0  0  0  0  0  0  0
  1  2  1  0
  2  3  2  0
  2 30  1  0
  3  4  1  0
  4  5  1  0
  4 28  2  0
  5  6  2  0
  6  7  1  0
  6 13  1  0
  7  8  2  0
  7  9  1  0
  9 10  1  0
 10 11  2  0
 10 12  1  0
 12 13  2  0
 13 14  1  0
 14 15  1  0
 14 28  1  0
 15 16  1  0
 16 17  1  6
 16 18  1  0
 18 19  1  6
 18 20  1  0
 20 21  1  1
 20 22  1  0
 22 23  1  0
 23 24  1  0
 24 25  2  0
 24 26  1  6
 24 27  1  0
 28 29  1  0
 29 30  2  0
 30 31  1  0
M  END
