
     RDKit          3D

 31 33  0  0  0  0  0  0  0  0999 V2000
    0.0140   -1.5030   -0.5160 O   0  0  0  0  0  0  0  0  0  0  0  0
   -1.2020   -1.3490   -0.2570 C   0  0  0  0  0  0  0  0  0  0  0  0
   -2.0220   -2.4960   -0.1090 N   0  0  0  0  0  0  0  0  0  0  0  0
   -1.5160   -3.8480   -0.2440 C   0  0  0  0  0  0  0  0  0  0  0  0
   -2.6610   -4.8120   -0.0230 C   0  0  0  0  0  0  0  0  0  0  0  0
   -3.6790   -4.6190   -0.9480 O   0  0  0  0  0  0  0  0  0  0  0  0
   -1.7350   -0.0060   -0.1170 C   0  0  0  0  0  0  0  0  0  0  0  0
   -0.9410    1.0380   -0.2620 C   0  0  0  0  0  0  0  0  0  0  0  0
    0.4370    0.8110   -0.5570 N   0  0  0  0  0  0  0  0  0  0  0  0
    1.2600    1.7470   -0.2460 C   0  0  0  0  0  0  0  0  0  0  0  0
    0.9070    2.9050    0.3280 N   0  0  0  0  0  0  0  0  0  0  0  0
    1.7920    3.8650    0.6420 C   0  0  0  0  0  0  0  0  0  0  0  0
    3.0950    3.6800    0.3760 N   0  0  0  0  0  0  0  0  0  0  0  0
    3.5390    2.5470   -0.2000 C   0  0  0  0  0  0  0  0  0  0  0  0
    2.6190    1.5560   -0.5210 C   0  0  0  0  0  0  0  0  0  0  0  0
    2.9480    0.3200   -1.1980 C   0  0  0  0  0  0  0  0  0  0  0  0
    2.2170   -0.0820   -2.1750 O   0  0  0  0  0  0  0  0  0  0  0  0
    4.0890   -0.5200   -0.8250 C   0  0  0  0  0  0  0  0  0  0  0  0
    4.8660   -0.2490    0.1920 C   0  0  0  0  0  0  0  0  0  0  0  0
    6.0220   -1.0880    0.5710 C   0  0  0  0  0  0  0  0  0  0  0  0
    6.1700   -2.1840   -0.2670 O   0  0  0  0  0  0  0  0  0  0  0  0
    5.3630   -2.4860   -1.3430 C   0  0  0  0  0  0  0  0  0  0  0  0
    4.3520   -1.7120   -1.6460 C   0  0  0  0  0  0  0  0  0  0  0  0
   -1.4590    2.3290   -0.1270 O   0  0  0  0  0  0  0  0  0  0  0  0
   -2.6880    2.5990    0.4920 C   0  0  0  0  0  0  0  0  0  0  0  0
   -3.6440    1.4420    0.4730 C   0  0  1  0  0  0  0  0  0  0  0  0
   -4.6220    1.7030   -0.4960 O   0  0  0  0  0  0  0  0  0  0  0  0
   -6.1960    1.8510    0.1630 P   0  0  0  0  0  0  0  0  0  0  0  0
   -6.2300    1.7520    1.8800 O   0  0  0  0  0  0  0  0  0  0  0  0
   -6.9920    3.2840   -0.3620 O   0  0  0  0  0  0  0  0  0  0  0  0
   -3.0570    0.2160    0.1650 O   0  0  0  0  0  0  0  0  0  0  0  0
  1  2  2  0
  2  3  1  0
  2  7  1  0
  3  4  1  0
  4  5  1  0
  5  6  1  0
  7  8  2  0
  7 31  1  0
  8  9  1  0
  8 24  1  0
  9 10  2  3
 10 11  1  0
 10 15  1  0
 11 12  2  0
 12 13  1  0
 13 14  1  0
 14 15  2  0
 15 16  1  0
 16 17  2  0
 16 18  1  0
 18 19  2  0
 18 23  1  0
 19 20  1  0
 20 21  1  0
 21 22  1  0
 22 23  2  0
 24 25  1  0
 25 26  1  0
 26 27  1  6
 26 31  1  0
 27 28  1  0
 28 29  1  0
 28 30  1  0
M  END
