
     RDKit          3D

 34 36  0  0  0  0  0  0  0  0999 V2000
   -4.0140   -5.0300    0.9360 C   0  0  0  0  0  0  0  0  0  0  0  0
   -4.1020   -3.6260    0.7700 O   0  0  0  0  0  0  0  0  0  0  0  0
   -2.9300   -2.9070    0.7010 C   0  0  0  0  0  0  0  0  0  0  0  0
   -1.8100   -3.5070    0.7860 O   0  0  0  0  0  0  0  0  0  0  0  0
   -2.9360   -1.4260    0.5270 C   0  0  0  0  0  0  0  0  0  0  0  0
   -4.1170   -0.8660    0.4460 C   0  0  0  0  0  0  0  0  0  0  0  0
   -4.5450    0.5270    0.2750 C   0  0  0  0  0  0  0  0  0  0  0  0
   -5.7570    0.8300    1.1700 C   0  0  1  0  0  0  0  0  0  0  0  0
   -6.3020    2.0620    0.9410 F   0  0  0  0  0  0  0  0  0  0  0  0
   -6.7400   -0.0980    0.9820 F   0  0  0  0  0  0  0  0  0  0  0  0
   -4.1070    1.5160   -0.4440 C   0  0  0  0  0  0  0  0  0  0  0  0
   -3.1070    1.8960   -1.3810 C   0  0  0  0  0  0  0  0  0  0  0  0
   -3.3330    1.3940   -2.7250 O   0  0  0  0  0  0  0  0  0  0  0  0
   -4.3280    2.0460   -3.4900 C   0  0  0  0  0  0  0  0  0  0  0  0
   -1.9740    2.6290   -1.3420 C   0  0  0  0  0  0  0  0  0  0  0  0
   -1.2830    3.3540   -0.3140 C   0  0  0  0  0  0  0  0  0  0  0  0
   -0.1710    3.1710    0.3620 C   0  0  0  0  0  0  0  0  0  0  0  0
    0.9160    2.2250    0.4640 C   0  0  0  0  0  0  0  0  0  0  0  0
    1.0590    1.0650    1.0950 C   0  0  0  0  0  0  0  0  0  0  0  0
    2.3810    0.4340    0.9110 C   0  0  0  0  0  0  0  0  0  0  0  0
    2.7170   -0.7210    1.4550 C   0  0  0  0  0  0  0  0  0  0  0  0
    4.0230   -1.2980    1.2450 C   0  0  0  0  0  0  0  0  0  0  0  0
    4.9630   -0.7390    0.5160 C   0  0  0  0  0  0  0  0  0  0  0  0
    6.2430   -1.2900    0.3020 N   0  0  0  0  0  0  0  0  0  0  0  0
    7.1810   -0.6030   -0.5020 C   0  0  0  0  0  0  0  0  0  0  0  0
    8.5300   -1.1570   -0.7430 C   0  0  0  0  0  0  0  0  0  0  0  0
    6.8610    0.5620   -1.0590 C   0  0  0  0  0  0  0  0  0  0  0  0
    5.5380    1.1340   -0.8390 C   0  0  0  0  0  0  0  0  0  0  0  0
    4.6170    0.5380   -0.0960 C   0  0  0  0  0  0  0  0  0  0  0  0
    3.3690    1.0430    0.1310 O   0  0  0  0  0  0  0  0  0  0  0  0
    0.1390    0.3460    1.9480 C   0  0  0  0  0  0  0  0  0  0  0  0
    0.4410    0.0440    3.1510 O   0  0  0  0  0  0  0  0  0  0  0  0
   -1.1840   -0.1420    1.6690 N   0  0  0  0  0  0  0  0  0  0  0  0
   -1.6310   -0.8100    0.4860 C   0  0  0  0  0  0  0  0  0  0  0  0
  1  2  1  0
  2  3  1  0
  3  4  2  0
  3  5  1  0
  5  6  2  0
  5 34  1  0
  6  7  1  0
  7  8  1  0
  7 11  2  0
  8  9  1  6
  8 10  1  0
 11 12  1  0
 12 13  1  0
 12 15  2  0
 13 14  1  0
 15 16  1  0
 16 17  2  0
 17 18  1  0
 18 19  2  0
 19 20  1  0
 19 31  1  0
 20 21  2  0
 20 30  1  0
 21 22  1  0
 22 23  2  0
 23 24  1  0
 23 29  1  0
 24 25  1  0
 25 26  1  0
 25 27  2  0
 27 28  1  0
 28 29  2  0
 29 30  1  0
 31 32  2  0
 31 33  1  0
 33 34  1  0
M  END
