
     RDKit          3D

 34 35  0  0  0  0  0  0  0  0999 V2000
   -5.5900   -2.2120    1.1270 C   0  0  0  0  0  0  0  0  0  0  0  0
   -4.7790   -1.6900    0.2630 C   0  0  0  0  0  0  0  0  0  0  0  0
   -5.3450   -1.2180   -1.0610 C   0  0  0  0  0  0  0  0  0  0  0  0
   -5.0370    0.2410   -1.0100 N   0  0  0  0  0  0  0  0  0  0  0  0
   -3.6780    0.6100   -0.8390 C   0  0  0  0  0  0  0  0  0  0  0  0
   -3.2860    1.8810   -1.4570 C   0  0  0  0  0  0  0  0  0  0  0  0
   -4.1850    2.6430   -2.0540 C   0  0  0  0  0  0  0  0  0  0  0  0
   -3.8080    3.9480   -2.6920 C   0  0  0  0  0  0  0  0  0  0  0  0
   -2.7780   -0.2070   -0.2020 C   0  0  0  0  0  0  0  0  0  0  0  0
   -1.4600    0.2690   -0.0930 C   0  0  0  0  0  0  0  0  0  0  0  0
   -0.2090    0.0610    0.2030 C   0  0  0  0  0  0  0  0  0  0  0  0
    0.7920    1.1750    0.1040 C   0  0  0  0  0  0  0  0  0  0  0  0
    2.0170    1.1930   -0.3190 C   0  0  0  0  0  0  0  0  0  0  0  0
    2.7790    2.4600   -0.3040 C   0  0  0  0  0  0  0  0  0  0  0  0
    2.2310    3.5010    0.1540 O   0  0  0  0  0  0  0  0  0  0  0  0
    4.0860    2.5290   -0.7880 N   0  0  0  0  0  0  0  0  0  0  0  0
    4.8680    3.7780   -0.7800 C   0  0  0  0  0  0  0  0  0  0  0  0
    2.8250    0.0440   -0.8310 C   0  0  0  0  0  0  0  0  0  0  0  0
    3.9660   -0.0800   -0.1250 O   0  0  0  0  0  0  0  0  0  0  0  0
    4.9640   -0.8000    0.3510 C   0  0  0  0  0  0  0  0  0  0  0  0
    6.2590   -0.8970   -0.4650 C   0  0  1  0  0  0  0  0  0  0  0  0
    7.2650   -1.4540    0.3000 F   0  0  0  0  0  0  0  0  0  0  0  0
    6.1160   -1.7430   -1.5440 F   0  0  0  0  0  0  0  0  0  0  0  0
    5.0020   -1.4780    1.4990 C   0  0  0  0  0  0  0  0  0  0  0  0
    3.9720   -1.6020    2.5170 C   0  0  0  0  0  0  0  0  0  0  0  0
    4.1710   -2.6840    3.2420 O   0  0  0  0  0  0  0  0  0  0  0  0
    2.9300   -0.8180    2.7950 O   0  0  0  0  0  0  0  0  0  0  0  0
    1.5950   -0.7080    2.5060 C   0  0  0  0  0  0  0  0  0  0  0  0
    1.1430   -1.6330    1.4300 C   0  0  0  0  0  0  0  0  0  0  0  0
    0.3630   -1.2770    0.4430 C   0  0  0  0  0  0  0  0  0  0  0  0
    0.0410   -2.2990   -0.5010 O   0  0  0  0  0  0  0  0  0  0  0  0
   -3.3500   -1.4270    0.3970 C   0  0  0  0  0  0  0  0  0  0  0  0
   -2.6530   -2.2780    1.0970 C   0  0  0  0  0  0  0  0  0  0  0  0
   -3.1240   -3.5080    1.7690 C   0  0  0  0  0  0  0  0  0  0  0  0
  1  2  2  0
  2  3  1  0
  2 32  1  0
  3  4  1  0
  4  5  1  0
  5  6  1  0
  5  9  2  0
  6  7  2  3
  7  8  1  0
  9 10  1  0
  9 32  1  0
 10 11  2  3
 11 12  1  0
 11 30  1  0
 12 13  2  0
 13 14  1  0
 13 18  1  0
 14 15  2  0
 14 16  1  0
 16 17  1  0
 18 19  1  0
 19 20  1  0
 20 21  1  0
 20 24  2  0
 21 22  1  1
 21 23  1  0
 24 25  1  0
 25 26  2  0
 25 27  1  0
 27 28  1  0
 28 29  1  0
 29 30  2  0
 30 31  1  0
 32 33  2  3
 33 34  1  0
M  END
