
     RDKit          3D

 34 37  0  0  0  0  0  0  0  0999 V2000
    8.8060   -0.0790    0.5560 C   0  0  0  0  0  0  0  0  0  0  0  0
    8.2980    0.4590    1.8530 C   0  0  0  0  0  0  0  0  0  0  0  0
    7.0770   -0.1400    2.1880 O   0  0  0  0  0  0  0  0  0  0  0  0
    5.9220   -0.0710    1.4480 C   0  0  0  0  0  0  0  0  0  0  0  0
    5.8610    0.6210    0.2800 C   0  0  0  0  0  0  0  0  0  0  0  0
    4.6730    0.6570   -0.4250 C   0  0  0  0  0  0  0  0  0  0  0  0
    3.5180    0.0060    0.0160 C   0  0  0  0  0  0  0  0  0  0  0  0
    2.3460    0.0900   -0.8070 C   0  0  0  0  0  0  0  0  0  0  0  0
    1.1250    0.4200   -0.4200 C   0  0  0  0  0  0  0  0  0  0  0  0
    0.8140    0.7540    0.9270 N   0  0  0  0  0  0  0  0  0  0  0  0
   -0.5200    1.1010    1.2530 C   0  0  0  0  0  0  0  0  0  0  0  0
   -0.7980    1.4000    2.4640 O   0  0  0  0  0  0  0  0  0  0  0  0
   -1.5090    1.1140    0.2550 N   0  0  0  0  0  0  0  0  0  0  0  0
   -1.2160    0.7810   -1.1040 C   0  0  0  0  0  0  0  0  0  0  0  0
   -2.2960    0.9090   -2.0910 C   0  0  0  0  0  0  0  0  0  0  0  0
   -3.1970   -0.2690   -2.1920 C   0  0  2  0  0  0  0  0  0  0  0  0
   -4.1650    0.1060   -3.1950 O   0  0  0  0  0  0  0  0  0  0  0  0
   -5.3640    0.2920   -2.5390 C   0  0  0  0  0  0  0  0  0  0  0  0
   -6.4520    0.7490   -3.0230 O   0  0  0  0  0  0  0  0  0  0  0  0
   -5.2680   -0.1110   -1.1460 C   0  0  0  0  0  0  0  0  0  0  0  0
   -3.9510   -0.5450   -0.9740 C   0  0  0  0  0  0  0  0  0  0  0  0
   -3.5840   -1.0820    0.2460 C   0  0  0  0  0  0  0  0  0  0  0  0
   -4.5100   -1.1690    1.2450 C   0  0  0  0  0  0  0  0  0  0  0  0
   -5.8010   -0.7340    1.0640 C   0  0  0  0  0  0  0  0  0  0  0  0
   -6.7860   -0.8360    2.1660 C   0  0  0  0  0  0  0  0  0  0  0  0
   -6.1980   -0.2030   -0.1250 C   0  0  0  0  0  0  0  0  0  0  0  0
   -7.5880    0.2850   -0.3680 C   0  0  1  0  0  0  0  0  0  0  0  0
   -7.5020    1.6060   -0.7490 F   0  0  0  0  0  0  0  0  0  0  0  0
   -8.1090   -0.4290   -1.4200 F   0  0  0  0  0  0  0  0  0  0  0  0
    0.0280    0.4570   -1.4000 C   0  0  0  0  0  0  0  0  0  0  0  0
    0.3260    0.0840   -2.8040 C   0  0  0  0  0  0  0  0  0  0  0  0
    3.5760   -0.6840    1.1790 C   0  0  0  0  0  0  0  0  0  0  0  0
    4.7830   -0.7160    1.8870 C   0  0  0  0  0  0  0  0  0  0  0  0
    4.7830   -1.4360    3.0670 O   0  0  0  0  0  0  0  0  0  0  0  0
  1  2  1  0
  2  3  1  0
  3  4  1  0
  4  5  2  0
  4 33  1  0
  5  6  1  0
  6  7  2  0
  7  8  1  0
  7 32  1  0
  8  9  2  3
  9 10  1  0
  9 30  1  0
 10 11  1  0
 11 12  2  0
 11 13  1  0
 13 14  1  0
 14 15  1  0
 14 30  2  0
 16 15  1  1
 16 17  1  0
 16 21  1  0
 17 18  1  0
 18 19  2  0
 18 20  1  0
 20 21  2  0
 20 26  1  0
 21 22  1  0
 22 23  2  0
 23 24  1  0
 24 25  1  0
 24 26  2  0
 26 27  1  0
 27 28  1  6
 27 29  1  0
 30 31  1  0
 32 33  2  0
 33 34  1  0
M  END
