
     RDKit          3D

 34 38  0  0  0  0  0  0  0  0999 V2000
   -0.6300    3.3830   -3.2420 C   0  0  0  0  0  0  0  0  0  0  0  0
   -1.1770    2.1150   -2.6990 C   0  0  0  0  0  0  0  0  0  0  0  0
   -2.4290    1.6740   -3.0550 C   0  0  0  0  0  0  0  0  0  0  0  0
   -2.8910    0.4770   -2.5170 C   0  0  0  0  0  0  0  0  0  0  0  0
   -2.1520   -0.2860   -1.6440 C   0  0  0  0  0  0  0  0  0  0  0  0
   -2.7880   -1.4980   -1.1070 C   0  0  2  0  0  0  0  0  0  0  0  0
   -3.8360   -1.9680   -2.0900 C   0  0  0  0  0  0  0  0  0  0  0  0
   -3.3930   -1.1340    0.1770 N   0  0  0  0  0  0  0  0  0  0  0  0
   -2.7040   -0.2810    1.1260 C   0  0  0  0  0  0  0  0  0  0  0  0
   -3.7520    0.2150    2.0890 C   0  0  0  0  0  0  0  0  0  0  0  0
   -4.8850   -0.7200    1.8790 C   0  0  0  0  0  0  0  0  0  0  0  0
   -6.0380   -0.8800    2.6230 C   0  0  0  0  0  0  0  0  0  0  0  0
   -6.9480   -1.8290    2.2520 C   0  0  0  0  0  0  0  0  0  0  0  0
   -6.7130   -2.6270    1.1320 C   0  0  0  0  0  0  0  0  0  0  0  0
   -5.5550   -2.4580    0.3930 C   0  0  0  0  0  0  0  0  0  0  0  0
   -4.6270   -1.5090    0.7490 C   0  0  0  0  0  0  0  0  0  0  0  0
   -0.8710    0.1470   -1.2680 C   0  0  0  0  0  0  0  0  0  0  0  0
   -0.1070   -0.6720   -0.4050 N   0  0  0  0  0  0  0  0  0  0  0  0
    1.1580   -0.3460    0.0970 C   0  0  0  0  0  0  0  0  0  0  0  0
    1.7250    0.7190   -0.1760 O   0  0  0  0  0  0  0  0  0  0  0  0
    1.8950   -1.3030    1.0140 C   0  0  0  0  0  0  0  0  0  0  0  0
    3.1050   -0.7320    1.3720 O   0  0  0  0  0  0  0  0  0  0  0  0
    4.1040   -0.3600    0.5280 C   0  0  0  0  0  0  0  0  0  0  0  0
    3.9800   -0.5260   -0.7000 O   0  0  0  0  0  0  0  0  0  0  0  0
    5.3560    0.2460    1.0340 C   0  0  0  0  0  0  0  0  0  0  0  0
    5.5020    0.4240    2.4030 C   0  0  0  0  0  0  0  0  0  0  0  0
    6.6860    1.0000    2.8250 C   0  0  0  0  0  0  0  0  0  0  0  0
    7.6460    1.3660    1.9220 C   0  0  0  0  0  0  0  0  0  0  0  0
    9.2690    2.1280    2.1360 S   0  0  0  0  0  0  0  0  0  0  0  0
    9.6680    2.1630    0.3070 C   0  0  0  0  0  0  0  0  0  0  0  0
    8.5660    1.6150   -0.2100 C   0  0  0  0  0  0  0  0  0  0  0  0
    7.5510    1.2130    0.5710 C   0  0  0  0  0  0  0  0  0  0  0  0
    6.3250    0.6190    0.1620 C   0  0  0  0  0  0  0  0  0  0  0  0
   -0.4380    1.3290   -1.8100 C   0  0  0  0  0  0  0  0  0  0  0  0
  1  2  1  0
  2  3  2  0
  2 34  1  0
  3  4  1  0
  4  5  2  0
  5  6  1  0
  5 17  1  0
  6  7  1  6
  6  8  1  0
  8  9  1  0
  8 16  1  0
  9 10  1  0
 10 11  1  0
 11 12  2  0
 11 16  1  0
 12 13  1  0
 13 14  2  0
 14 15  1  0
 15 16  2  0
 17 18  1  0
 17 34  2  0
 18 19  1  0
 19 20  2  0
 19 21  1  0
 21 22  1  0
 22 23  1  0
 23 24  2  0
 23 25  1  0
 25 26  2  0
 25 33  1  0
 26 27  1  0
 27 28  2  0
 28 29  1  0
 28 32  1  0
 29 30  1  0
 30 31  2  0
 31 32  1  0
 32 33  2  0
M  END
