
     RDKit          3D

 34 36  0  0  0  0  0  0  0  0999 V2000
    1.4190   -2.7680   -3.4330 O   0  0  0  0  0  0  0  0  0  0  0  0
    0.6890   -2.8490   -2.3780 C   0  0  0  0  0  0  0  0  0  0  0  0
    1.4580   -2.8930   -1.1150 C   0  0  0  0  0  0  0  0  0  0  0  0
    2.1720   -1.5990   -0.8370 C   0  0  0  0  0  0  0  0  0  0  0  0
    3.3410   -1.6560   -0.2970 C   0  0  0  0  0  0  0  0  0  0  0  0
    4.1900   -0.5640    0.0510 C   0  0  0  0  0  0  0  0  0  0  0  0
    3.9610    0.6460   -0.1020 O   0  0  0  0  0  0  0  0  0  0  0  0
    5.4540   -0.8240    0.6430 O   0  0  0  0  0  0  0  0  0  0  0  0
    6.2900    0.2020    0.9870 C   0  0  0  0  0  0  0  0  0  0  0  0
    7.2290    0.8190    0.3200 C   0  0  0  0  0  0  0  0  0  0  0  0
    7.8580    1.8710    1.1280 C   0  0  0  0  0  0  0  0  0  0  0  0
    7.1280    1.7830    2.4150 C   0  0  0  0  0  0  0  0  0  0  0  0
    6.2420    0.8320    2.3210 C   0  0  0  0  0  0  0  0  0  0  0  0
    1.5250   -0.3160   -1.1830 C   0  0  0  0  0  0  0  0  0  0  0  0
    0.6740    0.1980   -0.0230 C   0  0  0  0  0  0  0  0  0  0  0  0
   -0.3920    0.9330   -0.3460 O   0  0  0  0  0  0  0  0  0  0  0  0
   -1.7590    0.8840   -0.3900 C   0  0  0  0  0  0  0  0  0  0  0  0
   -2.4860    1.6780   -1.1800 C   0  0  0  0  0  0  0  0  0  0  0  0
   -1.8660    2.6650   -2.0590 C   0  0  0  0  0  0  0  0  0  0  0  0
   -2.5310    3.4600   -2.8470 C   0  0  0  0  0  0  0  0  0  0  0  0
   -3.8720    3.4010   -2.8820 F   0  0  0  0  0  0  0  0  0  0  0  0
   -1.8900    4.3410   -3.6260 F   0  0  0  0  0  0  0  0  0  0  0  0
   -2.4550   -0.0700    0.4550 C   0  0  0  0  0  0  0  0  0  0  0  0
   -3.4990    0.3440    1.2040 C   0  0  0  0  0  0  0  0  0  0  0  0
   -3.9150    1.7610    1.1480 C   0  0  0  0  0  0  0  0  0  0  0  0
   -5.2150    1.9700    1.2400 C   0  0  0  0  0  0  0  0  0  0  0  0
   -6.1900    0.8770    1.3850 C   0  0  0  0  0  0  0  0  0  0  0  0
   -5.7330   -0.3000    2.1520 C   0  0  0  0  0  0  0  0  0  0  0  0
   -4.2600   -0.5300    2.1120 C   0  0  0  0  0  0  0  0  0  0  0  0
   -2.1250   -1.4640    0.5770 N   0  0  0  0  0  0  0  0  0  0  0  0
   -1.8690   -2.3630   -0.4880 C   0  0  0  0  0  0  0  0  0  0  0  0
   -1.7750   -3.6180   -0.2370 O   0  0  0  0  0  0  0  0  0  0  0  0
   -1.6880   -2.0310   -1.9200 C   0  0  0  0  0  0  0  0  0  0  0  0
   -0.7110   -2.8870   -2.5240 N   0  0  0  0  0  0  0  0  0  0  0  0
  1  2  2  0
  2  3  1  0
  2 34  1  0
  3  4  1  0
  4  5  2  3
  4 14  1  0
  5  6  1  0
  6  7  2  0
  6  8  1  0
  8  9  1  0
  9 10  2  0
  9 13  1  0
 10 11  1  0
 11 12  1  0
 12 13  2  0
 14 15  1  0
 15 16  1  0
 16 17  1  0
 17 18  2  3
 17 23  1  0
 18 19  1  0
 19 20  2  3
 20 21  1  0
 20 22  1  0
 23 24  2  3
 23 30  1  0
 24 25  1  0
 24 29  1  0
 25 26  2  0
 26 27  1  0
 27 28  1  0
 28 29  1  0
 30 31  1  0
 31 32  2  0
 31 33  1  0
 33 34  1  0
M  END
