
     RDKit          3D

 34 38  0  0  0  0  0  0  0  0999 V2000
   -9.7670   -0.7120    0.1270 C   0  0  0  0  0  0  0  0  0  0  0  0
   -8.6320   -0.0570   -0.3940 O   0  0  0  0  0  0  0  0  0  0  0  0
   -7.3410   -0.3690    0.0290 C   0  0  0  0  0  0  0  0  0  0  0  0
   -7.2080   -1.3510    0.9870 C   0  0  0  0  0  0  0  0  0  0  0  0
   -5.9230   -1.6910    1.4360 C   0  0  0  0  0  0  0  0  0  0  0  0
   -4.8120   -1.0690    0.9440 C   0  0  0  0  0  0  0  0  0  0  0  0
   -3.4470   -1.4490    1.4410 C   0  0  0  0  0  0  0  0  0  0  0  0
   -3.3230   -2.4210    2.3870 C   0  0  0  0  0  0  0  0  0  0  0  0
   -1.4910   -2.4610    2.6010 S   0  0  0  0  0  0  0  0  0  0  0  0
   -1.2050   -1.1760    1.3930 C   0  0  0  0  0  0  0  0  0  0  0  0
    0.1590   -0.6910    1.0570 C   0  0  0  0  0  0  0  0  0  0  0  0
    1.2650   -1.1920    1.6450 C   0  0  0  0  0  0  0  0  0  0  0  0
    2.5290   -0.7030    1.2950 C   0  0  0  0  0  0  0  0  0  0  0  0
    2.6560    0.2890    0.3530 C   0  0  0  0  0  0  0  0  0  0  0  0
    3.9410    0.8410   -0.0650 C   0  0  0  0  0  0  0  0  0  0  0  0
    4.1880    2.1950   -0.0010 C   0  0  0  0  0  0  0  0  0  0  0  0
    5.3560    2.8070   -0.3340 C   0  0  0  0  0  0  0  0  0  0  0  0
    6.3760    2.0050   -0.7710 C   0  0  0  0  0  0  0  0  0  0  0  0
    6.1890    0.6140   -0.8590 C   0  0  0  0  0  0  0  0  0  0  0  0
    5.0000    0.0190   -0.5180 C   0  0  0  0  0  0  0  0  0  0  0  0
    4.7550   -1.3600   -0.6320 N   0  0  0  0  0  0  0  0  0  0  0  0
    5.6960   -2.3300   -0.9540 C   0  0  0  0  0  0  0  0  0  0  0  0
    5.3280   -3.7980   -1.0570 C   0  0  0  0  0  0  0  0  0  0  0  0
    6.8860   -2.0580   -1.1750 O   0  0  0  0  0  0  0  0  0  0  0  0
    7.4380    2.7370   -1.0540 C   0  0  0  0  0  0  0  0  0  0  0  0
    7.1040    4.1450   -0.7860 C   0  0  0  0  0  0  0  0  0  0  0  0
    5.7000    4.0750   -0.3130 C   0  0  0  0  0  0  0  0  0  0  0  0
    1.5000    0.7740   -0.2230 C   0  0  0  0  0  0  0  0  0  0  0  0
    0.2350    0.2920    0.1200 C   0  0  0  0  0  0  0  0  0  0  0  0
   -2.3420   -0.8900    1.0090 N   0  0  0  0  0  0  0  0  0  0  0  0
   -4.9740   -0.0920   -0.0100 C   0  0  0  0  0  0  0  0  0  0  0  0
   -6.2310    0.2730   -0.4810 C   0  0  0  0  0  0  0  0  0  0  0  0
   -6.4220    1.2420   -1.4320 O   0  0  0  0  0  0  0  0  0  0  0  0
   -5.4010    1.9840   -2.0470 C   0  0  0  0  0  0  0  0  0  0  0  0
  1  2  1  0
  2  3  1  0
  3  4  2  0
  3 32  1  0
  4  5  1  0
  5  6  2  0
  6  7  1  0
  6 31  1  0
  7  8  2  0
  7 30  1  0
  8  9  1  0
  9 10  1  0
 10 11  1  0
 10 30  2  0
 11 12  2  0
 11 29  1  0
 12 13  1  0
 13 14  2  0
 14 15  1  0
 14 28  1  0
 15 16  2  0
 15 20  1  0
 16 17  1  0
 17 18  1  0
 17 27  2  0
 18 19  1  0
 18 25  2  0
 19 20  2  0
 20 21  1  0
 21 22  1  0
 22 23  1  0
 22 24  2  0
 25 26  1  0
 26 27  1  0
 28 29  2  0
 31 32  2  0
 32 33  1  0
 33 34  1  0
M  END
