
     RDKit          3D

 34 36  0  0  0  0  0  0  0  0999 V2000
   -2.1170   -5.0750    0.4210 C   0  0  0  0  0  0  0  0  0  0  0  0
   -2.1280   -3.7740   -0.2690 C   0  0  0  0  0  0  0  0  0  0  0  0
   -1.7280   -3.6940   -1.5190 C   0  0  0  0  0  0  0  0  0  0  0  0
   -1.2630   -4.9260   -2.2400 C   0  0  0  0  0  0  0  0  0  0  0  0
    0.0440   -4.8070   -2.6640 F   0  0  0  0  0  0  0  0  0  0  0  0
   -1.7310   -2.4870   -2.1850 O   0  0  0  0  0  0  0  0  0  0  0  0
   -1.7430   -1.2050   -1.7040 C   0  0  0  0  0  0  0  0  0  0  0  0
   -0.5520   -0.7500   -0.8820 C   0  0  0  0  0  0  0  0  0  0  0  0
    0.4280   -1.5750   -0.6760 C   0  0  0  0  0  0  0  0  0  0  0  0
    1.7000   -1.5600    0.0250 C   0  0  0  0  0  0  0  0  0  0  0  0
    1.9480   -0.6050    1.0870 C   0  0  0  0  0  0  0  0  0  0  0  0
    1.0990   -0.8050    2.3330 C   0  0  0  0  0  0  0  0  0  0  0  0
    2.8020    0.3970    1.1020 C   0  0  0  0  0  0  0  0  0  0  0  0
    3.0420    1.3440    2.1900 C   0  0  0  0  0  0  0  0  0  0  0  0
    3.9640    2.2080    1.8220 C   0  0  0  0  0  0  0  0  0  0  0  0
    4.4280    3.2380    2.6110 F   0  0  0  0  0  0  0  0  0  0  0  0
    4.3610    1.8650    0.4850 C   0  0  0  0  0  0  0  0  0  0  0  0
    3.6940    0.8060    0.0330 C   0  0  0  0  0  0  0  0  0  0  0  0
    3.8390    0.2470   -1.2970 C   0  0  0  0  0  0  0  0  0  0  0  0
    5.0050   -0.1650   -1.6210 O   0  0  0  0  0  0  0  0  0  0  0  0
    2.8560    0.0840   -2.3230 N   0  0  0  0  0  0  0  0  0  0  0  0
    1.7910    0.9510   -2.6270 C   0  0  0  0  0  0  0  0  0  0  0  0
    1.3510    0.8840   -3.8470 O   0  0  0  0  0  0  0  0  0  0  0  0
    1.1320    1.8780   -1.8170 N   0  0  0  0  0  0  0  0  0  0  0  0
    0.3570    1.6900   -0.6400 C   0  0  0  0  0  0  0  0  0  0  0  0
    0.5900    2.5210    0.2720 O   0  0  0  0  0  0  0  0  0  0  0  0
   -0.6530    0.6580   -0.3970 C   0  0  0  0  0  0  0  0  0  0  0  0
   -1.7640    0.9710    0.2430 C   0  0  0  0  0  0  0  0  0  0  0  0
   -2.0570    2.2990    0.8040 C   0  0  0  0  0  0  0  0  0  0  0  0
   -1.4850    2.9400    1.8680 C   0  0  0  0  0  0  0  0  0  0  0  0
   -2.1340    4.1740    1.9610 C   0  0  0  0  0  0  0  0  0  0  0  0
   -3.0620    4.2270    0.9600 C   0  0  0  0  0  0  0  0  0  0  0  0
   -3.9750    5.3970    0.7150 C   0  0  0  0  0  0  0  0  0  0  0  0
   -2.9850    3.1200    0.3140 O   0  0  0  0  0  0  0  0  0  0  0  0
  1  2  1  0
  2  3  2  3
  3  4  1  0
  3  6  1  0
  4  5  1  0
  6  7  1  0
  7  8  1  0
  8  9  2  0
  8 27  1  0
  9 10  1  0
 10 11  1  0
 11 12  1  0
 11 13  2  0
 13 14  1  0
 13 18  1  0
 14 15  2  0
 15 16  1  0
 15 17  1  0
 17 18  2  0
 18 19  1  0
 19 20  2  0
 19 21  1  0
 21 22  1  0
 22 23  2  0
 22 24  1  0
 24 25  1  0
 25 26  2  0
 25 27  1  0
 27 28  2  3
 28 29  1  0
 29 30  2  0
 29 34  1  0
 30 31  1  0
 31 32  2  0
 32 33  1  0
 32 34  1  0
M  END
