
     RDKit          3D

 27 28  0  0  0  0  0  0  0  0999 V2000
   -1.7380   -4.6740   -1.3160 O   0  0  0  0  0  0  0  0  0  0  0  0
   -1.6860   -3.4790   -0.8430 C   0  0  0  0  0  0  0  0  0  0  0  0
   -0.3440   -2.7660   -0.9380 C   0  0  0  0  0  0  0  0  0  0  0  0
    0.2020   -2.5330    0.3480 N   0  0  0  0  0  0  0  0  0  0  0  0
    1.4030   -1.9780    0.8090 C   0  0  0  0  0  0  0  0  0  0  0  0
    2.1890   -2.8510    1.4420 O   0  0  0  0  0  0  0  0  0  0  0  0
    2.0170   -0.6610    0.7710 C   0  0  2  0  0  0  0  0  0  0  0  0
    1.9690    0.0340    1.9440 O   0  0  0  0  0  0  0  0  0  0  0  0
    1.5950    0.1920   -0.4030 C   0  0  2  0  0  0  0  0  0  0  0  0
    2.4830    1.3580   -0.3730 N   0  0  0  0  0  0  0  0  0  0  0  0
    3.7810    1.0900   -0.1100 C   0  0  0  0  0  0  0  0  0  0  0  0
    4.7620    2.2030   -0.5400 C   0  0  0  0  0  0  0  0  0  0  0  0
    5.9630    1.6270   -0.0390 O   0  0  0  0  0  0  0  0  0  0  0  0
    6.8190    1.4030   -1.0420 O   0  0  0  0  0  0  0  0  0  0  0  0
    0.2610    0.8290   -0.0020 C   0  0  0  0  0  0  0  0  0  0  0  0
   -0.0810    1.8310    0.7710 N   0  0  0  0  0  0  0  0  0  0  0  0
   -1.3980    1.9300    0.8270 O   0  0  0  0  0  0  0  0  0  0  0  0
   -1.9090    0.9420    0.0750 C   0  0  0  0  0  0  0  0  0  0  0  0
   -0.8700    0.2920   -0.4190 N   0  0  0  0  0  0  0  0  0  0  0  0
   -3.2870    0.6270   -0.1730 C   0  0  0  0  0  0  0  0  0  0  0  0
   -4.1450    1.6390   -0.6280 O   0  0  0  0  0  0  0  0  0  0  0  0
   -5.2320    2.4340    0.5240 P   0  0  0  0  0  0  0  0  0  0  0  0
   -6.7370    2.7430   -0.3210 O   0  0  0  0  0  0  0  0  0  0  0  0
   -4.5510    3.9320    0.9750 O   0  0  0  0  0  0  0  0  0  0  0  0
   -3.7480   -0.6180    0.0600 C   0  0  0  0  0  0  0  0  0  0  0  0
   -2.9000   -1.7190    0.5610 C   0  0  0  0  0  0  0  0  0  0  0  0
   -2.8090   -2.8700   -0.2670 N   0  0  0  0  0  0  0  0  0  0  0  0
  1  2  2  0
  2  3  1  0
  2 27  1  0
  3  4  1  0
  4  5  1  0
  5  6  2  0
  5  7  1  0
  7  8  1  1
  7  9  1  0
  9 10  1  1
  9 15  1  0
 10 11  1  0
 11 12  1  0
 12 13  1  0
 13 14  1  0
 15 16  2  0
 15 19  1  0
 16 17  1  0
 17 18  1  0
 18 19  2  0
 18 20  1  0
 20 21  1  0
 20 25  2  0
 21 22  1  0
 22 23  1  0
 22 24  1  0
 25 26  1  0
 26 27  1  0
M  END
