
     RDKit          3D

 24 23  0  0  0  0  0  0  0  0999 V2000
   -6.8640    0.5910    1.0580 C   0  0  0  0  0  0  0  0  0  0  0  0
   -7.2490   -0.1760   -0.1430 C   0  0  0  0  0  0  0  0  0  0  0  0
   -8.6080   -0.7340   -0.2570 C   0  0  0  0  0  0  0  0  0  0  0  0
   -6.3780   -0.3610   -1.1110 C   0  0  0  0  0  0  0  0  0  0  0  0
   -4.9870    0.1680   -1.0750 C   0  0  0  0  0  0  0  0  0  0  0  0
   -3.9750   -0.9820   -1.1610 C   0  0  0  0  0  0  0  0  0  0  0  0
   -2.6260   -0.3500   -1.1180 C   0  0  0  0  0  0  0  0  0  0  0  0
   -2.2750    0.6220   -2.1880 C   0  0  0  0  0  0  0  0  0  0  0  0
   -1.7570   -0.6270   -0.1740 C   0  0  0  0  0  0  0  0  0  0  0  0
   -0.4020   -0.0180   -0.0970 C   0  0  0  0  0  0  0  0  0  0  0  0
    0.6860   -1.0680   -0.1620 C   0  0  0  0  0  0  0  0  0  0  0  0
    2.0170   -0.4240   -0.0820 C   0  0  0  0  0  0  0  0  0  0  0  0
    2.4140    0.5620   -1.1100 C   0  0  0  0  0  0  0  0  0  0  0  0
    2.8590   -0.7140    0.8930 C   0  0  0  0  0  0  0  0  0  0  0  0
    4.2000   -0.1150    1.0410 C   0  0  0  0  0  0  0  0  0  0  0  0
    5.1290   -1.1520    0.9930 O   0  0  0  0  0  0  0  0  0  0  0  0
    6.7100   -0.6330    1.1480 P   0  0  1  0  0  0  0  0  0  0  0  0
    7.4700   -1.5650    2.0630 O   0  0  0  0  0  0  0  0  0  0  0  0
    7.5250   -0.6020   -0.3360 O   0  0  0  0  0  0  0  0  0  0  0  0
    6.7990    0.9170    1.8190 O   0  0  0  0  0  0  0  0  0  0  0  0
    8.4150    1.3860    1.9270 P   0  0  1  0  0  0  0  0  0  0  0  0
    8.6400    2.7800    1.3910 O   0  0  0  0  0  0  0  0  0  0  0  0
    8.9030    1.3100    3.5330 O   0  0  0  0  0  0  0  0  0  0  0  0
    9.3820    0.3330    1.0090 O   0  0  0  0  0  0  0  0  0  0  0  0
  1  2  1  0
  2  3  1  0
  2  4  2  3
  4  5  1  0
  5  6  1  0
  6  7  1  0
  7  8  1  0
  7  9  2  3
  9 10  1  0
 10 11  1  0
 11 12  1  0
 12 13  1  0
 12 14  2  3
 14 15  1  0
 15 16  1  0
 16 17  1  0
 17 18  2  0
 17 19  1  6
 17 20  1  0
 20 21  1  0
 21 22  2  0
 21 23  1  1
 21 24  1  0
M  END
