
     RDKit          3D

 27 28  0  0  0  0  0  0  0  0999 V2000
    5.9660    0.6280    2.6460 N   0  0  0  0  0  0  0  0  0  0  0  0
    5.0210   -0.0370    1.8210 C   0  0  0  0  0  0  0  0  0  0  0  0
    4.7020   -1.2560    2.0320 O   0  0  0  0  0  0  0  0  0  0  0  0
    4.4060    0.6430    0.7360 N   0  0  0  0  0  0  0  0  0  0  0  0
    3.4390   -0.0290   -0.1120 C   0  0  0  0  0  0  0  0  0  0  0  0
    3.2030   -1.2140    0.1830 O   0  0  0  0  0  0  0  0  0  0  0  0
    2.8540    0.7430   -1.2050 C   0  0  0  0  0  0  0  0  0  0  0  0
    1.6920    0.1710   -1.8890 C   0  0  0  0  0  0  0  0  0  0  0  0
    0.4100   -0.0270   -1.2210 C   0  0  2  0  0  0  0  0  0  0  0  0
   -0.1960    1.2770   -0.6860 C   0  0  0  0  0  0  0  0  0  0  0  0
   -1.3710    0.7590    0.0130 N   0  0  0  0  0  0  0  0  0  0  0  0
   -2.5300    1.5170    0.3950 C   0  0  0  0  0  0  0  0  0  0  0  0
   -2.5910    2.7450    0.1260 O   0  0  0  0  0  0  0  0  0  0  0  0
   -3.6670    0.8910    1.1020 C   0  0  0  0  0  0  0  0  0  0  0  0
   -4.6520    1.8110    1.3590 O   0  0  0  0  0  0  0  0  0  0  0  0
   -6.0120    1.1730    2.1780 P   0  0  0  0  0  0  0  0  0  0  0  0
   -5.5850   -0.0720    3.3060 O   0  0  0  0  0  0  0  0  0  0  0  0
   -7.2570    0.6460    1.0920 O   0  0  0  0  0  0  0  0  0  0  0  0
   -1.2110   -0.6220    0.2720 C   0  0  0  0  0  0  0  0  0  0  0  0
   -2.0640   -1.4360    0.6730 O   0  0  0  0  0  0  0  0  0  0  0  0
    0.2580   -0.9060   -0.0520 C   0  0  1  0  0  0  0  0  0  0  0  0
    0.3890   -2.3210   -0.3380 N   0  0  0  0  0  0  0  0  0  0  0  0
   -0.1770   -2.8340   -1.5290 C   0  0  0  0  0  0  0  0  0  0  0  0
   -0.2460   -4.0690   -1.7020 O   0  0  0  0  0  0  0  0  0  0  0  0
   -0.6550   -1.8980   -2.5020 N   0  0  0  0  0  0  0  0  0  0  0  0
   -0.5590   -0.5230   -2.2690 C   0  0  0  0  0  0  0  0  0  0  0  0
   -1.2350    0.2990   -2.8870 O   0  0  0  0  0  0  0  0  0  0  0  0
  1  2  1  0
  2  3  2  0
  2  4  1  0
  4  5  1  0
  5  6  2  0
  5  7  1  0
  7  8  1  0
  9  8  1  6
  9 10  1  0
  9 21  1  0
  9 26  1  0
 10 11  1  0
 11 12  1  0
 11 19  1  0
 12 13  2  0
 12 14  1  0
 14 15  1  0
 15 16  1  0
 16 17  1  0
 16 18  1  0
 19 20  2  0
 19 21  1  0
 21 22  1  6
 22 23  1  0
 23 24  2  0
 23 25  1  0
 25 26  1  0
 26 27  2  0
M  END
