
     RDKit          3D

 15 15  0  0  0  0  0  0  0  0999 V2000
   -0.8390    0.2750   -1.5070 O   0  0  0  0  0  0  0  0  0  0  0  0
   -0.3780   -0.4670   -0.6070 C   0  0  0  0  0  0  0  0  0  0  0  0
   -1.2920   -0.9110    0.3280 O   0  0  0  0  0  0  0  0  0  0  0  0
   -2.6420   -0.6000    0.3330 C   0  0  0  0  0  0  0  0  0  0  0  0
   -2.9590    0.8640    0.4410 C   0  0  0  0  0  0  0  0  0  0  0  0
   -2.4580    1.4330    1.6100 O   0  0  0  0  0  0  0  0  0  0  0  0
    1.0440   -0.7990   -0.6070 C   0  0  1  0  0  0  0  0  0  0  0  0
    1.6710   -0.1860   -1.6840 O   0  0  0  0  0  0  0  0  0  0  0  0
    1.5410    1.5190   -1.6510 P   0  0  0  0  0  0  0  0  0  0  0  0
    2.8070    2.3310   -2.4620 O   0  0  0  0  0  0  0  0  0  0  0  0
    1.1730    2.1570   -0.1070 O   0  0  0  0  0  0  0  0  0  0  0  0
    1.7290   -0.4890    0.7020 C   0  0  0  0  0  0  0  0  0  0  0  0
    2.1770   -1.7100    1.2080 O   0  0  0  0  0  0  0  0  0  0  0  0
    1.2270   -2.5790    0.6400 C   0  0  0  0  0  0  0  0  0  0  0  0
    1.1660   -2.1810   -0.6880 O   0  0  0  0  0  0  0  0  0  0  0  0
  1  2  2  0
  2  3  1  0
  2  7  1  0
  3  4  1  0
  4  5  1  0
  5  6  1  0
  7  8  1  6
  7 12  1  0
  7 15  1  0
  8  9  1  0
  9 10  1  0
  9 11  1  0
 12 13  1  0
 13 14  1  0
 14 15  1  0
M  END
