
     RDKit          3D

 27 28  0  0  0  0  0  0  0  0999 V2000
   -4.2290   -4.8200    0.2500 N   0  0  0  0  0  0  0  0  0  0  0  0
   -2.8320   -4.6660    0.3090 C   0  0  0  0  0  0  0  0  0  0  0  0
   -2.1080   -5.7030    0.3100 O   0  0  0  0  0  0  0  0  0  0  0  0
   -2.2270   -3.4360    0.3650 O   0  0  0  0  0  0  0  0  0  0  0  0
   -0.8690   -3.3440    0.4210 N   0  0  0  0  0  0  0  0  0  0  0  0
   -0.2980   -2.2120    0.0670 C   0  0  0  0  0  0  0  0  0  0  0  0
    1.1490   -2.0730    0.1120 C   0  0  0  0  0  0  0  0  0  0  0  0
    1.6910   -0.9340   -0.2470 C   0  0  0  0  0  0  0  0  0  0  0  0
    3.1130   -0.8410   -0.1870 N   0  0  0  0  0  0  0  0  0  0  0  0
    3.7700    0.3500    0.3390 C   0  0  0  0  0  0  0  0  0  0  0  0
    5.2570    0.1200    0.2590 C   0  0  0  0  0  0  0  0  0  0  0  0
    6.2290    1.5470    0.8920 P   0  0  0  0  0  0  0  0  0  0  0  0
    7.3360    2.1190   -0.3160 O   0  0  0  0  0  0  0  0  0  0  0  0
    5.2170    2.8290    1.4760 O   0  0  0  0  0  0  0  0  0  0  0  0
    0.9530    0.2550   -0.7050 C   0  0  0  0  0  0  0  0  0  0  0  0
   -0.4970    0.0480   -0.7270 C   0  0  0  0  0  0  0  0  0  0  0  0
   -1.2100    1.0660   -1.1240 N   0  0  0  0  0  0  0  0  0  0  0  0
   -2.6270    0.9410   -1.1720 C   0  0  0  0  0  0  0  0  0  0  0  0
   -3.3500    0.3570   -2.0390 N   0  0  0  0  0  0  0  0  0  0  0  0
   -4.7070    0.4550   -1.7330 O   0  0  0  0  0  0  0  0  0  0  0  0
   -4.7440    0.6860   -0.3400 C   0  0  0  0  0  0  0  0  0  0  0  0
   -3.5350    1.5180   -0.1480 C   0  0  2  0  0  0  0  0  0  0  0  0
   -3.6740    2.8740   -0.4240 O   0  0  0  0  0  0  0  0  0  0  0  0
   -3.3400    3.8280    0.5090 C   0  0  0  0  0  0  0  0  0  0  0  0
   -2.9130    3.4230    1.5960 O   0  0  0  0  0  0  0  0  0  0  0  0
   -3.4510    5.1920    0.3050 O   0  0  0  0  0  0  0  0  0  0  0  0
   -1.0540   -1.1400   -0.3520 O   0  0  0  0  0  0  0  0  0  0  0  0
  1  2  1  0
  2  3  2  0
  2  4  1  0
  4  5  1  0
  5  6  2  3
  6  7  1  0
  6 27  1  0
  7  8  2  0
  8  9  1  0
  8 15  1  0
  9 10  1  0
 10 11  1  0
 11 12  1  0
 12 13  1  0
 12 14  1  0
 15 16  1  0
 16 17  2  3
 16 27  1  0
 17 18  1  0
 18 19  2  0
 18 22  1  0
 19 20  1  0
 20 21  1  0
 21 22  1  0
 22 23  1  6
 23 24  1  0
 24 25  2  0
 24 26  1  0
M  END
