
     RDKit          3D

 29 30  0  0  0  0  0  0  0  0999 V2000
    7.0110    2.0100    0.6750 C   0  0  0  0  0  0  0  0  0  0  0  0
    6.3280    0.9120    0.8120 C   0  0  0  0  0  0  0  0  0  0  0  0
    4.9860    0.6230    0.4010 C   0  0  0  0  0  0  0  0  0  0  0  0
    4.4600   -0.5650    0.6000 C   0  0  0  0  0  0  0  0  0  0  0  0
    3.0520   -0.8440    0.1680 C   0  0  0  0  0  0  0  0  0  0  0  0
    2.2450   -0.0400   -0.3790 N   0  0  0  0  0  0  0  0  0  0  0  0
    1.0120   -0.6290   -0.6440 N   0  0  0  0  0  0  0  0  0  0  0  0
   -0.1280   -0.0310   -1.2620 C   0  0  0  0  0  0  0  0  0  0  0  0
   -1.1930   -0.6400   -1.4580 O   0  0  0  0  0  0  0  0  0  0  0  0
    0.0140    1.4120   -1.6760 C   0  0  0  0  0  0  0  0  0  0  0  0
   -0.2410    2.3640   -0.1410 S   0  0  0  0  0  0  0  0  0  0  0  0
   -2.0690    1.9450    0.4060 C   0  0  0  0  0  0  0  0  0  0  0  0
   -1.9140    1.3360    1.3120 N   0  0  0  0  0  0  0  0  0  0  0  0
   -2.5800    0.6350    2.3190 C   0  0  0  0  0  0  0  0  0  0  0  0
   -3.3690   -0.4040    2.1140 C   0  0  0  0  0  0  0  0  0  0  0  0
   -3.9030   -0.8830    3.4090 C   0  0  0  0  0  0  0  0  0  0  0  0
   -3.3320    0.0350    4.4060 C   0  0  0  0  0  0  0  0  0  0  0  0
   -2.5710    0.8940    3.7520 C   0  0  0  0  0  0  0  0  0  0  0  0
   -1.6100    2.1710    4.5360 Cl  0  0  0  0  0  0  0  0  0  0  0  0
   -3.0910    1.8580   -0.5530 N   0  0  0  0  0  0  0  0  0  0  0  0
   -3.6100    3.0620   -1.0640 C   0  0  0  0  0  0  0  0  0  0  0  0
   -4.5350    3.3400   -2.1270 C   0  0  0  0  0  0  0  0  0  0  0  0
   -3.1050    4.0670   -0.3950 O   0  0  0  0  0  0  0  0  0  0  0  0
    1.0130   -1.9790   -0.1450 C   0  0  1  0  0  0  0  0  0  0  0  0
    0.5830   -3.0080   -1.1100 C   0  0  0  0  0  0  0  0  0  0  0  0
    0.2840   -4.1530   -0.6300 O   0  0  0  0  0  0  0  0  0  0  0  0
    0.4740   -2.8680   -2.4690 O   0  0  0  0  0  0  0  0  0  0  0  0
    0.0390   -4.0020   -3.2200 C   0  0  0  0  0  0  0  0  0  0  0  0
    2.4330   -2.1660    0.3060 C   0  0  0  0  0  0  0  0  0  0  0  0
  1  2  2  0
  2  3  1  0
  3  4  2  3
  4  5  1  0
  5  6  2  0
  5 29  1  0
  6  7  1  0
  7  8  1  0
  7 24  1  0
  8  9  2  0
  8 10  1  0
 10 11  1  0
 11 12  1  0
 12 13  2  3
 12 20  1  0
 13 14  1  0
 14 15  2  0
 14 18  1  0
 15 16  1  0
 16 17  1  0
 17 18  2  0
 18 19  1  0
 20 21  1  0
 21 22  1  0
 21 23  2  0
 24 25  1  6
 24 29  1  0
 25 26  2  0
 25 27  1  0
 27 28  1  0
M  END
