
     RDKit          3D

 29 31  0  0  0  0  0  0  0  0999 V2000
   -5.1760    0.5250    1.7890 C   0  0  0  0  0  0  0  0  0  0  0  0
   -4.3270    0.3040    0.5420 C   0  0  0  0  0  0  0  0  0  0  0  0
   -4.4320   -0.8210   -0.0830 C   0  0  0  0  0  0  0  0  0  0  0  0
   -5.4100   -1.8170    0.5020 C   0  0  0  0  0  0  0  0  0  0  0  0
   -6.7370   -2.1580   -0.6110 Cl  0  0  0  0  0  0  0  0  0  0  0  0
   -3.7040   -1.2530   -1.2210 N   0  0  0  0  0  0  0  0  0  0  0  0
   -3.9680   -2.4330   -1.8870 C   0  0  0  0  0  0  0  0  0  0  0  0
   -3.0820   -2.5330   -2.9170 C   0  0  0  0  0  0  0  0  0  0  0  0
   -2.3200   -1.4570   -2.8680 N   0  0  0  0  0  0  0  0  0  0  0  0
   -2.6830   -0.6440   -1.8210 C   0  0  0  0  0  0  0  0  0  0  0  0
   -1.9630    0.5360   -1.5430 N   0  0  0  0  0  0  0  0  0  0  0  0
   -0.9240    0.9630   -2.4650 C   0  0  0  0  0  0  0  0  0  0  0  0
   -0.7060    0.2900   -3.4930 O   0  0  0  0  0  0  0  0  0  0  0  0
   -0.1230    2.1970   -2.1870 C   0  0  1  0  0  0  0  0  0  0  0  0
   -0.5590    2.7720   -0.9850 O   0  0  0  0  0  0  0  0  0  0  0  0
    0.3680    2.5310    0.0040 C   0  0  0  0  0  0  0  0  0  0  0  0
    0.1820    2.8200    1.2200 O   0  0  0  0  0  0  0  0  0  0  0  0
    1.5160    1.9300   -0.5460 N   0  0  0  0  0  0  0  0  0  0  0  0
    2.6680    1.5580    0.2330 C   0  0  0  0  0  0  0  0  0  0  0  0
    2.5500    0.1320    0.7590 C   0  0  0  0  0  0  0  0  0  0  0  0
    1.4190   -0.5870    0.4470 C   0  0  0  0  0  0  0  0  0  0  0  0
    1.6460   -2.1670    1.2320 S   0  0  0  0  0  0  0  0  0  0  0  0
    3.2860   -1.7360    1.9410 C   0  0  0  0  0  0  0  0  0  0  0  0
    3.4750   -0.4630    1.5100 C   0  0  0  0  0  0  0  0  0  0  0  0
    4.7740    0.2530    1.9060 C   0  0  1  0  0  0  0  0  0  0  0  0
    5.5400   -0.5610    2.9150 C   0  0  0  0  0  0  0  0  0  0  0  0
    5.6310    0.5060    0.6880 C   0  0  0  0  0  0  0  0  0  0  0  0
    1.2700    1.8030   -1.9250 C   0  0  0  0  0  0  0  0  0  0  0  0
    2.0900    1.4210   -2.7960 O   0  0  0  0  0  0  0  0  0  0  0  0
  1  2  1  0
  2  3  2  3
  3  4  1  0
  3  6  1  0
  4  5  1  0
  6  7  1  0
  6 10  1  0
  7  8  2  0
  8  9  1  0
  9 10  2  0
 10 11  1  0
 11 12  1  0
 12 13  2  0
 14 12  1  1
 14 15  1  0
 14 28  1  0
 15 16  1  0
 16 17  2  0
 16 18  1  0
 18 19  1  0
 18 28  1  0
 19 20  1  0
 20 21  2  0
 20 24  1  0
 21 22  1  0
 22 23  1  0
 23 24  2  0
 24 25  1  0
 25 26  1  1
 25 27  1  0
 28 29  2  0
M  END
