
     RDKit          3D

 29 31  0  0  0  0  0  0  0  0999 V2000
    6.8490    1.9460   -0.5230 C   0  0  0  0  0  0  0  0  0  0  0  0
    6.3060    0.6750    0.1270 C   0  0  0  0  0  0  0  0  0  0  0  0
    5.9090    1.0100    1.5740 C   0  0  0  0  0  0  0  0  0  0  0  0
    5.4510   -0.1050    2.1790 O   0  0  0  0  0  0  0  0  0  0  0  0
    4.3670   -0.6940    1.6160 C   0  0  0  0  0  0  0  0  0  0  0  0
    3.1830    0.1770    1.6570 C   0  0  0  0  0  0  0  0  0  0  0  0
    3.2070    1.2920    2.2080 O   0  0  0  0  0  0  0  0  0  0  0  0
    1.9760   -0.3120    1.0290 N   0  0  0  0  0  0  0  0  0  0  0  0
    1.9360   -1.5530    0.4270 N   0  0  0  0  0  0  0  0  0  0  0  0
    0.7950   -2.0670   -0.2080 C   0  0  0  0  0  0  0  0  0  0  0  0
    0.8980   -3.2170   -0.7190 O   0  0  0  0  0  0  0  0  0  0  0  0
   -0.4900   -1.3980   -0.3300 C   0  0  0  0  0  0  0  0  0  0  0  0
   -1.5660   -2.0740   -1.0210 N   0  0  0  0  0  0  0  0  0  0  0  0
   -2.1480   -3.2660   -0.4880 C   0  0  0  0  0  0  0  0  0  0  0  0
   -2.0260   -1.5090   -2.2520 C   0  0  0  0  0  0  0  0  0  0  0  0
   -0.7350   -0.2000    0.1570 C   0  0  0  0  0  0  0  0  0  0  0  0
   -1.9920    0.3630   -0.0070 N   0  0  0  0  0  0  0  0  0  0  0  0
   -3.0600    0.0950    0.6250 C   0  0  0  0  0  0  0  0  0  0  0  0
   -3.2280   -0.8750    1.6860 C   0  0  0  0  0  0  0  0  0  0  0  0
   -4.5050   -0.8660    2.1010 C   0  0  0  0  0  0  0  0  0  0  0  0
   -5.2160    0.1420    1.2940 C   0  0  0  0  0  0  0  0  0  0  0  0
   -4.3580    0.7080    0.4240 C   0  0  0  0  0  0  0  0  0  0  0  0
   -4.6890    1.7470   -0.5410 C   0  0  0  0  0  0  0  0  0  0  0  0
   -5.9270    2.3250   -0.7280 C   0  0  0  0  0  0  0  0  0  0  0  0
   -5.7960    3.2610   -1.7400 C   0  0  0  0  0  0  0  0  0  0  0  0
   -4.4660    3.2030   -2.1230 C   0  0  0  0  0  0  0  0  0  0  0  0
   -3.7850    4.2040   -3.3860 Cl  0  0  0  0  0  0  0  0  0  0  0  0
   -3.8490    2.2870   -1.3800 O   0  0  0  0  0  0  0  0  0  0  0  0
    0.5250    0.6860    1.0200 S   0  0  0  0  0  0  0  0  0  0  0  0
  1  2  1  0
  2  3  1  0
  3  4  1  0
  4  5  1  0
  5  6  1  0
  6  7  2  0
  6  8  1  0
  8  9  1  0
  8 29  1  0
  9 10  1  0
 10 11  2  0
 10 12  1  0
 12 13  1  0
 12 16  2  0
 13 14  1  0
 13 15  1  0
 16 17  1  0
 16 29  1  0
 17 18  2  3
 18 19  1  0
 18 22  1  0
 19 20  2  0
 20 21  1  0
 21 22  2  0
 22 23  1  0
 23 24  2  0
 23 28  1  0
 24 25  1  0
 25 26  2  0
 26 27  1  0
 26 28  1  0
M  END
