
     RDKit          3D

 29 31  0  0  0  0  0  0  0  0999 V2000
   -7.4670   -1.2310   -1.7230 C   0  0  0  0  0  0  0  0  0  0  0  0
   -7.0450   -1.1820   -0.3170 N   0  0  0  0  0  0  0  0  0  0  0  0
   -8.0260   -1.4990    0.6690 C   0  0  0  0  0  0  0  0  0  0  0  0
   -5.7340   -0.8340   -0.0150 C   0  0  0  0  0  0  0  0  0  0  0  0
   -4.9300   -0.5670   -0.9690 O   0  0  0  0  0  0  0  0  0  0  0  0
   -5.2190   -0.7560    1.3320 C   0  0  0  0  0  0  0  0  0  0  0  0
   -6.2060   -1.1000    2.7610 Cl  0  0  0  0  0  0  0  0  0  0  0  0
   -3.9700   -0.4190    1.5660 C   0  0  0  0  0  0  0  0  0  0  0  0
   -3.1090   -0.1260    0.4690 N   0  0  0  0  0  0  0  0  0  0  0  0
   -2.3340   -1.0360   -0.1770 C   0  0  0  0  0  0  0  0  0  0  0  0
   -1.6300   -0.4040   -1.1820 C   0  0  0  0  0  0  0  0  0  0  0  0
   -1.9670    0.9270   -1.1670 C   0  0  0  0  0  0  0  0  0  0  0  0
   -1.4030    2.2690   -2.2000 S   0  0  0  0  0  0  0  0  0  0  0  0
   -0.8030    1.6570   -3.4530 O   0  0  0  0  0  0  0  0  0  0  0  0
   -0.1910    3.2120   -1.3000 C   0  0  0  0  0  0  0  0  0  0  0  0
    1.0140    2.5110   -0.8950 C   0  0  0  0  0  0  0  0  0  0  0  0
    1.7840    3.1050   -0.0550 O   0  0  0  0  0  0  0  0  0  0  0  0
    1.4000    1.2300   -1.3590 N   0  0  0  0  0  0  0  0  0  0  0  0
    2.6330    0.6670   -0.8560 C   0  0  0  0  0  0  0  0  0  0  0  0
    3.1030   -0.5360   -1.2260 N   0  0  0  0  0  0  0  0  0  0  0  0
    4.2790   -0.7690   -0.5740 C   0  0  0  0  0  0  0  0  0  0  0  0
    4.4840    0.3530    0.2010 C   0  0  0  0  0  0  0  0  0  0  0  0
    5.6530    0.5750    1.1070 C   0  0  2  0  0  0  0  0  0  0  0  0
    6.9400    0.6830    0.3200 C   0  0  0  0  0  0  0  0  0  0  0  0
    7.4830   -0.7230    0.3040 C   0  0  0  0  0  0  0  0  0  0  0  0
    6.8750   -1.4520    1.4750 C   0  0  0  0  0  0  0  0  0  0  0  0
    5.8220   -0.5450    2.0720 C   0  0  0  0  0  0  0  0  0  0  0  0
    3.4700    1.1660   -0.0140 O   0  0  0  0  0  0  0  0  0  0  0  0
   -2.8930    1.0600   -0.1210 C   0  0  0  0  0  0  0  0  0  0  0  0
  1  2  1  0
  2  3  1  0
  2  4  1  0
  4  5  2  0
  4  6  1  0
  6  7  1  0
  6  8  2  3
  8  9  1  0
  9 10  1  0
  9 29  1  0
 10 11  2  0
 11 12  1  0
 12 13  1  0
 12 29  2  0
 13 14  2  0
 13 15  1  1
 15 16  1  0
 16 17  2  0
 16 18  1  0
 18 19  1  0
 19 20  2  0
 19 28  1  0
 20 21  1  0
 21 22  2  0
 23 22  1  6
 22 28  1  0
 23 24  1  0
 23 27  1  0
 24 25  1  0
 25 26  1  0
 26 27  1  0
M  END
