
     RDKit          3D

 30 33  0  0  0  0  0  0  0  0999 V2000
   -7.0810    0.6610   -0.7300 C   0  0  0  0  0  0  0  0  0  0  0  0
   -5.9480   -0.1980   -1.2790 C   0  0  1  0  0  0  0  0  0  0  0  0
   -6.5970   -1.3420   -1.8040 O   0  0  0  0  0  0  0  0  0  0  0  0
   -5.2780    0.5700   -2.3250 C   0  0  0  0  0  0  0  0  0  0  0  0
   -4.7150    1.1900   -3.1800 N   0  0  0  0  0  0  0  0  0  0  0  0
   -5.0100   -0.5550   -0.1740 C   0  0  0  0  0  0  0  0  0  0  0  0
   -5.3470   -0.4240    1.1410 N   0  0  0  0  0  0  0  0  0  0  0  0
   -4.3350   -0.7870    1.8020 O   0  0  0  0  0  0  0  0  0  0  0  0
   -3.3540   -1.1470    1.1340 C   0  0  0  0  0  0  0  0  0  0  0  0
   -1.9760   -1.6450    1.5720 C   0  0  0  0  0  0  0  0  0  0  0  0
   -1.1280   -0.4660    1.9800 C   0  0  0  0  0  0  0  0  0  0  0  0
   -0.8480    0.4840    0.9060 C   0  0  0  0  0  0  0  0  0  0  0  0
   -1.7170    1.3490    0.3070 N   0  0  0  0  0  0  0  0  0  0  0  0
   -1.1530    2.0180   -0.6970 C   0  0  0  0  0  0  0  0  0  0  0  0
    0.1670    1.6030   -0.7920 C   0  0  0  0  0  0  0  0  0  0  0  0
    1.2240    1.9860   -1.5740 C   0  0  0  0  0  0  0  0  0  0  0  0
    1.0020    2.8370   -2.4620 O   0  0  0  0  0  0  0  0  0  0  0  0
    2.4100    1.4420   -1.3440 N   0  0  0  0  0  0  0  0  0  0  0  0
    2.6420    0.5240   -0.3750 C   0  0  0  0  0  0  0  0  0  0  0  0
    4.0550    0.0960   -0.1900 C   0  0  2  0  0  0  0  0  0  0  0  0
    4.4860   -0.9880   -1.1440 C   0  0  0  0  0  0  0  0  0  0  0  0
    6.0020   -0.7160   -1.3660 C   0  0  0  0  0  0  0  0  0  0  0  0
    6.6010   -0.4280   -0.0740 N   0  0  0  0  0  0  0  0  0  0  0  0
    5.8870   -0.7910    1.1460 C   0  0  0  0  0  0  0  0  0  0  0  0
    6.4240   -1.4860    1.9580 O   0  0  0  0  0  0  0  0  0  0  0  0
    4.5020   -0.1880    1.1870 C   0  0  2  0  0  0  0  0  0  0  0  0
    3.7320   -1.2180    1.8060 O   0  0  0  0  0  0  0  0  0  0  0  0
    1.6160    0.0920    0.4320 C   0  0  0  0  0  0  0  0  0  0  0  0
    0.3360    0.6700    0.1940 C   0  0  0  0  0  0  0  0  0  0  0  0
   -3.7280   -1.0230   -0.2240 N   0  0  0  0  0  0  0  0  0  0  0  0
  2  1  1  1
  2  3  1  0
  2  4  1  0
  2  6  1  0
  4  5  3  0
  6  7  2  0
  6 30  1  0
  7  8  1  0
  8  9  1  0
  9 10  1  0
  9 30  2  0
 10 11  1  0
 11 12  1  0
 12 13  1  0
 12 29  2  0
 13 14  1  0
 14 15  2  0
 15 16  1  0
 15 29  1  0
 16 17  2  0
 16 18  1  0
 18 19  1  0
 20 19  1  1
 19 28  2  0
 20 21  1  0
 20 26  1  0
 21 22  1  0
 22 23  1  0
 23 24  1  0
 24 25  2  0
 24 26  1  0
 26 27  1  6
 28 29  1  0
M  END
