
     RDKit          3D

 29 31  0  0  0  0  0  0  0  0999 V2000
   -1.8350   -2.7470    1.0230 C   0  0  0  0  0  0  0  0  0  0  0  0
   -2.3680   -1.4580    1.6150 C   0  0  0  0  0  0  0  0  0  0  0  0
   -2.8680   -0.5550    0.6060 N   0  0  0  0  0  0  0  0  0  0  0  0
   -1.9660    0.3760    0.0510 C   0  0  0  0  0  0  0  0  0  0  0  0
   -2.3550    1.1860   -0.8440 O   0  0  0  0  0  0  0  0  0  0  0  0
   -0.5390    0.4620    0.4720 C   0  0  0  0  0  0  0  0  0  0  0  0
    0.1760    1.5910   -0.2850 C   0  0  0  0  0  0  0  0  0  0  0  0
    1.5730    1.5660    0.2240 C   0  0  0  0  0  0  0  0  0  0  0  0
    2.0230    2.4280    1.1810 N   0  0  0  0  0  0  0  0  0  0  0  0
    3.2580    2.1220    1.4780 N   0  0  0  0  0  0  0  0  0  0  0  0
    3.6550    1.0740    0.7420 C   0  0  0  0  0  0  0  0  0  0  0  0
    4.9620    0.5230    0.7580 N   0  0  0  0  0  0  0  0  0  0  0  0
    5.9480    0.9900    1.6830 C   0  0  0  0  0  0  0  0  0  0  0  0
    7.3400    0.4010    1.6360 C   0  0  0  0  0  0  0  0  0  0  0  0
    5.7590    1.8560    2.5430 O   0  0  0  0  0  0  0  0  0  0  0  0
    2.5750    0.6970   -0.0800 C   0  0  0  0  0  0  0  0  0  0  0  0
    2.6080   -0.3280   -1.1050 C   0  0  0  0  0  0  0  0  0  0  0  0
    3.2970   -1.4780   -1.0530 C   0  0  0  0  0  0  0  0  0  0  0  0
    3.0420   -2.2250   -2.3090 C   0  0  0  0  0  0  0  0  0  0  0  0
    1.9300   -1.6220   -2.7420 C   0  0  0  0  0  0  0  0  0  0  0  0
    2.0430   -0.3130   -2.4730 C   0  0  0  0  0  0  0  0  0  0  0  0
    1.6970    1.0300   -3.4970 Cl  0  0  0  0  0  0  0  0  0  0  0  0
   -4.2410   -0.5370    0.1260 C   0  0  1  0  0  0  0  0  0  0  0  0
   -4.9730    0.6930    0.4230 C   0  0  0  0  0  0  0  0  0  0  0  0
   -5.3520    1.4890   -0.7610 C   0  0  0  0  0  0  0  0  0  0  0  0
   -5.1540    0.3530   -2.1070 S   0  0  1  0  0  0  0  0  0  0  0  0
   -6.4940   -0.1660   -2.6050 O   0  0  0  0  0  0  0  0  0  0  0  0
   -4.3950    0.9820   -3.2330 O   0  0  0  0  0  0  0  0  0  0  0  0
   -4.2440   -0.9280   -1.2980 C   0  0  0  0  0  0  0  0  0  0  0  0
  1  2  1  0
  2  3  1  0
  3  4  1  0
 23  3  1  6
  4  5  2  0
  4  6  1  0
  6  7  1  0
  7  8  1  0
  8  9  2  0
  8 16  1  0
  9 10  1  0
 10 11  1  0
 11 12  1  0
 11 16  2  0
 12 13  1  0
 13 14  1  0
 13 15  2  0
 16 17  1  0
 17 18  2  0
 17 21  1  0
 18 19  1  0
 19 20  2  0
 20 21  2  0
 21 22  1  0
 23 24  1  0
 23 29  1  0
 24 25  1  0
 26 25  1  1
 26 27  2  0
 26 28  2  0
 26 29  1  0
M  END
