
     RDKit          3D

 19 20  0  0  0  0  0  0  0  0999 V2000
   -3.9790   -2.8930    0.1970 C   0  0  0  0  0  0  0  0  0  0  0  0
   -2.7810   -2.3840    0.1780 C   0  0  0  0  0  0  0  0  0  0  0  0
   -1.7170   -3.1950    0.5000 O   0  0  0  0  0  0  0  0  0  0  0  0
   -0.3950   -2.8250    0.5310 C   0  0  0  0  0  0  0  0  0  0  0  0
   -0.1580   -1.4110    0.1750 C   0  0  0  0  0  0  0  0  0  0  0  0
    1.2730   -0.9840    0.2010 C   0  0  0  0  0  0  0  0  0  0  0  0
    2.1050   -1.8710    0.5200 O   0  0  0  0  0  0  0  0  0  0  0  0
    1.7160    0.3090   -0.1020 N   0  0  0  0  0  0  0  0  0  0  0  0
    3.0540    0.7730   -0.0950 C   0  0  0  0  0  0  0  0  0  0  0  0
    3.2850    2.1020   -0.4280 C   0  0  0  0  0  0  0  0  0  0  0  0
    4.5310    2.6720   -0.4580 C   0  0  0  0  0  0  0  0  0  0  0  0
    5.6180    1.8780   -0.1390 C   0  0  0  0  0  0  0  0  0  0  0  0
    5.4420    0.5610    0.1960 C   0  0  0  0  0  0  0  0  0  0  0  0
    4.1560    0.0360    0.2110 C   0  0  0  0  0  0  0  0  0  0  0  0
   -1.1140   -0.5860   -0.1400 C   0  0  0  0  0  0  0  0  0  0  0  0
   -2.5130   -0.9910   -0.1690 C   0  0  0  0  0  0  0  0  0  0  0  0
   -3.4680   -0.1680   -0.4820 C   0  0  0  0  0  0  0  0  0  0  0  0
   -3.3200    1.2370   -0.8440 C   0  0  0  0  0  0  0  0  0  0  0  0
   -4.0500    2.0830    0.0900 N   0  0  0  0  0  0  0  0  0  0  0  0
  1  2  2  0
  2  3  1  0
  2 16  1  0
  3  4  1  0
  4  5  1  0
  5  6  1  0
  5 15  2  0
  6  7  2  0
  6  8  1  0
  8  9  1  0
  9 10  2  0
  9 14  1  0
 10 11  1  0
 11 12  2  0
 12 13  1  0
 13 14  2  0
 15 16  1  0
 16 17  2  3
 17 18  1  0
 18 19  1  0
M  CHG  1  19   1
M  END
