
     RDKit          3D

 19 20  0  0  0  0  0  0  0  0999 V2000
    2.7730   -1.7840   -0.0170 C   0  0  0  0  0  0  0  0  0  0  0  0
    1.6800   -0.9670   -0.7130 C   0  0  2  0  0  0  0  0  0  0  0  0
    1.2000   -1.7620   -1.7870 N   0  0  0  0  0  0  0  0  0  0  0  0
    2.3140    0.3140   -1.2680 C   0  0  0  0  0  0  0  0  0  0  0  0
    2.9230    1.1460   -0.2090 C   0  0  0  0  0  0  0  0  0  0  0  0
    4.2310    1.0190    0.2250 C   0  0  0  0  0  0  0  0  0  0  0  0
    4.4500    1.9410    1.2020 C   0  0  0  0  0  0  0  0  0  0  0  0
    3.2560    2.6210    1.3480 C   0  0  0  0  0  0  0  0  0  0  0  0
    2.3950    2.1220    0.5040 O   0  0  0  0  0  0  0  0  0  0  0  0
    0.7000   -0.5700    0.2840 C   0  0  0  0  0  0  0  0  0  0  0  0
    1.2700   -0.0520    1.3610 O   0  0  0  0  0  0  0  0  0  0  0  0
   -0.6810   -0.6220    0.3310 N   0  0  0  0  0  0  0  0  0  0  0  0
   -1.3770   -0.1280    1.5380 C   0  0  0  0  0  0  0  0  0  0  0  0
   -2.3680    0.9100    0.9870 C   0  0  0  0  0  0  0  0  0  0  0  0
   -3.4840    0.1070    0.3720 C   0  0  1  0  0  0  0  0  0  0  0  0
   -4.2900    0.8710   -0.6500 C   0  0  0  0  0  0  0  0  0  0  0  0
   -3.5560    1.3480   -1.7670 N   0  0  0  0  0  0  0  0  0  0  0  0
   -2.9870   -1.1970   -0.1640 C   0  0  0  0  0  0  0  0  0  0  0  0
   -1.5420   -1.1050   -0.6980 C   0  0  0  0  0  0  0  0  0  0  0  0
  2  1  1  1
  2  3  1  0
  2  4  1  0
  2 10  1  0
  4  5  1  0
  5  6  2  0
  5  9  1  0
  6  7  1  0
  7  8  2  0
  8  9  1  0
 10 11  2  0
 10 12  1  0
 12 13  1  0
 12 19  1  0
 13 14  1  0
 14 15  1  0
 15 16  1  6
 15 18  1  0
 16 17  1  0
 18 19  1  0
M  CHG  1   3   1
M  END
