
     RDKit          3D

 19 20  0  0  0  0  0  0  0  0999 V2000
    4.3600    0.3870    1.4630 C   0  0  0  0  0  0  0  0  0  0  0  0
    4.2220   -0.0220    0.0080 C   0  0  1  0  0  0  0  0  0  0  0  0
    4.4990   -1.5050   -0.1580 C   0  0  0  0  0  0  0  0  0  0  0  0
    2.9110    0.3830   -0.5750 C   0  0  2  0  0  0  0  0  0  0  0  0
    2.7890    1.8210   -0.4940 N   0  0  0  0  0  0  0  0  0  0  0  0
    1.7340   -0.2200    0.1630 C   0  0  0  0  0  0  0  0  0  0  0  0
    0.4590    0.2550   -0.5090 C   0  0  0  0  0  0  0  0  0  0  0  0
    0.5090    1.0080   -1.4920 O   0  0  0  0  0  0  0  0  0  0  0  0
   -0.7890   -0.1760    0.0030 N   0  0  0  0  0  0  0  0  0  0  0  0
   -2.0600    0.1540   -0.4810 C   0  0  0  0  0  0  0  0  0  0  0  0
   -2.2180    0.9780   -1.5660 C   0  0  0  0  0  0  0  0  0  0  0  0
   -3.4880    1.3220   -2.0690 C   0  0  0  0  0  0  0  0  0  0  0  0
   -4.6030    0.8170   -1.4530 C   0  0  0  0  0  0  0  0  0  0  0  0
   -4.4740   -0.0110   -0.3650 C   0  0  0  0  0  0  0  0  0  0  0  0
   -3.2020   -0.3420    0.1210 C   0  0  0  0  0  0  0  0  0  0  0  0
   -3.1510   -1.1330    1.1580 C   0  0  0  0  0  0  0  0  0  0  0  0
   -4.3430   -1.7080    1.8620 C   0  0  0  0  0  0  0  0  0  0  0  0
   -5.5380   -1.3030    1.2830 O   0  0  0  0  0  0  0  0  0  0  0  0
   -5.5860   -0.4690    0.1890 C   0  0  0  0  0  0  0  0  0  0  0  0
  2  1  1  1
  2  3  1  0
  2  4  1  0
  4  5  1  1
  4  6  1  0
  6  7  1  0
  7  8  2  0
  7  9  1  0
  9 10  1  0
 10 11  2  0
 10 15  1  0
 11 12  1  0
 12 13  2  0
 13 14  1  0
 14 15  1  0
 14 19  2  0
 15 16  2  0
 16 17  1  0
 17 18  1  0
 18 19  1  0
M  CHG  1   5   1
M  END
