
     RDKit          3D

 19 20  0  0  0  0  0  0  0  0999 V2000
    4.8460   -0.8370    0.9280 N   0  0  0  0  0  0  0  0  0  0  0  0
    5.1170    0.0970   -0.1010 C   0  0  0  0  0  0  0  0  0  0  0  0
    6.4720    0.3950   -0.3770 N   0  0  0  0  0  0  0  0  0  0  0  0
    4.2000    0.6780   -0.7830 N   0  0  0  0  0  0  0  0  0  0  0  0
    2.8540    0.3550   -0.4790 C   0  0  0  0  0  0  0  0  0  0  0  0
    2.1630   -0.4640   -1.3370 C   0  0  0  0  0  0  0  0  0  0  0  0
    0.8350   -0.7980   -1.0610 C   0  0  0  0  0  0  0  0  0  0  0  0
    0.2210   -0.3110    0.0630 C   0  0  0  0  0  0  0  0  0  0  0  0
   -1.1810   -0.6720    0.3420 C   0  0  0  0  0  0  0  0  0  0  0  0
   -2.0550    0.3410   -0.2950 C   0  0  0  0  0  0  0  0  0  0  0  0
   -1.6100    1.3170   -0.9480 O   0  0  0  0  0  0  0  0  0  0  0  0
   -3.5100    0.2180   -0.1710 C   0  0  0  0  0  0  0  0  0  0  0  0
   -4.3720    1.1290   -0.7410 C   0  0  0  0  0  0  0  0  0  0  0  0
   -5.7450    1.0450   -0.6440 C   0  0  0  0  0  0  0  0  0  0  0  0
   -6.2650   -0.0260    0.0730 C   0  0  0  0  0  0  0  0  0  0  0  0
   -5.4380   -0.9630    0.6620 C   0  0  0  0  0  0  0  0  0  0  0  0
   -4.0690   -0.8370    0.5380 C   0  0  0  0  0  0  0  0  0  0  0  0
    0.8960    0.5060    0.9280 C   0  0  0  0  0  0  0  0  0  0  0  0
    2.2280    0.8390    0.6490 C   0  0  0  0  0  0  0  0  0  0  0  0
  1  2  1  0
  2  3  1  0
  2  4  2  3
  4  5  1  0
  5  6  2  0
  5 19  1  0
  6  7  1  0
  7  8  2  0
  8  9  1  0
  8 18  1  0
  9 10  1  0
 10 11  2  0
 10 12  1  0
 12 13  2  0
 12 17  1  0
 13 14  1  0
 14 15  2  0
 15 16  1  0
 16 17  2  0
 18 19  2  0
M  CHG  1   4   1
M  END
