
     RDKit          3D

 19 20  0  0  0  0  0  0  0  0999 V2000
    5.6030    1.2260   -0.3610 C   0  0  0  0  0  0  0  0  0  0  0  0
    4.8900   -0.0220   -0.8630 C   0  0  0  0  0  0  0  0  0  0  0  0
    3.6790   -0.3060   -0.0540 C   0  0  0  0  0  0  0  0  0  0  0  0
    2.6450    0.8040   -0.0390 C   0  0  1  0  0  0  0  0  0  0  0  0
    2.2680    1.0610   -1.3800 O   0  0  0  0  0  0  0  0  0  0  0  0
    1.4040    0.1780    0.5500 C   0  0  0  0  0  0  0  0  0  0  0  0
    1.3160   -1.0580    1.1610 C   0  0  0  0  0  0  0  0  0  0  0  0
    0.0510   -1.2950    1.4250 C   0  0  0  0  0  0  0  0  0  0  0  0
   -0.7650   -0.2310    1.0020 N   0  0  0  0  0  0  0  0  0  0  0  0
   -2.1620   -0.4470    1.0490 C   0  0  0  0  0  0  0  0  0  0  0  0
   -2.7290   -1.0650    2.1380 C   0  0  0  0  0  0  0  0  0  0  0  0
   -4.0690   -1.5130    2.0800 C   0  0  0  0  0  0  0  0  0  0  0  0
   -4.8170   -1.3480    0.9220 C   0  0  0  0  0  0  0  0  0  0  0  0
   -4.2360   -0.7150   -0.1420 C   0  0  0  0  0  0  0  0  0  0  0  0
   -4.9620   -0.5580   -1.3330 O   0  0  0  0  0  0  0  0  0  0  0  0
   -2.8810   -0.2610   -0.0490 C   0  0  0  0  0  0  0  0  0  0  0  0
   -2.2900    0.4010   -1.2250 C   0  0  0  0  0  0  0  0  0  0  0  0
   -3.1350    1.5190   -1.5580 N   0  0  0  0  0  0  0  0  0  0  0  0
    0.0820    0.6680    0.4820 C   0  0  0  0  0  0  0  0  0  0  0  0
  1  2  1  0
  2  3  1  0
  3  4  1  0
  4  5  1  6
  4  6  1  0
  6  7  1  0
  6 19  2  0
  7  8  2  0
  8  9  1  0
  9 10  1  0
  9 19  1  0
 10 11  2  0
 10 16  1  0
 11 12  1  0
 12 13  2  0
 13 14  1  0
 14 15  1  0
 14 16  2  0
 16 17  1  0
 17 18  1  0
M  CHG  1  18   1
M  END
