
     RDKit          3D

 19 20  0  0  0  0  0  0  0  0999 V2000
    6.5570   -0.8940   -0.6550 N   0  0  0  0  0  0  0  0  0  0  0  0
    5.1560   -0.9130   -0.4050 C   0  0  0  0  0  0  0  0  0  0  0  0
    4.4820   -1.8570   -0.7550 O   0  0  0  0  0  0  0  0  0  0  0  0
    4.5110    0.2280    0.2860 C   0  0  0  0  0  0  0  0  0  0  0  0
    3.0460   -0.0790    0.4030 C   0  0  0  0  0  0  0  0  0  0  0  0
    2.1970    0.7320   -0.1560 C   0  0  0  0  0  0  0  0  0  0  0  0
    0.7430    0.5130   -0.0940 C   0  0  0  0  0  0  0  0  0  0  0  0
    0.2020   -0.5650    0.5610 C   0  0  0  0  0  0  0  0  0  0  0  0
   -1.1710   -0.7220    0.5870 C   0  0  0  0  0  0  0  0  0  0  0  0
   -1.9510    0.2170   -0.0490 C   0  0  0  0  0  0  0  0  0  0  0  0
   -3.4180    0.1090   -0.0580 C   0  0  0  0  0  0  0  0  0  0  0  0
   -4.0440   -0.2030    1.1300 C   0  0  0  0  0  0  0  0  0  0  0  0
   -5.4350   -0.3180    1.1780 C   0  0  0  0  0  0  0  0  0  0  0  0
   -6.2010   -0.1230    0.0480 C   0  0  0  0  0  0  0  0  0  0  0  0
   -5.5610    0.1870   -1.1300 C   0  0  0  0  0  0  0  0  0  0  0  0
   -4.1680    0.3070   -1.1980 C   0  0  0  0  0  0  0  0  0  0  0  0
   -1.3930    1.2920   -0.7020 C   0  0  0  0  0  0  0  0  0  0  0  0
   -2.1540    2.1430   -1.2820 O   0  0  0  0  0  0  0  0  0  0  0  0
   -0.0660    1.4190   -0.7120 N   0  0  0  0  0  0  0  0  0  0  0  0
  1  2  1  0
  2  3  2  0
  2  4  1  0
  4  5  1  0
  5  6  2  3
  6  7  1  0
  7  8  2  0
  7 19  1  0
  8  9  1  0
  9 10  2  0
 10 11  1  0
 10 17  1  0
 11 12  2  0
 11 16  1  0
 12 13  1  0
 13 14  2  0
 14 15  1  0
 15 16  2  0
 17 18  2  0
 17 19  1  0
M  CHG  1   1   1
M  END
