
     RDKit          3D

 44 48  0  0  0  0  0  0  0  0999 V2000
   11.9490    2.4060    1.2830 C   0  0  0  0  0  0  0  0  0  0  0  0
   11.2380    1.6930    0.2020 C   0  0  0  0  0  0  0  0  0  0  0  0
   11.6710    1.7520   -1.1200 C   0  0  0  0  0  0  0  0  0  0  0  0
   10.9680    1.0630   -2.1070 C   0  0  0  0  0  0  0  0  0  0  0  0
    9.8500    0.3210   -1.8190 C   0  0  0  0  0  0  0  0  0  0  0  0
    9.4240    0.2640   -0.5120 C   0  0  0  0  0  0  0  0  0  0  0  0
    8.2250   -0.5230   -0.1690 C   0  0  0  0  0  0  0  0  0  0  0  0
    7.0380    0.3180   -0.1060 N   0  0  0  0  0  0  0  0  0  0  0  0
    5.7490   -0.1840    0.2440 C   0  0  0  0  0  0  0  0  0  0  0  0
    5.6250   -1.3860    0.5000 O   0  0  0  0  0  0  0  0  0  0  0  0
    4.6100    0.6410    0.3100 N   0  0  0  0  0  0  0  0  0  0  0  0
    3.2810    0.3170    0.6220 C   0  0  0  0  0  0  0  0  0  0  0  0
    2.5060   -0.6070   -0.2310 C   0  0  2  0  0  0  0  0  0  0  0  0
    1.1540   -0.6760    0.4190 N   0  0  0  0  0  0  0  0  0  0  0  0
    0.0440   -0.0530   -0.1890 C   0  0  0  0  0  0  0  0  0  0  0  0
    0.2430    0.5650   -1.2970 O   0  0  0  0  0  0  0  0  0  0  0  0
   -1.3160   -0.0650    0.3710 C   0  0  0  0  0  0  0  0  0  0  0  0
   -1.8650   -0.8320    1.3560 C   0  0  0  0  0  0  0  0  0  0  0  0
   -1.2310   -1.9430    2.0910 C   0  0  0  0  0  0  0  0  0  0  0  0
   -3.1370   -0.4130    1.5400 N   0  0  0  0  0  0  0  0  0  0  0  0
   -3.4410    0.5700    0.7400 C   0  0  0  0  0  0  0  0  0  0  0  0
   -2.3010    0.8320   -0.0350 C   0  0  0  0  0  0  0  0  0  0  0  0
   -2.3430    1.8970   -1.0410 C   0  0  0  0  0  0  0  0  0  0  0  0
   -3.6150    1.8470   -1.8650 C   0  0  0  0  0  0  0  0  0  0  0  0
   -4.7640    1.4750   -1.0090 C   0  0  0  0  0  0  0  0  0  0  0  0
   -5.9160    1.2220   -1.5620 C   0  0  0  0  0  0  0  0  0  0  0  0
   -7.1570    0.8390   -0.9200 C   0  0  0  0  0  0  0  0  0  0  0  0
   -8.3220    1.5880   -1.1560 C   0  0  0  0  0  0  0  0  0  0  0  0
   -9.4970    1.2200   -0.5820 C   0  0  0  0  0  0  0  0  0  0  0  0
   -9.6170    0.1210    0.2430 C   0  0  0  0  0  0  0  0  0  0  0  0
  -10.9430   -0.2040    0.8400 C   0  0  2  0  0  0  0  0  0  0  0  0
  -11.9670   -0.1390   -0.2690 C   0  0  0  0  0  0  0  0  0  0  0  0
  -11.2520    0.9250    1.8390 C   0  0  0  0  0  0  0  0  0  0  0  0
   -8.4850   -0.6140    0.4770 C   0  0  0  0  0  0  0  0  0  0  0  0
   -7.2620   -0.2530   -0.1050 C   0  0  0  0  0  0  0  0  0  0  0  0
   -6.1850   -1.0490    0.1430 F   0  0  0  0  0  0  0  0  0  0  0  0
   -4.5910    1.4490    0.4540 C   0  0  0  0  0  0  0  0  0  0  0  0
    2.9180   -1.9980   -0.3250 C   0  0  0  0  0  0  0  0  0  0  0  0
    2.8300   -2.9340    0.6670 C   0  0  0  0  0  0  0  0  0  0  0  0
    3.2320   -4.2170    0.4500 C   0  0  0  0  0  0  0  0  0  0  0  0
    3.7400   -4.6060   -0.7820 C   0  0  0  0  0  0  0  0  0  0  0  0
    3.8410   -3.6890   -1.8000 C   0  0  0  0  0  0  0  0  0  0  0  0
    3.4340   -2.4100   -1.5620 C   0  0  0  0  0  0  0  0  0  0  0  0
   10.1230    0.9520    0.4850 C   0  0  0  0  0  0  0  0  0  0  0  0
  1  2  1  0
  2  3  2  0
  2 44  1  0
  3  4  1  0
  4  5  2  0
  5  6  1  0
  6  7  1  0
  6 44  2  0
  7  8  1  0
  8  9  1  0
  9 10  2  0
  9 11  1  0
 11 12  1  0
 13 12  1  1
 13 14  1  0
 13 38  1  0
 14 15  1  0
 15 16  2  0
 15 17  1  0
 17 18  2  0
 17 22  1  0
 18 19  1  0
 18 20  1  0
 20 21  1  0
 21 22  2  0
 21 37  1  0
 22 23  1  0
 23 24  1  0
 24 25  1  0
 25 26  2  3
 25 37  1  0
 26 27  1  0
 27 28  2  0
 27 35  1  0
 28 29  1  0
 29 30  2  0
 30 31  1  0
 30 34  1  0
 31 32  1  6
 31 33  1  0
 34 35  2  0
 35 36  1  0
 38 39  2  0
 38 43  1  0
 39 40  1  0
 40 41  2  0
 41 42  1  0
 42 43  2  0
M  END
