
     RDKit          3D

 44 48  0  0  0  0  0  0  0  0999 V2000
    5.6340   -6.1790   -0.3220 C   0  0  0  0  0  0  0  0  0  0  0  0
    5.2960   -5.5360    0.7880 C   0  0  0  0  0  0  0  0  0  0  0  0
    4.2080   -4.5190    0.8000 C   0  0  0  0  0  0  0  0  0  0  0  0
    4.7270   -3.1660    1.2510 C   0  0  0  0  0  0  0  0  0  0  0  0
    3.6480   -2.1500    1.2560 C   0  0  0  0  0  0  0  0  0  0  0  0
    3.4000   -1.3940    0.1500 C   0  0  0  0  0  0  0  0  0  0  0  0
    2.4030   -0.4500    0.1280 C   0  0  0  0  0  0  0  0  0  0  0  0
    1.5960   -0.2160    1.2280 C   0  0  0  0  0  0  0  0  0  0  0  0
    0.5600    0.7500    1.2130 N   0  0  0  0  0  0  0  0  0  0  0  0
    0.2090    1.4340    0.0210 C   0  0  0  0  0  0  0  0  0  0  0  0
   -0.5730    0.9160   -0.8940 C   0  0  0  0  0  0  0  0  0  0  0  0
   -0.8900    1.6890   -2.1020 C   0  0  0  0  0  0  0  0  0  0  0  0
   -1.0320    2.9280   -2.0340 O   0  0  0  0  0  0  0  0  0  0  0  0
   -1.0160    0.9300   -3.3230 N   0  0  0  0  0  0  0  0  0  0  0  0
   -0.8250   -0.4700   -3.2380 C   0  0  0  0  0  0  0  0  0  0  0  0
   -0.8750   -1.1970   -4.2960 O   0  0  0  0  0  0  0  0  0  0  0  0
   -0.5550   -1.2170   -1.9690 C   0  0  0  0  0  0  0  0  0  0  0  0
   -1.1830   -0.4380   -0.8630 C   0  0  1  0  0  0  0  0  0  0  0  0
   -1.3180   -1.0410    0.4000 N   0  0  0  0  0  0  0  0  0  0  0  0
   -2.2600   -0.3120    1.2200 C   0  0  0  0  0  0  0  0  0  0  0  0
   -3.6570   -0.7070    0.8310 C   0  0  0  0  0  0  0  0  0  0  0  0
   -4.6740    0.2320    0.8400 C   0  0  0  0  0  0  0  0  0  0  0  0
   -5.9420   -0.1490    0.4790 C   0  0  0  0  0  0  0  0  0  0  0  0
   -6.1980   -1.4560    0.1110 C   0  0  0  0  0  0  0  0  0  0  0  0
   -7.5940   -1.8570   -0.2820 C   0  0  0  0  0  0  0  0  0  0  0  0
   -5.1720   -2.3910    0.1040 C   0  0  0  0  0  0  0  0  0  0  0  0
   -3.9090   -2.0000    0.4670 C   0  0  0  0  0  0  0  0  0  0  0  0
   -2.8320   -2.9930    0.4600 C   0  0  1  0  0  0  0  0  0  0  0  0
   -3.1140   -3.9230    1.6510 C   0  0  0  0  0  0  0  0  0  0  0  0
   -2.9180   -3.9060   -0.7710 C   0  0  0  0  0  0  0  0  0  0  0  0
   -1.4430   -2.4450    0.4860 C   0  0  0  0  0  0  0  0  0  0  0  0
    0.8260    2.7490   -0.1350 C   0  0  0  0  0  0  0  0  0  0  0  0
    0.7090    3.6160    0.9320 C   0  0  0  0  0  0  0  0  0  0  0  0
    1.2900    4.8590    0.8680 C   0  0  0  0  0  0  0  0  0  0  0  0
    2.0070    5.3100   -0.2310 C   0  0  0  0  0  0  0  0  0  0  0  0
    2.6040    6.5990   -0.2640 N   0  0  0  0  0  0  0  0  0  0  0  0
    2.4030    7.4560    0.8580 C   0  0  0  0  0  0  0  0  0  0  0  0
    3.0620    8.7680    0.8170 C   0  0  0  0  0  0  0  0  0  0  0  0
    3.8120    9.2040   -0.1620 C   0  0  0  0  0  0  0  0  0  0  0  0
    2.1040    4.4170   -1.2750 C   0  0  0  0  0  0  0  0  0  0  0  0
    2.8040    4.8330   -2.3690 F   0  0  0  0  0  0  0  0  0  0  0  0
    1.5300    3.1650   -1.2360 C   0  0  0  0  0  0  0  0  0  0  0  0
    1.8610   -0.9900    2.3390 C   0  0  0  0  0  0  0  0  0  0  0  0
    2.8680   -1.9440    2.3620 C   0  0  0  0  0  0  0  0  0  0  0  0
  1  2  2  0
  2  3  1  0
  3  4  1  0
  4  5  1  0
  5  6  2  0
  5 44  1  0
  6  7  1  0
  7  8  2  0
  8  9  1  0
  8 43  1  0
  9 10  1  0
 10 11  2  3
 10 32  1  0
 11 12  1  0
 11 18  1  0
 12 13  2  0
 12 14  1  0
 14 15  1  0
 15 16  2  0
 15 17  1  0
 17 18  1  0
 18 19  1  1
 19 20  1  0
 19 31  1  0
 20 21  1  0
 21 22  2  0
 21 27  1  0
 22 23  1  0
 23 24  2  0
 24 25  1  0
 24 26  1  0
 26 27  2  0
 27 28  1  0
 28 29  1  1
 28 30  1  0
 28 31  1  0
 32 33  2  0
 32 42  1  0
 33 34  1  0
 34 35  2  0
 35 36  1  0
 35 40  1  0
 36 37  1  0
 37 38  1  0
 38 39  2  0
 40 41  1  0
 40 42  2  0
 43 44  2  0
M  END
