
     RDKit          3D

 44 48  0  0  0  0  0  0  0  0999 V2000
   -1.5110    8.6540    1.2800 C   0  0  0  0  0  0  0  0  0  0  0  0
   -1.3600    7.9980   -0.0810 C   0  0  0  0  0  0  0  0  0  0  0  0
   -1.4840    6.5160    0.0390 C   0  0  0  0  0  0  0  0  0  0  0  0
   -2.6620    5.8630   -0.1510 C   0  0  0  0  0  0  0  0  0  0  0  0
   -2.7220    4.4790   -0.0090 C   0  0  0  0  0  0  0  0  0  0  0  0
   -1.6050    3.7200    0.3260 C   0  0  0  0  0  0  0  0  0  0  0  0
   -1.6630    2.2740    0.5140 C   0  0  0  0  0  0  0  0  0  0  0  0
   -0.8650    1.3890   -0.0690 C   0  0  0  0  0  0  0  0  0  0  0  0
    0.1500    1.9280   -0.9780 C   0  0  0  0  0  0  0  0  0  0  0  0
    0.3560    1.2050   -2.2500 C   0  0  0  0  0  0  0  0  0  0  0  0
   -0.6330    1.3160   -3.2520 C   0  0  0  0  0  0  0  0  0  0  0  0
   -0.5880    0.6100   -4.4250 C   0  0  0  0  0  0  0  0  0  0  0  0
    0.4780   -0.2430   -4.6170 C   0  0  0  0  0  0  0  0  0  0  0  0
    1.4470   -0.3530   -3.6450 C   0  0  0  0  0  0  0  0  0  0  0  0
    1.4150    0.3640   -2.4440 C   0  0  0  0  0  0  0  0  0  0  0  0
    2.5480    0.2690   -1.5060 C   0  0  0  0  0  0  0  0  0  0  0  0
    2.9630    1.2710   -0.8740 O   0  0  0  0  0  0  0  0  0  0  0  0
    3.2010   -0.9620   -1.2950 N   0  0  0  0  0  0  0  0  0  0  0  0
    4.2960   -1.2130   -0.4250 C   0  0  0  0  0  0  0  0  0  0  0  0
    4.9760   -0.2740    0.3030 C   0  0  0  0  0  0  0  0  0  0  0  0
    6.0420   -0.6100    1.1260 C   0  0  0  0  0  0  0  0  0  0  0  0
    6.4750   -1.9090    1.2540 C   0  0  0  0  0  0  0  0  0  0  0  0
    7.6180   -2.2480    2.1430 C   0  0  0  0  0  0  0  0  0  0  0  0
    8.9010   -2.1950    1.3150 C   0  0  0  0  0  0  0  0  0  0  0  0
    5.7990   -2.8790    0.5230 C   0  0  0  0  0  0  0  0  0  0  0  0
    4.7450   -2.5140   -0.2850 C   0  0  0  0  0  0  0  0  0  0  0  0
    4.0930   -3.4910   -1.0030 F   0  0  0  0  0  0  0  0  0  0  0  0
   -1.1470   -0.0350    0.1650 C   0  0  0  0  0  0  0  0  0  0  0  0
   -2.3100   -0.4140    0.8280 C   0  0  0  0  0  0  0  0  0  0  0  0
   -2.5680   -1.7390    1.0540 C   0  0  0  0  0  0  0  0  0  0  0  0
   -1.6930   -2.7110    0.6360 C   0  0  0  0  0  0  0  0  0  0  0  0
   -0.5300   -2.2880   -0.0310 C   0  0  0  0  0  0  0  0  0  0  0  0
    0.3580   -3.4040   -0.4590 C   0  0  0  0  0  0  0  0  0  0  0  0
   -0.3140   -0.9990   -0.2310 N   0  0  0  0  0  0  0  0  0  0  0  0
   -2.0040   -4.1010    0.9160 C   0  0  0  0  0  0  0  0  0  0  0  0
   -1.0430   -4.8980    1.0580 O   0  0  0  0  0  0  0  0  0  0  0  0
   -3.4240   -4.5160    1.0210 C   0  0  0  0  0  0  0  0  0  0  0  0
   -4.3890   -3.3850    1.0170 C   0  0  1  0  0  0  0  0  0  0  0  0
   -5.7060   -3.7000    1.4820 N   0  0  0  0  0  0  0  0  0  0  0  0
   -6.3670   -4.6690    0.6630 C   0  0  0  0  0  0  0  0  0  0  0  0
   -7.6760   -4.9330    1.1760 N   0  0  0  0  0  0  0  0  0  0  0  0
   -3.8370   -2.1550    1.7170 C   0  0  0  0  0  0  0  0  0  0  0  0
   -0.4320    4.3970    0.5140 C   0  0  0  0  0  0  0  0  0  0  0  0
   -0.3520    5.7930    0.3740 C   0  0  0  0  0  0  0  0  0  0  0  0
  1  2  1  0
  2  3  1  0
  3  4  2  0
  3 44  1  0
  4  5  1  0
  5  6  2  0
  6  7  1  0
  6 43  1  0
  7  8  2  3
  8  9  1  0
  8 28  1  0
  9 10  1  0
 10 11  2  0
 10 15  1  0
 11 12  1  0
 12 13  2  0
 13 14  1  0
 14 15  2  0
 15 16  1  0
 16 17  2  0
 16 18  1  0
 18 19  1  0
 19 20  2  0
 19 26  1  0
 20 21  1  0
 21 22  2  0
 22 23  1  0
 22 25  1  0
 23 24  1  0
 25 26  2  0
 26 27  1  0
 28 29  2  0
 28 34  1  0
 29 30  1  0
 30 31  2  0
 30 42  1  0
 31 32  1  0
 31 35  1  0
 32 33  1  0
 32 34  2  0
 35 36  2  0
 35 37  1  0
 37 38  1  0
 38 39  1  1
 38 42  1  0
 39 40  1  0
 40 41  1  0
 43 44  2  0
M  END
