
     RDKit          3D

 44 48  0  0  0  0  0  0  0  0999 V2000
   -7.0480   -2.1910   -1.9400 C   0  0  0  0  0  0  0  0  0  0  0  0
   -5.7240   -1.6940   -1.3110 C   0  0  0  0  0  0  0  0  0  0  0  0
   -5.2390   -0.5010   -1.9640 C   0  0  0  0  0  0  0  0  0  0  0  0
   -5.9240    0.7260   -1.4380 C   0  0  0  0  0  0  0  0  0  0  0  0
   -5.4760    2.0030   -1.7860 C   0  0  0  0  0  0  0  0  0  0  0  0
   -6.0520    3.1640   -1.3200 C   0  0  0  0  0  0  0  0  0  0  0  0
   -7.1460    3.0690   -0.4480 C   0  0  0  0  0  0  0  0  0  0  0  0
   -7.6140    1.8280   -0.0840 C   0  0  0  0  0  0  0  0  0  0  0  0
   -6.9960    0.7020   -0.5850 C   0  0  0  0  0  0  0  0  0  0  0  0
   -8.7910    1.9920    0.8460 C   0  0  0  0  0  0  0  0  0  0  0  0
   -9.2880    3.3770    0.4520 C   0  0  0  0  0  0  0  0  0  0  0  0
   -7.9730    4.0850    0.2320 C   0  0  0  0  0  0  0  0  0  0  0  0
   -5.2590   -2.5190   -0.4060 C   0  0  0  0  0  0  0  0  0  0  0  0
   -5.9970   -3.7820   -0.1150 C   0  0  0  0  0  0  0  0  0  0  0  0
   -5.6460   -4.6280    0.8430 C   0  0  0  0  0  0  0  0  0  0  0  0
   -4.5250   -4.3640    1.6560 N   0  0  0  0  0  0  0  0  0  0  0  0
   -3.7470   -3.1850    1.4720 C   0  0  0  0  0  0  0  0  0  0  0  0
   -2.6890   -2.9520    2.3180 C   0  0  0  0  0  0  0  0  0  0  0  0
   -1.9700   -1.7710    2.1420 C   0  0  0  0  0  0  0  0  0  0  0  0
   -2.3020   -0.8960    1.1780 C   0  0  0  0  0  0  0  0  0  0  0  0
   -1.6070    0.3930    0.9160 C   0  0  0  0  0  0  0  0  0  0  0  0
   -0.3740    0.1150    0.1110 C   0  0  1  0  0  0  0  0  0  0  0  0
    0.3070    1.4680   -0.2710 C   0  0  0  0  0  0  0  0  0  0  0  0
    0.6540   -0.4960    0.9620 N   0  0  0  0  0  0  0  0  0  0  0  0
    1.6660   -1.3870    0.4460 C   0  0  0  0  0  0  0  0  0  0  0  0
    1.6270   -1.7100   -0.7550 O   0  0  0  0  0  0  0  0  0  0  0  0
    2.6610   -1.8250    1.3170 N   0  0  0  0  0  0  0  0  0  0  0  0
    3.8480   -2.5670    1.0760 C   0  0  0  0  0  0  0  0  0  0  0  0
    4.7170   -1.8720    0.0640 C   0  0  0  0  0  0  0  0  0  0  0  0
    4.5300   -1.9120   -1.2850 C   0  0  0  0  0  0  0  0  0  0  0  0
    5.4590   -1.2750   -2.1210 C   0  0  0  0  0  0  0  0  0  0  0  0
    6.5530   -0.6050   -1.5980 C   0  0  0  0  0  0  0  0  0  0  0  0
    6.7500   -0.5550   -0.2430 C   0  0  0  0  0  0  0  0  0  0  0  0
    7.6930    0.2620    0.4000 N   0  0  0  0  0  0  0  0  0  0  0  0
    8.8900    0.7910   -0.0950 C   0  0  0  0  0  0  0  0  0  0  0  0
    9.2480    0.4880   -1.2670 O   0  0  0  0  0  0  0  0  0  0  0  0
    9.7190    1.6850    0.7220 C   0  0  0  0  0  0  0  0  0  0  0  0
   11.1160    1.9470    0.2560 C   0  0  2  0  0  0  0  0  0  0  0  0
   11.7140    2.9180    1.2970 C   0  0  0  0  0  0  0  0  0  0  0  0
   11.2190    2.5420   -1.1090 C   0  0  0  0  0  0  0  0  0  0  0  0
    5.8260   -1.1980    0.5620 C   0  0  0  0  0  0  0  0  0  0  0  0
    6.0080   -1.1800    1.8990 F   0  0  0  0  0  0  0  0  0  0  0  0
   -3.3780   -1.1490    0.3290 C   0  0  0  0  0  0  0  0  0  0  0  0
   -4.1210   -2.2900    0.4530 C   0  0  0  0  0  0  0  0  0  0  0  0
  1  2  1  0
  2  3  1  0
  2 13  2  3
  3  4  1  0
  4  5  2  0
  4  9  1  0
  5  6  1  0
  6  7  2  0
  7  8  1  0
  7 12  1  0
  8  9  2  0
  8 10  1  0
 10 11  1  0
 11 12  1  0
 13 14  1  0
 13 44  1  0
 14 15  2  0
 15 16  1  0
 16 17  1  0
 17 18  2  0
 17 44  1  0
 18 19  1  0
 19 20  2  0
 20 21  1  0
 20 43  1  0
 21 22  1  0
 22 23  1  1
 22 24  1  0
 24 25  1  0
 25 26  2  0
 25 27  1  0
 27 28  1  0
 28 29  1  0
 29 30  2  0
 29 41  1  0
 30 31  1  0
 31 32  2  0
 32 33  1  0
 33 34  1  0
 33 41  2  0
 34 35  1  0
 35 36  2  0
 35 37  1  0
 37 38  1  0
 38 39  1  1
 38 40  1  0
 41 42  1  0
 43 44  2  0
M  END
