
     RDKit          3D

 44 48  0  0  0  0  0  0  0  0999 V2000
  -11.0430    2.1500   -0.9620 C   0  0  0  0  0  0  0  0  0  0  0  0
  -10.0370    1.2350   -0.2720 C   0  0  0  0  0  0  0  0  0  0  0  0
   -9.5950    1.4440    0.9900 C   0  0  0  0  0  0  0  0  0  0  0  0
   -8.6120    0.6870    1.6050 C   0  0  0  0  0  0  0  0  0  0  0  0
   -8.1090    0.8780    2.9870 C   0  0  0  0  0  0  0  0  0  0  0  0
   -8.0890   -0.3200    0.7980 C   0  0  0  0  0  0  0  0  0  0  0  0
   -6.8220   -1.0720    1.2700 C   0  0  0  0  0  0  0  0  0  0  0  0
   -5.9140   -0.8430    0.1750 N   0  0  0  0  0  0  0  0  0  0  0  0
   -5.8110    0.6300    0.0630 C   0  0  0  0  0  0  0  0  0  0  0  0
   -5.7390    1.0620   -1.3550 C   0  0  0  0  0  0  0  0  0  0  0  0
   -4.4900    0.4430   -1.9590 C   0  0  0  0  0  0  0  0  0  0  0  0
   -3.9380   -0.7170   -1.1940 C   0  0  1  0  0  0  0  0  0  0  0  0
   -2.8230   -0.2830   -0.3390 C   0  0  0  0  0  0  0  0  0  0  0  0
   -2.8410   -0.5510    0.9280 C   0  0  0  0  0  0  0  0  0  0  0  0
   -1.8350   -0.2150    1.9580 C   0  0  0  0  0  0  0  0  0  0  0  0
   -2.0610   -0.5910    3.1190 O   0  0  0  0  0  0  0  0  0  0  0  0
   -0.6180    0.4970    1.7670 N   0  0  0  0  0  0  0  0  0  0  0  0
    0.1240    0.4870    0.5290 C   0  0  0  0  0  0  0  0  0  0  0  0
    1.4940    0.4790    0.7740 C   0  0  0  0  0  0  0  0  0  0  0  0
    2.3600    0.4170   -0.3230 C   0  0  0  0  0  0  0  0  0  0  0  0
    3.7590    0.2430   -0.0200 C   0  0  0  0  0  0  0  0  0  0  0  0
    4.1450   -0.9870   -0.0080 O   0  0  0  0  0  0  0  0  0  0  0  0
    4.6750    1.2620    0.2550 N   0  0  0  0  0  0  0  0  0  0  0  0
    6.0480    0.8300    0.6310 C   0  0  0  0  0  0  0  0  0  0  0  0
    6.6630    0.0130   -0.4280 C   0  0  0  0  0  0  0  0  0  0  0  0
    7.9690   -0.5490   -0.0290 C   0  0  0  0  0  0  0  0  0  0  0  0
    9.1310   -0.0050   -0.5670 C   0  0  0  0  0  0  0  0  0  0  0  0
   10.3760   -0.5130   -0.2320 C   0  0  0  0  0  0  0  0  0  0  0  0
   11.6520   -0.0260   -0.8010 C   0  0  2  0  0  0  0  0  0  0  0  0
   12.6640    0.0180    0.3300 C   0  0  0  0  0  0  0  0  0  0  0  0
   11.5490    1.2930   -1.4700 C   0  0  0  0  0  0  0  0  0  0  0  0
   10.4570   -1.5710    0.6560 C   0  0  0  0  0  0  0  0  0  0  0  0
    9.2960   -2.1070    1.1920 C   0  0  0  0  0  0  0  0  0  0  0  0
    8.0230   -1.5960    0.8450 C   0  0  0  0  0  0  0  0  0  0  0  0
    6.8830   -2.3200    1.4320 C   0  0  0  0  0  0  0  0  0  0  0  0
    6.4110   -3.1720    0.4010 F   0  0  0  0  0  0  0  0  0  0  0  0
    1.8280    0.3670   -1.5880 C   0  0  0  0  0  0  0  0  0  0  0  0
    0.4340    0.3770   -1.8070 C   0  0  0  0  0  0  0  0  0  0  0  0
   -0.3790    0.4380   -0.7230 C   0  0  0  0  0  0  0  0  0  0  0  0
   -1.7920    0.3510   -1.0820 N   0  0  0  0  0  0  0  0  0  0  0  0
   -5.0000   -1.5390   -0.4770 C   0  0  0  0  0  0  0  0  0  0  0  0
   -8.4890   -0.5760   -0.4350 C   0  0  0  0  0  0  0  0  0  0  0  0
   -8.1680   -1.8480   -1.1630 C   0  0  0  0  0  0  0  0  0  0  0  0
   -9.4710    0.1900   -1.0130 C   0  0  0  0  0  0  0  0  0  0  0  0
  1  2  1  0
  2  3  2  0
  2 44  1  0
  3  4  1  0
  4  5  1  0
  4  6  2  0
  6  7  1  0
  6 42  1  0
  7  8  1  0
  8  9  1  0
  8 41  1  0
  9 10  1  0
 10 11  1  0
 11 12  1  0
 12 13  1  1
 12 41  1  0
 13 14  2  0
 13 40  1  0
 14 15  1  0
 15 16  2  0
 15 17  1  0
 17 18  1  0
 18 19  2  0
 18 39  1  0
 19 20  1  0
 20 21  1  0
 20 37  2  0
 21 22  2  0
 21 23  1  0
 23 24  1  0
 24 25  1  0
 25 26  1  0
 26 27  2  0
 26 34  1  0
 27 28  1  0
 28 29  1  0
 28 32  2  0
 29 30  1  1
 29 31  1  0
 32 33  1  0
 33 34  2  0
 34 35  1  0
 35 36  1  0
 37 38  1  0
 38 39  2  0
 39 40  1  0
 42 43  1  0
 42 44  2  0
M  END
