
     RDKit          3D

 44 48  0  0  0  0  0  0  0  0999 V2000
    3.4060   -3.8100    5.0690 C   0  0  0  0  0  0  0  0  0  0  0  0
    3.2120   -2.5990    4.1700 C   0  0  0  0  0  0  0  0  0  0  0  0
    3.8040   -2.8360    2.7990 C   0  0  0  0  0  0  0  0  0  0  0  0
    3.6070   -1.6620    1.9040 C   0  0  1  0  0  0  0  0  0  0  0  0
    4.1770   -1.7870    0.5930 N   0  0  0  0  0  0  0  0  0  0  0  0
    5.3100   -1.0080    0.1490 C   0  0  0  0  0  0  0  0  0  0  0  0
    5.8180   -0.1920    0.9450 O   0  0  0  0  0  0  0  0  0  0  0  0
    5.8520   -1.1630   -1.1840 C   0  0  0  0  0  0  0  0  0  0  0  0
    5.7530   -2.4040   -1.8290 C   0  0  0  0  0  0  0  0  0  0  0  0
    6.2230   -2.6250   -3.0980 C   0  0  0  0  0  0  0  0  0  0  0  0
    6.8130   -1.5710   -3.7500 C   0  0  0  0  0  0  0  0  0  0  0  0
    6.9400   -0.3310   -3.1720 C   0  0  0  0  0  0  0  0  0  0  0  0
    7.5350    0.6980   -3.8530 F   0  0  0  0  0  0  0  0  0  0  0  0
    6.4520   -0.1500   -1.8860 C   0  0  0  0  0  0  0  0  0  0  0  0
    6.6180    1.1800   -1.2820 C   0  0  0  0  0  0  0  0  0  0  0  0
    5.3490    1.9500   -1.2140 C   0  0  0  0  0  0  0  0  0  0  0  0
    4.1260    1.6510   -1.5970 C   0  0  0  0  0  0  0  0  0  0  0  0
    3.2580    2.7910   -1.2860 C   0  0  0  0  0  0  0  0  0  0  0  0
    4.0400    3.6240   -0.6330 C   0  0  0  0  0  0  0  0  0  0  0  0
    5.3020    3.2960   -0.6390 C   0  0  0  0  0  0  0  0  0  0  0  0
    2.1780   -1.2920    1.6950 C   0  0  0  0  0  0  0  0  0  0  0  0
    1.2200   -2.2500    1.9240 C   0  0  0  0  0  0  0  0  0  0  0  0
   -0.1080   -1.9200    1.7560 C   0  0  0  0  0  0  0  0  0  0  0  0
   -0.4780   -0.6430    1.3610 C   0  0  0  0  0  0  0  0  0  0  0  0
    0.4730    0.3290    1.1270 C   0  0  0  0  0  0  0  0  0  0  0  0
    0.0860    1.7010    0.7060 C   0  0  0  0  0  0  0  0  0  0  0  0
   -1.3530    1.8680    0.6940 N   0  0  0  0  0  0  0  0  0  0  0  0
   -2.1770    1.3250   -0.3630 C   0  0  0  0  0  0  0  0  0  0  0  0
   -1.5350    0.7130   -1.2440 O   0  0  0  0  0  0  0  0  0  0  0  0
   -3.5800    1.5010   -0.3500 N   0  0  0  0  0  0  0  0  0  0  0  0
   -4.4030    1.0060   -1.3900 C   0  0  0  0  0  0  0  0  0  0  0  0
   -3.8590    1.0470   -2.6580 C   0  0  0  0  0  0  0  0  0  0  0  0
   -4.6220    0.7940   -3.7570 C   0  0  0  0  0  0  0  0  0  0  0  0
   -3.9880    0.8500   -5.1130 C   0  0  0  0  0  0  0  0  0  0  0  0
   -5.9460    0.4980   -3.5810 C   0  0  0  0  0  0  0  0  0  0  0  0
   -6.4760    0.4570   -2.3290 C   0  0  0  0  0  0  0  0  0  0  0  0
   -5.7140    0.7110   -1.1540 C   0  0  0  0  0  0  0  0  0  0  0  0
   -6.3270    0.4380    0.1350 C   0  0  2  0  0  0  0  0  0  0  0  0
   -7.7710    0.8540    0.1270 C   0  0  0  0  0  0  0  0  0  0  0  0
   -8.1210    1.8140    1.2340 C   0  0  0  0  0  0  0  0  0  0  0  0
   -7.4960    1.5110    2.4680 N   0  0  0  0  0  0  0  0  0  0  0  0
   -6.0420    1.6960    2.2690 C   0  0  0  0  0  0  0  0  0  0  0  0
   -5.6240    0.5280    1.3820 C   0  0  0  0  0  0  0  0  0  0  0  0
    1.7950   -0.0210    1.3010 C   0  0  0  0  0  0  0  0  0  0  0  0
  1  2  1  0
  2  3  1  0
  4  3  1  6
  4  5  1  0
  4 21  1  0
  5  6  1  0
  6  7  2  0
  6  8  1  0
  8  9  2  0
  8 14  1  0
  9 10  1  0
 10 11  2  0
 11 12  1  0
 12 13  1  0
 12 14  2  0
 14 15  1  0
 15 16  1  0
 16 17  2  0
 16 20  1  0
 17 18  1  0
 18 19  2  0
 19 20  2  0
 21 22  2  0
 21 44  1  0
 22 23  1  0
 23 24  2  0
 24 25  1  0
 25 26  1  0
 25 44  2  0
 26 27  1  0
 27 28  1  0
 28 29  2  0
 28 30  1  0
 30 31  1  0
 31 32  2  0
 31 37  1  0
 32 33  1  0
 33 34  1  0
 33 35  2  0
 35 36  1  0
 36 37  2  0
 38 37  1  6
 38 39  1  0
 38 43  1  0
 39 40  1  0
 40 41  1  0
 41 42  1  0
 42 43  1  0
M  END
