
     RDKit          3D

 44 49  0  0  0  0  0  0  0  0999 V2000
   -0.6630    1.6940   -0.2600 C   0  0  0  0  0  0  0  0  0  0  0  0
    0.7730    1.2400   -0.1930 C   0  0  0  0  0  0  0  0  0  0  0  0
    1.8240    2.1060   -0.5130 C   0  0  0  0  0  0  0  0  0  0  0  0
    3.1020    1.6710   -0.4150 C   0  0  0  0  0  0  0  0  0  0  0  0
    3.4120    0.3530    0.0070 C   0  0  0  0  0  0  0  0  0  0  0  0
    4.8280    0.0620    0.2200 C   0  0  0  0  0  0  0  0  0  0  0  0
    5.6240   -0.6060   -0.7340 N   0  0  0  0  0  0  0  0  0  0  0  0
    6.7760    0.1590   -1.0800 C   0  0  0  0  0  0  0  0  0  0  0  0
    8.0480   -0.0490   -0.4150 C   0  0  0  0  0  0  0  0  0  0  0  0
    9.1430    0.6490   -0.9460 C   0  0  0  0  0  0  0  0  0  0  0  0
   10.3910    0.5550   -0.3910 C   0  0  0  0  0  0  0  0  0  0  0  0
   10.5920   -0.2370    0.7160 C   0  0  0  0  0  0  0  0  0  0  0  0
    9.4730   -0.9130    1.2000 C   0  0  0  0  0  0  0  0  0  0  0  0
    9.5420   -1.6710    2.2150 O   0  0  0  0  0  0  0  0  0  0  0  0
    8.3120   -0.7890    0.6340 O   0  0  0  0  0  0  0  0  0  0  0  0
   11.8430   -0.3940    1.4530 C   0  0  0  0  0  0  0  0  0  0  0  0
   13.1300   -0.3910    0.7120 C   0  0  0  0  0  0  0  0  0  0  0  0
   13.1270    0.9470   -0.5190 S   0  0  0  0  0  0  0  0  0  0  0  0
   11.4830    1.2870   -0.9590 N   0  0  0  0  0  0  0  0  0  0  0  0
    2.3360   -0.4590    0.3050 C   0  0  0  0  0  0  0  0  0  0  0  0
    1.0220   -0.0470    0.2180 C   0  0  0  0  0  0  0  0  0  0  0  0
   -0.0890   -0.8620    0.7020 C   0  0  0  0  0  0  0  0  0  0  0  0
   -0.0410   -0.9220    2.0310 O   0  0  0  0  0  0  0  0  0  0  0  0
   -1.0990   -1.5070    0.0880 N   0  0  0  0  0  0  0  0  0  0  0  0
   -2.0630   -2.2590    0.9340 C   0  0  0  0  0  0  0  0  0  0  0  0
   -3.3540   -1.4230    0.9870 C   0  0  0  0  0  0  0  0  0  0  0  0
   -3.7630   -0.9910   -0.4320 C   0  0  2  0  0  0  0  0  0  0  0  0
   -5.1760   -1.4760   -0.5320 N   0  0  0  0  0  0  0  0  0  0  0  0
   -6.2730   -0.5560   -0.4950 C   0  0  0  0  0  0  0  0  0  0  0  0
   -5.9870    0.6410   -0.4250 O   0  0  0  0  0  0  0  0  0  0  0  0
   -7.6420   -1.0180   -0.5230 C   0  0  0  0  0  0  0  0  0  0  0  0
   -8.7820   -0.4460   -0.5180 C   0  0  0  0  0  0  0  0  0  0  0  0
  -10.0700   -1.2940   -0.5350 C   0  0  0  0  0  0  0  0  0  0  0  0
  -10.8990   -0.4800    0.4770 C   0  0  1  0  0  0  0  0  0  0  0  0
  -12.2020   -0.7560    0.2000 F   0  0  0  0  0  0  0  0  0  0  0  0
  -10.5100   -0.7940    1.7540 F   0  0  0  0  0  0  0  0  0  0  0  0
  -10.5280    0.9040    0.1620 C   0  0  0  0  0  0  0  0  0  0  0  0
  -11.2000    2.1080    0.3450 C   0  0  0  0  0  0  0  0  0  0  0  0
  -10.6400    3.2620   -0.1250 C   0  0  0  0  0  0  0  0  0  0  0  0
   -9.4180    3.2560   -0.7810 C   0  0  0  0  0  0  0  0  0  0  0  0
   -8.7160    2.0490   -0.9770 C   0  0  0  0  0  0  0  0  0  0  0  0
   -9.3180    0.9110   -0.4820 C   0  0  0  0  0  0  0  0  0  0  0  0
   -2.9670   -1.7240   -1.4430 C   0  0  0  0  0  0  0  0  0  0  0  0
   -1.4670   -1.5410   -1.2910 C   0  0  0  0  0  0  0  0  0  0  0  0
  1  2  1  0
  2  3  2  0
  2 21  1  0
  3  4  1  0
  4  5  2  0
  5  6  1  0
  5 20  1  0
  6  7  1  0
  7  8  1  0
  8  9  1  0
  9 10  2  0
  9 15  1  0
 10 11  1  0
 11 12  2  0
 11 19  1  0
 12 13  1  0
 12 16  1  0
 13 14  2  0
 13 15  1  0
 16 17  1  0
 17 18  1  0
 18 19  1  0
 20 21  2  0
 21 22  1  0
 22 23  2  0
 22 24  1  0
 24 25  1  0
 24 44  1  0
 25 26  1  0
 26 27  1  0
 27 28  1  6
 27 43  1  0
 28 29  1  0
 29 30  2  0
 29 31  1  0
 31 32  2  3
 32 33  1  0
 32 42  1  0
 33 34  1  0
 34 35  1  1
 34 36  1  0
 34 37  1  0
 37 38  2  0
 37 42  1  0
 38 39  1  0
 39 40  2  0
 40 41  1  0
 41 42  2  0
 43 44  1  0
M  END
