
     RDKit          3D

 44 48  0  0  0  0  0  0  0  0999 V2000
   -1.8350    6.5940   -0.8680 C   0  0  0  0  0  0  0  0  0  0  0  0
   -2.6710    5.3420   -0.7150 C   0  0  0  0  0  0  0  0  0  0  0  0
   -1.9090    4.1350   -1.1190 C   0  0  0  0  0  0  0  0  0  0  0  0
   -1.1580    3.4380   -0.1970 C   0  0  0  0  0  0  0  0  0  0  0  0
   -0.4630    2.3260   -0.5920 C   0  0  0  0  0  0  0  0  0  0  0  0
   -0.4980    1.8790   -1.9160 C   0  0  0  0  0  0  0  0  0  0  0  0
    0.2480    0.7030   -2.2940 C   0  0  0  0  0  0  0  0  0  0  0  0
    0.2070   -0.4800   -1.8080 C   0  0  0  0  0  0  0  0  0  0  0  0
    1.1490   -1.5170   -2.4270 C   0  0  0  0  0  0  0  0  0  0  0  0
    1.9930   -0.9320   -3.4700 C   0  0  0  0  0  0  0  0  0  0  0  0
    1.6150   -1.1280   -4.8170 C   0  0  0  0  0  0  0  0  0  0  0  0
    2.3030   -0.5650   -5.8520 C   0  0  0  0  0  0  0  0  0  0  0  0
    3.3970    0.2140   -5.5520 C   0  0  0  0  0  0  0  0  0  0  0  0
    3.8050    0.4340   -4.2690 C   0  0  0  0  0  0  0  0  0  0  0  0
    3.0800   -0.1590   -3.2020 C   0  0  0  0  0  0  0  0  0  0  0  0
    3.6100    0.0550   -1.8580 C   0  0  0  0  0  0  0  0  0  0  0  0
    3.8560    1.2780   -1.5530 O   0  0  0  0  0  0  0  0  0  0  0  0
    3.8740   -0.9270   -0.8990 N   0  0  0  0  0  0  0  0  0  0  0  0
    4.3640   -0.7700    0.4060 C   0  0  0  0  0  0  0  0  0  0  0  0
    4.7080    0.4320    0.9550 C   0  0  0  0  0  0  0  0  0  0  0  0
    5.1920    0.5130    2.2580 C   0  0  0  0  0  0  0  0  0  0  0  0
    5.3360   -0.6190    3.0290 C   0  0  0  0  0  0  0  0  0  0  0  0
    5.8550   -0.5150    4.4150 C   0  0  0  0  0  0  0  0  0  0  0  0
    7.3640   -0.6520    4.4310 C   0  0  0  0  0  0  0  0  0  0  0  0
    4.9870   -1.8310    2.4710 C   0  0  0  0  0  0  0  0  0  0  0  0
    4.5110   -1.9170    1.1900 C   0  0  0  0  0  0  0  0  0  0  0  0
    4.1950   -3.1420    0.7330 F   0  0  0  0  0  0  0  0  0  0  0  0
   -0.6970   -1.0590   -0.8250 C   0  0  0  0  0  0  0  0  0  0  0  0
   -1.8610   -0.4900   -0.4120 C   0  0  0  0  0  0  0  0  0  0  0  0
   -2.6870   -1.0380    0.5770 C   0  0  0  0  0  0  0  0  0  0  0  0
   -2.2710   -2.2210    1.1420 C   0  0  0  0  0  0  0  0  0  0  0  0
   -1.0800   -2.8270    0.7350 C   0  0  0  0  0  0  0  0  0  0  0  0
   -0.6520   -4.1210    1.3680 C   0  0  0  0  0  0  0  0  0  0  0  0
   -0.3560   -2.2320   -0.2140 N   0  0  0  0  0  0  0  0  0  0  0  0
   -3.1060   -2.8250    2.1740 C   0  0  0  0  0  0  0  0  0  0  0  0
   -2.7640   -3.9410    2.6470 O   0  0  0  0  0  0  0  0  0  0  0  0
   -4.3270   -2.1160    2.6370 C   0  0  0  0  0  0  0  0  0  0  0  0
   -4.9480   -1.4300    1.4690 C   0  0  1  0  0  0  0  0  0  0  0  0
   -6.1890   -0.7970    1.7350 N   0  0  0  0  0  0  0  0  0  0  0  0
   -7.2430   -1.6700    2.1360 C   0  0  0  0  0  0  0  0  0  0  0  0
   -8.4280   -0.8650    2.3660 N   0  0  0  0  0  0  0  0  0  0  0  0
   -3.9550   -0.3700    0.9930 C   0  0  0  0  0  0  0  0  0  0  0  0
   -1.2570    2.5830   -2.8450 C   0  0  0  0  0  0  0  0  0  0  0  0
   -1.9520    3.7000   -2.4420 C   0  0  0  0  0  0  0  0  0  0  0  0
  1  2  1  0
  2  3  1  0
  3  4  2  0
  3 44  1  0
  4  5  1  0
  5  6  2  0
  6  7  1  0
  6 43  1  0
  7  8  2  3
  8  9  1  0
  8 28  1  0
  9 10  1  0
 10 11  2  0
 10 15  1  0
 11 12  1  0
 12 13  2  0
 13 14  1  0
 14 15  2  0
 15 16  1  0
 16 17  2  0
 16 18  1  0
 18 19  1  0
 19 20  2  0
 19 26  1  0
 20 21  1  0
 21 22  2  0
 22 23  1  0
 22 25  1  0
 23 24  1  0
 25 26  2  0
 26 27  1  0
 28 29  2  0
 28 34  1  0
 29 30  1  0
 30 31  2  0
 30 42  1  0
 31 32  1  0
 31 35  1  0
 32 33  1  0
 32 34  2  0
 35 36  2  0
 35 37  1  0
 37 38  1  0
 38 39  1  1
 38 42  1  0
 39 40  1  0
 40 41  1  0
 43 44  2  0
M  END
