
     RDKit          3D

 44 48  0  0  0  0  0  0  0  0999 V2000
   -5.1740   -1.4120    0.5340 C   0  0  0  0  0  0  0  0  0  0  0  0
   -6.0110   -0.4990    1.3140 C   0  0  0  0  0  0  0  0  0  0  0  0
   -7.2890   -1.2070    1.7730 C   0  0  0  0  0  0  0  0  0  0  0  0
   -8.1190   -1.4060    0.5630 C   0  0  0  0  0  0  0  0  0  0  0  0
   -8.2430   -2.6510   -0.0390 C   0  0  0  0  0  0  0  0  0  0  0  0
   -9.0150   -2.7900   -1.1750 C   0  0  0  0  0  0  0  0  0  0  0  0
   -9.6740   -1.7230   -1.7380 C   0  0  0  0  0  0  0  0  0  0  0  0
   -9.5750   -0.4670   -1.1650 C   0  0  0  0  0  0  0  0  0  0  0  0
   -8.8010   -0.3620   -0.0370 C   0  0  0  0  0  0  0  0  0  0  0  0
  -10.3830    0.5130   -1.9660 C   0  0  0  0  0  0  0  0  0  0  0  0
  -11.4130   -0.4000   -2.6050 C   0  0  0  0  0  0  0  0  0  0  0  0
  -10.5470   -1.6130   -2.9220 C   0  0  0  0  0  0  0  0  0  0  0  0
   -5.8230    0.7200    1.7130 C   0  0  0  0  0  0  0  0  0  0  0  0
   -6.8800    1.4000    2.4960 C   0  0  0  0  0  0  0  0  0  0  0  0
   -6.7030    2.6160    2.9560 C   0  0  0  0  0  0  0  0  0  0  0  0
   -5.5190    3.3510    2.7420 N   0  0  0  0  0  0  0  0  0  0  0  0
   -4.4360    2.8030    2.0040 C   0  0  0  0  0  0  0  0  0  0  0  0
   -3.3010    3.5460    1.8210 C   0  0  0  0  0  0  0  0  0  0  0  0
   -2.2450    3.0060    1.1040 C   0  0  0  0  0  0  0  0  0  0  0  0
   -2.3370    1.7390    0.5820 C   0  0  0  0  0  0  0  0  0  0  0  0
   -1.1970    1.1470   -0.1840 C   0  0  0  0  0  0  0  0  0  0  0  0
   -0.2810    0.3600    0.6870 C   0  0  1  0  0  0  0  0  0  0  0  0
   -0.9800   -0.8050    1.3600 C   0  0  0  0  0  0  0  0  0  0  0  0
    0.9140   -0.0270   -0.0300 N   0  0  0  0  0  0  0  0  0  0  0  0
    2.2160    0.2660    0.4480 C   0  0  0  0  0  0  0  0  0  0  0  0
    2.3490    0.8870    1.5550 O   0  0  0  0  0  0  0  0  0  0  0  0
    3.4160   -0.0910   -0.2300 N   0  0  0  0  0  0  0  0  0  0  0  0
    4.7090    0.2090    0.3020 C   0  0  0  0  0  0  0  0  0  0  0  0
    5.8580   -0.1840   -0.5140 C   0  0  0  0  0  0  0  0  0  0  0  0
    5.8380   -0.7780   -1.7370 C   0  0  0  0  0  0  0  0  0  0  0  0
    6.9610   -1.1130   -2.4580 C   0  0  0  0  0  0  0  0  0  0  0  0
    8.2040   -0.8180   -1.8850 C   0  0  0  0  0  0  0  0  0  0  0  0
    8.2950   -0.2200   -0.6540 C   0  0  0  0  0  0  0  0  0  0  0  0
    9.4970    0.1010    0.0070 N   0  0  0  0  0  0  0  0  0  0  0  0
   10.7840   -0.1110   -0.5240 C   0  0  0  0  0  0  0  0  0  0  0  0
   10.9610   -0.6070   -1.6510 O   0  0  0  0  0  0  0  0  0  0  0  0
   12.0080    0.2540    0.2580 C   0  0  0  0  0  0  0  0  0  0  0  0
   13.2200   -0.0910   -0.5630 C   0  0  2  0  0  0  0  0  0  0  0  0
   13.1870    0.6870   -1.8640 C   0  0  0  0  0  0  0  0  0  0  0  0
   13.2760   -1.5630   -0.8970 C   0  0  0  0  0  0  0  0  0  0  0  0
    7.1140    0.0980    0.0310 C   0  0  0  0  0  0  0  0  0  0  0  0
    7.1920    0.6890    1.2430 F   0  0  0  0  0  0  0  0  0  0  0  0
   -3.5160    1.0310    0.8010 C   0  0  0  0  0  0  0  0  0  0  0  0
   -4.6000    1.5030    1.5020 C   0  0  0  0  0  0  0  0  0  0  0  0
  1  2  1  0
  2  3  1  0
  2 13  2  3
  3  4  1  0
  4  5  2  0
  4  9  1  0
  5  6  1  0
  6  7  2  0
  7  8  1  0
  7 12  1  0
  8  9  2  0
  8 10  1  0
 10 11  1  0
 11 12  1  0
 13 14  1  0
 13 44  1  0
 14 15  2  0
 15 16  1  0
 16 17  1  0
 17 18  2  0
 17 44  1  0
 18 19  1  0
 19 20  2  0
 20 21  1  0
 20 43  1  0
 21 22  1  0
 22 23  1  6
 22 24  1  0
 24 25  1  0
 25 26  2  0
 25 27  1  0
 27 28  1  0
 28 29  1  0
 29 30  2  0
 29 41  1  0
 30 31  1  0
 31 32  2  0
 32 33  1  0
 33 34  1  0
 33 41  2  0
 34 35  1  0
 35 36  2  0
 35 37  1  0
 37 38  1  0
 38 39  1  6
 38 40  1  0
 41 42  1  0
 43 44  2  0
M  END
