
     RDKit          3D

 44 48  0  0  0  0  0  0  0  0999 V2000
    3.1160   -3.0790   -0.4290 C   0  0  0  0  0  0  0  0  0  0  0  0
    3.6480   -2.7290    0.9080 C   0  0  0  0  0  0  0  0  0  0  0  0
    3.0720   -1.5850    1.6390 C   0  0  0  0  0  0  0  0  0  0  0  0
    3.1420   -0.2340    1.0150 C   0  0  1  0  0  0  0  0  0  0  0  0
    4.5290    0.1430    0.7260 N   0  0  0  0  0  0  0  0  0  0  0  0
    5.2470    0.9120    1.6530 C   0  0  0  0  0  0  0  0  0  0  0  0
    4.5760    1.2160    2.7450 O   0  0  0  0  0  0  0  0  0  0  0  0
    6.5720    1.4320    1.6490 C   0  0  0  0  0  0  0  0  0  0  0  0
    7.2000    1.5910    2.9070 C   0  0  0  0  0  0  0  0  0  0  0  0
    8.4550    2.1060    3.0710 C   0  0  0  0  0  0  0  0  0  0  0  0
    9.1470    2.4900    1.9450 C   0  0  0  0  0  0  0  0  0  0  0  0
    8.5910    2.3580    0.7070 C   0  0  0  0  0  0  0  0  0  0  0  0
    9.2950    2.7440   -0.3770 F   0  0  0  0  0  0  0  0  0  0  0  0
    7.2960    1.8210    0.5850 C   0  0  0  0  0  0  0  0  0  0  0  0
    6.8600    1.6450   -0.8110 C   0  0  0  0  0  0  0  0  0  0  0  0
    7.4380    0.4000   -1.3410 C   0  0  0  0  0  0  0  0  0  0  0  0
    8.1150    0.2640   -2.5020 C   0  0  0  0  0  0  0  0  0  0  0  0
    8.5190   -1.1210   -2.6620 C   0  0  0  0  0  0  0  0  0  0  0  0
    8.0950   -1.7200   -1.5900 C   0  0  0  0  0  0  0  0  0  0  0  0
    7.4790   -0.9060   -0.7380 C   0  0  0  0  0  0  0  0  0  0  0  0
    2.2140   -0.0280   -0.0940 C   0  0  0  0  0  0  0  0  0  0  0  0
    2.4440    0.9970   -1.0310 C   0  0  0  0  0  0  0  0  0  0  0  0
    1.5900    1.2630   -2.0680 C   0  0  0  0  0  0  0  0  0  0  0  0
    0.4310    0.4990   -2.2270 C   0  0  0  0  0  0  0  0  0  0  0  0
    0.1790   -0.5060   -1.3300 C   0  0  0  0  0  0  0  0  0  0  0  0
   -1.0450   -1.3210   -1.4820 C   0  0  0  0  0  0  0  0  0  0  0  0
   -2.1390   -0.5890   -0.8580 N   0  0  0  0  0  0  0  0  0  0  0  0
   -3.4480   -1.1700   -0.7570 C   0  0  0  0  0  0  0  0  0  0  0  0
   -3.5800   -2.3030   -1.2240 O   0  0  0  0  0  0  0  0  0  0  0  0
   -4.5330   -0.4820   -0.1540 N   0  0  0  0  0  0  0  0  0  0  0  0
   -5.8460   -0.9590    0.0110 C   0  0  0  0  0  0  0  0  0  0  0  0
   -6.2050   -2.2520   -0.2940 C   0  0  0  0  0  0  0  0  0  0  0  0
   -7.5300   -2.6600   -0.0550 C   0  0  0  0  0  0  0  0  0  0  0  0
   -7.8770   -4.0560   -0.3960 C   0  0  0  0  0  0  0  0  0  0  0  0
   -8.4780   -1.8260    0.4680 C   0  0  0  0  0  0  0  0  0  0  0  0
   -8.0850   -0.5160    0.7690 C   0  0  0  0  0  0  0  0  0  0  0  0
   -6.7980   -0.0880    0.5460 C   0  0  0  0  0  0  0  0  0  0  0  0
   -6.3980    1.3080    0.8210 C   0  0  2  0  0  0  0  0  0  0  0  0
   -7.4230    1.9660    1.6960 C   0  0  0  0  0  0  0  0  0  0  0  0
   -8.5670    2.6250    1.0300 C   0  0  0  0  0  0  0  0  0  0  0  0
   -8.4560    2.6060   -0.4230 N   0  0  0  0  0  0  0  0  0  0  0  0
   -7.1210    3.0160   -0.8160 C   0  0  0  0  0  0  0  0  0  0  0  0
   -6.0490    2.0550   -0.4280 C   0  0  0  0  0  0  0  0  0  0  0  0
    1.0530   -0.7460   -0.3030 C   0  0  0  0  0  0  0  0  0  0  0  0
  1  2  1  0
  2  3  1  0
  4  3  1  6
  4  5  1  0
  4 21  1  0
  5  6  1  0
  6  7  2  0
  6  8  1  0
  8  9  2  0
  8 14  1  0
  9 10  1  0
 10 11  2  0
 11 12  1  0
 12 13  1  0
 12 14  2  0
 14 15  1  0
 15 16  1  0
 16 17  2  0
 16 20  1  0
 17 18  1  0
 18 19  2  0
 19 20  2  0
 21 22  2  0
 21 44  1  0
 22 23  1  0
 23 24  2  0
 24 25  1  0
 25 26  1  0
 25 44  2  0
 26 27  1  0
 27 28  1  0
 28 29  2  0
 28 30  1  0
 30 31  1  0
 31 32  2  0
 31 37  1  0
 32 33  1  0
 33 34  1  0
 33 35  2  0
 35 36  1  0
 36 37  2  0
 38 37  1  6
 38 39  1  0
 38 43  1  0
 39 40  1  0
 40 41  1  0
 41 42  1  0
 42 43  1  0
M  END
