
     RDKit          3D

 44 48  0  0  0  0  0  0  0  0999 V2000
   -5.6340   -5.1920    1.2500 C   0  0  0  0  0  0  0  0  0  0  0  0
   -6.6360   -4.3710    1.0530 C   0  0  0  0  0  0  0  0  0  0  0  0
   -6.8800   -3.6790   -0.2420 C   0  0  0  0  0  0  0  0  0  0  0  0
   -6.8760   -2.1850   -0.1470 C   0  0  0  0  0  0  0  0  0  0  0  0
   -5.6040   -1.6320    0.3480 C   0  0  0  0  0  0  0  0  0  0  0  0
   -5.3650   -1.3600    1.6770 C   0  0  0  0  0  0  0  0  0  0  0  0
   -4.1630   -0.8530    2.0790 C   0  0  0  0  0  0  0  0  0  0  0  0
   -3.1120   -0.5790    1.1920 C   0  0  0  0  0  0  0  0  0  0  0  0
   -1.9320   -0.0630    1.7090 N   0  0  0  0  0  0  0  0  0  0  0  0
   -0.7420    0.2520    0.9140 C   0  0  0  0  0  0  0  0  0  0  0  0
   -0.0920   -0.7610    0.4310 C   0  0  0  0  0  0  0  0  0  0  0  0
   -0.6490   -2.1210    0.7350 C   0  0  0  0  0  0  0  0  0  0  0  0
   -1.1490   -2.3720    1.8530 O   0  0  0  0  0  0  0  0  0  0  0  0
   -0.5650   -3.0850   -0.3500 N   0  0  0  0  0  0  0  0  0  0  0  0
    0.0210   -2.6390   -1.5560 C   0  0  0  0  0  0  0  0  0  0  0  0
    0.0520   -3.4850   -2.5200 O   0  0  0  0  0  0  0  0  0  0  0  0
    0.6000   -1.2530   -1.7650 C   0  0  0  0  0  0  0  0  0  0  0  0
    1.1120   -0.8810   -0.4000 C   0  0  1  0  0  0  0  0  0  0  0  0
    2.1290    0.0730   -0.2580 N   0  0  0  0  0  0  0  0  0  0  0  0
    2.9490    0.3190   -1.3570 C   0  0  0  0  0  0  0  0  0  0  0  0
    4.2150   -0.4610   -1.4630 C   0  0  0  0  0  0  0  0  0  0  0  0
    4.6480   -1.0090   -2.6580 C   0  0  0  0  0  0  0  0  0  0  0  0
    5.8360   -1.7100   -2.6770 C   0  0  0  0  0  0  0  0  0  0  0  0
    6.5650   -1.8540   -1.5170 C   0  0  0  0  0  0  0  0  0  0  0  0
    7.8340   -2.6090   -1.5390 C   0  0  0  0  0  0  0  0  0  0  0  0
    6.1170   -1.2990   -0.3280 C   0  0  0  0  0  0  0  0  0  0  0  0
    4.9310   -0.5950   -0.2950 C   0  0  0  0  0  0  0  0  0  0  0  0
    4.3380    0.0250    0.9120 C   0  0  1  0  0  0  0  0  0  0  0  0
    4.9480   -0.7340    2.1120 C   0  0  0  0  0  0  0  0  0  0  0  0
    4.6420    1.4630    1.1080 C   0  0  0  0  0  0  0  0  0  0  0  0
    2.8970   -0.3590    0.9200 C   0  0  0  0  0  0  0  0  0  0  0  0
   -0.5760    1.6760    0.7960 C   0  0  0  0  0  0  0  0  0  0  0  0
   -1.6950    2.4220    0.3670 C   0  0  0  0  0  0  0  0  0  0  0  0
   -1.7010    3.7850    0.2480 C   0  0  0  0  0  0  0  0  0  0  0  0
   -0.5710    4.4960    0.5540 C   0  0  0  0  0  0  0  0  0  0  0  0
   -0.5060    5.8960    0.4670 N   0  0  0  0  0  0  0  0  0  0  0  0
   -1.5740    6.7200    0.0210 C   0  0  0  0  0  0  0  0  0  0  0  0
   -1.8700    6.6340   -1.4180 C   0  0  0  0  0  0  0  0  0  0  0  0
   -3.0460    6.2930   -1.8760 C   0  0  0  0  0  0  0  0  0  0  0  0
    0.5340    3.7590    0.9800 C   0  0  0  0  0  0  0  0  0  0  0  0
    1.6670    4.4670    1.2910 F   0  0  0  0  0  0  0  0  0  0  0  0
    0.5070    2.3860    1.0900 C   0  0  0  0  0  0  0  0  0  0  0  0
   -3.3640   -0.8550   -0.1270 C   0  0  0  0  0  0  0  0  0  0  0  0
   -4.5660   -1.3650   -0.5550 C   0  0  0  0  0  0  0  0  0  0  0  0
  1  2  2  0
  2  3  1  0
  3  4  1  0
  4  5  1  0
  5  6  2  0
  5 44  1  0
  6  7  1  0
  7  8  2  0
  8  9  1  0
  8 43  1  0
  9 10  1  0
 10 11  2  3
 10 32  1  0
 11 12  1  0
 11 18  1  0
 12 13  2  0
 12 14  1  0
 14 15  1  0
 15 16  2  0
 15 17  1  0
 17 18  1  0
 18 19  1  6
 19 20  1  0
 19 31  1  0
 20 21  1  0
 21 22  2  0
 21 27  1  0
 22 23  1  0
 23 24  2  0
 24 25  1  0
 24 26  1  0
 26 27  2  0
 27 28  1  0
 28 29  1  1
 28 30  1  0
 28 31  1  0
 32 33  2  0
 32 42  1  0
 33 34  1  0
 34 35  2  0
 35 36  1  0
 35 40  1  0
 36 37  1  0
 37 38  1  0
 38 39  2  0
 40 41  1  0
 40 42  2  0
 43 44  2  0
M  END
