
     RDKit          3D

 44 48  0  0  0  0  0  0  0  0999 V2000
    9.3830    1.1020   -3.6730 C   0  0  0  0  0  0  0  0  0  0  0  0
    8.1390    0.4370   -3.1760 C   0  0  0  0  0  0  0  0  0  0  0  0
    7.8070    0.2630   -1.9280 C   0  0  0  0  0  0  0  0  0  0  0  0
    8.6300    0.7090   -0.7540 C   0  0  0  0  0  0  0  0  0  0  0  0
    6.5070   -0.4310   -1.8000 C   0  0  0  0  0  0  0  0  0  0  0  0
    5.8750   -0.7560   -0.5680 N   0  0  0  0  0  0  0  0  0  0  0  0
    4.6290   -1.3840   -0.4190 C   0  0  0  0  0  0  0  0  0  0  0  0
    3.9790   -1.7060   -1.4390 O   0  0  0  0  0  0  0  0  0  0  0  0
    4.0630   -1.6730    0.9200 C   0  0  0  0  0  0  0  0  0  0  0  0
    4.5570   -2.6890    1.6960 C   0  0  0  0  0  0  0  0  0  0  0  0
    4.0430   -2.9460    2.9500 C   0  0  0  0  0  0  0  0  0  0  0  0
    3.0170   -2.1530    3.4040 C   0  0  0  0  0  0  0  0  0  0  0  0
    2.5010   -2.4790    4.7770 C   0  0  0  0  0  0  0  0  0  0  0  0
    2.4870   -1.1120    2.6500 C   0  0  0  0  0  0  0  0  0  0  0  0
    1.4530   -0.3310    3.1920 N   0  0  0  0  0  0  0  0  0  0  0  0
    0.7700    0.7250    2.5560 C   0  0  0  0  0  0  0  0  0  0  0  0
    1.0530    1.0510    1.3960 O   0  0  0  0  0  0  0  0  0  0  0  0
   -0.2930    1.4500    3.2800 C   0  0  0  0  0  0  0  0  0  0  0  0
   -1.0360    2.4610    2.4880 C   0  0  0  0  0  0  0  0  0  0  0  0
   -1.8090    1.9090    1.3170 C   0  0  0  0  0  0  0  0  0  0  0  0
   -2.8600    0.9200    1.7910 C   0  0  0  0  0  0  0  0  0  0  0  0
   -3.6070    0.4200    0.6190 C   0  0  0  0  0  0  0  0  0  0  0  0
   -3.4740   -0.8480    0.1840 C   0  0  0  0  0  0  0  0  0  0  0  0
   -2.6560   -1.9790    0.6730 C   0  0  0  0  0  0  0  0  0  0  0  0
   -2.3860   -2.8750   -0.4370 N   0  0  0  0  0  0  0  0  0  0  0  0
   -3.5850   -3.3080   -1.0950 C   0  0  0  0  0  0  0  0  0  0  0  0
   -4.3930   -2.1880   -1.5980 C   0  0  0  0  0  0  0  0  0  0  0  0
   -5.2690   -2.3670   -2.7780 C   0  0  2  0  0  0  0  0  0  0  0  0
   -6.1620   -3.5760   -2.4620 C   0  0  0  0  0  0  0  0  0  0  0  0
   -4.4610   -2.7700   -4.0070 C   0  0  0  0  0  0  0  0  0  0  0  0
   -4.3350   -1.0190   -0.9840 C   0  0  0  0  0  0  0  0  0  0  0  0
   -4.9460    0.2340   -1.1570 N   0  0  0  0  0  0  0  0  0  0  0  0
   -4.5480    1.0920   -0.2430 C   0  0  0  0  0  0  0  0  0  0  0  0
   -5.0470    2.4530   -0.2350 C   0  0  0  0  0  0  0  0  0  0  0  0
   -4.8550    3.3670    0.7650 C   0  0  0  0  0  0  0  0  0  0  0  0
   -5.3280    4.6660    0.6790 C   0  0  0  0  0  0  0  0  0  0  0  0
   -5.0940    5.6130    1.7870 C   0  0  0  0  0  0  0  0  0  0  0  0
   -6.0190    5.0990   -0.4260 C   0  0  0  0  0  0  0  0  0  0  0  0
   -6.2270    4.2090   -1.4400 C   0  0  0  0  0  0  0  0  0  0  0  0
   -6.9000    4.5490   -2.5750 F   0  0  0  0  0  0  0  0  0  0  0  0
   -5.7600    2.9380   -1.3460 C   0  0  0  0  0  0  0  0  0  0  0  0
    3.0150   -0.8950    1.4310 C   0  0  0  0  0  0  0  0  0  0  0  0
    6.0780   -0.6630   -3.0260 C   0  0  0  0  0  0  0  0  0  0  0  0
    7.0730   -0.1340   -4.0260 C   0  0  0  0  0  0  0  0  0  0  0  0
  1  2  1  0
  2  3  2  0
  2 44  1  0
  3  4  1  0
  3  5  1  0
  5  6  1  0
  5 43  2  0
  6  7  1  0
  7  8  2  0
  7  9  1  0
  9 10  2  0
  9 42  1  0
 10 11  1  0
 11 12  2  0
 12 13  1  0
 12 14  1  0
 14 15  1  0
 14 42  2  0
 15 16  1  0
 16 17  2  0
 16 18  1  0
 18 19  1  0
 19 20  1  0
 20 21  1  0
 21 22  1  0
 22 23  2  0
 22 33  1  0
 23 24  1  0
 23 31  1  0
 24 25  1  0
 25 26  1  0
 26 27  1  0
 27 28  1  0
 27 31  2  0
 28 29  1  1
 28 30  1  0
 31 32  1  0
 32 33  2  0
 33 34  1  0
 34 35  2  0
 34 41  1  0
 35 36  1  0
 36 37  1  0
 36 38  2  0
 38 39  1  0
 39 40  1  0
 39 41  2  0
 43 44  1  0
M  END
