
     RDKit          3D

 44 48  0  0  0  0  0  0  0  0999 V2000
  -10.1600   -0.8210   -1.6730 C   0  0  0  0  0  0  0  0  0  0  0  0
   -9.9000   -1.2680   -0.2400 C   0  0  0  0  0  0  0  0  0  0  0  0
   -8.6960   -0.5930    0.3360 C   0  0  0  0  0  0  0  0  0  0  0  0
   -8.8390    0.4740    1.2030 C   0  0  0  0  0  0  0  0  0  0  0  0
   -7.7400    1.1320    1.7470 C   0  0  0  0  0  0  0  0  0  0  0  0
   -6.4550    0.7510    1.4470 C   0  0  0  0  0  0  0  0  0  0  0  0
   -5.3190    1.4830    2.0400 C   0  0  2  0  0  0  0  0  0  0  0  0
   -5.5890    2.9720    2.1980 C   0  0  0  0  0  0  0  0  0  0  0  0
   -5.8300    3.6410    0.8850 C   0  0  0  0  0  0  0  0  0  0  0  0
   -5.1130    3.0100   -0.2700 C   0  0  0  0  0  0  0  0  0  0  0  0
   -3.9640    2.1530    0.1170 C   0  0  0  0  0  0  0  0  0  0  0  0
   -2.7900    2.1010   -0.6070 C   0  0  0  0  0  0  0  0  0  0  0  0
   -1.7060    1.2890   -0.2270 C   0  0  0  0  0  0  0  0  0  0  0  0
   -0.5410    1.3010   -1.0220 N   0  0  0  0  0  0  0  0  0  0  0  0
    0.7720    0.9920   -0.5970 C   0  0  0  0  0  0  0  0  0  0  0  0
    0.9470    0.6740    0.5860 O   0  0  0  0  0  0  0  0  0  0  0  0
    1.8790    1.0410   -1.4810 N   0  0  0  0  0  0  0  0  0  0  0  0
    3.2210    0.7750   -1.1900 C   0  0  0  0  0  0  0  0  0  0  0  0
    3.6570    0.4030    0.0520 C   0  0  0  0  0  0  0  0  0  0  0  0
    5.0230    0.1680    0.3070 C   0  0  0  0  0  0  0  0  0  0  0  0
    5.4600   -0.2080    1.6000 N   0  0  0  0  0  0  0  0  0  0  0  0
    6.8440   -0.3150    1.9540 C   0  0  0  0  0  0  0  0  0  0  0  0
    7.5910   -1.3650    1.2300 C   0  0  0  0  0  0  0  0  0  0  0  0
    6.9480   -2.4840    0.7590 C   0  0  0  0  0  0  0  0  0  0  0  0
    7.6900   -3.4400    0.0880 C   0  0  0  0  0  0  0  0  0  0  0  0
    7.0920   -4.5750   -0.4050 F   0  0  0  0  0  0  0  0  0  0  0  0
    9.0560   -3.2710   -0.1060 C   0  0  0  0  0  0  0  0  0  0  0  0
    9.7170   -2.1590    0.3560 C   0  0  0  0  0  0  0  0  0  0  0  0
   11.1650   -2.0060    0.1350 C   0  0  0  0  0  0  0  0  0  0  0  0
   11.8020   -2.9850   -0.3470 O   0  0  0  0  0  0  0  0  0  0  0  0
   11.8540   -0.8090    0.4390 N   0  0  0  0  0  0  0  0  0  0  0  0
   13.2870   -0.7560    0.1800 C   0  0  0  0  0  0  0  0  0  0  0  0
    8.9730   -1.2200    1.0190 C   0  0  0  0  0  0  0  0  0  0  0  0
    5.9240    0.3170   -0.7140 C   0  0  0  0  0  0  0  0  0  0  0  0
    5.4770    0.6940   -1.9750 C   0  0  0  0  0  0  0  0  0  0  0  0
    4.1510    0.9230   -2.2250 C   0  0  0  0  0  0  0  0  0  0  0  0
    3.7060    1.3360   -3.5930 C   0  0  0  0  0  0  0  0  0  0  0  0
   -1.8130    0.5260    0.8900 C   0  0  0  0  0  0  0  0  0  0  0  0
   -3.0070    0.5860    1.6170 C   0  0  0  0  0  0  0  0  0  0  0  0
   -4.0620    1.3750    1.2510 C   0  0  0  0  0  0  0  0  0  0  0  0
   -6.3050   -0.3110    0.5850 C   0  0  0  0  0  0  0  0  0  0  0  0
   -7.4000   -0.9600    0.0480 C   0  0  0  0  0  0  0  0  0  0  0  0
   -7.1840   -2.1260   -0.8820 C   0  0  0  0  0  0  0  0  0  0  0  0
   -7.4150   -3.4430   -0.1830 C   0  0  0  0  0  0  0  0  0  0  0  0
  1  2  1  0
  2  3  1  0
  3  4  2  0
  3 42  1  0
  4  5  1  0
  5  6  2  0
  7  6  1  6
  6 41  1  0
  7  8  1  0
  7 40  1  0
  8  9  1  0
  9 10  1  0
 10 11  1  0
 11 12  2  0
 11 40  1  0
 12 13  1  0
 13 14  1  0
 13 38  2  0
 14 15  1  0
 15 16  2  0
 15 17  1  0
 17 18  1  0
 18 19  2  0
 18 36  1  0
 19 20  1  0
 20 21  1  0
 20 34  2  0
 21 22  1  0
 22 23  1  0
 23 24  2  0
 23 33  1  0
 24 25  1  0
 25 26  1  0
 25 27  2  0
 27 28  1  0
 28 29  1  0
 28 33  2  0
 29 30  2  0
 29 31  1  0
 31 32  1  0
 34 35  1  0
 35 36  2  0
 36 37  1  0
 38 39  1  0
 39 40  2  0
 41 42  2  0
 42 43  1  0
 43 44  1  0
M  END
