
     RDKit          3D

 41 45  0  0  0  0  0  0  0  0999 V2000
    6.1890   -3.9870   -2.8130 C   0  0  0  0  0  0  0  0  0  0  0  0
    5.8140   -3.1380   -1.6310 C   0  0  0  0  0  0  0  0  0  0  0  0
    6.3550   -3.3740   -0.3850 C   0  0  0  0  0  0  0  0  0  0  0  0
    6.0120   -2.5960    0.7040 C   0  0  0  0  0  0  0  0  0  0  0  0
    5.1190   -1.5670    0.5590 C   0  0  0  0  0  0  0  0  0  0  0  0
    4.7450   -0.7160    1.7080 C   0  0  0  0  0  0  0  0  0  0  0  0
    3.6070    0.1310    1.4290 N   0  0  0  0  0  0  0  0  0  0  0  0
    2.3350   -0.5040    1.1670 C   0  0  0  0  0  0  0  0  0  0  0  0
    2.1970   -1.8570    1.2200 C   0  0  0  0  0  0  0  0  0  0  0  0
    1.0110   -2.4870    0.9850 C   0  0  0  0  0  0  0  0  0  0  0  0
   -0.1070   -1.7510    0.6830 C   0  0  0  0  0  0  0  0  0  0  0  0
    0.0030   -0.3450    0.6210 C   0  0  0  0  0  0  0  0  0  0  0  0
   -1.2190    0.3460    0.4600 N   0  0  0  0  0  0  0  0  0  0  0  0
   -2.3400   -0.1490   -0.2270 C   0  0  0  0  0  0  0  0  0  0  0  0
   -2.3250   -1.2660   -0.7740 O   0  0  0  0  0  0  0  0  0  0  0  0
   -3.5910    0.6450   -0.3260 C   0  0  0  0  0  0  0  0  0  0  0  0
   -3.5570    2.0040   -0.4760 C   0  0  0  0  0  0  0  0  0  0  0  0
   -4.7580    2.7090   -0.5680 C   0  0  0  0  0  0  0  0  0  0  0  0
   -5.9680    2.0340   -0.5070 C   0  0  0  0  0  0  0  0  0  0  0  0
   -5.9640    0.6620   -0.3550 C   0  0  0  0  0  0  0  0  0  0  0  0
   -4.7700   -0.0560   -0.2620 C   0  0  0  0  0  0  0  0  0  0  0  0
   -4.7580   -1.4670   -0.1030 N   0  0  0  0  0  0  0  0  0  0  0  0
   -5.2820   -2.4080   -1.0650 C   0  0  0  0  0  0  0  0  0  0  0  0
   -5.7250   -3.5590   -0.1890 C   0  0  1  0  0  0  0  0  0  0  0  0
   -5.9420   -4.8220   -0.9840 C   0  0  0  0  0  0  0  0  0  0  0  0
   -4.4870   -3.6920    0.7120 C   0  0  0  0  0  0  0  0  0  0  0  0
   -4.2500   -2.2310    0.9810 C   0  0  0  0  0  0  0  0  0  0  0  0
   -3.6860   -1.8020    2.0170 O   0  0  0  0  0  0  0  0  0  0  0  0
    1.1980    0.2810    0.8540 C   0  0  0  0  0  0  0  0  0  0  0  0
    1.4650    1.6940    0.7780 C   0  0  0  0  0  0  0  0  0  0  0  0
    0.5210    2.6700    0.4190 N   0  0  0  0  0  0  0  0  0  0  0  0
    1.2200    3.9170   -0.0170 C   0  0  0  0  0  0  0  0  0  0  0  0
    0.6040    5.1010    0.6100 C   0  0  0  0  0  0  0  0  0  0  0  0
    1.1620    5.6400    1.7710 C   0  0  0  0  0  0  0  0  0  0  0  0
    0.6310    6.7350    2.4000 C   0  0  0  0  0  0  0  0  0  0  0  0
   -0.5090    7.3600    1.8890 C   0  0  0  0  0  0  0  0  0  0  0  0
   -1.0300    6.7970    0.7400 C   0  0  0  0  0  0  0  0  0  0  0  0
   -0.4910    5.7210    0.1410 N   0  0  0  0  0  0  0  0  0  0  0  0
    4.5800   -1.3300   -0.6780 C   0  0  0  0  0  0  0  0  0  0  0  0
    4.9160   -2.1060   -1.7870 C   0  0  0  0  0  0  0  0  0  0  0  0
    4.3010   -1.7980   -3.1060 C   0  0  0  0  0  0  0  0  0  0  0  0
  1  2  1  0
  2  3  2  0
  2 40  1  0
  3  4  1  0
  4  5  2  0
  5  6  1  0
  5 39  1  0
  6  7  1  0
  7  8  1  0
  8  9  2  0
  8 29  1  0
  9 10  1  0
 10 11  2  0
 11 12  1  0
 12 13  1  0
 12 29  2  0
 13 14  1  0
 14 15  2  0
 14 16  1  0
 16 17  2  0
 16 21  1  0
 17 18  1  0
 18 19  2  0
 19 20  1  0
 20 21  2  0
 21 22  1  0
 22 23  1  0
 22 27  1  0
 23 24  1  0
 24 25  1  6
 24 26  1  0
 26 27  1  0
 27 28  2  0
 29 30  1  0
 30 31  1  0
 31 32  1  0
 32 33  1  0
 33 34  2  0
 33 38  1  0
 34 35  1  0
 35 36  2  0
 36 37  1  0
 37 38  2  0
 39 40  2  0
 40 41  1  0
M  CHG  2  31   1  38   1
M  END
