
     RDKit          3D

 41 45  0  0  0  0  0  0  0  0999 V2000
   -2.8980    2.5860    1.4130 C   0  0  0  0  0  0  0  0  0  0  0  0
   -2.7630    1.0410    1.5500 C   0  0  0  0  0  0  0  0  0  0  0  0
   -1.5100    0.7670    1.3060 C   0  0  0  0  0  0  0  0  0  0  0  0
   -0.7560   -0.4280    1.2320 C   0  0  0  0  0  0  0  0  0  0  0  0
    0.4150   -0.7290    1.1310 C   0  0  0  0  0  0  0  0  0  0  0  0
    1.8760   -0.3820    1.0100 C   0  0  0  0  0  0  0  0  0  0  0  0
    2.6590   -1.4180    0.8740 C   0  0  0  0  0  0  0  0  0  0  0  0
    3.9340   -1.5340    0.8330 C   0  0  0  0  0  0  0  0  0  0  0  0
    3.8490   -3.2160    1.1570 F   0  0  0  0  0  0  0  0  0  0  0  0
    5.1830   -1.7710    0.7590 C   0  0  0  0  0  0  0  0  0  0  0  0
    6.5490   -1.9630    0.7020 C   0  0  0  0  0  0  0  0  0  0  0  0
    6.7950   -3.2080   -0.1900 C   0  0  0  0  0  0  0  0  0  0  0  0
    5.6090   -3.5950   -0.7140 N   0  0  0  0  0  0  0  0  0  0  0  0
    4.8900   -4.6210   -1.0740 C   0  0  0  0  0  0  0  0  0  0  0  0
    4.0500   -4.3810   -2.1350 N   0  0  0  0  0  0  0  0  0  0  0  0
    4.2750   -3.0610   -2.4600 C   0  0  0  0  0  0  0  0  0  0  0  0
    5.1710   -2.5500   -1.6770 C   0  0  0  0  0  0  0  0  0  0  0  0
    5.5850   -1.1630   -2.0550 C   0  0  0  0  0  0  0  0  0  0  0  0
    5.2860   -1.2930   -3.6000 C   0  0  0  0  0  0  0  0  0  0  0  0
    3.8830   -2.0060   -3.4940 C   0  0  0  0  0  0  0  0  0  0  0  0
    2.3160    1.0230    0.9490 C   0  0  0  0  0  0  0  0  0  0  0  0
    3.1620    1.6670    1.4100 N   0  0  0  0  0  0  0  0  0  0  0  0
    3.6870    2.9760    1.4320 C   0  0  0  0  0  0  0  0  0  0  0  0
    4.5170    3.4850    1.8740 O   0  0  0  0  0  0  0  0  0  0  0  0
    2.6050    3.6380    0.4380 C   0  0  0  0  0  0  0  0  0  0  0  0
    2.9440    4.8450    0.2540 C   0  0  0  0  0  0  0  0  0  0  0  0
    3.3380    6.3120    0.0250 N   0  0  0  0  0  0  0  0  0  0  0  0
    1.7540    3.0120   -0.0520 C   0  0  0  0  0  0  0  0  0  0  0  0
    1.3290    1.6810   -0.0100 C   0  0  0  0  0  0  0  0  0  0  0  0
    0.4460    1.0200   -0.6710 F   0  0  0  0  0  0  0  0  0  0  0  0
   -3.8660    0.2410    1.9760 C   0  0  0  0  0  0  0  0  0  0  0  0
   -4.9830    0.0230    1.4160 O   0  0  0  0  0  0  0  0  0  0  0  0
   -6.1440    0.0770    0.8450 C   0  0  0  0  0  0  0  0  0  0  0  0
   -6.8820   -1.0550    0.5240 C   0  0  0  0  0  0  0  0  0  0  0  0
   -8.0890   -0.8730   -0.0830 C   0  0  0  0  0  0  0  0  0  0  0  0
   -8.6600    0.3550   -0.4190 C   0  0  0  0  0  0  0  0  0  0  0  0
   -9.7530    0.8470   -0.9130 N   0  0  0  0  0  0  0  0  0  0  0  0
   -9.7940    2.1560   -0.9690 C   0  0  0  0  0  0  0  0  0  0  0  0
   -8.5810    2.6070   -0.4700 N   0  0  0  0  0  0  0  0  0  0  0  0
   -7.8460    1.5360   -0.1120 C   0  0  0  0  0  0  0  0  0  0  0  0
   -6.6980    1.3500    0.4810 C   0  0  0  0  0  0  0  0  0  0  0  0
  1  2  1  0
  2  3  2  3
  2 31  1  0
  3  4  1  0
  4  5  2  3
  5  6  1  0
  6  7  2  3
  6 21  1  0
  7  8  1  0
  8  9  1  0
  8 10  2  3
 10 11  1  0
 11 12  2  3
 12 13  1  0
 13 14  1  0
 13 17  1  0
 14 15  2  0
 15 16  1  0
 16 17  2  0
 16 20  1  0
 17 18  1  0
 18 19  1  0
 19 20  1  0
 21 22  1  0
 21 29  2  0
 22 23  1  0
 23 24  2  0
 23 25  1  0
 25 26  1  0
 25 28  2  0
 26 27  3  0
 28 29  1  0
 29 30  1  0
 31 32  1  0
 32 33  1  0
 33 34  2  0
 33 41  1  0
 34 35  1  0
 35 36  2  0
 36 37  1  0
 36 40  1  0
 37 38  2  0
 38 39  1  0
 39 40  1  0
 40 41  2  0
M  CHG  1  37   1
M  END
