
     RDKit          3D

 40 44  0  0  0  0  0  0  0  0999 V2000
    7.2520    2.2260    0.4370 C   0  0  0  0  0  0  0  0  0  0  0  0
    6.4290    1.2810    1.2390 C   0  0  0  0  0  0  0  0  0  0  0  0
    5.0740    1.4140    1.4400 C   0  0  0  0  0  0  0  0  0  0  0  0
    4.3260    0.5250    2.2250 C   0  0  0  0  0  0  0  0  0  0  0  0
    4.9890   -0.5260    2.8190 C   0  0  0  0  0  0  0  0  0  0  0  0
    6.3430   -0.6730    2.6250 C   0  0  0  0  0  0  0  0  0  0  0  0
    7.0650    0.2160    1.8450 C   0  0  0  0  0  0  0  0  0  0  0  0
    8.3950    0.0660    1.6580 F   0  0  0  0  0  0  0  0  0  0  0  0
    4.0710   -1.1990    3.5430 N   0  0  0  0  0  0  0  0  0  0  0  0
    2.8980   -0.6010    3.4100 C   0  0  0  0  0  0  0  0  0  0  0  0
    1.8380   -0.9810    3.9590 O   0  0  0  0  0  0  0  0  0  0  0  0
    3.0380    0.4750    2.5900 N   0  0  0  0  0  0  0  0  0  0  0  0
    2.0020    1.4110    2.2990 C   0  0  0  0  0  0  0  0  0  0  0  0
    0.9030    1.0540    1.4060 C   0  0  0  0  0  0  0  0  0  0  0  0
    1.0840    0.6670    0.0220 C   0  0  0  0  0  0  0  0  0  0  0  0
    2.1220    1.0730   -0.6970 N   0  0  0  0  0  0  0  0  0  0  0  0
    2.2340    0.7120   -1.9930 C   0  0  0  0  0  0  0  0  0  0  0  0
    1.2820   -0.0820   -2.6070 C   0  0  0  0  0  0  0  0  0  0  0  0
    0.2070   -0.5000   -1.8600 C   0  0  0  0  0  0  0  0  0  0  0  0
    0.0790   -0.1430   -0.5390 C   0  0  0  0  0  0  0  0  0  0  0  0
   -1.0990   -0.5870    0.2670 C   0  0  0  0  0  0  0  0  0  0  0  0
   -1.9940   -1.3990   -0.5150 N   0  0  0  0  0  0  0  0  0  0  0  0
   -2.9790   -0.8380   -1.3170 C   0  0  0  0  0  0  0  0  0  0  0  0
   -3.7490   -1.7060   -1.9020 O   0  0  0  0  0  0  0  0  0  0  0  0
   -3.2710    0.5470   -1.5940 C   0  0  0  0  0  0  0  0  0  0  0  0
   -2.6990    1.6740   -1.1640 N   0  0  0  0  0  0  0  0  0  0  0  0
   -3.3040    2.7840   -1.6620 C   0  0  0  0  0  0  0  0  0  0  0  0
   -2.9280    4.2050   -1.3840 C   0  0  0  0  0  0  0  0  0  0  0  0
   -4.3090    2.3540   -2.4480 C   0  0  0  0  0  0  0  0  0  0  0  0
   -5.2990    3.1900   -3.2300 C   0  0  0  0  0  0  0  0  0  0  0  0
   -4.3210    0.9870   -2.4340 C   0  0  0  0  0  0  0  0  0  0  0  0
   -5.2510    0.0950   -3.2010 C   0  0  0  0  0  0  0  0  0  0  0  0
   -1.9100   -2.8340   -0.3550 C   0  0  0  0  0  0  0  0  0  0  0  0
   -0.9220   -3.6020   -0.8290 C   0  0  0  0  0  0  0  0  0  0  0  0
   -0.9320   -4.9990   -0.5820 C   0  0  0  0  0  0  0  0  0  0  0  0
   -1.9460   -5.5850    0.1420 C   0  0  0  0  0  0  0  0  0  0  0  0
   -1.9390   -6.9320    0.3740 F   0  0  0  0  0  0  0  0  0  0  0  0
   -2.9580   -4.7800    0.6240 C   0  0  0  0  0  0  0  0  0  0  0  0
   -2.9490   -3.4040    0.3810 C   0  0  0  0  0  0  0  0  0  0  0  0
   -4.0150   -2.5090    0.8860 C   0  0  0  0  0  0  0  0  0  0  0  0
  1  2  1  0
  2  3  2  0
  2  7  1  0
  3  4  1  0
  4  5  2  0
  4 12  1  0
  5  6  1  0
  5  9  1  0
  6  7  2  0
  7  8  1  0
  9 10  1  0
 10 11  2  0
 10 12  1  0
 12 13  1  0
 13 14  1  0
 14 15  1  0
 15 16  2  0
 15 20  1  0
 16 17  1  0
 17 18  2  0
 18 19  1  0
 19 20  2  0
 20 21  1  0
 21 22  1  0
 22 23  1  0
 22 33  1  0
 23 24  2  0
 23 25  1  0
 25 26  1  0
 25 31  2  0
 26 27  1  0
 27 28  1  0
 27 29  2  0
 29 30  1  0
 29 31  1  0
 31 32  1  0
 33 34  2  0
 33 39  1  0
 34 35  1  0
 35 36  2  0
 36 37  1  0
 36 38  1  0
 38 39  2  0
 39 40  1  0
M  CHG  1  16   1
M  END
