
     RDKit          3D

 41 46  0  0  0  0  0  0  0  0999 V2000
   -3.7650   -2.8760    2.6750 C   0  0  0  0  0  0  0  0  0  0  0  0
   -3.6860   -1.6560    1.9460 N   0  0  0  0  0  0  0  0  0  0  0  0
   -3.6350   -1.8310    0.5100 C   0  0  1  0  0  0  0  0  0  0  0  0
   -4.9070   -2.4980   -0.0090 C   0  0  0  0  0  0  0  0  0  0  0  0
   -5.8970   -1.5330    0.4200 N   0  0  0  0  0  0  0  0  0  0  0  0
   -5.3160   -0.2500    0.0800 C   0  0  2  0  0  0  0  0  0  0  0  0
   -5.9800    0.1960   -1.2090 C   0  0  0  0  0  0  0  0  0  0  0  0
   -3.8530   -0.4720   -0.0810 C   0  0  0  0  0  0  0  0  0  0  0  0
   -2.9160    0.2770   -0.6050 C   0  0  0  0  0  0  0  0  0  0  0  0
   -3.3130    1.5630   -1.1240 C   0  0  0  0  0  0  0  0  0  0  0  0
   -3.8320    2.5180   -0.2410 C   0  0  0  0  0  0  0  0  0  0  0  0
   -4.2730    3.7410   -0.6360 C   0  0  0  0  0  0  0  0  0  0  0  0
   -4.2250    4.0970   -1.9560 C   0  0  0  0  0  0  0  0  0  0  0  0
   -3.7250    3.1980   -2.8710 C   0  0  0  0  0  0  0  0  0  0  0  0
   -3.2800    1.9500   -2.4430 C   0  0  0  0  0  0  0  0  0  0  0  0
   -2.8370    1.0730   -3.4060 F   0  0  0  0  0  0  0  0  0  0  0  0
   -1.5860   -0.1630   -0.6450 N   0  0  0  0  0  0  0  0  0  0  0  0
   -0.4940    0.6300   -1.1310 C   0  0  0  0  0  0  0  0  0  0  0  0
    0.0900    1.5670   -0.0930 C   0  0  0  0  0  0  0  0  0  0  0  0
    0.6030    0.9440    1.0800 N   0  0  0  0  0  0  0  0  0  0  0  0
   -0.0060    0.6720    2.2570 C   0  0  0  0  0  0  0  0  0  0  0  0
    0.8140    0.0950    3.1190 N   0  0  0  0  0  0  0  0  0  0  0  0
    2.0110   -0.0230    2.4970 C   0  0  0  0  0  0  0  0  0  0  0  0
    3.2300   -0.5430    2.9010 C   0  0  0  0  0  0  0  0  0  0  0  0
    4.3040   -0.5200    2.0090 C   0  0  0  0  0  0  0  0  0  0  0  0
    4.1950   -0.0020    0.7500 C   0  0  0  0  0  0  0  0  0  0  0  0
    5.3050    0.0510   -0.2300 C   0  0  0  0  0  0  0  0  0  0  0  0
    5.0520    0.2930   -1.4380 O   0  0  0  0  0  0  0  0  0  0  0  0
    6.6460   -0.1610    0.1470 N   0  0  0  0  0  0  0  0  0  0  0  0
    7.7840   -0.1390   -0.6880 C   0  0  0  0  0  0  0  0  0  0  0  0
    7.8150    0.0930   -2.0320 C   0  0  0  0  0  0  0  0  0  0  0  0
    8.9900    0.0990   -2.7940 C   0  0  0  0  0  0  0  0  0  0  0  0
   10.1980   -0.1400   -2.1840 C   0  0  0  0  0  0  0  0  0  0  0  0
   10.2020   -0.3790   -0.8280 C   0  0  0  0  0  0  0  0  0  0  0  0
    9.0300   -0.3780   -0.1010 C   0  0  0  0  0  0  0  0  0  0  0  0
    9.0750   -0.6190    1.2360 F   0  0  0  0  0  0  0  0  0  0  0  0
    2.9740    0.5100    0.3660 C   0  0  0  0  0  0  0  0  0  0  0  0
    1.8760    0.5050    1.2330 C   0  0  0  0  0  0  0  0  0  0  0  0
   -1.2990   -1.4680   -0.0980 C   0  0  0  0  0  0  0  0  0  0  0  0
   -0.1500   -1.8180    0.2580 O   0  0  0  0  0  0  0  0  0  0  0  0
   -2.3820   -2.4910    0.0730 C   0  0  0  0  0  0  0  0  0  0  0  0
  1  2  1  0
  3  2  1  1
  3  4  1  0
  3  8  1  0
  3 41  1  0
  4  5  1  0
  5  6  1  0
  6  7  1  6
  6  8  1  0
  8  9  2  0
  9 10  1  0
  9 17  1  0
 10 11  2  0
 10 15  1  0
 11 12  1  0
 12 13  2  0
 13 14  1  0
 14 15  2  0
 15 16  1  0
 17 18  1  0
 17 39  1  0
 18 19  1  0
 19 20  1  0
 20 21  1  0
 20 38  1  0
 21 22  2  0
 22 23  1  0
 23 24  2  0
 23 38  1  0
 24 25  1  0
 25 26  2  0
 26 27  1  0
 26 37  1  0
 27 28  2  0
 27 29  1  0
 29 30  1  0
 30 31  2  0
 30 35  1  0
 31 32  1  0
 32 33  2  0
 33 34  1  0
 34 35  2  0
 35 36  1  0
 37 38  2  0
 39 40  2  0
 39 41  1  0
M  CHG  1   5   1
M  END
