
     RDKit          3D

 41 46  0  0  0  0  0  0  0  0999 V2000
   -5.1900   -5.4620   -0.5090 C   0  0  0  0  0  0  0  0  0  0  0  0
   -5.9040   -4.7450   -1.5920 C   0  0  0  0  0  0  0  0  0  0  0  0
   -5.9480   -3.2740   -1.5570 C   0  0  0  0  0  0  0  0  0  0  0  0
   -4.6840   -2.4770   -1.6920 C   0  0  1  0  0  0  0  0  0  0  0  0
   -5.0930   -1.0320   -1.6170 C   0  0  0  0  0  0  0  0  0  0  0  0
   -4.4520   -0.1720   -0.6900 N   0  0  0  0  0  0  0  0  0  0  0  0
   -3.0550    0.0220   -0.5050 C   0  0  0  0  0  0  0  0  0  0  0  0
   -2.6730    1.2910   -0.1030 C   0  0  0  0  0  0  0  0  0  0  0  0
   -1.3640    1.6290    0.1020 C   0  0  0  0  0  0  0  0  0  0  0  0
   -0.9670    2.9060    0.6030 N   0  0  0  0  0  0  0  0  0  0  0  0
   -1.7910    4.0340    0.5300 C   0  0  0  0  0  0  0  0  0  0  0  0
   -2.9340    4.0020   -0.1840 N   0  0  0  0  0  0  0  0  0  0  0  0
   -3.7010    5.0350   -0.3550 N   0  0  0  0  0  0  0  0  0  0  0  0
   -3.3850    6.2180    0.1860 C   0  0  0  0  0  0  0  0  0  0  0  0
   -2.2320    6.3750    0.9440 C   0  0  0  0  0  0  0  0  0  0  0  0
   -1.9290    7.5960    1.5030 C   0  0  0  0  0  0  0  0  0  0  0  0
   -0.7880    7.7280    2.2620 C   0  0  0  0  0  0  0  0  0  0  0  0
    0.0230    6.6300    2.4440 C   0  0  0  0  0  0  0  0  0  0  0  0
   -0.2960    5.3930    1.8700 C   0  0  0  0  0  0  0  0  0  0  0  0
    0.5470    4.3750    2.1220 F   0  0  0  0  0  0  0  0  0  0  0  0
   -1.4290    5.2540    1.1130 C   0  0  0  0  0  0  0  0  0  0  0  0
   -0.3830    0.6540   -0.1050 C   0  0  0  0  0  0  0  0  0  0  0  0
    0.9850    0.9680    0.0480 N   0  0  0  0  0  0  0  0  0  0  0  0
    2.0960    0.1100   -0.0260 C   0  0  0  0  0  0  0  0  0  0  0  0
    1.9360   -1.0930   -0.2500 O   0  0  0  0  0  0  0  0  0  0  0  0
    3.4900    0.5920    0.1570 C   0  0  0  0  0  0  0  0  0  0  0  0
    4.5180   -0.3500    0.0540 N   0  0  2  0  0  0  0  0  0  0  0  0
    5.1880   -0.3960   -1.2310 C   0  0  0  0  0  0  0  0  0  0  0  0
    6.6400   -0.7680   -0.9650 C   0  0  0  0  0  0  0  0  0  0  0  0
    6.6740   -1.8810    0.0320 C   0  0  0  0  0  0  0  0  0  0  0  0
    7.9350   -2.4390    0.2690 C   0  0  0  0  0  0  0  0  0  0  0  0
    8.0580   -3.4670    1.1760 C   0  0  0  0  0  0  0  0  0  0  0  0
    6.9440   -3.9270    1.8330 C   0  0  0  0  0  0  0  0  0  0  0  0
    5.6830   -3.3660    1.5920 C   0  0  0  0  0  0  0  0  0  0  0  0
    4.5950   -3.8300    2.2450 F   0  0  0  0  0  0  0  0  0  0  0  0
    5.5580   -2.3450    0.6910 C   0  0  0  0  0  0  0  0  0  0  0  0
    4.2150   -1.7210    0.4010 C   0  0  0  0  0  0  0  0  0  0  0  0
   -0.7740   -0.5950   -0.5010 C   0  0  0  0  0  0  0  0  0  0  0  0
   -2.0800   -0.9080   -0.6970 C   0  0  0  0  0  0  0  0  0  0  0  0
   -2.3430   -2.2260   -1.0970 O   0  0  0  0  0  0  0  0  0  0  0  0
   -3.5900   -2.9100   -0.7840 C   0  0  0  0  0  0  0  0  0  0  0  0
  1  2  1  0
  2  3  1  0
  4  3  1  1
  4  5  1  0
  4 41  1  0
  5  6  1  0
  6  7  1  0
  7  8  2  0
  7 39  1  0
  8  9  1  0
  9 10  1  0
  9 22  2  0
 10 11  1  0
 11 12  2  0
 11 21  1  0
 12 13  1  0
 13 14  2  0
 14 15  1  0
 15 16  2  0
 15 21  1  0
 16 17  1  0
 17 18  2  0
 18 19  1  0
 19 20  1  0
 19 21  2  0
 22 23  1  0
 22 38  1  0
 23 24  1  0
 24 25  2  0
 24 26  1  0
 27 26  1  6
 27 28  1  0
 27 37  1  0
 28 29  1  0
 29 30  1  0
 30 31  2  0
 30 36  1  0
 31 32  1  0
 32 33  2  0
 33 34  1  0
 34 35  1  0
 34 36  2  0
 36 37  1  0
 38 39  2  0
 39 40  1  0
 40 41  1  0
M  CHG  1  27   1
M  END
