
     RDKit          3D

 40 44  0  0  0  0  0  0  0  0999 V2000
   -6.4640   -1.7340   -0.7460 C   0  0  0  0  0  0  0  0  0  0  0  0
   -5.9530   -0.3400   -1.0570 C   0  0  1  0  0  0  0  0  0  0  0  0
   -7.1170    0.6090   -0.9170 C   0  0  0  0  0  0  0  0  0  0  0  0
   -7.6490    0.5700    0.4330 N   0  0  0  0  0  0  0  0  0  0  0  0
   -4.8610   -0.0230   -0.1940 N   0  0  0  0  0  0  0  0  0  0  0  0
   -4.4720    1.3520   -0.2240 C   0  0  0  0  0  0  0  0  0  0  0  0
   -3.3160    1.4980    0.7330 C   0  0  0  0  0  0  0  0  0  0  0  0
   -3.2370    2.2380    1.7880 C   0  0  0  0  0  0  0  0  0  0  0  0
   -1.9240    2.0540    2.3990 C   0  0  0  0  0  0  0  0  0  0  0  0
   -1.1960    1.1880    1.6920 C   0  0  0  0  0  0  0  0  0  0  0  0
    0.1330    0.8190    2.0720 N   0  0  0  0  0  0  0  0  0  0  0  0
    0.9330    0.1540    1.2500 C   0  0  0  0  0  0  0  0  0  0  0  0
    0.6050   -0.1480   -0.1190 C   0  0  0  0  0  0  0  0  0  0  0  0
    0.8790    0.7000   -1.1720 C   0  0  0  0  0  0  0  0  0  0  0  0
    0.5730    0.2940   -2.4470 C   0  0  0  0  0  0  0  0  0  0  0  0
    0.0010   -0.9260   -2.7300 C   0  0  0  0  0  0  0  0  0  0  0  0
   -0.2640   -1.7560   -1.6630 C   0  0  0  0  0  0  0  0  0  0  0  0
    0.0330   -1.3730   -0.3810 C   0  0  0  0  0  0  0  0  0  0  0  0
    2.2170   -0.3000    1.6500 C   0  0  0  0  0  0  0  0  0  0  0  0
    3.0560   -1.0240    0.7000 C   0  0  0  0  0  0  0  0  0  0  0  0
    2.9070   -2.2620    0.5880 O   0  0  0  0  0  0  0  0  0  0  0  0
    4.0140   -0.3520   -0.0740 N   0  0  0  0  0  0  0  0  0  0  0  0
    4.3030    1.0630    0.1200 C   0  0  0  0  0  0  0  0  0  0  0  0
    5.6900    1.4580   -0.2680 C   0  0  0  0  0  0  0  0  0  0  0  0
    6.6550    0.3270   -0.4340 C   0  0  0  0  0  0  0  0  0  0  0  0
    6.0810   -0.7500   -1.2780 C   0  0  0  0  0  0  0  0  0  0  0  0
    6.8330   -1.4130   -2.2250 C   0  0  0  0  0  0  0  0  0  0  0  0
    8.1440   -1.0920   -2.4260 F   0  0  0  0  0  0  0  0  0  0  0  0
    6.2720   -2.4130   -2.9870 C   0  0  0  0  0  0  0  0  0  0  0  0
    4.9380   -2.7140   -2.7580 C   0  0  0  0  0  0  0  0  0  0  0  0
    4.3560   -3.7050   -3.5030 F   0  0  0  0  0  0  0  0  0  0  0  0
    4.1760   -2.0610   -1.8170 C   0  0  0  0  0  0  0  0  0  0  0  0
    4.7490   -1.0600   -1.0580 C   0  0  0  0  0  0  0  0  0  0  0  0
    2.6560   -0.0450    2.9310 C   0  0  0  0  0  0  0  0  0  0  0  0
    1.8380    0.6410    3.7860 C   0  0  0  0  0  0  0  0  0  0  0  0
    2.2720    0.9170    5.1480 C   0  0  0  0  0  0  0  0  0  0  0  0
    2.6270    1.1450    6.2180 N   0  0  0  0  0  0  0  0  0  0  0  0
    0.5880    1.0570    3.3270 C   0  0  0  0  0  0  0  0  0  0  0  0
   -0.0920    1.6730    4.1760 O   0  0  0  0  0  0  0  0  0  0  0  0
   -2.0380    0.7470    0.5840 C   0  0  0  0  0  0  0  0  0  0  0  0
  2  1  1  1
  2  3  1  0
  2  5  1  0
  3  4  1  0
  5  6  1  0
  6  7  1  0
  7  8  2  0
  7 40  1  0
  8  9  1  0
  9 10  2  0
 10 11  1  0
 10 40  1  0
 11 12  1  0
 11 38  1  0
 12 13  1  0
 12 19  2  0
 13 14  2  0
 13 18  1  0
 14 15  1  0
 15 16  2  0
 16 17  1  0
 17 18  2  0
 19 20  1  0
 19 34  1  0
 20 21  2  0
 20 22  1  0
 22 23  1  0
 22 33  1  0
 23 24  1  0
 24 25  1  0
 25 26  1  0
 26 27  2  0
 26 33  1  0
 27 28  1  0
 27 29  1  0
 29 30  2  0
 30 31  1  0
 30 32  1  0
 32 33  2  0
 34 35  2  0
 35 36  1  0
 35 38  1  0
 36 37  3  0
 38 39  2  0
M  CHG  1   4   1
M  END
