
     RDKit          3D

 41 46  0  0  0  0  0  0  0  0999 V2000
    6.8670    1.4610    1.6420 C   0  0  0  0  0  0  0  0  0  0  0  0
    6.1030    1.2390    0.4960 O   0  0  0  0  0  0  0  0  0  0  0  0
    5.6750    2.4120   -0.0530 C   0  0  0  0  0  0  0  0  0  0  0  0
    4.7720    2.2580   -1.2430 C   0  0  1  0  0  0  0  0  0  0  0  0
    5.3860    1.2060   -2.2120 C   0  0  0  0  0  0  0  0  0  0  0  0
    4.9420   -0.0960   -1.5540 C   0  0  1  0  0  0  0  0  0  0  0  0
    6.0460   -0.9960   -1.2950 C   0  0  0  0  0  0  0  0  0  0  0  0
    7.1890   -0.9560   -2.1120 C   0  0  0  0  0  0  0  0  0  0  0  0
    8.1960   -1.8840   -1.9120 C   0  0  0  0  0  0  0  0  0  0  0  0
    8.1290   -2.8510   -0.9440 C   0  0  0  0  0  0  0  0  0  0  0  0
    7.0030   -2.9010   -0.1240 C   0  0  0  0  0  0  0  0  0  0  0  0
    5.9940   -1.9490   -0.3440 C   0  0  0  0  0  0  0  0  0  0  0  0
    4.9100   -2.0600    0.5030 F   0  0  0  0  0  0  0  0  0  0  0  0
    3.9760    0.2300   -0.5020 C   0  0  0  0  0  0  0  0  0  0  0  0
    3.5360    1.5620   -0.9510 N   0  0  0  0  0  0  0  0  0  0  0  0
    2.2190    2.0210   -1.0740 C   0  0  0  0  0  0  0  0  0  0  0  0
    1.8010    3.1680   -1.7100 C   0  0  0  0  0  0  0  0  0  0  0  0
    0.4700    3.2190   -1.6130 N   0  0  0  0  0  0  0  0  0  0  0  0
    0.0090    2.1690   -0.9510 C   0  0  0  0  0  0  0  0  0  0  0  0
   -1.3880    1.7490   -0.7000 C   0  0  0  0  0  0  0  0  0  0  0  0
   -2.3980    2.3260   -1.4450 C   0  0  0  0  0  0  0  0  0  0  0  0
   -3.7130    1.9870   -1.2980 C   0  0  0  0  0  0  0  0  0  0  0  0
   -4.7510    2.5180   -2.1010 C   0  0  0  0  0  0  0  0  0  0  0  0
   -5.6520    2.9900   -2.7780 N   0  0  0  0  0  0  0  0  0  0  0  0
   -4.0800    1.0010   -0.3420 C   0  0  0  0  0  0  0  0  0  0  0  0
   -5.4150    0.5850   -0.2810 N   0  0  0  0  0  0  0  0  0  0  0  0
   -6.1290   -0.1750    0.6250 C   0  0  0  0  0  0  0  0  0  0  0  0
   -6.2660    0.1860    1.9960 C   0  0  0  0  0  0  0  0  0  0  0  0
   -6.9730   -0.6310    2.8080 C   0  0  0  0  0  0  0  0  0  0  0  0
   -7.1030   -0.2550    4.1300 F   0  0  0  0  0  0  0  0  0  0  0  0
   -7.6040   -1.8100    2.4770 C   0  0  0  0  0  0  0  0  0  0  0  0
   -7.4670   -2.1700    1.1040 C   0  0  0  0  0  0  0  0  0  0  0  0
   -6.7590   -1.3600    0.2820 C   0  0  0  0  0  0  0  0  0  0  0  0
   -8.1930   -3.4520    0.9450 C   0  0  0  0  0  0  0  0  0  0  0  0
   -8.1390   -4.0650    2.3290 C   0  0  0  0  0  0  0  0  0  0  0  0
   -8.3860   -2.8290    3.2020 C   0  0  0  0  0  0  0  0  0  0  0  0
   -3.0770    0.4620    0.3660 N   0  0  0  0  0  0  0  0  0  0  0  0
   -3.3260   -0.5530    1.3590 C   0  0  0  0  0  0  0  0  0  0  0  0
   -1.7610    0.8230    0.2000 C   0  0  0  0  0  0  0  0  0  0  0  0
   -0.8890    0.2730    0.9120 O   0  0  0  0  0  0  0  0  0  0  0  0
    1.1040    1.4270   -0.6170 N   0  0  0  0  0  0  0  0  0  0  0  0
  1  2  1  0
  2  3  1  0
  4  3  1  1
  4  5  1  0
  4 15  1  0
  5  6  1  0
  6  7  1  1
  6 14  1  0
  7  8  2  0
  7 12  1  0
  8  9  1  0
  9 10  2  0
 10 11  1  0
 11 12  2  0
 12 13  1  0
 14 15  1  0
 15 16  1  0
 16 17  2  0
 16 41  1  0
 17 18  1  0
 18 19  1  0
 19 20  1  0
 19 41  2  0
 20 21  2  0
 20 39  1  0
 21 22  1  0
 22 23  1  0
 22 25  2  0
 23 24  3  0
 25 26  1  0
 25 37  1  0
 26 27  1  0
 27 28  2  0
 27 33  1  0
 28 29  1  0
 29 30  1  0
 29 31  2  0
 31 32  1  0
 31 36  1  0
 32 33  2  0
 32 34  1  0
 34 35  1  0
 35 36  1  0
 37 38  1  0
 37 39  1  0
 39 40  2  0
M  CHG  1  41   1
M  END
