
     RDKit          3D

 41 45  0  0  0  0  0  0  0  0999 V2000
   -6.6170   -1.3570   -4.0340 N   0  0  0  0  0  0  0  0  0  0  0  0
   -5.4960   -1.3780   -3.1940 C   0  0  0  0  0  0  0  0  0  0  0  0
   -4.2220   -1.1590   -3.7130 C   0  0  0  0  0  0  0  0  0  0  0  0
   -3.1070   -1.1750   -2.9130 C   0  0  0  0  0  0  0  0  0  0  0  0
   -3.2040   -1.4070   -1.5650 C   0  0  0  0  0  0  0  0  0  0  0  0
   -1.7640   -1.4250   -0.5330 S   0  0  1  0  0  0  0  0  0  0  0  0
   -2.1520   -2.3050    0.6520 O   0  0  0  0  0  0  0  0  0  0  0  0
   -0.6460   -2.1230   -1.2170 O   0  0  0  0  0  0  0  0  0  0  0  0
   -1.4090    0.1150    0.0760 N   0  0  0  0  0  0  0  0  0  0  0  0
   -2.4010    0.6390    0.8690 C   0  0  0  0  0  0  0  0  0  0  0  0
   -2.3790    0.3460    2.3000 C   0  0  0  0  0  0  0  0  0  0  0  0
   -3.4030    0.8050    3.1030 C   0  0  0  0  0  0  0  0  0  0  0  0
   -3.4090    0.5380    4.4760 C   0  0  0  0  0  0  0  0  0  0  0  0
   -2.3850   -0.1890    5.0380 C   0  0  0  0  0  0  0  0  0  0  0  0
   -1.3430   -0.6600    4.2450 C   0  0  0  0  0  0  0  0  0  0  0  0
   -1.3690   -0.3750    2.8790 C   0  0  0  0  0  0  0  0  0  0  0  0
   -0.4180    0.8490   -0.5860 C   0  0  1  0  0  0  0  0  0  0  0  0
   -1.0590    2.0620   -1.2200 C   0  0  0  0  0  0  0  0  0  0  0  0
   -0.5810    3.2280   -0.5530 N   0  0  0  0  0  0  0  0  0  0  0  0
    0.6900    2.9110    0.0330 C   0  0  0  0  0  0  0  0  0  0  0  0
    0.6950    1.4160    0.2080 C   0  0  2  0  0  0  0  0  0  0  0  0
    1.9580    0.8090    0.1120 N   0  0  0  0  0  0  0  0  0  0  0  0
    2.5320    0.2710    1.2940 C   0  0  0  0  0  0  0  0  0  0  0  0
    3.3620    1.2130    2.0870 C   0  0  0  0  0  0  0  0  0  0  0  0
    4.7320    1.1200    2.0050 C   0  0  0  0  0  0  0  0  0  0  0  0
    5.4990    1.9960    2.7370 C   0  0  0  0  0  0  0  0  0  0  0  0
    4.9010    2.9440    3.5340 C   0  0  0  0  0  0  0  0  0  0  0  0
    3.5300    3.0670    3.6420 C   0  0  0  0  0  0  0  0  0  0  0  0
    2.7960    2.1720    2.8930 C   0  0  0  0  0  0  0  0  0  0  0  0
    2.8380    0.7500   -1.2730 S   0  0  2  0  0  0  0  0  0  0  0  0
    4.2720    1.2200   -1.0430 O   0  0  0  0  0  0  0  0  0  0  0  0
    2.3580    1.5630   -2.4300 O   0  0  0  0  0  0  0  0  0  0  0  0
    2.9700   -0.8940   -1.8700 C   0  0  0  0  0  0  0  0  0  0  0  0
    4.0090   -1.7190   -1.4290 C   0  0  0  0  0  0  0  0  0  0  0  0
    4.1730   -3.0040   -1.8560 C   0  0  0  0  0  0  0  0  0  0  0  0
    3.2880   -3.5460   -2.7690 C   0  0  0  0  0  0  0  0  0  0  0  0
    3.4920   -4.9000   -3.1950 N   0  0  0  0  0  0  0  0  0  0  0  0
    2.2540   -2.7610   -3.2240 C   0  0  0  0  0  0  0  0  0  0  0  0
    2.1050   -1.4490   -2.7740 C   0  0  0  0  0  0  0  0  0  0  0  0
   -4.4570   -1.6240   -1.0410 C   0  0  0  0  0  0  0  0  0  0  0  0
   -5.5980   -1.6110   -1.8470 C   0  0  0  0  0  0  0  0  0  0  0  0
  1  2  1  0
  2  3  2  0
  2 41  1  0
  3  4  1  0
  4  5  2  0
  5  6  1  0
  5 40  1  0
  6  7  2  0
  6  8  2  0
  6  9  1  1
  9 10  1  0
 17  9  1  1
 10 11  1  0
 11 12  2  0
 11 16  1  0
 12 13  1  0
 13 14  2  0
 14 15  1  0
 15 16  2  0
 17 18  1  0
 17 21  1  0
 18 19  1  0
 19 20  1  0
 20 21  1  0
 21 22  1  6
 22 23  1  0
 30 22  1  1
 23 24  1  0
 24 25  2  0
 24 29  1  0
 25 26  1  0
 26 27  2  0
 27 28  1  0
 28 29  2  0
 30 31  2  0
 30 32  2  0
 30 33  1  0
 33 34  2  0
 33 39  1  0
 34 35  1  0
 35 36  2  0
 36 37  1  0
 36 38  1  0
 38 39  2  0
 40 41  2  0
M  CHG  1  19   1
M  END
