
     RDKit          3D

 41 46  0  0  0  0  0  0  0  0999 V2000
    8.1180   -4.7900   -0.2000 C   0  0  0  0  0  0  0  0  0  0  0  0
    6.9110   -3.9570   -0.5370 C   0  0  0  0  0  0  0  0  0  0  0  0
    6.2440   -3.5640    0.7490 C   0  0  0  0  0  0  0  0  0  0  0  0
    5.0000   -2.7090    0.4830 C   0  0  1  0  0  0  0  0  0  0  0  0
    5.4530   -1.4880   -0.2500 C   0  0  0  0  0  0  0  0  0  0  0  0
    4.4800   -0.4110   -0.0470 N   0  0  0  0  0  0  0  0  0  0  0  0
    3.0900   -0.5390   -0.1790 C   0  0  0  0  0  0  0  0  0  0  0  0
    2.4620    0.7130   -0.1370 C   0  0  0  0  0  0  0  0  0  0  0  0
    1.0940    0.8060   -0.2480 C   0  0  0  0  0  0  0  0  0  0  0  0
    0.4400    2.0630   -0.3110 N   0  0  0  0  0  0  0  0  0  0  0  0
    1.0430    3.2330    0.2140 C   0  0  0  0  0  0  0  0  0  0  0  0
    2.2020    3.1920    0.9100 N   0  0  0  0  0  0  0  0  0  0  0  0
    2.8020    4.1920    1.4730 N   0  0  0  0  0  0  0  0  0  0  0  0
    2.2930    5.4150    1.4080 C   0  0  0  0  0  0  0  0  0  0  0  0
    1.1130    5.5990    0.7270 C   0  0  0  0  0  0  0  0  0  0  0  0
    0.5890    6.8890    0.6610 C   0  0  0  0  0  0  0  0  0  0  0  0
   -0.5880    7.0950   -0.0180 C   0  0  0  0  0  0  0  0  0  0  0  0
   -1.2000    6.0220   -0.6050 C   0  0  0  0  0  0  0  0  0  0  0  0
   -0.6710    4.7180   -0.5380 C   0  0  0  0  0  0  0  0  0  0  0  0
   -1.3340    3.7320   -1.1480 F   0  0  0  0  0  0  0  0  0  0  0  0
    0.4860    4.5050    0.1290 C   0  0  0  0  0  0  0  0  0  0  0  0
    0.3100   -0.3480   -0.4060 C   0  0  0  0  0  0  0  0  0  0  0  0
   -1.0860   -0.2140   -0.4420 N   0  0  0  0  0  0  0  0  0  0  0  0
   -2.0540   -1.1900   -0.7770 C   0  0  0  0  0  0  0  0  0  0  0  0
   -1.6260   -2.3400   -1.0950 O   0  0  0  0  0  0  0  0  0  0  0  0
   -3.5260   -0.9820   -0.7890 C   0  0  0  0  0  0  0  0  0  0  0  0
   -3.9970    0.2990   -0.4280 N   0  0  2  0  0  0  0  0  0  0  0  0
   -4.1760    0.3830    1.0000 C   0  0  0  0  0  0  0  0  0  0  0  0
   -5.0330   -0.7250    1.5380 C   0  0  0  0  0  0  0  0  0  0  0  0
   -6.2190   -0.9090    0.6990 C   0  0  0  0  0  0  0  0  0  0  0  0
   -7.2640   -1.7150    1.1780 C   0  0  0  0  0  0  0  0  0  0  0  0
   -8.4020   -1.9210    0.4280 C   0  0  0  0  0  0  0  0  0  0  0  0
   -8.5170   -1.3330   -0.8030 C   0  0  0  0  0  0  0  0  0  0  0  0
   -7.5070   -0.5530   -1.2710 C   0  0  0  0  0  0  0  0  0  0  0  0
   -7.5980    0.0410   -2.4910 F   0  0  0  0  0  0  0  0  0  0  0  0
   -6.3410   -0.3310   -0.5220 C   0  0  0  0  0  0  0  0  0  0  0  0
   -5.2840    0.5360   -1.1060 C   0  0  0  0  0  0  0  0  0  0  0  0
    0.9490   -1.5550   -0.4440 C   0  0  0  0  0  0  0  0  0  0  0  0
    2.3370   -1.6600   -0.3320 C   0  0  0  0  0  0  0  0  0  0  0  0
    2.7560   -2.9670   -0.3980 O   0  0  0  0  0  0  0  0  0  0  0  0
    4.0350   -3.5690   -0.3030 C   0  0  0  0  0  0  0  0  0  0  0  0
  1  2  1  0
  2  3  1  0
  4  3  1  6
  4  5  1  0
  4 41  1  0
  5  6  1  0
  6  7  1  0
  7  8  2  0
  7 39  1  0
  8  9  1  0
  9 10  1  0
  9 22  2  0
 10 11  1  0
 11 12  2  0
 11 21  1  0
 12 13  1  0
 13 14  2  0
 14 15  1  0
 15 16  2  0
 15 21  1  0
 16 17  1  0
 17 18  2  0
 18 19  1  0
 19 20  1  0
 19 21  2  0
 22 23  1  0
 22 38  1  0
 23 24  1  0
 24 25  2  0
 24 26  1  0
 27 26  1  1
 27 28  1  0
 27 37  1  0
 28 29  1  0
 29 30  1  0
 30 31  2  0
 30 36  1  0
 31 32  1  0
 32 33  2  0
 33 34  1  0
 34 35  1  0
 34 36  2  0
 36 37  1  0
 38 39  2  0
 39 40  1  0
 40 41  1  0
M  CHG  1  27   1
M  END
