
     RDKit          3D

 40 44  0  0  0  0  0  0  0  0999 V2000
    5.7430    0.7560   -1.6850 C   0  0  0  0  0  0  0  0  0  0  0  0
    6.6840   -0.1290   -0.9700 C   0  0  1  0  0  0  0  0  0  0  0  0
    7.5940    0.6440   -0.0130 C   0  0  0  0  0  0  0  0  0  0  0  0
    6.9070    1.3650    0.9990 N   0  0  0  0  0  0  0  0  0  0  0  0
    6.2620   -1.3580   -0.4240 N   0  0  0  0  0  0  0  0  0  0  0  0
    5.3050   -1.4760    0.5600 C   0  0  0  0  0  0  0  0  0  0  0  0
    3.8710   -1.3440    0.2340 C   0  0  0  0  0  0  0  0  0  0  0  0
    3.2790   -1.2100   -0.9090 C   0  0  0  0  0  0  0  0  0  0  0  0
    1.8300   -1.1090   -0.7470 C   0  0  0  0  0  0  0  0  0  0  0  0
    1.5090   -1.1790    0.5080 C   0  0  0  0  0  0  0  0  0  0  0  0
    0.2280   -1.1250    1.1530 N   0  0  0  0  0  0  0  0  0  0  0  0
   -0.9310   -0.9690    0.5410 C   0  0  0  0  0  0  0  0  0  0  0  0
   -1.0910   -0.7950   -0.8910 C   0  0  0  0  0  0  0  0  0  0  0  0
   -1.0410    0.4540   -1.5200 C   0  0  0  0  0  0  0  0  0  0  0  0
   -1.2670    0.5590   -2.8840 C   0  0  0  0  0  0  0  0  0  0  0  0
   -1.5450   -0.5460   -3.6590 C   0  0  0  0  0  0  0  0  0  0  0  0
   -1.5980   -1.7820   -3.0570 C   0  0  0  0  0  0  0  0  0  0  0  0
   -1.3760   -1.8950   -1.7150 C   0  0  0  0  0  0  0  0  0  0  0  0
   -2.1450   -0.9510    1.2490 C   0  0  0  0  0  0  0  0  0  0  0  0
   -3.4320   -0.7730    0.5730 C   0  0  0  0  0  0  0  0  0  0  0  0
   -4.0350   -1.7900    0.0940 O   0  0  0  0  0  0  0  0  0  0  0  0
   -4.0070    0.4920    0.4480 N   0  0  0  0  0  0  0  0  0  0  0  0
   -3.3680    1.6260    1.1390 C   0  0  0  0  0  0  0  0  0  0  0  0
   -4.3190    2.8010    1.2320 C   0  0  0  0  0  0  0  0  0  0  0  0
   -5.7560    2.3700    1.3720 C   0  0  0  0  0  0  0  0  0  0  0  0
   -6.1110    1.6240    0.1300 C   0  0  0  0  0  0  0  0  0  0  0  0
   -7.2500    1.8050   -0.5980 C   0  0  0  0  0  0  0  0  0  0  0  0
   -8.1460    2.7320   -0.1670 F   0  0  0  0  0  0  0  0  0  0  0  0
   -7.4720    1.0480   -1.7540 C   0  0  0  0  0  0  0  0  0  0  0  0
   -6.5570    0.1090   -2.1850 C   0  0  0  0  0  0  0  0  0  0  0  0
   -6.8030   -0.5980   -3.2990 F   0  0  0  0  0  0  0  0  0  0  0  0
   -5.4110   -0.0640   -1.4420 C   0  0  0  0  0  0  0  0  0  0  0  0
   -5.1900    0.6850   -0.2940 C   0  0  0  0  0  0  0  0  0  0  0  0
   -2.1360   -1.0950    2.5950 C   0  0  0  0  0  0  0  0  0  0  0  0
   -0.9560   -1.2560    3.2640 C   0  0  0  0  0  0  0  0  0  0  0  0
   -0.9200   -1.4100    4.6850 C   0  0  0  0  0  0  0  0  0  0  0  0
   -0.8720   -1.5280    5.8540 N   0  0  0  0  0  0  0  0  0  0  0  0
    0.2120   -1.2670    2.5090 C   0  0  0  0  0  0  0  0  0  0  0  0
    1.2840   -1.4160    3.1520 O   0  0  0  0  0  0  0  0  0  0  0  0
    2.7790   -1.3560    1.2560 C   0  0  0  0  0  0  0  0  0  0  0  0
  2  1  1  1
  2  3  1  0
  2  5  1  0
  3  4  1  0
  5  6  1  0
  6  7  1  0
  7  8  2  0
  7 40  1  0
  8  9  1  0
  9 10  2  0
 10 11  1  0
 10 40  1  0
 11 12  1  0
 11 38  1  0
 12 13  1  0
 12 19  2  0
 13 14  2  0
 13 18  1  0
 14 15  1  0
 15 16  2  0
 16 17  1  0
 17 18  2  0
 19 20  1  0
 19 34  1  0
 20 21  2  0
 20 22  1  0
 22 23  1  0
 22 33  1  0
 23 24  1  0
 24 25  1  0
 25 26  1  0
 26 27  2  0
 26 33  1  0
 27 28  1  0
 27 29  1  0
 29 30  2  0
 30 31  1  0
 30 32  1  0
 32 33  2  0
 34 35  2  0
 35 36  1  0
 35 38  1  0
 36 37  3  0
 38 39  2  0
M  CHG  1   4   1
M  END
