
     RDKit          3D

 40 44  0  0  0  0  0  0  0  0999 V2000
   -4.0220   -5.5110   -0.4100 C   0  0  0  0  0  0  0  0  0  0  0  0
   -3.8460   -4.1010   -0.8660 C   0  0  0  0  0  0  0  0  0  0  0  0
   -3.5870   -3.1770    0.2580 N   0  0  2  0  0  0  0  0  0  0  0  0
   -4.7560   -3.2670    1.0990 C   0  0  0  0  0  0  0  0  0  0  0  0
   -5.5100   -1.9410    1.0500 C   0  0  0  0  0  0  0  0  0  0  0  0
   -4.5150   -0.8950    1.5750 C   0  0  0  0  0  0  0  0  0  0  0  0
   -3.4650   -0.7110    0.5420 C   0  0  2  0  0  0  0  0  0  0  0  0
   -2.1510   -0.3210    1.1640 C   0  0  0  0  0  0  0  0  0  0  0  0
   -1.5770    0.7860    0.8690 O   0  0  0  0  0  0  0  0  0  0  0  0
   -1.5260   -1.1850    2.0970 N   0  0  0  0  0  0  0  0  0  0  0  0
   -0.2820   -0.7940    2.6710 C   0  0  0  0  0  0  0  0  0  0  0  0
    0.7810   -0.5880    1.6360 C   0  0  0  0  0  0  0  0  0  0  0  0
    0.5870   -0.7450    0.4350 O   0  0  0  0  0  0  0  0  0  0  0  0
    2.0500   -0.1930    2.1080 N   0  0  0  0  0  0  0  0  0  0  0  0
    3.2000    0.0600    1.3230 C   0  0  0  0  0  0  0  0  0  0  0  0
    3.2590   -0.1020   -0.0360 C   0  0  0  0  0  0  0  0  0  0  0  0
    4.4520    0.1600   -0.7470 C   0  0  0  0  0  0  0  0  0  0  0  0
    5.5920    0.5830   -0.1210 C   0  0  0  0  0  0  0  0  0  0  0  0
    5.5530    0.7520    1.2530 C   0  0  0  0  0  0  0  0  0  0  0  0
    4.3650    0.4890    1.9320 C   0  0  0  0  0  0  0  0  0  0  0  0
    4.3420    0.7020    3.3980 C   0  0  0  0  0  0  0  0  0  0  0  0
    6.7520    1.2060    1.9970 C   0  0  0  0  0  0  0  0  0  0  0  0
    8.0260    0.9200    1.2470 C   0  0  0  0  0  0  0  0  0  0  0  0
    7.9700    1.2920   -0.1390 N   0  0  0  0  0  0  0  0  0  0  0  0
    8.9260    2.0040   -0.7100 F   0  0  0  0  0  0  0  0  0  0  0  0
    6.8310    0.8560   -0.8680 C   0  0  0  0  0  0  0  0  0  0  0  0
    6.8760    0.7020   -2.1670 C   0  0  0  0  0  0  0  0  0  0  0  0
    8.1300    0.9920   -2.8220 N   0  0  0  0  0  0  0  0  0  0  0  0
    8.2160    2.0820   -3.7510 C   0  0  0  0  0  0  0  0  0  0  0  0
   -3.8160    0.4730   -0.3120 N   0  0  0  0  0  0  0  0  0  0  0  0
   -2.9620    0.7490   -1.4090 C   0  0  0  0  0  0  0  0  0  0  0  0
   -3.1630    1.7520   -2.2250 C   0  0  0  0  0  0  0  0  0  0  0  0
   -4.3140    2.6070   -1.9810 C   0  0  0  0  0  0  0  0  0  0  0  0
   -4.5710    3.6900   -2.8370 C   0  0  0  0  0  0  0  0  0  0  0  0
   -5.6420    4.5110   -2.6460 C   0  0  0  0  0  0  0  0  0  0  0  0
   -6.4870    4.2750   -1.5960 C   0  0  0  0  0  0  0  0  0  0  0  0
   -6.2630    3.2290   -0.7460 C   0  0  0  0  0  0  0  0  0  0  0  0
   -5.1630    2.3800   -0.9370 C   0  0  0  0  0  0  0  0  0  0  0  0
   -4.9420    1.2660   -0.0070 C   0  0  0  0  0  0  0  0  0  0  0  0
   -3.3690   -1.9010   -0.3420 C   0  0  0  0  0  0  0  0  0  0  0  0
  1  2  1  0
  3  2  1  6
  3  4  1  0
  3 40  1  0
  4  5  1  0
  5  6  1  0
  6  7  1  0
  7  8  1  0
  7 30  1  6
  7 40  1  0
  8  9  2  0
  8 10  1  0
 10 11  1  0
 11 12  1  0
 12 13  2  0
 12 14  1  0
 14 15  1  0
 15 16  2  0
 15 20  1  0
 16 17  1  0
 17 18  2  0
 18 19  1  0
 18 26  1  0
 19 20  2  0
 19 22  1  0
 20 21  1  0
 22 23  1  0
 23 24  1  0
 24 25  1  0
 24 26  1  0
 26 27  2  3
 27 28  1  0
 28 29  1  0
 30 31  1  0
 30 39  1  0
 31 32  2  0
 32 33  1  0
 33 34  2  0
 33 38  1  0
 34 35  1  0
 35 36  2  0
 36 37  1  0
 37 38  2  0
 38 39  1  0
M  CHG  1   3   1
M  END
