
     RDKit          3D

 41 45  0  0  0  0  0  0  0  0999 V2000
   -5.1020    3.2900   -1.2480 C   0  0  0  0  0  0  0  0  0  0  0  0
   -5.8120    2.2480   -0.5170 N   0  0  0  0  0  0  0  0  0  0  0  0
   -6.5060    2.9120    0.5720 C   0  0  0  0  0  0  0  0  0  0  0  0
   -7.7250    2.1700    0.8630 N   0  0  0  0  0  0  0  0  0  0  0  0
   -7.3990    0.8040    1.2080 C   0  0  0  0  0  0  0  0  0  0  0  0
   -6.8400    0.0570    0.0190 C   0  0  0  0  0  0  0  0  0  0  0  0
   -5.3860   -0.0120    0.1770 N   0  0  0  0  0  0  0  0  0  0  0  0
   -4.8230   -0.9380   -0.7840 C   0  0  0  0  0  0  0  0  0  0  0  0
   -3.3950   -1.2000   -0.6560 C   0  0  0  0  0  0  0  0  0  0  0  0
   -2.6190   -0.6410    0.3250 C   0  0  0  0  0  0  0  0  0  0  0  0
   -1.2410   -0.9250    0.4140 C   0  0  0  0  0  0  0  0  0  0  0  0
   -0.6100   -1.7590   -0.4570 C   0  0  0  0  0  0  0  0  0  0  0  0
    0.7490   -2.0930   -0.3940 N   0  0  0  0  0  0  0  0  0  0  0  0
    1.7210   -1.4600    0.4200 C   0  0  0  0  0  0  0  0  0  0  0  0
    1.3830   -0.5150    1.1570 O   0  0  0  0  0  0  0  0  0  0  0  0
    3.1310   -1.9090    0.3990 C   0  0  0  0  0  0  0  0  0  0  0  0
    3.5250   -3.1930    0.1800 C   0  0  0  0  0  0  0  0  0  0  0  0
    4.8590   -3.5340    0.1570 C   0  0  0  0  0  0  0  0  0  0  0  0
    5.8230   -2.5670    0.3580 C   0  0  0  0  0  0  0  0  0  0  0  0
    7.2160   -2.8870    0.3410 C   0  0  0  0  0  0  0  0  0  0  0  0
    8.3260   -3.1310    0.3440 N   0  0  0  0  0  0  0  0  0  0  0  0
    5.4700   -1.2350    0.5860 C   0  0  0  0  0  0  0  0  0  0  0  0
    6.4840   -0.2780    0.7780 N   0  0  0  0  0  0  0  0  0  0  0  0
    6.3600    1.1030    0.9840 C   0  0  0  0  0  0  0  0  0  0  0  0
    5.2210    1.6090    1.0110 O   0  0  0  0  0  0  0  0  0  0  0  0
    7.5210    1.9910    1.1720 C   0  0  0  0  0  0  0  0  0  0  0  0
    7.2810    3.3450    1.2280 C   0  0  0  0  0  0  0  0  0  0  0  0
    8.2780    4.2880    1.3960 C   0  0  0  0  0  0  0  0  0  0  0  0
    7.9660    5.5960    1.4380 F   0  0  0  0  0  0  0  0  0  0  0  0
    9.5530    3.8290    1.5120 C   0  0  0  0  0  0  0  0  0  0  0  0
    9.8370    2.4730    1.4610 C   0  0  0  0  0  0  0  0  0  0  0  0
   11.1050    2.0230    1.5770 F   0  0  0  0  0  0  0  0  0  0  0  0
    8.8090    1.5450    1.2880 C   0  0  0  0  0  0  0  0  0  0  0  0
    4.1230   -0.9420    0.6000 C   0  0  0  0  0  0  0  0  0  0  0  0
   -1.3980   -2.3360   -1.4630 C   0  0  0  0  0  0  0  0  0  0  0  0
   -0.9130   -3.1920   -2.4160 C   0  0  0  0  0  0  0  0  0  0  0  0
   -1.6880   -3.7700   -3.4260 C   0  0  0  0  0  0  0  0  0  0  0  0
   -3.0180   -3.4640   -3.4700 C   0  0  0  0  0  0  0  0  0  0  0  0
   -3.5440   -2.6060   -2.5290 C   0  0  0  0  0  0  0  0  0  0  0  0
   -2.7550   -2.0490   -1.5420 C   0  0  0  0  0  0  0  0  0  0  0  0
   -4.8230    1.3220    0.0260 C   0  0  0  0  0  0  0  0  0  0  0  0
  1  2  1  0
  2  3  1  0
  2 41  1  0
  3  4  1  0
  4  5  1  0
  5  6  1  0
  6  7  1  0
  7  8  1  0
  7 41  1  0
  8  9  1  0
  9 10  2  0
  9 40  1  0
 10 11  1  0
 11 12  2  0
 12 13  1  0
 12 35  1  0
 13 14  1  0
 14 15  2  0
 14 16  1  0
 16 17  2  0
 16 34  1  0
 17 18  1  0
 18 19  2  0
 19 20  1  0
 19 22  1  0
 20 21  3  0
 22 23  1  0
 22 34  2  0
 23 24  1  0
 24 25  2  0
 24 26  1  0
 26 27  2  0
 26 33  1  0
 27 28  1  0
 28 29  1  0
 28 30  2  0
 30 31  1  0
 31 32  1  0
 31 33  2  0
 35 36  2  0
 35 40  1  0
 36 37  1  0
 37 38  2  0
 38 39  1  0
 39 40  2  0
M  CHG  1   4   1
M  END
