
     RDKit          3D

 41 45  0  0  0  0  0  0  0  0999 V2000
    4.1040   -2.5360   -2.4070 C   0  0  0  0  0  0  0  0  0  0  0  0
    4.1130   -1.3700   -1.4940 C   0  0  0  0  0  0  0  0  0  0  0  0
    2.9640   -0.9020   -1.0530 C   0  0  0  0  0  0  0  0  0  0  0  0
    1.6830   -1.5090   -1.4470 C   0  0  0  0  0  0  0  0  0  0  0  0
    0.5680   -1.0120   -0.9850 C   0  0  0  0  0  0  0  0  0  0  0  0
   -0.7320   -1.5010   -1.2970 C   0  0  0  0  0  0  0  0  0  0  0  0
   -1.8230   -0.9620   -0.7260 C   0  0  0  0  0  0  0  0  0  0  0  0
   -1.8350    0.1010    0.2130 C   0  0  0  0  0  0  0  0  0  0  0  0
   -0.7110    0.7450    0.6990 F   0  0  0  0  0  0  0  0  0  0  0  0
   -2.9820    0.5810    0.7280 C   0  0  0  0  0  0  0  0  0  0  0  0
   -4.2540    0.0760    0.3820 C   0  0  0  0  0  0  0  0  0  0  0  0
   -5.4470    0.3980    0.7610 C   0  0  0  0  0  0  0  0  0  0  0  0
   -5.8710    1.3840    1.6710 N   0  0  0  0  0  0  0  0  0  0  0  0
   -5.2070    2.2000    2.4660 C   0  0  0  0  0  0  0  0  0  0  0  0
   -6.0710    3.0120    3.1500 N   0  0  0  0  0  0  0  0  0  0  0  0
   -7.2900    2.6860    2.7640 C   0  0  0  0  0  0  0  0  0  0  0  0
   -7.2100    1.6890    1.8550 C   0  0  0  0  0  0  0  0  0  0  0  0
   -8.5660    1.3210    1.4200 C   0  0  0  0  0  0  0  0  0  0  0  0
   -9.4090    2.5470    1.7440 C   0  0  0  0  0  0  0  0  0  0  0  0
   -8.7320    3.0520    2.9960 C   0  0  0  0  0  0  0  0  0  0  0  0
   -0.9950   -2.6520   -2.2020 C   0  0  0  0  0  0  0  0  0  0  0  0
   -0.2530   -2.8550   -3.2900 N   0  0  0  0  0  0  0  0  0  0  0  0
   -0.3840   -3.9610   -4.0890 C   0  0  0  0  0  0  0  0  0  0  0  0
    0.3720   -4.0550   -5.0950 O   0  0  0  0  0  0  0  0  0  0  0  0
   -1.3230   -4.9150   -3.7670 C   0  0  0  0  0  0  0  0  0  0  0  0
   -1.4590   -6.0760   -4.6130 C   0  0  0  0  0  0  0  0  0  0  0  0
   -1.5870   -7.0050   -5.2860 N   0  0  0  0  0  0  0  0  0  0  0  0
   -2.1050   -4.7350   -2.6520 C   0  0  0  0  0  0  0  0  0  0  0  0
   -1.9540   -3.5940   -1.8450 C   0  0  0  0  0  0  0  0  0  0  0  0
   -2.7150   -3.4670   -0.7440 F   0  0  0  0  0  0  0  0  0  0  0  0
    5.3940   -0.7670   -1.0790 C   0  0  0  0  0  0  0  0  0  0  0  0
    5.1530    0.3030   -0.1990 O   0  0  0  0  0  0  0  0  0  0  0  0
    6.1760    1.0560    0.3680 C   0  0  0  0  0  0  0  0  0  0  0  0
    7.5100    0.8250    0.1220 C   0  0  0  0  0  0  0  0  0  0  0  0
    8.5140    1.5840    0.6980 C   0  0  0  0  0  0  0  0  0  0  0  0
    8.1640    2.6140    1.5520 C   0  0  0  0  0  0  0  0  0  0  0  0
    8.8770    3.5050    2.2490 N   0  0  0  0  0  0  0  0  0  0  0  0
    8.0250    4.2870    2.9240 C   0  0  0  0  0  0  0  0  0  0  0  0
    6.7610    3.9210    2.6790 N   0  0  0  0  0  0  0  0  0  0  0  0
    6.8380    2.8740    1.8210 C   0  0  0  0  0  0  0  0  0  0  0  0
    5.8520    2.0880    1.2230 C   0  0  0  0  0  0  0  0  0  0  0  0
  1  2  1  0
  2  3  2  3
  2 31  1  0
  3  4  1  0
  4  5  2  3
  5  6  1  0
  6  7  2  3
  6 21  1  0
  7  8  1  0
  8  9  1  0
  8 10  2  3
 10 11  1  0
 11 12  2  3
 12 13  1  0
 13 14  1  0
 13 17  1  0
 14 15  2  0
 15 16  1  0
 16 17  2  0
 16 20  1  0
 17 18  1  0
 18 19  1  0
 19 20  1  0
 21 22  1  0
 21 29  2  0
 22 23  1  0
 23 24  2  0
 23 25  1  0
 25 26  1  0
 25 28  2  0
 26 27  3  0
 28 29  1  0
 29 30  1  0
 31 32  1  0
 32 33  1  0
 33 34  2  0
 33 41  1  0
 34 35  1  0
 35 36  2  0
 36 37  1  0
 36 40  1  0
 37 38  2  0
 38 39  1  0
 39 40  1  0
 40 41  2  0
M  CHG  1  37   1
M  END
