
     RDKit          3D

 41 46  0  0  0  0  0  0  0  0999 V2000
   -3.7780    3.2780    2.0820 C   0  0  0  0  0  0  0  0  0  0  0  0
   -3.6060    2.4640    0.9270 N   0  0  0  0  0  0  0  0  0  0  0  0
   -3.7370    1.0280    1.1780 C   0  0  1  0  0  0  0  0  0  0  0  0
   -5.0880    0.6670    1.6670 C   0  0  0  0  0  0  0  0  0  0  0  0
   -5.9060    0.8870    0.4570 N   0  0  0  0  0  0  0  0  0  0  0  0
   -5.1760    0.0500   -0.5170 C   0  0  2  0  0  0  0  0  0  0  0  0
   -5.5900   -1.3670   -0.1490 C   0  0  0  0  0  0  0  0  0  0  0  0
   -3.7450    0.3290   -0.1700 C   0  0  0  0  0  0  0  0  0  0  0  0
   -2.6250    0.0530   -0.8190 C   0  0  0  0  0  0  0  0  0  0  0  0
   -2.7120   -0.6210   -2.1410 C   0  0  0  0  0  0  0  0  0  0  0  0
   -2.5160    0.2090   -3.2350 C   0  0  0  0  0  0  0  0  0  0  0  0
   -2.5490   -0.3160   -4.4960 C   0  0  0  0  0  0  0  0  0  0  0  0
   -2.7740   -1.6610   -4.6870 C   0  0  0  0  0  0  0  0  0  0  0  0
   -2.9700   -2.4870   -3.5900 C   0  0  0  0  0  0  0  0  0  0  0  0
   -2.9320   -1.9370   -2.3230 C   0  0  0  0  0  0  0  0  0  0  0  0
   -3.0870   -2.7600   -1.2770 F   0  0  0  0  0  0  0  0  0  0  0  0
   -1.3260    0.2580   -0.2500 N   0  0  0  0  0  0  0  0  0  0  0  0
   -0.1250   -0.0120   -0.9340 C   0  0  0  0  0  0  0  0  0  0  0  0
    0.4520   -1.3800   -0.7850 C   0  0  0  0  0  0  0  0  0  0  0  0
    0.7450   -1.7640    0.5730 N   0  0  0  0  0  0  0  0  0  0  0  0
   -0.1120   -2.4680    1.3690 C   0  0  0  0  0  0  0  0  0  0  0  0
    0.4540   -2.6940    2.5700 N   0  0  0  0  0  0  0  0  0  0  0  0
    1.6680   -2.1480    2.5700 C   0  0  0  0  0  0  0  0  0  0  0  0
    2.6460   -2.0860    3.5410 C   0  0  0  0  0  0  0  0  0  0  0  0
    3.8130   -1.4240    3.2300 C   0  0  0  0  0  0  0  0  0  0  0  0
    3.9900   -0.8390    1.9730 C   0  0  0  0  0  0  0  0  0  0  0  0
    5.2440   -0.1250    1.6990 C   0  0  0  0  0  0  0  0  0  0  0  0
    5.9180    0.1820    2.7080 O   0  0  0  0  0  0  0  0  0  0  0  0
    5.6100    0.1660    0.3760 N   0  0  0  0  0  0  0  0  0  0  0  0
    6.7970    0.8560    0.0390 C   0  0  0  0  0  0  0  0  0  0  0  0
    7.6730    1.3030    0.9630 C   0  0  0  0  0  0  0  0  0  0  0  0
    8.8320    1.9870    0.5640 C   0  0  0  0  0  0  0  0  0  0  0  0
    9.0680    2.1980   -0.7680 C   0  0  0  0  0  0  0  0  0  0  0  0
    8.1900    1.7520   -1.7260 C   0  0  0  0  0  0  0  0  0  0  0  0
    7.0730    1.0910   -1.3200 C   0  0  0  0  0  0  0  0  0  0  0  0
    6.1840    0.6360   -2.2190 F   0  0  0  0  0  0  0  0  0  0  0  0
    3.0140   -0.9100    1.0230 C   0  0  0  0  0  0  0  0  0  0  0  0
    1.8270   -1.5830    1.3380 C   0  0  0  0  0  0  0  0  0  0  0  0
   -1.3190    0.7700    1.0770 C   0  0  0  0  0  0  0  0  0  0  0  0
   -0.3690    1.3860    1.5650 O   0  0  0  0  0  0  0  0  0  0  0  0
   -2.5500    0.5440    1.9320 C   0  0  0  0  0  0  0  0  0  0  0  0
  1  2  1  0
  3  2  1  6
  3  4  1  0
  3  8  1  0
  3 41  1  0
  4  5  1  0
  5  6  1  0
  6  7  1  1
  6  8  1  0
  8  9  2  0
  9 10  1  0
  9 17  1  0
 10 11  2  0
 10 15  1  0
 11 12  1  0
 12 13  2  0
 13 14  1  0
 14 15  2  0
 15 16  1  0
 17 18  1  0
 17 39  1  0
 18 19  1  0
 19 20  1  0
 20 21  1  0
 20 38  1  0
 21 22  2  0
 22 23  1  0
 23 24  2  0
 23 38  1  0
 24 25  1  0
 25 26  2  0
 26 27  1  0
 26 37  1  0
 27 28  2  0
 27 29  1  0
 29 30  1  0
 30 31  2  0
 30 35  1  0
 31 32  1  0
 32 33  2  0
 33 34  1  0
 34 35  2  0
 35 36  1  0
 37 38  2  0
 39 40  2  0
 39 41  1  0
M  CHG  1   5   1
M  END
