
     RDKit          3D

 12 11  0  0  0  0  0  0  0  0999 V2000
    3.5590   -0.3670    0.0070 C   0  0  0  0  0  0  0  0  0  0  0  0
    3.1880    1.0140   -0.4240 C   0  0  0  0  0  0  0  0  0  0  0  0
    1.8370    1.3820   -0.0140 N   0  0  0  0  0  0  0  0  0  0  0  0
    0.8300    0.6820   -0.7460 C   0  0  0  0  0  0  0  0  0  0  0  0
   -0.2320    0.0500    0.1250 C   0  0  2  0  0  0  0  0  0  0  0  0
    0.3490   -0.9570    1.0850 C   0  0  0  0  0  0  0  0  0  0  0  0
   -0.5950   -1.3860    2.0160 O   0  0  0  0  0  0  0  0  0  0  0  0
   -1.3310   -0.4490   -0.6280 N   0  0  1  0  0  0  0  0  0  0  0  0
   -1.2270   -1.8530   -0.9620 C   0  0  0  0  0  0  0  0  0  0  0  0
   -2.6050   -0.2560    0.0290 C   0  0  0  0  0  0  0  0  0  0  0  0
   -3.1090    1.1630   -0.1010 C   0  0  0  0  0  0  0  0  0  0  0  0
   -3.2690    1.4820   -1.4390 O   0  0  0  0  0  0  0  0  0  0  0  0
  1  2  1  0
  2  3  1  0
  3  4  1  0
  5  4  1  6
  5  6  1  0
  5  8  1  0
  6  7  1  0
  8  9  1  1
  8 10  1  0
 10 11  1  0
 11 12  1  0
M  CHG  2   3   1   8   1
M  END
