
     RDKit          3D

 12 11  0  0  0  0  0  0  0  0999 V2000
    5.1290   -0.2730    0.8840 C   0  0  0  0  0  0  0  0  0  0  0  0
    3.7150   -0.2290    0.6690 O   0  0  0  0  0  0  0  0  0  0  0  0
    3.0990    0.9600    0.3120 C   0  0  0  0  0  0  0  0  0  0  0  0
    3.8270    1.9770    0.1900 O   0  0  0  0  0  0  0  0  0  0  0  0
    1.6170    1.0600    0.0740 C   0  0  0  0  0  0  0  0  0  0  0  0
    0.9640   -0.1970    0.2620 N   0  0  0  0  0  0  0  0  0  0  0  0
    0.2540   -0.6690   -0.8840 C   0  0  0  0  0  0  0  0  0  0  0  0
   -1.1350   -0.1340   -1.0200 C   0  0  0  0  0  0  0  0  0  0  0  0
   -2.0290   -0.4670    0.1280 C   0  0  2  0  0  0  0  0  0  0  0  0
   -2.1970   -1.9530    0.3340 C   0  0  0  0  0  0  0  0  0  0  0  0
   -3.3870    0.1900   -0.1560 C   0  0  0  0  0  0  0  0  0  0  0  0
   -3.2480    1.6200   -0.2770 N   0  0  0  0  0  0  0  0  0  0  0  0
  1  2  1  0
  2  3  1  0
  3  4  2  0
  3  5  1  0
  5  6  1  0
  6  7  1  0
  7  8  1  0
  8  9  1  0
  9 10  1  6
  9 11  1  0
 11 12  1  0
M  CHG  2   6   1  12   1
M  END
