
     RDKit          3D

 12 11  0  0  0  0  0  0  0  0999 V2000
    3.1630    1.7760   -0.2040 C   0  0  0  0  0  0  0  0  0  0  0  0
    1.7380    2.1110    0.1390 C   0  0  0  0  0  0  0  0  0  0  0  0
    0.8720    1.0130   -0.0130 O   0  0  0  0  0  0  0  0  0  0  0  0
    0.9770   -0.1760    0.6580 C   0  0  0  0  0  0  0  0  0  0  0  0
    1.9130   -0.3260    1.4800 O   0  0  0  0  0  0  0  0  0  0  0  0
   -0.0230   -1.2410    0.3820 C   0  0  2  0  0  0  0  0  0  0  0  0
    0.7130   -2.4500   -0.2030 C   0  0  0  0  0  0  0  0  0  0  0  0
    1.7490   -2.9770    0.7650 C   0  0  0  0  0  0  0  0  0  0  0  0
   -0.9880   -0.8230   -0.5970 N   0  0  0  0  0  0  0  0  0  0  0  0
   -2.0860   -0.0720   -0.0330 C   0  0  0  0  0  0  0  0  0  0  0  0
   -2.4010    1.0630   -0.9830 C   0  0  0  0  0  0  0  0  0  0  0  0
   -3.5150    1.8600   -0.4550 N   0  0  0  0  0  0  0  0  0  0  0  0
  1  2  1  0
  2  3  1  0
  3  4  1  0
  4  5  2  0
  4  6  1  0
  6  7  1  6
  6  9  1  0
  7  8  1  0
  9 10  1  0
 10 11  1  0
 11 12  1  0
M  CHG  2   9   1  12   1
M  END
