
     RDKit          3D

 12 11  0  0  0  0  0  0  0  0999 V2000
    3.3850   -0.4760    0.8710 C   0  0  0  0  0  0  0  0  0  0  0  0
    3.1640   -0.1400   -0.5070 N   0  0  2  0  0  0  0  0  0  0  0  0
    3.5410    1.2390   -0.7580 C   0  0  0  0  0  0  0  0  0  0  0  0
    1.8550   -0.4570   -0.9900 C   0  0  0  0  0  0  0  0  0  0  0  0
    0.7590   -0.0750   -0.0050 C   0  0  0  0  0  0  0  0  0  0  0  0
   -0.4320   -0.4260   -0.5770 O   0  0  0  0  0  0  0  0  0  0  0  0
   -1.5650   -0.1610    0.1740 C   0  0  2  0  0  0  0  0  0  0  0  0
   -1.4550   -0.9150    1.4620 C   0  0  0  0  0  0  0  0  0  0  0  0
   -2.7230   -0.7680   -0.6080 C   0  0  0  0  0  0  0  0  0  0  0  0
   -3.9950   -0.6000    0.0040 N   0  0  0  0  0  0  0  0  0  0  0  0
   -1.7360    1.3190    0.3620 C   0  0  0  0  0  0  0  0  0  0  0  0
   -2.8690    1.6320    1.1100 O   0  0  0  0  0  0  0  0  0  0  0  0
  2  1  1  1
  2  3  1  0
  2  4  1  0
  4  5  1  0
  5  6  1  0
  6  7  1  0
  7  8  1  1
  7  9  1  0
  7 11  1  0
  9 10  1  0
 11 12  1  0
M  CHG  2   2   1  10   1
M  END
