
     RDKit          3D

 12 11  0  0  0  0  0  0  0  0999 V2000
    3.0270    1.5490   -0.4140 C   0  0  0  0  0  0  0  0  0  0  0  0
    1.6230    1.4540   -0.2080 N   0  0  0  0  0  0  0  0  0  0  0  0
    1.1570    0.1050    0.0580 C   0  0  2  0  0  0  0  0  0  0  0  0
    1.8980   -0.5700    1.1600 C   0  0  0  0  0  0  0  0  0  0  0  0
    1.2770   -0.6760   -1.2320 C   0  0  0  0  0  0  0  0  0  0  0  0
    2.5940   -0.6980   -1.6530 O   0  0  0  0  0  0  0  0  0  0  0  0
   -0.2950    0.2430    0.4690 C   0  0  0  0  0  0  0  0  0  0  0  0
   -0.9350   -0.9920    0.7770 N   0  0  0  0  0  0  0  0  0  0  0  0
   -2.3270   -0.9570    0.3070 C   0  0  2  0  0  0  0  0  0  0  0  0
   -2.4160   -0.6090   -1.1530 C   0  0  0  0  0  0  0  0  0  0  0  0
   -3.1310    0.0610    1.0820 C   0  0  0  0  0  0  0  0  0  0  0  0
   -2.6340    1.3410    0.9640 O   0  0  0  0  0  0  0  0  0  0  0  0
  1  2  1  0
  2  3  1  0
  3  4  1  1
  3  5  1  0
  3  7  1  0
  5  6  1  0
  7  8  1  0
  8  9  1  0
  9 10  1  6
  9 11  1  0
 11 12  1  0
M  CHG  2   2   1   8   1
M  END
