
     RDKit          3D

 12 11  0  0  0  0  0  0  0  0999 V2000
    4.5260    0.3070    0.7710 C   0  0  0  0  0  0  0  0  0  0  0  0
    3.5930   -0.7290    0.1870 C   0  0  0  0  0  0  0  0  0  0  0  0
    2.2700   -0.4220    0.3460 O   0  0  0  0  0  0  0  0  0  0  0  0
    1.8950    0.7740   -0.2500 C   0  0  0  0  0  0  0  0  0  0  0  0
    0.4210    1.0420   -0.0290 C   0  0  0  0  0  0  0  0  0  0  0  0
   -0.3450   -0.0300   -0.6060 N   0  0  0  0  0  0  0  0  0  0  0  0
   -1.6240   -0.2340   -0.0060 C   0  0  2  0  0  0  0  0  0  0  0  0
   -1.7540    0.3500    1.3760 C   0  0  0  0  0  0  0  0  0  0  0  0
   -1.8470   -1.7420    0.1030 C   0  0  0  0  0  0  0  0  0  0  0  0
   -2.7460    0.2950   -0.8280 C   0  0  0  0  0  0  0  0  0  0  0  0
   -4.0700    0.1510   -0.3350 N   0  0  0  0  0  0  0  0  0  0  0  0
   -2.4930    0.8260   -1.8810 O   0  0  0  0  0  0  0  0  0  0  0  0
  1  2  1  0
  2  3  1  0
  3  4  1  0
  4  5  1  0
  5  6  1  0
  6  7  1  0
  7  8  1  1
  7  9  1  0
  7 10  1  0
 10 11  1  0
 10 12  2  0
M  CHG  2   6   1  11   1
M  END
