
     RDKit          3D

 23 26  0  0  0  0  0  0  0  0999 V2000
   -3.9570   -0.5140   -1.8680 C   0  0  0  0  0  0  0  0  0  0  0  0
   -3.9780   -0.7950   -0.3990 C   0  0  0  0  0  0  0  0  0  0  0  0
   -4.9490   -1.5920    0.1680 C   0  0  0  0  0  0  0  0  0  0  0  0
   -5.0060   -1.8750    1.5090 C   0  0  0  0  0  0  0  0  0  0  0  0
   -4.0330   -1.3210    2.3070 C   0  0  0  0  0  0  0  0  0  0  0  0
   -3.0550   -0.5240    1.7680 C   0  0  0  0  0  0  0  0  0  0  0  0
   -2.0850    0.0340    2.5330 N   0  0  0  0  0  0  0  0  0  0  0  0
   -1.1120    0.8190    2.0400 C   0  0  0  0  0  0  0  0  0  0  0  0
   -0.2250    1.3260    2.7670 O   0  0  0  0  0  0  0  0  0  0  0  0
   -1.0780    1.0800    0.7280 N   0  0  0  0  0  0  0  0  0  0  0  0
   -0.0490    1.9130    0.1770 C   0  0  0  0  0  0  0  0  0  0  0  0
    1.1670    1.2270   -0.2640 C   0  0  0  0  0  0  0  0  0  0  0  0
    1.2910    0.7340   -1.5430 C   0  0  0  0  0  0  0  0  0  0  0  0
    2.4480    0.0970   -1.9270 C   0  0  0  0  0  0  0  0  0  0  0  0
    3.5230   -0.0860   -1.0880 C   0  0  0  0  0  0  0  0  0  0  0  0
    3.3810    0.4130    0.1890 C   0  0  0  0  0  0  0  0  0  0  0  0
    2.2270    1.0600    0.6020 C   0  0  0  0  0  0  0  0  0  0  0  0
    4.6180    0.1270    0.9430 C   0  0  0  0  0  0  0  0  0  0  0  0
    5.6570   -0.0320   -0.1250 C   0  0  0  0  0  0  0  0  0  0  0  0
    4.8680   -0.7170   -1.2210 C   0  0  0  0  0  0  0  0  0  0  0  0
   -2.0050    0.5660   -0.1040 C   0  0  0  0  0  0  0  0  0  0  0  0
   -2.0130    0.7830   -1.3310 O   0  0  0  0  0  0  0  0  0  0  0  0
   -3.0030   -0.2400    0.4040 C   0  0  0  0  0  0  0  0  0  0  0  0
  1  2  1  0
  2  3  2  0
  2 23  1  0
  3  4  1  0
  4  5  2  0
  5  6  1  0
  6  7  1  0
  6 23  2  0
  7  8  1  0
  8  9  2  0
  8 10  1  0
 10 11  1  0
 10 21  1  0
 11 12  1  0
 12 13  2  0
 12 17  1  0
 13 14  1  0
 14 15  2  0
 15 16  1  0
 15 20  1  0
 16 17  2  0
 16 18  1  0
 18 19  1  0
 19 20  1  0
 21 22  2  0
 21 23  1  0
M  END
