
     RDKit          3D

 22 25  0  0  0  0  0  0  0  0999 V2000
    2.0780    2.3720   -2.0370 O   0  0  0  0  0  0  0  0  0  0  0  0
    2.1070    1.1850   -1.6910 C   0  0  0  0  0  0  0  0  0  0  0  0
    1.0970    0.1450   -2.0990 C   0  0  0  0  0  0  0  0  0  0  0  0
    0.6340   -0.4720   -0.8620 C   0  0  0  0  0  0  0  0  0  0  0  0
   -0.5930   -0.6500   -0.4410 C   0  0  0  0  0  0  0  0  0  0  0  0
   -0.9390   -1.3030    0.8690 C   0  0  0  0  0  0  0  0  0  0  0  0
   -2.0090   -0.5310    1.5220 N   0  0  0  0  0  0  0  0  0  0  0  0
   -3.1720   -0.1250    0.8080 C   0  0  0  0  0  0  0  0  0  0  0  0
   -4.3630    0.1090    1.4640 C   0  0  0  0  0  0  0  0  0  0  0  0
   -5.4670    0.5000    0.7400 C   0  0  0  0  0  0  0  0  0  0  0  0
   -5.3330    0.6420   -0.6210 C   0  0  0  0  0  0  0  0  0  0  0  0
   -4.1410    0.4080   -1.2720 C   0  0  0  0  0  0  0  0  0  0  0  0
   -3.0360    0.0180   -0.5610 C   0  0  0  0  0  0  0  0  0  0  0  0
   -1.7470   -0.2390   -1.2320 C   0  0  0  0  0  0  0  0  0  0  0  0
   -1.7110   -0.0900   -2.4740 O   0  0  0  0  0  0  0  0  0  0  0  0
    1.6710   -0.9680    0.0080 N   0  0  0  0  0  0  0  0  0  0  0  0
    2.9670   -0.3600    0.0260 C   0  0  0  0  0  0  0  0  0  0  0  0
    3.9470   -0.8400    0.8630 C   0  0  0  0  0  0  0  0  0  0  0  0
    5.1770   -0.2300    0.8550 C   0  0  0  0  0  0  0  0  0  0  0  0
    5.4020    0.8410    0.0150 C   0  0  0  0  0  0  0  0  0  0  0  0
    4.4300    1.3320   -0.8290 C   0  0  0  0  0  0  0  0  0  0  0  0
    3.1800    0.7180   -0.8260 C   0  0  0  0  0  0  0  0  0  0  0  0
  1  2  2  0
  2  3  1  0
  2 22  1  0
  3  4  1  0
  4  5  2  3
  4 16  1  0
  5  6  1  0
  5 14  1  0
  6  7  1  0
  7  8  1  0
  8  9  2  0
  8 13  1  0
  9 10  1  0
 10 11  2  0
 11 12  1  0
 12 13  2  0
 13 14  1  0
 14 15  2  0
 16 17  1  0
 17 18  2  0
 17 22  1  0
 18 19  1  0
 19 20  2  0
 20 21  1  0
 21 22  2  0
M  END
