
     RDKit          3D

 11 10  0  0  0  0  0  0  0  0999 V2000
   -4.1010    0.3850   -0.3130 C   0  0  0  0  0  0  0  0  0  0  0  0
   -2.8310   -0.2560   -0.5940 N   0  0  0  0  0  0  0  0  0  0  0  0
   -1.7200    0.4610    0.0070 C   0  0  0  0  0  0  0  0  0  0  0  0
   -0.8810   -0.5120    0.7490 C   0  0  0  0  0  0  0  0  0  0  0  0
    0.3140    0.0500    1.4350 C   0  0  0  0  0  0  0  0  0  0  0  0
    1.3040    0.7250    0.5380 C   0  0  0  0  0  0  0  0  0  0  0  0
    1.8810   -0.1770   -0.5180 C   0  0  2  0  0  0  0  0  0  0  0  0
    2.5770   -1.3080    0.0000 N   0  0  0  0  0  0  0  0  0  0  0  0
    2.8290    0.6360   -1.3250 C   0  0  0  0  0  0  0  0  0  0  0  0
    2.4710    1.7060   -1.9050 O   0  0  0  0  0  0  0  0  0  0  0  0
    4.1410    0.2500   -1.4710 O   0  0  0  0  0  0  0  0  0  0  0  0
  1  2  1  0
  2  3  1  0
  3  4  1  0
  4  5  1  0
  5  6  1  0
  6  7  1  0
  7  8  1  1
  7  9  1  0
  9 10  2  0
  9 11  1  0
M  CHG  2   2   1   8   1
M  END
