
     RDKit          3D

 23 25  0  0  0  0  0  0  0  0999 V2000
   -1.7700   -3.2460   -1.5560 C   0  0  0  0  0  0  0  0  0  0  0  0
   -2.2120   -2.0670   -0.7270 C   0  0  0  0  0  0  0  0  0  0  0  0
   -3.1260   -2.2610    0.0790 O   0  0  0  0  0  0  0  0  0  0  0  0
   -1.6010   -0.8040   -0.8760 N   0  0  0  0  0  0  0  0  0  0  0  0
   -1.9340    0.3790   -0.1530 C   0  0  0  0  0  0  0  0  0  0  0  0
   -2.9950    0.5170    0.6980 C   0  0  0  0  0  0  0  0  0  0  0  0
   -3.3090    1.7050    1.3440 C   0  0  0  0  0  0  0  0  0  0  0  0
   -4.4900    1.7700    2.2620 C   0  0  0  0  0  0  0  0  0  0  0  0
   -2.5100    2.8020    1.1130 C   0  0  0  0  0  0  0  0  0  0  0  0
   -2.8330    4.0990    1.8000 C   0  0  0  0  0  0  0  0  0  0  0  0
   -1.4360    2.6850    0.2600 C   0  0  0  0  0  0  0  0  0  0  0  0
   -1.1240    1.5070   -0.3800 C   0  0  0  0  0  0  0  0  0  0  0  0
   -0.0300    1.4210   -1.2360 O   0  0  0  0  0  0  0  0  0  0  0  0
    1.0730    0.5980   -0.9880 C   0  0  0  0  0  0  0  0  0  0  0  0
    2.0620    0.4880   -1.9440 C   0  0  0  0  0  0  0  0  0  0  0  0
    3.1520   -0.3200   -1.7050 C   0  0  0  0  0  0  0  0  0  0  0  0
    4.1960   -0.4180   -2.7480 C   0  0  0  0  0  0  0  0  0  0  0  0
    3.3080   -1.0410   -0.5290 C   0  0  0  0  0  0  0  0  0  0  0  0
    2.3130   -0.9200    0.4150 C   0  0  0  0  0  0  0  0  0  0  0  0
    1.2170   -0.1210    0.1990 C   0  0  0  0  0  0  0  0  0  0  0  0
    2.6570   -1.7680    1.6090 C   0  0  0  0  0  0  0  0  0  0  0  0
    4.0820   -2.1970    1.3620 C   0  0  0  0  0  0  0  0  0  0  0  0
    4.3190   -1.9290   -0.0460 N   0  0  0  0  0  0  0  0  0  0  0  0
  1  2  1  0
  2  3  2  0
  2  4  1  0
  4  5  1  0
  5  6  2  0
  5 12  1  0
  6  7  1  0
  7  8  1  0
  7  9  2  0
  9 10  1  0
  9 11  1  0
 11 12  2  0
 12 13  1  0
 13 14  1  0
 14 15  2  0
 14 20  1  0
 15 16  1  0
 16 17  1  0
 16 18  2  0
 18 19  1  0
 18 23  1  0
 19 20  2  0
 19 21  1  0
 21 22  1  0
 22 23  1  0
M  END
