
     RDKit          3D

 23 26  0  0  0  0  0  0  0  0999 V2000
   -5.0040    1.6910    0.2090 C   0  0  0  0  0  0  0  0  0  0  0  0
   -3.7320    0.9520    0.2220 C   0  0  0  0  0  0  0  0  0  0  0  0
   -3.6860   -0.3690    0.2580 C   0  0  0  0  0  0  0  0  0  0  0  0
   -4.9690   -1.1060    0.2860 C   0  0  0  0  0  0  0  0  0  0  0  0
   -2.4180   -1.1370    0.2730 C   0  0  1  0  0  0  0  0  0  0  0  0
   -2.3480   -2.1290   -0.8690 C   0  0  0  0  0  0  0  0  0  0  0  0
   -1.2290   -0.2750    0.2430 C   0  0  0  0  0  0  0  0  0  0  0  0
    0.0120   -0.8840    0.2530 C   0  0  0  0  0  0  0  0  0  0  0  0
    1.2040   -0.1900    0.2270 C   0  0  0  0  0  0  0  0  0  0  0  0
    1.1350    1.1870    0.1900 C   0  0  0  0  0  0  0  0  0  0  0  0
   -0.0790    1.8240    0.1790 C   0  0  0  0  0  0  0  0  0  0  0  0
   -1.2490    1.1020    0.2050 C   0  0  0  0  0  0  0  0  0  0  0  0
   -2.5260    1.7380    0.1940 N   0  0  0  0  0  0  0  0  0  0  0  0
    2.2710    2.1210    0.1580 C   0  0  0  0  0  0  0  0  0  0  0  0
    1.9660    3.3120    0.3390 O   0  0  0  0  0  0  0  0  0  0  0  0
    3.6490    1.7880   -0.0550 N   0  0  0  0  0  0  0  0  0  0  0  0
    4.2730    0.5170   -0.1710 C   0  0  0  0  0  0  0  0  0  0  0  0
    5.6190    0.6350   -0.4490 C   0  0  0  0  0  0  0  0  0  0  0  0
    6.3850   -0.5040   -0.5950 C   0  0  0  0  0  0  0  0  0  0  0  0
    5.7870   -1.7380   -0.4600 C   0  0  0  0  0  0  0  0  0  0  0  0
    4.4400   -1.8290   -0.1830 C   0  0  0  0  0  0  0  0  0  0  0  0
    3.6530   -0.6940   -0.0320 C   0  0  0  0  0  0  0  0  0  0  0  0
    2.3230   -1.0270    0.2440 O   0  0  0  0  0  0  0  0  0  0  0  0
  1  2  1  0
  2  3  2  0
  2 13  1  0
  3  4  1  0
  3  5  1  0
  5  6  1  6
  5  7  1  0
  7  8  2  0
  7 12  1  0
  8  9  1  0
  9 10  2  0
  9 23  1  0
 10 11  1  0
 10 14  1  0
 11 12  2  0
 12 13  1  0
 14 15  2  0
 14 16  1  0
 16 17  1  0
 17 18  2  0
 17 22  1  0
 18 19  1  0
 19 20  2  0
 20 21  1  0
 21 22  2  0
 22 23  1  0
M  END
