
     RDKit          3D

 23 25  0  0  0  0  0  0  0  0999 V2000
   -5.0780    2.0940   -0.3540 C   0  0  0  0  0  0  0  0  0  0  0  0
   -3.9620    1.1440   -0.0740 C   0  0  0  0  0  0  0  0  0  0  0  0
   -2.6720    1.5950    0.2060 C   0  0  0  0  0  0  0  0  0  0  0  0
   -1.6540    0.7060    0.4620 C   0  0  0  0  0  0  0  0  0  0  0  0
   -1.8960   -0.6480    0.4470 C   0  0  0  0  0  0  0  0  0  0  0  0
   -3.1580   -1.1460    0.1750 C   0  0  0  0  0  0  0  0  0  0  0  0
   -3.4380   -2.6060    0.1540 C   0  0  0  0  0  0  0  0  0  0  0  0
   -4.1670   -0.2260   -0.0800 C   0  0  0  0  0  0  0  0  0  0  0  0
   -5.5280   -0.7340   -0.3730 C   0  0  0  0  0  0  0  0  0  0  0  0
   -0.7400   -1.5340    0.7330 C   0  0  0  0  0  0  0  0  0  0  0  0
    0.3750   -1.0900   -0.1770 C   0  0  0  0  0  0  0  0  0  0  0  0
    0.6760    0.3590   -0.0530 C   0  0  2  0  0  0  0  0  0  0  0  0
    2.0760    0.5940    0.3990 C   0  0  0  0  0  0  0  0  0  0  0  0
    2.2500    1.2070    1.4650 O   0  0  0  0  0  0  0  0  0  0  0  0
    3.1600    0.1260   -0.3750 N   0  0  0  0  0  0  0  0  0  0  0  0
    4.5190    0.2770   -0.0690 C   0  0  0  0  0  0  0  0  0  0  0  0
    5.0200    0.9040    1.0320 C   0  0  0  0  0  0  0  0  0  0  0  0
    6.4100    1.0000    1.2440 C   0  0  0  0  0  0  0  0  0  0  0  0
    7.2730    0.4590    0.3370 C   0  0  0  0  0  0  0  0  0  0  0  0
    6.7860   -0.1570   -0.7440 N   0  0  0  0  0  0  0  0  0  0  0  0
    5.4560   -0.2510   -0.9500 C   0  0  0  0  0  0  0  0  0  0  0  0
    5.0620   -0.8480   -1.9950 O   0  0  0  0  0  0  0  0  0  0  0  0
   -0.2820    1.1680    0.7610 C   0  0  0  0  0  0  0  0  0  0  0  0
  1  2  1  0
  2  3  2  0
  2  8  1  0
  3  4  1  0
  4  5  2  0
  4 23  1  0
  5  6  1  0
  5 10  1  0
  6  7  1  0
  6  8  2  0
  8  9  1  0
 10 11  1  0
 11 12  1  0
 12 13  1  1
 12 23  1  0
 13 14  2  0
 13 15  1  0
 15 16  1  0
 16 17  2  0
 16 21  1  0
 17 18  1  0
 18 19  2  0
 19 20  1  0
 20 21  1  0
 21 22  2  0
M  END
