
     RDKit          3D

 39 40  0  0  0  0  0  0  0  0999 V2000
   12.3770    0.8060   -0.9170 C   0  0  0  0  0  0  0  0  0  0  0  0
   11.5580   -0.3220   -0.7040 O   0  0  0  0  0  0  0  0  0  0  0  0
   10.2100   -0.1290   -0.4820 C   0  0  0  0  0  0  0  0  0  0  0  0
    9.6560    1.1440   -0.4650 C   0  0  0  0  0  0  0  0  0  0  0  0
    8.3150    1.3050   -0.2420 C   0  0  0  0  0  0  0  0  0  0  0  0
    7.5150    0.2070   -0.0350 C   0  0  0  0  0  0  0  0  0  0  0  0
    6.0820    0.4500    0.2000 C   0  0  0  0  0  0  0  0  0  0  0  0
    5.3160    0.0970   -1.0810 C   0  0  0  0  0  0  0  0  0  0  0  0
    3.8490    0.3800   -0.7470 C   0  0  0  0  0  0  0  0  0  0  0  0
    3.7730    1.6950   -0.4320 O   0  0  0  0  0  0  0  0  0  0  0  0
    2.5910    2.2380   -0.0690 C   0  0  0  0  0  0  0  0  0  0  0  0
    1.4630    2.2030   -1.0310 C   0  0  1  0  0  0  0  0  0  0  0  0
    1.0930    0.9030   -1.3640 O   0  0  0  0  0  0  0  0  0  0  0  0
    0.2200    2.8620   -0.4460 C   0  0  0  0  0  0  0  0  0  0  0  0
   -0.2530    2.2070    0.7880 C   0  0  0  0  0  0  0  0  0  0  0  0
    0.2730    2.3830    1.9220 O   0  0  0  0  0  0  0  0  0  0  0  0
   -1.3350    1.3490    0.6960 O   0  0  0  0  0  0  0  0  0  0  0  0
   -1.8650    0.6700    1.8180 C   0  0  0  0  0  0  0  0  0  0  0  0
   -3.0220   -0.1670    1.4120 C   0  0  0  0  0  0  0  0  0  0  0  0
   -2.8100   -1.4130    0.8380 C   0  0  0  0  0  0  0  0  0  0  0  0
   -3.9290   -2.1390    0.4920 C   0  0  0  0  0  0  0  0  0  0  0  0
   -3.6880   -3.4210   -0.1000 N   0  0  0  0  0  0  0  0  0  0  0  0
   -5.2200   -1.6730    0.6950 C   0  0  0  0  0  0  0  0  0  0  0  0
   -6.3680   -2.5250    0.2890 C   0  0  0  0  0  0  0  0  0  0  0  0
   -5.4350   -0.4370    1.2640 C   0  0  0  0  0  0  0  0  0  0  0  0
   -6.7860    0.0610    1.4910 C   0  0  0  0  0  0  0  0  0  0  0  0
   -6.9780    1.1930    1.9920 O   0  0  0  0  0  0  0  0  0  0  0  0
   -7.9240   -0.6690    1.1750 O   0  0  0  0  0  0  0  0  0  0  0  0
   -9.2310   -0.1800    1.3990 C   0  0  2  0  0  0  0  0  0  0  0  0
   -9.9410   -0.9650    2.4140 C   0  0  0  0  0  0  0  0  0  0  0  0
  -10.4990   -1.5570    3.2110 N   0  0  0  0  0  0  0  0  0  0  0  0
  -10.0410   -0.0230    0.1500 C   0  0  0  0  0  0  0  0  0  0  0  0
  -10.1840   -1.3200   -0.5200 C   0  0  0  0  0  0  0  0  0  0  0  0
  -10.9390   -1.3750   -1.7130 N   0  0  0  0  0  0  0  0  0  0  0  0
   -9.6390   -2.3360   -0.0230 O   0  0  0  0  0  0  0  0  0  0  0  0
   -4.3210    0.2960    1.6140 C   0  0  0  0  0  0  0  0  0  0  0  0
    8.0680   -1.0530   -0.0520 C   0  0  0  0  0  0  0  0  0  0  0  0
    7.2600   -2.1600    0.1570 O   0  0  0  0  0  0  0  0  0  0  0  0
    9.3990   -1.2090   -0.2740 C   0  0  0  0  0  0  0  0  0  0  0  0
  1  2  1  0
  2  3  1  0
  3  4  2  0
  3 39  1  0
  4  5  1  0
  5  6  2  0
  6  7  1  0
  6 37  1  0
  7  8  1  0
  8  9  1  0
  9 10  1  0
 10 11  1  0
 11 12  1  0
 12 13  1  1
 12 14  1  0
 14 15  1  0
 15 16  2  0
 15 17  1  0
 17 18  1  0
 18 19  1  0
 19 20  2  0
 19 36  1  0
 20 21  1  0
 21 22  1  0
 21 23  2  0
 23 24  1  0
 23 25  1  0
 25 26  1  0
 25 36  2  0
 26 27  2  0
 26 28  1  0
 28 29  1  0
 29 30  1  1
 29 32  1  0
 30 31  3  0
 32 33  1  0
 33 34  1  0
 33 35  2  0
 37 38  1  0
 37 39  2  0
M  END
