
     RDKit          3D

 39 40  0  0  0  0  0  0  0  0999 V2000
   -6.4710   -2.7260   -0.7970 C   0  0  0  0  0  0  0  0  0  0  0  0
   -7.2430   -1.7580   -0.1470 O   0  0  0  0  0  0  0  0  0  0  0  0
   -6.6650   -0.7110    0.5430 C   0  0  0  0  0  0  0  0  0  0  0  0
   -5.3160   -0.5040    0.6690 C   0  0  0  0  0  0  0  0  0  0  0  0
   -4.7850    0.5750    1.3760 C   0  0  0  0  0  0  0  0  0  0  0  0
   -3.4980    0.7380    1.4750 O   0  0  0  0  0  0  0  0  0  0  0  0
   -2.2130    0.6170    1.3960 C   0  0  0  0  0  0  0  0  0  0  0  0
   -1.5500    0.4900    0.0090 C   0  0  0  0  0  0  0  0  0  0  0  0
   -0.2170    0.3890    0.1550 O   0  0  0  0  0  0  0  0  0  0  0  0
    0.9430    0.2580   -0.4630 C   0  0  0  0  0  0  0  0  0  0  0  0
    1.0420    0.1500   -1.8560 C   0  0  0  0  0  0  0  0  0  0  0  0
    2.2740    0.0150   -2.4620 C   0  0  0  0  0  0  0  0  0  0  0  0
    2.3710   -0.1120   -3.9610 C   0  0  0  0  0  0  0  0  0  0  0  0
    3.4780   -0.0200   -1.7500 C   0  0  0  0  0  0  0  0  0  0  0  0
    4.6680   -0.1630   -2.4740 N   0  0  0  0  0  0  0  0  0  0  0  0
    5.9820   -0.1450   -1.9010 C   0  0  0  0  0  0  0  0  0  0  0  0
    6.1050    0.0080   -0.7000 O   0  0  0  0  0  0  0  0  0  0  0  0
    7.1410   -0.2970   -2.7030 N   0  0  0  0  0  0  0  0  0  0  0  0
    8.4880   -0.3070   -2.2650 C   0  0  0  0  0  0  0  0  0  0  0  0
    9.0000   -1.3550   -1.3880 C   0  0  1  0  0  0  0  0  0  0  0  0
   10.4450   -1.1070   -1.2460 O   0  0  0  0  0  0  0  0  0  0  0  0
    8.5310   -1.5260    0.0010 C   0  0  0  0  0  0  0  0  0  0  0  0
    8.7620   -0.3860    0.9410 C   0  0  1  0  0  0  0  0  0  0  0  0
    8.1840   -0.8100    2.3030 C   0  0  0  0  0  0  0  0  0  0  0  0
   10.1390   -0.2760    1.1820 O   0  0  0  0  0  0  0  0  0  0  0  0
    3.3670    0.0850   -0.3900 C   0  0  0  0  0  0  0  0  0  0  0  0
    2.1510    0.2180    0.2270 C   0  0  0  0  0  0  0  0  0  0  0  0
    2.0920    0.3220    1.6230 O   0  0  0  0  0  0  0  0  0  0  0  0
    3.2950    0.2760    2.3600 C   0  0  0  0  0  0  0  0  0  0  0  0
   -5.6770    1.4880    1.9850 C   0  0  0  0  0  0  0  0  0  0  0  0
   -5.0900    2.5420    2.6780 O   0  0  0  0  0  0  0  0  0  0  0  0
   -5.7710    3.5500    3.3600 C   0  0  0  0  0  0  0  0  0  0  0  0
   -7.0180    1.2820    1.8580 C   0  0  0  0  0  0  0  0  0  0  0  0
   -7.5260    0.2150    1.1580 C   0  0  0  0  0  0  0  0  0  0  0  0
   -8.9760    0.0090    1.0490 C   0  0  0  0  0  0  0  0  0  0  0  0
   -9.5610    0.3670   -0.2900 C   0  0  0  0  0  0  0  0  0  0  0  0
  -11.0350    0.1230   -0.2580 C   0  0  0  0  0  0  0  0  0  0  0  0
  -11.7670    0.2310   -1.4470 N   0  0  0  0  0  0  0  0  0  0  0  0
  -11.6060   -0.1790    0.8210 O   0  0  0  0  0  0  0  0  0  0  0  0
  1  2  1  0
  2  3  1  0
  3  4  2  0
  3 34  1  0
  4  5  1  0
  5  6  1  0
  5 30  2  0
  6  7  1  0
  7  8  1  0
  8  9  1  0
  9 10  1  0
 10 11  2  0
 10 27  1  0
 11 12  1  0
 12 13  1  0
 12 14  2  0
 14 15  1  0
 14 26  1  0
 15 16  1  0
 16 17  2  0
 16 18  1  0
 18 19  1  0
 19 20  1  0
 20 21  1  1
 20 22  1  0
 22 23  1  0
 23 24  1  1
 23 25  1  0
 26 27  2  0
 27 28  1  0
 28 29  1  0
 30 31  1  0
 30 33  1  0
 31 32  1  0
 33 34  2  0
 34 35  1  0
 35 36  1  0
 36 37  1  0
 37 38  1  0
 37 39  2  0
M  END
