
     RDKit          3D

 39 40  0  0  0  0  0  0  0  0999 V2000
   -8.5450   -4.1740    1.7820 C   0  0  0  0  0  0  0  0  0  0  0  0
   -7.7650   -4.3610    0.4950 C   0  0  0  0  0  0  0  0  0  0  0  0
   -6.9050   -3.2160    0.3780 O   0  0  0  0  0  0  0  0  0  0  0  0
   -7.4060   -1.9380    0.3170 C   0  0  0  0  0  0  0  0  0  0  0  0
   -8.6560   -1.8170    0.3680 O   0  0  0  0  0  0  0  0  0  0  0  0
   -6.5550   -0.7480    0.1990 C   0  0  0  0  0  0  0  0  0  0  0  0
   -5.1780   -0.8840    0.1350 C   0  0  0  0  0  0  0  0  0  0  0  0
   -4.3720    0.2280    0.0210 C   0  0  0  0  0  0  0  0  0  0  0  0
   -2.8710    0.1080   -0.0560 C   0  0  2  0  0  0  0  0  0  0  0  0
   -2.2460    1.0000    0.7570 O   0  0  0  0  0  0  0  0  0  0  0  0
   -2.4180    0.1590   -1.4790 C   0  0  0  0  0  0  0  0  0  0  0  0
   -1.0300   -0.1310   -1.6630 N   0  0  0  0  0  0  0  0  0  0  0  0
    0.0020    0.6850   -1.1460 C   0  0  0  0  0  0  0  0  0  0  0  0
   -0.2800    1.7250   -0.5130 O   0  0  0  0  0  0  0  0  0  0  0  0
    1.3590    0.2860   -1.3720 N   0  0  0  0  0  0  0  0  0  0  0  0
    2.4720    1.0210   -0.8930 C   0  0  0  0  0  0  0  0  0  0  0  0
    2.6290    1.1720    0.5730 C   0  0  2  0  0  0  0  0  0  0  0  0
    2.8620   -0.1520    1.2610 C   0  0  0  0  0  0  0  0  0  0  0  0
    1.5540    1.7900    1.2220 O   0  0  0  0  0  0  0  0  0  0  0  0
    3.9020    2.0020    0.8390 C   0  0  0  0  0  0  0  0  0  0  0  0
    4.9770    1.5370    0.2960 O   0  0  0  0  0  0  0  0  0  0  0  0
    6.0320    1.0790   -0.2780 C   0  0  0  0  0  0  0  0  0  0  0  0
    6.1500    0.9900   -1.6590 C   0  0  0  0  0  0  0  0  0  0  0  0
    7.2640    0.5030   -2.2910 C   0  0  0  0  0  0  0  0  0  0  0  0
    8.3210    0.0810   -1.5130 C   0  0  0  0  0  0  0  0  0  0  0  0
    9.5100   -0.4350   -2.1690 C   0  0  0  0  0  0  0  0  0  0  0  0
    9.6160   -0.4360   -3.5720 N   0  0  0  0  0  0  0  0  0  0  0  0
   10.4430   -0.8800   -1.4750 O   0  0  0  0  0  0  0  0  0  0  0  0
    8.2260    0.1590   -0.1370 C   0  0  0  0  0  0  0  0  0  0  0  0
    7.1250    0.6410    0.4990 C   0  0  0  0  0  0  0  0  0  0  0  0
    7.0860    0.6950    1.8630 O   0  0  0  0  0  0  0  0  0  0  0  0
    8.1020    0.2880    2.7250 C   0  0  0  0  0  0  0  0  0  0  0  0
    8.4840   -1.1600    2.6240 C   0  0  0  0  0  0  0  0  0  0  0  0
   -4.9720    1.4700   -0.0270 C   0  0  0  0  0  0  0  0  0  0  0  0
   -6.3570    1.6070    0.0380 C   0  0  0  0  0  0  0  0  0  0  0  0
   -7.1620    0.4960    0.1510 C   0  0  0  0  0  0  0  0  0  0  0  0
   -8.5450    0.5680    0.2200 O   0  0  0  0  0  0  0  0  0  0  0  0
   -9.2760    1.7600    0.1810 C   0  0  0  0  0  0  0  0  0  0  0  0
   -9.0780    2.5520   -1.0680 C   0  0  0  0  0  0  0  0  0  0  0  0
  1  2  1  0
  2  3  1  0
  3  4  1  0
  4  5  2  0
  4  6  1  0
  6  7  2  0
  6 36  1  0
  7  8  1  0
  8  9  1  0
  8 34  2  0
  9 10  1  1
  9 11  1  0
 11 12  1  0
 12 13  1  0
 13 14  2  0
 13 15  1  0
 15 16  1  0
 16 17  1  0
 17 18  1  1
 17 19  1  0
 17 20  1  0
 20 21  1  0
 21 22  1  0
 22 23  2  0
 22 30  1  0
 23 24  1  0
 24 25  2  0
 25 26  1  0
 25 29  1  0
 26 27  1  0
 26 28  2  0
 29 30  2  0
 30 31  1  0
 31 32  1  0
 32 33  1  0
 34 35  1  0
 35 36  2  0
 36 37  1  0
 37 38  1  0
 38 39  1  0
M  END
