
     RDKit          3D

 45 49  0  0  0  0  0  0  0  0999 V2000
    2.7670   -5.1090   -0.5660 C   0  0  0  0  0  0  0  0  0  0  0  0
    3.6060   -4.2610    0.3630 C   0  0  1  0  0  0  0  0  0  0  0  0
    3.2170   -4.4620    1.8210 C   0  0  0  0  0  0  0  0  0  0  0  0
    5.0340   -4.7630    0.2380 C   0  0  0  0  0  0  0  0  0  0  0  0
    3.6020   -2.8600    0.0100 N   0  0  0  0  0  0  0  0  0  0  0  0
    2.4010   -2.0690   -0.0360 C   0  0  0  0  0  0  0  0  0  0  0  0
    1.2970   -2.6240    0.2430 O   0  0  0  0  0  0  0  0  0  0  0  0
    2.5120   -0.6340   -0.4120 C   0  0  2  0  0  0  0  0  0  0  0  0
    3.3870    0.0070    0.6480 C   0  0  0  0  0  0  0  0  0  0  0  0
    3.6040    1.4140    0.4080 N   0  0  2  0  0  0  0  0  0  0  0  0
    4.1490    1.9670    1.6150 C   0  0  0  0  0  0  0  0  0  0  0  0
    5.1190    3.0640    1.4070 C   0  0  0  0  0  0  0  0  0  0  0  0
    5.3540    3.6910    0.2070 C   0  0  0  0  0  0  0  0  0  0  0  0
    6.2870    4.6970    0.1400 C   0  0  0  0  0  0  0  0  0  0  0  0
    7.0140    5.1120    1.2460 C   0  0  0  0  0  0  0  0  0  0  0  0
    6.7600    4.4750    2.4180 N   0  0  0  0  0  0  0  0  0  0  0  0
    5.8510    3.4890    2.5050 C   0  0  0  0  0  0  0  0  0  0  0  0
    2.3350    2.0370    0.1480 C   0  0  0  0  0  0  0  0  0  0  0  0
    1.2280    1.0980    0.4860 C   0  0  0  0  0  0  0  0  0  0  0  0
    1.1940   -0.0450   -0.4050 N   0  0  1  0  0  0  0  0  0  0  0  0
    0.7650    0.4130   -1.6960 C   0  0  0  0  0  0  0  0  0  0  0  0
   -0.0760   -0.5280   -2.4640 C   0  0  1  0  0  0  0  0  0  0  0  0
    0.5680   -1.7470   -2.7310 O   0  0  0  0  0  0  0  0  0  0  0  0
   -1.4710   -0.7530   -1.9530 C   0  0  0  0  0  0  0  0  0  0  0  0
   -2.3250    0.4980   -1.9040 C   0  0  1  0  0  0  0  0  0  0  0  0
   -2.4890    1.1410   -3.2310 C   0  0  0  0  0  0  0  0  0  0  0  0
   -3.3200    2.3580   -3.2350 C   0  0  0  0  0  0  0  0  0  0  0  0
   -2.8090    3.6020   -2.8530 C   0  0  0  0  0  0  0  0  0  0  0  0
   -3.5550    4.7570   -2.8800 C   0  0  0  0  0  0  0  0  0  0  0  0
   -4.8650    4.7200   -3.2970 C   0  0  0  0  0  0  0  0  0  0  0  0
   -5.3990    3.5140   -3.6790 C   0  0  0  0  0  0  0  0  0  0  0  0
   -4.6250    2.3560   -3.6450 C   0  0  0  0  0  0  0  0  0  0  0  0
   -3.5340    0.3100   -1.1000 C   0  0  0  0  0  0  0  0  0  0  0  0
   -4.6790    0.4320   -1.5800 O   0  0  0  0  0  0  0  0  0  0  0  0
   -3.4520   -0.0240    0.2940 N   0  0  0  0  0  0  0  0  0  0  0  0
   -4.5940   -0.2120    1.1160 C   0  0  1  0  0  0  0  0  0  0  0  0
   -4.7420   -1.5710    1.6800 C   0  0  0  0  0  0  0  0  0  0  0  0
   -4.3050   -2.8130    1.2660 C   0  0  0  0  0  0  0  0  0  0  0  0
   -4.6160   -3.9170    2.0180 C   0  0  0  0  0  0  0  0  0  0  0  0
   -5.3500   -3.8280    3.1740 C   0  0  0  0  0  0  0  0  0  0  0  0
   -5.7730   -2.5710    3.5620 C   0  0  0  0  0  0  0  0  0  0  0  0
   -5.4810   -1.4420    2.8330 C   0  0  0  0  0  0  0  0  0  0  0  0
   -5.8290   -0.0070    3.0660 C   0  0  0  0  0  0  0  0  0  0  0  0
   -4.6580    0.6580    2.3250 C   0  0  1  0  0  0  0  0  0  0  0  0
   -3.5490    0.4680    3.1740 O   0  0  0  0  0  0  0  0  0  0  0  0
  2  1  1  6
  2  3  1  0
  2  4  1  0
  2  5  1  0
  5  6  1  0
  6  7  2  0
  8  6  1  1
  8  9  1  0
  8 20  1  0
  9 10  1  0
 10 11  1  1
 10 18  1  0
 11 12  1  0
 12 13  2  0
 12 17  1  0
 13 14  1  0
 14 15  2  0
 15 16  1  0
 16 17  2  0
 18 19  1  0
 19 20  1  0
 20 21  1  6
 21 22  1  0
 22 23  1  1
 22 24  1  0
 25 24  1  6
 25 26  1  0
 25 33  1  0
 26 27  1  0
 27 28  2  0
 27 32  1  0
 28 29  1  0
 29 30  2  0
 30 31  1  0
 31 32  2  0
 33 34  2  0
 33 35  1  0
 36 35  1  1
 36 37  1  0
 36 44  1  0
 37 38  2  0
 37 42  1  0
 38 39  1  0
 39 40  2  0
 40 41  1  0
 41 42  2  0
 42 43  1  0
 43 44  1  0
 44 45  1  1
M  CHG  2  10   1  20   1
M  END
