
     RDKit          3D

 39 40  0  0  0  0  0  0  0  0999 V2000
    2.6840   -0.8250    0.7840 C   0  0  0  0  0  0  0  0  0  0  0  0
    2.7810    0.5360    0.5390 O   0  0  0  0  0  0  0  0  0  0  0  0
    4.0050    1.0470    0.3700 C   0  0  0  0  0  0  0  0  0  0  0  0
    4.7610    0.9700   -0.8610 C   0  0  0  0  0  0  0  0  0  0  0  0
    4.4500    0.4570   -2.0180 C   0  0  0  0  0  0  0  0  0  0  0  0
    3.2670   -0.2100   -2.5190 C   0  0  2  0  0  0  0  0  0  0  0  0
    3.2880   -0.3030   -4.0610 C   0  0  0  0  0  0  0  0  0  0  0  0
    4.4590   -1.0840   -4.5620 C   0  0  0  0  0  0  0  0  0  0  0  0
    4.4600   -1.1690   -5.9690 O   0  0  0  0  0  0  0  0  0  0  0  0
    1.9980    0.3830   -2.1180 N   0  0  0  0  0  0  0  0  0  0  0  0
    0.8360   -0.4560   -1.9550 C   0  0  0  0  0  0  0  0  0  0  0  0
    1.0030   -1.6660   -2.1910 O   0  0  0  0  0  0  0  0  0  0  0  0
   -0.4070    0.0850   -1.5590 N   0  0  0  0  0  0  0  0  0  0  0  0
   -1.6020   -0.6440   -1.4200 C   0  0  0  0  0  0  0  0  0  0  0  0
   -1.8450   -1.9090   -1.9130 C   0  0  0  0  0  0  0  0  0  0  0  0
   -3.0940   -2.4920   -1.6980 C   0  0  0  0  0  0  0  0  0  0  0  0
   -3.3510   -3.7690   -2.1940 O   0  0  0  0  0  0  0  0  0  0  0  0
   -4.1090   -1.8650   -1.0070 C   0  0  0  0  0  0  0  0  0  0  0  0
   -5.3420   -2.4410   -0.7950 O   0  0  0  0  0  0  0  0  0  0  0  0
   -5.7330   -3.2660    0.2600 C   0  0  0  0  0  0  0  0  0  0  0  0
   -3.8740   -0.6180   -0.5140 C   0  0  0  0  0  0  0  0  0  0  0  0
   -4.8450    0.0780    0.1950 O   0  0  0  0  0  0  0  0  0  0  0  0
   -4.5490    1.3620    0.6880 C   0  0  0  0  0  0  0  0  0  0  0  0
   -5.8030    1.8310    1.3820 C   0  0  0  0  0  0  0  0  0  0  0  0
   -6.2030    3.1430    1.2620 C   0  0  0  0  0  0  0  0  0  0  0  0
   -7.3670    3.5480    1.9080 C   0  0  0  0  0  0  0  0  0  0  0  0
   -8.1160    2.6670    2.6580 C   0  0  0  0  0  0  0  0  0  0  0  0
   -9.3680    3.1440    3.3270 C   0  0  0  0  0  0  0  0  0  0  0  0
   -7.7160    1.3470    2.7820 C   0  0  0  0  0  0  0  0  0  0  0  0
   -8.5100    0.4840    3.5630 N   0  0  0  0  0  0  0  0  0  0  0  0
   -6.5510    0.9740    2.1240 C   0  0  0  0  0  0  0  0  0  0  0  0
   -2.6440   -0.0350   -0.7240 C   0  0  0  0  0  0  0  0  0  0  0  0
    6.0730    1.5740   -0.7770 O   0  0  0  0  0  0  0  0  0  0  0  0
    7.2380    0.8630   -0.6140 C   0  0  0  0  0  0  0  0  0  0  0  0
    7.3730    0.0730    0.6690 C   0  0  0  0  0  0  0  0  0  0  0  0
    7.3090    0.9050    1.7810 O   0  0  0  0  0  0  0  0  0  0  0  0
    7.4640    0.2580    2.9790 C   0  0  0  0  0  0  0  0  0  0  0  0
    6.4310   -0.7970    3.2450 C   0  0  0  0  0  0  0  0  0  0  0  0
    6.6900   -1.3870    4.4920 O   0  0  0  0  0  0  0  0  0  0  0  0
  1  2  1  0
  2  3  1  0
  3  4  1  0
  4  5  2  3
  4 33  1  0
  5  6  1  0
  6  7  1  6
  6 10  1  0
  7  8  1  0
  8  9  1  0
 10 11  1  0
 11 12  2  0
 11 13  1  0
 13 14  1  0
 14 15  2  0
 14 32  1  0
 15 16  1  0
 16 17  1  0
 16 18  2  0
 18 19  1  0
 18 21  1  0
 19 20  1  0
 21 22  1  0
 21 32  2  0
 22 23  1  0
 23 24  1  0
 24 25  2  0
 24 31  1  0
 25 26  1  0
 26 27  2  0
 27 28  1  0
 27 29  1  0
 29 30  1  0
 29 31  2  0
 33 34  1  0
 34 35  1  0
 35 36  1  0
 36 37  1  0
 37 38  1  0
 38 39  1  0
M  END
