
     RDKit          3D

 39 40  0  0  0  0  0  0  0  0999 V2000
   -6.8430    1.2090   -2.0480 C   0  0  0  0  0  0  0  0  0  0  0  0
   -6.7090    0.8790   -0.5540 C   0  0  0  0  0  0  0  0  0  0  0  0
   -5.2330    0.9650   -0.1960 C   0  0  2  0  0  0  0  0  0  0  0  0
   -4.9490    0.6770    1.1570 O   0  0  0  0  0  0  0  0  0  0  0  0
   -4.6690   -0.6010    1.6330 C   0  0  0  0  0  0  0  0  0  0  0  0
   -3.3520   -1.0620    1.4940 C   0  0  0  0  0  0  0  0  0  0  0  0
   -2.4340   -0.2400    0.9110 O   0  0  0  0  0  0  0  0  0  0  0  0
   -1.1150   -0.5530    0.6520 C   0  0  0  0  0  0  0  0  0  0  0  0
   -0.8510   -1.6350   -0.3400 C   0  0  0  0  0  0  0  0  0  0  0  0
    0.5950   -1.8180   -0.4540 N   0  0  0  0  0  0  0  0  0  0  0  0
    1.3010   -2.6910    0.3240 C   0  0  0  0  0  0  0  0  0  0  0  0
    0.7530   -3.5790    1.3810 C   0  0  0  0  0  0  0  0  0  0  0  0
    2.6250   -2.5920   -0.0590 C   0  0  0  0  0  0  0  0  0  0  0  0
    2.7350   -1.6610   -1.0690 C   0  0  0  0  0  0  0  0  0  0  0  0
    3.9520   -1.2490   -1.7610 C   0  0  0  0  0  0  0  0  0  0  0  0
    3.9610   -0.3930   -2.6680 O   0  0  0  0  0  0  0  0  0  0  0  0
    5.1730   -1.8290   -1.4050 O   0  0  0  0  0  0  0  0  0  0  0  0
    6.4040   -1.5270   -1.9730 C   0  0  0  0  0  0  0  0  0  0  0  0
    6.8480   -0.1160   -1.7660 C   0  0  0  0  0  0  0  0  0  0  0  0
    7.9120    0.1970   -2.3700 O   0  0  0  0  0  0  0  0  0  0  0  0
    6.1200    0.7590   -0.9590 N   0  0  0  0  0  0  0  0  0  0  0  0
    6.5190    2.1100   -0.7360 C   0  0  0  0  0  0  0  0  0  0  0  0
    7.8300    2.2740   -0.0410 C   0  0  1  0  0  0  0  0  0  0  0  0
    8.1010    3.7820    0.1070 C   0  0  0  0  0  0  0  0  0  0  0  0
    7.7900    1.7090    1.3710 C   0  0  0  0  0  0  0  0  0  0  0  0
    8.9270    1.7470   -0.6870 O   0  0  0  0  0  0  0  0  0  0  0  0
    1.4450   -1.2060   -1.2810 C   0  0  0  0  0  0  0  0  0  0  0  0
    1.1230   -0.1760   -2.3040 C   0  0  0  0  0  0  0  0  0  0  0  0
   -3.0820   -2.3300    1.9610 C   0  0  0  0  0  0  0  0  0  0  0  0
   -4.0520   -3.1400    2.5470 C   0  0  0  0  0  0  0  0  0  0  0  0
   -3.7060   -4.4130    2.9930 O   0  0  0  0  0  0  0  0  0  0  0  0
   -5.3130   -2.6280    2.6520 C   0  0  0  0  0  0  0  0  0  0  0  0
   -5.6700   -1.3400    2.2020 C   0  0  0  0  0  0  0  0  0  0  0  0
   -7.0140   -0.8710    2.4750 C   0  0  0  0  0  0  0  0  0  0  0  0
   -7.3930    0.4670    2.4630 N   0  0  0  0  0  0  0  0  0  0  0  0
   -7.8970   -1.7280    2.7460 O   0  0  0  0  0  0  0  0  0  0  0  0
   -4.6240    2.2160   -0.7250 C   0  0  1  0  0  0  0  0  0  0  0  0
   -5.0720    3.4520    0.0230 C   0  0  0  0  0  0  0  0  0  0  0  0
   -3.2510    2.1720   -0.6500 O   0  0  0  0  0  0  0  0  0  0  0  0
  1  2  1  0
  3  2  1  1
  3  4  1  0
  3 37  1  0
  4  5  1  0
  5  6  2  0
  5 33  1  0
  6  7  1  0
  6 29  1  0
  7  8  1  0
  8  9  1  0
  9 10  1  0
 10 11  1  0
 10 27  1  0
 11 12  1  0
 11 13  2  0
 13 14  1  0
 14 15  1  0
 14 27  2  0
 15 16  2  0
 15 17  1  0
 17 18  1  0
 18 19  1  0
 19 20  2  0
 19 21  1  0
 21 22  1  0
 22 23  1  0
 23 24  1  1
 23 25  1  0
 23 26  1  0
 27 28  1  0
 29 30  2  0
 30 31  1  0
 30 32  1  0
 32 33  2  0
 33 34  1  0
 34 35  1  0
 34 36  2  0
 37 38  1  1
 37 39  1  0
M  END
