
     RDKit          3D

 39 40  0  0  0  0  0  0  0  0999 V2000
    5.7750    2.2870   -3.3410 C   0  0  0  0  0  0  0  0  0  0  0  0
    5.0680    1.2260   -2.6030 C   0  0  0  0  0  0  0  0  0  0  0  0
    5.7150    0.0800   -2.1750 C   0  0  0  0  0  0  0  0  0  0  0  0
    5.0380   -0.9150   -1.4780 C   0  0  0  0  0  0  0  0  0  0  0  0
    5.7510   -2.0760   -1.0850 N   0  0  0  0  0  0  0  0  0  0  0  0
    5.3250   -3.0360   -0.1780 C   0  0  0  0  0  0  0  0  0  0  0  0
    4.2250   -2.9370    0.3990 O   0  0  0  0  0  0  0  0  0  0  0  0
    6.1150   -4.2870    0.2090 C   0  0  1  0  0  0  0  0  0  0  0  0
    5.1290   -5.3870   -0.4070 C   0  0  0  0  0  0  0  0  0  0  0  0
    7.2660   -4.3720   -0.3850 O   0  0  0  0  0  0  0  0  0  0  0  0
    8.3650   -4.5500    0.5280 C   0  0  0  0  0  0  0  0  0  0  0  0
    8.4250   -3.3980    1.4790 C   0  0  0  0  0  0  0  0  0  0  0  0
    8.6160   -2.1810    0.7930 O   0  0  0  0  0  0  0  0  0  0  0  0
    3.7070   -0.7370   -1.2200 C   0  0  0  0  0  0  0  0  0  0  0  0
    3.0170    0.4070   -1.6350 C   0  0  0  0  0  0  0  0  0  0  0  0
    1.6080    0.5640   -1.3300 C   0  0  0  0  0  0  0  0  0  0  0  0
    1.2000   -0.1050   -0.3170 O   0  0  0  0  0  0  0  0  0  0  0  0
    0.6590    1.3410   -2.0010 N   0  0  0  0  0  0  0  0  0  0  0  0
   -0.7130    1.4880   -1.7010 C   0  0  0  0  0  0  0  0  0  0  0  0
   -1.5170    2.1980   -2.5860 C   0  0  0  0  0  0  0  0  0  0  0  0
   -2.8440    2.3630   -2.3330 C   0  0  0  0  0  0  0  0  0  0  0  0
   -3.4740    1.8370   -1.1870 C   0  0  0  0  0  0  0  0  0  0  0  0
   -4.8000    2.0830   -1.0710 O   0  0  0  0  0  0  0  0  0  0  0  0
   -5.7260    1.7370   -0.0020 C   0  0  2  0  0  0  0  0  0  0  0  0
   -6.6140    0.7460   -0.6200 C   0  0  0  0  0  0  0  0  0  0  0  0
   -7.6700    0.0490    0.1090 C   0  0  0  0  0  0  0  0  0  0  0  0
   -7.1700   -0.6380    1.2530 O   0  0  0  0  0  0  0  0  0  0  0  0
   -6.1750    3.0150    0.5830 C   0  0  0  0  0  0  0  0  0  0  0  0
   -7.0950    3.1290    1.7160 C   0  0  0  0  0  0  0  0  0  0  0  0
   -8.4920    2.7630    1.6070 C   0  0  0  0  0  0  0  0  0  0  0  0
   -9.1570    2.2410    2.7690 N   0  0  0  0  0  0  0  0  0  0  0  0
   -9.1190    2.9050    0.5220 O   0  0  0  0  0  0  0  0  0  0  0  0
   -2.6840    1.1260   -0.2950 C   0  0  0  0  0  0  0  0  0  0  0  0
   -3.2250    0.5950    0.8230 O   0  0  0  0  0  0  0  0  0  0  0  0
   -2.8340   -0.1070    1.9100 C   0  0  0  0  0  0  0  0  0  0  0  0
   -1.8590    0.5620    2.8420 C   0  0  0  0  0  0  0  0  0  0  0  0
   -2.3890    1.7480    3.3590 O   0  0  0  0  0  0  0  0  0  0  0  0
   -1.3210    0.9820   -0.5960 C   0  0  0  0  0  0  0  0  0  0  0  0
    3.7040    1.3690   -2.3200 C   0  0  0  0  0  0  0  0  0  0  0  0
  1  2  1  0
  2  3  2  0
  2 39  1  0
  3  4  1  0
  4  5  1  0
  4 14  2  0
  5  6  1  0
  6  7  2  0
  6  8  1  0
  8  9  1  6
  8 10  1  0
 10 11  1  0
 11 12  1  0
 12 13  1  0
 14 15  1  0
 15 16  1  0
 15 39  2  0
 16 17  2  0
 16 18  1  0
 18 19  1  0
 19 20  2  0
 19 38  1  0
 20 21  1  0
 21 22  2  0
 22 23  1  0
 22 33  1  0
 23 24  1  0
 24 25  1  6
 24 28  1  0
 25 26  1  0
 26 27  1  0
 28 29  1  0
 29 30  1  0
 30 31  1  0
 30 32  2  0
 33 34  1  0
 33 38  2  0
 34 35  1  0
 35 36  1  0
 36 37  1  0
M  END
