
     RDKit          3D

 39 40  0  0  0  0  0  0  0  0999 V2000
   -7.8210    3.5490    0.4650 C   0  0  0  0  0  0  0  0  0  0  0  0
   -8.4520    2.3880    1.1880 C   0  0  0  0  0  0  0  0  0  0  0  0
   -8.0470    1.0260    0.8540 C   0  0  2  0  0  0  0  0  0  0  0  0
   -8.4080    0.8150   -0.6900 C   0  0  0  0  0  0  0  0  0  0  0  0
   -8.9740    0.0090    1.4980 C   0  0  0  0  0  0  0  0  0  0  0  0
   -6.7140    0.5750    0.9960 N   0  0  0  0  0  0  0  0  0  0  0  0
   -5.6110    0.8450    0.1980 C   0  0  0  0  0  0  0  0  0  0  0  0
   -5.7580    1.6270   -0.7920 O   0  0  0  0  0  0  0  0  0  0  0  0
   -4.2820    0.3100    0.3360 N   0  0  0  0  0  0  0  0  0  0  0  0
   -3.3290    0.5890   -0.7590 C   0  0  0  0  0  0  0  0  0  0  0  0
   -2.2090   -0.3810   -0.7190 C   0  0  0  0  0  0  0  0  0  0  0  0
   -1.2770   -0.5010    0.2730 C   0  0  0  0  0  0  0  0  0  0  0  0
   -0.2530   -1.4520    0.1680 C   0  0  0  0  0  0  0  0  0  0  0  0
    0.7660   -1.6700    1.0140 O   0  0  0  0  0  0  0  0  0  0  0  0
    1.2890   -0.9920    2.1410 C   0  0  0  0  0  0  0  0  0  0  0  0
    1.7730    0.3240    1.5080 C   0  0  2  0  0  0  0  0  0  0  0  0
    2.5520   -0.1530    0.3500 O   0  0  0  0  0  0  0  0  0  0  0  0
    2.7400    1.1540    2.2600 C   0  0  0  0  0  0  0  0  0  0  0  0
    4.0450    0.4360    2.5280 C   0  0  0  0  0  0  0  0  0  0  0  0
    4.0860   -0.4140    3.4260 O   0  0  0  0  0  0  0  0  0  0  0  0
    5.1660    0.7760    1.7280 N   0  0  0  0  0  0  0  0  0  0  0  0
    6.4690    0.2510    1.8940 C   0  0  0  0  0  0  0  0  0  0  0  0
    7.1120    0.0370    3.0870 C   0  0  0  0  0  0  0  0  0  0  0  0
    8.4340   -0.2670    3.1720 C   0  0  0  0  0  0  0  0  0  0  0  0
    9.0920   -0.4790    4.3620 O   0  0  0  0  0  0  0  0  0  0  0  0
    9.1800   -0.3670    2.0070 C   0  0  0  0  0  0  0  0  0  0  0  0
    8.5600   -0.1650    0.8070 C   0  0  0  0  0  0  0  0  0  0  0  0
    7.2010    0.1460    0.6830 C   0  0  0  0  0  0  0  0  0  0  0  0
    6.5290    0.3420   -0.4690 O   0  0  0  0  0  0  0  0  0  0  0  0
    6.9580    0.3170   -1.7570 C   0  0  0  0  0  0  0  0  0  0  0  0
    7.8970    1.3720   -2.2460 C   0  0  0  0  0  0  0  0  0  0  0  0
    8.1400    1.0550   -3.6110 O   0  0  0  0  0  0  0  0  0  0  0  0
   -0.2230   -2.2850   -0.9890 C   0  0  0  0  0  0  0  0  0  0  0  0
    0.7730   -3.2230   -1.0670 O   0  0  0  0  0  0  0  0  0  0  0  0
    0.9830   -4.1570   -2.0740 C   0  0  0  0  0  0  0  0  0  0  0  0
   -1.1580   -2.1480   -1.9770 C   0  0  0  0  0  0  0  0  0  0  0  0
   -2.1500   -1.2060   -1.8700 C   0  0  0  0  0  0  0  0  0  0  0  0
   -3.1020   -1.0110   -2.8410 O   0  0  0  0  0  0  0  0  0  0  0  0
   -3.1570   -1.7760   -4.0280 C   0  0  0  0  0  0  0  0  0  0  0  0
  1  2  1  0
  2  3  1  0
  3  4  1  6
  3  5  1  0
  3  6  1  0
  6  7  1  0
  7  8  2  0
  7  9  1  0
  9 10  1  0
 10 11  1  0
 11 12  2  0
 11 37  1  0
 12 13  1  0
 13 14  1  0
 13 33  2  0
 14 15  1  0
 15 16  1  0
 16 17  1  6
 16 18  1  0
 18 19  1  0
 19 20  2  0
 19 21  1  0
 21 22  1  0
 22 23  2  0
 22 28  1  0
 23 24  1  0
 24 25  1  0
 24 26  2  0
 26 27  1  0
 27 28  2  0
 28 29  1  0
 29 30  1  0
 30 31  1  0
 31 32  1  0
 33 34  1  0
 33 36  1  0
 34 35  1  0
 36 37  2  0
 37 38  1  0
 38 39  1  0
M  END
