
     RDKit          3D

 36 37  0  0  0  0  0  0  0  0999 V2000
   -3.4900   -2.4690   -3.3770 C   0  0  0  0  0  0  0  0  0  0  0  0
   -4.0000   -3.4030   -2.6050 C   0  0  0  0  0  0  0  0  0  0  0  0
   -4.3280   -3.2500   -1.2010 C   0  0  0  0  0  0  0  0  0  0  0  0
   -4.8510   -4.2550   -0.5070 C   0  0  0  0  0  0  0  0  0  0  0  0
   -5.1930   -4.1170    0.9270 C   0  0  0  0  0  0  0  0  0  0  0  0
   -4.0780   -1.9890   -0.5800 N   0  0  0  0  0  0  0  0  0  0  0  0
   -2.7460   -1.5050   -0.4580 C   0  0  0  0  0  0  0  0  0  0  0  0
   -1.8300   -2.2300   -0.9040 O   0  0  0  0  0  0  0  0  0  0  0  0
   -2.3940   -0.1930    0.1670 C   0  0  2  0  0  0  0  0  0  0  0  0
   -3.1000   -0.1270    1.4340 C   0  0  0  0  0  0  0  0  0  0  0  0
   -3.6120   -1.1880    1.9080 O   0  0  0  0  0  0  0  0  0  0  0  0
   -3.2820    1.0330    2.2210 N   0  0  0  0  0  0  0  0  0  0  0  0
   -4.0160    0.9650    3.4980 C   0  0  0  0  0  0  0  0  0  0  0  0
   -2.6230    0.8910   -0.8140 C   0  0  1  0  0  0  0  0  0  0  0  0
   -3.8470    1.7080   -0.6080 C   0  0  0  0  0  0  0  0  0  0  0  0
   -4.9550    1.1880   -0.6010 O   0  0  0  0  0  0  0  0  0  0  0  0
   -3.7850    3.0960   -0.4150 O   0  0  0  0  0  0  0  0  0  0  0  0
   -4.9550    3.8680   -0.2180 C   0  0  0  0  0  0  0  0  0  0  0  0
   -4.5290    5.3090   -0.0360 C   0  0  0  0  0  0  0  0  0  0  0  0
   -1.4920    1.7530   -0.8130 O   0  0  0  0  0  0  0  0  0  0  0  0
   -0.5150    1.1530   -1.5950 C   0  0  0  0  0  0  0  0  0  0  0  0
   -0.0860   -0.0920   -0.8470 C   0  0  2  0  0  0  0  0  0  0  0  0
   -0.8760   -0.3070    0.3970 C   0  0  1  0  0  0  0  0  0  0  0  0
   -0.3140    0.6600    1.3630 C   0  0  0  0  0  0  0  0  0  0  0  0
    1.1680    0.7580    0.9340 C   0  0  0  0  0  0  0  0  0  0  0  0
    1.2560    0.1180   -0.3390 N   0  0  0  0  0  0  0  0  0  0  0  0
    1.8830   -1.1830   -0.2440 C   0  0  0  0  0  0  0  0  0  0  0  0
    3.3370   -1.0130    0.0930 C   0  0  0  0  0  0  0  0  0  0  0  0
    3.9700   -0.2010   -1.0380 C   0  0  0  0  0  0  0  0  0  0  0  0
    5.7710    0.0530   -0.7280 P   0  0  0  0  0  0  0  0  0  0  0  0
    6.1300    1.7350   -0.8520 O   0  0  0  0  0  0  0  0  0  0  0  0
    7.5190    1.9230   -0.7120 C   0  0  0  0  0  0  0  0  0  0  0  0
    7.8150    3.3920   -0.8220 C   0  0  0  0  0  0  0  0  0  0  0  0
    6.2330   -0.6020    0.8080 O   0  0  0  0  0  0  0  0  0  0  0  0
    6.9440   -1.7940    0.5400 C   0  0  0  0  0  0  0  0  0  0  0  0
    7.4030   -2.4470    1.8330 C   0  0  0  0  0  0  0  0  0  0  0  0
  1  2  2  0
  2  3  1  0
  3  4  2  3
  3  6  1  0
  4  5  1  0
  6  7  1  0
  7  8  2  0
  9  7  1  6
  9 10  1  0
  9 14  1  0
  9 23  1  0
 10 11  2  0
 10 12  1  0
 12 13  1  0
 14 15  1  1
 14 20  1  0
 15 16  2  0
 15 17  1  0
 17 18  1  0
 18 19  1  0
 20 21  1  0
 22 21  1  1
 22 23  1  0
 22 26  1  0
 23 24  1  1
 24 25  1  0
 25 26  1  0
 26 27  1  0
 27 28  1  0
 28 29  1  0
 29 30  1  0
 30 31  1  0
 30 34  1  0
 31 32  1  0
 32 33  1  0
 34 35  1  0
 35 36  1  0
M  END
