
     RDKit          3D

 36 37  0  0  0  0  0  0  0  0999 V2000
    7.3900    1.6250   -2.0970 C   0  0  0  0  0  0  0  0  0  0  0  0
    6.3610    0.7800   -1.4020 C   0  0  0  0  0  0  0  0  0  0  0  0
    5.1190    1.4310   -1.2620 O   0  0  0  0  0  0  0  0  0  0  0  0
    4.0630    0.3370   -0.3870 P   0  0  0  0  0  0  0  0  0  0  0  0
    5.0700   -0.6900    0.5400 O   0  0  0  0  0  0  0  0  0  0  0  0
    4.4530   -1.6980    1.2200 C   0  0  0  0  0  0  0  0  0  0  0  0
    5.4250   -2.5630    2.0160 C   0  0  0  0  0  0  0  0  0  0  0  0
    3.0880   -0.6240   -1.5730 C   0  0  2  0  0  0  0  0  0  0  0  0
    3.6490   -0.5780   -2.8420 O   0  0  0  0  0  0  0  0  0  0  0  0
    1.6020   -0.2710   -1.6190 C   0  0  0  0  0  0  0  0  0  0  0  0
    1.0010   -0.2570   -0.3470 N   0  0  0  0  0  0  0  0  0  0  0  0
   -0.3780   -0.2140   -0.1790 C   0  0  2  0  0  0  0  0  0  0  0  0
   -0.9290    1.0090   -0.9890 C   0  0  0  0  0  0  0  0  0  0  0  0
   -0.7730    0.2490    1.2640 C   0  0  0  0  0  0  0  0  0  0  0  0
   -0.5080    1.4230    1.6210 O   0  0  0  0  0  0  0  0  0  0  0  0
    0.2420    2.3910    1.9190 C   0  0  2  0  0  0  0  0  0  0  0  0
    0.1490    2.6830    3.4800 C   0  0  0  0  0  0  0  0  0  0  0  0
   -0.1650    3.7200    1.3500 C   0  0  0  0  0  0  0  0  0  0  0  0
   -1.1360    3.8530    0.5510 O   0  0  0  0  0  0  0  0  0  0  0  0
    0.5310    4.8450    1.7030 O   0  0  0  0  0  0  0  0  0  0  0  0
    0.1790    6.1400    1.2150 C   0  0  0  0  0  0  0  0  0  0  0  0
   -1.1640   -1.3720   -0.5690 C   0  0  0  0  0  0  0  0  0  0  0  0
   -0.5570   -2.5320   -0.9960 C   0  0  0  0  0  0  0  0  0  0  0  0
   -1.2770   -3.5740   -1.4250 N   0  0  0  0  0  0  0  0  0  0  0  0
   -2.6260   -3.4620   -1.4240 C   0  0  0  0  0  0  0  0  0  0  0  0
   -3.3200   -2.3470   -1.0050 C   0  0  0  0  0  0  0  0  0  0  0  0
   -2.5410   -1.2640   -0.5640 C   0  0  0  0  0  0  0  0  0  0  0  0
   -4.7370   -2.1320   -1.1030 C   0  0  0  0  0  0  0  0  0  0  0  0
   -5.5080   -1.3460   -0.4450 C   0  0  0  0  0  0  0  0  0  0  0  0
   -5.5190   -0.4090    0.5990 C   0  0  0  0  0  0  0  0  0  0  0  0
   -4.5460   -0.1030    1.6830 C   0  0  0  0  0  0  0  0  0  0  0  0
   -6.7380    0.2540    0.8240 C   0  0  0  0  0  0  0  0  0  0  0  0
   -7.8100   -0.0460    0.0340 O   0  0  0  0  0  0  0  0  0  0  0  0
   -5.4350   -3.3160   -1.7780 C   0  0  0  0  0  0  0  0  0  0  0  0
   -4.7620   -4.3640   -2.1760 C   0  0  0  0  0  0  0  0  0  0  0  0
   -3.3760   -4.5260   -2.0410 N   0  0  0  0  0  0  0  0  0  0  0  0
  1  2  1  0
  2  3  1  0
  3  4  1  0
  4  5  1  0
  4  8  1  0
  5  6  1  0
  6  7  1  0
  8  9  1  6
  8 10  1  0
 10 11  1  0
 11 12  1  0
 12 13  1  6
 12 14  1  0
 12 22  1  0
 14 15  1  0
 15 16  1  0
 16 17  1  1
 16 18  1  0
 18 19  2  0
 18 20  1  0
 20 21  1  0
 22 23  2  0
 22 27  1  0
 23 24  1  0
 24 25  2  0
 25 26  1  0
 25 36  1  0
 26 27  2  0
 26 28  1  0
 28 29  2  3
 28 34  1  0
 29 30  1  0
 30 31  1  0
 30 32  2  3
 32 33  1  0
 34 35  2  0
 35 36  1  0
M  END
