
     RDKit          3D

 36 36  0  0  0  0  0  0  0  0999 V2000
    9.8090   -0.9410   -1.9790 C   0  0  0  0  0  0  0  0  0  0  0  0
    8.6730   -1.7090   -1.9590 O   0  0  0  0  0  0  0  0  0  0  0  0
    7.2220   -0.7860   -2.1140 P   0  0  0  0  0  0  0  0  0  0  0  0
    7.3590    0.7720   -1.3760 O   0  0  0  0  0  0  0  0  0  0  0  0
    5.7260   -1.7020   -1.6040 C   0  0  2  0  0  0  0  0  0  0  0  0
    6.1320   -3.0420   -1.0320 C   0  0  0  0  0  0  0  0  0  0  0  0
    4.7900   -1.9050   -2.5840 O   0  0  0  0  0  0  0  0  0  0  0  0
    5.1010   -0.9440   -0.4050 C   0  0  0  0  0  0  0  0  0  0  0  0
    3.8420   -0.7070   -0.4240 C   0  0  0  0  0  0  0  0  0  0  0  0
    2.9730   -0.0470    0.5000 C   0  0  0  0  0  0  0  0  0  0  0  0
    1.6020    0.0660    0.1820 C   0  0  0  0  0  0  0  0  0  0  0  0
    0.6460    0.6820    0.9940 C   0  0  0  0  0  0  0  0  0  0  0  0
   -0.7250    0.6940    0.5430 C   0  0  0  0  0  0  0  0  0  0  0  0
   -0.8940   -0.0230   -0.5330 O   0  0  0  0  0  0  0  0  0  0  0  0
   -1.8660    1.2960    1.0040 N   0  0  0  0  0  0  0  0  0  0  0  0
   -1.9100    2.1620    2.1740 C   0  0  0  0  0  0  0  0  0  0  0  0
   -2.1790    1.4860    3.4630 C   0  0  0  0  0  0  0  0  0  0  0  0
   -2.1560    2.5360    4.5010 N   0  0  0  0  0  0  0  0  0  0  0  0
   -3.1900    1.1270    0.3230 C   0  0  1  0  0  0  0  0  0  0  0  0
   -3.1770    1.5830   -1.0670 C   0  0  0  0  0  0  0  0  0  0  0  0
   -4.4550    1.6180   -1.8200 C   0  0  1  0  0  0  0  0  0  0  0  0
   -5.2560    0.4100   -2.0210 C   0  0  0  0  0  0  0  0  0  0  0  0
   -5.3860    2.7230   -1.2670 C   0  0  0  0  0  0  0  0  0  0  0  0
   -4.0840    2.1690   -3.2230 C   0  0  0  0  0  0  0  0  0  0  0  0
   -3.5720   -0.3060    0.5110 C   0  0  0  0  0  0  0  0  0  0  0  0
   -4.0940   -0.6350    1.6360 O   0  0  0  0  0  0  0  0  0  0  0  0
   -3.4180   -1.3410   -0.4120 N   0  0  0  0  0  0  0  0  0  0  0  0
   -3.7590   -2.7230   -0.3010 C   0  0  0  0  0  0  0  0  0  0  0  0
   -5.1900   -3.0770   -0.1070 C   0  0  0  0  0  0  0  0  0  0  0  0
   -5.8560   -2.6610    1.0240 O   0  0  0  0  0  0  0  0  0  0  0  0
   -5.5720   -3.1300    2.3140 C   0  0  0  0  0  0  0  0  0  0  0  0
   -4.6670   -3.9710    2.4510 O   0  0  0  0  0  0  0  0  0  0  0  0
    1.1300    1.1920    2.1660 C   0  0  0  0  0  0  0  0  0  0  0  0
    2.4790    1.0950    2.5060 C   0  0  0  0  0  0  0  0  0  0  0  0
    3.3990    0.4820    1.6850 C   0  0  0  0  0  0  0  0  0  0  0  0
    4.8320    0.4220    2.1370 C   0  0  0  0  0  0  0  0  0  0  0  0
  1  2  1  0
  2  3  1  0
  3  4  1  0
  3  5  1  0
  5  6  1  1
  5  7  1  0
  5  8  1  0
  8  9  2  3
  9 10  1  0
 10 11  2  0
 10 35  1  0
 11 12  1  0
 12 13  1  0
 12 33  2  0
 13 14  2  0
 13 15  1  0
 15 16  1  0
 15 19  1  0
 16 17  1  0
 17 18  1  0
 19 20  1  6
 19 25  1  0
 20 21  1  0
 21 22  1  6
 21 23  1  0
 21 24  1  0
 25 26  2  0
 25 27  1  0
 27 28  1  0
 28 29  1  0
 29 30  1  0
 30 31  1  0
 31 32  2  0
 33 34  1  0
 34 35  2  0
 35 36  1  0
M  END
