
     RDKit          3D

 35 37  0  0  0  0  0  0  0  0999 V2000
    5.4950    0.5390   -2.8770 C   0  0  0  0  0  0  0  0  0  0  0  0
    5.1660    0.3870   -1.4200 C   0  0  0  0  0  0  0  0  0  0  0  0
    4.2380    1.3720   -1.0050 O   0  0  0  0  0  0  0  0  0  0  0  0
    3.8690    1.1850    0.6770 P   0  0  0  0  0  0  0  0  0  0  0  0
    5.2320    0.5640    1.4780 O   0  0  0  0  0  0  0  0  0  0  0  0
    5.0100   -0.5690    2.2260 C   0  0  0  0  0  0  0  0  0  0  0  0
    6.2870   -1.0170    2.8830 C   0  0  0  0  0  0  0  0  0  0  0  0
    2.3540    0.1290    0.8190 C   0  0  1  0  0  0  0  0  0  0  0  0
    1.4930    0.5650    1.7940 O   0  0  0  0  0  0  0  0  0  0  0  0
    1.6430    0.1400   -0.5050 C   0  0  0  0  0  0  0  0  0  0  0  0
    0.5300   -0.7200   -0.5170 N   0  0  0  0  0  0  0  0  0  0  0  0
   -0.6100   -0.4140    0.2570 C   0  0  2  0  0  0  0  0  0  0  0  0
   -1.6600   -1.4450   -0.0610 C   0  0  0  0  0  0  0  0  0  0  0  0
   -1.9000   -1.8200   -1.3610 C   0  0  0  0  0  0  0  0  0  0  0  0
   -2.8530   -2.7590   -1.6920 C   0  0  0  0  0  0  0  0  0  0  0  0
   -3.0450   -3.1010   -3.1100 C   0  0  0  0  0  0  0  0  0  0  0  0
   -4.0550   -2.2360   -3.7310 C   0  0  0  0  0  0  0  0  0  0  0  0
   -4.6160   -1.3430   -3.0220 O   0  0  0  0  0  0  0  0  0  0  0  0
   -4.4450   -2.3250   -5.0550 O   0  0  0  0  0  0  0  0  0  0  0  0
   -3.6090   -3.3620   -0.7120 C   0  0  0  0  0  0  0  0  0  0  0  0
   -3.3850   -3.0010    0.5960 C   0  0  0  0  0  0  0  0  0  0  0  0
   -4.1810   -3.6340    1.6360 C   0  0  0  0  0  0  0  0  0  0  0  0
   -3.9450   -3.2780    2.9970 N   0  0  0  0  0  0  0  0  0  0  0  0
   -5.0600   -4.4770    1.3600 O   0  0  0  0  0  0  0  0  0  0  0  0
   -2.4200   -2.0520    0.9140 C   0  0  0  0  0  0  0  0  0  0  0  0
   -1.0980    0.9650    0.1300 C   0  0  0  0  0  0  0  0  0  0  0  0
   -1.1850    1.5660   -1.1180 C   0  0  0  0  0  0  0  0  0  0  0  0
   -1.6510    2.8800   -1.2230 C   0  0  0  0  0  0  0  0  0  0  0  0
   -2.0270    3.5920   -0.1020 C   0  0  0  0  0  0  0  0  0  0  0  0
   -2.4850    4.8100    0.0490 O   0  0  0  0  0  0  0  0  0  0  0  0
   -2.7130    5.0730    1.3050 C   0  0  0  0  0  0  0  0  0  0  0  0
   -3.2270    6.3090    1.9340 C   0  0  0  0  0  0  0  0  0  0  0  0
   -2.3820    3.9610    1.9970 N   0  0  0  0  0  0  0  0  0  0  0  0
   -1.9490    3.0110    1.1500 C   0  0  0  0  0  0  0  0  0  0  0  0
   -1.4880    1.7190    1.2340 C   0  0  0  0  0  0  0  0  0  0  0  0
  1  2  1  0
  2  3  1  0
  3  4  1  0
  4  5  1  0
  4  8  1  0
  5  6  1  0
  6  7  1  0
  8  9  1  1
  8 10  1  0
 10 11  1  0
 12 11  1  6
 12 13  1  0
 12 26  1  0
 13 14  2  0
 13 25  1  0
 14 15  1  0
 15 16  1  0
 15 20  2  0
 16 17  1  0
 17 18  2  0
 17 19  1  0
 20 21  1  0
 21 22  1  0
 21 25  2  0
 22 23  1  0
 22 24  2  0
 26 27  2  0
 26 35  1  0
 27 28  1  0
 28 29  2  0
 29 30  1  0
 29 34  1  0
 30 31  1  0
 31 32  1  0
 31 33  2  0
 33 34  1  0
 34 35  2  0
M  END
