
     RDKit          3D

 38 41  0  0  0  0  0  0  0  0999 V2000
   -5.3510    5.3560   -0.5390 N   0  0  0  0  0  0  0  0  0  0  0  0
   -5.4880    3.9700   -0.3030 C   0  0  0  0  0  0  0  0  0  0  0  0
   -4.4250    3.1480   -0.4060 N   0  0  0  0  0  0  0  0  0  0  0  0
   -4.4820    1.8160   -0.1940 C   0  0  0  0  0  0  0  0  0  0  0  0
   -5.7030    1.2700    0.1480 C   0  0  0  0  0  0  0  0  0  0  0  0
   -5.5330   -0.0450    0.3050 N   0  0  0  0  0  0  0  0  0  0  0  0
   -4.2340   -0.3850    0.0770 C   0  0  0  0  0  0  0  0  0  0  0  0
   -3.6820   -1.6840    0.1390 N   0  0  0  0  0  0  0  0  0  0  0  0
   -3.3060   -2.3870   -1.0540 C   0  0  0  0  0  0  0  0  0  0  0  0
   -4.1880   -3.6450   -1.0950 C   0  0  0  0  0  0  0  0  0  0  0  0
   -4.8900   -3.8180    0.0820 O   0  0  0  0  0  0  0  0  0  0  0  0
   -4.0990   -3.7410    1.2280 C   0  0  0  0  0  0  0  0  0  0  0  0
   -3.5190   -2.3350    1.4160 C   0  0  0  0  0  0  0  0  0  0  0  0
   -3.6140    0.7910   -0.2300 N   0  0  0  0  0  0  0  0  0  0  0  0
   -2.2240    0.9070   -0.5660 C   0  0  2  0  0  0  0  0  0  0  0  0
   -1.4910   -0.2610   -0.2170 O   0  0  0  0  0  0  0  0  0  0  0  0
   -0.2050    0.1750   -0.3130 C   0  0  2  0  0  0  0  0  0  0  0  0
    0.8580   -0.7260    0.2730 C   0  0  0  0  0  0  0  0  0  0  0  0
    2.0450   -0.1000    0.0680 O   0  0  0  0  0  0  0  0  0  0  0  0
    3.4060   -0.8640    0.6180 P   0  0  0  0  0  0  0  0  0  0  0  0
    3.0420   -0.5750    2.0740 O   0  0  0  0  0  0  0  0  0  0  0  0
    3.3660   -2.5100    0.9220 O   0  0  0  0  0  0  0  0  0  0  0  0
    4.7990   -0.0580    0.6620 O   0  0  0  0  0  0  0  0  0  0  0  0
    5.9370   -0.2260   -0.3430 P   0  0  0  0  0  0  0  0  0  0  0  0
    6.5870   -1.4010    0.6370 O   0  0  0  0  0  0  0  0  0  0  0  0
    6.4060    1.3340   -0.1350 O   0  0  0  0  0  0  0  0  0  0  0  0
    7.1180   -0.4450   -1.3250 O   0  0  0  0  0  0  0  0  0  0  0  0
    8.6660   -0.6880   -0.8760 P   0  0  0  0  0  0  0  0  0  0  0  0
    9.8420    0.4510   -1.1890 O   0  0  0  0  0  0  0  0  0  0  0  0
    9.1760   -2.1780   -0.3330 O   0  0  0  0  0  0  0  0  0  0  0  0
    8.4750   -0.1760    0.5400 O   0  0  0  0  0  0  0  0  0  0  0  0
   -0.2600    1.3920    0.6330 C   0  0  1  0  0  0  0  0  0  0  0  0
    0.8870    2.1060    0.4060 O   0  0  0  0  0  0  0  0  0  0  0  0
   -1.5080    2.0620    0.0510 C   0  0  1  0  0  0  0  0  0  0  0  0
   -0.9770    2.9440   -0.9250 O   0  0  0  0  0  0  0  0  0  0  0  0
   -6.8040    2.1020    0.2570 C   0  0  0  0  0  0  0  0  0  0  0  0
   -7.9040    1.6080    0.5670 O   0  0  0  0  0  0  0  0  0  0  0  0
   -6.6600    3.4080    0.0310 N   0  0  0  0  0  0  0  0  0  0  0  0
  1  2  1  0
  2  3  1  0
  2 38  2  0
  3  4  1  0
  4  5  2  0
  4 14  1  0
  5  6  1  0
  5 36  1  0
  6  7  2  0
  7  8  1  0
  7 14  1  0
  8  9  1  0
  8 13  1  0
  9 10  1  0
 10 11  1  0
 11 12  1  0
 12 13  1  0
 15 14  1  1
 15 16  1  0
 15 34  1  0
 16 17  1  0
 17 18  1  1
 17 32  1  0
 18 19  1  0
 19 20  1  0
 20 21  1  0
 20 22  1  0
 20 23  1  0
 23 24  1  0
 24 25  1  0
 24 26  1  0
 24 27  1  0
 27 28  1  0
 28 29  1  0
 28 30  1  0
 28 31  1  0
 32 33  1  6
 32 34  1  0
 34 35  1  6
 36 37  2  0
 36 38  1  0
M  CHG  1  38   1
M  END
