
     RDKit          3D

 36 38  0  0  0  0  0  0  0  0999 V2000
   -1.5620    8.6620   -0.8580 C   0  0  0  0  0  0  0  0  0  0  0  0
   -1.8430    7.9610    0.3550 O   0  0  0  0  0  0  0  0  0  0  0  0
   -2.0820    6.5980    0.2530 C   0  0  0  0  0  0  0  0  0  0  0  0
   -2.0580    5.9230   -0.9460 C   0  0  0  0  0  0  0  0  0  0  0  0
   -2.2990    4.5670   -1.0340 C   0  0  0  0  0  0  0  0  0  0  0  0
   -2.5760    3.8230    0.0930 C   0  0  0  0  0  0  0  0  0  0  0  0
   -2.8400    2.3800    0.0680 C   0  0  0  0  0  0  0  0  0  0  0  0
   -1.5840    1.6120    0.2390 C   0  0  0  0  0  0  0  0  0  0  0  0
   -0.4050    2.2910    0.4010 C   0  0  0  0  0  0  0  0  0  0  0  0
    0.7880    1.5560    0.5660 C   0  0  0  0  0  0  0  0  0  0  0  0
    0.7900    0.1960    0.5660 C   0  0  0  0  0  0  0  0  0  0  0  0
    1.9710   -0.5640    0.7280 N   0  0  0  0  0  0  0  0  0  0  0  0
    3.2750   -0.1300    0.9040 C   0  0  0  0  0  0  0  0  0  0  0  0
    3.4980    1.1020    0.9300 O   0  0  0  0  0  0  0  0  0  0  0  0
    4.4070   -1.0550    1.0620 C   0  0  0  0  0  0  0  0  0  0  0  0
    5.6760   -0.5370    1.3460 C   0  0  0  0  0  0  0  0  0  0  0  0
    6.7840   -1.3450    1.5050 C   0  0  0  0  0  0  0  0  0  0  0  0
    6.6830   -2.7130    1.3900 C   0  0  0  0  0  0  0  0  0  0  0  0
    7.7750   -3.5570    1.5430 O   0  0  0  0  0  0  0  0  0  0  0  0
    5.4380   -3.2290    1.1110 C   0  0  0  0  0  0  0  0  0  0  0  0
    4.3060   -2.4140    0.9470 C   0  0  0  0  0  0  0  0  0  0  0  0
   -0.4100   -0.4170    0.4000 N   0  0  0  0  0  0  0  0  0  0  0  0
   -1.5740    0.2220    0.2400 C   0  0  0  0  0  0  0  0  0  0  0  0
   -2.8050   -0.4800    0.0650 N   0  0  0  0  0  0  0  0  0  0  0  0
   -2.8120   -1.9100    0.0670 C   0  0  2  0  0  0  0  0  0  0  0  0
   -2.3600   -2.5420    1.3510 C   0  0  0  0  0  0  0  0  0  0  0  0
   -2.4340   -3.9370    1.1700 O   0  0  0  0  0  0  0  0  0  0  0  0
   -1.9740   -2.4810   -1.0210 C   0  0  0  0  0  0  0  0  0  0  0  0
   -1.3380   -1.7900   -1.8350 O   0  0  0  0  0  0  0  0  0  0  0  0
   -1.9060   -3.8600   -1.1220 O   0  0  0  0  0  0  0  0  0  0  0  0
   -1.1400   -4.4980   -2.1160 C   0  0  2  0  0  0  0  0  0  0  0  0
   -1.9880   -5.3180   -3.0710 C   0  0  0  0  0  0  0  0  0  0  0  0
   -0.0330   -5.3450   -1.5140 C   0  0  0  0  0  0  0  0  0  0  0  0
    0.7930   -4.5210   -0.7710 O   0  0  0  0  0  0  0  0  0  0  0  0
   -2.5990    4.5140    1.3030 C   0  0  0  0  0  0  0  0  0  0  0  0
   -2.3600    5.8650    1.3930 C   0  0  0  0  0  0  0  0  0  0  0  0
  1  2  1  0
  2  3  1  0
  3  4  2  0
  3 36  1  0
  4  5  1  0
  5  6  2  0
  6  7  1  0
  6 35  1  0
  7  8  1  0
  8  9  2  0
  8 23  1  0
  9 10  1  0
 10 11  2  0
 11 12  1  0
 11 22  1  0
 12 13  1  0
 13 14  2  0
 13 15  1  0
 15 16  2  0
 15 21  1  0
 16 17  1  0
 17 18  2  0
 18 19  1  0
 18 20  1  0
 20 21  2  0
 22 23  2  0
 23 24  1  0
 24 25  1  0
 25 26  1  1
 25 28  1  0
 26 27  1  0
 28 29  2  0
 28 30  1  0
 30 31  1  0
 31 32  1  1
 31 33  1  0
 33 34  1  0
 35 36  2  0
M  END
