
     RDKit          3D

 22 24  0  0  0  0  0  0  0  0999 V2000
   -0.7720   -1.8310   -1.6130 O   0  0  0  0  0  0  0  0  0  0  0  0
   -0.8370   -1.2910   -0.4830 C   0  0  0  0  0  0  0  0  0  0  0  0
   -2.0850   -1.3890    0.2040 N   0  0  0  0  0  0  0  0  0  0  0  0
   -3.2250   -2.0750   -0.3700 C   0  0  0  0  0  0  0  0  0  0  0  0
   -4.3580   -1.9790    0.6250 C   0  0  0  0  0  0  0  0  0  0  0  0
   -4.6360   -0.5330    0.8300 C   0  0  0  0  0  0  0  0  0  0  0  0
   -5.5370    0.1890    0.0750 C   0  0  0  0  0  0  0  0  0  0  0  0
   -5.5190    1.4860    0.5600 C   0  0  0  0  0  0  0  0  0  0  0  0
   -4.6030    1.4830    1.5900 C   0  0  0  0  0  0  0  0  0  0  0  0
   -4.1110    0.2840    1.7130 O   0  0  0  0  0  0  0  0  0  0  0  0
    0.3150   -0.5840    0.1240 C   0  0  0  0  0  0  0  0  0  0  0  0
    0.2270   -0.0570    1.2460 O   0  0  0  0  0  0  0  0  0  0  0  0
    1.5300   -0.5100   -0.5860 N   0  0  0  0  0  0  0  0  0  0  0  0
    2.7240    0.1180   -0.1680 C   0  0  0  0  0  0  0  0  0  0  0  0
    2.9160    0.7710    1.0110 C   0  0  0  0  0  0  0  0  0  0  0  0
    4.0890    1.3690    1.3820 N   0  0  0  0  0  0  0  0  0  0  0  0
    5.1090    1.3140    0.5510 N   0  0  0  0  0  0  0  0  0  0  0  0
    6.3480    1.8170    0.6860 C   0  0  0  0  0  0  0  0  0  0  0  0
    7.0550    1.5030   -0.4450 C   0  0  0  0  0  0  0  0  0  0  0  0
    6.2050    0.8030   -1.2510 C   0  0  0  0  0  0  0  0  0  0  0  0
    4.9650    0.6760   -0.6300 C   0  0  0  0  0  0  0  0  0  0  0  0
    3.8210    0.0910   -0.9970 N   0  0  0  0  0  0  0  0  0  0  0  0
  1  2  2  0
  2  3  1  0
  2 11  1  0
  3  4  1  0
  4  5  1  0
  5  6  1  0
  6  7  2  0
  6 10  1  0
  7  8  1  0
  8  9  2  0
  9 10  1  0
 11 12  2  0
 11 13  1  0
 13 14  1  0
 14 15  1  0
 14 22  2  0
 15 16  2  0
 16 17  1  0
 17 18  1  0
 17 21  1  0
 18 19  2  0
 19 20  1  0
 20 21  2  0
 21 22  1  0
M  END
