
     RDKit          3D

 22 24  0  0  0  0  0  0  0  0999 V2000
   -0.8370    3.9140    0.1780 C   0  0  0  0  0  0  0  0  0  0  0  0
   -1.5180    2.7490    0.5820 O   0  0  0  0  0  0  0  0  0  0  0  0
   -1.3670    1.5180   -0.0880 C   0  0  0  0  0  0  0  0  0  0  0  0
   -0.5860    1.5620   -1.0570 O   0  0  0  0  0  0  0  0  0  0  0  0
   -2.1040    0.3640    0.3910 C   0  0  0  0  0  0  0  0  0  0  0  0
   -3.3230    0.4180    1.0910 C   0  0  0  0  0  0  0  0  0  0  0  0
   -3.7920   -0.8080    1.2910 N   0  0  0  0  0  0  0  0  0  0  0  0
   -2.9330   -1.6970    0.7530 C   0  0  0  0  0  0  0  0  0  0  0  0
   -1.8680   -0.9720    0.1880 C   0  0  0  0  0  0  0  0  0  0  0  0
   -0.9930   -1.8750   -0.3600 C   0  0  0  0  0  0  0  0  0  0  0  0
    0.3180   -1.6880   -0.9550 C   0  0  0  0  0  0  0  0  0  0  0  0
    0.6110   -2.5220   -1.8990 O   0  0  0  0  0  0  0  0  0  0  0  0
    1.2730   -0.7220   -0.6050 N   0  0  0  0  0  0  0  0  0  0  0  0
    2.5270   -0.6890   -1.3170 C   0  0  0  0  0  0  0  0  0  0  0  0
    3.4210    0.4060   -0.8100 C   0  0  0  0  0  0  0  0  0  0  0  0
    3.2220    1.2880    0.1430 C   0  0  0  0  0  0  0  0  0  0  0  0
    4.4370    2.1300    0.2210 C   0  0  0  0  0  0  0  0  0  0  0  0
    5.3220    1.6210   -0.7860 N   0  0  0  0  0  0  0  0  0  0  0  0
    4.7560    0.6370   -1.3830 C   0  0  0  0  0  0  0  0  0  0  0  0
   -1.5570   -3.1110   -0.1190 N   0  0  0  0  0  0  0  0  0  0  0  0
   -2.6780   -2.9850    0.5270 N   0  0  0  0  0  0  0  0  0  0  0  0
   -3.5720   -4.0630    0.9670 C   0  0  0  0  0  0  0  0  0  0  0  0
  1  2  1  0
  2  3  1  0
  3  4  2  0
  3  5  1  0
  5  6  2  0
  5  9  1  0
  6  7  1  0
  7  8  1  0
  8  9  2  0
  8 21  1  0
  9 10  1  0
 10 11  1  0
 10 20  2  0
 11 12  2  0
 11 13  1  0
 13 14  1  0
 14 15  1  0
 15 16  2  0
 15 19  1  0
 16 17  1  0
 17 18  1  0
 18 19  2  0
 20 21  1  0
 21 22  1  0
M  END
