
     RDKit          3D

 22 24  0  0  0  0  0  0  0  0999 V2000
    6.2600   -1.3380    0.2290 C   0  0  0  0  0  0  0  0  0  0  0  0
    4.8140   -1.0130    0.2020 C   0  0  0  0  0  0  0  0  0  0  0  0
    3.7850   -1.8460   -0.1860 C   0  0  0  0  0  0  0  0  0  0  0  0
    2.6460   -1.1920   -0.0690 O   0  0  0  0  0  0  0  0  0  0  0  0
    2.8210    0.0180    0.3680 C   0  0  0  0  0  0  0  0  0  0  0  0
    1.8280    1.0540    0.6330 C   0  0  0  0  0  0  0  0  0  0  0  0
    2.1680    2.2730    1.0890 N   0  0  0  0  0  0  0  0  0  0  0  0
    1.2450    3.2270    1.3310 C   0  0  0  0  0  0  0  0  0  0  0  0
   -0.0690    2.9610    1.1120 N   0  0  0  0  0  0  0  0  0  0  0  0
   -0.4350    1.7530    0.6570 C   0  0  0  0  0  0  0  0  0  0  0  0
   -1.8690    1.4660    0.4200 C   0  0  0  0  0  0  0  0  0  0  0  0
   -2.6830    2.3750    0.6570 O   0  0  0  0  0  0  0  0  0  0  0  0
   -2.3150    0.2320   -0.0520 N   0  0  0  0  0  0  0  0  0  0  0  0
   -3.6220   -0.2000   -0.3280 C   0  0  0  0  0  0  0  0  0  0  0  0
   -4.7060    0.6190   -0.1480 C   0  0  0  0  0  0  0  0  0  0  0  0
   -6.0260    0.2160   -0.4160 C   0  0  0  0  0  0  0  0  0  0  0  0
   -6.2550   -1.0190   -0.8670 N   0  0  0  0  0  0  0  0  0  0  0  0
   -5.2220   -1.8450   -1.0540 C   0  0  0  0  0  0  0  0  0  0  0  0
   -3.9070   -1.4750   -0.7990 C   0  0  0  0  0  0  0  0  0  0  0  0
   -2.8970   -2.3620   -1.0100 O   0  0  0  0  0  0  0  0  0  0  0  0
    0.5120    0.8400    0.4310 N   0  0  0  0  0  0  0  0  0  0  0  0
    4.1840    0.1690    0.5520 C   0  0  0  0  0  0  0  0  0  0  0  0
  1  2  1  0
  2  3  2  0
  2 22  1  0
  3  4  1  0
  4  5  1  0
  5  6  1  0
  5 22  2  0
  6  7  2  0
  6 21  1  0
  7  8  1  0
  8  9  2  0
  9 10  1  0
 10 11  1  0
 10 21  2  0
 11 12  2  0
 11 13  1  0
 13 14  1  0
 14 15  2  0
 14 19  1  0
 15 16  1  0
 16 17  2  0
 17 18  1  0
 18 19  2  0
 19 20  1  0
M  END
