
     RDKit          3D

 22 24  0  0  0  0  0  0  0  0999 V2000
    3.8700    2.5060    1.0760 C   0  0  0  0  0  0  0  0  0  0  0  0
    3.6220    1.1030    0.6330 C   0  0  0  0  0  0  0  0  0  0  0  0
    2.3080    0.8880    0.0980 N   0  0  0  0  0  0  0  0  0  0  0  0
    1.9780   -0.4310   -0.3540 C   0  0  0  0  0  0  0  0  0  0  0  0
    2.8680   -1.4390   -0.2750 N   0  0  0  0  0  0  0  0  0  0  0  0
    2.6080   -2.6930   -0.6800 C   0  0  0  0  0  0  0  0  0  0  0  0
    3.5680   -3.6750   -0.5700 O   0  0  0  0  0  0  0  0  0  0  0  0
    1.3740   -3.0010   -1.2110 C   0  0  0  0  0  0  0  0  0  0  0  0
    0.4770   -2.0050   -1.2950 N   0  0  0  0  0  0  0  0  0  0  0  0
    0.7450   -0.7410   -0.8850 C   0  0  0  0  0  0  0  0  0  0  0  0
   -0.2400    0.2680   -1.0260 N   0  0  0  0  0  0  0  0  0  0  0  0
   -0.1140    1.3640   -1.9550 C   0  0  0  0  0  0  0  0  0  0  0  0
   -0.8240    2.5720   -1.4170 C   0  0  0  0  0  0  0  0  0  0  0  0
   -2.1940    2.2060   -1.1920 O   0  0  0  0  0  0  0  0  0  0  0  0
   -2.3610    1.1320   -0.2930 C   0  0  0  0  0  0  0  0  0  0  0  0
   -1.3940    0.1950   -0.2240 C   0  0  0  0  0  0  0  0  0  0  0  0
   -1.4910   -0.9480    0.7110 C   0  0  0  0  0  0  0  0  0  0  0  0
   -2.7370   -1.7540    0.5220 C   0  0  0  0  0  0  0  0  0  0  0  0
   -3.9860   -1.2340    1.0630 C   0  0  0  0  0  0  0  0  0  0  0  0
   -4.1700    0.1660    1.2320 N   0  0  0  0  0  0  0  0  0  0  0  0
   -3.6130    1.2120    0.4500 C   0  0  0  0  0  0  0  0  0  0  0  0
   -4.2520    2.3160    0.3860 O   0  0  0  0  0  0  0  0  0  0  0  0
  1  2  1  0
  2  3  1  0
  3  4  1  0
  4  5  2  0
  4 10  1  0
  5  6  1  0
  6  7  1  0
  6  8  2  0
  8  9  1  0
  9 10  2  0
 10 11  1  0
 11 12  1  0
 11 16  1  0
 12 13  1  0
 13 14  1  0
 14 15  1  0
 15 16  2  0
 15 21  1  0
 16 17  1  0
 17 18  1  0
 18 19  1  0
 19 20  1  0
 20 21  1  0
 21 22  2  0
M  END
