
     RDKit          3D

 22 24  0  0  0  0  0  0  0  0999 V2000
   -0.9760    0.6640   -0.3110 O   0  0  0  0  0  0  0  0  0  0  0  0
   -1.2730   -0.5300   -0.1280 C   0  0  0  0  0  0  0  0  0  0  0  0
   -0.1560   -1.5660   -0.1430 C   0  0  0  0  0  0  0  0  0  0  0  0
    1.0930   -0.8990   -0.3830 N   0  0  0  0  0  0  0  0  0  0  0  0
    1.5610   -0.7080   -1.5990 N   0  0  0  0  0  0  0  0  0  0  0  0
    2.7220   -0.0900   -1.8550 C   0  0  0  0  0  0  0  0  0  0  0  0
    3.4570    0.3670   -0.7830 C   0  0  0  0  0  0  0  0  0  0  0  0
    4.6660    1.0140   -1.0040 C   0  0  0  0  0  0  0  0  0  0  0  0
    5.3610    1.4500    0.0910 C   0  0  0  0  0  0  0  0  0  0  0  0
    4.9270    1.2820    1.3880 C   0  0  0  0  0  0  0  0  0  0  0  0
    3.7270    0.6400    1.5900 C   0  0  0  0  0  0  0  0  0  0  0  0
    3.0040    0.1880    0.5010 C   0  0  0  0  0  0  0  0  0  0  0  0
    1.7950   -0.4610    0.6700 C   0  0  0  0  0  0  0  0  0  0  0  0
    1.4080   -0.6090    1.8600 O   0  0  0  0  0  0  0  0  0  0  0  0
   -2.6000   -0.9180    0.0870 N   0  0  0  0  0  0  0  0  0  0  0  0
   -3.7140   -0.0680    0.1250 C   0  0  0  0  0  0  0  0  0  0  0  0
   -3.6370    1.2910   -0.0500 C   0  0  0  0  0  0  0  0  0  0  0  0
   -4.7700    2.0560   -0.0000 N   0  0  0  0  0  0  0  0  0  0  0  0
   -5.9440    1.5030    0.2160 N   0  0  0  0  0  0  0  0  0  0  0  0
   -6.0830    0.1790    0.3950 C   0  0  0  0  0  0  0  0  0  0  0  0
   -4.9720   -0.6430    0.3540 C   0  0  0  0  0  0  0  0  0  0  0  0
   -5.1730   -1.9860    0.5430 O   0  0  0  0  0  0  0  0  0  0  0  0
  1  2  2  0
  2  3  1  0
  2 15  1  0
  3  4  1  0
  4  5  1  0
  4 13  1  0
  5  6  2  0
  6  7  1  0
  7  8  2  0
  7 12  1  0
  8  9  1  0
  9 10  2  0
 10 11  1  0
 11 12  2  0
 12 13  1  0
 13 14  2  0
 15 16  1  0
 16 17  2  0
 16 21  1  0
 17 18  1  0
 18 19  2  0
 19 20  1  0
 20 21  2  0
 21 22  1  0
M  END
