
     RDKit          3D

 22 24  0  0  0  0  0  0  0  0999 V2000
   -4.5910    3.0010    0.1790 C   0  0  0  0  0  0  0  0  0  0  0  0
   -3.7670    1.8750    0.1580 O   0  0  0  0  0  0  0  0  0  0  0  0
   -4.2320    0.5730    0.0350 C   0  0  0  0  0  0  0  0  0  0  0  0
   -5.5920    0.2980   -0.0780 C   0  0  0  0  0  0  0  0  0  0  0  0
   -5.9410   -0.9930   -0.1920 N   0  0  0  0  0  0  0  0  0  0  0  0
   -5.0690   -2.0100   -0.2020 C   0  0  0  0  0  0  0  0  0  0  0  0
   -5.5370   -3.3060   -0.3240 O   0  0  0  0  0  0  0  0  0  0  0  0
   -3.7180   -1.7350   -0.0890 C   0  0  0  0  0  0  0  0  0  0  0  0
   -3.2950   -0.4350    0.0300 C   0  0  0  0  0  0  0  0  0  0  0  0
   -1.8580   -0.1550    0.1490 C   0  0  0  0  0  0  0  0  0  0  0  0
   -1.2680    1.0450    0.2730 N   0  0  0  0  0  0  0  0  0  0  0  0
    0.0660    0.9220    0.3570 N   0  0  0  0  0  0  0  0  0  0  0  0
    0.3410   -0.3780    0.2860 C   0  0  0  0  0  0  0  0  0  0  0  0
    1.6070   -1.0900    0.3250 C   0  0  0  0  0  0  0  0  0  0  0  0
    1.5740   -2.3850    0.2330 O   0  0  0  0  0  0  0  0  0  0  0  0
    2.8840   -0.5390    0.4510 N   0  0  0  0  0  0  0  0  0  0  0  0
    3.1850    0.8590    0.5680 C   0  0  0  0  0  0  0  0  0  0  0  0
    4.7180    1.0350    0.6190 C   0  0  0  0  0  0  0  0  0  0  0  0
    5.2600    0.3850   -0.6280 C   0  0  0  0  0  0  0  0  0  0  0  0
    4.8940   -1.0640   -0.7310 C   0  0  0  0  0  0  0  0  0  0  0  0
    4.0510   -1.4360    0.4710 C   0  0  0  0  0  0  0  0  0  0  0  0
   -0.8520   -1.0390    0.1580 N   0  0  0  0  0  0  0  0  0  0  0  0
  1  2  1  0
  2  3  1  0
  3  4  2  0
  3  9  1  0
  4  5  1  0
  5  6  2  0
  6  7  1  0
  6  8  1  0
  8  9  2  0
  9 10  1  0
 10 11  2  0
 10 22  1  0
 11 12  1  0
 12 13  1  0
 13 14  1  0
 13 22  2  0
 14 15  2  0
 14 16  1  0
 16 17  1  0
 16 21  1  0
 17 18  1  0
 18 19  1  0
 19 20  1  0
 20 21  1  0
M  END
