
     RDKit          3D

 29 31  0  0  0  0  0  0  0  0999 V2000
   -6.2350    0.4690    1.8250 C   0  0  0  0  0  0  0  0  0  0  0  0
   -6.1220   -0.3710    0.5610 C   0  0  2  0  0  0  0  0  0  0  0  0
   -5.0870    0.2580   -0.3340 C   0  0  0  0  0  0  0  0  0  0  0  0
   -3.7790    0.2720    0.4300 C   0  0  1  0  0  0  0  0  0  0  0  0
   -3.3460   -1.0470    0.7970 N   0  0  0  0  0  0  0  0  0  0  0  0
   -2.6830    0.9100   -0.3580 C   0  0  0  0  0  0  0  0  0  0  0  0
   -2.8950    2.0760   -0.7630 O   0  0  0  0  0  0  0  0  0  0  0  0
   -1.4740    0.2250   -0.6250 N   0  0  0  0  0  0  0  0  0  0  0  0
   -0.3940    0.8100   -1.3800 C   0  0  0  0  0  0  0  0  0  0  0  0
    0.1170    2.0380   -0.7070 C   0  0  0  0  0  0  0  0  0  0  0  0
    0.6400    1.7800    0.6830 C   0  0  0  0  0  0  0  0  0  0  0  0
    1.7600    0.8000    0.5780 C   0  0  0  0  0  0  0  0  0  0  0  0
    2.0830   -0.3190    0.5760 N   0  0  0  0  0  0  0  0  0  0  0  0
    3.2720   -0.8530    0.4450 C   0  0  0  0  0  0  0  0  0  0  0  0
    4.3100   -0.0240    0.2860 C   0  0  0  0  0  0  0  0  0  0  0  0
    5.7460   -0.1650    0.1100 C   0  0  0  0  0  0  0  0  0  0  0  0
    6.6710    0.8020   -0.0390 N   0  0  0  0  0  0  0  0  0  0  0  0
    7.8930    0.2580   -0.1740 C   0  0  0  0  0  0  0  0  0  0  0  0
    7.7180   -1.0890   -0.1050 C   0  0  0  0  0  0  0  0  0  0  0  0
    6.3930   -1.3220    0.0690 N   0  0  0  0  0  0  0  0  0  0  0  0
    8.7550   -1.8950   -0.2080 C   0  0  0  0  0  0  0  0  0  0  0  0
   10.0180   -1.3650   -0.3850 O   0  0  0  0  0  0  0  0  0  0  0  0
   10.3250   -0.0070   -0.4700 C   0  0  0  0  0  0  0  0  0  0  0  0
    9.0890    0.7940   -0.3430 C   0  0  0  0  0  0  0  0  0  0  0  0
    3.4570    1.6240    0.3360 S   0  0  0  0  0  0  0  0  0  0  0  0
   -7.4210   -0.4610   -0.0350 N   0  0  0  0  0  0  0  0  0  0  0  0
   -8.1020   -1.6920   -0.2330 C   0  0  0  0  0  0  0  0  0  0  0  0
   -9.3870   -1.7250   -0.8270 N   0  0  0  0  0  0  0  0  0  0  0  0
   -7.5190   -2.7410    0.1390 O   0  0  0  0  0  0  0  0  0  0  0  0
  2  1  1  1
  2  3  1  0
  2 26  1  0
  3  4  1  0
  4  5  1  6
  4  6  1  0
  6  7  2  0
  6  8  1  0
  8  9  1  0
  9 10  1  0
 10 11  1  0
 11 12  1  0
 12 13  2  0
 12 25  1  0
 13 14  1  0
 14 15  2  0
 15 16  1  0
 15 25  1  0
 16 17  2  0
 16 20  1  0
 17 18  1  0
 18 19  1  0
 18 24  2  0
 19 20  1  0
 19 21  2  0
 21 22  1  0
 22 23  1  0
 23 24  1  0
 26 27  1  0
 27 28  1  0
 27 29  2  0
M  END
