
     RDKit          3D

 29 30  0  0  0  0  0  0  0  0999 V2000
    7.4180    3.0330    2.9460 N   0  0  0  0  0  0  0  0  0  0  0  0
    6.6940    1.8300    2.7500 C   0  0  0  0  0  0  0  0  0  0  0  0
    5.5640    1.7040    3.3160 O   0  0  0  0  0  0  0  0  0  0  0  0
    7.2890    0.7720    1.8930 C   0  0  2  0  0  0  0  0  0  0  0  0
    8.5600    1.3330    1.3760 N   0  0  0  0  0  0  0  0  0  0  0  0
    6.4110    0.5240    0.7730 C   0  0  0  0  0  0  0  0  0  0  0  0
    5.4810   -0.3730    0.5810 C   0  0  0  0  0  0  0  0  0  0  0  0
    4.7240   -0.4140   -0.6590 N   0  0  0  0  0  0  0  0  0  0  0  0
    3.3090   -0.2650   -0.6480 C   0  0  0  0  0  0  0  0  0  0  0  0
    2.7610   -0.0980    0.4880 O   0  0  0  0  0  0  0  0  0  0  0  0
    2.5330   -0.3000   -1.8430 N   0  0  0  0  0  0  0  0  0  0  0  0
    1.0970   -0.1530   -1.8250 C   0  0  0  0  0  0  0  0  0  0  0  0
    0.4040   -1.2080   -1.0300 C   0  0  0  0  0  0  0  0  0  0  0  0
   -1.0190   -0.9830   -1.0670 N   0  0  0  0  0  0  0  0  0  0  0  0
   -1.8100   -0.9910   -2.2380 C   0  0  0  0  0  0  0  0  0  0  0  0
   -1.2190   -1.2160   -3.3400 O   0  0  0  0  0  0  0  0  0  0  0  0
   -3.2470   -0.7550   -2.2310 C   0  0  0  0  0  0  0  0  0  0  0  0
   -3.9690   -0.5140   -1.1670 C   0  0  0  0  0  0  0  0  0  0  0  0
   -5.4020   -0.2890   -1.2470 C   0  0  0  0  0  0  0  0  0  0  0  0
   -6.1160   -0.0480   -0.1680 C   0  0  0  0  0  0  0  0  0  0  0  0
   -7.5110    0.1650   -0.2950 N   0  0  0  0  0  0  0  0  0  0  0  0
   -8.1260    1.4350   -0.5910 C   0  0  0  0  0  0  0  0  0  0  0  0
   -9.4720    1.3220    0.0870 C   0  0  0  0  0  0  0  0  0  0  0  0
   -9.7170   -0.1390    0.0550 C   0  0  0  0  0  0  0  0  0  0  0  0
   -8.5640   -0.7780   -0.1680 C   0  0  0  0  0  0  0  0  0  0  0  0
   -8.4390   -2.1980   -0.2590 N   0  0  0  0  0  0  0  0  0  0  0  0
    5.1750   -1.3700    1.6360 C   0  0  0  0  0  0  0  0  0  0  0  0
    6.7560   -1.8890    2.3820 S   0  0  0  0  0  0  0  0  0  0  0  0
    7.6250   -0.3670    2.7980 C   0  0  0  0  0  0  0  0  0  0  0  0
  1  2  1  0
  2  3  2  0
  2  4  1  0
  4  5  1  6
  4  6  1  0
  4 29  1  0
  6  7  2  0
  7  8  1  0
  7 27  1  0
  8  9  1  0
  9 10  2  0
  9 11  1  0
 11 12  1  0
 12 13  1  0
 13 14  1  0
 14 15  1  0
 15 16  2  0
 15 17  1  0
 17 18  2  3
 18 19  1  0
 19 20  2  3
 20 21  1  0
 21 22  1  0
 21 25  1  0
 22 23  1  0
 23 24  1  0
 24 25  2  0
 25 26  1  0
 27 28  1  0
 28 29  1  0
M  END
