
     RDKit          3D

 29 31  0  0  0  0  0  0  0  0999 V2000
   -4.4810    3.4180    1.1100 C   0  0  0  0  0  0  0  0  0  0  0  0
   -4.7320    1.8840    1.2480 C   0  0  0  0  0  0  0  0  0  0  0  0
   -3.4070    1.1820    1.2460 C   0  0  0  0  0  0  0  0  0  0  0  0
   -2.7930    1.2600   -0.1440 C   0  0  1  0  0  0  0  0  0  0  0  0
   -1.4220    0.7900   -0.0840 N   0  0  0  0  0  0  0  0  0  0  0  0
   -1.2050   -0.1170   -0.9160 C   0  0  0  0  0  0  0  0  0  0  0  0
    0.0410   -0.7660   -1.0960 N   0  0  0  0  0  0  0  0  0  0  0  0
    1.2960   -0.2350   -1.3890 C   0  0  0  0  0  0  0  0  0  0  0  0
    2.3430   -0.0750   -0.3600 C   0  0  0  0  0  0  0  0  0  0  0  0
    2.5280    0.9380    0.5370 C   0  0  0  0  0  0  0  0  0  0  0  0
    3.6870    0.9980    1.2700 N   0  0  0  0  0  0  0  0  0  0  0  0
    4.6750    0.0770    1.1400 C   0  0  0  0  0  0  0  0  0  0  0  0
    5.9030    0.1280    1.9230 C   0  0  1  0  0  0  0  0  0  0  0  0
    5.8550   -0.9810    2.8310 O   0  0  0  0  0  0  0  0  0  0  0  0
    7.1670   -0.1660    1.1250 C   0  0  0  0  0  0  0  0  0  0  0  0
    7.5180    0.7920    0.1280 N   0  0  0  0  0  0  0  0  0  0  0  0
    9.0300    0.2130   -0.5900 S   0  0  0  0  0  0  0  0  0  0  0  0
    9.4680   -1.1030   -0.0020 O   0  0  0  0  0  0  0  0  0  0  0  0
    4.4770   -0.9090    0.2650 N   0  0  0  0  0  0  0  0  0  0  0  0
    3.3810   -1.0360   -0.4830 C   0  0  0  0  0  0  0  0  0  0  0  0
    3.1500   -2.1330   -1.3400 N   0  0  0  0  0  0  0  0  0  0  0  0
   -2.3930   -0.4430   -1.6510 N   0  0  0  0  0  0  0  0  0  0  0  0
   -3.5270    0.3520   -1.0860 C   0  0  1  0  0  0  0  0  0  0  0  0
   -4.4950   -0.5960   -0.5630 C   0  0  0  0  0  0  0  0  0  0  0  0
   -5.7790   -0.5130   -0.8580 C   0  0  0  0  0  0  0  0  0  0  0  0
   -6.8330   -1.4670   -0.3520 C   0  0  0  0  0  0  0  0  0  0  0  0
   -6.2910   -2.5640    0.3130 O   0  0  0  0  0  0  0  0  0  0  0  0
   -4.9740   -2.6650    0.6260 C   0  0  0  0  0  0  0  0  0  0  0  0
   -4.0840   -1.7470    0.2280 C   0  0  0  0  0  0  0  0  0  0  0  0
  1  2  1  0
  2  3  1  0
  4  3  1  1
  4  5  1  0
  4 23  1  0
  5  6  2  0
  6  7  1  0
  6 22  1  0
  7  8  1  0
  8  9  1  0
  9 10  2  0
  9 20  1  0
 10 11  1  0
 11 12  2  0
 12 13  1  0
 12 19  1  0
 13 14  1  1
 13 15  1  0
 15 16  1  0
 16 17  1  0
 17 18  2  0
 19 20  2  0
 20 21  1  0
 22 23  1  0
 23 24  1  1
 24 25  2  0
 24 29  1  0
 25 26  1  0
 26 27  1  0
 27 28  1  0
 28 29  2  0
M  END
