
     RDKit          3D

 29 32  0  0  0  0  0  0  0  0999 V2000
    6.5440    2.1890   -0.3120 O   0  0  0  0  0  0  0  0  0  0  0  0
    5.4490    2.0610   -0.9450 C   0  0  0  0  0  0  0  0  0  0  0  0
    5.1680    2.7850   -2.0820 O   0  0  0  0  0  0  0  0  0  0  0  0
    4.4910    1.1020   -0.4100 C   0  0  0  0  0  0  0  0  0  0  0  0
    4.7380    0.3620    0.7220 C   0  0  0  0  0  0  0  0  0  0  0  0
    3.8340   -0.5450    1.2290 C   0  0  0  0  0  0  0  0  0  0  0  0
    2.6410   -0.6890    0.5430 C   0  0  0  0  0  0  0  0  0  0  0  0
    2.3520    0.0300   -0.5930 C   0  0  0  0  0  0  0  0  0  0  0  0
    3.2810    0.9320   -1.0760 C   0  0  0  0  0  0  0  0  0  0  0  0
    1.0240   -0.3300   -1.1000 C   0  0  0  0  0  0  0  0  0  0  0  0
    0.4370    0.1240   -2.1120 O   0  0  0  0  0  0  0  0  0  0  0  0
    0.5190   -1.2980   -0.2220 N   0  0  0  0  0  0  0  0  0  0  0  0
   -0.7750   -2.0000   -0.2670 C   0  0  2  0  0  0  0  0  0  0  0  0
   -1.5530   -1.7010    1.0120 C   0  0  0  0  0  0  0  0  0  0  0  0
   -1.8240   -0.2590    1.1830 C   0  0  0  0  0  0  0  0  0  0  0  0
   -1.0110    0.5010    2.0300 C   0  0  0  0  0  0  0  0  0  0  0  0
   -1.2590    1.8510    2.1520 C   0  0  0  0  0  0  0  0  0  0  0  0
   -2.2950    2.4190    1.4440 C   0  0  0  0  0  0  0  0  0  0  0  0
   -3.1050    1.6770    0.6050 C   0  0  0  0  0  0  0  0  0  0  0  0
   -4.1490    2.2640   -0.0940 C   0  0  0  0  0  0  0  0  0  0  0  0
   -4.9690    1.5320   -0.9270 C   0  0  0  0  0  0  0  0  0  0  0  0
   -4.7490    0.1820   -1.0710 C   0  0  0  0  0  0  0  0  0  0  0  0
   -3.6970   -0.4010   -0.3640 C   0  0  0  0  0  0  0  0  0  0  0  0
   -2.8700    0.3220    0.4710 C   0  0  0  0  0  0  0  0  0  0  0  0
   -0.4580   -3.4460   -0.3460 C   0  0  0  0  0  0  0  0  0  0  0  0
    0.7100   -3.8990   -0.3660 O   0  0  0  0  0  0  0  0  0  0  0  0
   -1.5110   -4.3350   -0.3980 O   0  0  0  0  0  0  0  0  0  0  0  0
    1.4770   -1.5420    0.7920 C   0  0  0  0  0  0  0  0  0  0  0  0
    1.4000   -2.3440    1.7680 O   0  0  0  0  0  0  0  0  0  0  0  0
  1  2  2  0
  2  3  1  0
  2  4  1  0
  4  5  2  0
  4  9  1  0
  5  6  1  0
  6  7  2  0
  7  8  1  0
  7 28  1  0
  8  9  2  0
  8 10  1  0
 10 11  2  0
 10 12  1  0
 12 13  1  0
 12 28  1  0
 13 14  1  1
 13 25  1  0
 14 15  1  0
 15 16  2  0
 15 24  1  0
 16 17  1  0
 17 18  2  0
 18 19  1  0
 19 20  2  0
 19 24  1  0
 20 21  1  0
 21 22  2  0
 22 23  1  0
 23 24  2  0
 25 26  2  0
 25 27  1  0
 28 29  2  0
M  END
