
     RDKit          3D

 31 34  0  0  0  0  0  0  0  0999 V2000
   -3.5860    3.1510    0.6250 C   0  0  0  0  0  0  0  0  0  0  0  0
   -4.0640    2.7760   -0.7170 C   0  0  0  0  0  0  0  0  0  0  0  0
   -4.1670    1.5150   -1.1390 C   0  0  0  0  0  0  0  0  0  0  0  0
   -3.8160    0.3950   -0.3090 C   0  0  0  0  0  0  0  0  0  0  0  0
   -3.8740   -0.8810   -0.5730 C   0  0  0  0  0  0  0  0  0  0  0  0
   -4.3390   -1.3150   -1.7860 O   0  0  0  0  0  0  0  0  0  0  0  0
   -5.5980   -1.2390   -2.3420 C   0  0  0  0  0  0  0  0  0  0  0  0
   -3.4320   -1.9060    0.3980 C   0  0  0  0  0  0  0  0  0  0  0  0
   -2.5580   -1.6790    1.4120 C   0  0  0  0  0  0  0  0  0  0  0  0
   -1.6100   -0.6050    1.6400 C   0  0  0  0  0  0  0  0  0  0  0  0
   -0.9710   -0.3240    2.8050 N   0  0  0  0  0  0  0  0  0  0  0  0
   -0.2090    0.7230    2.5690 N   0  0  0  0  0  0  0  0  0  0  0  0
   -0.3490    1.1070    1.2920 C   0  0  0  0  0  0  0  0  0  0  0  0
    0.2780    2.2140    0.5320 C   0  0  0  0  0  0  0  0  0  0  0  0
    1.5610    1.6840   -0.0590 C   0  0  0  0  0  0  0  0  0  0  0  0
    1.7080    1.0930   -1.2620 N   0  0  0  0  0  0  0  0  0  0  0  0
    2.9570    0.7750   -1.4120 O   0  0  0  0  0  0  0  0  0  0  0  0
    3.6540    1.1230   -0.3680 C   0  0  0  0  0  0  0  0  0  0  0  0
    5.1290    0.9260   -0.1620 C   0  0  1  0  0  0  0  0  0  0  0  0
    5.5130   -0.5280   -0.2990 C   0  0  0  0  0  0  0  0  0  0  0  0
    7.0240   -0.5690   -0.4200 C   0  0  0  0  0  0  0  0  0  0  0  0
    7.6140    0.6760    0.0330 N   0  0  0  0  0  0  0  0  0  0  0  0
    7.3040    1.7490   -0.9110 C   0  0  0  0  0  0  0  0  0  0  0  0
    5.8570    1.6730   -1.2740 C   0  0  0  0  0  0  0  0  0  0  0  0
    2.7890    1.6950    0.4900 N   0  0  0  0  0  0  0  0  0  0  0  0
   -1.2050    0.2690    0.7860 O   0  0  0  0  0  0  0  0  0  0  0  0
   -2.5640   -2.8520    2.1930 C   0  0  0  0  0  0  0  0  0  0  0  0
   -1.7400   -3.0100    3.4150 C   0  0  0  0  0  0  0  0  0  0  0  0
   -3.4120   -3.7150    1.6260 N   0  0  0  0  0  0  0  0  0  0  0  0
   -3.9460   -3.1530    0.5320 N   0  0  0  0  0  0  0  0  0  0  0  0
   -4.8890   -3.8050   -0.3320 C   0  0  0  0  0  0  0  0  0  0  0  0
  1  2  1  0
  2  3  2  3
  3  4  1  0
  4  5  2  3
  5  6  1  0
  5  8  1  0
  6  7  1  0
  8  9  2  0
  8 30  1  0
  9 10  1  0
  9 27  1  0
 10 11  2  0
 10 26  1  0
 11 12  1  0
 12 13  2  0
 13 14  1  0
 13 26  1  0
 14 15  1  0
 15 16  2  0
 15 25  1  0
 16 17  1  0
 17 18  1  0
 19 18  1  6
 18 25  2  0
 19 20  1  0
 19 24  1  0
 20 21  1  0
 21 22  1  0
 22 23  1  0
 23 24  1  0
 27 28  1  0
 27 29  2  0
 29 30  1  0
 30 31  1  0
M  END
