
     RDKit          3D

 29 30  0  0  0  0  0  0  0  0999 V2000
    1.0800   -3.0150   -0.6630 C   0  0  0  0  0  0  0  0  0  0  0  0
    1.7270   -1.6890   -0.3330 C   0  0  0  0  0  0  0  0  0  0  0  0
    2.9600   -1.7770    0.0590 C   0  0  0  0  0  0  0  0  0  0  0  0
    3.7920   -2.8890    0.2290 C   0  0  0  0  0  0  0  0  0  0  0  0
    3.4220   -4.2350    0.0120 N   0  0  0  0  0  0  0  0  0  0  0  0
    5.0060   -2.7310    0.6100 O   0  0  0  0  0  0  0  0  0  0  0  0
    1.0230   -0.4850   -0.4740 N   0  0  0  0  0  0  0  0  0  0  0  0
    1.4310    0.5360   -1.2780 N   0  0  0  0  0  0  0  0  0  0  0  0
    2.6510    1.1940   -1.1590 C   0  0  0  0  0  0  0  0  0  0  0  0
    2.6420    2.2290   -0.0420 C   0  0  0  0  0  0  0  0  0  0  0  0
    3.8640    2.9550    0.0180 N   0  0  0  0  0  0  0  0  0  0  0  0
    5.1560    2.3230    0.1950 C   0  0  0  0  0  0  0  0  0  0  0  0
    6.3100    3.1700    0.2690 N   0  0  0  0  0  0  0  0  0  0  0  0
    5.3030    1.0980    0.2880 O   0  0  0  0  0  0  0  0  0  0  0  0
   -0.2390   -0.2370    0.2460 C   0  0  0  0  0  0  0  0  0  0  0  0
   -0.8660    0.7740   -0.3190 C   0  0  0  0  0  0  0  0  0  0  0  0
   -2.1210    1.5670   -0.1690 C   0  0  1  0  0  0  0  0  0  0  0  0
   -2.1040    2.6570   -1.0830 N   0  0  0  0  0  0  0  0  0  0  0  0
   -3.5930    3.5790   -1.0490 S   0  0  0  0  0  0  0  0  0  0  0  0
   -4.6170    3.1430    0.3370 C   0  0  0  0  0  0  0  0  0  0  0  0
   -3.3400    5.0650   -1.0440 O   0  0  0  0  0  0  0  0  0  0  0  0
   -3.1560    0.5960   -0.5480 N   0  0  0  0  0  0  0  0  0  0  0  0
   -3.5220   -0.6680   -0.0930 C   0  0  0  0  0  0  0  0  0  0  0  0
   -4.7890   -0.9970   -0.4180 C   0  0  0  0  0  0  0  0  0  0  0  0
   -5.0390   -2.3310    0.1130 C   0  0  0  0  0  0  0  0  0  0  0  0
   -3.7860   -2.7020    0.7550 C   0  0  0  0  0  0  0  0  0  0  0  0
   -2.8650   -1.7110    0.6400 C   0  0  0  0  0  0  0  0  0  0  0  0
   -1.6130   -2.0660    1.2910 C   0  0  0  0  0  0  0  0  0  0  0  0
   -0.5190   -1.1000    1.3650 C   0  0  0  0  0  0  0  0  0  0  0  0
  1  2  1  0
  2  3  2  3
  2  7  1  0
  3  4  1  0
  4  5  1  0
  4  6  2  0
  7  8  1  0
  7 15  1  0
  8  9  1  0
  9 10  1  0
 10 11  1  0
 11 12  1  0
 12 13  1  0
 12 14  2  0
 15 16  2  0
 15 29  1  0
 16 17  1  0
 17 18  1  6
 17 22  1  0
 18 19  1  0
 19 20  1  1
 19 21  2  0
 22 23  1  0
 23 24  2  0
 23 27  1  0
 24 25  1  0
 25 26  1  0
 26 27  2  0
 27 28  1  0
 28 29  1  0
M  END
