
     RDKit          3D

 29 32  0  0  0  0  0  0  0  0999 V2000
   -4.4900    5.9400    0.4670 C   0  0  0  0  0  0  0  0  0  0  0  0
   -3.4670    4.9740    0.3400 O   0  0  0  0  0  0  0  0  0  0  0  0
   -3.7890    3.6030    0.3270 C   0  0  0  0  0  0  0  0  0  0  0  0
   -4.9910    3.3270    0.4320 O   0  0  0  0  0  0  0  0  0  0  0  0
   -2.7200    2.6590    0.1960 C   0  0  0  0  0  0  0  0  0  0  0  0
   -0.9420    3.1280    0.0430 S   0  0  0  0  0  0  0  0  0  0  0  0
   -0.3290    1.5340   -0.0660 C   0  0  0  0  0  0  0  0  0  0  0  0
    1.1140    1.1920   -0.2130 C   0  0  0  0  0  0  0  0  0  0  0  0
    1.9400    2.1180   -0.2620 O   0  0  0  0  0  0  0  0  0  0  0  0
    1.5300   -0.1380   -0.2940 N   0  0  0  0  0  0  0  0  0  0  0  0
    2.8660   -0.6170   -0.4360 C   0  0  0  0  0  0  0  0  0  0  0  0
    3.9840    0.1480   -0.5180 C   0  0  0  0  0  0  0  0  0  0  0  0
    5.2320   -0.4710   -0.6550 C   0  0  0  0  0  0  0  0  0  0  0  0
    6.3620    0.3150   -0.7370 O   0  0  0  0  0  0  0  0  0  0  0  0
    6.2220    1.7180   -0.6800 C   0  0  0  0  0  0  0  0  0  0  0  0
    5.3610   -1.8380   -0.7110 C   0  0  0  0  0  0  0  0  0  0  0  0
    4.2220   -2.5950   -0.6270 C   0  0  0  0  0  0  0  0  0  0  0  0
    2.9910   -2.0100   -0.4920 C   0  0  0  0  0  0  0  0  0  0  0  0
    4.6050   -3.9390   -0.7050 O   0  0  0  0  0  0  0  0  0  0  0  0
    5.8910   -3.9650   -1.2960 C   0  0  0  0  0  0  0  0  0  0  0  0
    6.4310   -2.7300   -0.8400 O   0  0  0  0  0  0  0  0  0  0  0  0
   -1.3960    0.7580    0.0110 C   0  0  0  0  0  0  0  0  0  0  0  0
   -2.6340    1.2920    0.1450 C   0  0  0  0  0  0  0  0  0  0  0  0
   -3.8750    0.5110    0.2370 N   0  0  0  0  0  0  0  0  0  0  0  0
   -3.8710   -0.8980    0.1920 C   0  0  0  0  0  0  0  0  0  0  0  0
   -3.7680   -1.6070   -0.9170 C   0  0  0  0  0  0  0  0  0  0  0  0
   -3.7950   -3.0560   -0.6310 C   0  0  0  0  0  0  0  0  0  0  0  0
   -4.2890   -3.1520    0.7780 C   0  0  0  0  0  0  0  0  0  0  0  0
   -3.9820   -1.8020    1.3690 C   0  0  0  0  0  0  0  0  0  0  0  0
  1  2  1  0
  2  3  1  0
  3  4  2  0
  3  5  1  0
  5  6  1  0
  5 23  2  0
  6  7  1  0
  7  8  1  0
  7 22  2  0
  8  9  2  0
  8 10  1  0
 10 11  1  0
 11 12  2  0
 11 18  1  0
 12 13  1  0
 13 14  1  0
 13 16  2  0
 14 15  1  0
 16 17  1  0
 16 21  1  0
 17 18  2  0
 17 19  1  0
 19 20  1  0
 20 21  1  0
 22 23  1  0
 23 24  1  0
 24 25  1  0
 25 26  2  0
 25 29  1  0
 26 27  1  0
 27 28  1  0
 28 29  1  0
M  END
