
     RDKit          3D

 29 32  0  0  0  0  0  0  0  0999 V2000
    7.3190    2.1750   -0.1050 C   0  0  0  0  0  0  0  0  0  0  0  0
    6.0300    1.4460   -0.1970 C   0  0  0  0  0  0  0  0  0  0  0  0
    5.2070    1.6690    0.7920 C   0  0  0  0  0  0  0  0  0  0  0  0
    3.8820    1.1160    0.9960 C   0  0  0  0  0  0  0  0  0  0  0  0
    3.3640    0.0110    0.5330 C   0  0  0  0  0  0  0  0  0  0  0  0
    3.8900   -1.0360   -0.3230 C   0  0  0  0  0  0  0  0  0  0  0  0
    4.8510   -0.9670   -1.1860 N   0  0  0  0  0  0  0  0  0  0  0  0
    5.8650    0.4170   -1.6350 S   0  0  0  0  0  0  0  0  0  0  0  0
    3.0750   -2.2350    0.0070 C   0  0  0  0  0  0  0  0  0  0  0  0
    1.8290   -1.7000    0.2860 O   0  0  0  0  0  0  0  0  0  0  0  0
    1.9520   -0.4540    0.8290 C   0  0  2  0  0  0  0  0  0  0  0  0
    1.0720    0.5970    0.2170 C   0  0  0  0  0  0  0  0  0  0  0  0
   -0.3200    0.2980    0.3580 N   0  0  0  0  0  0  0  0  0  0  0  0
   -0.9380   -0.8020   -0.2220 C   0  0  0  0  0  0  0  0  0  0  0  0
   -0.2710   -1.6350   -0.9300 O   0  0  0  0  0  0  0  0  0  0  0  0
   -2.3780   -1.1310   -0.0900 C   0  0  0  0  0  0  0  0  0  0  0  0
   -2.7530   -2.4480    0.1440 C   0  0  0  0  0  0  0  0  0  0  0  0
   -4.0710   -2.8210    0.3860 C   0  0  0  0  0  0  0  0  0  0  0  0
   -5.0500   -1.8590    0.3950 C   0  0  0  0  0  0  0  0  0  0  0  0
   -4.6910   -0.5500    0.1620 C   0  0  0  0  0  0  0  0  0  0  0  0
   -3.3580   -0.1730   -0.0840 C   0  0  0  0  0  0  0  0  0  0  0  0
   -3.0360    1.1960   -0.4420 C   0  0  0  0  0  0  0  0  0  0  0  0
   -3.9080    2.1710   -0.3400 C   0  0  0  0  0  0  0  0  0  0  0  0
   -3.4890    3.5200   -0.7260 C   0  0  0  0  0  0  0  0  0  0  0  0
   -2.3320    3.7440   -1.1400 O   0  0  0  0  0  0  0  0  0  0  0  0
   -4.3800    4.5510   -0.6290 O   0  0  0  0  0  0  0  0  0  0  0  0
   -6.2680   -2.4870    0.6600 O   0  0  0  0  0  0  0  0  0  0  0  0
   -6.1030   -3.8870    0.5860 C   0  0  0  0  0  0  0  0  0  0  0  0
   -4.7000   -4.0300    0.6430 O   0  0  0  0  0  0  0  0  0  0  0  0
  1  2  1  0
  2  3  2  0
  2  8  1  0
  3  4  1  0
  4  5  2  0
  5  6  1  0
  5 11  1  0
  6  7  2  0
  6  9  1  0
  7  8  1  0
  9 10  1  0
 10 11  1  0
 11 12  1  6
 12 13  1  0
 13 14  1  0
 14 15  2  0
 14 16  1  0
 16 17  2  0
 16 21  1  0
 17 18  1  0
 18 19  2  0
 18 29  1  0
 19 20  1  0
 19 27  1  0
 20 21  2  0
 21 22  1  0
 22 23  2  3
 23 24  1  0
 24 25  2  0
 24 26  1  0
 27 28  1  0
 28 29  1  0
M  END
