
     RDKit          3D

 30 33  0  0  0  0  0  0  0  0999 V2000
   -0.5290    2.1940   -2.8710 O   0  0  0  0  0  0  0  0  0  0  0  0
    0.1840    2.4160   -1.8770 C   0  0  0  0  0  0  0  0  0  0  0  0
    1.4440    2.9680   -2.1840 O   0  0  0  0  0  0  0  0  0  0  0  0
   -0.2490    2.1290   -0.5230 C   0  0  0  0  0  0  0  0  0  0  0  0
   -0.3820    0.7340   -0.0780 C   0  0  1  0  0  0  0  0  0  0  0  0
   -1.3440   -0.1840   -0.7200 C   0  0  0  0  0  0  0  0  0  0  0  0
   -2.7440    0.2700   -0.5460 C   0  0  0  0  0  0  0  0  0  0  0  0
   -3.3590    0.9340   -1.5870 C   0  0  0  0  0  0  0  0  0  0  0  0
   -4.6470    1.3980   -1.4180 C   0  0  0  0  0  0  0  0  0  0  0  0
   -5.2910    1.1880   -0.2180 C   0  0  0  0  0  0  0  0  0  0  0  0
   -4.6760    0.5240    0.8180 C   0  0  0  0  0  0  0  0  0  0  0  0
   -5.3740    0.3270    1.9910 C   0  0  0  0  0  0  0  0  0  0  0  0
   -4.7850   -0.3590    3.0580 C   0  0  0  0  0  0  0  0  0  0  0  0
   -3.5180   -0.8130    2.8810 C   0  0  0  0  0  0  0  0  0  0  0  0
   -2.7720   -0.6410    1.7170 C   0  0  0  0  0  0  0  0  0  0  0  0
   -3.3670    0.0370    0.6850 C   0  0  0  0  0  0  0  0  0  0  0  0
    0.9640    0.1250   -0.0620 N   0  0  0  0  0  0  0  0  0  0  0  0
    1.7600   -0.2280   -1.1810 C   0  0  0  0  0  0  0  0  0  0  0  0
    1.4580   -0.0970   -2.3930 O   0  0  0  0  0  0  0  0  0  0  0  0
    3.0330   -0.7930   -0.6820 C   0  0  0  0  0  0  0  0  0  0  0  0
    4.1360   -1.2820   -1.3450 C   0  0  0  0  0  0  0  0  0  0  0  0
    5.2340   -1.7690   -0.6460 C   0  0  0  0  0  0  0  0  0  0  0  0
    5.2500   -1.7750    0.7310 C   0  0  0  0  0  0  0  0  0  0  0  0
    6.4020   -2.2840    1.4710 C   0  0  0  0  0  0  0  0  0  0  0  0
    7.3800   -2.7150    0.8210 O   0  0  0  0  0  0  0  0  0  0  0  0
    6.4550   -2.3080    2.8530 O   0  0  0  0  0  0  0  0  0  0  0  0
    4.1300   -1.2780    1.3800 C   0  0  0  0  0  0  0  0  0  0  0  0
    3.0290   -0.7910    0.6920 C   0  0  0  0  0  0  0  0  0  0  0  0
    1.7490   -0.2230    1.0870 C   0  0  0  0  0  0  0  0  0  0  0  0
    1.3920   -0.0640    2.2900 O   0  0  0  0  0  0  0  0  0  0  0  0
  1  2  2  0
  2  3  1  0
  2  4  1  0
  5  4  1  6
  5  6  1  0
  5 17  1  0
  6  7  1  0
  7  8  2  0
  7 16  1  0
  8  9  1  0
  9 10  2  0
 10 11  1  0
 11 12  2  0
 11 16  1  0
 12 13  1  0
 13 14  2  0
 14 15  1  0
 15 16  2  0
 17 18  1  0
 17 29  1  0
 18 19  2  0
 18 20  1  0
 20 21  2  0
 20 28  1  0
 21 22  1  0
 22 23  2  0
 23 24  1  0
 23 27  1  0
 24 25  2  0
 24 26  1  0
 27 28  2  0
 28 29  1  0
 29 30  2  0
M  END
