
     RDKit          3D

 29 32  0  0  0  0  0  0  0  0999 V2000
    2.2650    2.0890   -0.6950 O   0  0  0  0  0  0  0  0  0  0  0  0
    1.8590    1.7500    0.4370 C   0  0  0  0  0  0  0  0  0  0  0  0
    0.6320    2.3680    0.9950 C   0  0  0  0  0  0  0  0  0  0  0  0
    0.0210    3.2580    0.1700 O   0  0  0  0  0  0  0  0  0  0  0  0
   -0.4480    2.7980   -1.0290 C   0  0  0  0  0  0  0  0  0  0  0  0
   -1.4610    1.7180   -0.8290 C   0  0  0  0  0  0  0  0  0  0  0  0
   -2.8310    1.8620   -0.6880 C   0  0  0  0  0  0  0  0  0  0  0  0
   -3.3650    0.6070   -0.5280 C   0  0  0  0  0  0  0  0  0  0  0  0
   -2.2830   -0.2540   -0.5800 C   0  0  0  0  0  0  0  0  0  0  0  0
   -1.2010    0.4440   -0.7570 O   0  0  0  0  0  0  0  0  0  0  0  0
   -2.5110   -1.6050   -0.4480 C   0  0  0  0  0  0  0  0  0  0  0  0
   -1.5360   -2.4150   -0.4920 O   0  0  0  0  0  0  0  0  0  0  0  0
   -3.7800   -2.0320   -0.2720 N   0  0  0  0  0  0  0  0  0  0  0  0
   -4.8500   -1.2270   -0.2170 C   0  0  0  0  0  0  0  0  0  0  0  0
   -6.1380   -1.7210   -0.0330 C   0  0  0  0  0  0  0  0  0  0  0  0
   -7.2350   -0.8950    0.0230 C   0  0  0  0  0  0  0  0  0  0  0  0
   -7.0220    0.4600   -0.1080 C   0  0  0  0  0  0  0  0  0  0  0  0
   -5.7430    0.9670   -0.2920 C   0  0  0  0  0  0  0  0  0  0  0  0
   -4.6440    0.1300   -0.3480 C   0  0  0  0  0  0  0  0  0  0  0  0
    2.5640    0.7830    1.1850 N   0  0  0  0  0  0  0  0  0  0  0  0
    3.7440    0.1080    0.8000 C   0  0  0  0  0  0  0  0  0  0  0  0
    4.5140    0.4040   -0.2970 C   0  0  0  0  0  0  0  0  0  0  0  0
    5.6670   -0.3360   -0.6100 C   0  0  0  0  0  0  0  0  0  0  0  0
    6.0890   -1.3930    0.1600 C   0  0  0  0  0  0  0  0  0  0  0  0
    7.5310   -2.3100   -0.2400 S   0  0  2  0  0  0  0  0  0  0  0  0
    8.0520   -3.0620    0.9300 O   0  0  0  0  0  0  0  0  0  0  0  0
    8.5460   -1.3300   -0.7510 O   0  0  0  0  0  0  0  0  0  0  0  0
    5.3230   -1.6970    1.2620 C   0  0  0  0  0  0  0  0  0  0  0  0
    4.1960   -0.9740    1.5680 C   0  0  0  0  0  0  0  0  0  0  0  0
  1  2  2  0
  2  3  1  0
  2 20  1  0
  3  4  1  0
  4  5  1  0
  5  6  1  0
  6  7  2  0
  6 10  1  0
  7  8  1  0
  8  9  2  0
  8 19  1  0
  9 10  1  0
  9 11  1  0
 11 12  2  0
 11 13  1  0
 13 14  1  0
 14 15  2  0
 14 19  1  0
 15 16  1  0
 16 17  2  0
 17 18  1  0
 18 19  2  0
 20 21  1  0
 21 22  2  0
 21 29  1  0
 22 23  1  0
 23 24  2  0
 25 24  1  1
 24 28  1  0
 25 26  2  0
 25 27  2  0
 28 29  2  0
M  END
