
     RDKit          3D

 30 34  0  0  0  0  0  0  0  0999 V2000
   -5.7110   -1.5760   -0.5890 C   0  0  0  0  0  0  0  0  0  0  0  0
   -4.8390   -1.0280    0.2110 C   0  0  0  0  0  0  0  0  0  0  0  0
   -4.4720    0.4340    0.3120 C   0  0  0  0  0  0  0  0  0  0  0  0
   -3.0270    0.3020    0.4380 N   0  0  0  0  0  0  0  0  0  0  0  0
   -2.0540    1.1160   -0.2320 C   0  0  0  0  0  0  0  0  0  0  0  0
   -0.7220    0.9100   -0.0640 C   0  0  0  0  0  0  0  0  0  0  0  0
    0.2670    1.6790   -0.6970 C   0  0  0  0  0  0  0  0  0  0  0  0
    1.6290    1.4110   -0.4920 N   0  0  0  0  0  0  0  0  0  0  0  0
    2.4700    0.9700   -1.6030 C   0  0  0  0  0  0  0  0  0  0  0  0
    2.8220   -0.4840   -1.2560 C   0  0  0  0  0  0  0  0  0  0  0  0
    3.3280   -0.5930    0.1540 C   0  0  1  0  0  0  0  0  0  0  0  0
    4.5230   -1.4680    0.2140 C   0  0  0  0  0  0  0  0  0  0  0  0
    4.6780   -2.5670    0.9600 N   0  0  0  0  0  0  0  0  0  0  0  0
    5.8890   -3.0820    0.7440 C   0  0  0  0  0  0  0  0  0  0  0  0
    6.5320   -4.2860    1.3250 C   0  0  0  0  0  0  0  0  0  0  0  0
    6.4760   -2.2740   -0.1540 N   0  0  0  0  0  0  0  0  0  0  0  0
    5.6400   -1.3180   -0.4530 O   0  0  0  0  0  0  0  0  0  0  0  0
    3.6000    0.7810    0.7040 C   0  0  0  0  0  0  0  0  0  0  0  0
    2.2940    1.5390    0.7880 C   0  0  0  0  0  0  0  0  0  0  0  0
   -0.1710    2.6880   -1.5260 C   0  0  0  0  0  0  0  0  0  0  0  0
    0.7740    3.4760   -2.1680 C   0  0  0  0  0  0  0  0  0  0  0  0
    0.3250    4.4860   -2.9940 C   0  0  0  0  0  0  0  0  0  0  0  0
   -1.0120    4.7490   -3.2110 C   0  0  0  0  0  0  0  0  0  0  0  0
   -1.9430    3.9620   -2.5680 C   0  0  0  0  0  0  0  0  0  0  0  0
   -1.5200    2.9450   -1.7370 C   0  0  0  0  0  0  0  0  0  0  0  0
   -2.4410    2.1340   -1.0700 C   0  0  0  0  0  0  0  0  0  0  0  0
   -2.7600   -0.7760    1.3410 C   0  0  0  0  0  0  0  0  0  0  0  0
   -3.9850   -1.6510    1.2080 C   0  0  0  0  0  0  0  0  0  0  0  0
   -4.2290   -2.7580    1.8820 C   0  0  0  0  0  0  0  0  0  0  0  0
   -5.4330   -3.6000    1.7600 C   0  0  0  0  0  0  0  0  0  0  0  0
  1  2  2  0
  2  3  1  0
  2 28  1  0
  3  4  1  0
  4  5  1  0
  4 27  1  0
  5  6  2  0
  5 26  1  0
  6  7  1  0
  7  8  1  0
  7 20  2  0
  8  9  1  0
  8 19  1  0
  9 10  1  0
 10 11  1  0
 11 12  1  6
 11 18  1  0
 12 13  2  0
 12 17  1  0
 13 14  1  0
 14 15  1  0
 14 16  2  0
 16 17  1  0
 18 19  1  0
 20 21  1  0
 20 25  1  0
 21 22  2  0
 22 23  1  0
 23 24  2  0
 24 25  1  0
 25 26  2  0
 27 28  1  0
 28 29  2  3
 29 30  1  0
M  END
