
     RDKit          3D

 30 34  0  0  0  0  0  0  0  0999 V2000
    5.0960   -3.4610   -0.7940 C   0  0  0  0  0  0  0  0  0  0  0  0
    4.7770   -2.0180   -0.5360 C   0  0  0  0  0  0  0  0  0  0  0  0
    4.3180   -1.1570   -1.4810 C   0  0  0  0  0  0  0  0  0  0  0  0
    4.1460    0.0780   -0.8480 C   0  0  0  0  0  0  0  0  0  0  0  0
    4.5160   -0.1120    0.4600 C   0  0  0  0  0  0  0  0  0  0  0  0
    4.5010    0.9260    1.5190 C   0  0  0  0  0  0  0  0  0  0  0  0
    3.1740    0.9390    2.2100 C   0  0  0  0  0  0  0  0  0  0  0  0
    2.0600    1.2450    1.2970 N   0  0  0  0  0  0  0  0  0  0  0  0
    1.9890    2.5470    0.7550 C   0  0  0  0  0  0  0  0  0  0  0  0
    0.7180    3.0690    0.3060 C   0  0  0  0  0  0  0  0  0  0  0  0
    0.9340    4.3680   -0.1520 C   0  0  0  0  0  0  0  0  0  0  0  0
   -0.0730    5.1550   -0.6520 C   0  0  0  0  0  0  0  0  0  0  0  0
   -1.3430    4.6560   -0.7090 C   0  0  0  0  0  0  0  0  0  0  0  0
   -1.5560    3.3710   -0.2570 C   0  0  0  0  0  0  0  0  0  0  0  0
   -0.5510    2.5730    0.2470 C   0  0  0  0  0  0  0  0  0  0  0  0
   -1.0960    1.2840    0.6360 C   0  0  0  0  0  0  0  0  0  0  0  0
   -0.1770    0.1710    0.7990 C   0  0  0  0  0  0  0  0  0  0  0  0
    1.1800    0.1410    1.0820 C   0  0  0  0  0  0  0  0  0  0  0  0
    1.8250   -1.0520    1.1850 N   0  0  0  0  0  0  0  0  0  0  0  0
    1.1430   -2.1830    1.0120 C   0  0  0  0  0  0  0  0  0  0  0  0
   -0.1660   -2.1550    0.7390 N   0  0  0  0  0  0  0  0  0  0  0  0
   -0.8790   -1.0170    0.6200 C   0  0  0  0  0  0  0  0  0  0  0  0
   -2.2690   -1.0810    0.3340 N   0  0  0  0  0  0  0  0  0  0  0  0
   -3.3220   -0.6170    1.2100 C   0  0  0  0  0  0  0  0  0  0  0  0
   -4.2940   -1.8050    1.1340 C   0  0  0  0  0  0  0  0  0  0  0  0
   -4.3290   -2.0010   -0.3740 C   0  0  2  0  0  0  0  0  0  0  0  0
   -5.3400   -1.0380   -0.9390 C   0  0  0  0  0  0  0  0  0  0  0  0
   -4.6660   -3.4030   -0.7780 C   0  0  0  0  0  0  0  0  0  0  0  0
   -2.9310   -1.6000   -0.8440 C   0  0  0  0  0  0  0  0  0  0  0  0
    4.8850   -1.3830    0.5930 O   0  0  0  0  0  0  0  0  0  0  0  0
  1  2  1  0
  2  3  2  0
  2 30  1  0
  3  4  1  0
  4  5  2  0
  5  6  1  0
  5 30  1  0
  6  7  1  0
  7  8  1  0
  8  9  1  0
  8 18  1  0
  9 10  1  0
 10 11  2  0
 10 15  1  0
 11 12  1  0
 12 13  2  0
 13 14  1  0
 14 15  2  0
 15 16  1  0
 16 17  1  0
 17 18  2  0
 17 22  1  0
 18 19  1  0
 19 20  2  0
 20 21  1  0
 21 22  2  0
 22 23  1  0
 23 24  1  0
 23 29  1  0
 24 25  1  0
 25 26  1  0
 26 27  1  6
 26 28  1  0
 26 29  1  0
M  END
