
     RDKit          3D

 30 34  0  0  0  0  0  0  0  0999 V2000
   -3.1760    1.0070   -3.5900 C   0  0  0  0  0  0  0  0  0  0  0  0
   -2.3710    2.2640   -3.6370 C   0  0  0  0  0  0  0  0  0  0  0  0
   -1.9570    2.7590   -2.2620 C   0  0  0  0  0  0  0  0  0  0  0  0
   -1.1560    1.8160   -1.5460 N   0  0  0  0  0  0  0  0  0  0  0  0
    0.1640    1.5440   -2.0330 C   0  0  0  0  0  0  0  0  0  0  0  0
    0.7250    0.2230   -1.5550 C   0  0  0  0  0  0  0  0  0  0  0  0
    0.6080    0.1530   -0.1050 N   0  0  0  0  0  0  0  0  0  0  0  0
    1.6120   -0.0170    0.8330 C   0  0  0  0  0  0  0  0  0  0  0  0
    1.3600    0.1080    2.0700 O   0  0  0  0  0  0  0  0  0  0  0  0
    3.0150   -0.3470    0.5190 C   0  0  0  0  0  0  0  0  0  0  0  0
    3.9510   -0.4980    1.5420 C   0  0  0  0  0  0  0  0  0  0  0  0
    5.2520   -0.8060    1.2980 C   0  0  0  0  0  0  0  0  0  0  0  0
    5.6800   -0.9790   -0.0020 C   0  0  0  0  0  0  0  0  0  0  0  0
    7.0090   -1.2970   -0.3110 C   0  0  0  0  0  0  0  0  0  0  0  0
    7.3900   -1.4600   -1.6260 C   0  0  0  0  0  0  0  0  0  0  0  0
    6.4910   -1.3190   -2.6590 C   0  0  0  0  0  0  0  0  0  0  0  0
    5.1930   -1.0060   -2.3110 C   0  0  0  0  0  0  0  0  0  0  0  0
    4.7530   -0.8310   -1.0270 C   0  0  0  0  0  0  0  0  0  0  0  0
    3.4830   -0.5260   -0.7150 N   0  0  0  0  0  0  0  0  0  0  0  0
   -0.7570    0.3190    0.3630 C   0  0  0  0  0  0  0  0  0  0  0  0
   -1.2310   -0.3110    1.4800 C   0  0  0  0  0  0  0  0  0  0  0  0
   -2.5440   -0.1440    1.9060 C   0  0  0  0  0  0  0  0  0  0  0  0
   -3.3870    0.6660    1.1980 C   0  0  0  0  0  0  0  0  0  0  0  0
   -2.8960    1.2960    0.0690 C   0  0  0  0  0  0  0  0  0  0  0  0
   -1.6000    1.1530   -0.3840 C   0  0  0  0  0  0  0  0  0  0  0  0
   -4.7440    0.6900    1.8560 C   0  0  0  0  0  0  0  0  0  0  0  0
   -4.6800   -0.5380    2.7450 C   0  0  0  0  0  0  0  0  0  0  0  0
   -3.2600   -0.6920    3.0060 N   0  0  0  0  0  0  0  0  0  0  0  0
   -2.6600   -1.2980    4.1620 C   0  0  0  0  0  0  0  0  0  0  0  0
   -2.9800   -2.7880    4.0850 C   0  0  0  0  0  0  0  0  0  0  0  0
  1  2  1  0
  2  3  1  0
  3  4  1  0
  4  5  1  0
  4 25  1  0
  5  6  1  0
  6  7  1  0
  7  8  1  0
  7 20  1  0
  8  9  2  0
  8 10  1  0
 10 11  2  0
 10 19  1  0
 11 12  1  0
 12 13  2  0
 13 14  1  0
 13 18  1  0
 14 15  2  0
 15 16  1  0
 16 17  2  0
 17 18  1  0
 18 19  2  0
 20 21  2  0
 20 25  1  0
 21 22  1  0
 22 23  2  0
 22 28  1  0
 23 24  1  0
 23 26  1  0
 24 25  2  0
 26 27  1  0
 27 28  1  0
 28 29  1  0
 29 30  1  0
M  END
