
     RDKit          3D

 38 42  0  0  0  0  0  0  0  0999 V2000
   -1.7440    4.0500   -1.7520 C   0  0  0  0  0  0  0  0  0  0  0  0
   -2.3340    3.0300   -0.8380 C   0  0  0  0  0  0  0  0  0  0  0  0
   -3.6500    2.6800   -0.9110 C   0  0  0  0  0  0  0  0  0  0  0  0
   -4.1110    1.7270   -0.0260 C   0  0  0  0  0  0  0  0  0  0  0  0
   -3.2830    1.1390    0.9070 C   0  0  0  0  0  0  0  0  0  0  0  0
   -3.8630    0.1650    1.7740 N   0  0  0  0  0  0  0  0  0  0  0  0
   -4.3840    0.3330    2.9730 N   0  0  0  0  0  0  0  0  0  0  0  0
   -4.8280   -0.8230    3.4700 C   0  0  0  0  0  0  0  0  0  0  0  0
   -4.5850   -1.7610    2.5640 N   0  0  0  0  0  0  0  0  0  0  0  0
   -3.9850   -1.1620    1.5020 C   0  0  0  0  0  0  0  0  0  0  0  0
   -3.5810   -1.8460    0.3670 N   0  0  0  0  0  0  0  0  0  0  0  0
   -4.0960   -2.1460   -0.7210 C   0  0  0  0  0  0  0  0  0  0  0  0
   -5.4260   -1.8630   -1.2440 C   0  0  0  0  0  0  0  0  0  0  0  0
   -6.3350   -1.1600   -0.5040 C   0  0  0  0  0  0  0  0  0  0  0  0
   -7.6100   -0.8900   -1.0060 C   0  0  0  0  0  0  0  0  0  0  0  0
   -7.9240   -1.3420   -2.2460 C   0  0  0  0  0  0  0  0  0  0  0  0
   -7.0290   -2.0330   -2.9740 N   0  0  0  0  0  0  0  0  0  0  0  0
   -5.8060   -2.3020   -2.5120 C   0  0  0  0  0  0  0  0  0  0  0  0
   -1.9280    1.4910    0.9920 C   0  0  0  0  0  0  0  0  0  0  0  0
   -1.1400    0.8370    2.0130 C   0  0  0  0  0  0  0  0  0  0  0  0
   -1.6380   -0.1930    2.7990 N   0  0  0  0  0  0  0  0  0  0  0  0
   -0.7470   -0.5920    3.6420 N   0  0  0  0  0  0  0  0  0  0  0  0
    0.3440    0.1520    3.4390 C   0  0  0  0  0  0  0  0  0  0  0  0
    1.3880   -0.0140    4.1280 O   0  0  0  0  0  0  0  0  0  0  0  0
    0.1080    1.0410    2.4290 N   0  0  0  0  0  0  0  0  0  0  0  0
    1.0820    1.9720    1.9820 C   0  0  0  0  0  0  0  0  0  0  0  0
    1.9480    1.5590    0.8490 C   0  0  0  0  0  0  0  0  0  0  0  0
    2.7690    0.4090    1.0450 N   0  0  0  0  0  0  0  0  0  0  0  0
    3.6030    0.0190   -0.0690 C   0  0  0  0  0  0  0  0  0  0  0  0
    3.5580    0.6970   -1.1240 O   0  0  0  0  0  0  0  0  0  0  0  0
    4.4570   -1.1120    0.0300 N   0  0  0  0  0  0  0  0  0  0  0  0
    5.2730   -1.4750   -1.0940 C   0  0  2  0  0  0  0  0  0  0  0  0
    4.8610   -2.8560   -1.5620 C   0  0  0  0  0  0  0  0  0  0  0  0
    6.7450   -1.5080   -0.7600 C   0  0  2  0  0  0  0  0  0  0  0  0
    7.3070   -0.1890   -0.2770 C   0  0  0  0  0  0  0  0  0  0  0  0
    7.4780    0.1900   -1.7530 C   0  0  0  0  0  0  0  0  0  0  0  0
    7.5620   -1.3160   -2.0230 C   0  0  0  0  0  0  0  0  0  0  0  0
   -1.5100    2.4270    0.1100 C   0  0  0  0  0  0  0  0  0  0  0  0
  1  2  1  0
  2  3  2  0
  2 38  1  0
  3  4  1  0
  4  5  2  0
  5  6  1  0
  5 19  1  0
  6  7  1  0
  6 10  1  0
  7  8  2  0
  8  9  1  0
  9 10  2  0
 10 11  1  0
 11 12  2  3
 12 13  1  0
 13 14  2  0
 13 18  1  0
 14 15  1  0
 15 16  2  0
 16 17  1  0
 17 18  2  0
 19 20  1  0
 19 38  2  0
 20 21  2  0
 20 25  1  0
 21 22  1  0
 22 23  1  0
 23 24  2  0
 23 25  1  0
 25 26  1  0
 26 27  1  0
 27 28  1  0
 28 29  1  0
 29 30  2  0
 29 31  1  0
 31 32  1  0
 32 33  1  1
 32 34  1  0
 34 35  1  1
 34 37  1  0
 35 36  1  0
 36 37  1  0
M  END
