
     RDKit          3D

 39 43  0  0  0  0  0  0  0  0999 V2000
    8.6700    0.0010   -0.7780 C   0  0  0  0  0  0  0  0  0  0  0  0
    7.9600    1.3250   -1.0490 C   0  0  0  0  0  0  0  0  0  0  0  0
    6.5150    1.2170   -0.8210 C   0  0  0  0  0  0  0  0  0  0  0  0
    6.0170    1.4910    0.4360 C   0  0  0  0  0  0  0  0  0  0  0  0
    4.6700    1.4140    0.7360 C   0  0  0  0  0  0  0  0  0  0  0  0
    3.8010    1.0550   -0.2460 C   0  0  0  0  0  0  0  0  0  0  0  0
    2.3050    0.9580    0.0410 C   0  0  0  0  0  0  0  0  0  0  0  0
    1.9690   -0.4000    0.4840 C   0  0  0  0  0  0  0  0  0  0  0  0
    3.0240   -1.1790    0.5290 O   0  0  0  0  0  0  0  0  0  0  0  0
    0.7470   -1.0060    0.8610 C   0  0  0  0  0  0  0  0  0  0  0  0
    0.9870   -2.7470    1.4190 Cl  0  0  0  0  0  0  0  0  0  0  0  0
   -0.4900   -0.6120    0.9510 C   0  0  0  0  0  0  0  0  0  0  0  0
   -1.0040    0.7080    0.6610 C   0  0  0  0  0  0  0  0  0  0  0  0
   -0.3810    1.7150    0.2840 O   0  0  0  0  0  0  0  0  0  0  0  0
   -2.4340    0.9760    0.8060 N   0  0  0  0  0  0  0  0  0  0  0  0
   -3.0190    2.2590    0.5400 C   0  0  2  0  0  0  0  0  0  0  0  0
   -3.6210    2.8880    1.7100 C   0  0  0  0  0  0  0  0  0  0  0  0
   -3.0500    3.1320    2.7970 O   0  0  0  0  0  0  0  0  0  0  0  0
   -4.9660    3.1830    1.4190 N   0  0  0  0  0  0  0  0  0  0  0  0
   -5.2220    2.7530    0.0700 C   0  0  0  0  0  0  0  0  0  0  0  0
   -6.4190    2.8450   -0.6560 C   0  0  0  0  0  0  0  0  0  0  0  0
   -6.4330    2.3690   -1.9450 C   0  0  0  0  0  0  0  0  0  0  0  0
   -5.3000    1.8200   -2.5020 C   0  0  0  0  0  0  0  0  0  0  0  0
   -4.1370    1.7370   -1.7810 C   0  0  0  0  0  0  0  0  0  0  0  0
   -4.0880    2.2100   -0.4690 C   0  0  0  0  0  0  0  0  0  0  0  0
   -1.4820   -1.6620    1.3440 C   0  0  0  0  0  0  0  0  0  0  0  0
   -2.1490   -1.5350    2.5370 C   0  0  0  0  0  0  0  0  0  0  0  0
   -3.0920   -2.4840    2.9430 C   0  0  0  0  0  0  0  0  0  0  0  0
   -3.3460   -3.5670    2.1180 C   0  0  0  0  0  0  0  0  0  0  0  0
   -2.6870   -3.7090    0.9170 C   0  0  0  0  0  0  0  0  0  0  0  0
   -2.9670   -4.7600    0.1290 N   0  0  0  0  0  0  0  0  0  0  0  0
   -2.3510   -4.8970   -1.0390 C   0  0  0  0  0  0  0  0  0  0  0  0
   -2.6020   -5.8890   -1.8040 O   0  0  0  0  0  0  0  0  0  0  0  0
   -1.4320   -3.9550   -1.4240 C   0  0  0  0  0  0  0  0  0  0  0  0
   -0.8600   -4.1010   -2.5320 O   0  0  0  0  0  0  0  0  0  0  0  0
   -1.1390   -2.8840   -0.6310 N   0  0  0  0  0  0  0  0  0  0  0  0
   -1.7540   -2.7420    0.5470 C   0  0  0  0  0  0  0  0  0  0  0  0
    4.2500    0.7740   -1.5100 C   0  0  0  0  0  0  0  0  0  0  0  0
    5.6150    0.8500   -1.8190 C   0  0  0  0  0  0  0  0  0  0  0  0
  1  2  1  0
  2  3  1  0
  3  4  2  0
  3 39  1  0
  4  5  1  0
  5  6  2  0
  6  7  1  0
  6 38  1  0
  7  8  1  0
  8  9  2  0
  8 10  1  0
 10 11  1  0
 10 12  2  3
 12 13  1  0
 12 26  1  0
 13 14  2  0
 13 15  1  0
 16 15  1  1
 16 17  1  0
 16 25  1  0
 17 18  2  0
 17 19  1  0
 19 20  1  0
 20 21  2  0
 20 25  1  0
 21 22  1  0
 22 23  2  0
 23 24  1  0
 24 25  2  0
 26 27  2  0
 26 37  1  0
 27 28  1  0
 28 29  2  0
 29 30  1  0
 30 31  1  0
 30 37  2  0
 31 32  1  0
 32 33  2  0
 32 34  1  0
 34 35  2  0
 34 36  1  0
 36 37  1  0
 38 39  2  0
M  END
