
     RDKit          3D

 39 43  0  0  0  0  0  0  0  0999 V2000
   -3.4650    2.4390   -0.7610 N   0  0  0  0  0  0  0  0  0  0  0  0
   -3.9130    1.5410   -1.7460 C   0  0  0  0  0  0  0  0  0  0  0  0
   -4.4720    1.9860   -2.7990 O   0  0  0  0  0  0  0  0  0  0  0  0
   -3.7900    0.0680   -1.6680 C   0  0  0  0  0  0  0  0  0  0  0  0
   -3.1560   -0.4040   -0.4760 N   0  0  0  0  0  0  0  0  0  0  0  0
   -1.7470   -0.5780   -0.4560 C   0  0  0  0  0  0  0  0  0  0  0  0
   -1.2000   -0.9960    0.6040 O   0  0  0  0  0  0  0  0  0  0  0  0
   -0.9690   -0.2660   -1.6700 C   0  0  0  0  0  0  0  0  0  0  0  0
    0.3950   -0.4410   -1.4180 O   0  0  0  0  0  0  0  0  0  0  0  0
    1.0710    0.3010   -0.5030 C   0  0  0  0  0  0  0  0  0  0  0  0
    0.4830    1.2960    0.2330 C   0  0  0  0  0  0  0  0  0  0  0  0
    1.2260    2.0310    1.1680 C   0  0  0  0  0  0  0  0  0  0  0  0
    2.5620    1.7420    1.3410 C   0  0  0  0  0  0  0  0  0  0  0  0
    3.1640    0.7460    0.6080 C   0  0  0  0  0  0  0  0  0  0  0  0
    4.5680    0.4310    0.7820 C   0  0  0  0  0  0  0  0  0  0  0  0
    5.1300    0.2960    2.0410 C   0  0  0  0  0  0  0  0  0  0  0  0
    6.4310    0.0030    2.1210 N   0  0  0  0  0  0  0  0  0  0  0  0
    7.2000   -0.1630    1.0330 C   0  0  0  0  0  0  0  0  0  0  0  0
    6.6860   -0.0380   -0.2270 C   0  0  0  0  0  0  0  0  0  0  0  0
    5.3470    0.2640   -0.3460 C   0  0  0  0  0  0  0  0  0  0  0  0
    4.8390    0.3860   -1.4840 O   0  0  0  0  0  0  0  0  0  0  0  0
    7.4750   -0.2070   -1.4740 C   0  0  0  0  0  0  0  0  0  0  0  0
    8.8150   -0.8200   -1.1360 C   0  0  0  0  0  0  0  0  0  0  0  0
    9.3940   -0.0390    0.0270 C   0  0  0  0  0  0  0  0  0  0  0  0
    8.6490   -0.4900    1.2730 C   0  0  0  0  0  0  0  0  0  0  0  0
    2.4230    0.0410   -0.2980 C   0  0  0  0  0  0  0  0  0  0  0  0
   -3.9260   -0.7160    0.7250 C   0  0  1  0  0  0  0  0  0  0  0  0
   -4.6240    0.4300    1.2480 N   0  0  0  0  0  0  0  0  0  0  0  0
   -6.0030    0.6390    0.8990 C   0  0  0  0  0  0  0  0  0  0  0  0
   -6.5970    1.8680    1.1040 C   0  0  0  0  0  0  0  0  0  0  0  0
   -7.9220    2.1010    0.7790 C   0  0  0  0  0  0  0  0  0  0  0  0
   -8.6780    1.0980    0.2390 C   0  0  0  0  0  0  0  0  0  0  0  0
   -8.0900   -0.1370    0.0320 C   0  0  0  0  0  0  0  0  0  0  0  0
   -6.7690   -0.3570    0.3590 C   0  0  0  0  0  0  0  0  0  0  0  0
   -6.1740   -1.5890    0.1540 O   0  0  0  0  0  0  0  0  0  0  0  0
   -4.8530   -1.8530    0.4690 C   0  0  0  0  0  0  0  0  0  0  0  0
   -4.3910   -3.0780    0.5480 C   0  0  0  0  0  0  0  0  0  0  0  0
   -5.2640   -4.2580    0.3040 C   0  0  0  0  0  0  0  0  0  0  0  0
   -6.9170   -3.8000   -0.0860 Cl  0  0  0  0  0  0  0  0  0  0  0  0
  1  2  1  0
  2  3  2  0
  2  4  1  0
  4  5  1  0
  5  6  1  0
 27  5  1  6
  6  7  2  0
  6  8  1  0
  8  9  1  0
  9 10  1  0
 10 11  2  0
 10 26  1  0
 11 12  1  0
 12 13  2  0
 13 14  1  0
 14 15  1  0
 14 26  2  0
 15 16  2  0
 15 20  1  0
 16 17  1  0
 17 18  1  0
 18 19  2  0
 18 25  1  0
 19 20  1  0
 19 22  1  0
 20 21  2  0
 22 23  1  0
 23 24  1  0
 24 25  1  0
 27 28  1  0
 27 36  1  0
 28 29  1  0
 29 30  2  0
 29 34  1  0
 30 31  1  0
 31 32  2  0
 32 33  1  0
 33 34  2  0
 34 35  1  0
 35 36  1  0
 36 37  2  3
 37 38  1  0
 38 39  1  0
M  END
