
     RDKit          3D

 38 42  0  0  0  0  0  0  0  0999 V2000
    5.9140    3.9970   -0.0040 C   0  0  0  0  0  0  0  0  0  0  0  0
    5.2370    2.6870   -0.0580 C   0  0  0  0  0  0  0  0  0  0  0  0
    4.0310    2.5800   -0.7010 C   0  0  0  0  0  0  0  0  0  0  0  0
    3.4200    1.3440   -0.7390 C   0  0  0  0  0  0  0  0  0  0  0  0
    3.9890    0.2270   -0.1540 C   0  0  0  0  0  0  0  0  0  0  0  0
    3.2910   -1.0460   -0.2820 C   0  0  1  0  0  0  0  0  0  0  0  0
    3.9680   -2.2820    0.1510 C   0  0  0  0  0  0  0  0  0  0  0  0
    5.2440   -2.4940   -0.6340 C   0  0  0  0  0  0  0  0  0  0  0  0
    6.0750   -3.6100   -0.3840 N   0  0  0  0  0  0  0  0  0  0  0  0
    5.5910   -1.6710   -1.5310 O   0  0  0  0  0  0  0  0  0  0  0  0
    1.8180   -1.0660   -0.3030 C   0  0  0  0  0  0  0  0  0  0  0  0
    1.1080   -1.3070   -1.5010 C   0  0  0  0  0  0  0  0  0  0  0  0
   -0.2270   -1.3510   -1.6250 C   0  0  0  0  0  0  0  0  0  0  0  0
   -1.0350   -1.1510   -0.5190 C   0  0  0  0  0  0  0  0  0  0  0  0
   -2.4690   -1.3290   -0.6920 C   0  0  0  0  0  0  0  0  0  0  0  0
   -3.0020   -0.7720   -1.7220 O   0  0  0  0  0  0  0  0  0  0  0  0
   -3.3390   -2.0570    0.1430 N   0  0  0  0  0  0  0  0  0  0  0  0
   -4.7680   -2.1630   -0.1250 C   0  0  0  0  0  0  0  0  0  0  0  0
   -5.4660   -0.8590   -0.1060 C   0  0  0  0  0  0  0  0  0  0  0  0
   -5.0850    0.3150    0.5090 C   0  0  0  0  0  0  0  0  0  0  0  0
   -6.0480    1.2690    0.2550 C   0  0  0  0  0  0  0  0  0  0  0  0
   -6.2100    2.5930    0.5990 C   0  0  0  0  0  0  0  0  0  0  0  0
   -7.3190    3.2750    0.1680 C   0  0  0  0  0  0  0  0  0  0  0  0
   -8.2590    2.6210   -0.6070 C   0  0  0  0  0  0  0  0  0  0  0  0
   -8.1200    1.3050   -0.9630 C   0  0  0  0  0  0  0  0  0  0  0  0
   -9.3560    0.5590   -1.9480 Cl  0  0  0  0  0  0  0  0  0  0  0  0
   -6.9990    0.6130   -0.5280 C   0  0  0  0  0  0  0  0  0  0  0  0
   -6.6140   -0.6200   -0.7090 O   0  0  0  0  0  0  0  0  0  0  0  0
   -0.4350   -0.9110    0.6590 C   0  0  0  0  0  0  0  0  0  0  0  0
   -1.1700   -0.6750    1.7650 N   0  0  0  0  0  0  0  0  0  0  0  0
   -0.6040   -0.4040    2.9790 C   0  0  0  0  0  0  0  0  0  0  0  0
   -1.3420   -0.1920    3.9830 O   0  0  0  0  0  0  0  0  0  0  0  0
    0.7340   -0.3680    3.0810 N   0  0  0  0  0  0  0  0  0  0  0  0
    1.5100   -0.5960    1.9980 C   0  0  0  0  0  0  0  0  0  0  0  0
    2.7190   -0.5590    2.1070 O   0  0  0  0  0  0  0  0  0  0  0  0
    0.9700   -0.8700    0.7650 C   0  0  0  0  0  0  0  0  0  0  0  0
    5.1750    0.3390    0.4780 C   0  0  0  0  0  0  0  0  0  0  0  0
    5.7930    1.5670    0.5220 C   0  0  0  0  0  0  0  0  0  0  0  0
  1  2  1  0
  2  3  2  0
  2 38  1  0
  3  4  1  0
  4  5  2  0
  5  6  1  0
  5 37  1  0
  6  7  1  1
  6 11  1  0
  7  8  1  0
  8  9  1  0
  8 10  2  0
 11 12  2  0
 11 36  1  0
 12 13  1  0
 13 14  2  0
 14 15  1  0
 14 29  1  0
 15 16  2  0
 15 17  1  0
 17 18  1  0
 18 19  1  0
 19 20  2  0
 19 28  1  0
 20 21  1  0
 21 22  2  0
 21 27  1  0
 22 23  1  0
 23 24  2  0
 24 25  1  0
 25 26  1  0
 25 27  2  0
 27 28  1  0
 29 30  1  0
 29 36  2  0
 30 31  1  0
 31 32  2  0
 31 33  1  0
 33 34  1  0
 34 35  2  0
 34 36  1  0
 37 38  2  0
M  END
