
     RDKit          3D

 39 43  0  0  0  0  0  0  0  0999 V2000
    4.2960    3.3410    1.7960 C   0  0  0  0  0  0  0  0  0  0  0  0
    4.4590    2.5620    0.5300 C   0  0  0  0  0  0  0  0  0  0  0  0
    5.1980    3.0850   -0.4980 C   0  0  0  0  0  0  0  0  0  0  0  0
    5.3630    2.3880   -1.6710 C   0  0  0  0  0  0  0  0  0  0  0  0
    4.7930    1.1620   -1.8340 C   0  0  0  0  0  0  0  0  0  0  0  0
    4.9530    0.3890   -3.0870 C   0  0  0  0  0  0  0  0  0  0  0  0
    4.0380    0.6220   -0.7910 C   0  0  0  0  0  0  0  0  0  0  0  0
    3.4660   -0.6520   -1.0060 N   0  0  0  0  0  0  0  0  0  0  0  0
    2.6690   -1.3830   -0.1170 C   0  0  0  0  0  0  0  0  0  0  0  0
    2.3760   -0.9550    1.0000 O   0  0  0  0  0  0  0  0  0  0  0  0
    2.1570   -2.7140   -0.5250 C   0  0  0  0  0  0  0  0  0  0  0  0
    1.3360   -3.3270    0.5500 C   0  0  0  0  0  0  0  0  0  0  0  0
    1.7230   -4.3310    1.3880 N   0  0  0  0  0  0  0  0  0  0  0  0
    0.6990   -4.5990    2.2140 C   0  0  0  0  0  0  0  0  0  0  0  0
    0.7120   -5.4730    3.1160 O   0  0  0  0  0  0  0  0  0  0  0  0
   -0.3220   -3.7790    1.9050 N   0  0  0  0  0  0  0  0  0  0  0  0
    0.0450   -2.9700    0.8670 C   0  0  0  0  0  0  0  0  0  0  0  0
   -0.7630   -1.9500    0.2340 C   0  0  0  0  0  0  0  0  0  0  0  0
   -0.2820   -1.2890   -0.7100 O   0  0  0  0  0  0  0  0  0  0  0  0
   -2.1450   -1.6670    0.6740 C   0  0  0  0  0  0  0  0  0  0  0  0
   -2.7900   -0.5740   -0.1460 C   0  0  2  0  0  0  0  0  0  0  0  0
   -4.1880   -0.2970    0.3040 C   0  0  0  0  0  0  0  0  0  0  0  0
   -5.2120   -0.1210   -0.6030 C   0  0  0  0  0  0  0  0  0  0  0  0
   -6.4830    0.1340   -0.1520 C   0  0  0  0  0  0  0  0  0  0  0  0
   -6.8020    0.2250    1.1820 C   0  0  0  0  0  0  0  0  0  0  0  0
   -8.0890    0.4830    1.6410 O   0  0  0  0  0  0  0  0  0  0  0  0
   -5.7710    0.0470    2.0740 C   0  0  0  0  0  0  0  0  0  0  0  0
   -4.4650   -0.2130    1.6450 C   0  0  0  0  0  0  0  0  0  0  0  0
   -2.8720   -0.9210   -1.5690 C   0  0  0  0  0  0  0  0  0  0  0  0
   -3.4220   -1.9490   -2.0800 O   0  0  0  0  0  0  0  0  0  0  0  0
   -2.2270    0.0910   -2.3070 N   0  0  0  0  0  0  0  0  0  0  0  0
   -1.7410    1.0610   -1.3750 C   0  0  0  0  0  0  0  0  0  0  0  0
   -1.0360    2.2420   -1.6520 C   0  0  0  0  0  0  0  0  0  0  0  0
   -0.6690    3.0240   -0.5910 C   0  0  0  0  0  0  0  0  0  0  0  0
    0.2220    4.5290   -0.8700 Cl  0  0  0  0  0  0  0  0  0  0  0  0
   -0.9720    2.6820    0.7120 C   0  0  0  0  0  0  0  0  0  0  0  0
   -1.6620    1.5230    0.9540 C   0  0  0  0  0  0  0  0  0  0  0  0
   -2.0570    0.6940   -0.0970 C   0  0  0  0  0  0  0  0  0  0  0  0
    3.8720    1.3200    0.3870 C   0  0  0  0  0  0  0  0  0  0  0  0
  1  2  1  0
  2  3  2  0
  2 39  1  0
  3  4  1  0
  4  5  2  0
  5  6  1  0
  5  7  1  0
  7  8  1  0
  7 39  2  0
  8  9  1  0
  9 10  2  0
  9 11  1  0
 11 12  1  0
 12 13  1  0
 12 17  2  0
 13 14  1  0
 14 15  2  0
 14 16  1  0
 16 17  1  0
 17 18  1  0
 18 19  2  0
 18 20  1  0
 21 20  1  1
 21 22  1  0
 21 29  1  0
 21 38  1  0
 22 23  2  0
 22 28  1  0
 23 24  1  0
 24 25  2  0
 25 26  1  0
 25 27  1  0
 27 28  2  0
 29 30  2  0
 29 31  1  0
 31 32  1  0
 32 33  2  0
 32 38  1  0
 33 34  1  0
 34 35  1  0
 34 36  2  0
 36 37  1  0
 37 38  2  0
M  END
