
     RDKit          3D

 39 43  0  0  0  0  0  0  0  0999 V2000
   -8.2860    3.0480   -0.1160 C   0  0  0  0  0  0  0  0  0  0  0  0
   -7.3990    1.9250    0.2830 C   0  0  0  0  0  0  0  0  0  0  0  0
   -6.9010    1.7460    1.5070 N   0  0  0  0  0  0  0  0  0  0  0  0
   -6.1410    0.6370    1.5250 C   0  0  0  0  0  0  0  0  0  0  0  0
   -5.4340    0.1370    2.7170 C   0  0  0  0  0  0  0  0  0  0  0  0
   -6.1600    0.1060    0.2840 N   0  0  0  0  0  0  0  0  0  0  0  0
   -5.4820   -1.0830   -0.1450 C   0  0  0  0  0  0  0  0  0  0  0  0
   -6.0520   -2.2830    0.0410 N   0  0  0  0  0  0  0  0  0  0  0  0
   -5.4730   -3.4340   -0.3350 C   0  0  0  0  0  0  0  0  0  0  0  0
   -4.2330   -3.3330   -0.9380 C   0  0  0  0  0  0  0  0  0  0  0  0
   -3.6720   -2.1240   -1.1190 N   0  0  0  0  0  0  0  0  0  0  0  0
   -4.2210   -0.9660   -0.7570 C   0  0  0  0  0  0  0  0  0  0  0  0
   -3.6740    0.3190   -0.9530 N   0  0  0  0  0  0  0  0  0  0  0  0
   -2.4280    0.6700   -1.5170 C   0  0  0  0  0  0  0  0  0  0  0  0
   -1.2240    0.4040   -0.6260 C   0  0  2  0  0  0  0  0  0  0  0  0
   -0.0310    0.9320   -1.4340 C   0  0  0  0  0  0  0  0  0  0  0  0
    1.2420    0.7410   -0.6830 C   0  0  0  0  0  0  0  0  0  0  0  0
    1.1900    0.2170    0.4270 O   0  0  0  0  0  0  0  0  0  0  0  0
    2.4520    1.1640   -1.2640 N   0  0  0  0  0  0  0  0  0  0  0  0
    3.7410    1.0410   -0.6640 C   0  0  0  0  0  0  0  0  0  0  0  0
    4.8200    1.6660   -1.3030 C   0  0  0  0  0  0  0  0  0  0  0  0
    6.0920    1.5930   -0.8020 C   0  0  0  0  0  0  0  0  0  0  0  0
    6.3890    0.8900    0.3750 C   0  0  0  0  0  0  0  0  0  0  0  0
    7.7590    0.9060    0.8190 C   0  0  0  0  0  0  0  0  0  0  0  0
    8.3550    0.0780    1.7330 C   0  0  0  0  0  0  0  0  0  0  0  0
    9.7120    0.1550    2.0740 C   0  0  0  0  0  0  0  0  0  0  0  0
   10.5050    1.0930    1.4780 C   0  0  0  0  0  0  0  0  0  0  0  0
    9.8970    1.9200    0.5590 C   0  0  0  0  0  0  0  0  0  0  0  0
    8.6110    1.8270    0.2560 N   0  0  0  0  0  0  0  0  0  0  0  0
    5.3380    0.2970    0.9770 C   0  0  0  0  0  0  0  0  0  0  0  0
    5.5440   -0.5710    2.4820 Cl  0  0  0  0  0  0  0  0  0  0  0  0
    4.0310    0.3640    0.4740 C   0  0  0  0  0  0  0  0  0  0  0  0
   -0.9900   -0.9980   -0.3600 N   0  0  0  0  0  0  0  0  0  0  0  0
   -0.5340   -1.9080   -1.4130 C   0  0  0  0  0  0  0  0  0  0  0  0
   -0.4180   -3.2540   -0.7820 C   0  0  0  0  0  0  0  0  0  0  0  0
   -1.1110   -3.1140    0.4770 N   0  0  0  0  0  0  0  0  0  0  0  0
   -1.0500   -1.7480    0.8340 C   0  0  0  0  0  0  0  0  0  0  0  0
   -1.0460   -1.2360    1.9830 O   0  0  0  0  0  0  0  0  0  0  0  0
   -6.9250    0.9000   -0.4490 N   0  0  0  0  0  0  0  0  0  0  0  0
  1  2  1  0
  2  3  1  0
  2 39  2  0
  3  4  2  0
  4  5  1  0
  4  6  1  0
  6  7  1  0
  6 39  1  0
  7  8  2  0
  7 12  1  0
  8  9  1  0
  9 10  2  0
 10 11  1  0
 11 12  2  0
 12 13  1  0
 13 14  1  0
 15 14  1  6
 15 16  1  0
 15 33  1  0
 16 17  1  0
 17 18  2  0
 17 19  1  0
 19 20  1  0
 20 21  2  0
 20 32  1  0
 21 22  1  0
 22 23  2  0
 23 24  1  0
 23 30  1  0
 24 25  2  0
 24 29  1  0
 25 26  1  0
 26 27  2  0
 27 28  1  0
 28 29  2  0
 30 31  1  0
 30 32  2  0
 33 34  1  0
 33 37  1  0
 34 35  1  0
 35 36  1  0
 36 37  1  0
 37 38  2  0
M  END
