
     RDKit          3D

 39 43  0  0  0  0  0  0  0  0999 V2000
   -5.3990    1.8370    3.1200 C   0  0  0  0  0  0  0  0  0  0  0  0
   -4.9950    0.4250    2.6840 C   0  0  0  0  0  0  0  0  0  0  0  0
   -5.3680    0.3040    1.2620 C   0  0  0  0  0  0  0  0  0  0  0  0
   -4.4140    0.3710    0.3000 C   0  0  0  0  0  0  0  0  0  0  0  0
   -4.7790    0.2560   -1.0230 C   0  0  0  0  0  0  0  0  0  0  0  0
   -3.8290    0.3210   -2.0430 C   0  0  0  0  0  0  0  0  0  0  0  0
   -2.4570    0.5110   -1.6230 N   0  0  0  0  0  0  0  0  0  0  0  0
   -1.8060   -0.6660   -1.1380 C   0  0  0  0  0  0  0  0  0  0  0  0
   -1.1000   -1.4050   -2.2170 C   0  0  0  0  0  0  0  0  0  0  0  0
   -0.3900   -2.6120   -2.0050 N   0  0  0  0  0  0  0  0  0  0  0  0
   -1.1410   -0.9270   -3.3780 O   0  0  0  0  0  0  0  0  0  0  0  0
   -1.8710    1.7520   -1.6960 C   0  0  0  0  0  0  0  0  0  0  0  0
   -2.6230    2.7150   -2.1420 O   0  0  0  0  0  0  0  0  0  0  0  0
   -0.5230    2.1750   -1.3520 C   0  0  0  0  0  0  0  0  0  0  0  0
    0.2820    1.1270   -0.8660 O   0  0  0  0  0  0  0  0  0  0  0  0
    1.6100    1.3540   -0.4840 C   0  0  0  0  0  0  0  0  0  0  0  0
    2.0110    2.5410   -0.6110 O   0  0  0  0  0  0  0  0  0  0  0  0
    2.4900    0.3100    0.0290 C   0  0  0  0  0  0  0  0  0  0  0  0
    2.0720   -0.9930    0.1860 C   0  0  0  0  0  0  0  0  0  0  0  0
    2.8970   -1.9820    0.6650 C   0  0  0  0  0  0  0  0  0  0  0  0
    4.1770   -1.6760    1.0030 C   0  0  0  0  0  0  0  0  0  0  0  0
    4.6110   -0.3760    0.8540 C   0  0  0  0  0  0  0  0  0  0  0  0
    3.7880    0.6160    0.3740 C   0  0  0  0  0  0  0  0  0  0  0  0
    6.0120   -0.2950    1.2860 C   0  0  0  0  0  0  0  0  0  0  0  0
    6.9200    0.7320    1.3540 C   0  0  0  0  0  0  0  0  0  0  0  0
    8.1940    0.5020    1.8200 C   0  0  0  0  0  0  0  0  0  0  0  0
    9.1130    1.6050    1.8770 N   0  0  0  0  0  0  0  0  0  0  0  0
    8.5870   -0.7530    2.2250 C   0  0  0  0  0  0  0  0  0  0  0  0
    7.6800   -1.7900    2.1590 C   0  0  0  0  0  0  0  0  0  0  0  0
    6.4020   -1.5500    1.6900 C   0  0  0  0  0  0  0  0  0  0  0  0
    5.2720   -2.4990    1.5310 C   0  0  0  0  0  0  0  0  0  0  0  0
   -4.2130    0.2060   -3.3410 C   0  0  0  0  0  0  0  0  0  0  0  0
   -5.5340    0.0250   -3.6850 C   0  0  0  0  0  0  0  0  0  0  0  0
   -5.8730   -0.0800   -4.9130 O   0  0  0  0  0  0  0  0  0  0  0  0
   -6.4660   -0.0400   -2.7200 N   0  0  0  0  0  0  0  0  0  0  0  0
   -6.0850    0.0750   -1.4130 C   0  0  0  0  0  0  0  0  0  0  0  0
   -7.0520    0.0080   -0.4120 C   0  0  0  0  0  0  0  0  0  0  0  0
   -6.6880    0.1230    0.9140 C   0  0  0  0  0  0  0  0  0  0  0  0
   -7.9550    0.0300    2.1410 Cl  0  0  0  0  0  0  0  0  0  0  0  0
  1  2  1  0
  2  3  1  0
  3  4  2  0
  3 38  1  0
  4  5  1  0
  5  6  1  0
  5 36  2  0
  6  7  1  0
  6 32  2  0
  7  8  1  0
  7 12  1  0
  8  9  1  0
  9 10  1  0
  9 11  2  0
 12 13  2  0
 12 14  1  0
 14 15  1  0
 15 16  1  0
 16 17  2  0
 16 18  1  0
 18 19  2  0
 18 23  1  0
 19 20  1  0
 20 21  2  0
 21 22  1  0
 21 31  1  0
 22 23  2  0
 22 24  1  0
 24 25  2  0
 24 30  1  0
 25 26  1  0
 26 27  1  0
 26 28  2  0
 28 29  1  0
 29 30  2  0
 30 31  1  0
 32 33  1  0
 33 34  2  0
 33 35  1  0
 35 36  1  0
 36 37  1  0
 37 38  2  0
 38 39  1  0
M  END
