
     RDKit          3D

 19 19  0  0  0  0  0  0  0  0999 V2000
   -2.9850    1.9760    2.5950 C   0  0  0  0  0  0  0  0  0  0  0  0
   -2.4140    1.2690    1.3970 C   0  0  1  0  0  0  0  0  0  0  0  0
   -0.9290    1.1140    1.6330 C   0  0  0  0  0  0  0  0  0  0  0  0
   -0.2640    0.4060    0.4680 C   0  0  0  0  0  0  0  0  0  0  0  0
    1.2310    0.2900    0.7820 C   0  0  2  0  0  0  0  0  0  0  0  0
    1.8110    1.5200    0.9530 O   0  0  0  0  0  0  0  0  0  0  0  0
    1.8550   -0.5180   -0.3350 C   0  0  2  0  0  0  0  0  0  0  0  0
    1.1370   -1.8820   -0.3050 C   0  0  0  0  0  0  0  0  0  0  0  0
    2.3020   -2.8300   -0.5310 C   0  0  0  0  0  0  0  0  0  0  0  0
    3.2780   -2.2440    0.2500 O   0  0  0  0  0  0  0  0  0  0  0  0
    3.2670   -0.8920   -0.0720 C   0  0  1  0  0  0  0  0  0  0  0  0
    4.2290   -0.6770   -1.1890 C   0  0  0  0  0  0  0  0  0  0  0  0
    4.3780    0.7360   -1.6580 C   0  0  0  0  0  0  0  0  0  0  0  0
    3.2520    1.3390   -2.1420 O   0  0  0  0  0  0  0  0  0  0  0  0
   -3.0390    0.1210    1.0440 O   0  0  0  0  0  0  0  0  0  0  0  0
   -3.6280    0.0860   -0.1900 C   0  0  1  0  0  0  0  0  0  0  0  0
   -3.1170   -1.0080   -0.8880 O   0  0  0  0  0  0  0  0  0  0  0  0
   -5.1250   -0.1860   -0.0250 C   0  0  0  0  0  0  0  0  0  0  0  0
   -5.3600   -1.3910    0.6060 O   0  0  0  0  0  0  0  0  0  0  0  0
  2  1  1  1
  2  3  1  0
  2 15  1  0
  3  4  1  0
  4  5  1  0
  5  6  1  6
  5  7  1  0
  7  8  1  1
  7 11  1  0
  8  9  1  0
  9 10  1  0
 10 11  1  0
 11 12  1  6
 12 13  1  0
 13 14  1  0
 15 16  1  0
 16 17  1  6
 16 18  1  0
 18 19  1  0
M  END
