
     RDKit          3D

 19 19  0  0  0  0  0  0  0  0999 V2000
    5.9600    0.8190    0.1900 C   0  0  0  0  0  0  0  0  0  0  0  0
    4.7070    0.7740   -0.6730 C   0  0  0  0  0  0  0  0  0  0  0  0
    4.0620   -0.4020   -0.3690 O   0  0  0  0  0  0  0  0  0  0  0  0
    2.8920   -0.6160   -1.0830 C   0  0  0  0  0  0  0  0  0  0  0  0
    1.9370    0.5040   -0.7840 C   0  0  0  0  0  0  0  0  0  0  0  0
    1.6740    0.5650    0.6990 C   0  0  1  0  0  0  0  0  0  0  0  0
    0.7910    1.6220    0.9460 O   0  0  0  0  0  0  0  0  0  0  0  0
    1.1000   -0.7340    1.1690 C   0  0  0  0  0  0  0  0  0  0  0  0
   -0.0490   -1.0620    0.5460 O   0  0  0  0  0  0  0  0  0  0  0  0
   -1.1510   -0.2880    0.8090 C   0  0  2  0  0  0  0  0  0  0  0  0
   -2.1500   -1.2810    1.4600 C   0  0  0  0  0  0  0  0  0  0  0  0
   -2.7500   -2.0270    0.2900 C   0  0  1  0  0  0  0  0  0  0  0  0
   -3.2240   -3.2760    0.6260 O   0  0  0  0  0  0  0  0  0  0  0  0
   -3.8330   -1.1110   -0.2490 C   0  0  0  0  0  0  0  0  0  0  0  0
   -3.1990    0.2090   -0.6070 C   0  0  1  0  0  0  0  0  0  0  0  0
   -3.4720    0.3980   -1.9870 O   0  0  0  0  0  0  0  0  0  0  0  0
   -3.8220    1.3810    0.0860 C   0  0  0  0  0  0  0  0  0  0  0  0
   -3.2890    2.5950   -0.3540 O   0  0  0  0  0  0  0  0  0  0  0  0
   -1.7190    0.2140   -0.4760 C   0  0  0  0  0  0  0  0  0  0  0  0
  1  2  1  0
  2  3  1  0
  3  4  1  0
  4  5  1  0
  5  6  1  0
  6  7  1  6
  6  8  1  0
  8  9  1  0
 10  9  1  6
 10 11  1  0
 10 19  1  0
 11 12  1  0
 12 13  1  1
 12 14  1  0
 14 15  1  0
 15 16  1  6
 15 17  1  0
 15 19  1  0
 17 18  1  0
M  END
