
     RDKit          3D

 19 19  0  0  0  0  0  0  0  0999 V2000
   -3.6190   -0.7710   -0.2690 C   0  0  0  0  0  0  0  0  0  0  0  0
   -2.3420    0.1460   -0.1140 C   0  0  1  0  0  0  0  0  0  0  0  0
   -2.8130    1.2370    0.7660 C   0  0  0  0  0  0  0  0  0  0  0  0
   -1.8420    2.3070    1.1470 C   0  0  0  0  0  0  0  0  0  0  0  0
   -2.4730    3.2880    1.9550 O   0  0  0  0  0  0  0  0  0  0  0  0
   -1.3300   -0.6220    0.3620 O   0  0  0  0  0  0  0  0  0  0  0  0
   -0.4190   -1.0980   -0.5870 C   0  0  2  0  0  0  0  0  0  0  0  0
   -0.6700   -2.6300   -0.6710 C   0  0  0  0  0  0  0  0  0  0  0  0
    0.2930   -3.1990   -1.6440 C   0  0  0  0  0  0  0  0  0  0  0  0
    1.6200   -2.8940   -1.3100 O   0  0  0  0  0  0  0  0  0  0  0  0
    1.8570   -1.5480   -1.3700 C   0  0  0  0  0  0  0  0  0  0  0  0
    1.0230   -0.8380   -0.2930 C   0  0  2  0  0  0  0  0  0  0  0  0
    1.4330   -1.4340    1.0190 C   0  0  0  0  0  0  0  0  0  0  0  0
    0.7410   -0.9470    2.1060 O   0  0  0  0  0  0  0  0  0  0  0  0
    1.2580    0.6510   -0.4030 C   0  0  0  0  0  0  0  0  0  0  0  0
    2.6420    1.1110   -0.1470 C   0  0  2  0  0  0  0  0  0  0  0  0
    3.1770    0.8540    1.0800 O   0  0  0  0  0  0  0  0  0  0  0  0
    2.6280    2.6380   -0.3180 C   0  0  0  0  0  0  0  0  0  0  0  0
    1.8430    3.2240    0.6990 O   0  0  0  0  0  0  0  0  0  0  0  0
  2  1  1  1
  2  3  1  0
  2  6  1  0
  3  4  1  0
  4  5  1  0
  7  6  1  1
  7  8  1  0
  7 12  1  0
  8  9  1  0
  9 10  1  0
 10 11  1  0
 11 12  1  0
 12 13  1  1
 12 15  1  0
 13 14  1  0
 15 16  1  0
 16 17  1  1
 16 18  1  0
 18 19  1  0
M  END
