
     RDKit          3D

 19 19  0  0  0  0  0  0  0  0999 V2000
   -4.1240    1.7800    0.4850 C   0  0  0  0  0  0  0  0  0  0  0  0
   -3.2520    1.0050    1.4130 C   0  0  1  0  0  0  0  0  0  0  0  0
   -3.9690    0.9140    2.6440 O   0  0  0  0  0  0  0  0  0  0  0  0
   -2.8760   -0.3710    1.0620 C   0  0  0  0  0  0  0  0  0  0  0  0
   -2.0910   -0.6380   -0.1780 C   0  0  1  0  0  0  0  0  0  0  0  0
   -2.7570   -0.2380   -1.4460 C   0  0  0  0  0  0  0  0  0  0  0  0
   -3.9770   -0.8810   -1.6310 O   0  0  0  0  0  0  0  0  0  0  0  0
   -0.7300    0.0280   -0.0290 C   0  0  0  0  0  0  0  0  0  0  0  0
    0.4110   -0.7740   -0.5430 C   0  0  2  0  0  0  0  0  0  0  0  0
    1.4140    0.0690   -1.0280 O   0  0  0  0  0  0  0  0  0  0  0  0
    2.6200   -0.0990   -0.3250 C   0  0  0  0  0  0  0  0  0  0  0  0
    3.6520    0.8320   -0.8930 C   0  0  1  0  0  0  0  0  0  0  0  0
    3.2390    2.1650   -0.7580 O   0  0  0  0  0  0  0  0  0  0  0  0
    4.9550    0.6280   -0.1840 C   0  0  0  0  0  0  0  0  0  0  0  0
    4.7890    0.9110    1.2810 C   0  0  0  0  0  0  0  0  0  0  0  0
    6.0360    0.7180    1.8950 O   0  0  0  0  0  0  0  0  0  0  0  0
    0.0670   -1.7800   -1.6050 C   0  0  0  0  0  0  0  0  0  0  0  0
   -1.2390   -2.4760   -1.3030 C   0  0  0  0  0  0  0  0  0  0  0  0
   -1.8250   -2.0170   -0.1380 O   0  0  0  0  0  0  0  0  0  0  0  0
  2  1  1  6
  2  3  1  0
  2  4  1  0
  5  4  1  1
  5  6  1  0
  5  8  1  0
  5 19  1  0
  6  7  1  0
  8  9  1  0
  9 10  1  6
  9 17  1  0
 10 11  1  0
 11 12  1  0
 12 13  1  1
 12 14  1  0
 14 15  1  0
 15 16  1  0
 17 18  1  0
 18 19  1  0
M  END
