
     RDKit          3D

 18 18  0  0  0  0  0  0  0  0999 V2000
   -4.5280    0.7680    1.6950 C   0  0  0  0  0  0  0  0  0  0  0  0
   -3.6160    0.8380    0.4930 C   0  0  1  0  0  0  0  0  0  0  0  0
   -2.6640   -0.3530    0.4500 C   0  0  0  0  0  0  0  0  0  0  0  0
   -2.2180   -0.3300   -0.9860 C   0  0  2  0  0  0  0  0  0  0  0  0
   -0.9200    0.0980   -1.1530 O   0  0  0  0  0  0  0  0  0  0  0  0
   -0.0570   -0.8090   -1.6770 C   0  0  1  0  0  0  0  0  0  0  0  0
    0.5680   -0.3660   -2.8570 O   0  0  0  0  0  0  0  0  0  0  0  0
    1.0590   -1.0570   -0.6830 C   0  0  0  0  0  0  0  0  0  0  0  0
    1.8170    0.2340   -0.3820 C   0  0  0  0  0  0  0  0  0  0  0  0
    2.9220   -0.1110    0.6270 C   0  0  2  0  0  0  0  0  0  0  0  0
    2.2380   -0.6180    1.7580 O   0  0  0  0  0  0  0  0  0  0  0  0
    3.6180    1.0230    0.9120 O   0  0  0  0  0  0  0  0  0  0  0  0
    4.9620    1.0320    0.7050 C   0  0  0  0  0  0  0  0  0  0  0  0
    5.7430    0.0610    1.5190 C   0  0  0  0  0  0  0  0  0  0  0  0
    5.4470   -1.2620    1.3630 O   0  0  0  0  0  0  0  0  0  0  0  0
   -3.2290    0.4300   -1.7760 C   0  0  0  0  0  0  0  0  0  0  0  0
   -4.3740    0.6130   -0.8010 C   0  0  1  0  0  0  0  0  0  0  0  0
   -5.1040   -0.5650   -0.6370 O   0  0  0  0  0  0  0  0  0  0  0  0
  2  1  1  1
  2  3  1  0
  2 17  1  0
  3  4  1  0
  4  5  1  1
  4 16  1  0
  5  6  1  0
  6  7  1  6
  6  8  1  0
  8  9  1  0
  9 10  1  0
 10 11  1  1
 10 12  1  0
 12 13  1  0
 13 14  1  0
 14 15  1  0
 16 17  1  0
 17 18  1  1
M  END
