
     RDKit          3D

 18 19  0  0  0  0  0  0  0  0999 V2000
   -3.5850    1.8500    0.4780 N   0  0  0  0  0  0  0  0  0  0  0  0
   -2.8280    1.1130   -0.5170 C   0  0  1  0  0  0  0  0  0  0  0  0
   -1.4040    1.4760   -0.4100 C   0  0  0  0  0  0  0  0  0  0  0  0
   -0.6730    0.4200   -0.0750 C   0  0  0  0  0  0  0  0  0  0  0  0
    0.7310    0.3850    0.1200 N   0  0  0  0  0  0  0  0  0  0  0  0
    1.6470   -0.3350   -0.6900 C   0  0  0  0  0  0  0  0  0  0  0  0
    1.2110   -0.9920   -1.6620 O   0  0  0  0  0  0  0  0  0  0  0  0
    3.1190   -0.3290   -0.4120 C   0  0  0  0  0  0  0  0  0  0  0  0
    3.9620   -1.0450   -1.2290 C   0  0  0  0  0  0  0  0  0  0  0  0
    5.5990   -0.6880   -0.4450 S   0  0  0  0  0  0  0  0  0  0  0  0
    4.7410    0.3910    0.8620 C   0  0  0  0  0  0  0  0  0  0  0  0
    5.5750    0.9300    1.7480 O   0  0  0  0  0  0  0  0  0  0  0  0
    3.7040    0.2960    0.5440 O   0  0  0  0  0  0  0  0  0  0  0  0
   -1.5910   -0.6890    0.0650 C   0  0  0  0  0  0  0  0  0  0  0  0
   -1.2890   -2.0720    0.4450 C   0  0  0  0  0  0  0  0  0  0  0  0
   -2.1600   -2.9710    0.5450 O   0  0  0  0  0  0  0  0  0  0  0  0
    0.0170   -2.4170    0.7120 O   0  0  0  0  0  0  0  0  0  0  0  0
   -2.8510   -0.3120   -0.1860 C   0  0  0  0  0  0  0  0  0  0  0  0
  2  1  1  1
  2  3  1  0
  2 18  1  0
  3  4  2  0
  4  5  1  0
  4 14  1  0
  5  6  1  0
  6  7  2  0
  6  8  1  0
  8  9  2  0
  8 13  1  0
  9 10  1  0
 10 11  1  0
 11 12  2  0
 11 13  1  0
 14 15  1  0
 14 18  2  0
 15 16  2  0
 15 17  1  0
M  CHG  1   1   1
M  END
