
     RDKit          3D

  7  6  0  0  0  0  0  0  0  0999 V2000
   -0.1830    1.2880    0.4860 N   0  0  0  0  0  0  0  0  0  0  0  0
    0.0590    0.3000   -0.5140 C   0  0  2  0  0  0  0  0  0  0  0  0
   -1.0670   -0.6900   -0.6690 C   0  0  0  0  0  0  0  0  0  0  0  0
   -1.3310   -1.3960    0.4780 O   0  0  0  0  0  0  0  0  0  0  0  0
    1.3180   -0.4320   -0.2280 C   0  0  0  0  0  0  0  0  0  0  0  0
    1.7430   -1.3530   -0.9710 O   0  0  0  0  0  0  0  0  0  0  0  0
    2.0470   -0.0880    0.8950 O   0  0  0  0  0  0  0  0  0  0  0  0
  2  1  1  1
  2  3  1  0
  2  5  1  0
  3  4  1  0
  5  6  2  0
  5  7  1  0
M  CHG  1   1   1
M  END
