
     RDKit          3D

 18 18  0  0  0  0  0  0  0  0999 V2000
    4.6170    1.1390    1.8670 C   0  0  0  0  0  0  0  0  0  0  0  0
    4.5440    0.2300    0.8090 O   0  0  0  0  0  0  0  0  0  0  0  0
    3.4160   -0.4530    0.4000 C   0  0  0  0  0  0  0  0  0  0  0  0
    2.3520   -0.2390    1.0390 O   0  0  0  0  0  0  0  0  0  0  0  0
    3.4250   -1.3540   -0.6800 N   0  0  0  0  0  0  0  0  0  0  0  0
    2.2820   -2.0430   -1.0940 O   0  0  0  0  0  0  0  0  0  0  0  0
    1.1470   -1.3450   -1.4750 C   0  0  0  0  0  0  0  0  0  0  0  0
    1.2020   -0.0900   -1.4280 O   0  0  0  0  0  0  0  0  0  0  0  0
   -0.1250   -1.9970   -1.9320 C   0  0  0  0  0  0  0  0  0  0  0  0
   -1.3640   -0.8380   -2.3770 S   0  0  0  0  0  0  0  0  0  0  0  0
   -2.0160    0.2300   -1.1250 C   0  0  0  0  0  0  0  0  0  0  0  0
   -2.1890    1.5680   -1.3130 C   0  0  0  0  0  0  0  0  0  0  0  0
   -2.7370    2.2330   -0.1370 C   0  0  0  0  0  0  0  0  0  0  0  0
   -2.7550    1.2090    0.9210 C   0  0  0  0  0  0  0  0  0  0  0  0
   -3.0580    1.4030    2.1510 N   0  0  0  0  0  0  0  0  0  0  0  0
   -2.3590   -0.0560    0.2460 C   0  0  0  0  0  0  0  0  0  0  0  0
   -2.4540   -1.1850    0.9130 C   0  0  0  0  0  0  0  0  0  0  0  0
   -2.2140   -2.3920    0.3200 O   0  0  0  0  0  0  0  0  0  0  0  0
  1  2  1  0
  2  3  1  0
  3  4  2  0
  3  5  1  0
  5  6  1  0
  6  7  1  0
  7  8  2  0
  7  9  1  0
  9 10  1  0
 10 11  1  0
 11 12  2  0
 11 16  1  0
 12 13  1  0
 13 14  1  0
 14 15  2  0
 14 16  1  0
 16 17  2  3
 17 18  1  0
M  CHG  1  15   1
M  END
