
     RDKit          3D

 18 18  0  0  0  0  0  0  0  0999 V2000
    0.2920   -1.4990   -1.8410 C   0  0  0  0  0  0  0  0  0  0  0  0
   -0.0270   -1.4240   -0.4690 O   0  0  0  0  0  0  0  0  0  0  0  0
   -0.5060   -0.2450    0.0520 C   0  0  0  0  0  0  0  0  0  0  0  0
    0.3090    0.3390    0.9200 C   0  0  0  0  0  0  0  0  0  0  0  0
    1.5790   -0.3050    1.2240 C   0  0  0  0  0  0  0  0  0  0  0  0
    2.4020    0.2900    2.1030 C   0  0  0  0  0  0  0  0  0  0  0  0
    3.6540   -0.2250    2.4840 N   0  0  0  0  0  0  0  0  0  0  0  0
    2.0160   -1.5150    0.6660 N   0  0  0  0  0  0  0  0  0  0  0  0
    3.0660   -1.6150   -0.2090 O   0  0  0  0  0  0  0  0  0  0  0  0
    0.0340    1.8820    1.7780 S   0  0  0  0  0  0  0  0  0  0  0  0
   -1.4250    2.6980    1.1270 C   0  0  0  0  0  0  0  0  0  0  0  0
   -1.5380    2.6850   -0.3620 C   0  0  0  0  0  0  0  0  0  0  0  0
   -2.0990    1.4640   -0.8440 O   0  0  0  0  0  0  0  0  0  0  0  0
   -1.8000    0.1330   -0.4440 C   0  0  0  0  0  0  0  0  0  0  0  0
   -2.7810   -0.6990   -0.5570 C   0  0  0  0  0  0  0  0  0  0  0  0
   -4.0030   -0.1800   -1.0730 O   0  0  0  0  0  0  0  0  0  0  0  0
   -2.7810   -2.0810   -0.2140 C   0  0  0  0  0  0  0  0  0  0  0  0
   -1.8480   -2.7270    0.2710 O   0  0  0  0  0  0  0  0  0  0  0  0
  1  2  1  0
  2  3  1  0
  3  4  2  0
  3 14  1  0
  4  5  1  0
  4 10  1  0
  5  6  2  3
  5  8  1  0
  6  7  1  0
  8  9  1  0
 10 11  1  0
 11 12  1  0
 12 13  1  0
 13 14  1  0
 14 15  2  3
 15 16  1  0
 15 17  1  0
 17 18  2  0
M  CHG  1   7   1
M  END
