
     RDKit          3D

 18 19  0  0  0  0  0  0  0  0999 V2000
    4.1520    0.8950    0.4630 N   0  0  0  0  0  0  0  0  0  0  0  0
    4.4450   -0.4630    0.7120 C   0  0  0  0  0  0  0  0  0  0  0  0
    5.1170   -0.7840    1.7420 O   0  0  0  0  0  0  0  0  0  0  0  0
    3.9080   -1.7530   -0.3640 S   0  0  0  0  0  0  0  0  0  0  0  0
    2.9180   -1.0650   -1.7030 C   0  0  0  0  0  0  0  0  0  0  0  0
    1.6360   -0.5030   -1.2770 C   0  0  0  0  0  0  0  0  0  0  0  0
    1.4510    0.7300   -1.1320 O   0  0  0  0  0  0  0  0  0  0  0  0
    0.5570   -1.3760   -1.0150 O   0  0  0  0  0  0  0  0  0  0  0  0
   -0.6410   -0.8110   -0.6140 C   0  0  0  0  0  0  0  0  0  0  0  0
   -1.6190   -0.6010   -1.5670 C   0  0  0  0  0  0  0  0  0  0  0  0
   -2.8140   -0.0450   -1.2120 C   0  0  0  0  0  0  0  0  0  0  0  0
   -3.1070    0.3320    0.0970 C   0  0  0  0  0  0  0  0  0  0  0  0
   -4.3590    0.9040    0.4070 N   0  0  0  0  0  0  0  0  0  0  0  0
   -2.1330    0.1210    1.0400 C   0  0  0  0  0  0  0  0  0  0  0  0
   -0.9300   -0.4400    0.6730 C   0  0  0  0  0  0  0  0  0  0  0  0
   -0.1780   -0.5170    1.8410 O   0  0  0  0  0  0  0  0  0  0  0  0
   -0.7360    0.3580    2.8350 C   0  0  0  0  0  0  0  0  0  0  0  0
   -2.1020    0.3770    2.4030 O   0  0  0  0  0  0  0  0  0  0  0  0
  1  2  1  0
  2  3  2  0
  2  4  1  0
  4  5  1  0
  5  6  1  0
  6  7  2  0
  6  8  1  0
  8  9  1  0
  9 10  2  0
  9 15  1  0
 10 11  1  0
 11 12  2  0
 12 13  1  0
 12 14  1  0
 14 15  2  0
 14 18  1  0
 15 16  1  0
 16 17  1  0
 17 18  1  0
M  CHG  1  13   1
M  END
