
     RDKit          3D

 18 19  0  0  0  0  0  0  0  0999 V2000
   -0.9870   -2.7130    1.0520 N   0  0  0  0  0  0  0  0  0  0  0  0
   -1.5090   -1.5480    0.4190 C   0  0  0  0  0  0  0  0  0  0  0  0
   -2.8700   -1.4340    0.1700 C   0  0  0  0  0  0  0  0  0  0  0  0
   -3.4110   -0.3230   -0.4400 C   0  0  0  0  0  0  0  0  0  0  0  0
   -2.5670    0.7030   -0.8130 C   0  0  0  0  0  0  0  0  0  0  0  0
   -1.2330    0.6040   -0.5750 C   0  0  0  0  0  0  0  0  0  0  0  0
   -0.6730   -0.5130    0.0410 C   0  0  0  0  0  0  0  0  0  0  0  0
    0.6780   -0.6130    0.2810 O   0  0  0  0  0  0  0  0  0  0  0  0
    1.5120    0.4360   -0.1030 C   0  0  0  0  0  0  0  0  0  0  0  0
    2.9390    0.1950    0.2150 C   0  0  0  0  0  0  0  0  0  0  0  0
    3.2570   -0.8820    0.7780 O   0  0  0  0  0  0  0  0  0  0  0  0
    3.9640    1.1250   -0.0850 N   0  0  0  0  0  0  0  0  0  0  0  0
    5.3360    0.9060    0.2150 C   0  0  0  0  0  0  0  0  0  0  0  0
    6.2480    1.8910   -0.1270 O   0  0  0  0  0  0  0  0  0  0  0  0
    5.8590   -0.4350    0.9340 S   0  0  0  0  0  0  0  0  0  0  0  0
   -3.3450    1.7150   -1.4090 O   0  0  0  0  0  0  0  0  0  0  0  0
   -4.6990    1.4280   -1.1850 C   0  0  0  0  0  0  0  0  0  0  0  0
   -4.7100    0.0600   -0.8090 O   0  0  0  0  0  0  0  0  0  0  0  0
  1  2  1  0
  2  3  2  0
  2  7  1  0
  3  4  1  0
  4  5  2  0
  4 18  1  0
  5  6  1  0
  5 16  1  0
  6  7  2  0
  7  8  1  0
  8  9  1  0
  9 10  1  0
 10 11  2  0
 10 12  1  0
 12 13  1  0
 13 14  1  0
 13 15  2  0
 16 17  1  0
 17 18  1  0
M  CHG  1   1   1
M  END
