
     RDKit          3D

 18 18  0  0  0  0  0  0  0  0999 V2000
    1.2850    0.3510    3.3220 C   0  0  0  0  0  0  0  0  0  0  0  0
    1.7640    0.1110    1.9020 C   0  0  0  0  0  0  0  0  0  0  0  0
    2.9570    0.5030    1.5520 C   0  0  0  0  0  0  0  0  0  0  0  0
    3.6110    0.3750    0.2730 C   0  0  0  0  0  0  0  0  0  0  0  0
    3.1700   -0.1680   -0.7860 N   0  0  0  0  0  0  0  0  0  0  0  0
    0.9030   -0.5180    1.0390 O   0  0  0  0  0  0  0  0  0  0  0  0
   -0.0730    0.2570    0.3300 C   0  0  0  0  0  0  0  0  0  0  0  0
    0.0010    1.4640    0.6060 O   0  0  0  0  0  0  0  0  0  0  0  0
   -0.9770   -0.4300   -0.5750 C   0  0  0  0  0  0  0  0  0  0  0  0
   -1.9120    0.1360   -1.2970 C   0  0  0  0  0  0  0  0  0  0  0  0
   -2.1440    1.5640   -1.2600 C   0  0  0  0  0  0  0  0  0  0  0  0
   -3.2140    2.0320   -2.1200 N   0  0  0  0  0  0  0  0  0  0  0  0
   -1.5450    2.4170   -0.5900 O   0  0  0  0  0  0  0  0  0  0  0  0
   -2.7390   -0.6590   -2.1530 O   0  0  0  0  0  0  0  0  0  0  0  0
   -2.8590   -2.0470   -2.0320 C   0  0  0  0  0  0  0  0  0  0  0  0
   -1.6560   -2.6100   -1.5180 O   0  0  0  0  0  0  0  0  0  0  0  0
   -0.8300   -1.9100   -0.6870 C   0  0  0  0  0  0  0  0  0  0  0  0
    0.3330   -2.6350    0.2090 S   0  0  0  0  0  0  0  0  0  0  0  0
  1  2  1  0
  2  3  2  3
  2  6  1  0
  3  4  1  0
  4  5  2  0
  6  7  1  0
  7  8  2  0
  7  9  1  0
  9 10  2  0
  9 17  1  0
 10 11  1  0
 10 14  1  0
 11 12  1  0
 11 13  2  0
 14 15  1  0
 15 16  1  0
 16 17  1  0
 17 18  2  0
M  CHG  1   5   1
M  END
