
     RDKit          3D

 18 18  0  0  0  0  0  0  0  0999 V2000
    5.8460    1.1370    1.1650 C   0  0  0  0  0  0  0  0  0  0  0  0
    5.3400   -0.0960    0.6910 O   0  0  0  0  0  0  0  0  0  0  0  0
    3.9350   -0.2130    0.4190 C   0  0  0  0  0  0  0  0  0  0  0  0
    3.3000    0.8160    0.6380 O   0  0  0  0  0  0  0  0  0  0  0  0
    3.3900   -1.4420   -0.0610 C   0  0  0  0  0  0  0  0  0  0  0  0
    2.2260   -1.8320   -0.3780 C   0  0  0  0  0  0  0  0  0  0  0  0
    0.8970   -1.3400   -0.4450 C   0  0  0  0  0  0  0  0  0  0  0  0
   -0.0470   -2.1690   -0.8650 O   0  0  0  0  0  0  0  0  0  0  0  0
    0.3940   -0.0810   -0.1300 N   0  0  0  0  0  0  0  0  0  0  0  0
   -1.0310    0.2190   -0.2740 C   0  0  0  0  0  0  0  0  0  0  0  0
   -1.3200    1.2030   -1.1140 C   0  0  0  0  0  0  0  0  0  0  0  0
   -2.6430    1.7560   -1.4880 C   0  0  0  0  0  0  0  0  0  0  0  0
   -3.5010    0.7870   -1.9860 O   0  0  0  0  0  0  0  0  0  0  0  0
   -4.2570   -0.1250   -0.8170 S   0  0  0  0  0  0  0  0  0  0  0  0
   -5.5540    0.4980   -0.2450 N   0  0  0  0  0  0  0  0  0  0  0  0
   -3.1920   -0.8030    0.3820 C   0  0  0  0  0  0  0  0  0  0  0  0
   -3.8020   -1.6540    1.2910 O   0  0  0  0  0  0  0  0  0  0  0  0
   -1.9010   -0.6080    0.5260 C   0  0  0  0  0  0  0  0  0  0  0  0
  1  2  1  0
  2  3  1  0
  3  4  2  0
  3  5  1  0
  5  6  2  3
  6  7  1  0
  7  8  2  0
  7  9  1  0
  9 10  1  0
 10 11  2  0
 10 18  1  0
 11 12  1  0
 12 13  1  0
 14 13  1  1
 14 15  2  0
 14 16  1  0
 16 17  1  0
 16 18  2  0
M  CHG  1  15   1
M  END
