
     RDKit          3D

 18 18  0  0  0  0  0  0  0  0999 V2000
    4.3220   -0.2530    1.2640 N   0  0  0  0  0  0  0  0  0  0  0  0
    3.5690   -0.0320    0.0350 C   0  0  0  0  0  0  0  0  0  0  0  0
    2.3140    0.6410    0.4350 C   0  0  0  0  0  0  0  0  0  0  0  0
    2.4800    1.8640    1.0880 O   0  0  0  0  0  0  0  0  0  0  0  0
    1.1100    0.1570    0.2090 C   0  0  0  0  0  0  0  0  0  0  0  0
   -0.2860    1.1630    0.7960 S   0  0  0  0  0  0  0  0  0  0  0  0
   -0.5800    2.4130   -0.4890 C   0  0  0  0  0  0  0  0  0  0  0  0
   -1.3360    1.8760   -1.6290 C   0  0  0  0  0  0  0  0  0  0  0  0
   -1.0610    2.2640   -2.7860 O   0  0  0  0  0  0  0  0  0  0  0  0
   -2.3320    0.9620   -1.4400 O   0  0  0  0  0  0  0  0  0  0  0  0
   -3.2260    0.9090   -0.3710 C   0  0  0  0  0  0  0  0  0  0  0  0
   -3.5990   -0.5650   -0.1740 C   0  0  0  0  0  0  0  0  0  0  0  0
   -2.3960   -1.2730   -0.2110 O   0  0  0  0  0  0  0  0  0  0  0  0
   -2.1130   -1.6530    1.1070 C   0  0  0  0  0  0  0  0  0  0  0  0
   -0.6760   -2.0640    1.2780 C   0  0  0  0  0  0  0  0  0  0  0  0
    0.0340   -2.1440    0.0110 N   0  0  0  0  0  0  0  0  0  0  0  0
    0.8680   -1.1030   -0.4770 C   0  0  0  0  0  0  0  0  0  0  0  0
    1.4530   -1.2580   -1.5900 O   0  0  0  0  0  0  0  0  0  0  0  0
  1  2  1  0
  2  3  1  0
  3  4  1  0
  3  5  2  3
  5  6  1  0
  5 17  1  0
  6  7  1  0
  7  8  1  0
  8  9  2  0
  8 10  1  0
 10 11  1  0
 11 12  1  0
 12 13  1  0
 13 14  1  0
 14 15  1  0
 15 16  1  0
 16 17  1  0
 17 18  2  0
M  CHG  1   1   1
M  END
