
     RDKit          3D

 28 30  0  0  0  0  0  0  0  0999 V2000
   -3.3480    3.0300    1.0970 N   0  0  0  0  0  0  0  0  0  0  0  0
   -3.7600    1.6870    1.1570 C   0  0  0  0  0  0  0  0  0  0  0  0
   -3.0130    0.7140    0.5770 N   0  0  0  0  0  0  0  0  0  0  0  0
   -3.4150   -0.5510    0.6410 C   0  0  0  0  0  0  0  0  0  0  0  0
   -4.5880   -0.9030    1.2910 C   0  0  0  0  0  0  0  0  0  0  0  0
   -4.7250   -2.2330    1.1890 N   0  0  0  0  0  0  0  0  0  0  0  0
   -3.6860   -2.6990    0.5050 C   0  0  0  0  0  0  0  0  0  0  0  0
   -2.8680   -1.6700    0.1600 N   0  0  0  0  0  0  0  0  0  0  0  0
   -1.6640   -1.8310   -0.5800 C   0  0  2  0  0  0  0  0  0  0  0  0
   -0.5670   -1.1520   -0.0000 O   0  0  0  0  0  0  0  0  0  0  0  0
    0.3920   -1.3730   -0.9930 C   0  0  2  0  0  0  0  0  0  0  0  0
    1.6980   -0.7020   -0.6910 C   0  0  0  0  0  0  0  0  0  0  0  0
    1.5100    0.6370   -0.5870 O   0  0  0  0  0  0  0  0  0  0  0  0
    2.9360    1.4490   -0.2480 P   0  0  0  0  0  0  0  0  0  0  0  0
    2.8120    1.0940    1.2260 O   0  0  0  0  0  0  0  0  0  0  0  0
    2.8590    3.0590    0.0160 O   0  0  0  0  0  0  0  0  0  0  0  0
    4.3940    0.7090   -0.3880 O   0  0  0  0  0  0  0  0  0  0  0  0
    5.4030    0.5100    0.7280 P   0  0  0  0  0  0  0  0  0  0  0  0
    4.8340    1.7730    1.6140 O   0  0  0  0  0  0  0  0  0  0  0  0
    6.7040    0.7020   -0.2370 O   0  0  0  0  0  0  0  0  0  0  0  0
    4.7600   -1.0090    0.9990 O   0  0  0  0  0  0  0  0  0  0  0  0
   -0.2830   -0.8880   -2.2290 C   0  0  2  0  0  0  0  0  0  0  0  0
   -0.1640    0.4730   -2.4250 O   0  0  0  0  0  0  0  0  0  0  0  0
   -1.7290   -1.3150   -1.9940 C   0  0  1  0  0  0  0  0  0  0  0  0
   -2.0770   -2.3140   -2.9000 O   0  0  0  0  0  0  0  0  0  0  0  0
   -5.3480    0.0850    1.8810 C   0  0  0  0  0  0  0  0  0  0  0  0
   -6.4140   -0.2380    2.4720 O   0  0  0  0  0  0  0  0  0  0  0  0
   -4.9070    1.3510    1.7940 N   0  0  0  0  0  0  0  0  0  0  0  0
  1  2  1  0
  2  3  1  0
  2 28  2  0
  3  4  1  0
  4  5  2  0
  4  8  1  0
  5  6  1  0
  5 26  1  0
  6  7  2  0
  7  8  1  0
  9  8  1  1
  9 10  1  0
  9 24  1  0
 10 11  1  0
 11 12  1  1
 11 22  1  0
 12 13  1  0
 13 14  1  0
 14 15  1  0
 14 16  1  0
 14 17  1  0
 17 18  1  0
 18 19  1  0
 18 20  1  0
 18 21  1  0
 22 23  1  1
 22 24  1  0
 24 25  1  6
 26 27  2  0
 26 28  1  0
M  CHG  1  28   1
M  END
