
     RDKit          3D

 18 19  0  0  0  0  0  0  0  0999 V2000
    0.3380   -0.0050   -1.7340 C   0  0  0  0  0  0  0  0  0  0  0  0
    0.4600   -0.3900   -0.2690 C   0  0  2  0  0  0  0  0  0  0  0  0
    1.2150    0.6410    0.3500 O   0  0  0  0  0  0  0  0  0  0  0  0
    2.4930    0.9830   -0.0060 C   0  0  0  0  0  0  0  0  0  0  0  0
    3.0620    0.3720   -0.9270 O   0  0  0  0  0  0  0  0  0  0  0  0
    3.1660    2.0130    0.6570 O   0  0  0  0  0  0  0  0  0  0  0  0
    4.4240    2.3680    0.3270 O   0  0  0  0  0  0  0  0  0  0  0  0
    1.1450   -1.6260   -0.2300 O   0  0  0  0  0  0  0  0  0  0  0  0
    0.4290   -2.7900   -0.4570 C   0  0  0  0  0  0  0  0  0  0  0  0
    0.8050   -3.7360   -1.1920 O   0  0  0  0  0  0  0  0  0  0  0  0
   -0.8040   -2.8560    0.2150 O   0  0  0  0  0  0  0  0  0  0  0  0
   -1.1340   -1.7610    1.0050 C   0  0  0  0  0  0  0  0  0  0  0  0
   -1.6120   -1.8780    2.1880 O   0  0  0  0  0  0  0  0  0  0  0  0
   -0.8960   -0.4240    0.3870 C   0  0  1  0  0  0  0  0  0  0  0  0
   -1.0020    0.5310    1.3980 O   0  0  0  0  0  0  0  0  0  0  0  0
   -2.3700    0.7930    1.3870 C   0  0  0  0  0  0  0  0  0  0  0  0
   -2.5560    0.9850   -0.1250 C   0  0  0  0  0  0  0  0  0  0  0  0
   -1.8570   -0.1320   -0.5770 O   0  0  0  0  0  0  0  0  0  0  0  0
  2  1  1  6
  2  3  1  0
  2  8  1  0
  2 14  1  0
  3  4  1  0
  4  5  2  0
  4  6  1  0
  6  7  1  0
  8  9  1  0
  9 10  2  0
  9 11  1  0
 11 12  1  0
 12 13  2  0
 12 14  1  0
 14 15  1  1
 14 18  1  0
 15 16  1  0
 16 17  1  0
 17 18  1  0
M  END
