
     RDKit          3D

 18 18  0  0  0  0  0  0  0  0999 V2000
   -2.1550    2.8450    2.1500 O   0  0  0  0  0  0  0  0  0  0  0  0
   -1.8640    2.1570    1.1380 C   0  0  0  0  0  0  0  0  0  0  0  0
   -0.6360    2.5080    0.3740 C   0  0  0  0  0  0  0  0  0  0  0  0
    0.0530    1.3210    0.1730 O   0  0  0  0  0  0  0  0  0  0  0  0
    1.1000    1.4210   -0.7050 C   0  0  0  0  0  0  0  0  0  0  0  0
    1.3010    0.0190   -1.2900 C   0  0  0  0  0  0  0  0  0  0  0  0
    1.0500   -0.9540   -0.1600 C   0  0  2  0  0  0  0  0  0  0  0  0
    2.2970   -1.4450    0.2780 O   0  0  0  0  0  0  0  0  0  0  0  0
    2.4750   -1.2400    1.5610 O   0  0  0  0  0  0  0  0  0  0  0  0
    3.7360   -0.9110    1.7380 O   0  0  0  0  0  0  0  0  0  0  0  0
    0.3220   -2.1160   -0.7220 C   0  0  0  0  0  0  0  0  0  0  0  0
    0.9580   -2.8220   -1.5650 O   0  0  0  0  0  0  0  0  0  0  0  0
   -0.9520   -2.4770   -0.4090 O   0  0  0  0  0  0  0  0  0  0  0  0
   -1.8570   -1.7730    0.3750 C   0  0  0  0  0  0  0  0  0  0  0  0
   -2.6990   -0.9240   -0.5080 C   0  0  0  0  0  0  0  0  0  0  0  0
   -3.4490   -1.5290   -1.3190 O   0  0  0  0  0  0  0  0  0  0  0  0
   -2.6150    0.4420   -0.3940 O   0  0  0  0  0  0  0  0  0  0  0  0
   -2.6780    1.1200    0.7780 O   0  0  0  0  0  0  0  0  0  0  0  0
  1  2  2  0
  2  3  1  0
  2 18  1  0
  3  4  1  0
  4  5  1  0
  5  6  1  0
  6  7  1  0
  7  8  1  6
  7 11  1  0
  8  9  1  0
  9 10  1  0
 11 12  2  0
 11 13  1  0
 13 14  1  0
 14 15  1  0
 15 16  2  0
 15 17  1  0
 17 18  1  0
M  END
