
     RDKit          3D

 18 18  0  0  0  0  0  0  0  0999 V2000
   -2.7840   -0.5770    2.0110 O   0  0  0  0  0  0  0  0  0  0  0  0
   -2.4560   -1.1360    0.9400 C   0  0  0  0  0  0  0  0  0  0  0  0
   -2.9030   -0.5440   -0.3390 C   0  0  0  0  0  0  0  0  0  0  0  0
   -1.9720    0.3160   -0.8980 O   0  0  0  0  0  0  0  0  0  0  0  0
   -1.9450    1.5080   -0.1830 C   0  0  0  0  0  0  0  0  0  0  0  0
   -0.5740    2.0970   -0.0880 C   0  0  0  0  0  0  0  0  0  0  0  0
    0.0920    1.7870    1.1170 O   0  0  0  0  0  0  0  0  0  0  0  0
    0.8360    0.6700    1.3500 C   0  0  0  0  0  0  0  0  0  0  0  0
    0.8610    0.1750    2.5060 O   0  0  0  0  0  0  0  0  0  0  0  0
    1.6390   -0.0170    0.2960 C   0  0  2  0  0  0  0  0  0  0  0  0
    2.2550    0.9020   -0.5470 O   0  0  0  0  0  0  0  0  0  0  0  0
    3.5480    0.7270   -0.5440 O   0  0  0  0  0  0  0  0  0  0  0  0
    4.1720    1.4540    0.3500 O   0  0  0  0  0  0  0  0  0  0  0  0
    5.1260    2.1830   -0.1720 O   0  0  0  0  0  0  0  0  0  0  0  0
    0.8380   -0.9080   -0.4330 O   0  0  0  0  0  0  0  0  0  0  0  0
    0.6160   -2.0910    0.2670 C   0  0  0  0  0  0  0  0  0  0  0  0
   -0.7400   -2.6690    0.0320 C   0  0  0  0  0  0  0  0  0  0  0  0
   -1.7060   -2.2610    0.9640 O   0  0  0  0  0  0  0  0  0  0  0  0
  1  2  2  0
  2  3  1  0
  2 18  1  0
  3  4  1  0
  4  5  1  0
  5  6  1  0
  6  7  1  0
  7  8  1  0
  8  9  2  0
  8 10  1  0
 10 11  1  6
 10 15  1  0
 11 12  1  0
 12 13  1  0
 13 14  1  0
 15 16  1  0
 16 17  1  0
 17 18  1  0
M  END
